16
gdb 6082	4.57828	0.85912	0.76252	2.6675	72.51	-0.2598	-0.0515	0.2083	1473.128	0.126795	-383.728824	-383.71912	-383.718176	-383.764821	32.773	
C	-0.4342930024	 1.5131511542	-0.195208099	-0.391129
C	 0.1669005938	 0.1255227283	 0.0765296262	-0.031363
O	-0.8007854109	-0.7860570149	 0.5833443688	-0.407557
C	 0.8487860339	-0.3972722284	-1.1116962622	 0.080514
C	 1.3893877866	-0.8175401219	-2.1070289333	 0.005545
C	 2.0562712708	-1.3257330269	-3.2924328252	 0.250333
C	 1.5147159243	-2.6330526175	-3.8337527749	-0.478004
O	 2.9834565703	-0.7326931441	-3.8010800922	-0.275073
H	 0.3429446159	 2.2250161422	-0.4859772441	 0.137335
H	-1.169193757	 1.4617022335	-1.0050531923	 0.121383
H	-0.9311377009	 1.8708264056	 0.7099160373	 0.132778
H	 0.9070899304	 0.2149549849	 0.8811001984	 0.132895
H	-1.4411519838	-0.9529199692	-0.1175173181	 0.284561
H	 0.4546583466	-2.5254741753	-4.0881874047	 0.143827
H	 2.0831453826	-2.9253908788	-4.7177776475	 0.144455
H	 1.5819181397	-3.4133186317	-3.0679948072	 0.1495
24.8515	75.8779	97.4607	121.8845	193.6223	237.6764	260.9952	305.9431	347.7341	420.8794	537.1016	559.1861	595.1167	613.0499	683.2124	864.437	945.2803	989.1143	1041.3831	1044.1863	1087.2162	1130.5085	1239.1934	1285.6834	1325.4594	1380.9669	1399.8565	1415.0702	1460.5135	1468.4407	1488.4734	1492.0938	1768.9296	2320.873	3039.2665	3040.0235	3044.526	3103.4028	3118.4434	3133.7625	3152.3382	3802.6349
CC(O)C#CC(C)=O	C[C@@H](O)C#CC(=O)C	
InChI=1S/C6H8O2/c1-5(7)3-4-6(2)8/h5,7H,1-2H3	InChI=1S/C6H8O2/c1-5(7)3-4-6(2)8/h5,7H,1-2H3/t5-/m1/s1
