19
gdb 85342	1.82927	1.77436	0.92782	5.6057	82.83	-0.2116	-0.0202	0.1914	1250.4631	0.160143	-419.235484	-419.22675	-419.225806	-419.268515	33.603	
C	-0.0241469436	 1.4651341393	 0.055208318	-0.310858
N	 0.0001758554	 0.0143347529	 0.0150348547	-0.082314
C	-1.3342901813	-0.5587013768	-0.1070057085	-0.263743
C	-1.316038196	-2.0864367666	-0.2015829795	 0.370865
O	-2.2277044483	-2.6760655648	-0.7572756609	-0.362167
C	-0.1979399447	-2.7519880164	 0.4387339465	-0.280113
C	 0.7580412501	-2.0525439891	 1.0958399648	 0.350967
N	 1.7522924162	-2.6304067232	 1.8380327273	-0.558737
C	 0.7315324704	-0.543470941	 1.13495049	-0.221692
H	 0.9994362801	 1.8547649536	 0.0699591462	 0.115221
H	-0.5202761363	 1.847513328	-0.841654178	 0.126401
H	-0.5569524779	 1.868895497	 0.9380777354	 0.093192
H	-1.9880442627	-0.2851580619	 0.7488819051	 0.091988
H	-1.8153423247	-0.1751711745	-1.0104820873	 0.12503
H	-0.1813815318	-3.8371981629	 0.4014792346	 0.080908
H	 1.8782697162	-3.6273628027	 1.7579445134	 0.262775
H	 2.6006742977	-2.1090701316	 1.9904208567	 0.257504
H	 1.7609154361	-0.1603862386	 1.1059700356	 0.102921
H	 0.3147835249	-0.2324868308	 2.1180514257	 0.10185
116.6453	150.6168	170.4438	254.1177	295.0411	311.6899	363.1969	389.1955	438.8567	450.5943	478.357	539.9107	556.6399	597.9426	627.2937	862.6919	878.5141	916.3066	931.0806	986.91	1033.3873	1076.5379	1102.183	1151.0018	1162.8365	1208.9663	1260.9856	1283.0031	1298.2729	1312.6202	1363.7838	1383.1802	1441.6634	1458.1688	1472.7225	1483.7942	1500.2254	1505.861	1642.7806	1684.8111	1758.3246	2864.835	2879.6796	2922.5875	3018.7629	3057.3508	3092.8065	3105.6367	3172.6477	3583.9644	3695.3467
CN1CC(=O)C=C(N)C1	CN1CC(=O)C=C(N)C1	
InChI=1S/C6H10N2O/c1-8-3-5(7)2-6(9)4-8/h2H,3-4,7H2,1H3	InChI=1S/C6H10N2O/c1-8-3-5(7)2-6(9)4-8/h2H,3-4,7H2,1H3
