21
gdb 70421	2.69765	1.53507	1.30001	1.6796	81.92	-0.2259	0.077	0.3029	1090.2956	0.181982	-387.045999	-387.037594	-387.03665	-387.078653	33.324	
C	-0.0440263456	 1.561908121	-0.1979859276	-0.498793
C	 0.0475332159	 0.0709092525	-0.0560145399	 0.1929
C	-0.9367978839	-0.7575979184	 0.757885752	-0.350507
C	 0.5293246532	-0.8250357829	 1.0571046166	 0.053322
O	 1.1730000455	-1.7325961297	 0.1596773571	-0.336718
C	 0.816621339	-0.8968608117	-0.9698999174	 0.425522
C	 0.1716396074	-1.5337361013	-2.2190687402	-0.287044
C	 1.0545401211	-0.5996903577	-3.0942186319	-0.217399
C	 1.9657689911	-0.3679973398	-1.8571245707	-0.298272
H	 0.9318910159	 2.0144121674	-0.4022671073	 0.123847
H	-0.722959064	 1.8467428385	-1.0111799696	 0.121847
H	-0.4316246007	 2.0151527466	 0.7200648663	 0.121019
H	-1.5392558222	-0.178360594	 1.4521228064	 0.107559
H	-1.4299980591	-1.6280257926	 0.3333431953	 0.112638
H	 1.0006212178	-0.6325307344	 2.0142733095	 0.099834
H	 0.4747080115	-2.5807233186	-2.3084372937	 0.11412
H	-0.9154986625	-1.4681253663	-2.3131038773	 0.096655
H	 1.5191038009	-1.0366089846	-3.9798880186	 0.102479
H	 0.5240476361	 0.3084714539	-3.3920283321	 0.104476
H	 2.3486318793	 0.6374013492	-1.6672670774	 0.097906
H	 2.7997932029	-1.0746075872	-1.8273509197	 0.11461
106.7915	138.1934	184.5647	199.7638	268.921	335.173	399.6605	448.7983	474.4313	520.4665	630.4536	693.8433	778.871	804.7583	826.3257	880.247	894.512	907.3388	924.7793	958.5637	975.2902	1003.2874	1020.9219	1029.6426	1071.6148	1081.7867	1095.0408	1123.7913	1149.7339	1176.3048	1195.2861	1223.549	1242.9292	1269.0906	1276.9653	1280.811	1327.3987	1393.0463	1424.0925	1464.0765	1479.7294	1483.817	1491.6421	1497.8407	1504.0291	3023.1915	3056.2068	3061.811	3068.0604	3082.2762	3099.0907	3105.5276	3109.3585	3113.6676	3127.4506	3175.5388	3200.4354
CC12CC1OC21CCC1	C[C@]12C[C@H]1OC12CCC1	
InChI=1S/C8H12O/c1-7-5-6(7)9-8(7)3-2-4-8/h6H,2-5H2,1H3	InChI=1S/C8H12O/c1-7-5-6(7)9-8(7)3-2-4-8/h6H,2-5H2,1H3/t6-,7+/m1/s1
