15
gdb 15923	3.55917	1.94413	1.57054	4.5863	65.39	-0.2716	-0.0026	0.269	832.8172	0.119699	-362.639043	-362.632178	-362.631233	-362.670332	25.587	
N	 0.0083800502	-1.1661421619	-0.1983202863	-0.338072
C	 0.0165459891	-0.0171007789	-0.0701897053	 0.232339
C	 0.0478264819	 1.4299541882	 0.0530358826	 0.322416
C	-0.5523288375	 2.2985082969	-1.0818801428	-0.275035
C	 0.7011892674	 3.2258759123	-1.018100341	-0.229113
C	 1.344089326	 2.3104440054	 0.0598036659	-0.134599
C	 0.9348532479	 2.6320678696	 1.5038996627	-0.085415
O	-0.3114046511	 1.8977785371	 1.3671200857	-0.31702
H	-0.6487701136	 1.7612380501	-2.0276537105	 0.127714
H	-1.5142513313	 2.7386424502	-0.8142763398	 0.12874
H	 1.2629676734	 3.2596417128	-1.9528481557	 0.11964
H	 0.5167845613	 4.2514906195	-0.6896435637	 0.114046
H	 2.3429281076	 1.9194207142	-0.1212057888	 0.103078
H	 1.5724237511	 2.1800759762	 2.2725829808	 0.119223
H	 0.7652677275	 3.6877533483	 1.7437083561	 0.112059
85.7364	157.6367	190.3768	339.311	363.0474	509.3754	546.9084	573.4638	674.0581	745.3068	822.0623	872.9429	918.3114	945.0729	979.584	997.6204	1030.4036	1084.7765	1101.4001	1119.3194	1152.0442	1186.5106	1212.1645	1234.458	1268.552	1287.153	1316.7265	1348.8208	1461.6545	1488.7113	1523.1034	2350.983	3025.8645	3071.3959	3075.4413	3078.0806	3120.1295	3139.4588	3143.9839
N#CC12CCC1CO2	N#C[C@]12CC[C@H]1CO2	
InChI=1S/C6H7NO/c7-4-6-2-1-5(6)3-8-6/h5H,1-3H2	InChI=1S/C6H7NO/c7-4-6-2-1-5(6)3-8-6/h5H,1-3H2/t5-,6+/m0/s1
