16
gdb 97190	2.7076	1.39048	0.9531	1.7788	69.81	-0.2682	-0.0224	0.2457	1194.1131	0.123644	-475.052697	-475.044201	-475.043257	-475.086827	29.964	
C	 0.1008044589	 1.4521987379	 0.1315184475	-0.340992
N	-0.0034543282	 0.0090580014	 0.2681055136	-0.274711
C	-1.0507079115	-0.6060962418	-0.0425044589	 0.411784
C	-1.1980156809	-2.0957174125	 0.125777895	-0.191999
O	-1.9178467702	-2.6481669083	-0.9602085466	-0.227101
C	-3.2250929729	-2.134584761	-1.0050221301	-0.216103
C	-3.2988147446	-0.6143459778	-0.9681191082	 0.386855
O	-4.2714093134	 0.0093815334	-1.2711960273	-0.294991
O	-2.1737819162	 0.0490950694	-0.5504991068	-0.232388
H	 0.9160203408	 1.6759002217	-0.5649746111	 0.138302
H	-0.8119513653	 1.9443766137	-0.2165543149	 0.138325
H	 0.3899744469	 1.8712423444	 1.1009797404	 0.13628
H	-0.206952661	-2.5470185199	 0.1423917254	 0.155379
H	-1.7041630003	-2.3185254294	 1.0810004715	 0.116553
H	-3.688393426	-2.4670331827	-1.9359157469	 0.161337
H	-3.8398399261	-2.5101791285	-0.1687043727	 0.133471
67.0592	71.3523	110.1908	203.8546	217.2934	322.3293	406.2503	446.845	478.6831	539.4104	568.5995	623.4144	666.5896	834.2561	939.1807	982.3937	995.3679	1027.2426	1080.6884	1124.885	1134.064	1157.7772	1197.3759	1248.5279	1280.1179	1308.4743	1357.4928	1396.4826	1437.8819	1464.9132	1483.3014	1492.99	1495.1628	1799.9565	1876.3746	2962.848	2968.9576	3031.134	3091.6749	3110.9667	3121.7631	3149.4841
CN=C1COCC(=O)O1	CN=C1COCC(=O)O1	
InChI=1S/C5H7NO3/c1-6-4-2-8-3-5(7)9-4/h2-3H2,1H3	InChI=1S/C5H7NO3/c1-6-4-2-8-3-5(7)9-4/h2-3H2,1H3
