18
gdb 102228	3.08591	1.07364	0.8353	1.7285	74.07	-0.2394	0.0106	0.25	1378.5777	0.146299	-472.43754	-472.427211	-472.426267	-472.473404	36.052	
C	-0.6209972711	 0.8956616761	 0.304708716	-0.255493
O	-0.6178011552	 0.0299360205	-0.8386471112	-0.239365
C	 0.583986646	-0.4684015897	-1.225510951	 0.458025
N	 0.7194437274	-1.8450589926	-1.0079408205	-0.40064
C	 0.2152729033	-2.5652999183	 0.0748673505	 0.463053
N	 0.5064434348	-3.9155869217	-0.0243131265	-0.562793
O	-0.3683248542	-2.0840725461	 1.022265882	-0.367681
N	 1.5055156832	 0.1267400958	-1.8571291727	-0.324712
C	 1.3172221474	 1.5007052883	-2.2794123826	-0.326618
H	-0.4358955512	 0.3084139067	 1.2066093559	 0.156668
H	 0.1214275393	 1.6936324981	 0.2033828345	 0.120262
H	-1.6191915401	 1.3347573292	 0.3439230367	 0.132811
H	 1.5099522315	-2.2355414077	-1.4995842194	 0.259818
H	 0.5499444255	-4.32776289	-0.9437355717	 0.255743
H	 0.0268448048	-4.4728518311	 0.6658832038	 0.265705
H	 0.270371196	 1.8290583984	-2.2692400309	 0.119566
H	 1.8997992682	 2.1779978739	-1.6417006476	 0.123411
H	 1.7086120245	 1.6136366802	-3.2960168053	 0.122239
47.6631	88.1929	124.024	142.6169	166.0835	197.5223	258.6011	269.6617	308.7695	384.2743	409.352	424.6242	530.5032	593.5893	614.4883	735.142	741.5959	779.9276	858.766	979.8237	1050.6416	1109.8837	1121.8676	1133.2917	1161.499	1177.3471	1222.5017	1295.343	1316.9025	1437.3797	1473.6065	1483.0093	1493.8903	1499.3115	1511.1305	1515.9167	1623.0227	1755.8064	1818.5239	3005.9659	3041.3472	3063.1682	3081.4081	3124.2169	3148.4969	3580.1746	3619.2778	3697.4959
COC(NC(N)=O)=NC	COC(=NC)NC(=O)N	
InChI=1S/C4H9N3O2/c1-6-4(9-2)7-3(5)8/h1-2H3,(H3,5,6,7,8)	InChI=1S/C4H9N3O2/c1-6-4(9-2)7-3(5)8/h1-2H3,(H3,5,6,7,8)
