22
gdb 122387	4.28003	0.70123	0.68731	2.9362	82.22	-0.2243	0.0777	0.302	1720.665	0.194369	-404.292093	-404.282618	-404.281674	-404.327488	34.891	
O	 0.3494641269	 0.5924933236	 2.186898929	-0.420473
C	 0.3006646118	-0.4243055069	 1.1979991871	-0.075537
C	-1.1001341478	-1.0208482291	 1.205554613	-0.156314
C	-1.2768971528	-2.1369734329	 0.1672794379	-0.243188
C	-2.6890057111	-2.6816827164	 0.1461409318	 0.024401
C	-3.1008530115	-4.0490208728	-0.2314965762	-0.05354
C	-2.1008353573	-5.117853267	 0.2054942588	-0.249782
C	-2.2403454955	-4.5304999956	 1.6311097119	-0.153555
N	-3.2897263887	-3.5369069751	 1.1975016135	-0.15391
H	 1.2328433323	 0.9721116356	 2.1857616293	 0.285028
H	 0.5266487076	-0.0193026035	 0.1972911668	 0.082131
H	 1.0430511942	-1.2143944873	 1.4014185123	 0.081504
H	-1.316063491	-1.4026894685	 2.2098087989	 0.118192
H	-1.8224609269	-0.2169183283	 1.0194725138	 0.107884
H	-1.054716326	-1.7463354353	-0.8351912244	 0.099627
H	-0.5451708281	-2.9314272007	 0.3466174966	 0.09968
H	-3.4184518667	-1.9222196408	-0.135366107	 0.09259
H	-3.9506681214	-4.2315228393	-0.8831868028	 0.089659
H	-2.5043145748	-6.1290693712	 0.1296303154	 0.110696
H	-1.116743596	-5.1008210997	-0.2732738824	 0.100738
H	-2.6828555156	-5.2252633445	 2.3473185122	 0.111501
H	-1.3522425016	-4.0820200141	 2.0870572046	 0.10267
45.248	80.3889	104.7313	126.2953	228.5837	260.5906	276.8657	328.0721	387.1076	496.3143	567.9797	703.6587	759.2748	775.1165	784.6948	789.0468	870.4297	920.8369	957.9749	986.6421	997.3945	1019.5158	1043.7704	1052.9063	1077.0021	1090.1261	1132.7058	1145.5413	1180.6811	1215.4201	1218.0885	1233.3991	1252.8267	1269.4258	1294.6009	1301.3834	1304.5315	1314.5412	1361.2879	1378.8278	1453.7782	1464.1736	1479.7525	1490.8606	1498.931	1514.8184	1528.7686	2952.7379	2977.0014	3019.1748	3037.6286	3047.8771	3055.0622	3066.3644	3085.7054	3102.1837	3110.3181	3120.4966	3148.8919	3829.7803
OCCCC1C2CCN12	OCCC[C@H]1[C@H]2CCN12	
InChI=1S/C7H13NO/c9-5-1-2-6-7-3-4-8(6)7/h6-7,9H,1-5H2	InChI=1S/C7H13NO/c9-5-1-2-6-7-3-4-8(6)7/h6-7,9H,1-5H2/t6-,7+,8?/m0/s1
