19
gdb 81366	2.57185	1.62312	1.28224	1.3664	75.26	-0.2364	-0.0006	0.2357	1051.583	0.160121	-423.007644	-422.999805	-422.998861	-423.039555	31.468	
C	-0.2108468267	 1.5272218682	 0.0133801413	-0.404919
C	 0.0470538987	 0.0125273099	 0.0277377097	-0.03656
C	 0.7546259159	-0.4735983935	-1.224303146	-0.072635
C	 1.8766809686	-1.1842640158	-1.1079587871	-0.067462
C	 2.3492529701	-1.4628463101	 0.2987304133	-0.019728
O	 1.1937642105	-1.8505129497	 1.1199840518	-0.321475
C	 0.886627405	-0.424890474	 1.2397023766	 0.019292
C	 2.4048161984	-0.1341097606	 1.1015948454	 0.183348
O	 3.1009935678	-0.2067328147	 2.3176956945	-0.457923
H	 0.7241329765	 2.0932652127	-0.045452897	 0.123308
H	-0.8245285468	 1.80867839	-0.8481000908	 0.119663
H	-0.7418152212	 1.8418405559	 0.9181509346	 0.118929
H	-0.9271931697	-0.4937453117	 0.0996486678	 0.091806
H	 0.3173886781	-0.2332868874	-2.1898728784	 0.094906
H	 2.4425028693	-1.5452044209	-1.9600183762	 0.096358
H	 3.1783692324	-2.1680340611	 0.3856454691	 0.078152
H	 0.4185727155	-0.1793719629	 2.198658813	 0.075224
H	 2.7411975305	 0.765319666	 0.5844203035	 0.092301
H	 2.7882765869	-1.0005204802	 2.7699508252	 0.287415
145.1286	171.9544	212.456	269.0905	336.7042	384.6139	403.2124	463.8494	485.8506	511.7086	614.6985	703.6927	759.9324	842.144	871.4834	913.6357	931.3024	933.1286	944.9866	975.6614	986.2339	1018.5391	1060.8454	1101.0017	1114.2246	1129.8242	1150.7314	1204.0888	1223.0544	1244.1153	1285.1914	1307.853	1321.9773	1349.0328	1359.8353	1389.6309	1413.2742	1435.0883	1494.6339	1499.8555	1692.554	2991.959	3032.3442	3061.0941	3096.463	3101.3593	3104.5936	3111.6997	3158.8081	3191.8454	3777.8857
CC1C=CC2OC1C2O	C[C@H]1C=C[C@@H]2O[C@H]1[C@H]2O	
InChI=1S/C7H10O2/c1-4-2-3-5-6(8)7(4)9-5/h2-8H,1H3	InChI=1S/C7H10O2/c1-4-2-3-5-6(8)7(4)9-5/h2-8H,1H3/t4-,5-,6-,7+/m0/s1
