19
gdb 27524	4.15479	0.98459	0.84904	3.4971	84.9	-0.1946	0.0406	0.2352	1388.1673	0.161114	-382.085817	-382.07719	-382.076245	-382.119588	32.364	
C	 0.4263192371	 1.3765916856	 0.0579342728	-0.501579
C	 0.1422751349	-0.089183652	 0.0466269731	 0.339188
C	 0.6325434781	-1.0988444754	-0.7500920922	-0.369759
C	 0.0251869166	-2.3294582527	-0.3419198033	 0.316839
C	-0.8186250661	-2.0210391552	 0.7012548862	-0.195003
N	-0.7433871192	-0.6669057187	 0.9247682881	-0.305447
C	 0.2504682643	-3.6816367946	-0.8917216358	-0.091106
C	 0.6814489537	-3.8844552307	-2.301595915	-0.247276
N	 1.6210839102	-4.1550828285	-1.2029691126	-0.32544
H	 0.8418370559	 1.7111592363	 1.016864421	 0.127067
H	 1.1548318039	 1.6195975326	-0.7187569829	 0.138163
H	-0.4732736244	 1.9748266788	-0.1342321556	 0.127016
H	 1.34880615	-0.9619630827	-1.5475410586	 0.088347
H	-1.4601540107	-2.652778531	 1.2946634072	 0.116833
H	-1.2561773488	-0.1705967031	 1.6325756685	 0.255962
H	-0.3656934611	-4.4555701724	-0.4394488114	 0.076697
H	 0.3543950296	-4.7633568064	-2.851243642	 0.112397
H	 0.825039124	-2.9975731868	-2.9132741099	 0.109571
H	 2.2627148217	-3.3714960732	-1.1009366078	 0.227531
63.6861	101.6014	142.6639	155.3395	254.6312	326.6421	418.4654	428.3291	475.2304	584.8306	643.1803	676.6335	708.723	720.9069	793.2543	813.0729	877.4024	962.2178	972.5545	980.2736	999.9197	1015.9798	1062.7831	1093.1099	1135.2737	1143.5469	1166.5406	1192.2812	1241.4896	1268.9657	1300.6599	1319.9225	1398.3737	1419.6419	1437.5593	1450.5982	1481.4933	1503.3842	1510.9247	1560.4172	1637.208	3016.81	3060.6476	3103.6391	3123.5542	3128.086	3188.495	3230.3958	3259.3831	3491.5564	3678.3779
CC1=CC(=CN1)C1CN1	Cc1cc(c[nH]1)[C@H]1CN1	
InChI=1S/C7H10N2/c1-5-2-6(3-8-5)7-4-9-7/h2-3,7-9H,4H2,1H3	InChI=1S/C7H10N2/c1-5-2-6(3-8-5)7-4-9-7/h2-3,7-9H,4H2,1H3/t7-/m1/s1
