15
gdb 15400	3.94593	1.0872	0.92211	2.5645	62.3	-0.2776	-0.0074	0.2702	1204.5598	0.11756	-399.77818	-399.769812	-399.768868	-399.811974	28.919	
O	 0.185062151	 1.3443114352	 0.053043565	-0.413626
C	-0.0035985921	-0.0476490768	 0.2221515435	-0.0593
C	-1.3112961215	-0.5396491303	-0.4148928912	-0.254808
C	-1.456703034	-2.0348559809	-0.3104991546	 0.069033
O	-1.7773895632	-2.5750525212	 0.9754550683	-0.231037
C	-2.7470035274	-2.7178621198	-0.0622625011	-0.104418
C	-3.9752635457	-1.9664611074	 0.0873639934	 0.304605
N	-4.9658177492	-1.3796276645	 0.1891795406	-0.326127
H	-0.4845159534	 1.8014992768	 0.5720204517	 0.287349
H	 0.853228544	-0.5255368074	-0.2660942547	 0.114532
H	 0.0206633188	-0.3394009185	 1.282298229	 0.111839
H	-2.1656903612	-0.0542160844	 0.0699219854	 0.121665
H	-1.3240524939	-0.2483746578	-1.4716882599	 0.1246
H	-0.7145629195	-2.6242448662	-0.8524536785	 0.113366
H	-2.8891462626	-3.7330981566	-0.4282069469	 0.142326
63.0693	89.6509	109.0172	187.8878	238.0443	312.5931	347.1274	391.9066	486.6853	580.4137	615.4306	772.7338	820.7146	835.5053	954.8602	1001.3456	1033.8532	1068.1214	1085.2536	1115.3883	1150.198	1203.3485	1277.0362	1294.515	1316.9679	1376.0324	1402.3808	1420.7624	1458.1284	1475.7262	1512.3598	2360.6617	3000.957	3040.348	3063.3217	3086.8185	3103.5435	3133.9837	3816.1825
OCCC1OC1C#N	OCC[C@H]1O[C@H]1C#N	
InChI=1S/C5H7NO2/c6-3-5-4(8-5)1-2-7/h4-5,7H,1-2H2	InChI=1S/C5H7NO2/c6-3-5-4(8-5)1-2-7/h4-5,7H,1-2H2/t4-,5+/m1/s1
