21
gdb 114637	1.97738	1.67517	1.08091	3.0452	78.94	-0.2378	0.0548	0.2927	1180.9049	0.183012	-424.19001	-424.181037	-424.180092	-424.223453	34.702	
O	 0.2169421342	 0.5021075163	 1.0717353334	-0.438014
C	-0.1297771754	 0.258815747	-0.2777439871	-0.078282
C	-1.4807960271	-0.4346321117	-0.3912425545	-0.055081
C	-2.0420744365	-0.9030405568	-1.7772235986	-0.269917
C	-2.1860241592	-2.3273836609	-1.218501017	-0.125838
C	-0.8383253602	-2.8310030308	-0.7918296581	-0.320577
C	-1.5831381318	-1.8861827894	 0.1183817949	 0.384291
C	-1.9185411166	-2.2457031877	 1.5274107662	-0.216493
O	-0.7523612402	-1.9858254789	 2.325416256	-0.409889
H	 0.0944356444	-0.3276500818	 1.5590943298	 0.288063
H	-0.1656791911	 1.2361071752	-0.7747282734	 0.096209
H	 0.645096276	-0.3327328867	-0.7949350168	 0.07512
H	-2.2233047332	 0.1858969828	 0.1226863872	 0.074492
H	-2.9887283897	-0.4221388419	-2.030614947	 0.104164
H	-1.3649335456	-0.8107317574	-2.6333722947	 0.098329
H	-3.0194168541	-2.996142307	-1.399427964	 0.087077
H	-0.8066786358	-3.8593185122	-0.44510726	 0.111353
H	 0.0574014755	-2.5158118656	-1.3205524896	 0.111787
H	-2.7652077564	-1.6416545543	 1.8856936428	 0.095199
H	-2.202835124	-3.3058459601	 1.6027733122	 0.094602
H	-1.0139831532	-1.9520625982	 3.2508575182	 0.293404
98.4359	117.7865	170.7888	229.6066	232.7328	295.5194	313.9745	374.5655	412.4254	466.8154	501.873	569.5065	694.3909	699.3728	813.25	856.5185	904.6423	925.1448	961.5392	971.761	1015.257	1018.0563	1037.4486	1042.7906	1067.8503	1088.4012	1098.4617	1135.7968	1171.382	1204.7657	1209.837	1239.7382	1255.493	1267.5747	1273.0883	1308.0695	1347.5365	1389.4606	1406.8477	1455.9302	1469.0471	1484.6836	1503.1034	1511.2001	1516.2693	2956.1083	2982.1953	3018.2639	3039.3731	3044.5979	3052.2038	3109.9687	3114.9577	3177.3615	3200.1348	3684.8609	3824.3703
OCC1CC2CC12CO	OC[C@H]1C[C@H]2C[C@@]12CO	
InChI=1S/C7H12O2/c8-3-6-1-5-2-7(5,6)4-9/h5-6,8-9H,1-4H2	InChI=1S/C7H12O2/c8-3-6-1-5-2-7(5,6)4-9/h5-6,8-9H,1-4H2/t5-,6+,7-/m0/s1
