21
gdb 118559	3.43531	0.75618	0.64994	3.7074	77.28	-0.2546	-0.0245	0.2301	1724.1734	0.179133	-461.353846	-461.342844	-461.3419	-461.391154	37.592	
C	 0.0014256608	 1.3940720655	 0.023503015	-0.22972
O	-0.0113849121	-0.0138339872	 0.010892032	-0.234536
C	 0.6351892809	-0.5625483466	-1.1151809268	-0.065984
C	 0.5372572104	-2.0869418588	-1.0459182633	-0.029279
C	-0.9312431832	-2.5454960557	-1.0428443589	-0.070335
O	-1.0659744376	-3.941675993	-0.8285450309	-0.425629
C	 1.3325127427	-2.7242772383	-2.2036946124	-0.290055
C	 1.5020255817	-4.2200034195	-2.0544005009	 0.154296
O	 1.0907824866	-5.0380424008	-2.8406494718	-0.258646
H	 1.0284164103	 1.7918917773	 0.0396689638	 0.105796
H	-0.5154203483	 1.8152868493	-0.8532117038	 0.106391
H	-0.5170538182	 1.7174567442	 0.9290353025	 0.131665
H	 0.1692793975	-0.1914316265	-2.0463934051	 0.086661
H	 1.6936831661	-0.2507724114	-1.1407020189	 0.086708
H	 0.9803490998	-2.4054767462	-0.0931079048	 0.09773
H	-1.451796441	-2.0470023336	-0.2221102027	 0.131088
H	-1.4175040719	-2.2322499487	-1.9802723877	 0.087733
H	-0.9509871692	-4.3996281691	-1.6670523101	 0.29795
H	 0.8575631849	-2.5243058736	-3.1705800179	 0.116656
H	 2.3432748888	-2.2911956032	-2.2234240463	 0.117306
H	 2.0661320611	-4.5311876542	-1.1466460709	 0.084205
56.7047	72.6593	86.5989	100.0057	128.7339	143.659	212.3004	238.9862	297.6641	342.6333	363.8519	407.0241	429.887	520.6628	591.1969	794.7825	872.604	908.0206	977.9374	994.9445	1014.4179	1074.914	1096.0327	1123.0021	1132.9777	1164.9309	1182.1726	1184.5846	1224.8589	1243.1825	1270.0801	1288.5808	1339.0976	1366.6776	1402.7148	1410.1104	1421.1191	1426.6863	1465.8379	1481.1402	1486.2975	1501.8134	1506.1143	1526.4592	1818.1426	2883.4637	2937.1327	2966.862	2972.671	2982.7343	3010.499	3016.466	3032.6507	3081.4222	3108.7747	3118.0626	3826.7135
COCC(CO)CC=O	COC[C@@H](CO)CC=O	
InChI=1S/C6H12O3/c1-9-5-6(4-8)2-3-7/h3,6,8H,2,4-5H2,1H3	InChI=1S/C6H12O3/c1-9-5-6(4-8)2-3-7/h3,6,8H,2,4-5H2,1H3/t6-/m1/s1
