17
gdb 17036	3.69209	1.77647	1.42454	3.3823	69.76	-0.236	-0.0335	0.2026	910.2723	0.141835	-363.781922	-363.774533	-363.773589	-363.813609	27.711	
C	-0.0709193492	 1.6611706109	 0.0672414891	-0.447114
C	 0.0294058363	 0.1499102683	-0.0039964366	 0.094225
C	 0.7619676984	-0.6090452096	-1.1430474316	-0.102607
C	 2.0635992262	-0.1448953172	-0.4636669397	-0.175073
N	 1.2013814514	-0.5543056407	 0.7509221583	-0.160417
C	 0.855697816	-1.7786966021	-0.1091659853	-0.037365
C	-0.3329236923	-2.6349871709	 0.231705027	 0.1268
O	-1.1380489767	-2.4376254688	 1.1062806474	-0.238019
H	 0.805237327	 2.1959243029	-0.3043242495	 0.119843
H	-0.9349870847	 1.9926561709	-0.5186115381	 0.124116
H	-0.2395266834	 1.966486176	 1.1050073181	 0.139847
H	-0.9230170957	-0.2791600283	 0.3058600655	 0.106654
H	 0.5176991055	-0.6721877297	-2.2097561456	 0.070945
H	 2.9555729585	-0.7642648378	-0.589916648	 0.103255
H	 2.3237386062	 0.9119151663	-0.4861313933	 0.109267
H	 1.7151057494	-2.4454277404	-0.2575085266	 0.088872
H	-0.410670883	-3.5341834497	-0.4251334511	 0.076771
102.7658	152.4984	184.8279	242.9269	289.9186	361.9769	477.933	573.5709	689.1317	737.739	776.3411	792.0913	808.4128	889.965	916.8141	1001.7629	1024.4114	1039.1834	1044.9096	1090.6116	1114.5947	1143.4598	1150.749	1166.9942	1189.3169	1213.4217	1245.8369	1272.1921	1393.8152	1408.9168	1426.4507	1450.8668	1493.9677	1496.5653	1544.044	1824.5727	2847.5587	3027.2032	3035.6712	3042.0365	3071.2433	3102.4837	3113.0695	3132.5955	3153.0363
CC1C2CN1C2C=O	C[C@H]1[C@H]2CN1[C@H]2C=O	
InChI=1S/C6H9NO/c1-4-5-2-7(4)6(5)3-8/h3-6H,2H2,1H3	InChI=1S/C6H9NO/c1-4-5-2-7(4)6(5)3-8/h3-6H,2H2,1H3/t4-,5+,6-/m0/s1
