15
gdb 31885	3.89564	1.02132	0.84803	5.5507	77.72	-0.2594	-0.0599	0.1995	1323.3298	0.113332	-416.858	-416.849867	-416.848923	-416.891552	28.848	
C	-0.1810415475	 1.5542062731	-0.1611831115	-0.378949
C	 0.0716021283	 0.0438086629	-0.0073007475	-0.307724
C	 0.8498312992	-0.5415905457	-1.1305482076	 0.342061
C	 2.0637595342	-1.1494080435	-1.2507263344	-0.194922
N	 2.288829558	-1.4927822298	-2.5679300701	-0.287395
C	 1.2215390248	-1.0862686528	-3.1859558335	 0.280761
O	 0.2985394721	-0.4965631951	-2.3799825504	-0.194055
C	 0.9205899788	-1.1873443476	-4.5679719985	 0.263539
N	 0.6690278308	-1.2666978914	-5.6944698418	-0.324021
H	 0.7616743606	 2.1075593957	-0.1975114253	 0.130913
H	-0.7342939763	 1.7647332361	-1.0801305304	 0.141202
H	-0.7663240808	 1.9278483056	 0.6831856719	 0.126771
H	 0.6223796509	-0.1583650739	 0.9165422869	 0.128815
H	-0.8880574943	-0.4813474399	 0.0763480265	 0.134668
H	 2.7859649514	-1.3626500136	-0.4788160842	 0.138336
56.9266	115.8926	146.2113	194.9189	218.6308	330.4477	396.6807	505.5039	553.2913	584.4461	664.2082	715.5927	739.1816	789.7216	864.8847	961.3512	989.5102	1012.4029	1074.7713	1092.5947	1149.3073	1226.6091	1263.0517	1274.1934	1352.4373	1373.4363	1411.7489	1474.0269	1497.2218	1505.0166	1549.8783	1616.7295	2357.4006	3034.4551	3048.437	3086.263	3123.1507	3128.818	3267.8163
CCC1=CN=C(O1)C#N	CCc1cnc(o1)C#N	
InChI=1S/C6H6N2O/c1-2-5-4-8-6(3-7)9-5/h4H,2H2,1H3	InChI=1S/C6H6N2O/c1-2-5-4-8-6(3-7)9-5/h4H,2H2,1H3
