21
gdb 40764	3.03358	1.26946	1.08508	1.6451	82.36	-0.2425	0.0721	0.3146	1208.9932	0.182648	-387.040072	-387.03153	-387.030585	-387.073673	32.847	
C	-0.3615345026	 1.2691048517	-0.1981130808	-0.262087
C	 1.0610136337	 1.1290102953	 0.2860545372	-0.27115
C	 0.2324499939	-0.0990896298	 0.0037528981	-0.00171
C	-0.2147726569	-0.9747704322	 1.1457145665	 0.041777
O	-0.5417387337	-0.2208657837	 2.3425163778	-0.299054
C	-1.8646204162	-0.799948089	 2.4210729077	-0.13894
C	-1.6292113538	-1.5695459249	 1.1290845332	 0.304967
C	-2.5557652034	-1.7492534956	-0.0311447706	-0.316974
C	-2.0693833977	-2.9485315511	 0.7539724612	-0.329125
H	-1.0927767901	 1.6052862451	 0.5279629708	 0.120519
H	-0.5354826423	 1.6104342747	-1.2125201609	 0.103908
H	 1.8706361197	 1.3707109862	-0.3934374944	 0.106663
H	 1.2498765499	 1.3669055333	 1.3265844778	 0.129934
H	 0.4911253862	-0.6604334397	-0.8911150948	 0.080195
H	 0.5641992611	-1.7204148442	 1.3680992983	 0.07221
H	-1.9857278626	-1.4116822631	 3.3252352805	 0.099975
H	-2.6495117304	-0.0329023034	 2.3975617936	 0.10133
H	-3.5900481142	-1.4423431307	 0.0906149916	 0.113039
H	-2.1611574929	-1.5933246332	-1.0297890898	 0.117396
H	-1.3428769562	-3.6062804884	 0.2861942742	 0.113779
H	-2.7737029016	-3.4571282076	 1.4051792228	 0.113348
62.3351	93.8772	142.9625	226.9995	253.0392	278.054	352.3138	446.7	543.0089	607.3482	766.4446	773.4655	791.0529	832.1165	861.5837	874.698	903.7863	914.9413	949.4635	971.9808	1000.596	1020.4693	1043.3661	1059.476	1063.622	1076.2276	1086.4304	1105.0644	1132.5439	1140.1001	1155.5541	1186.9722	1200.1495	1226.7233	1249.9649	1272.7561	1326.0113	1373.6354	1393.7545	1417.0271	1456.8821	1464.8101	1500.4908	1509.6291	1523.8554	2977.7623	3001.1234	3042.4414	3119.5903	3126.0857	3132.021	3136.4153	3141.5052	3197.6804	3213.8461	3219.1762	3233.1474
C1CC1C1OCC11CC1	C1CC1[C@H]1OCC21CC2	
InChI=1S/C8H12O/c1-2-6(1)7-8(3-4-8)5-9-7/h6-7H,1-5H2	InChI=1S/C8H12O/c1-2-6(1)7-8(3-4-8)5-9-7/h6-7H,1-5H2/t7-/m1/s1
