21
gdb 104582	2.06421	1.39243	0.97294	2.2946	78.71	-0.2425	-0.0147	0.2278	1295.6973	0.179403	-424.234854	-424.224587	-424.223643	-424.27101	36.947	
C	-0.7966951659	-0.8424838572	-0.6329346106	-0.393941
C	 0.579717359	-0.3612544374	-0.1578712653	-0.245809
C	 0.8559412679	-0.6277804858	 1.3117920776	 0.416739
C	-0.1108299507	-0.0284995176	 2.3329317307	-0.361956
C	-0.1575916173	 1.4948621281	 2.2084180679	 0.3869
C	 0.9074498836	 2.2573267607	 2.9678901565	-0.481474
O	-0.9835729536	 2.0401928736	 1.5114127427	-0.306061
C	 1.6409926235	-1.8090726166	 1.7037564563	-0.236146
O	 2.240959731	-0.5100549106	 1.682659446	-0.27965
H	-1.5963897165	-0.2583811656	-0.1699682865	 0.143033
H	-0.8869903434	-0.7248763826	-1.7165822468	 0.118865
H	-0.9573467161	-1.900313446	-0.3973735659	 0.111069
H	 1.3755464639	-0.8431973458	-0.7351120691	 0.103849
H	 0.6671958804	 0.715455371	-0.3429831196	 0.120708
H	-1.1182279749	-0.4160489927	 2.1604213343	 0.127145
H	 0.2182851497	-0.3205005359	 3.33449533	 0.107623
H	 1.8903733571	 1.8150813102	 2.7738457522	 0.165003
H	 0.8915417789	 3.3116440409	 2.6894786111	 0.137744
H	 0.7271650695	 2.1626091797	 4.0457967608	 0.13866
H	 1.50814101	-2.2477802786	 2.6920295628	 0.11214
H	 1.997003524	-2.4967632717	 0.9376215847	 0.115558
35.8911	63.2762	106.5745	150.2269	173.2101	213.4157	254.0412	330.6903	349.247	389.7117	419.5656	490.0287	520.7415	596.3503	719.2729	787.6657	802.1478	838.8235	894.3146	908.8875	946.6046	994.6662	1025.9582	1049.3285	1086.2475	1118.5628	1135.4911	1154.0895	1182.4094	1227.8637	1263.4787	1295.339	1307.6312	1363.3454	1383.9644	1409.5546	1418.8246	1460.9648	1470.5043	1474.9596	1485.6887	1500.9733	1515.1046	1530.3233	1807.1611	3033.7137	3037.5457	3042.9173	3057.3746	3079.0074	3080.6276	3098.1909	3106.39	3115.1408	3124.4522	3154.371	3166.0549
CCC1(CC(C)=O)CO1	CC[C@@]1(CC(=O)C)CO1	
InChI=1S/C7H12O2/c1-3-7(5-9-7)4-6(2)8/h3-5H2,1-2H3	InChI=1S/C7H12O2/c1-3-7(5-9-7)4-6(2)8/h3-5H2,1-2H3/t7-/m1/s1
