20
gdb 117371	5.77524	0.676	0.62452	2.6145	77.7	-0.2574	0.0314	0.2887	1808.4523	0.169488	-440.273342	-440.263458	-440.262514	-440.309625	34.774	
C	 2.6021474536	 1.3693822364	 0.1758464395	-0.389869
C	 2.6269111822	-0.142923498	 0.2954012892	-0.028885
O	 2.214470646	-0.6833868996	-0.9701918649	-0.245615
C	 2.1889320331	-2.0275154431	-1.0718238615	 0.393073
N	 2.4844477366	-2.7791850298	-0.0939025809	-0.531003
C	 1.7923843619	-2.4399658706	-2.4803646479	-0.326325
C	 0.9416056721	-3.6867204591	-2.5082819005	 0.088233
C	 1.0867113934	-4.7055274809	-3.5545134301	-0.181624
O	 1.609303856	-4.9261620937	-2.2427908323	-0.231777
H	 3.2847745722	 1.7113373954	-0.6074922701	 0.125413
H	 1.5968114892	 1.7265967589	-0.065702409	 0.124983
H	 2.9100289695	 1.8223939362	 1.1229587528	 0.120198
H	 3.6253437306	-0.5222025017	 0.5370515266	 0.119286
H	 1.9498465955	-0.5059225337	 1.0756684869	 0.119379
H	 2.4258406995	-3.7580578702	-0.3678140086	 0.245563
H	 1.2558661743	-1.6122166916	-2.9544021663	 0.126116
H	 2.7054417148	-2.6094903617	-3.0630708002	 0.130187
H	-0.0265419425	-3.6000365735	-2.013539318	 0.10452
H	 0.2359344981	-5.3275586727	-3.8272839362	 0.120337
H	 1.8315697239	-4.5677195369	-4.3372016083	 0.117809
31.2683	77.2822	87.0628	120.9368	171.82	210.3409	261.8633	320.959	377.7702	395.622	452.638	588.9348	713.2276	793.4243	807.9261	864.8142	875.7612	899.144	927.9655	953.4318	977.3078	1051.443	1097.2329	1109.1998	1129.7022	1139.1327	1161.4605	1169.531	1184.2355	1239.7998	1287.0419	1289.4468	1304.6171	1372.4676	1409.5028	1437.2609	1445.1983	1458.8098	1486.1725	1496.6417	1521.1571	1530.273	1725.0273	3043.7596	3044.3443	3048.1015	3083.267	3086.5538	3091.0167	3110.5622	3118.8366	3122.1293	3174.4643	3518.6525
CCOC(=N)CC1CO1	CCO[C]([NH])C[C@H]1CO1	
InChI=1S/C6H11NO2/c1-2-8-6(7)3-5-4-9-5/h5,7H,2-4H2,1H3	InChI=1S/C6H11NO2/c1-2-8-6(7)3-5-4-9-5/h5,7H,2-4H2,1H3/t5-/m0/s1
