20
gdb 114939	3.98908	0.88255	0.79467	5.5344	87.45	-0.2045	-0.0257	0.1788	1486.0204	0.171408	-403.184308	-403.175151	-403.174206	-403.21865	33.773	
C	 0.0761140027	 1.5063973616	 0.1132000385	-0.396039
C	-0.0475751068	-0.0185831603	 0.049879062	-0.173619
C	-1.487584999	-0.532446786	-0.097989313	 0.031619
C	-1.5706474668	-2.0883386519	-0.1350071432	-0.341366
C	-2.0819851486	-2.4446611565	 1.2478437134	 0.180049
C	-2.1661964909	-3.7695563939	 1.7973062742	 0.051627
O	-1.8068256762	-4.7866338195	 1.2287591605	-0.313966
C	-2.4807982028	-1.3028975379	 1.8607036208	-0.075132
N	-2.327348327	-0.1967153417	 1.0760795914	-0.283139
H	 1.1248572264	 1.8117947701	 0.1703991916	 0.125648
H	-0.3602713675	 1.9780369982	-0.7744249519	 0.121421
H	-0.4246637373	 1.925837285	 0.9934867704	 0.106211
H	 0.5230865313	-0.3932381976	-0.8085478386	 0.109152
H	 0.3976924032	-0.4748468604	 0.9430343828	 0.109804
H	-1.9336761748	-0.0852089379	-0.9932657097	 0.086485
H	-2.2637564699	-2.434457041	-0.9101965452	 0.119283
H	-0.5999376478	-2.5429793945	-0.3543877751	 0.123014
H	-2.5934499006	-3.8125568878	 2.8271912364	 0.041229
H	-2.9156235408	-1.2059408557	 2.8488611504	 0.130792
H	-2.2710894468	 0.7209651577	 1.4884028743	 0.246925
57.4745	107.4152	137.6888	177.0631	237.8775	239.7241	335.0855	375.7038	398.2	473.1773	512.1522	532.7074	719.1296	758.6803	805.2424	832.4739	891.9665	919.5351	937.5008	976.2998	1005.6084	1027.2877	1061.8054	1101.6199	1122.596	1156.0891	1208.2973	1254.724	1282.5271	1298.916	1313.8104	1351.7207	1366.5826	1393.2969	1414.1601	1428.592	1461.8562	1481.0059	1495.1105	1500.3987	1507.2877	1659.451	1755.4485	2842.7568	3025.3592	3028.1858	3033.2376	3045.124	3065.4624	3082.5888	3093.1689	3107.8514	3208.4634	3634.0193
CCC1CC(C=O)=CN1	CC[C@H]1CC(=CN1)C=O	
InChI=1S/C7H11NO/c1-2-7-3-6(5-9)4-8-7/h4-5,7-8H,2-3H2,1H3	InChI=1S/C7H11NO/c1-2-7-3-6(5-9)4-8-7/h4-5,7-8H,2-3H2,1H3/t7-/m0/s1
