18
gdb 8899	3.34486	1.30701	0.99557	3.7305	65.27	-0.2622	-0.0272	0.235	1179.8213	0.150122	-422.080486	-422.07079	-422.069846	-422.115735	33.463	
C	 0.636531466	 1.4443268516	 0.5079732278	-0.238785
O	 0.9197094183	 0.0741127482	 0.3218380917	-0.247306
C	 0.3583711574	-0.7863842044	 1.2935408687	 0.037471
C	-1.1423053549	-1.0296965969	 1.1080910702	-0.402382
C	 1.1381322739	-2.1000767586	 1.2551550168	 0.330734
O	 0.7524627237	-3.0790251227	 1.8592479604	-0.334724
C	 2.4336540341	-2.1652252983	 0.466249803	-0.125561
O	 3.0284760134	-3.4237374157	 0.5833642892	-0.426531
H	 0.94795462	 1.7873763841	 1.5065977292	 0.110405
H	 1.2041375302	 1.9926056778	-0.247144798	 0.136027
H	-0.4302081771	 1.6724515387	 0.3787797285	 0.116459
H	 0.5329605529	-0.3700207084	 2.302774537	 0.100582
H	-1.7170128062	-0.1181552288	 1.2889269704	 0.120034
H	-1.3436275622	-1.3738336245	 0.0894143152	 0.131079
H	-1.4727445816	-1.7976651245	 1.8103724596	 0.149047
H	 2.2073721507	-1.912655801	-0.5811213811	 0.13014
H	 3.0981155062	-1.3638255421	 0.8257177965	 0.120834
H	 2.4281846252	-3.9376737346	 1.1467046749	 0.292477
39.1071	71.5325	128.9123	162.2683	195.4955	212.9389	269.001	332.5328	363.166	387.7696	437.1714	474.3487	535.4677	669.5752	809.4773	877.3768	945.5072	1009.0853	1087.7112	1101.4059	1128.3598	1151.9848	1182.0113	1189.2501	1223.7904	1237.1521	1304.2526	1332.7534	1359.6219	1393.9259	1448.4298	1475.2976	1478.1587	1483.5381	1493.546	1500.9777	1510.7034	1794.068	2940.7294	2984.5015	2993.5686	3009.6596	3040.8116	3052.5205	3121.1888	3125.637	3143.1857	3686.4229
COC(C)C(=O)CO	CO[C@@H](C)C(=O)CO	
InChI=1S/C5H10O3/c1-4(8-2)5(7)3-6/h4,6H,3H2,1-2H3	InChI=1S/C5H10O3/c1-4(8-2)5(7)3-6/h4,6H,3H2,1-2H3/t4-/m0/s1
