17
gdb 19612	2.77041	2.69357	1.77986	1.6021	66.9	-0.2467	0.0581	0.3048	790.6332	0.143188	-363.800656	-363.793637	-363.792693	-363.831458	27.442	
C	-0.106078057	 1.6190838467	 0.0142144498	-0.436439
C	 0.0947973386	 0.1091091993	-0.017084534	 0.044907
C	 0.8801945881	-0.5950292618	-1.1134911797	-0.054788
C	 2.3171965059	-0.7123844192	-0.7210282333	-0.076615
C	 2.5086579611	-0.1342935391	 0.6567720923	 0.141089
O	 2.8633895856	 1.2259150368	 0.7529233018	-0.430877
C	 1.0687525043	-0.640842557	 0.9230147181	-0.10018
N	 1.3050471219	-1.7084989577	-0.1986908665	-0.169033
H	 0.8397794616	 2.152075768	-0.0801767158	 0.145617
H	-0.7710746292	 1.9284679432	-0.7998400287	 0.110275
H	-0.5789327744	 1.9256668891	 0.9543367767	 0.108012
H	-0.8736703533	-0.3996754743	 0.0596285553	 0.084526
H	 0.5638412867	-0.804705613	-2.1298971113	 0.092206
H	 3.0850130155	-1.0111325087	-1.425194106	 0.095088
H	 3.2141640818	-0.767427129	 1.2112643982	 0.086606
H	 3.1038941337	 1.4166820967	 1.6648484437	 0.285357
H	 0.7615120891	-0.9655040599	 1.9161943992	 0.074248
181.6407	195.0939	233.0441	235.5481	308.4632	372.5211	555.6092	617.6731	706.6235	749.2491	764.9867	801.3867	806.5589	910.1684	926.1954	963.5529	990.5261	1036.648	1051.5421	1080.253	1098.5892	1128.1878	1139.5879	1160.2044	1189.0106	1199.5852	1225.0223	1277.5172	1305.2292	1357.4305	1381.8962	1400.0324	1412.7503	1444.8403	1494.2585	1509.0634	3018.6852	3031.4298	3038.8187	3087.6583	3127.1758	3155.5742	3170.5617	3189.217	3822.5996
CC1C2C3C(O)C1N23	C[C@H]1[C@H]2[C@H]3[C@@H](O)[C@@H]1N23	
InChI=1S/C6H9NO/c1-2-3-5-6(8)4(2)7(3)5/h2-6,8H,1H3	InChI=1S/C6H9NO/c1-2-3-5-6(8)4(2)7(3)5/h2-6,8H,1H3/t2-,3-,4+,5-,6-,7?/m0/s1
