15
gdb 78797	2.77118	1.80274	1.35294	4.2597	64.73	-0.2466	0.0017	0.2483	929.6816	0.112142	-453.886857	-453.879051	-453.878106	-453.918793	29.995	
N	-0.1526954732	 1.5381886076	-0.0404616806	-0.644594
C	-0.1289796311	 0.1347171653	-0.0409640262	 0.206767
C	-1.3306564184	-0.9379321107	 0.0652123337	-0.085779
C	-0.4877814916	-1.8425631803	-0.713124959	-0.078573
C	 0.3836962235	-0.698955982	-1.2541043336	 0.053695
O	-0.1156032834	-0.1143811836	-2.4349541925	-0.433444
N	-0.3657216847	-1.8747169596	 0.7918546121	-0.213119
C	 0.4128689339	-0.6827607966	 1.1145782639	 0.398043
O	 1.0605503481	-0.4420104592	 2.0858188683	-0.328333
H	 0.459831882	 1.9298084903	 0.6646949818	 0.253401
H	 0.0481804288	 1.9282568125	-0.9529343607	 0.250036
H	-2.3733537057	-0.8823008964	 0.3380495105	 0.129654
H	-0.7277728628	-2.7889087437	-1.1811638763	 0.114567
H	 1.4698821317	-0.8611689938	-1.3146857104	 0.082279
H	 0.2210532629	-0.6061854797	-3.1904618309	 0.295399
125.2606	207.111	232.7954	248.9323	256.4405	278.3692	390.0596	488.406	562.0496	622.3833	668.7776	691.514	735.5259	784.2207	843.5332	876.2843	905.5481	913.2738	964.1464	966.277	1020.1701	1041.6924	1116.0367	1156.8842	1190.2723	1237.5142	1272.4531	1297.7616	1333.285	1392.861	1441.4077	1636.8049	1909.6868	2998.9262	3198.7579	3246.5056	3527.2977	3620.64	3824.9443
NC12C3C(C1O)N3C2=O	N[C@@]12[C@H]3[C@@H]([C@H]1O)N3C2=O	
InChI=1S/C5H6N2O2/c6-5-2-1(3(5)8)7(2)4(5)9/h1-3,8H,6H2	InChI=1S/C5H6N2O2/c6-5-2-1(3(5)8)7(2)4(5)9/h1-3,8H,6H2/t1-,2+,3+,5-,7?/m0/s1
