19
gdb 70959	3.91825	1.22946	1.10322	0.9106	87.37	-0.2414	0.0408	0.2822	1159.803	0.15851	-348.679778	-348.671654	-348.67071	-348.711873	32.786	
C	-0.085886221	 1.47432697	 0.0020409185	-0.505122
C	 0.0337221907	-0.0201263714	-0.0078073523	 0.34173
C	 0.9487743765	-0.8651287235	-0.8924725426	-0.321042
C	 0.0848875968	-2.091804037	-0.4570534458	 0.234014
C	 0.403305124	-2.2248368109	 1.0678185043	-0.276649
C	-0.2979096439	-0.8811600996	 1.2262621964	-0.118958
C	-1.065115203	-1.0545737172	-0.064177686	-0.172235
C	-0.0507801442	-3.2451036284	-1.2960097807	 0.042504
C	-0.1677533573	-4.2141661033	-2.0002298701	-0.338725
H	 0.8217243309	 1.9443623266	 0.3989627022	 0.12092
H	-0.2499575943	 1.8668243494	-1.0079015495	 0.119357
H	-0.9257948752	 1.8000760077	 0.6251899179	 0.119025
H	 0.8010373421	-0.634663118	-1.9510280096	 0.105461
H	 2.0209830415	-0.9134356378	-0.6677516177	 0.089762
H	-0.1722399636	-3.0362571456	 1.5198407311	 0.109531
H	 1.4600231668	-2.3182419537	 1.3427450297	 0.092894
H	-0.6497899136	-0.4191988458	 2.1399099256	 0.086482
H	-2.1164566478	-1.003240132	-0.3082238646	 0.094136
H	-0.2688207156	-5.0690845996	-2.6214543167	 0.176915
129.9045	143.8638	214.5901	256.9425	293.1952	403.1923	434.5786	483.9619	517.0194	538.3897	611.1169	616.7726	631.0911	736.291	745.8285	827.7633	876.7592	900.4678	904.6703	951.4358	964.8823	985.4371	1028.0656	1045.5686	1076.0598	1101.1	1117.3443	1150.0107	1161.1229	1195.0874	1236.0746	1243.5604	1293.0098	1319.9417	1405.6966	1428.8229	1487.2173	1492.4823	1499.3864	1510.1872	2231.9526	3021.3976	3027.9897	3038.0187	3081.5196	3092.3662	3098.738	3106.4517	3194.7215	3222.1918	3503.7267
CC12CC3(CC1C23)C#C	C[C@@]12C[C@]3(C[C@@H]1[C@@H]23)C#C	
InChI=1S/C9H10/c1-3-9-4-6-7(9)8(6,2)5-9/h1,6-7H,4-5H2,2H3	InChI=1S/C9H10/c1-3-9-4-6-7(9)8(6,2)5-9/h1,6-7H,4-5H2,2H3/t6-,7+,8-,9-/m1/s1
