17
gdb 16314	3.10062	1.96406	1.39266	2.0267	69.18	-0.243	-0.0202	0.2228	924.578	0.141654	-363.842425	-363.834668	-363.833724	-363.874749	28.751	
C	 0.0969792048	 1.5224853754	-0.2173362175	-0.384469
C	-0.1108542142	 0.0276892813	 0.0681456158	-0.297006
C	 0.6742877487	-0.4204227759	 1.2670954446	 0.221289
C	 2.0790250614	-0.9335526497	 1.2223327098	-0.276834
N	 1.0399836672	-1.8740275345	 1.6273914625	-0.159978
C	 0.809887503	-1.5752911228	 3.0864221431	-0.290091
C	 0.3202213301	-0.1640318083	 2.7033553359	 0.363129
O	-0.3260191858	 0.6813782181	 3.254997934	-0.311269
H	 1.1474077339	 1.7420306991	-0.4343917467	 0.117015
H	-0.4996802537	 1.8381602205	-1.0778019728	 0.118015
H	-0.202769563	 2.1234806682	 0.6456561024	 0.146637
H	-1.1749321903	-0.1698988259	 0.2431673149	 0.115753
H	 0.1859067669	-0.5759622416	-0.7968428057	 0.112759
H	 2.4791402514	-1.1198161902	 0.2293837	 0.132875
H	 2.8151221653	-0.6053300325	 1.9539158864	 0.120715
H	-0.0032856721	-2.1828038981	 3.4922474799	 0.143394
H	 1.6986887064	-1.678851603	 3.7153896833	 0.128066
65.9132	128.6496	199.1742	209.4099	285.455	373.9571	464.1457	486.6747	549.967	666.0217	706.7397	761.2588	789.6337	864.8343	866.5356	974.0145	985.967	1002.5923	1045.2148	1074.4677	1097.3074	1118.9503	1130.4697	1195.9911	1235.536	1254.2968	1329.5122	1330.8068	1379.7628	1412.3865	1462.1691	1482.8108	1499.2389	1507.4235	1511.7239	1880.253	3034.6045	3041.3592	3058.807	3072.6314	3097.5691	3111.2136	3120.6322	3123.0849	3189.7326
CCC12CN1CC2=O	CC[C@]12CN1CC2=O	
InChI=1S/C6H9NO/c1-2-6-4-7(6)3-5(6)8/h2-4H2,1H3	InChI=1S/C6H9NO/c1-2-6-4-7(6)3-5(6)8/h2-4H2,1H3/t6-,7?/m1/s1
