19
gdb 92798	3.03032	0.99116	0.85482	3.0208	78.86	-0.2438	-0.0333	0.2104	1379.2461	0.158057	-423.047675	-423.038559	-423.037615	-423.083067	33.108	
O	 0.1133584141	 1.4097659169	-0.0106045551	-0.432277
C	 0.0346163151	-0.0086561489	 0.0011589682	 0.130696
C	 0.6424303499	-0.6023672325	 1.2995391596	-0.273719
C	-0.5681019462	-0.8044236363	 2.1783592529	-0.186841
C	-1.709232039	-0.7554706504	 1.4826959841	 0.30573
C	-3.1049537409	-0.9302485189	 2.0139465717	-0.382581
C	-3.8428219901	 0.4020139882	 2.0206725027	 0.159642
O	-4.827043318	 0.6492168035	 1.3762674894	-0.230068
C	-1.435136384	-0.4992504377	 0.012752751	-0.325787
H	-0.3449842305	 1.7312006476	 0.7744076123	 0.277282
H	 0.572596673	-0.3261686049	-0.8948162012	 0.087258
H	 1.1509454806	-1.5579241595	 1.1088868531	 0.111195
H	 1.3932940582	 0.0775845773	 1.7160374469	 0.112365
H	-0.5009434207	-1.0098505624	 3.2418165643	 0.092094
H	-3.6853448286	-1.6335404836	 1.407770749	 0.126123
H	-3.067665877	-1.2969117048	 3.0476186644	 0.120882
H	-3.3718681765	 1.1696762875	 2.678133622	 0.07512
H	-2.0962148543	 0.2464567492	-0.4424329589	 0.122007
H	-1.5593430251	-1.4256271104	-0.5655730263	 0.11088
35.4303	54.9735	85.9089	174.9814	288.9035	297.3466	345.4359	385.4343	429.5242	474.9765	511.417	628.2416	766.6905	810.0519	825.6431	856.8798	886.3604	895.9059	949.0739	962.1948	1020.0148	1039.3416	1054.2413	1079.4625	1146.337	1169.6485	1171.2474	1200.4612	1259.8475	1283.9364	1293.5374	1302.8923	1318.8619	1364.8047	1417.0544	1431.8081	1458.3851	1471.3625	1479.9942	1699.4567	1836.3594	2861.6513	3011.929	3013.1216	3027.7601	3069.7459	3070.7045	3090.7947	3092.532	3184.4006	3791.9726
OC1CC=C(CC=O)C1	O[C@H]1CC=C(CC=O)C1	
InChI=1S/C7H10O2/c8-4-3-6-1-2-7(9)5-6/h1,4,7,9H,2-3,5H2	InChI=1S/C7H10O2/c8-4-3-6-1-2-7(9)5-6/h1,4,7,9H,2-3,5H2/t7-/m0/s1
