18
gdb 89187	2.45494	1.57682	1.24778	4.0458	72.16	-0.2379	0.0308	0.2687	1062.0179	0.147326	-439.093348	-439.084743	-439.083799	-439.126417	32.559	
C	-0.0282326316	 1.5985081659	 0.0237996074	-0.500249
C	 0.0279479392	 0.0915383984	 0.056785507	 0.183283
C	-1.2913988979	-0.735705617	 0.2356297466	-0.333413
C	-0.6259787242	-1.5491925859	 1.3889438779	 0.136949
O	-0.4860925254	-2.942326764	 1.244403161	-0.437131
C	 0.7108233974	-0.8026754233	 1.159333419	-0.061296
N	 1.5475180897	-1.3662717953	 0.1030109657	-0.31394
C	 0.9468207605	-0.664453387	-0.9293335811	 0.384789
O	 1.0797333221	-0.7004781781	-2.1228447464	-0.363759
H	 0.9713850928	 2.0377074924	 0.1035279931	 0.129008
H	-0.4643675324	 1.9359849482	-0.9226479647	 0.140575
H	-0.6429899433	 1.9960154949	 0.8384481923	 0.115326
H	-2.1406031304	-0.1298024594	 0.5619503973	 0.105197
H	-1.5865164928	-1.319769893	-0.6391660724	 0.118059
H	-1.0599559658	-1.2867367476	 2.3641034348	 0.07187
H	-1.3599134834	-3.3441335501	 1.2799974904	 0.289302
H	 1.2547068227	-0.4209973021	 2.0243343322	 0.082243
H	 1.9394517628	-2.2978668169	 0.0616626398	 0.253187
76.7476	174.643	192.9794	239.8779	248.7768	255.9542	270.8532	410.3663	447.8016	518.0942	586.9307	653.2226	689.8896	743.6654	797.6239	814.6713	893.9412	902.6821	938.4849	981.3368	1038.8066	1068.7208	1119.9208	1134.0597	1174.7643	1196.0772	1196.3505	1219.8671	1228.9694	1323.7887	1326.6448	1346.5088	1363.6121	1412.6396	1417.7586	1477.3781	1490.0243	1492.2535	1886.6853	2997.1546	3029.7565	3060.5813	3097.4138	3101.8851	3102.7124	3117.9591	3587.2091	3820.388
CC12CC(O)C1NC2=O	C[C@]12C[C@@H](O)[C@H]1NC2=O	
InChI=1S/C6H9NO2/c1-6-2-3(8)4(6)7-5(6)9/h3-4,8H,2H2,1H3,(H,7,9)	InChI=1S/C6H9NO2/c1-6-2-3(8)4(6)7-5(6)9/h3-4,8H,2H2,1H3,(H,7,9)/t3-,4-,6+/m1/s1
