23
gdb 110144	1.95982	1.26775	0.92331	1.4812	83.78	-0.2262	0.0714	0.2975	1417.9054	0.202938	-425.384901	-425.373958	-425.373014	-425.421166	38.685	
C	 0.5129348336	 1.4702954176	 0.2628228699	-0.389331
C	 0.0665165185	 0.0362299803	-0.0433367247	-0.177511
C	 0.6931588123	-0.519120242	-1.3091244958	-0.110629
C	 1.8457189861	-1.520363823	-1.2531804791	 0.064015
O	 2.2964987019	-2.0019256932	-0.0287374684	-0.23025
C	 3.3901188967	-1.2724132304	 0.4924051247	-0.23839
C	 0.4695731518	-1.9645892983	-1.6828005654	 0.046345
O	-0.3125380523	-2.7102452801	-0.8116801332	-0.231674
C	 0.0377265743	-4.0835743351	-0.7884281456	-0.230662
H	 1.59845779	 1.5376542492	 0.3931700391	 0.114846
H	 0.2386413668	 2.1536051116	-0.5489013617	 0.111224
H	 0.0436243046	 1.8401611132	 1.1798862469	 0.111164
H	 0.3050393191	-0.6250529339	 0.7934823567	 0.118663
H	-1.0250526159	 0.0112942755	-0.1460160511	 0.103605
H	 0.7204293208	 0.176739981	-2.145228419	 0.079031
H	 2.622864071	-1.447243593	-2.0166899558	 0.078527
H	 3.6731826798	-1.7480988757	 1.4343024553	 0.12777
H	 4.251554434	-1.2971254192	-0.1922998643	 0.10683
H	 3.1295039022	-0.2227067594	 0.6830954498	 0.118052
H	 0.3333781087	-2.2184006244	-2.736778759	 0.078649
H	 1.067516916	-4.2257079122	-0.4413167837	 0.12852
H	-0.6515834076	-4.5749458931	-0.0974520578	 0.122539
H	-0.0721163627	-4.5420766753	-1.7833183779	 0.098668
82.6746	105.179	111.5128	116.9146	149.0149	171.4368	199.1521	223.7663	272.8967	277.0696	318.5659	365.358	556.0765	624.8537	661.3207	753.5409	787.7099	805.5619	868.9681	980.8734	1007.4318	1032.4375	1068.2976	1084.6171	1110.5278	1120.4969	1146.1603	1168.1549	1176.6156	1181.8078	1187.0682	1221.9395	1245.0797	1276.765	1287.0592	1329.0047	1364.4685	1394.2074	1411.0295	1440.2001	1482.0994	1484.2355	1485.6423	1485.8694	1489.2816	1497.7353	1503.8301	1508.9025	1510.3525	2985.8432	2986.869	3028.9809	3037.1277	3044.2714	3062.1877	3066.653	3077.63	3082.8196	3101.6514	3105.2975	3119.013	3119.8968	3127.2645
CCC1C(OC)C1OC	CC[C@H]1[C@@H](OC)[C@H]1OC	
InChI=1S/C7H14O2/c1-4-5-6(8-2)7(5)9-3/h5-7H,4H2,1-3H3	InChI=1S/C7H14O2/c1-4-5-6(8-2)7(5)9-3/h5-7H,4H2,1-3H3/t5-,6+,7-
