18
gdb 18724	3.15675	2.24426	1.51642	2.2407	67.44	-0.2539	0.084	0.3379	869.7949	0.154867	-384.931668	-384.924485	-384.923541	-384.962863	27.884	
C	 0.0204822348	 1.5156761316	-0.0036587689	-0.40338
C	 0.0405042286	-0.007557405	 0.0129149725	 0.105699
O	 0.6474557018	-0.431447648	-1.1975559534	-0.25478
C	 0.8400048345	-1.8318419953	-1.2629861938	-0.075124
C	 1.9163567047	-2.3003073063	-0.2776752539	-0.236746
C	 1.6901578956	-1.6876572602	 1.0931892308	 0.040766
O	 2.1736751036	-0.3492686445	 1.2742444971	-0.24912
C	 0.7632676978	-0.5526342282	 1.2334263494	 0.034767
H	 1.0445979602	 1.8972162514	 0.0081713337	 0.14165
H	-0.4793338306	 1.8746054219	-0.9067983336	 0.124168
H	-0.5112415222	 1.9048288915	 0.869896856	 0.112444
H	-0.9950966684	-0.3949320132	 0.0561437183	 0.062558
H	-0.1097573664	-2.3533909053	-1.0538771533	 0.085165
H	 1.1240771697	-2.0567299535	-2.2948851588	 0.108384
H	 1.9013336121	-3.3936707307	-0.2073231331	 0.098926
H	 2.9096413642	-2.006592298	-0.6332652423	 0.124337
H	 1.8612835187	-2.3318276334	 1.9553454483	 0.091623
H	 0.2467422613	-0.3934687649	 2.1817186449	 0.088663
108.8668	209.2758	234.8296	291.4538	334.5481	383.2418	455.3307	488.4349	623.5666	702.4071	778.568	794.5378	858.0979	899.1853	943.0756	943.8668	1001.6604	1035.7059	1059.1624	1101.2976	1119.3494	1129.5999	1156.7681	1191.0332	1250.7847	1281.8325	1295.9359	1343.7395	1358.2406	1368.2056	1379.9502	1403.8826	1422.18	1462.9126	1471.3187	1484.2021	1498.9622	1503.7197	2926.231	2960.4753	3041.6728	3047.2838	3082.0031	3090.6155	3092.6889	3112.9056	3121.9633	3133.1718
CC1OCCC2OC12	C[C@H]1OCC[C@H]2O[C@@H]12	
InChI=1S/C6H10O2/c1-4-6-5(8-6)2-3-7-4/h4-6H,2-3H2,1H3	InChI=1S/C6H10O2/c1-4-6-5(8-6)2-3-7-4/h4-6H,2-3H2,1H3/t4-,5-,6+/m1/s1
