22
gdb 79246	2.38714	1.62366	1.34989	1.8999	85.77	-0.2263	0.0794	0.3057	1108.577	0.193288	-367.165463	-367.156308	-367.155364	-367.198569	35.502	
C	 0.0759965632	 1.6293815155	 0.0233448054	-0.433281
C	 0.0767296723	 0.1054646302	 0.0608249882	-0.007799
C	 1.0322317709	-0.7187628711	-0.7997616078	-0.111863
N	 2.3370181865	-0.9494299057	-0.0646866288	-0.193287
C	 2.1524665065	-0.271131752	 1.2575253161	-0.193175
C	 0.6717177277	-0.6884075382	 1.2717534792	 0.233296
C	-0.1140042515	-0.8826215779	 2.5418949708	-0.512399
C	 1.1369684494	-1.7907940458	 0.2156121144	 0.314189
C	 1.093502717	-3.2801446565	 0.1712181917	-0.53318
H	 1.0793448149	 2.0506870158	 0.1267327604	 0.122672
H	-0.330633971	 1.9876160524	-0.9288382061	 0.116906
H	-0.5496334271	 2.0432100346	 0.8225329232	 0.113575
H	-0.9404346508	-0.2664221388	-0.1153477077	 0.070579
H	 1.0856066756	-0.7922729647	-1.8792517837	 0.087535
H	 2.747230324	-0.8095800082	 2.0018999484	 0.099645
H	 2.4115286206	 0.7931867876	 1.2908003998	 0.090357
H	-0.2770354289	 0.0748635939	 3.0513691751	 0.121887
H	-1.0981222626	-1.321814931	 2.3436776914	 0.117126
H	 0.4118729481	-1.5413922356	 3.2420045149	 0.117543
H	 0.0622770288	-3.6481902539	 0.1299950839	 0.120939
H	 1.6217080288	-3.6420458495	-0.7164960866	 0.135722
H	 1.573307348	-3.7234976711	 1.0512812477	 0.123013
146.3042	174.1134	184.0311	188.147	197.267	204.3153	309.0694	316.6307	369.701	500.0063	549.4854	608.0665	650.9454	675.2956	756.4435	776.3849	832.5887	902.085	917.2468	934.8967	972.6617	995.9857	1045.0455	1057.1416	1086.3089	1091.8371	1112.5116	1144.8337	1156.9019	1176.5439	1204.5008	1227.2963	1255.9741	1279.2997	1340.6821	1390.4029	1399.9602	1407.6359	1412.7497	1449.2869	1480.4452	1487.972	1491.0596	1491.9041	1494.4439	1496.5985	1520.0213	3019.7788	3025.2289	3026.54	3030.4192	3036.8209	3082.3488	3085.0339	3085.9283	3089.5073	3089.9316	3105.258	3115.215	3188.7696
CC1C2N3CC1(C)C23C	C[C@H]1[C@H]2N3C[C@]1(C)[C@@]23C	
InChI=1S/C8H13N/c1-5-6-8(3)7(5,2)4-9(6)8/h5-6H,4H2,1-3H3	InChI=1S/C8H13N/c1-5-6-8(3)7(5,2)4-9(6)8/h5-6H,4H2,1-3H3/t5-,6+,7-,8+,9?/m0/s1
