18
gdb 68865	2.52738	1.81072	1.45398	2.4532	70.5	-0.2318	0.0545	0.2863	956.866	0.147742	-439.037589	-439.029721	-439.028777	-439.069312	31.805	
O	-0.018560341	 1.3476317316	-0.0828653584	-0.484823
C	 0.0110205872	-0.040779893	-0.0470314129	 0.389075
C	-0.3898965506	-0.77028358	 1.2268125989	-0.416497
C	-1.2724365369	-0.822958845	-0.0034115632	 0.289575
O	-2.4527411621	-0.0719775016	-0.0407616073	-0.475136
C	-1.0929038916	-2.004948661	-0.909716599	-0.090973
C	-0.8713201581	-1.6782518579	-2.3393641493	-0.249429
N	 0.2786795842	-1.9804443366	-1.4786282188	-0.097643
C	 0.9753580436	-0.7620153704	-0.9802439751	-0.229784
H	-0.9529050219	 1.5991121479	-0.1064963156	 0.288279
H	 0.1429763657	-1.6659697608	 1.5321474327	 0.120364
H	-0.7279817182	-0.1283194914	 2.0337817695	 0.113215
H	-3.0367508848	-0.370747979	 0.6638789777	 0.291876
H	-1.4676189216	-2.9812742846	-0.6109658987	 0.087886
H	-1.0752351882	-2.4216006404	-3.1042908679	 0.117085
H	-1.0326962378	-0.6466060291	-2.6465290716	 0.120582
H	 1.2559997444	-0.1088065957	-1.8120182277	 0.117171
H	 1.8920284478	-1.0786177832	-0.4721458433	 0.109177
147.6642	202.4513	226.0251	266.6588	350.8988	390.0384	400.5925	429.984	484.7788	545.0479	552.4319	646.9952	732.1371	766.5638	795.2705	859.4792	893.7979	928.132	934.8496	985.4765	1023.0271	1037.9752	1055.3559	1086.773	1110.3708	1135.5372	1160.6113	1204.431	1236.5457	1251.9923	1269.6338	1286.9117	1342.2831	1382.3712	1400.283	1407.9654	1471.7674	1498.9196	1508.3852	3044.5237	3091.3905	3101.2196	3119.583	3130.3003	3191.0246	3216.584	3735.7256	3810.4742
OC12CC1(O)C1CN1C2	O[C@@]12C[C@]1(O)[C@H]1CN1C2	
InChI=1S/C6H9NO2/c8-5-2-6(5,9)4-1-7(4)3-5/h4,8-9H,1-3H2	InChI=1S/C6H9NO2/c8-5-2-6(5,9)4-1-7(4)3-5/h4,8-9H,1-3H2/t4-,5-,6+,7?/m1/s1
