21
gdb 76755	2.30242	1.55605	1.36487	1.3302	77.74	-0.2449	0.0601	0.305	1094.9663	0.181528	-424.195879	-424.186651	-424.185707	-424.229708	35.14	
C	 0.2093236378	 1.6750567701	 0.0883380346	-0.423131
C	 0.0751508898	 0.1604839113	 0.0312767524	-0.023938
C	 1.0033001897	-0.6588293	-0.9382900964	 0.045217
O	 2.064391494	 0.0221961081	-1.5624710984	-0.423835
C	 1.3512704031	-1.6554715953	 0.2353151705	 0.285362
C	 1.0408255	-3.1184121202	 0.027253457	-0.51382
C	 2.6126816633	-1.2340964817	 0.9924973091	-0.136466
O	 1.8949608631	-0.1825593986	 1.6863193783	-0.30545
C	 0.6174921277	-0.675312859	 1.2050007642	 0.05053
H	 1.2050515893	 1.9706450955	 0.4317588127	 0.123126
H	 0.0321368225	 2.124116928	-0.8935984306	 0.124109
H	-0.512793431	 2.1017352985	 0.7920840392	 0.118517
H	-0.9678033532	-0.1196169273	-0.1588788311	 0.07351
H	 0.4595773007	-1.1518166419	-1.7489388689	 0.085127
H	 2.4538088435	 0.6258761982	-0.9210149339	 0.291351
H	 1.722550904	-3.5578596566	-0.7109744522	 0.127614
H	 1.1408246802	-3.6891414243	 0.9568352369	 0.118507
H	 0.0204515967	-3.2615596763	-0.3454289174	 0.118835
H	 2.9801838185	-1.9947204799	 1.6951967181	 0.096647
H	 3.4560678185	-0.8552174246	 0.4038045463	 0.101649
H	-0.0473331481	-0.9679442742	 2.0238283295	 0.066539
47.191	181.9654	202.5849	220.0344	223.8222	238.2982	276.2082	299.2292	371.4392	494.6252	504.6499	540.542	623.3754	689.2547	796.5657	823.7047	863.4366	909.7448	933.3365	958.6568	989.3666	997.7872	1018.531	1092.5597	1118.9278	1136.054	1157.9638	1171.7238	1194.9461	1201.7086	1242.8156	1248.8637	1285.0811	1305.1002	1325.7574	1350.9123	1386.6853	1405.9493	1411.4448	1439.5679	1486.9186	1491.604	1493.2902	1509.9359	1528.2988	3001.9648	3021.2707	3032.7096	3038.5339	3058.1981	3059.1649	3070.9666	3085.0513	3092.4458	3103.5955	3113.4118	3813.5975
CC1C(O)C2(C)COC12	C[C@H]1[C@@H](O)[C@@]2(C)CO[C@@H]12	
InChI=1S/C7H12O2/c1-4-5(8)7(2)3-9-6(4)7/h4-6,8H,3H2,1-2H3	InChI=1S/C7H12O2/c1-4-5(8)7(2)3-9-6(4)7/h4-6,8H,3H2,1-2H3/t4-,5+,6-,7+/m0/s1
