12
gdb 20478	6.46886	1.43302	1.27102	3.1552	56.06	-0.2918	-0.0522	0.2397	891.0676	0.084159	-414.58819	-414.581945	-414.581001	-414.619352	22.151	
C	 0.8576609942	 1.0455971669	-0.0571482693	-0.174239
O	 0.0238398658	 0.2019224893	-0.8467319133	-0.22332
C	-0.4815848886	 0.6478703988	 0.41369546	-0.02672
C	-0.6525248757	-0.4033218632	 1.4344601452	 0.34568
N	-1.4593699661	-0.2732247953	 2.4542876583	-0.163216
O	-1.3481775104	-1.4333206484	 3.1664285806	-0.142993
N	-0.4722916345	-2.2990884978	 2.576365832	-0.058055
C	-0.0359069423	-1.6861901318	 1.5131085533	-0.109534
H	 1.7385137572	 0.5703750947	 0.3710645821	 0.12754
H	 1.0045463901	 2.0542688478	-0.4390184717	 0.135635
H	-1.2866380731	 1.3777549559	 0.3669763408	 0.126688
H	 0.6662695034	-2.1508476469	 0.8398093422	 0.162534
65.4123	173.9129	179.7902	417.7788	452.7248	646.7039	661.1938	728.3877	864.254	892.9359	899.3172	902.7617	936.9869	993.6336	1027.0048	1060.0309	1093.1306	1154.318	1167.1703	1203.3845	1272.687	1388.798	1434.881	1482.9262	1523.2828	1617.6189	3090.7403	3145.3391	3183.6722	3280.9354
C1OC1C1=NON=C1	C1O[C@H]1c1nonc1	
InChI=1S/C4H4N2O2/c1-3(4-2-7-4)6-8-5-1/h1,4H,2H2	InChI=1S/C4H4N2O2/c1-3(4-2-7-4)6-8-5-1/h1,4H,2H2/t4-/m1/s1
