21
gdb 56906	2.37171	1.12496	0.93446	3.5329	83.37	-0.2578	0.0374	0.2951	1372.4988	0.1809	-383.276777	-383.266467	-383.265523	-383.31223	37.663	
C	-0.2692687677	 1.4469891624	 0.1500758457	-0.398356
C	 0.141888996	-0.0074530172	-0.1522220979	-0.144864
C	 0.9509425411	-0.0861440903	-1.3745636683	 0.267336
N	 1.5997472212	-0.1444496176	-2.3294351421	-0.32635
C	 0.9016601948	-0.6201467837	 1.0195990542	-0.047762
N	 0.0765227825	-1.0716230085	 2.1495470985	-0.37674
C	 0.8807485065	-2.0611240328	 1.398103836	 0.323669
C	 0.0827129309	-3.0868224818	 0.6179141642	-0.446195
C	 2.123845353	-2.6200453907	 2.0638517579	-0.459084
H	 0.6108644774	 2.0755586777	 0.3137563405	 0.131793
H	-0.8446783729	 1.8732137463	-0.6751327373	 0.1348
H	-0.883236444	 1.4580378282	 1.0539081044	 0.141087
H	-0.7665123873	-0.5937302025	-0.3209421551	 0.130215
H	 1.8222876193	-0.0838873896	 1.2493466908	 0.091337
H	 0.5229234531	-0.8379234857	 3.0330867475	 0.229044
H	-0.8642707834	-2.6790550099	 0.2606364728	 0.127155
H	 0.6538095414	-3.4540475605	-0.2413321226	 0.130568
H	-0.1517627632	-3.9449505656	 1.2573875756	 0.121312
H	 1.8567949888	-3.3957345903	 2.7908920793	 0.123828
H	 2.7931784701	-3.0749301054	 1.3258980562	 0.13393
H	 2.6839980224	-1.8392269625	 2.5884999197	 0.113278
42.6207	96.9124	151.4502	184.9541	203.3103	224.4632	241.8385	286.8336	305.7622	370.7208	401.0635	440.9093	494.7505	539.7061	586.2796	712.0395	805.6075	850.4604	923.1913	953.3942	958.5437	979.9038	1005.135	1060.6412	1074.4669	1092.5048	1110.3555	1138.4398	1155.9282	1238.5203	1284.375	1311.7631	1320.6202	1355.2266	1403.4827	1413.4782	1424.9021	1456.3973	1477.1993	1489.7145	1497.1186	1498.1533	1501.1971	1514.0989	2355.7651	3025.8561	3037.8285	3048.6755	3069.8437	3091.3063	3098.375	3101.5003	3108.2215	3125.5776	3133.4123	3135.1415	3496.1235
CC(C#N)C1NC1(C)C	C[C@@H](C#N)[C@H]1NC1(C)C	
InChI=1S/C7H12N2/c1-5(4-8)6-7(2,3)9-6/h5-6,9H,1-3H3	InChI=1S/C7H12N2/c1-5(4-8)6-7(2,3)9-6/h5-6,9H,1-3H3/t5-,6+/m0/s1
