21
gdb 126143	3.6951	0.88655	0.86403	2.2217	84.45	-0.2317	0.0267	0.2584	1465.3916	0.183954	-383.301817	-383.292463	-383.291519	-383.336748	34.541	
C	 0.0562937486	 1.5790610806	 0.0601012309	-0.39143
C	-0.0139664816	 0.050059945	 0.0033534945	-0.158205
C	-1.4470587566	-0.5290882269	-0.0502750914	-0.104369
C	-2.2015739419	-0.1105938792	-1.3261212719	-0.388215
C	-1.4255302229	-2.0281070539	 0.0995912081	 0.238838
C	-1.9448445324	-2.7816877201	 1.1339926002	-0.155897
N	-1.6864512894	-4.0812035073	 0.8436414312	-0.179392
N	-1.0283010418	-4.2407126768	-0.3183852734	-0.225111
C	-0.8688250535	-3.000056502	-0.7706992223	-0.086896
H	 1.0916456023	 1.9159107581	 0.1725573898	 0.112488
H	-0.3417744765	 2.0452701037	-0.8462960077	 0.118356
H	-0.5127660544	 1.9697525274	 0.9117736204	 0.111314
H	 0.5490182992	-0.3140794698	-0.8662273531	 0.095695
H	 0.4891056441	-0.3670824113	 0.8834863588	 0.097343
H	-1.9956790517	-0.1219506156	 0.8105376914	 0.06677
H	-2.2984259815	 0.9765124015	-1.3986096093	 0.112072
H	-1.6781194153	-0.4618593068	-2.2223208352	 0.115157
H	-3.2072113992	-0.5405653848	-1.3399733625	 0.116358
H	-2.4674712771	-2.4926611912	 2.0327379274	 0.128587
H	-1.9278057794	-4.894745928	 1.3829711384	 0.272216
H	-0.3588741093	-2.8429633626	-1.7103544942	 0.10432
37.0671	91.9897	120.4572	186.4167	218.991	274.8549	288.9118	344.2941	405.8285	471.1577	503.558	672.7831	688.838	712.4306	781.1178	790.6677	847.0528	889.9045	950.3192	960.4777	976.5385	1006.0592	1035.2911	1066.1164	1079.4447	1135.8873	1169.862	1181.8152	1245.9854	1268.8657	1297.1356	1332.905	1359.0965	1377.7008	1389.8847	1407.9818	1414.7205	1425.8218	1482.1053	1491.1852	1495.2499	1498.8802	1505.9144	1511.6416	1609.2068	3002.8304	3022.7197	3031.566	3035.9483	3058.8092	3096.4618	3102.8995	3106.6401	3114.6201	3239.7375	3253.9181	3678.1271
CCC(C)C1=CNN=C1	CC[C@@H](C)c1c[nH]nc1	
InChI=1S/C7H12N2/c1-3-6(2)7-4-8-9-5-7/h4-6H,3H2,1-2H3,(H,8,9)	InChI=1S/C7H12N2/c1-3-6(2)7-4-8-9-5-7/h4-6H,3H2,1-2H3,(H,8,9)/t6-/m1/s1
