17
gdb 46566	3.06008	1.73603	1.35547	3.3971	72.27	-0.2347	-0.0201	0.2146	956.0623	0.136411	-421.769821	-421.762904	-421.76196	-421.801134	27.953	
O	-0.085705988	-0.0387724858	-0.2205417243	-0.314052
C	-0.0099833621	 1.1462535645	-0.0419705683	 0.394235
C	-1.2393590785	 2.0916124868	 0.1260763104	-0.30776
C	-0.7174300738	 3.5532069092	 0.283714765	-0.359542
C	 0.7148012172	 3.2845632981	 0.661514273	 0.413385
C	 2.1547218825	 3.8109590916	 0.8692791943	-0.313121
C	 2.0931010533	 2.2915783809	 1.2354214791	 0.036311
O	 0.841025404	 2.555076892	 1.9675948906	-0.348022
C	 1.2479762852	 2.0207159811	-0.0337936671	-0.145824
H	-1.9099211688	 1.9640234612	-0.728570008	 0.128589
H	-1.7855107539	 1.7607142579	 1.0135285166	 0.150679
H	-0.7646292898	 4.100242652	-0.663201795	 0.11652
H	-1.2624617136	 4.1247015775	 1.0387740861	 0.124384
H	 2.7214171648	 4.1096457861	-0.0161613029	 0.104115
H	 2.3013906251	 4.4780126924	 1.7193319458	 0.117112
H	 2.847311842	 1.6713875353	 1.7189549135	 0.10855
H	 1.7309497643	 2.1036472191	-1.0126059788	 0.094441
93.7568	186.6147	292.0304	338.0333	455.3275	484.8887	536.3201	588.9139	653.0814	678.873	728.7808	776.6958	799.8773	870.3178	891.5062	923.6669	958.7781	975.2275	986.1221	1013.4481	1059.385	1063.9862	1115.6455	1123.1721	1170.0815	1187.0096	1196.24	1226.6787	1247.378	1272.4923	1277.5756	1325.7905	1351.8852	1444.098	1481.5231	1488.8854	1853.4403	3057.9915	3061.5908	3068.858	3070.9173	3104.0806	3119.4983	3125.9383	3150.9633
O=C1CCC23CC(O2)C13	O=C1CC[C@@]23C[C@@H](O2)[C@@H]13	
InChI=1S/C7H8O2/c8-4-1-2-7-3-5(9-7)6(4)7/h5-6H,1-3H2	InChI=1S/C7H8O2/c8-4-1-2-7-3-5(9-7)6(4)7/h5-6H,1-3H2/t5-,6-,7+/m1/s1
