18
gdb 125025	2.97685	1.27135	0.93619	3.2022	76.16	-0.1888	0.0264	0.2151	1246.0061	0.148873	-435.284612	-435.275161	-435.274216	-435.319036	34.338	
C	 0.0227727268	 1.4778605327	 0.0635010897	-0.516502
C	 0.0084642404	-0.0103134938	-0.0491805269	 0.317411
C	 0.0554621301	-0.8467692993	-1.1505710807	 0.047682
N	 0.0690874563	-0.5083535314	-2.5146620022	-0.621846
C	 0.0084270867	-2.1618776894	-0.6183804936	 0.265251
C	 0.0144258613	-3.4367891155	-1.3981966665	-0.184908
O	 1.0495224035	-3.4553020333	-2.390771135	-0.417432
N	-0.0471347394	-2.147585268	 0.7146669443	-0.300796
N	-0.050928575	-0.8460090623	 1.0333742493	-0.265792
H	 1.038768957	 1.8902577804	 0.119079381	 0.132654
H	-0.4694220345	 1.9300699491	-0.8030813034	 0.143232
H	-0.5159586951	 1.8156979484	 0.9551324034	 0.128835
H	 0.5781046573	 0.3452609513	-2.7055509081	 0.2347
H	 0.4693916698	-1.2653838619	-3.0581523021	 0.253525
H	 0.094682131	-4.2868247252	-0.7082425456	 0.113854
H	-0.9134901494	-3.5557601269	-1.9689868862	 0.121312
H	 1.8843727252	-3.333171825	-1.9255455933	 0.283659
H	-0.0910743821	-0.5796701999	 2.0022673961	 0.265163
66.8464	89.7868	128.964	202.4913	229.4081	262.5014	316.8729	319.9688	390.4314	420.4305	451.3299	493.298	611.3025	665.8825	714.7112	727.8399	800.6939	829.8754	969.9289	992.8905	1004.4823	1034.8034	1058.6748	1181.0473	1211.1782	1249.6291	1264.6432	1297.5152	1353.1182	1413.503	1421.2931	1449.1151	1483.9819	1491.8945	1496.5369	1499.8958	1549.4919	1649.4052	1663.4304	3015.7616	3021.9106	3067.8007	3073.2769	3104.2721	3518.9847	3609.6179	3672.785	3804.2817
CC1=C(N)C(CO)=NN1	Cc1c(N)c(CO)n[nH]1	
InChI=1S/C5H9N3O/c1-3-5(6)4(2-9)8-7-3/h9H,2,6H2,1H3,(H,7,8)	InChI=1S/C5H9N3O/c1-3-5(6)4(2-9)8-7-3/h9H,2,6H2,1H3,(H,7,8)
