20
gdb 116242	2.09427	1.46514	1.06523	4.1411	78.19	-0.2745	0.0201	0.2946	1219.2374	0.171505	-403.172867	-403.163578	-403.162633	-403.207716	33.42	
C	 0.0177104996	 1.6207012241	-0.2334924857	-0.391887
C	 0.0234385586	 0.0904626287	-0.1478748602	-0.208112
C	-1.3614358016	-0.5220116829	 0.0658252516	 0.013112
C	-1.3989453315	-2.0584599826	 0.1385006357	-0.267814
C	-2.7306883775	-2.3458685672	 0.8486039611	-0.078625
O	-3.1096823607	-1.1352620573	 1.5316927265	-0.255164
C	-2.0938441103	-0.1629360045	 1.3826178802	-0.033368
C	-1.183848705	-0.1702786083	 2.5534101211	 0.275569
N	-0.4715113365	-0.1813187835	 3.4636943243	-0.335176
H	 1.0204843049	 2.0022152205	-0.4458718725	 0.123108
H	-0.6484258406	 1.9740328357	-1.0285965248	 0.115208
H	-0.3104470453	 2.0753069446	 0.7070301695	 0.127547
H	 0.4386282732	-0.3256385377	-1.073657717	 0.101516
H	 0.6894073325	-0.2321216939	 0.6610797542	 0.124942
H	-2.0305322122	-0.1881748449	-0.7377273612	 0.090199
H	-1.3407300307	-2.5260487088	-0.8469060617	 0.113535
H	-0.5537839312	-2.4219468509	 0.7326032395	 0.125391
H	-3.5333226063	-2.5898066385	 0.1434746694	 0.111799
H	-2.652931441	-3.160836877	 1.5758905068	 0.117662
H	-2.5737604086	 0.8195933743	 1.3414693033	 0.130558
54.9391	78.9759	122.5214	150.2064	199.1193	229.4209	267.2258	372.6335	408.5692	501.025	583.9768	616.133	712.134	790.8183	828.4577	879.4902	906.6203	925.7523	964.4792	984.5692	1007.3047	1049.0668	1079.4135	1111.9565	1148.0279	1162.9946	1201.4279	1230.4866	1269.4403	1290.2372	1297.8623	1348.349	1353.2689	1371.8935	1384.7435	1399.4122	1416.6004	1485.8067	1494.3693	1501.6709	1506.7519	1529.7607	2348.5477	3024.5363	3031.0739	3034.2216	3034.5478	3053.3018	3067.0061	3071.5199	3073.8893	3101.8362	3110.3397	3113.0998
CCC1CCOC1C#N	CC[C@H]1CCO[C@H]1C#N	
InChI=1S/C7H11NO/c1-2-6-3-4-9-7(6)5-8/h6-7H,2-4H2,1H3	InChI=1S/C7H11NO/c1-2-6-3-4-9-7(6)5-8/h6-7H,2-4H2,1H3/t6-,7-/m0/s1
