21
gdb 59215	3.20871	1.16057	1.05557	2.0223	77.83	-0.2358	0.0726	0.3084	1233.4595	0.183123	-424.197978	-424.189488	-424.188544	-424.23113	33.343	
C	 0.5530944973	 0.1053203098	-1.4398991353	-0.400291
C	 0.056762342	 0.0853335183	 0.0077679117	 0.082296
O	 0.1077035808	 1.3895826734	 0.5882550273	-0.430517
C	-1.3515707168	-0.4922014732	 0.1175298965	 0.02771
C	-1.5410534838	-2.052543766	 0.0769795203	-0.091398
C	-1.1794642985	-2.0544072942	 1.5977329199	-0.249261
C	-1.9597985785	-0.7212760619	 1.5293397095	 0.094498
O	-3.3014713023	-1.1455997321	 1.2267283966	-0.285382
C	-3.0699822254	-2.1189977745	 0.1788886535	-0.084258
H	 1.5476820158	 0.5561692163	-1.4916931473	 0.124554
H	 0.6057283283	-0.9053191198	-1.857726972	 0.11762
H	-0.1235555954	 0.6928601363	-2.0729363131	 0.106726
H	 0.761172519	-0.497557239	 0.6092524608	 0.088374
H	-0.4922679901	 1.9550442234	 0.0886190481	 0.276228
H	-2.018333052	 0.0693402267	-0.5513481977	 0.058736
H	-1.0529750524	-2.6961995024	-0.654627157	 0.070757
H	-1.6065958154	-2.8412309959	 2.2239920775	 0.09992
H	-0.1148206806	-1.9439712114	 1.7975067967	 0.109294
H	-1.9736154764	 0.0319077536	 2.3138981146	 0.087317
H	-3.5853196301	-1.8136096284	-0.7394985068	 0.0979
H	-3.4445856255	-3.1021798688	 0.4879549263	 0.099177
63.375	145.7829	199.6252	241.1478	279.8432	313.9365	351.7109	436.1638	476.8717	502.504	523.4783	657.1354	831.1169	846.3062	874.1636	895.2568	910.7969	917.6937	942.4323	960.4028	993.7296	1015.0466	1031.4901	1065.5297	1070.4643	1088.5754	1120.5585	1124.9233	1169.0388	1184.77	1217.7369	1234.1986	1237.0579	1265.263	1271.4715	1296.8445	1329.8394	1363.3185	1401.5408	1409.0729	1419.2361	1489.0166	1494.1462	1498.5792	1529.4976	3009.5488	3020.3141	3026.1764	3059.6829	3062.6369	3078.0697	3096.8335	3118.7385	3120.9156	3149.5246	3154.0203	3794.3909
CC(O)C1C2CC1OC2	C[C@@H](O)[C@H]1[C@H]2C[C@@H]1OC2	
InChI=1S/C7H12O2/c1-4(8)7-5-2-6(7)9-3-5/h4-8H,2-3H2,1H3	InChI=1S/C7H12O2/c1-4(8)7-5-2-6(7)9-3-5/h4-8H,2-3H2,1H3/t4-,5+,6+,7+/m1/s1
