18
gdb 128463	3.82312	1.03311	0.86405	5.7422	74.36	-0.249	0.0025	0.2515	1336.5576	0.147596	-435.25358	-435.244517	-435.243573	-435.288679	31.967	
C	 0.1424495645	 1.315867471	-0.2197095185	-0.237751
O	 0.03743443	-0.0853409054	-0.0941043151	-0.236392
C	-1.2833025982	-0.5676782005	 0.0713303283	 0.007244
C	-2.0434285473	-0.6305716187	-1.2630314792	-0.399641
C	-1.1500654459	-1.9175670271	 0.7130885675	 0.35054
C	-0.0560009226	-2.6345515282	 1.1372520412	-0.14408
N	-0.4778557481	-3.8201449267	 1.6626777871	-0.188943
N	-1.7736349561	-3.8834929987	 1.5928265402	-0.115425
N	-2.1901231738	-2.7339882219	 1.0160618551	-0.267317
H	 1.2084339045	 1.5502181073	-0.2590288393	 0.13726
H	-0.3312320509	 1.6954338267	-1.1360531269	 0.111588
H	-0.3039150042	 1.8336233208	 0.6430688878	 0.111189
H	-1.8312652498	 0.102247409	 0.7580477333	 0.083464
H	-1.5163013775	-1.2852791785	-1.9616409011	 0.142424
H	-3.0581324743	-1.0167120933	-1.1206202893	 0.110975
H	-2.1319021095	 0.3642848226	-1.7074449158	 0.126363
H	 0.9838942824	-2.362024408	 1.089732221	 0.13295
H	-3.1768836933	-2.5896986205	 0.8741416138	 0.275553
32.8506	66.203	146.8928	164.4943	202.7759	240.7981	326.9433	368.0343	422.1473	474.9221	564.8599	681.7686	727.6688	744.0044	862.9524	866.2217	992.036	1008.5772	1052.9586	1067.6988	1085.3453	1105.9864	1130.3818	1165.9627	1182.0757	1214.2109	1228.8165	1326.9055	1345.4037	1359.049	1394.567	1407.5374	1435.3433	1478.2064	1480.5917	1491.8803	1501.0317	1511.342	1608.1982	2938.901	2983.5291	3034.5297	3043.696	3110.912	3122.1275	3133.0992	3295.2993	3657.5512
COC(C)C1=CN=NN1	CO[C@@H](C)c1cnn[nH]1	
InChI=1S/C5H9N3O/c1-4(9-2)5-3-6-8-7-5/h3-4H,1-2H3,(H,6,7,8)	InChI=1S/C5H9N3O/c1-4(9-2)5-3-6-8-7-5/h3-4H,1-2H3,(H,6,7,8)/t4-/m0/s1
