20
gdb 32108	3.51891	1.09168	0.84387	1.6007	93.23	-0.1879	0.0153	0.2032	1400.8302	0.172213	-366.084163	-366.075042	-366.074098	-366.118573	34.071	
C	 0.0012115244	 1.443418468	 0.1081170932	-0.321249
N	-0.1664543994	 0.0253303121	-0.1278134347	-0.368197
C	 0.5427213513	-0.6385034093	-1.1201279844	 0.375014
C	 1.200095465	 0.0428826126	-2.1534705089	-0.229544
C	 1.8577536076	-0.6780168565	-3.1482444253	-0.079673
C	 1.8844579547	-2.0656652745	-3.1353186154	-0.222113
C	 1.2387660859	-2.7644583136	-2.105719908	 0.341673
C	 1.2593623592	-4.2739722611	-2.0776543951	-0.491422
C	 0.5798271083	-2.0453762455	-1.1165654603	-0.299348
H	 1.0495008389	 1.7403597122	 0.2711553848	 0.11506
H	-0.3840486569	 2.0259608099	-0.7364217819	 0.133636
H	-0.5781925148	 1.7243430712	 0.9905702927	 0.12193
H	-0.3238420455	-0.5233727869	 0.7023229425	 0.233995
H	 1.199540984	 1.1253097433	-2.1855347406	 0.084287
H	 2.3619039536	-0.1373906131	-3.9436025234	 0.086755
H	 2.4046566886	-2.61123861	-3.9161630023	 0.077851
H	 2.2856611837	-4.6578847032	-2.0599772237	 0.127657
H	 0.7393021904	-4.6670505583	-1.1999321417	 0.116603
H	 0.7774964993	-4.694111932	-2.9679639341	 0.129184
H	 0.0719601818	-2.5796729251	-0.3166792534	 0.067899
36.7512	93.6935	180.6686	213.8004	225.7302	253.198	315.3761	413.1691	452.3672	466.5139	522.2291	586.3485	615.51	713.5605	749.2071	790.146	850.2238	869.2718	919.6862	950.4022	1002.5058	1014.3275	1059.3734	1092.4337	1118.7343	1153.0676	1183.1752	1195.844	1207.8801	1299.9801	1343.5039	1364.039	1412.5458	1432.6096	1466.5366	1482.251	1484.4567	1492.204	1522.2527	1532.1596	1544.3431	1626.1679	1653.5933	2976.946	3028.8386	3055.9053	3081.4517	3110.7247	3117.5271	3145.5744	3164.2814	3182.1505	3204.4554	3622.8706
CNC1=CC=CC(C)=C1	CNc1cccc(C)c1	
InChI=1S/C8H11N/c1-7-4-3-5-8(6-7)9-2/h3-6,9H,1-2H3	InChI=1S/C8H11N/c1-7-4-3-5-8(6-7)9-2/h3-6,9H,1-2H3
