18
gdb 79160	2.70528	1.86814	1.37384	2.3211	79.47	-0.2019	-0.033	0.1689	968.9232	0.147025	-401.820805	-401.812965	-401.812021	-401.852779	30.933	
C	-0.174322315	 1.2898669038	-0.3005107613	-0.474997
C	 0.0374230894	-0.0574891128	 0.3126470199	 0.190918
C	-0.9615061852	-0.9183366214	 0.6279735641	-0.082027
C	-1.7891824349	-1.3673349161	-0.5829958057	-0.168129
N	-0.8075733918	-2.5441693833	-0.6855414358	-0.151745
C	 0.6489021577	-2.2556843423	-0.2340384257	-0.035109
C	-0.4427525817	-2.355201623	 0.7408367049	-0.083582
C	 1.303184864	-0.8832855626	-0.0103925582	 0.042598
O	 1.9635838778	-0.4130915633	-1.1704895184	-0.421296
H	 0.291981528	 2.0771061486	 0.3085623017	 0.122477
H	 0.2704385154	 1.3510400427	-1.2988610818	 0.137966
H	-1.2405289417	 1.5265627148	-0.3633966627	 0.125511
H	-2.7684918013	-1.8180486953	-0.3948173737	 0.11563
H	-1.8381868004	-0.6946569607	-1.4442795082	 0.114714
H	 1.2684208798	-3.1029315254	-0.511215401	 0.103742
H	-0.6213029007	-3.100429315	 1.5076787975	 0.093409
H	 2.0287433768	-1.0046365869	 0.8118429323	 0.08013
H	 2.5839934537	 0.2753223284	-0.9111601377	 0.289791
112.9144	148.4523	226.2437	279.7073	295.0634	338.1291	440.6635	487.2709	549.6096	571.1519	626.28	710.0635	765.4668	787.3768	840.4695	891.8453	905.7673	967.9423	981.5852	1014.2459	1036.8821	1039.106	1065.7175	1088.314	1111.6739	1128.5248	1185.9405	1214.3664	1227.6948	1262.4631	1271.241	1283.2865	1346.0788	1392.8333	1413.8307	1471.204	1487.634	1509.0575	1606.2732	2944.4446	3010.8344	3042.4613	3069.8949	3103.0397	3114.1772	3167.0168	3179.2319	3822.9651
CC1=C2CN3C(C23)C1O	C[C]1[C]2CN3[C@H]([C@@H]23)[C@H]1O	
InChI=1S/C7H9NO/c1-3-4-2-8-5(4)6(8)7(3)9/h5-7,9H,2H2,1H3	InChI=1S/C7H9NO/c1-3-4-2-8-5(4)6(8)7(3)9/h5-7,9H,2H2,1H3/t5-,6-,7+,8?/m1/s1
