15
gdb 50967	2.08389	1.30539	0.87791	4.632	67.4	-0.2714	-0.0623	0.2091	1259.1035	0.110815	-453.986048	-453.976733	-453.975789	-454.021666	31.397	
O	 0.0338801951	 0.3808495846	-1.1568339828	-0.304059
C	-0.0158790486	 1.2803654302	-0.3501452364	 0.165566
N	 1.0737113156	 1.8031507348	 0.2980266259	-0.2787
C	 2.3587921875	 1.1586322116	 0.2101084148	-0.080677
C	 3.396376539	 1.9608043654	-0.6286441714	-0.356445
C	 2.9956776494	 2.1341774859	-2.0210622436	 0.28316
N	 2.6953288159	 2.286466256	-3.1257195409	-0.291726
C	 2.9438486159	 0.9451635787	 1.5999078837	 0.156189
O	 2.4351013701	 1.3662658579	 2.6051394074	-0.237541
H	-0.9522950466	 1.7914896658	-0.0601127432	 0.096113
H	 0.9146983087	 2.3571721161	 1.1287066113	 0.261434
H	 2.2131518209	 0.1828334269	-0.269920119	 0.158406
H	 3.5403940306	 2.9504620146	-0.1805097386	 0.163463
H	 4.3661707719	 1.4497236288	-0.6037750244	 0.159939
H	 3.9044280347	 0.3878037927	 1.620779527	 0.104879
44.975	58.4016	94.4729	157.1256	201.9356	223.9272	281.9237	357.0759	389.2345	425.4804	532.4456	545.6977	715.0839	770.8147	866.3249	877.5599	933.4212	1019.8766	1031.1535	1075.8935	1125.2497	1206.3358	1250.6478	1269.5483	1343.0643	1362.3307	1412.7974	1427.1462	1460.0035	1512.9535	1808.0359	1834.6804	2370.2043	2912.9343	2969.8872	3040.2572	3052.3923	3085.046	3596.0366
O=CNC(CC#N)C=O	O=CN[C@@H](CC#N)C=O	
InChI=1S/C5H6N2O2/c6-2-1-5(3-8)7-4-9/h3-5H,1H2,(H,7,9)	InChI=1S/C5H6N2O2/c6-2-1-5(3-8)7-4-9/h3-5H,1H2,(H,7,9)/t5-/m0/s1
