21
gdb 60099	3.63354	1.0118	0.93514	2.508	79.35	-0.2293	0.0685	0.2978	1350.6586	0.180908	-424.1619	-424.152766	-424.151822	-424.196116	34.985	
C	 0.0151318529	 1.4785633079	-0.1188210229	-0.407356
C	 0.0127099305	-0.0379232652	 0.0697859692	 0.138319
O	 0.7263402206	-0.4122387126	 1.2469494992	-0.429903
C	-1.410487651	-0.6206114286	 0.06732469	-0.363894
C	-1.437463847	-2.1190316917	-0.0117242505	 0.450658
C	-0.695378474	-3.1953208345	 0.8281802254	-0.244693
C	-1.3446439548	-3.8692954247	-0.3992798693	 0.048558
C	-2.6494499447	-3.0822523772	-0.1435047793	-0.270184
O	-0.8644359573	-2.7480888779	-1.2407446225	-0.350105
H	 1.0387362555	 1.8606002253	-0.0797879459	 0.125287
H	-0.4260481215	 1.7612455701	-1.0798430829	 0.119567
H	-0.5649944504	 1.9718798493	 0.6721474722	 0.10347
H	 0.5712822903	-0.5077541501	-0.7469077714	 0.114702
H	 0.3064520101	 0.0275626734	 1.9948361706	 0.274098
H	-1.9414148775	-0.2976717963	 0.9739889886	 0.091617
H	-1.9706488404	-0.2226532042	-0.7878840982	 0.110426
H	 0.3905912094	-3.1235920742	 0.811109444	 0.120597
H	-1.0936852576	-3.4339986059	 1.8182612712	 0.085727
H	-1.2115053174	-4.8772935632	-0.7913010404	 0.092127
H	-3.2256368513	-3.3115542542	 0.757190699	 0.089486
H	-3.2748432746	-2.9214388556	-1.023194416	 0.101498
54.381	86.4843	132.8097	242.1032	273.5509	297.4362	314.9746	332.0002	458.3282	469.9949	524.621	597.3253	687.9508	719.2769	791.1525	844.6344	863.873	904.8025	934.6422	942.8001	950.0035	984.5548	994.9638	1047.5564	1059.7183	1088.8877	1114.7645	1121.074	1149.8171	1167.4153	1206.156	1210.5976	1238.6688	1251.2395	1301.403	1335.782	1341.5094	1396.128	1404.9337	1426.2225	1457.0759	1468.3852	1492.2758	1496.0664	1516.1133	3012.4465	3021.7366	3054.418	3056.2472	3066.0564	3067.156	3095.4386	3120.089	3121.926	3139.2473	3165.8522	3794.2709
CC(O)CC12CC(C1)O2	C[C@@H](O)C[C@@]12C[C@@H](C1)O2	
InChI=1S/C7H12O2/c1-5(8)2-7-3-6(4-7)9-7/h5-6,8H,2-4H2,1H3	InChI=1S/C7H12O2/c1-5(8)2-7-3-6(4-7)9-7/h5-6,8H,2-4H2,1H3/t5-,6-,7+/m1/s1
