18
gdb 100522	3.06514	1.00931	0.8656	0.6232	69.98	-0.2402	-0.0647	0.1754	1379.0987	0.144488	-476.257736	-476.247295	-476.246351	-476.293863	36.302	
C	-0.0575199781	 1.3893159263	 0.0522791589	-0.236178
O	 0.1367695485	-0.0038430859	-0.044860038	-0.237231
C	 0.70498286	-0.5894735341	 1.1014522636	 0.051348
C	-0.3166201783	-0.8081747383	 2.2346585339	-0.426591
C	 1.29337935	-1.9294036293	 0.680639199	 0.271997
O	 1.0204595088	-2.5001240379	-0.3467724253	-0.297579
C	 2.2988084542	-2.558606026	 1.6784283422	 0.333294
N	 2.7471419755	-3.757090452	 1.2509404424	-0.518736
O	 2.6224292285	-1.9984796518	 2.7103948035	-0.356049
H	 0.8808885514	 1.9144587208	 0.2893954301	 0.1074
H	-0.4139059562	 1.7275386392	-0.92343601	 0.133289
H	-0.8062257242	 1.6621984695	 0.8099907644	 0.109341
H	 1.5337467575	 0.0221450702	 1.491140017	 0.102377
H	 0.1682492112	-1.2682899607	 3.0975700264	 0.153239
H	-0.7359668261	 0.1506203584	 2.5501492005	 0.12651
H	-1.133758334	-1.4458679162	 1.885323122	 0.132517
H	 2.4192704714	-4.1072641864	 0.3648692939	 0.281208
H	 3.4253121198	-4.2648509058	 1.7928171053	 0.269843
58.6542	67.9195	78.6183	160.1371	184.0631	209.7004	253.9879	280.0784	333.2594	341.8272	386.8465	427.3874	495.7764	540.6276	616.5931	667.8585	777.0736	818.6861	873.1696	1023.3576	1040.1027	1075.6313	1097.1048	1130.7485	1168.8682	1182.3207	1231.5888	1319.0696	1355.3813	1381.3834	1399.8288	1478.8571	1486.5398	1492.8037	1505.8505	1511.1762	1585.9237	1794.0801	1819.8464	2978.4123	2993.8756	3028.6296	3051.134	3117.6153	3123.792	3146.8409	3593.715	3736.0942
COC(C)C(=O)C(N)=O	CO[C@@H](C)C(=O)C(=O)N	
InChI=1S/C5H9NO3/c1-3(9-2)4(7)5(6)8/h3H,1-2H3,(H2,6,8)	InChI=1S/C5H9NO3/c1-3(9-2)4(7)5(6)8/h3H,1-2H3,(H2,6,8)/t3-/m0/s1
