14
gdb 16801	3.72904	2.00303	1.40846	5.9305	66.62	-0.2186	-0.026	0.1927	840.7082	0.109223	-378.724692	-378.718056	-378.717112	-378.755211	26.021	
N	 0.0797839598	 1.3457086201	 0.0879611058	-0.593623
C	-0.0285898204	-0.0087959679	 0.0396054565	 0.444314
C	-1.1473745984	-0.7788676092	-0.0169570367	-0.346682
C	-0.796666455	-2.1991068658	 0.008986357	 0.447042
O	-1.5298099442	-3.1650290466	 0.0272982722	-0.362225
C	 0.7340267531	-2.2589403793	 0.0309529786	-0.166044
N	 1.3495728049	-1.6514116191	-1.183284772	-0.327059
C	 1.2067094281	-0.8634841236	 0.0717635164	-0.160972
H	 0.9593988454	 1.7633985491	-0.1690249265	 0.263177
H	-0.7338088086	 1.9013179659	-0.1243077291	 0.265711
H	-2.1647915216	-0.4258165686	-0.1193754694	 0.094481
H	 1.2357402714	-3.07800564	 0.5319601855	 0.106701
H	 2.3122827899	-1.9869889765	-1.2425364342	 0.233713
H	 2.0869268556	-0.5419328884	 0.6180456059	 0.101465
159.8381	210.9613	307.3196	362.27	389.9974	466.1443	490.4016	589.4927	609.6066	691.3896	749.2728	822.6324	841.5233	851.5858	870.2128	902.9528	922.7351	1045.438	1083.9803	1122.563	1147.0931	1190.2205	1263.8347	1274.3528	1335.3804	1371.1167	1435.4132	1630.093	1678.5882	1802.8731	3171.337	3193.9779	3221.4172	3449.2084	3588.2517	3699.6847
NC1=CC(=O)C2NC12	NC1=CC(=O)[C@H]2N[C@@H]12	
InChI=1S/C5H6N2O/c6-2-1-3(8)5-4(2)7-5/h1,4-5,7H,6H2	InChI=1S/C5H6N2O/c6-2-1-3(8)5-4(2)7-5/h1,4-5,7H,6H2/t4-,5+/m0/s1
