14
gdb 132968	3.28802	1.36971	0.97275	3.5031	68.86	-0.2249	-0.0702	0.1547	1102.3693	0.101031	-478.02283	-478.015234	-478.01429	-478.0554	27.799	
C	-0.0114905421	 1.4594394608	 0.0106028175	-0.33615
N	 0.0039672966	 0.000902311	-0.0303159906	-0.100923
C	-0.1082968968	-0.6833884284	-1.2069422889	-0.145114
C	-0.0872324961	-2.0425517221	-1.1804095156	 0.277962
F	-0.1950571571	-2.7314875074	-2.3146604212	-0.071844
N	 0.0387851148	-2.7588206338	-0.0534338829	-0.267876
C	 0.1461873527	-2.110799799	 1.0713424688	-0.098084
C	 0.1404947919	-0.6572135463	 1.2058844382	 0.382745
O	 0.2396894616	-0.0285012706	 2.2484483795	-0.40282
H	 0.9160972498	 1.8250137836	 0.4573672191	 0.165838
H	-0.1212564971	 1.8471704705	-1.0021970357	 0.135181
H	-0.8377124993	 1.8013445193	 0.6383889841	 0.165835
H	-0.2102651389	-0.1122184246	-2.1199108651	 0.149977
H	 0.24899577	-2.6761176931	 1.9932392328	 0.145274
74.2851	127.3264	191.2396	310.2151	355.1321	370.9333	426.4103	450.544	543.609	586.4546	604.5913	747.5861	771.8563	817.7301	856.2113	938.847	966.616	1072.1105	1146.0518	1151.8003	1196.7818	1303.7975	1336.155	1390.6931	1449.3794	1459.324	1465.0074	1508.0147	1554.4206	1668.0609	1760.9271	3059.4223	3127.4665	3159.8262	3177.8934	3220.8087
CN1C=C(F)N=CC1=O	Cn1cc(F)ncc1=O	
InChI=1S/C5H5FN2O/c1-8-3-4(6)7-2-5(8)9/h2-3H,1H3	InChI=1S/C5H5FN2O/c1-8-3-4(6)7-2-5(8)9/h2-3H,1H3
