18
gdb 22344	3.03242	1.09627	0.85561	1.0005	82.21	-0.222	-0.0302	0.1918	1337.2714	0.146437	-439.066551	-439.057302	-439.056358	-439.101318	34.164	
C	-0.0955862001	 1.5024021513	 0.0741792338	-0.490576
C	-0.0412191764	 0.0146669778	-0.0268461042	 0.280839
C	-0.0074502415	-0.7413675962	-1.1371934259	-0.258748
C	 0.0441969568	-2.1618998979	-0.8056883646	 0.374708
C	 0.0373057432	-2.2999602445	 0.706044923	-0.3373
C	 0.0303365926	-0.8393300032	 1.2300791225	 0.034518
O	 1.154561538	-0.4992672107	 2.0395273435	-0.426203
N	 0.0781018646	-3.1851599838	-1.5719459043	-0.236941
O	 0.0534439792	-2.8121296053	-2.9300618263	-0.397694
H	 0.7070218927	 1.8674143798	 0.7243821448	 0.142739
H	-0.0116640127	 1.9845342998	-0.9026396456	 0.127675
H	-1.0374055464	 1.8252894776	 0.5372963845	 0.135035
H	-0.0214299141	-0.379630839	-2.1562850914	 0.119137
H	-0.8382613513	-2.8612510671	 1.0438024111	 0.128768
H	 0.9184665789	-2.8312757528	 1.0772460356	 0.125336
H	-0.8286946214	-0.6503658418	 1.8838617649	 0.094884
H	 1.9451913454	-0.6245721966	 1.5015311018	 0.278585
H	 0.0787455825	-3.6666619974	-3.3722739733	 0.305237
24.1149	143.2411	177.6807	196.0042	247.3619	257.7627	331.9789	352.7883	382.7363	394.4317	525.2414	546.198	587.4403	634.7346	702.6101	817.1653	883.6692	896.6052	939.0453	972.8062	994.8221	1028.2335	1057.5341	1073.2949	1152.8915	1173.6762	1231.7342	1265.4868	1284.6006	1309.9311	1343.1171	1398.6623	1408.623	1427.1342	1470.2738	1472.8944	1484.4618	1681.1026	1727.1503	3022.3565	3045.682	3063.2012	3077.1354	3102.0418	3122.8607	3231.8344	3787.9522	3826.2939
CC1=CC(CC1O)=NO	CC1=CC(=NO)C[C@H]1O	
InChI=1S/C6H9NO2/c1-4-2-5(7-9)3-6(4)8/h2,6,8-9H,3H2,1H3	InChI=1S/C6H9NO2/c1-4-2-5(7-9)3-6(4)8/h2,6,8-9H,3H2,1H3/t6-/m1/s1
