21
gdb 109052	3.50058	1.11487	0.96633	1.9276	84.66	-0.2292	0.0063	0.2355	1302.4452	0.183696	-387.097289	-387.088783	-387.087839	-387.130512	32.961	
C	-0.1793494948	 1.5246881161	 0.0985730993	-0.371833
C	 0.0581763832	 0.0048748527	 0.0350409476	-0.279666
C	 0.7592309804	-0.4384599291	-1.2241615329	 0.310751
C	 2.0302842237	-0.8581430088	-1.2281583145	-0.159139
C	 2.706972424	-1.2940645937	-2.4728337178	 0.01198
O	 2.031886732	-2.2857521496	-3.2914891773	-0.263014
C	 2.1023683556	-0.9449201503	-3.7695005362	 0.05483
C	 0.8217755181	-0.1420642948	-3.759456084	-0.250858
C	-0.0356947431	-0.4357193881	-2.5130705985	-0.304752
H	 0.7712918242	 2.066591566	 0.0809586333	 0.120345
H	-0.7800713032	 1.877451249	-0.7458878468	 0.118736
H	-0.709391787	 1.7957770129	 1.0168677291	 0.115064
H	 0.6452414518	-0.3045231552	 0.9066013858	 0.101912
H	-0.9102616354	-0.5089920111	 0.1110761539	 0.103182
H	 2.6046953451	-0.8906081977	-0.306183519	 0.078658
H	 3.7827689221	-1.4485254732	-2.4186740745	 0.086952
H	 2.7552339128	-0.8031053289	-4.6321080075	 0.085123
H	 1.0960585633	 0.9210748989	-3.7874141948	 0.105502
H	 0.2393213563	-0.3411761102	-4.6660133355	 0.106657
H	-0.5021691691	-1.4215291502	-2.6312317504	 0.131955
H	-0.8570362401	 0.2863162853	-2.4567245692	 0.097613
79.9016	105.1305	189.5814	216.5792	256.5634	337.8124	351.4778	454.1854	473.9605	521.1908	646.7775	680.4408	767.1252	773.6037	795.1546	835.1577	866.4202	904.3323	956.5848	962.8444	983.1078	1036.0637	1053.3016	1066.0234	1087.0478	1103.8691	1144.1153	1181.6709	1214.7866	1262.5086	1274.9382	1280.817	1336.5152	1347.334	1359.5344	1384.0135	1401.0832	1408.1733	1456.4839	1474.6785	1482.2807	1485.6203	1499.711	1507.0281	1716.4992	3011.0002	3022.0883	3032.4512	3036.4288	3063.6839	3065.4731	3074.7646	3097.3245	3105.8469	3110.4229	3128.9709	3162.6588
CCC1=CC2OC2CC1	CCC1=C[C@H]2O[C@H]2CC1	
InChI=1S/C8H12O/c1-2-6-3-4-7-8(5-6)9-7/h5,7-8H,2-4H2,1H3	InChI=1S/C8H12O/c1-2-6-3-4-7-8(5-6)9-7/h5,7-8H,2-4H2,1H3/t7-,8+/m0/s1
