16
gdb 54619	4.21735	1.03514	0.84294	9.819	88.77	-0.1341	-0.0456	0.0886	1293.9095	0.125094	-434.092954	-434.084441	-434.083497	-434.125733	33.331	
N	 0.0213752083	 1.2888793614	 0.2969625385	-0.535293
C	-0.0433047516	-0.0258473123	-0.0202219192	 0.300654
N	 1.1473930454	-0.6245321539	-0.3215579235	-0.548232
H	 1.9634160318	-0.3444048969	 0.2042608923	 0.261091
H	 1.1045849141	-1.6001455564	-0.5690941818	 0.268881
C	-1.271621267	-0.689914799	-0.0591718984	 0.30108
C	-2.5873608055	-0.1293409279	-0.1362745969	-0.527273
C	-3.543367033	-1.1644540959	-0.0508507743	 0.398776
O	-4.764280404	-1.2630104783	-0.0860654563	-0.456782
N	-2.6973976041	-2.3676961543	 0.1145968049	-0.301219
C	-1.392484582	-2.0887796653	 0.1019941737	-0.150894
H	-0.6370232508	-2.8249666906	 0.3360871758	 0.115836
H	 0.7686793215	 1.8609828031	-0.0604792597	 0.267162
H	-0.85087927	 1.7446923985	 0.5122286114	 0.286276
H	-2.836113229	 0.8909055548	-0.3840293748	 0.066472
H	-3.109132954	-3.2777771769	 0.2536475584	 0.253467
110.7315	120.1479	173.1967	294.4254	340.9832	385.0906	424.9051	440.7787	504.6476	513.057	541.4449	573.4526	585.8539	605.3079	649.9968	681.9423	700.7563	704.6325	738.5027	831.0828	948.6769	1054.4345	1093.9017	1098.4428	1147.0057	1202.5365	1289.3746	1361.1431	1423.9251	1493.0548	1513.4468	1603.1741	1634.717	1674.2725	1793.4864	3225.6804	3240.6367	3555.5827	3593.8012	3638.5628	3687.6964	3715.2749
NC(=[NH2+])C1=CC(=O)N[CH-]1	NC(=[NH2])C1=CNC(=O)[CH]1	
InChI=1S/C5H6N3O/c6-5(7)3-1-4(9)8-2-3/h1-2H,(H3,6,7)(H,8,9)/q-1/p+1	InChI=1S/C5H7N3O/c6-5(7)3-1-4(9)8-2-3/h1-2H,6-7H2,(H,8,9)
