19
gdb 120825	2.34006	1.01448	0.77323	3.7073	74.27	-0.256	0.0018	0.2578	1501.2284	0.156275	-460.153719	-460.143877	-460.142933	-460.189836	34.208	
C	 0.1350826206	 1.5584162551	 0.5568391562	-0.386463
C	-0.0682646369	 0.0557106131	 0.6190155126	-0.04131
O	 1.1698317936	-0.5416956031	 1.005301975	-0.242692
C	 1.1159360059	-1.9194900769	 1.0858616428	 0.110236
C	 2.077341655	-2.5542216887	 2.0474815802	-0.357998
C	 0.5945776756	-2.5617123477	 2.3502995128	 0.051585
O	 0.0803504564	-1.6807656822	 3.3238872396	-0.179528
C	 0.4020315631	-1.9351934637	 4.6126587626	 0.175707
O	-0.0284204966	-1.2883192712	 5.5179566967	-0.270314
H	 0.9170416904	 1.8130971072	-0.1642176922	 0.125611
H	-0.792399129	 2.0530802787	 0.2537746473	 0.117558
H	 0.4298443751	 1.9442827335	 1.5364899701	 0.134933
H	-0.847779263	-0.2062025359	 1.3460356697	 0.115177
H	-0.3765969085	-0.3375006379	-0.3630913599	 0.086287
H	 0.8930458315	-2.4346114697	 0.149731826	 0.092159
H	 2.5628104703	-3.487887058	 1.7883943677	 0.126527
H	 2.6814538378	-1.8548860221	 2.6147522592	 0.144593
H	 0.0428321113	-3.4948366869	 2.2767383727	 0.111881
H	 1.0937897374	-2.7914028238	 4.7173152709	 0.086052
46.0567	75.4485	93.6655	135.1821	170.879	181.3085	245.3181	281.6385	378.7655	412.0005	484.7658	588.158	684.0894	790.8341	810.0737	823.3472	869.3807	947.2971	1028.8169	1043.4703	1051.1931	1074.8342	1084.77	1126.4746	1145.259	1149.4727	1173.5786	1185.881	1197.826	1260.8361	1298.7005	1362.4331	1385.9703	1405.1627	1420.9622	1437.1638	1478.2204	1483.2017	1500.2296	1525.3045	1869.5666	2971.8853	2976.4635	3041.921	3046.6663	3084.8788	3121.055	3125.2	3140.5002	3144.7799	3236.1253
CCOC1CC1OC=O	CCO[C@H]1C[C@H]1OC=O	
InChI=1S/C6H10O3/c1-2-8-5-3-6(5)9-4-7/h4-6H,2-3H2,1H3	InChI=1S/C6H10O3/c1-2-8-5-3-6(5)9-4-7/h4-6H,2-3H2,1H3/t5-,6+/m0/s1
