17
gdb 76602	2.98296	1.09179	1.0397	3.3249	79.64	-0.2473	-0.0669	0.1804	1230.085	0.133155	-421.792499	-421.783274	-421.782329	-421.826571	34.099	
C	-0.1933512423	 1.514919444	-0.0090891981	-0.421756
C	 0.0201120884	 0.0206735566	 0.0538808641	-0.062129
C	 1.3223050264	-0.623664007	-0.2498790071	 0.1264
O	 2.4615231575	 0.087860553	-0.5497789927	-0.414887
C	 0.7880827922	-0.6689484539	 1.2154580844	-0.235619
C	 1.5342060588	 0.1146421807	 2.2064943586	 0.267042
O	 2.1903882428	 1.1180122403	 1.929613419	-0.374807
C	 1.4951906463	-0.3798580489	 3.5689910495	 0.24476
C	 1.4516858215	-0.7925365524	 4.6989036972	-0.379594
H	 0.6808684985	 2.0714625365	 0.3290901392	 0.149052
H	-0.4078797486	 1.8107189797	-1.0413319949	 0.127233
H	-1.043868743	 1.8128130841	 0.6117710865	 0.122626
H	-0.8504965048	-0.5656555971	-0.2302397138	 0.10192
H	 1.3129879202	-1.580463699	-0.7639013191	 0.115209
H	 2.6012150856	 0.7377363284	 0.1636688036	 0.312771
H	 0.3746496471	-1.6013737841	 1.5800554368	 0.105699
H	 1.4248130335	-1.145241291	 5.7013610369	 0.21608
60.0578	139.741	154.5205	178.0338	202.9046	261.0084	275.8036	375.2937	419.1262	521.3034	577.3633	604.2231	628.7632	646.0241	670.5322	700.1805	795.1297	806.1635	857.2225	919.2899	955.905	1016.744	1082.1134	1087.6713	1134.5567	1145.6931	1176.0111	1254.958	1359.6158	1388.7711	1402.655	1421.7437	1474.2313	1500.969	1505.1659	1684.0303	2214.572	3044.1419	3102.3268	3131.2032	3150.788	3157.1302	3185.8274	3494.725	3584.2061
CC1C(O)C1C(=O)C#C	C[C@H]1[C@@H](O)[C@H]1C(=O)C#C	
InChI=1S/C7H8O2/c1-3-5(8)6-4(2)7(6)9/h1,4,6-7,9H,2H3	InChI=1S/C7H8O2/c1-3-5(8)6-4(2)7(6)9/h1,4,6-7,9H,2H3/t4-,6-,7-/m1/s1
