16
gdb 75756	2.71593	1.25115	1.12708	2.7534	70.06	-0.2717	-0.052	0.2197	1120.5524	0.121828	-437.903058	-437.893883	-437.892939	-437.936932	33.052	
C	 0.3255570107	 1.3777777436	-0.0112362646	-0.441543
C	-0.0719896864	-0.1018760193	-0.0290445774	 0.06659
C	 0.8122356989	-0.9688731654	-0.9989043707	-0.36993
C	 1.6820635658	-1.2877634822	 0.2226423057	 0.337733
O	 2.852214718	-1.4697419917	 0.3964250281	-0.292026
C	 0.5653348738	-0.9073516458	 1.1990630392	 0.03466
O	 0.8888943221	-0.2612539977	 2.3807890529	-0.411175
C	-1.507940797	-0.2765413312	-0.1804619005	 0.240016
N	-2.6483294865	-0.4287140586	-0.2980776423	-0.336996
H	 1.4138520907	 1.4777832027	 0.0528156778	 0.126548
H	-0.0104049238	 1.8803754034	-0.9214556473	 0.143603
H	-0.1129888225	 1.8803283279	 0.8533286051	 0.156058
H	 0.2857096316	-1.8477609295	-1.3791726287	 0.156298
H	 1.3004163815	-0.4480876669	-1.8239631159	 0.1491
H	-0.0776480725	-1.7702528868	 1.4128500512	 0.136567
H	 1.8281943556	-0.0408259625	 2.3537580675	 0.304497
82.9505	130.5385	161.4324	182.9736	214.1934	231.1476	263.9785	341.1428	394.6012	447.5199	539.0688	572.0618	601.8824	650.9001	763.9466	778.1084	847.5683	891.6431	955.2298	1018.0149	1088.3377	1119.7026	1127.1304	1192.5445	1198.5038	1223.8478	1276.4568	1332.8184	1410.2391	1415.2717	1447.5043	1488.3419	1494.4327	1888.3123	2351.3735	3041.1103	3046.249	3079.2971	3118.4485	3139.4588	3143.5338	3784.3951
CC1(CC(=O)C1O)C#N	C[C@]1(CC(=O)[C@H]1O)C#N	
InChI=1S/C6H7NO2/c1-6(3-7)2-4(8)5(6)9/h5,9H,2H2,1H3	InChI=1S/C6H7NO2/c1-6(3-7)2-4(8)5(6)9/h5,9H,2H2,1H3/t5-,6+/m1/s1
