20
gdb 99484	2.52182	1.03736	0.7686	2.0154	80.29	-0.2651	-0.0326	0.2325	1522.0366	0.167963	-403.194736	-403.184013	-403.183069	-403.231921	37.101	
C	 0.1049169391	 1.5744488698	 0.2307615724	-0.403715
C	 0.1778378005	 0.0477323648	 0.1942298718	-0.172479
C	 0.6098764649	-0.5114049606	-1.1782235874	-0.249064
C	 1.9644757462	-0.0927181142	-1.5380869081	 0.281698
N	 3.0406904732	 0.2373945285	-1.8025223887	-0.335665
C	 0.4239091761	-2.0565274445	-1.2729159296	 0.380843
O	-0.3451443602	-2.6067296943	-0.5256338793	-0.288842
C	 1.1929947502	-2.7864199097	-2.3557088872	-0.289608
C	 0.7883954289	-4.2509846589	-2.5030042185	-0.384866
H	 1.0757699402	 2.0299462898	 0.0120754192	 0.141261
H	-0.6171608326	 1.9565054566	-0.4995497421	 0.117858
H	-0.2105345497	 1.9173631578	 1.2201427948	 0.125407
H	 0.8751255261	-0.319339561	 0.954678411	 0.12122
H	-0.7926963021	-0.3981324333	 0.423286145	 0.133233
H	-0.061938429	-0.1042781578	-1.9507570934	 0.14917
H	 1.0691348849	-2.2328049203	-3.2965942053	 0.130097
H	 2.2611041832	-2.6885205566	-2.1195270156	 0.156412
H	 0.9316068139	-4.7901136362	-1.5636690673	 0.137934
H	-0.2667441285	-4.3425134791	-2.7741553985	 0.130388
H	 1.3878302846	-4.7361838706	-3.2775722032	 0.118719
25.2332	69.8872	94.1572	133.4211	159.7988	184.5587	212.918	270.7336	275.35	329.3082	387.3196	466.7112	517.371	567.3691	680.5536	733.0909	778.8607	832.3101	880.9559	959.2272	995.22	1027.8027	1046.7814	1091.6702	1118.3241	1134.4516	1147.4287	1235.0494	1264.8488	1289.4382	1332.9136	1362.1627	1375.5564	1415.5722	1420.0584	1443.7031	1488.1332	1493.0989	1497.8467	1499.5131	1507.7423	1819.3304	2350.2672	2995.3031	3026.5381	3035.6803	3052.5882	3054.4389	3059.1045	3096.467	3112.335	3122.4031	3124.8813	3131.6182
CCC(C#N)C(=O)CC	CC[C@@H](C#N)C(=O)CC	
InChI=1S/C7H11NO/c1-3-6(5-8)7(9)4-2/h6H,3-4H2,1-2H3	InChI=1S/C7H11NO/c1-3-6(5-8)7(9)4-2/h6H,3-4H2,1-2H3/t6-/m0/s1
