20
gdb 40293	2.64412	1.55278	1.19011	2.5271	74.82	-0.2493	0.0693	0.3186	1093.1099	0.173225	-440.250228	-440.242122	-440.241178	-440.283269	31.211	
C	-0.0300454815	 1.521296727	-0.0451404851	-0.293217
N	 1.2381679997	 0.7846199797	 0.0683068527	-0.341192
C	-0.0248588367	 0.0343028078	 0.0136877631	 0.348547
C	-0.3893517022	-0.6980714143	 1.2948993978	-0.324315
C	 0.6004732554	-1.8107558023	 1.6706279055	-0.050342
O	 1.0787130217	-2.624274222	 0.6010942361	-0.23852
C	 0.2458585059	-2.8650520786	-0.491418077	 0.017155
O	 0.3505533445	-1.8854053211	-1.4961531401	-0.230693
C	-0.39127364	-0.7002855082	-1.264967122	-0.163933
H	-0.3069234395	 2.0967476519	 0.8342866504	 0.116503
H	-0.279807047	 1.9985057316	-0.9900734665	 0.11042
H	 1.7145464276	 0.7403996114	-0.8293778125	 0.237086
H	-0.4118091661	 0.003828268	 2.1352601296	 0.109101
H	-1.4066194683	-1.0959241835	 1.1989416752	 0.10249
H	 1.5000957825	-1.3553439642	 2.0931927571	 0.128871
H	 0.1480924419	-2.4477279219	 2.4454205658	 0.090657
H	 0.6056855062	-3.7900823082	-0.9488480215	 0.115574
H	-0.8081376633	-2.9889561399	-0.1862057474	 0.074337
H	-1.4705469461	-0.9298709676	-1.2485068324	 0.091908
H	-0.1992168448	-0.0631212559	-2.1344022486	 0.099563
51.3897	145.6444	165.1895	289.181	305.843	347.1979	404.3605	435.1443	466.0903	566.0149	628.6788	736.3714	820.716	858.0114	897.8413	912.5915	951.7235	966.37	970.8416	1019.8321	1022.7215	1072.5663	1092.132	1098.6463	1128.7303	1148.8168	1207.7007	1235.4066	1259.4214	1269.6354	1281.4507	1337.4547	1339.4128	1371.9495	1391.3456	1410.9878	1431.4519	1443.9624	1476.9966	1485.7462	1502.2258	1512.6002	1517.6066	2947.0778	2960.4805	2992.8956	3036.2453	3071.1167	3074.0163	3094.9027	3098.2934	3101.3821	3184.4384	3498.2172
C1NC11CCOCOC1	C1N[C@]21CCOCOC2	
InChI=1S/C6H11NO2/c1-2-8-5-9-4-6(1)3-7-6/h7H,1-5H2	InChI=1S/C6H11NO2/c1-2-8-5-9-4-6(1)3-7-6/h7H,1-5H2/t6-/m0/s1
