23
gdb 118818	2.41527	0.88669	0.74331	3.4805	88.59	-0.2419	-0.0158	0.2262	1642.2982	0.203331	-388.302279	-388.291685	-388.290741	-388.338319	38.613	
C	-0.0011887238	 1.6006948505	 0.1298287078	-0.381891
C	 0.0027281271	 0.0717463432	 0.2140630531	-0.168753
C	-1.32577181	-0.5455392644	-0.2506669839	-0.254604
C	-1.3923000484	-2.061730902	-0.1004715719	 0.341053
C	-0.3676377578	-2.8362366752	-0.9131624235	-0.456915
C	-1.8118609825	-2.6367576606	 1.2131328274	-0.331783
C	-2.760797535	-2.7556911137	 0.0225717315	-0.148395
C	-4.0429119136	-2.0201031077	 0.0380463966	 0.155057
O	-5.0502071759	-2.4041355764	-0.5069508004	-0.273518
H	 0.9538693626	 2.0196239762	 0.4611773248	 0.113873
H	-0.1752002456	 1.9405382028	-0.8971462211	 0.116959
H	-0.7896290995	 2.0314427505	 0.7570395847	 0.115341
H	 0.8290451038	-0.3199019099	-0.3900743027	 0.101923
H	 0.2027547661	-0.2415970523	 1.2468059765	 0.099047
H	-2.1358847383	-0.0787315368	 0.3195750305	 0.096167
H	-1.5012677905	-0.2787428094	-1.3019566706	 0.10173
H	 0.6524464144	-2.598836165	-0.5950958421	 0.125463
H	-0.5051630795	-3.9154259775	-0.7992013509	 0.11884
H	-0.4510594852	-2.5978149028	-1.979415877	 0.12325
H	-1.3539330925	-3.5533062711	 1.5689394446	 0.121929
H	-2.1053035246	-1.9491465884	 2.0013423584	 0.118471
H	-2.8406347282	-3.7257151466	-0.4573100026	 0.101556
H	-4.0402496929	-1.0681809635	 0.6166146709	 0.065198
69.3759	82.5257	93.121	129.674	196.4303	235.093	243.6795	257.7202	320.6053	365.589	391.9616	402.8791	439.8954	553.1464	717.5197	747.5151	832.0516	868.6973	875.5578	900.4124	937.9603	966.3669	1019.8979	1034.0304	1049.3764	1054.0354	1075.8231	1103.667	1117.4649	1139.0429	1190.6275	1238.2595	1287.1902	1305.0645	1331.4737	1332.1657	1381.1416	1394.1261	1413.3619	1420.4581	1451.1904	1478.201	1485.1886	1494.0081	1497.0659	1499.4524	1505.4725	1511.4836	1808.9399	2863.2917	3014.0481	3026.8302	3030.8345	3032.6344	3053.8915	3074.6656	3097.2707	3099.061	3104.0362	3107.9695	3123.3504	3167.7593	3210.3621
CCCC1(C)CC1C=O	CCC[C@@]1(C)C[C@H]1C=O	
InChI=1S/C8H14O/c1-3-4-8(2)5-7(8)6-9/h6-7H,3-5H2,1-2H3	InChI=1S/C8H14O/c1-3-4-8(2)5-7(8)6-9/h6-7H,3-5H2,1-2H3/t7-,8-/m0/s1
