17
gdb 65407	3.73416	0.8449	0.77893	3.6689	78.35	-0.2991	0.009	0.3082	1449.0521	0.135194	-380.892165	-380.882876	-380.881932	-380.926868	33.133	
C	 0.0555631844	 1.5301732789	-0.1651361414	-0.462817
C	 0.0058931478	 0.0188633376	 0.0112166157	 0.124341
C	 1.2949965269	-0.7949601492	-0.0242516456	-0.302261
C	 0.5383909122	-0.6765099386	 1.2644367629	-0.023811
C	 1.0753729086	 0.1210146755	 2.4438644741	-0.378558
C	 1.9939800269	-0.6772339627	 3.2579208293	 0.269635
N	 2.7166028528	-1.3175127246	 3.8921384615	-0.295217
C	-1.1604038455	-0.5961456605	-0.5779745622	 0.245826
N	-2.1013587427	-1.0766308829	-1.0491693321	-0.336964
H	 0.9863494236	 1.946003069	 0.2269539948	 0.126598
H	 0.0019661038	 1.7860444838	-1.2269313994	 0.14994
H	-0.7829689969	 2.0169366404	 0.3416128514	 0.143785
H	 1.2925950546	-1.7468649052	-0.540603971	 0.149479
H	 2.2089820257	-0.2206794548	-0.1354299344	 0.13403
H	-0.0198522879	-1.557701556	 1.5628433355	 0.135468
H	 1.6075588502	 1.0171199285	 2.1112176076	 0.154779
H	 0.2519049256	 0.4613682907	 3.0824538232	 0.165747
48.0146	100.4754	140.2594	177.6637	196.7865	242.161	307.1519	382.8555	387.2437	416.7003	493.8747	573.3361	604.0679	677.3959	839.029	869.9032	878.827	932.6362	949.7041	977.2574	1041.3733	1081.6179	1111.6703	1118.6513	1161.2519	1237.5459	1278.6457	1301.5366	1325.9655	1420.7444	1423.5571	1461.8278	1488.2055	1490.0452	1503.4381	2351.484	2366.0515	3046.1435	3050.211	3093.6579	3116.8932	3128.1189	3142.4564	3170.8083	3235.9026
CC1(CC1CC#N)C#N	C[C@]1(C[C@H]1CC#N)C#N	
InChI=1S/C7H8N2/c1-7(5-9)4-6(7)2-3-8/h6H,2,4H2,1H3	InChI=1S/C7H8N2/c1-7(5-9)4-6(7)2-3-8/h6H,2,4H2,1H3/t6-,7+/m1/s1
