18
gdb 90819	3.42501	1.78863	1.59741	1.3791	72.37	-0.2471	0.0729	0.32	894.862	0.150179	-401.893782	-401.887259	-401.886315	-401.92449	27.004	
C	-0.1528853087	 1.5665965393	-0.0528599476	-0.397983
C	-0.0084748101	 0.0519982356	-0.0013855409	 0.122967
O	 0.697776934	-0.4221661791	-1.1759585785	-0.294114
C	 1.8115296144	-1.169836055	-0.7340356141	 0.105841
C	 2.9058329909	-0.3944953302	 0.0043708761	-0.074645
C	 2.2435571662	 0.04223518	 1.2703283399	-0.053097
C	 0.8105392715	-0.4940392346	 1.1768499855	-0.077302
C	 1.5179505862	-1.7668743092	 0.6573166509	-0.042986
N	 2.8910010588	-1.3087561969	 1.2022946208	-0.181666
H	 0.8274902981	 2.0516799191	-0.0299330785	 0.123267
H	-0.6605027715	 1.8674553985	-0.9732507746	 0.128624
H	-0.7430367644	 1.9269439804	 0.7967632886	 0.112187
H	-1.0071732653	-0.4092199674	-0.0104347965	 0.076656
H	 2.1478663477	-1.8361274331	-1.5275964869	 0.090004
H	 3.8237910033	 0.040889095	-0.371492088	 0.096236
H	 2.6398558	 0.8283805463	 1.9013764594	 0.099166
H	 0.2799212037	-0.5709231066	 2.1253125757	 0.081987
H	 1.1616519953	-2.7795899621	 0.8273519486	 0.084857
130.247	218.0288	255.7544	412.9157	475.3371	504.2526	651.5507	680.0759	785.1523	798.018	819.4491	830.1994	846.7248	879.7179	893.4019	923.2238	954.2565	961.1839	1010.4571	1028.7098	1040.9516	1051.9226	1073.488	1097.2884	1136.1012	1140.8869	1167.914	1206.2247	1224.3917	1243.8527	1286.8023	1305.8214	1345.0567	1359.7266	1369.6553	1385.7502	1404.4489	1484.7447	1496.6024	2990.2759	3037.2689	3108.5074	3120.113	3123.3681	3127.9378	3153.2173	3184.0452	3195.8087
CC1OC2C3C4C1C2N34	C[C@H]1O[C@H]2[C@H]3[C@H]4[C@@H]1[C@@H]2N34	
InChI=1S/C7H9NO/c1-2-3-4-6-7(9-2)5(3)8(4)6/h2-7H,1H3	InChI=1S/C7H9NO/c1-2-3-4-6-7(9-2)5(3)8(4)6/h2-7H,1H3/t2-,3-,4-,5+,6-,7-,8?/m1/s1
