18
gdb 65463	3.07609	0.94579	0.89952	1.5591	76.91	-0.2539	-0.0329	0.221	1365.046	0.14453	-439.079999	-439.070231	-439.069287	-439.115609	34.075	
C	 0.3825859947	 1.6265394247	 0.1374478727	-0.494398
C	 0.0784115875	 0.1458437328	 0.0683526098	 0.179318
C	 1.190702631	-0.8482749397	-0.2726432545	-0.349196
C	 0.6895123005	-0.8121185001	 1.1143150629	 0.105411
O	 1.5491126339	-0.282456219	 2.0798050945	-0.18378
C	 1.0110729885	-0.0563402523	 3.3036150511	 0.128917
N	 1.7122476769	 0.4833620516	 4.19974269	-0.434424
C	-1.2870073193	-0.254165597	-0.358730173	 0.091299
O	-1.6393683868	-1.398758735	-0.5333316693	-0.27432
H	 1.3331437527	 1.806327005	 0.6432875626	 0.152298
H	 0.4416660574	 2.0648407605	-0.8642754186	 0.129768
H	-0.3948199759	 2.1638857899	 0.6923217875	 0.124351
H	 0.9086422503	-1.696654367	-0.8855418463	 0.146524
H	 2.1716070136	-0.4232413703	-0.4525933088	 0.139589
H	 0.0461494889	-1.6190279051	 1.4560647141	 0.129045
H	-0.0295911808	-0.3949017719	 3.3900225758	 0.096946
H	 1.1759262162	 0.5651194796	 5.0609717684	 0.235125
H	-2.0002584194	 0.5899367636	-0.4921758789	 0.077526
55.2636	84.0533	88.5689	144.1593	156.6227	222.1572	252.1131	308.112	337.8459	439.8833	475.121	593.0554	647.2939	736.7684	772.4971	827.0981	889.5953	931.259	959.3921	1028.0849	1044.3085	1051.3912	1075.4895	1091.1547	1113.4406	1147.8429	1206.1415	1270.8504	1284.4773	1305.441	1391.4926	1419.8931	1422.3226	1430.4315	1464.6184	1496.5534	1498.9599	1750.592	1797.2052	2881.4796	3035.0661	3037.0869	3092.8848	3134.0439	3141.6346	3145.3817	3240.9223	3521.2555
CC1(CC1OC=N)C=O	C[C@]1(C[C@H]1O[CH][NH])C=O	
InChI=1S/C6H9NO2/c1-6(3-8)2-5(6)9-4-7/h3-5,7H,2H2,1H3	InChI=1S/C6H9NO2/c1-6(3-8)2-5(6)9-4-7/h3-5,7H,2H2,1H3/t5-,6+/m1/s1
