18
gdb 92821	2.86783	1.76695	1.3016	1.1708	76.3	-0.2322	-0.0056	0.2267	993.6752	0.151052	-398.154604	-398.147266	-398.146322	-398.186182	28.991	
C	-0.0137417302	 1.5877958007	-0.0735441061	-0.391883
C	-0.00611194	 0.0589491073	-0.0068452181	-0.03284
C	 0.944375065	-0.5800784595	-1.0860603919	-0.174061
N	 2.301924898	-0.6601521626	-0.4786717284	-0.312874
C	 2.0825877954	-0.6151512362	 0.7693697452	 0.394173
N	 2.8891007245	-0.4153496413	 1.8811641491	-0.387867
C	 2.0368990133	 0.2089911367	 2.8152308771	 0.050667
N	 0.7857110459	 0.2302969535	 2.5451589809	-0.256087
C	 0.6665452869	-0.4986036716	 1.2684712719	-0.047624
H	 1.0026846147	 1.9926138723	-0.0287935821	 0.120644
H	-0.4676517292	 1.9270071577	-1.0099818683	 0.112665
H	-0.5800465409	 2.0131366857	 0.7592641795	 0.132104
H	-1.0274013196	-0.3170670153	-0.1155754492	 0.0744
H	 0.5995818778	-1.5842879507	-1.3686445494	 0.104052
H	 0.9930028288	 0.0155977344	-2.0030352003	 0.106795
H	 3.8675220172	-0.1811090045	 1.8050342469	 0.264156
H	 2.4720095281	 0.6233628591	 3.719375096	 0.135699
H	 0.2490920445	-1.4919956856	 1.4925825274	 0.10788
119.0319	186.1215	229.8668	286.0611	330.1324	392.299	464.0365	551.6453	607.4985	667.6122	685.542	762.9437	805.9512	871.5675	888.9001	926.6043	938.8506	946.1701	991.3199	1028.826	1049.2176	1077.9192	1091.6112	1139.9797	1192.4349	1232.6757	1260.5097	1302.5542	1309.67	1318.4807	1351.1918	1368.1655	1382.3934	1410.5379	1491.3822	1497.4311	1500.0222	1648.3397	1770.374	2991.1722	3013.0809	3038.1031	3066.5432	3075.6544	3105.6806	3118.4923	3193.3134	3626.1179
CC1CN=C2NC=NC12	C[C@H]1C[N][C]2N[CH][N][C@@H]12	
InChI=1S/C6H9N3/c1-4-2-7-6-5(4)8-3-9-6/h3-5H,2H2,1H3,(H,7,8,9)	InChI=1S/C6H9N3/c1-4-2-7-6-5(4)8-3-9-6/h3-5H,2H2,1H3,(H,7,8,9)/t4-,5-/m0/s1
