19
gdb 90510	4.64925	0.90524	0.88977	4.7516	80.31	-0.2571	0.0279	0.285	1366.9243	0.159205	-382.034361	-382.02574	-382.024795	-382.068291	32.242	
C	 0.0775317084	 1.4498412653	-0.2720958882	-0.412674
C	 0.0192070629	-0.0554678271	-0.0390463733	 0.004824
C	 1.0869239488	-0.8751398872	-0.8373322827	-0.271534
C	 1.7500499424	-1.2737966612	 0.4925910676	-0.03132
C	 0.7093156527	-0.4986107354	 1.27149298	-0.049686
N	 0.8451772566	-1.9331065273	 1.4120257284	-0.084226
C	-0.1910946968	-2.8601034231	 0.9726429025	-0.290279
C	 0.372722741	-4.1998186796	 0.7782065568	 0.281651
N	 0.8102207018	-5.2545484589	 0.6052493974	-0.303787
H	 1.0985029444	 1.8279905923	-0.1484114197	 0.120785
H	-0.2553970132	 1.7039810832	-1.2835366509	 0.121887
H	-0.5641935157	 1.9836167728	 0.4373538669	 0.119562
H	-1.0156517057	-0.4002840067	-0.1489483244	 0.07271
H	 0.7375663975	-1.6931134066	-1.4751834261	 0.107876
H	 1.7280928297	-0.2244340484	-1.4364231469	 0.113183
H	 2.8137474304	-1.3879022683	 0.6679652742	 0.105359
H	 0.8101774417	 0.1104871189	 2.1647126039	 0.098643
H	-0.9539997001	-2.9137676267	 1.7574129481	 0.156959
H	-0.7070632067	-2.5779372359	 0.0435673863	 0.140067
37.2079	103.994	184.4897	234.1204	255.0411	276.1138	361.2389	384.1602	449.6991	534.2089	575.5505	728.6508	756.778	837.6959	859.3427	885.1876	921.1741	946.3348	962.3492	982.2758	1024.4794	1033.1	1060.3917	1082.7183	1112.2212	1128.2509	1195.5387	1230.2362	1243.6911	1260.1631	1275.6712	1284.9168	1349.6021	1368.5983	1389.8506	1410.4507	1470.2424	1494.1115	1495.8826	1499.7305	2368.0914	3006.8347	3027.7475	3028.8429	3054.3466	3066.5111	3094.8839	3101.7643	3109.8174	3157.9062	3180.5268
CC1CC2C1N2CC#N	C[C@H]1C[C@H]2[C@@H]1N2CC#N	
InChI=1S/C7H10N2/c1-5-4-6-7(5)9(6)3-2-8/h5-7H,3-4H2,1H3	InChI=1S/C7H10N2/c1-5-4-6-7(5)9(6)3-2-8/h5-7H,3-4H2,1H3/t5-,6-,7+,9?/m0/s1
