20
gdb 86266	1.76451	1.65351	1.14489	5.7906	79.62	-0.2414	0.0298	0.2713	1185.6964	0.171003	-399.322888	-399.31285	-399.311906	-399.357447	37.13	
C	-0.68692073	 1.0253211978	-1.3193551925	-0.410707
C	 0.2562814202	-0.0957050149	-0.9136649867	 0.014864
C	 1.76262028	-0.0256835108	-1.2865281648	-0.290379
C	 2.1051330525	-0.6901282305	 0.0774173558	 0.013799
N	 3.2220282104	-0.2688430245	 0.8905501305	-0.521523
C	 0.6725513603	-0.2529883425	 0.5943747799	 0.108201
N	 0.6289629229	 0.997449956	 1.342902461	-0.547327
C	-0.0456745524	-1.2840545002	 1.3447975007	 0.273757
N	-0.5846953877	-2.140067715	 1.9050683257	-0.349647
H	-0.3246400015	 2.0083597156	-1.0030798001	 0.112398
H	-0.7943976042	 1.049131884	-2.4089760936	 0.121184
H	-1.680611385	 0.8836442843	-0.8842565949	 0.138818
H	-0.1528604819	-1.0536398708	-1.2474989066	 0.099552
H	 2.0869103768	-0.5340231635	-2.1972739178	 0.106447
H	 2.1209241498	 1.0102756111	-1.3263400225	 0.090575
H	 2.133639318	-1.7780672415	-0.0227673336	 0.100245
H	 4.0323629307	-0.858544096	 0.744284738	 0.240072
H	 3.5000805316	 0.6825529707	 0.677466709	 0.225448
H	 1.2470489343	 0.9138664114	 2.1469847669	 0.247683
H	 0.9920182752	 1.7566376094	 0.7749949654	 0.22654
100.338	113.8958	123.8415	175.8072	197.5642	219.3076	240.122	293.4136	335.1137	388.8836	466.5033	504.7912	542.2467	582.4359	592.1994	703.4821	788.0988	833.5544	865.7964	900.9835	925.8554	952.782	1016.3528	1039.7857	1062.3898	1106.1666	1150.9784	1169.1992	1189.3507	1236.8282	1253.2744	1276.6402	1292.1063	1335.9522	1380.7515	1413.5161	1431.8635	1489.4191	1491.88	1494.549	1653.7853	1661.1794	2349.4742	3034.8066	3038.1216	3065.6506	3080.3443	3101.9849	3108.7066	3113.6129	3484.8783	3519.654	3569.672	3601.5421
CC1CC(N)C1(N)C#N	C[C@H]1C[C@@H](N)[C@]1(N)C#N	
InChI=1S/C6H11N3/c1-4-2-5(8)6(4,9)3-7/h4-5H,2,8-9H2,1H3	InChI=1S/C6H11N3/c1-4-2-5(8)6(4,9)3-7/h4-5H,2,8-9H2,1H3/t4-,5+,6-/m0/s1
