15
gdb 27062	3.44447	1.13738	0.85963	2.5386	72.49	-0.2237	-0.0075	0.2162	1275.8782	0.112507	-453.975833	-453.967392	-453.966447	-454.010806	29.123	
C	 0.099621295	 1.5073587789	 0.0187497534	-0.503486
C	-0.0468316517	 0.0345588827	 0.0463076623	 0.212024
C	-1.0987391053	-0.8243235417	 0.0096118873	 0.307582
O	-2.4008485219	-0.4505156609	-0.0706832439	-0.225967
C	-3.3722145386	-1.4076904141	-0.0979430922	 0.10059
N	-4.5720663851	-1.0318143413	-0.1725927846	-0.436723
N	-0.6662517168	-2.1332996379	 0.0647300042	-0.343261
C	 0.622608075	-2.0225657825	 0.1323691841	 0.076856
O	 1.0791886084	-0.7582672805	 0.1268210862	-0.171692
H	 0.6877054112	 1.8409606828	-0.843574402	 0.143646
H	-0.8926111404	 1.9590657965	-0.0465766361	 0.159936
H	 0.5909279323	 1.8837652818	 0.9230001112	 0.14364
H	-2.9765731373	-2.4229356981	-0.0499540672	 0.143409
H	-5.184084163	-1.8455572287	-0.1842507478	 0.235073
H	 1.3548688683	-2.8119078972	 0.191275475	 0.158372
18.3824	103.0703	133.8658	154.3074	227.1901	280.9589	338.8951	470.7211	508.9709	641.4492	672.0198	724.7908	820.5535	830.9974	832.1141	956.9608	968.5052	1050.7415	1060.094	1068.4959	1143.0035	1179.6655	1229.6414	1283.1874	1326.6022	1386.4486	1406.0103	1430.9165	1474.9601	1488.5937	1554.0567	1694.5096	1749.5073	3031.2562	3082.8276	3130.1536	3134.4179	3278.5096	3517.398
CC1=C(OC=N)N=CO1	Cc1c(O[CH][NH])nco1	
InChI=1S/C5H6N2O2/c1-4-5(8-2-6)7-3-9-4/h2-3,6H,1H3	InChI=1S/C5H6N2O2/c1-4-5(8-2-6)7-3-9-4/h2-3,6H,1H3
