19
gdb 11284	4.54087	1.24755	1.06286	4.3003	75.72	-0.3071	0.0381	0.3452	1133.947	0.167206	-327.968826	-327.96073	-327.959786	-328.002383	30.036	
C	-0.1351399824	 1.5252048572	-0.0093119481	-0.411534
C	 0.0592085209	 0.0103131298	-0.0034622851	 0.059214
C	 0.8857959602	-0.5438279794	-1.177173036	-0.213884
C	 1.2370332181	-1.9663299387	-0.7275165887	-0.223504
C	 1.5843467957	-1.7955484693	 0.7814277814	-0.130005
C	 0.7970104982	-0.522046194	 1.2494511235	-0.23386
C	 1.2898779841	-2.9866415357	 1.5715277713	 0.259413
N	 1.0452545826	-3.9302966809	 2.1935835461	-0.331042
H	 0.8301100235	 2.0442849286	 0.021076924	 0.114077
H	-0.6630779395	 1.85378469	-0.9105442764	 0.117202
H	-0.7183622678	 1.8566796604	 0.856143735	 0.119028
H	-0.9290078079	-0.4674211914	-0.0437677422	 0.081095
H	 0.3459656122	-0.5213903529	-2.1281870486	 0.10319
H	 1.7995174445	 0.0526101591	-1.3047958368	 0.097457
H	 0.3645076935	-2.6190564779	-0.8315143848	 0.12324
H	 2.057458135	-2.4232233058	-1.2855225641	 0.112475
H	 2.6584192386	-1.6058405641	 0.8778914205	 0.123897
H	 1.5060972881	 0.2245253436	 1.6207292726	 0.108582
H	 0.1109014424	-0.7463889387	 2.0685939663	 0.124961
19.6885	151.716	188.3886	238.9804	262.3546	306.9886	409.5779	482.6726	539.2199	557.4579	605.271	784.1983	818.684	866.2415	915.9871	929.256	967.97	980.9901	1021.7715	1034.5857	1073.0595	1107.1298	1159.2326	1171.9582	1217.9758	1257.9391	1293.4736	1298.9572	1321.4086	1324.8638	1352.3649	1363.7652	1387.6804	1413.4218	1488.7262	1492.1083	1496.813	1500.0284	1505.5377	2353.3449	3008.5212	3021.908	3027.6921	3046.7501	3057.7513	3061.1322	3089.0813	3094.4	3100.0639	3111.4598	3114.547
CC1CCC(C1)C#N	C[C@H]1CC[C@@H](C1)C#N	
InChI=1S/C7H11N/c1-6-2-3-7(4-6)5-8/h6-7H,2-4H2,1H3	InChI=1S/C7H11N/c1-6-2-3-7(4-6)5-8/h6-7H,2-4H2,1H3/t6-,7-/m0/s1
