20
gdb 114371	6.219	0.77267	0.73294	3.8581	82.65	-0.2393	0.0046	0.2439	1577.2805	0.170092	-403.127411	-403.118405	-403.117461	-403.161466	33.176	
C	 0.0224729161	 1.4427257521	 0.2504351129	-0.38256
C	-0.0699642006	-0.0554605639	-0.0543065181	-0.199298
C	 0.6647131186	-0.4530185869	-1.3315377057	 0.020585
C	 2.2382753465	-0.4410438379	-1.2220374676	-0.265621
C	 2.2455519944	-1.9541101932	-1.472733683	-0.025322
C	 0.7406813253	-1.9707263099	-1.5787785993	-0.075262
N	 1.589291334	-2.1825207965	-2.7475926579	-0.07916
C	 1.6744725732	-3.3751772116	-3.4412412408	 0.133185
O	 2.6813303471	-4.0266001429	-3.5873592924	-0.296455
H	 1.0627049809	 1.7636557211	 0.3700911629	 0.121345
H	-0.4155277017	 2.0367342821	-0.5589417382	 0.119186
H	-0.5096299344	 1.6913619875	 1.1734211502	 0.116718
H	 0.3314678807	-0.6323261805	 0.789983789	 0.097299
H	-1.125008743	-0.3454099875	-0.1469899585	 0.098414
H	 0.2680024009	 0.1016376486	-2.1879757052	 0.082138
H	 2.7883935162	 0.1582801697	-1.9504290358	 0.114711
H	 2.5704173523	-0.1843208219	-0.2131019153	 0.11023
H	 2.9226536876	-2.7065055794	-1.0888367711	 0.121918
H	 0.0363927296	-2.7365763334	-1.271058807	 0.106676
H	 0.7127424964	-3.6300546956	-3.927599039	 0.081273
71.9915	103.5641	149.8703	168.7681	215.699	251.4774	294.4696	328.9444	438.9869	453.0028	666.5892	734.4737	767.5538	806.9895	835.5434	862.972	923.1712	946.2822	956.3841	990.3687	1007.7364	1033.7541	1043.7278	1075.2167	1105.0064	1132.8219	1158.272	1197.5441	1228.2876	1245.1345	1263.5591	1285.6448	1298.2658	1336.8997	1387.5128	1414.7049	1417.3107	1422.6687	1473.4444	1491.0763	1500.6758	1507.5082	1792.2026	2945.4373	3012.0004	3034.4224	3039.6461	3060.5133	3067.6418	3101.2178	3107.506	3125.0307	3174.3771	3207.7611
CCC1CC2C1N2C=O	CC[C@H]1C[C@H]2[C@@H]1N2C=O	
InChI=1S/C7H11NO/c1-2-5-3-6-7(5)8(6)4-9/h4-7H,2-3H2,1H3	InChI=1S/C7H11NO/c1-2-5-3-6-7(5)8(6)4-9/h4-7H,2-3H2,1H3/t5-,6-,7+,8?/m0/s1
