15
gdb 81212	3.35277	1.37463	1.29529	1.394	66.86	-0.2549	-0.0461	0.2088	990.4888	0.110622	-457.622606	-457.615464	-457.61452	-457.65406	28.493	
O	 0.0028091983	 1.439737458	-0.1050861821	-0.444781
C	 0.1015793741	 0.0659342802	-0.001536631	 0.156464
C	 0.0499084007	-0.5804503934	 1.3916809148	-0.049498
O	-1.4130844915	-0.1343048997	 1.4749846387	-0.400214
C	-1.2225621965	-0.7728089978	 0.1297581049	 0.31901
C	-1.8143990115	-1.6049097456	-1.0078098828	-0.441987
C	-0.5184059872	-2.5048778051	-0.7232646721	 0.340406
O	 0.0934513802	-3.2788832627	-1.383065543	-0.258024
C	-0.4510753381	-1.9134669221	 0.7381421402	-0.152906
H	-0.6846955246	 1.6943003245	 0.5285402685	 0.29132
H	 0.8638136205	-0.2922556275	-0.6967366483	 0.113479
H	 0.6259188948	-0.4040386261	 2.302234178	 0.109952
H	-2.7156475273	-2.1646707885	-0.7389434898	 0.150757
H	-1.921707597	-1.1640404372	-2.0007641566	 0.14379
H	-1.0481336348	-2.525592117	 1.4193209805	 0.122232
105.4693	223.8333	258.0767	321.699	403.4744	437.3773	485.1255	566.2514	583.4279	623.2542	666.4776	705.0671	760.028	817.9817	865.2427	881.5901	917.7309	965.2903	983.3927	1019.9872	1062.8026	1110.8276	1149.956	1164.5213	1172.0222	1195.9862	1210.9918	1264.3949	1287.4923	1315.3455	1449.4647	1459.0297	1900.4405	3063.0455	3085.8577	3101.5869	3108.8542	3132.2393	3731.7157
OC1C2OC11CC(=O)C21	O[C@H]1[C@H]2O[C@]31CC(=O)[C@@H]23	
InChI=1S/C6H6O3/c7-2-1-6-3(2)4(9-6)5(6)8/h3-5,8H,1H2	InChI=1S/C6H6O3/c7-2-1-6-3(2)4(9-6)5(6)8/h3-5,8H,1H2/t3-,4-,5-,6+/m0/s1
