19
gdb 7362	3.4974	1.00729	0.92476	2.3657	68.23	-0.2427	0.0333	0.2761	1305.9645	0.163639	-402.233111	-402.222852	-402.221908	-402.269722	35.215	
C	 0.2902308249	 1.8374669654	-0.0458216807	-0.39059
C	 0.0473286661	 0.3247715844	 0.0619178842	-0.095978
C	 0.5312898833	-0.4589789747	-1.1781542473	-0.189145
C	-0.2142379646	-0.1298527879	-2.4735572169	-0.072636
O	 0.1588509031	-0.9899452093	-3.539456968	-0.417195
C	 0.8033118308	-0.2181255226	 1.2795511388	 0.414326
N	 0.0737982788	-1.0058446843	 2.1217671463	-0.526303
O	 1.9805342441	 0.0227768493	 1.4706170268	-0.376882
H	 1.362503417	 2.0346818021	-0.123223411	 0.142961
H	-0.2144770262	 2.2650963229	-0.9157434193	 0.113863
H	-0.0803814248	 2.3563283643	 0.8437164366	 0.117888
H	-1.0283078593	 0.1408425234	 0.1891970872	 0.063835
H	 1.6052200588	-0.2710751915	-1.3057893155	 0.110821
H	 0.4200316093	-1.5351593104	-0.9985699986	 0.105841
H	-1.2911637551	-0.2835287289	-2.3363939431	 0.106357
H	-0.0717461849	 0.9250234815	-2.750753692	 0.09276
H	 1.0948922638	-0.8495085121	-3.7148342275	 0.282043
H	-0.8902343696	-1.2301538191	 1.9527211311	 0.258106
H	 0.5422018546	-1.4303454426	 2.9058161989	 0.259929
19.9158	77.1316	107.5572	129.5051	139.9548	219.623	252.9242	298.473	312.226	328.4476	389.2577	515.4506	594.4633	620.2965	776.0151	782.7139	803.5266	911.6596	965.689	1021.4409	1043.4727	1076.0013	1089.8656	1123.7447	1140.4499	1206.7503	1262.832	1310.0149	1314.659	1349.2403	1398.3785	1402.8336	1407.2949	1422.1625	1486.9551	1494.5119	1506.1182	1515.6252	1615.2984	1792.5876	2993.7422	3008.1306	3026.0922	3045.7049	3052.1923	3077.1505	3111.765	3130.9508	3601.7321	3741.5403	3814.9576
CC(CCO)C(N)=O	C[C@@H](CCO)C(=O)N	
InChI=1S/C5H11NO2/c1-4(2-3-7)5(6)8/h4,7H,2-3H2,1H3,(H2,6,8)	InChI=1S/C5H11NO2/c1-4(2-3-7)5(6)8/h4,7H,2-3H2,1H3,(H2,6,8)/t4-/m0/s1
