19
gdb 105036	2.30409	1.32112	1.15719	1.8975	72.07	-0.2513	-0.0351	0.2161	1172.0009	0.155974	-460.140604	-460.130849	-460.129904	-460.175586	35.269	
C	 0.6891614542	-0.6073416966	 1.3576039486	-0.248511
O	 0.0417465408	-0.2388634258	 0.1439504504	-0.298088
C	-1.2394895428	-0.766910903	-0.0468230589	 0.422985
C	-1.5128509617	-1.2478807238	-1.4460807709	-0.320612
C	-1.3783436155	-2.2426152732	-0.313315913	-0.328122
C	-2.344078907	-0.0315328036	 0.6953179965	-0.012771
O	-2.323510294	-0.2729543292	 2.0786259003	-0.439836
C	-2.229243854	 1.46212626	 0.4297116597	 0.147798
O	-2.2244901927	 2.2633423428	 1.3319123592	-0.26856
H	 1.702055849	-0.2022617512	 1.2977704681	 0.123043
H	 0.1779447723	-0.1993149723	 2.2335792306	 0.127578
H	 0.7448829612	-1.6987283659	 1.4635055857	 0.108802
H	-2.4923939626	-1.0797681833	-1.8804062337	 0.113503
H	-0.684801105	-1.1693438645	-2.1400337148	 0.129641
H	-0.4700928977	-2.8328419642	-0.2803706518	 0.125698
H	-2.2642911028	-2.7525542951	 0.0476257611	 0.126062
H	-3.3102256761	-0.3512189799	 0.2607333104	 0.088959
H	-2.3606171685	 0.6055856856	 2.4917873097	 0.294679
H	-2.165118057	 1.7694207732	-0.6317739972	 0.107753
51.9444	96.715	116.6219	181.9963	206.7562	244.0716	278.1383	292.3833	334.2513	385.718	474.3117	513.6248	570.8592	716.0345	766.055	789.494	846.5501	901.0044	940.806	952.1275	992.3996	1032.8831	1053.2923	1079.0463	1098.1136	1151.6851	1182.6406	1190.0724	1220.0624	1228.5679	1290.409	1307.0838	1367.6235	1389.6301	1439.4096	1455.8012	1475.7403	1485.3718	1495.5692	1512.156	1815.8171	2929.5346	2958.3163	3017.1872	3093.1807	3128.5161	3138.4261	3143.0935	3223.9279	3237.1017	3672.7104
COC1(CC1)C(O)C=O	COC1(CC1)[C@@H](O)C=O	
InChI=1S/C6H10O3/c1-9-6(2-3-6)5(8)4-7/h4-5,8H,2-3H2,1H3	InChI=1S/C6H10O3/c1-9-6(2-3-6)5(8)4-7/h4-5,8H,2-3H2,1H3/t5-/m0/s1
