18
gdb 98773	4.09688	1.08046	0.95548	2.2581	72.1	-0.2194	0.0091	0.2285	1262.8418	0.147399	-439.057936	-439.049213	-439.048269	-439.092548	31.417	
C	-0.3635984469	 1.3799805976	 0.7501311615	-0.238979
O	-0.4240779447	-0.0469992507	 0.6345310896	-0.235132
C	-0.8045873921	-0.5134259668	-0.571500045	 0.46968
O	-1.0380749708	 0.1889114508	-1.5214285767	-0.361643
C	-0.9005482597	-2.0302139438	-0.5308773488	-0.11562
N	-2.125527299	-2.5291274115	 0.2011859919	-0.335427
C	-2.4302412871	-3.3969399661	-0.9654203059	-0.010836
C	-2.7588991871	-2.519626769	-2.1272005175	-0.258822
C	-1.3089505292	-2.7858571966	-1.7932073638	-0.082003
H	-0.0474143364	 1.5832566673	 1.773338788	 0.131598
H	 0.3539417338	 1.7947831616	 0.037566051	 0.139536
H	-1.3442136669	 1.8227810869	 0.5578824206	 0.142345
H	 0.0203931012	-2.4279208438	-0.0930793662	 0.097242
H	-1.8385041263	-3.0790357509	 1.0042145217	 0.225519
H	-2.7623928181	-4.4208977135	-0.8466806239	 0.095436
H	-3.104288444	-3.0327814766	-3.0189826248	 0.111473
H	-3.1924142341	-1.5397168708	-1.9578096754	 0.130214
H	-0.6183073626	-3.2234815443	-2.5014287662	 0.095418
31.9417	107.8352	120.0749	131.7082	216.1698	296.5019	362.4465	393.9423	466.0204	649.2266	735.1902	752.4771	767.1155	812.5637	850.177	920.7578	951.9824	970.9019	989.9417	996.952	1041.4115	1046.0265	1073.1379	1082.8904	1108.9999	1168.5531	1178.3316	1206.809	1222.0192	1226.4968	1291.1563	1338.8308	1377.099	1402.7359	1472.8878	1481.1597	1485.3082	1496.7124	1825.7889	3051.0498	3056.3787	3125.6249	3129.4735	3157.8948	3185.1508	3198.1588	3221.2454	3525.387
COC(=O)C1NC2CC12	COC(=O)[C@H]1N[C@H]2C[C@@H]12	
InChI=1S/C6H9NO2/c1-9-6(8)5-3-2-4(3)7-5/h3-5,7H,2H2,1H3	InChI=1S/C6H9NO2/c1-9-6(8)5-3-2-4(3)7-5/h3-5,7H,2H2,1H3/t3-,4+,5+/m1/s1
