18
gdb 11052	3.40003	2.34572	1.98592	1.483	70.8	-0.2422	0.0149	0.2571	777.5793	0.15563	-347.813527	-347.806917	-347.805973	-347.843695	27.333	
C	 0.0243854916	 1.498468201	 0.0675201839	-0.488511
C	-0.0220446123	-0.008538681	-0.0119385487	 0.359047
C	 0.6973526066	-0.6787707224	-1.2367217515	-0.240319
C	 0.9912710696	-2.0995013595	-0.6790774649	-0.214303
C	 0.3774724472	-1.974993628	 0.7552039067	 0.010613
O	 0.6959108138	-0.6184201282	 1.0775212195	-0.274965
C	-1.1358253985	-1.916435963	 0.5820797957	-0.082745
C	-1.3830628211	-0.6999235401	 0.0989274501	-0.113727
H	 1.0599439259	 1.850790016	 0.0526394564	 0.124912
H	-0.5016056029	 1.9430403496	-0.7832035758	 0.116871
H	-0.4481737687	 1.8513924536	 0.9884565788	 0.128502
H	 0.0774694972	-0.6798880044	-2.1362542957	 0.096697
H	 1.6226144452	-0.1399950354	-1.4582434099	 0.100676
H	 0.5386335977	-2.9040048812	-1.263169991	 0.097651
H	 2.0657653872	-2.2857023392	-0.6115595195	 0.104069
H	 0.7766223432	-2.6566112263	 1.5055107768	 0.075793
H	-1.8178956901	-2.7450605032	 0.7181442444	 0.100981
H	-2.3181157916	-0.2855803482	-0.2548665153	 0.098759
201.7684	221.9057	291.8572	327.8339	387.8165	486.1469	596.6125	623.4111	707.1726	727.5442	789.0074	829.789	849.0151	868.6434	882.9015	900.9898	921.1013	938.6979	967.4232	1016.568	1028.6613	1091.9895	1110.9708	1141.2223	1195.8308	1200.1274	1237.6867	1257.7469	1289.1898	1318.3501	1335.8723	1354.0594	1415.5905	1478.3221	1484.8889	1495.9347	1500.3104	1645.8301	3041.2811	3058.4815	3070.0931	3103.0874	3113.025	3117.9302	3120.5265	3127.1353	3208.345	3234.9348
CC12CCC(O1)C=C2	C[C@@]12CC[C@@H](O1)C=C2	
InChI=1S/C7H10O/c1-7-4-2-6(8-7)3-5-7/h2,4,6H,3,5H2,1H3	InChI=1S/C7H10O/c1-7-4-2-6(8-7)3-5-7/h2,4,6H,3,5H2,1H3/t6-,7+/m0/s1
