20
gdb 117698	4.34407	0.78533	0.77465	6.0404	76.59	-0.2768	0.0338	0.3106	1539.8976	0.167764	-440.293456	-440.282776	-440.281832	-440.329432	37.904	
C	-0.156317252	 1.3789707857	-0.1144956394	-0.233022
O	-0.075169937	-0.0293873248	-0.0897751283	-0.253878
C	 0.7657186971	-0.565987722	-1.0892977701	-0.090623
C	 0.6405897164	-2.0962851905	-0.9973820244	 0.333866
C	 1.2168723711	-2.6150176337	 0.3267437191	-0.429423
O	-0.7290640825	-2.4467363092	-1.1263035649	-0.465834
C	 1.3499875643	-2.7191205988	-2.2191761253	-0.357688
C	 1.3303879314	-4.1799710246	-2.2156413317	 0.279321
N	 1.3362816842	-5.3351754677	-2.2180396601	-0.31587
H	 0.8260921186	 1.8422272862	 0.060145974	 0.113943
H	-0.5468727252	 1.7448774064	-1.075945701	 0.114242
H	-0.837294565	 1.6794930191	 0.6847471525	 0.135884
H	 0.4384760158	-0.2249883918	-2.0850230615	 0.092887
H	 1.8085003436	-0.2420082841	-0.9397728065	 0.092093
H	 0.727182965	-2.1107947623	 1.1630499999	 0.130623
H	 1.0469394438	-3.6903539774	 0.411945134	 0.150033
H	 2.2930588081	-2.422917822	 0.3965982953	 0.110541
H	-1.2109885282	-1.8583327829	-0.5314511311	 0.290058
H	 0.8542069645	-2.3684713834	-3.1301795881	 0.156501
H	 2.3932949861	-2.386417012	-2.2560190125	 0.146346
55.1005	86.8951	109.4315	121.0594	195.4773	225.2174	248.973	310.3165	326.4103	344.8279	390.3433	405.8838	417.3053	437.0551	475.4568	668.0261	792.338	884.0031	914.9489	943.5492	976.5242	996.7445	1008.8432	1134.6694	1154.5636	1160.8335	1188.6709	1210.7014	1226.4312	1245.5466	1316.5703	1329.3769	1378.7919	1408.932	1425.8179	1451.9679	1478.4156	1486.0592	1491.2284	1499.2326	1500.1761	1521.7507	2365.982	2961.2184	2984.3072	3000.9293	3033.2747	3042.751	3048.8606	3094.1135	3117.0859	3122.9867	3141.4247	3782.464
COCC(C)(O)CC#N	COC[C@@](C)(O)CC#N	
InChI=1S/C6H11NO2/c1-6(8,3-4-7)5-9-2/h8H,3,5H2,1-2H3	InChI=1S/C6H11NO2/c1-6(8,3-4-7)5-9-2/h8H,3,5H2,1-2H3/t6-/m0/s1
