16
gdb 99368	7.442	0.56739	0.53243	5.4801	67.15	-0.2862	0.0007	0.2868	1929.7748	0.121651	-475.05585	-475.045721	-475.044777	-475.093269	33.175	
O	 0.1318797097	 1.2891610182	 0.0073730374	-0.390743
C	-0.044787353	-0.1017245223	 0.0017903706	-0.189274
C	-1.5340430435	-0.4005873376	 0.0146792026	 0.43588
O	-2.4258041856	 0.3984893586	 0.0272031868	-0.320202
O	-1.7163947282	-1.7455453075	 0.0098914476	-0.253805
C	-3.0818874255	-2.177529335	 0.020972832	-0.060725
C	-3.0380301946	-3.707852927	 0.0111907193	-0.346215
C	-4.3785102114	-4.2868265237	 0.0212504685	 0.250354
N	-5.4440294389	-4.7326296191	 0.0292863824	-0.293163
H	 1.0763595246	 1.4690677293	-0.0051591816	 0.297934
H	 0.382466987	-0.5896465435	-0.8887929169	 0.122583
H	 0.3996029751	-0.5988408852	 0.8788447449	 0.122566
H	-3.588249857	-1.7970709795	 0.9122806642	 0.147189
H	-3.6060618419	-1.7862189384	-0.8551970569	 0.147237
H	-2.5019366505	-4.0570558443	-0.8775969708	 0.165187
H	-2.4840381163	-4.0678227231	 0.8845761798	 0.165197
27.8244	55.9146	66.7056	85.8846	168.6644	190.0522	211.3193	296.7027	310.9037	398.6632	447.0385	567.591	587.3477	690.9684	784.8619	899.3738	972.8995	1029.3784	1038.6247	1074.2945	1087.5593	1138.1088	1193.8809	1232.1117	1247.1536	1256.5923	1296.6703	1307.0188	1410.1499	1459.9592	1470.8744	1496.7886	1516.8061	1859.2234	2369.421	2977.0821	3002.7377	3053.4092	3067.5132	3091.3025	3119.8422	3839.5452
OCC(=O)OCCC#N	OCC(=O)OCCC#N	
InChI=1S/C5H7NO3/c6-2-1-3-9-5(8)4-7/h7H,1,3-4H2	InChI=1S/C5H7NO3/c6-2-1-3-9-5(8)4-7/h7H,1,3-4H2
