15
gdb 21311	7.29344	1.10019	0.96762	3.9513	63.28	-0.2536	-0.0074	0.2462	1155.7001	0.118759	-399.77559	-399.767961	-399.767017	-399.808789	26.166	
C	-0.2711430488	 1.3992644173	 0.3235503216	-0.226354
O	-0.3242540711	-0.0003057227	 0.4758264443	-0.234084
C	 0.9484508171	-0.5824199692	 0.6356436961	-0.183743
C	 0.7788860295	-2.0587469557	 0.7881111305	 0.128206
C	-0.3745083644	-2.7764491382	 0.7834754813	 0.014091
O	-0.1193697751	-4.0840426454	 0.9482641457	-0.166477
N	 1.2519167715	-4.2651851278	 1.069412167	-0.132869
C	 1.7688643699	-3.0651204714	 0.9734388758	-0.053094
H	 0.3090875682	 1.6904321427	-0.5659099435	 0.109386
H	-1.2980363217	 1.7525600795	 0.2075418689	 0.133386
H	 0.1772207413	 1.8878651754	 1.2026552145	 0.109386
H	 1.5904949294	-0.3547373444	-0.233931876	 0.10451
H	 1.4600449698	-0.158797141	 1.5182779429	 0.104517
H	-1.40918334	-2.4966490816	 0.676048041	 0.163655
H	 2.8423739844	-2.9524936275	 1.03983962	 0.129486
43.9719	79.8133	137.2731	219.6803	272.0176	352.4927	403.0666	610.0841	653.019	750.5682	848.8339	905.4052	907.0487	940.8554	994.8998	1030.5986	1052.0877	1143.2233	1162.7305	1184.8527	1199.0754	1228.5881	1254.163	1279.93	1352.6294	1445.6896	1477.4034	1483.4075	1484.7828	1502.2483	1526.4682	1660.7473	2940.5045	2956.2115	2975.0807	3020.3712	3121.9995	3238.005	3289.1911
COCC1=CON=C1	COCc1conc1	
InChI=1S/C5H7NO2/c1-7-3-5-2-6-8-4-5/h2,4H,3H2,1H3	InChI=1S/C5H7NO2/c1-7-3-5-2-6-8-4-5/h2,4H,3H2,1H3
