22
gdb 59442	2.69894	1.10822	0.97998	1.6201	84.95	-0.2261	-0.0235	0.2025	1359.2191	0.191124	-404.348307	-404.33782	-404.336876	-404.38399	38.18	
C	 0.4581121419	 1.600547502	-0.2153504772	-0.384365
C	 0.898647122	 0.1624880443	-0.4999802175	 0.070714
C	 2.3075870271	 0.107781726	-1.0901616629	-0.387333
N	 0.8940950707	-0.5613504562	 0.7829201171	-0.081525
C	-0.3391924037	-1.1273997444	 1.2637633211	-0.241676
C	 0.7790986335	-2.0333433144	 0.8300799361	-0.113308
C	 0.5750162269	-2.8720505989	-0.3988374778	 0.387835
C	 1.3692080473	-4.164319889	-0.4427379493	-0.489293
O	-0.1711884525	-2.5481095117	-1.3005010903	-0.321877
H	 1.135233248	 2.0780788025	 0.5000761462	 0.119491
H	 0.4555344958	 2.1875059087	-1.1388352051	 0.112509
H	-0.5528253781	 1.626849829	 0.2033054458	 0.113225
H	 0.1980697154	-0.290261443	-1.2127072314	 0.10567
H	 3.0355661252	 0.5299468539	-0.3897379	 0.119096
H	 2.6063189904	-0.921617774	-1.3123744033	 0.107939
H	 2.3531335457	 0.6754773655	-2.0243926438	 0.114368
H	-0.5463011424	-1.0157224775	 2.3253220082	 0.116712
H	-1.2060156087	-1.1125388939	 0.604682194	 0.132919
H	 1.4132635497	-2.4849359967	 1.5894735198	 0.089869
H	 1.1442257288	-4.7788163761	 0.4368112397	 0.141428
H	 1.1293392303	-4.7171582738	-1.3512735946	 0.142346
H	 2.4438675068	-3.9502436523	-0.4104469049	 0.145256
55.2012	71.7034	140.2162	153.3532	199.1831	212.2146	235.6255	264.5702	326.8115	335.9013	364.4147	473.5344	489.9009	596.5787	651.8458	706.3236	777.8404	877.4225	904.5825	935.7512	955.0298	962.8994	988.4922	1008.7745	1048.1616	1087.6144	1124.4995	1138.3652	1151.3405	1183.3594	1192.4041	1197.6137	1324.719	1371.9058	1375.7255	1380.1309	1399.3351	1400.2695	1417.2463	1462.6792	1473.4614	1483.5554	1485.7426	1491.4616	1496.1218	1508.5975	1785.8846	3032.5245	3033.1324	3033.5774	3038.2107	3090.8244	3092.1331	3103.5129	3107.708	3108.9014	3116.0977	3130.5283	3155.4322	3182.6211
CC(C)N1CC1C(C)=O	CC(C)N1C[C@H]1C(=O)C	
InChI=1S/C7H13NO/c1-5(2)8-4-7(8)6(3)9/h5,7H,4H2,1-3H3	InChI=1S/C7H13NO/c1-5(2)8-4-7(8)6(3)9/h5,7H,4H2,1-3H3/t7-,8?/m0/s1
