22
gdb 103843	3.56798	0.89145	0.87132	1.6543	83.7	-0.2289	0.0728	0.3017	1459.9693	0.192503	-404.299468	-404.289567	-404.288623	-404.334368	37.222	
C	-0.0721764888	 1.6732945604	-0.1559769859	-0.467446
C	-0.0429848816	 0.1641760649	-0.0152024364	 0.293157
C	-1.3515566074	-0.5212072713	-0.3771046237	-0.116848
O	-1.7395138973	-0.2846381253	-1.72347784	-0.414156
C	 1.2350664851	-0.5835739567	-0.246222607	-0.304002
N	 0.656958897	-0.4946021934	 1.0922088791	-0.119452
C	 1.3443534094	 0.2839541593	 2.0846366806	 0.079808
C	 0.6965903991	 0.3839644991	 3.4394119631	-0.275189
C	 1.9267400144	-0.4714854952	 3.2492891995	-0.278182
H	 0.920229732	 2.1238835088	-0.0900861233	 0.11468
H	-0.5033084647	 1.9314158922	-1.127046258	 0.134887
H	-0.7041843687	 2.1223466294	 0.6189341849	 0.12379
H	-1.2649538055	-1.5937522774	-0.1539937046	 0.094899
H	-2.1652773724	-0.1201929121	 0.2381787757	 0.108057
H	-1.0510794969	-0.6495569795	-2.2896285055	 0.282345
H	 1.23909988	-1.5746222678	-0.6970443689	 0.103791
H	 2.1242604599	 0.0095197308	-0.4563228105	 0.106582
H	 1.9055980656	 1.1542401428	 1.7425031114	 0.07435
H	 0.7871546337	 1.3158947124	 3.9860609892	 0.110299
H	-0.2500932409	-0.1289706663	 3.5626956572	 0.119128
H	 1.7894912083	-1.5463135112	 3.2460713828	 0.12042
H	 2.8679777395	-0.1293253539	 3.6648034504	 0.109081
64.6721	92.5813	122.4452	159.4585	212.2487	261.0337	304.9834	330.0883	375.9142	388.602	393.6308	448.2504	596.1969	702.8195	753.9337	793.57	829.4839	876.6075	918.7782	934.2133	950.5454	970.7037	992.6731	1054.2024	1057.5895	1074.7815	1082.5638	1092.9646	1109.311	1121.7281	1128.4635	1185.631	1196.996	1223.4308	1249.6841	1303.066	1352.6485	1388.5509	1398.6387	1413.4737	1420.1486	1456.384	1485.6826	1494.3549	1501.0853	1505.262	1512.9836	3007.1928	3037.5452	3067.2174	3078.9574	3084.155	3105.3149	3129.3288	3137.9179	3142.2616	3160.8737	3222.6202	3236.197	3806.5323
CC1(CO)CN1C1CC1	C[C@@]1(CO)CN1C1CC1	
InChI=1S/C7H13NO/c1-7(5-9)4-8(7)6-2-3-6/h6,9H,2-5H2,1H3	InChI=1S/C7H13NO/c1-7(5-9)4-8(7)6-2-3-6/h6,9H,2-5H2,1H3/t7-,8?/m0/s1
