23
gdb 62929	2.53829	1.55968	1.48707	1.2426	84.13	-0.2481	0.0696	0.3177	1067.4835	0.207844	-388.299251	-388.290791	-388.289847	-388.331367	34.923	
C	-0.1192551595	 1.486948554	-0.0340209391	-0.473505
C	 0.0106247622	-0.0333150758	-0.0125447028	 0.453211
O	-1.2636069434	-0.624236053	-0.2068506041	-0.476939
C	 1.2082645843	-0.5872074497	-0.8591121261	-0.077611
C	 2.0812461756	-0.4062447933	 0.4177749047	-0.248631
C	 0.7630593934	-0.5972287539	 1.2257914778	-0.051374
C	 0.4464143511	-2.0951468652	 1.38307217	-0.206343
C	 0.9562894269	-2.9030873528	 0.163332847	-0.196957
C	 0.9737661431	-2.0789588107	-1.1483206049	-0.196244
H	 0.8315284618	 1.9909316727	 0.1543410651	 0.121982
H	-0.4782995166	 1.8268966229	-1.0146795008	 0.102381
H	-0.8388315199	 1.8134406101	 0.7237756636	 0.121683
H	-1.6999916317	-0.1684702992	-0.9339825603	 0.274287
H	 1.4854060824	-0.0323304953	-1.7612816288	 0.046396
H	 2.8842619132	-1.1267238833	 0.5876809241	 0.093979
H	 2.4932671775	 0.5999861654	 0.5096976137	 0.094364
H	 0.6425013303	-0.0544402569	 2.168140357	 0.052244
H	 0.9145482486	-2.4774307823	 2.2973285038	 0.08279
H	-0.6338891469	-2.2129118143	 1.502145469	 0.116452
H	 1.976676372	-3.2412945545	 0.3724173113	 0.097727
H	 0.3634377088	-3.8135893201	 0.0338143777	 0.091242
H	 0.0220213429	-2.1848853213	-1.6780936589	 0.095776
H	 1.7565915739	-2.4612402134	-1.8131280689	 0.083089
151.9808	213.7911	228.6555	255.436	271.9788	277.4002	378.5692	424.7467	425.9717	499.9628	546.538	579.1546	673.0639	766.2529	817.3872	830.1975	833.6416	884.6079	905.5517	915.7643	964.9549	967.0111	1009.9381	1046.7789	1071.2733	1082.8384	1102.0056	1109.4141	1127.37	1179.9763	1198.1166	1211.004	1240.7126	1247.6078	1264.8888	1311.5578	1313.0443	1320.668	1356.562	1369.4328	1374.7	1395.7275	1409.0806	1480.8738	1486.6171	1489.8168	1493.5539	1501.2302	1521.6878	3017.951	3029.8512	3034.5754	3044.7721	3051.1609	3057.6523	3068.0218	3076.5325	3083.8429	3086.0987	3098.3473	3118.1223	3126.5819	3810.5096
CC1(O)C2CC1CCC2	C[C@@]1(O)[C@H]2C[C@@H]1CCC2	
InChI=1S/C8H14O/c1-8(9)6-3-2-4-7(8)5-6/h6-7,9H,2-5H2,1H3	InChI=1S/C8H14O/c1-8(9)6-3-2-4-7(8)5-6/h6-7,9H,2-5H2,1H3/t6-,7+,8-
