21
gdb 38858	2.62403	1.91957	1.8204	1.3914	79.82	-0.2293	0.0783	0.3076	912.4456	0.188109	-387.10194	-387.095524	-387.09458	-387.132279	28.019	
C	-0.0652446555	 1.5068805994	 0.0462560609	-0.229068
C	 1.4847137074	 1.4895244773	-0.0284363364	-0.059139
C	 2.0762840306	 1.2065680271	 1.3687411295	-0.213103
C	 1.7886468987	-0.2735813836	 1.7037727249	-0.043465
C	 2.6471345798	-1.132943332	 0.7689934364	-0.0544
O	 2.3372571518	-0.8577240417	-0.5996227494	-0.283449
C	 1.3371299372	 0.1178292824	-0.7603634166	 0.159682
C	-0.0157561625	-0.0435796044	 0.0029764741	-0.059138
C	 0.308544915	-0.599624152	 1.4057481191	-0.213103
H	-0.5178374061	 1.967939591	 0.9295616083	 0.088609
H	-0.5189309274	 1.9324842265	-0.8529942685	 0.094761
H	 1.9897475986	 2.3086585545	-0.5448160919	 0.059316
H	 3.1585438083	 1.3795572078	 1.3778351884	 0.095402
H	 1.6367635385	 1.8810704832	 2.1131822329	 0.090977
H	 2.0501093302	-0.5082371831	 2.7404495442	 0.063121
H	 3.7165015797	-0.9338554441	 0.9302926358	 0.089267
H	 2.4746866909	-2.2026984862	 0.9563009928	 0.089268
H	 1.1942258255	 0.2356497307	-1.8362607644	 0.078767
H	-0.8341316571	-0.5766379901	-0.4856933333	 0.059316
H	 0.1593325333	-1.6848955947	 1.4406192192	 0.095402
H	-0.3599603469	-0.1590901581	 2.1549842738	 0.090977
183.5243	289.5551	367.8353	413.0875	420.8963	492.0294	559.9515	624.5826	714.0378	788.7492	817.6845	823.7401	863.8039	873.2416	919.2425	920.4112	941.5916	957.3482	1004.9287	1013.9077	1048.4042	1066.9732	1085.1293	1095.3959	1100.4327	1134.4252	1145.4099	1194.8331	1203.274	1221.1873	1245.698	1254.1275	1285.4079	1303.8866	1309.8923	1338.3838	1350.1091	1368.9512	1369.7707	1385.7452	1422.2781	1486.8457	1492.0301	1505.6705	1529.0622	2986.6714	3016.2584	3023.4693	3024.7233	3044.4204	3058.3554	3062.4565	3064.3146	3078.5036	3079.8136	3095.6751	3102.016
C1C2CC3COC2C1C3	C1[C@H]2C[C@@H]3CO[C@H]2[C@H]1C3	
InChI=1S/C8H12O/c1-5-2-7-3-6(1)8(7)9-4-5/h5-8H,1-4H2	InChI=1S/C8H12O/c1-5-2-7-3-6(1)8(7)9-4-5/h5-8H,1-4H2/t5-,6+,7-,8+
