18
gdb 6923	4.72629	1.01347	0.96131	2.6529	69.37	-0.2456	-0.0195	0.226	1234.4079	0.150497	-384.934681	-384.925568	-384.924623	-384.969053	32.739	
C	 0.019177726	 1.5746697573	-0.1411846643	-0.448394
C	 0.0065807303	 0.0697410291	 0.0019677136	 0.388356
O	-1.1775285623	-0.5307637346	-0.4642467859	-0.465062
C	 1.2793343055	-0.7344861515	-0.1389739027	-0.348062
C	 0.56983665	-0.6358458341	 1.2027187617	-0.039454
C	 1.1992833631	 0.0826306905	 2.3818549143	-0.314961
C	 2.1311686547	-0.8339016622	 3.1491537139	 0.173177
O	 3.2708013758	-0.5740232232	 3.4352454315	-0.238694
H	 0.9404304968	 2.0175150833	 0.2450014039	 0.122195
H	-0.0590213675	 1.8551823477	-1.1987703559	 0.110861
H	-0.8305067208	 2.0183836779	 0.38753301	 0.127981
H	-1.2139310836	-0.4057310564	-1.4195077203	 0.28024
H	 1.2205296655	-1.677649664	-0.6703326483	 0.115326
H	 2.2161876126	-0.1984813473	-0.257486123	 0.116574
H	-0.0033357038	-1.5190166445	 1.4727567094	 0.103322
H	 1.767917147	 0.9663617057	 2.0820912885	 0.120415
H	 0.4121919917	 0.4083761534	 3.0787941217	 0.12403
H	 1.6742895689	-1.8082222571	 3.4434218718	 0.072151
47.7678	63.4877	149.4566	208.8524	225.3127	282.1358	309.013	373.9664	399.8306	426.7549	508.9119	530.165	703.1345	762.3471	853.0265	886.6426	922.0474	929.8409	993.5017	1037.3252	1045.4094	1077.8648	1093.5273	1120.6998	1167.4237	1219.6613	1248.0144	1286.1916	1299.4675	1359.5787	1414.9085	1421.1497	1428.9442	1459.937	1481.6573	1488.399	1511.1466	1836.7787	2855.2411	3003.9825	3028.6971	3090.023	3103.5905	3123.5528	3128.1942	3145.4367	3220.0734	3787.5815
CC1(O)CC1CC=O	C[C@@]1(O)C[C@H]1CC=O	
InChI=1S/C6H10O2/c1-6(8)4-5(6)2-3-7/h3,5,8H,2,4H2,1H3	InChI=1S/C6H10O2/c1-6(8)4-5(6)2-3-7/h3,5,8H,2,4H2,1H3/t5-,6-/m1/s1
