18
gdb 111255	2.91219	1.23711	0.97407	2.7641	73.21	-0.2451	-0.0275	0.2175	1228.8163	0.146065	-439.054366	-439.045268	-439.044324	-439.088491	33.16	
C	 0.2332276949	 1.5183079592	 0.4831108491	-0.496869
C	-0.0251419224	 0.0659606593	 0.2249788424	 0.21146
C	-0.9157627438	-0.8038308903	 1.0472890766	-0.288918
N	 0.5191315398	-1.1014863146	 1.0603101996	-0.180915
C	 0.796721068	-1.8863944667	-0.2073278625	-0.09723
C	 0.2507094135	-3.3010643691	-0.2812796253	-0.086664
O	 0.890119517	-4.1474487647	 0.6571601352	-0.414052
C	 0.284030845	-0.6892440189	-1.0412396111	 0.33537
O	 0.3379290759	-0.3864085575	-2.1979856584	-0.308614
H	 1.2230584095	 1.8129633775	 0.122161254	 0.138734
H	-0.5108312124	 2.1314247044	-0.035895734	 0.142513
H	 0.1734577483	 1.7381882523	 1.5524170745	 0.135785
H	-1.2762676966	-0.3715982903	 1.9763546425	 0.135366
H	-1.6146270823	-1.4871413714	 0.5721027962	 0.127108
H	 1.8855744244	-1.9323801244	-0.3308690466	 0.127712
H	-0.842131358	-3.3165779426	-0.1539915935	 0.092258
H	 0.4640181183	-3.7111648001	-1.2735597731	 0.131876
H	 0.816870521	-3.7262049221	 1.5209545243	 0.29508
73.4871	108.8464	135.2411	155.2233	222.3923	285.2007	314.7642	347.2292	371.4176	484.9455	565.5376	638.7294	641.78	715.0325	785.294	823.3512	864.219	945.8985	989.3191	1034.6124	1058.0515	1075.0291	1083.7286	1105.5927	1130.2413	1153.6841	1213.5972	1227.7406	1284.2471	1316.092	1359.4351	1391.7027	1415.1883	1422.6151	1480.29	1489.4512	1496.1086	1512.9799	1886.9762	2992.1136	3041.1469	3050.1643	3083.1837	3108.6067	3112.5706	3121.7415	3197.6293	3802.5493
CC12CN1C(CO)C2=O	C[C@]12CN1[C@@H](CO)C2=O	
InChI=1S/C6H9NO2/c1-6-3-7(6)4(2-8)5(6)9/h4,8H,2-3H2,1H3	InChI=1S/C6H9NO2/c1-6-3-7(6)4(2-8)5(6)9/h4,8H,2-3H2,1H3/t4-,6+,7?/m0/s1
