16
gdb 46946	2.64098	2.10585	1.56184	3.2489	67.53	-0.248	-0.0166	0.2314	868.9641	0.126245	-437.859554	-437.852923	-437.851979	-437.890595	26.316	
O	-0.2112406637	 0.4808018306	 1.047773486	-0.309562
C	-0.135709381	 1.3251295314	 0.1934928255	 0.336165
C	-1.315983742	 1.8260804525	-0.6363220642	-0.159681
O	-1.4563134888	 3.247494362	-0.5651798509	-0.26833
C	-0.2564095974	 3.9422398276	-0.3056088966	 0.105547
C	 0.3411212847	 3.886863561	 1.1577566873	-0.283517
C	 1.5470734046	 3.1251038404	 0.5918639121	-0.044137
C	 1.0188683514	 3.2559808144	-0.8128961179	-0.106806
N	 1.0803607746	 1.9599144918	-0.1511132176	-0.097742
H	-1.1646199091	 1.514514703	-1.6812586859	 0.120401
H	-2.2385291466	 1.3794409215	-0.2629770718	 0.139445
H	-0.4083905285	 4.9636910041	-0.656942276	 0.101045
H	 0.5985114802	 4.8861544874	 1.5157047308	 0.114052
H	-0.249287744	 3.3703624854	 1.9186287407	 0.129167
H	 2.5701299996	 3.1366741008	 0.9447047939	 0.116053
H	 1.5344086559	 3.3853071361	-1.7569733654	 0.107901
117.8636	153.8378	342.4046	358.6658	421.7375	506.1428	553.5593	616.0457	690.2511	732.2729	819.4655	850.6504	870.1485	902.6787	920.7808	967.0984	986.3307	1017.8066	1027.5166	1037.832	1087.2614	1122.0249	1140.7512	1195.1314	1202.0492	1236.8283	1239.8705	1277.7297	1296.6888	1350.6988	1367.4348	1387.7066	1483.181	1492.0396	1833.1307	2991.7543	3068.2738	3104.771	3124.9199	3126.5931	3186.6147	3206.636
O=C1COC2CC3C2N13	O=C1CO[C@H]2C[C@@H]3[C@H]2N13	
InChI=1S/C6H7NO2/c8-5-2-9-4-1-3-6(4)7(3)5/h3-4,6H,1-2H2	InChI=1S/C6H7NO2/c8-5-2-9-4-1-3-6(4)7(3)5/h3-4,6H,1-2H2/t3-,4+,6-,7?/m1/s1
