13
gdb 26805	3.71476	1.14239	0.87678	5.1936	72.8	-0.2123	-0.0361	0.1762	1206.4813	0.090953	-448.973077	-448.964905	-448.963961	-449.005952	29.569	
N	 0.1882731275	 1.4315943623	-0.0946708115	-0.620112
C	 0.0200265517	 0.0429516937	-0.0459320942	 0.212451
C	-1.0846287687	-0.7928099606	-0.0756562045	 0.296316
O	-2.3695317417	-0.3791373953	-0.1191737145	-0.443998
N	-0.7293028064	-2.0950767328	-0.0723565175	-0.372574
C	 0.6011139291	-2.0954477458	-0.0336513884	 0.236766
N	 1.0905019729	-0.8198782164	-0.0268581814	-0.316223
C	 1.4433874693	-3.2294133766	 0.0128345621	 0.236954
N	 2.1665435102	-4.1346451818	 0.0478086621	-0.344443
H	 0.3076996844	 1.8483407206	 0.8245863045	 0.255996
H	-0.6139009432	 1.8706311123	-0.5315751735	 0.264293
H	-2.9177400951	-1.171783587	-0.1690142005	 0.309126
H	 2.0595092901	-0.5441382627	-0.0462805727	 0.285447
108.6877	129.7273	149.5555	244.7308	270.5682	344.0831	362.222	447.1407	502.7844	542.1991	562.6296	623.6255	665.6782	695.7478	726.4576	792.5539	849.9705	1033.1289	1147.7957	1162.8351	1222.3387	1313.8738	1366.6045	1433.6458	1477.4041	1541.267	1651.7541	1676.9845	2337.1996	3491.91	3587.9823	3655.5322	3804.9177
NC1=C(O)N=C(N1)C#N	Nc1c(O)nc([nH]1)C#N	
InChI=1S/C4H4N4O/c5-1-2-7-3(6)4(9)8-2/h9H,6H2,(H,7,8)	InChI=1S/C4H4N4O/c5-1-2-7-3(6)4(9)8-2/h9H,6H2,(H,7,8)
