18
gdb 112103	2.39309	1.55936	1.16024	4.4734	74.23	-0.231	-0.0133	0.2177	1113.5183	0.148269	-439.104744	-439.096052	-439.095108	-439.13893	31.563	
C	 0.0677279496	 1.2738331593	-0.2095745477	-0.323574
N	 0.0914153165	-0.1666647289	 0.0375392455	-0.302807
C	 0.7012935505	-0.5398760512	 1.3282292006	-0.143104
C	 0.2575505473	-1.9238645734	 1.7181720068	-0.103196
C	 0.9077799354	-2.9734870922	 1.2306338577	-0.07053
C	 2.1221477805	-2.7799266253	 0.3739421916	-0.106416
O	 2.8384742833	-1.5685015412	 0.6438824494	-0.227164
C	 2.2195490899	-0.4723715875	 1.1336261922	 0.451272
O	 2.8626474126	 0.5161819181	 1.3669684494	-0.339658
H	 1.0915706109	 1.6544489809	-0.2435288561	 0.155002
H	-0.4020552366	 1.4626618025	-1.1788767527	 0.118347
H	-0.4744405136	 1.8475212668	 0.561727395	 0.099009
H	-0.849825752	-0.5427904096	 0.0038694329	 0.219405
H	 0.4657808183	 0.1874542263	 2.1205439764	 0.087196
H	-0.616140413	-2.0278443287	 2.3539892692	 0.105754
H	 0.5959506803	-3.9944933652	 1.4274531229	 0.110797
H	 2.8489506275	-3.5816509397	 0.5369387464	 0.131152
H	 1.8502503326	-2.7925009511	-0.6904194296	 0.138513
36.3376	114.2174	140.3887	187.2814	228.1207	263.6533	364.9778	438.6883	451.553	548.1143	591.5905	695.2062	721.3953	752.6399	823.1678	894.1262	945.6399	977.1381	983.9439	1012.8922	1035.2352	1115.5451	1121.2778	1146.4691	1156.1253	1198.6699	1249.3971	1259.8534	1328.128	1345.4073	1405.4769	1422.9438	1457.3067	1474.722	1490.8275	1493.0054	1519.0488	1729.6783	1837.142	2959.3234	2979.9878	3017.0974	3079.0423	3080.1106	3126.8666	3168.9768	3191.4061	3522.5205
CNC1C=CCOC1=O	CN[C@H]1C=CCOC1=O	
InChI=1S/C6H9NO2/c1-7-5-3-2-4-9-6(5)8/h2-3,5,7H,4H2,1H3	InChI=1S/C6H9NO2/c1-7-5-3-2-4-9-6(5)8/h2-3,5,7H,4H2,1H3/t5-/m0/s1
