17
gdb 60916	3.9078	1.1089	0.87803	3.4649	73.67	-0.2416	-0.0071	0.2345	1280.4089	0.136863	-455.190783	-455.181917	-455.180973	-455.22567	30.358	
C	-0.1344829436	 1.4582162062	-0.0171454653	-0.340866
N	 0.0003899148	 0.0017600032	-0.0180270017	-0.19693
C	 0.0561984713	-0.6902519056	 1.1842821866	 0.15606
O	-0.0009057232	-0.157330757	 2.2669556717	-0.322562
C	 0.0685719627	-0.636166126	-1.2397941633	 0.55731
N	 0.0230962019	-0.047546619	-2.3665043727	-0.368612
C	 0.1277339935	-1.10240025	-3.3799085172	-0.184713
C	 0.2443039772	-2.4225836871	-2.5707147334	-0.113309
O	 0.1928109237	-1.9894298402	-1.1903149934	-0.266524
H	 0.7163551971	 1.9143047095	-0.5275900103	 0.148008
H	-1.0474484126	 1.7509814687	-0.5399207626	 0.14796
H	-0.1710322503	 1.7739335039	 1.0239118928	 0.165932
H	 0.157832786	-1.7737537019	 1.0385769912	 0.125792
H	-0.7538575535	-1.0929097604	-4.0299240892	 0.119699
H	 1.0014141532	-0.9305450174	-4.0178148276	 0.119715
H	-0.583757768	-3.1160683514	-2.7378476882	 0.126536
H	 1.1889344697	-2.9506579356	-2.7236642977	 0.126505
47.6548	74.9158	109.7363	128.4956	199.835	263.3737	324.8461	337.1895	463.8206	488.7304	723.0853	755.7179	805.8221	832.2595	905.2144	952.9524	985.3114	1031.5085	1034.7842	1065.2364	1123.2832	1159.1888	1162.979	1220.1636	1244.6495	1312.694	1345.627	1363.7715	1413.4893	1440.7425	1468.0559	1490.1174	1508.7298	1510.4289	1529.6939	1732.2116	1806.602	3038.0418	3058.4656	3062.5885	3064.8057	3065.4846	3111.9873	3131.0058	3180.7019
CN(C=O)C1=NCCO1	CN(C=O)C1=NCCO1	
InChI=1S/C5H8N2O2/c1-7(4-8)5-6-2-3-9-5/h4H,2-3H2,1H3	InChI=1S/C5H8N2O2/c1-7(4-8)5-6-2-3-9-5/h4H,2-3H2,1H3
