21
gdb 119641	4.36721	1.01139	0.96675	1.1765	82.98	-0.243	0.08	0.323	1320.1242	0.182668	-387.026546	-387.0181	-387.017155	-387.060108	32.322	
C	-0.009112849	 1.3717418342	 0.0303432674	-0.216565
O	 0.0309326869	-0.0335809403	-0.0079492747	-0.238639
C	 0.6551133774	-0.53595833	-1.1728051126	-0.20269
C	 0.6399115644	-2.0350606032	-1.1046187762	 0.342596
C	 1.4647627893	-2.8046270391	-0.0313936133	-0.260822
C	 1.5001218233	-3.9537073642	-1.034830974	-0.062043
C	 0.1410483771	-3.9726589437	-1.7549049109	-0.062039
C	-0.6942275424	-2.8347541394	-1.1752462434	-0.260823
C	 1.2320605515	-3.0267840363	-2.1961359086	-0.150817
H	 1.0013887186	 1.8111635189	 0.0155943174	 0.101709
H	-0.5738239834	 1.7890114173	-0.8190149613	 0.101709
H	-0.5056857607	 1.6611069069	 0.9598813472	 0.125952
H	 0.1235868076	-0.185413034	-2.0756722635	 0.082161
H	 1.6927771437	-0.1635097699	-1.2442778178	 0.082161
H	 2.4565483083	-2.3616703107	 0.1017386809	 0.092032
H	 0.9948921433	-2.9590234974	 0.945995762	 0.09291
H	 2.1338725321	-4.8314413589	-1.0280920855	 0.081636
H	-0.2011973353	-4.8639990556	-2.2652804216	 0.081636
H	-1.2356122116	-2.9901624138	-0.235747014	 0.092912
H	-1.3708171423	-2.4150708926	-1.9260226	 0.092031
H	 1.7316810611	-2.8803572182	-3.1429734073	 0.084992
63.8674	92.5287	122.7706	219.7821	314.1785	338.0647	340.6288	437.764	451.295	693.6346	717.2689	764.0033	780.9983	802.8142	903.2617	907.8471	939.9306	942.0158	980.8283	997.1135	998.3106	1009.9398	1027.9405	1043.3942	1098.1694	1112.7312	1145.7552	1153.8582	1168.4897	1173.4802	1194.7324	1222.647	1243.6472	1245.2415	1267.2403	1313.7837	1327.4408	1368.3069	1424.3673	1479.3546	1483.786	1491.129	1501.8084	1509.2713	1523.1781	2935.0529	2961.2591	2966.6648	3007.8633	3033.0695	3039.9303	3089.7646	3093.3936	3111.4527	3189.3231	3195.8487	3219.8592
COCC12CC3C(C1)C23	COC[C@@]12C[C@H]3[C@@H](C1)[C@@H]23	
InChI=1S/C8H12O/c1-9-4-8-2-5-6(3-8)7(5)8/h5-7H,2-4H2,1H3	InChI=1S/C8H12O/c1-9-4-8-2-5-6(3-8)7(5)8/h5-7H,2-4H2,1H3/t5-,6+,7-,8+
