20
gdb 102443	1.96587	1.36734	0.91293	3.6806	84.27	-0.2408	-0.0228	0.218	1348.0159	0.168367	-403.145982	-403.135405	-403.134461	-403.182137	37.616	
C	-0.1503417734	 1.5786046949	 0.058382641	-0.374964
C	 0.0060171863	 0.0559692724	-0.0014013057	-0.164166
N	 0.7259060453	-0.498926641	 1.1410905403	-0.090038
C	-0.0144546569	-0.7523506918	 2.3781619662	-0.156464
C	-0.5530297612	-2.1829562733	 2.4664867267	-0.377252
C	 2.0550376245	-0.8109732217	 1.1282798803	 0.307986
O	 2.6402203244	-1.2959552717	 2.0858749307	-0.384118
C	 2.7750107827	-0.5263421315	-0.1092458248	 0.188847
C	 3.4572171202	-0.321402949	-1.0787488489	-0.399429
H	 0.8290776278	 2.0648457552	 0.0382532823	 0.133261
H	-0.7293849655	 1.9337385481	-0.8000618988	 0.119255
H	-0.6699598682	 1.8942785902	 0.9683970237	 0.124139
H	-0.9781510922	-0.4251834405	-0.0430345924	 0.110217
H	 0.5351465384	-0.2272613356	-0.913315435	 0.134905
H	 0.6612259457	-0.5604471007	 3.2142415333	 0.141192
H	-0.8331432714	-0.0278889516	 2.430221178	 0.100944
H	-1.2205223662	-2.4135284448	 1.6297327861	 0.114678
H	 0.2751173478	-2.8955454377	 2.4591972558	 0.147528
H	-1.1164458353	-2.3179056324	 3.3952148317	 0.117542
H	 4.0652738875	-0.1453108775	-1.9323596004	 0.205938
61.1334	72.5871	81.8502	125.3412	171.6118	226.3734	242.5519	278.2302	327.4627	339.9612	407.0102	466.6905	549.8658	584.3534	649.079	679.45	709.789	758.1957	782.6112	789.3939	914.9484	951.9977	1029.6878	1088.9331	1101.5606	1118.7557	1167.9029	1251.388	1296.9148	1346.1273	1383.3666	1401.0738	1409.2579	1411.7177	1452.644	1473.2789	1489.6289	1493.7803	1494.7711	1504.8224	1506.0963	1723.0935	2219.5464	3038.7402	3039.8492	3041.2627	3057.3473	3101.1377	3101.9063	3115.2175	3117.8297	3125.558	3134.6319	3496.0481
CCN(CC)C(=O)C#C	CCN(CC)C(=O)C#C	
InChI=1S/C7H11NO/c1-4-7(9)8(5-2)6-3/h1H,5-6H2,2-3H3	InChI=1S/C7H11NO/c1-4-7(9)8(5-2)6-3/h1H,5-6H2,2-3H3
