20
gdb 73820	2.99898	1.54459	1.17146	1.6913	85.96	-0.2038	0.01	0.2139	1119.2978	0.171396	-365.945062	-365.937013	-365.936069	-365.977297	31.621	
C	-0.0172160512	 1.5007826868	 0.0853110432	-0.514233
C	-0.0244598149	 0.0135826723	-0.0111802594	 0.223925
C	-0.0395349601	-0.8192770554	-1.0622433547	 0.223973
C	-0.0549642894	-0.5732256505	-2.5320559381	-0.514238
C	 0.0104018542	-2.1854035989	-0.4015111181	-0.083161
C	-0.8832805705	-2.1701369514	 0.8760363498	-0.064208
C	 0.1896346661	-3.0334291956	 1.5445982604	-0.186899
N	 1.0554529289	-2.0497943941	 0.7525941934	-0.14672
C	 0.0331048251	-0.9426645735	 1.1667999517	-0.083154
H	 0.8843410017	 1.8619325684	 0.5965453389	 0.133514
H	-0.0532757781	 1.9713116454	-0.9011638039	 0.125023
H	-0.8733873558	 1.8710866192	 0.6639617283	 0.126422
H	-0.0777450235	 0.4951615722	-2.7641289657	 0.125029
H	 0.8310037612	-1.003031812	-3.0167231716	 0.133493
H	-0.9276763143	-1.0377560194	-3.0091295639	 0.126436
H	 0.1041811765	-3.0868378593	-1.0109737233	 0.063534
H	-1.9781172762	-2.2288328629	 0.9384007047	 0.057816
H	 0.3180385657	-2.952398229	 2.628106723	 0.094957
H	 0.2975687182	-4.0714107414	 1.2159844765	 0.094955
H	 0.1503935963	-0.5568558909	 2.1817976089	 0.063536
144.5187	174.6695	182.0597	193.0343	245.2741	289.7219	470.9546	478.6267	568.1767	571.1685	624.4495	754.4424	778.1367	818.6007	864.6152	878.3418	917.2469	923.1029	979.282	995.266	1040.9869	1044.342	1066.8203	1098.269	1108.819	1110.6161	1164.8433	1175.0248	1203.7622	1211.712	1218.9461	1245.5811	1260.233	1326.566	1354.557	1412.4271	1420.1223	1478.3347	1479.0838	1487.0613	1490.7677	1527.1104	1735.5563	3012.5665	3014.5387	3015.8942	3045.5691	3058.6571	3058.8783	3095.7982	3100.3055	3103.2923	3106.553	3108.879
CC1=C(C)C2C3CN2C13	CC1=C(C)[C@@H]2[C@H]3CN2[C@@H]13	
InChI=1S/C8H11N/c1-4-5(2)8-6-3-9(8)7(4)6/h6-8H,3H2,1-2H3	InChI=1S/C8H11N/c1-4-5(2)8-6-3-9(8)7(4)6/h6-8H,3H2,1-2H3/t6-,7-,8+
