16
gdb 96907	3.24576	1.17232	0.94974	3.0804	75.55	-0.2586	-0.0442	0.2143	1234.9306	0.122204	-437.857253	-437.848723	-437.847778	-437.891012	30.506	
C	 0.0042411243	 1.380224919	-0.0781952984	-0.343826
N	-0.0670201531	-0.0743682682	-0.1079197017	-0.337635
C	 0.5685346289	-0.7026206289	-0.9756438328	 0.483765
O	 1.3877290145	-0.2417145387	-2.024490145	-0.294412
C	 1.4883137527	-1.5785171838	-2.542387935	 0.359664
C	 2.1694667654	-2.4638330772	-1.5387536747	-0.33212
C	 0.70453343	-2.1449476802	-1.3440112322	-0.266916
C	 1.3170946369	-1.8525239929	-3.9756145233	 0.071927
O	 1.1493360341	-1.0147887119	-4.8237035038	-0.254658
H	 0.5751169966	 1.8160778488	-0.905338693	 0.136809
H	-1.0135144449	 1.7830150056	-0.0956953854	 0.134607
H	 0.4566608078	 1.6933617644	 0.8689095681	 0.133742
H	 2.3717893076	-3.4814708102	-1.8593162599	 0.141552
H	 2.9227176289	-2.0144857359	-0.9001288676	 0.147816
H	-0.0722696571	-2.8952060042	-1.3144027526	 0.139269
H	 1.3591738273	-2.9404469156	-4.2106803627	 0.080416
82.2026	92.4687	137.2141	166.9685	244.2553	256.617	350.1081	425.4885	490.6817	527.6757	653.2754	694.2415	792.7484	817.1032	893.1572	920.059	950.1665	976.7163	1028.483	1039.2808	1066.8582	1072.4143	1097.8328	1133.6542	1166.1466	1246.0467	1268.4321	1358.1881	1436.0111	1440.3791	1472.9909	1491.3205	1498.173	1819.8591	1863.8323	2873.9816	3024.3832	3091.4021	3099.0264	3128.1999	3221.7244	3231.5993
CN=C1OC2(CC12)C=O	CN=C1O[C@]2(C[C@@H]12)C=O	
InChI=1S/C6H7NO2/c1-7-5-4-2-6(4,3-8)9-5/h3-4H,2H2,1H3	InChI=1S/C6H7NO2/c1-7-5-4-2-6(4,3-8)9-5/h3-4H,2H2,1H3/t4-,6+/m0/s1
