21
gdb 94842	3.48333	1.13004	0.98716	2.6116	78.3	-0.2587	0.0714	0.33	1253.6781	0.183628	-424.228369	-424.219947	-424.219003	-424.261094	33.486	
O	-0.1456336865	 1.4459882626	 0.1364451343	-0.441544
C	-0.0002253009	 0.0361283662	 0.031399635	 0.147483
C	 0.7879791194	-0.5517788152	 1.2088729563	-0.230618
C	 0.8575709125	-2.0863515269	 1.1276286963	-0.283253
C	-0.5364308607	-2.6744245344	 1.0137170594	 0.452842
C	-0.8394766269	-3.9997055954	 1.563974339	-0.252526
O	-1.2336951759	-2.8164884081	 2.2657057923	-0.282887
C	-1.365471936	-2.0916248613	-0.1153738712	-0.287811
C	-1.4075981981	-0.5574497379	-0.0260210298	-0.196036
H	 0.7321420916	 1.8293823874	 0.2322934959	 0.277771
H	 0.5266980614	-0.2200629027	-0.9063130458	 0.055606
H	 1.800921113	-0.1294558886	 1.2318737817	 0.079855
H	 0.2909175239	-0.2539668022	 2.1397663138	 0.119401
H	 1.443302586	-2.3861638119	 0.2479096467	 0.09827
H	 1.3598161354	-2.497142015	 2.0083086941	 0.104677
H	-1.6553878948	-4.5871098631	 1.1431721392	 0.108788
H	-0.0506433847	-4.5834527491	 2.0382183377	 0.107927
H	-0.9238940422	-2.3972022227	-1.0738261857	 0.09782
H	-2.3774417551	-2.5052123876	-0.0779867281	 0.105158
H	-1.9443755089	-0.2557820195	 0.881143098	 0.118071
H	-1.9483539026	-0.1331239645	-0.8775376891	 0.101005
85.9786	178.2592	211.1382	286.1194	301.3308	334.9317	350.3401	415.0883	419.6721	483.4121	492.9619	603.0894	701.5934	784.3047	806.6494	865.1594	885.5207	943.645	944.8898	987.5214	993.1901	1019.6532	1073.5067	1104.4735	1111.8549	1125.8289	1140.4676	1165.0842	1180.5476	1228.2463	1253.556	1283.6192	1300.5115	1332.9163	1342.5393	1352.3779	1365.3619	1394.2704	1432.9851	1443.8404	1467.9806	1479.0953	1484.6046	1504.7015	1533.1995	2927.3243	3015.6702	3019.4611	3023.3939	3043.0074	3069.9911	3074.0276	3084.8459	3087.0933	3091.5247	3157.481	3813.6087
OC1CCC2(CO2)CC1	O[C@H]1CC[C@]2(CO2)CC1	
InChI=1S/C7H12O2/c8-6-1-3-7(4-2-6)5-9-7/h6,8H,1-5H2	InChI=1S/C7H12O2/c8-6-1-3-7(4-2-6)5-9-7/h6,8H,1-5H2/t6-,7+
