16
gdb 43541	2.54844	1.44382	1.06459	2.6067	74.9	-0.2594	-0.0393	0.22	1116.42	0.123592	-400.760586	-400.752361	-400.751417	-400.793926	30.265	
O	 0.0423231463	 0.1589489265	-0.9278776591	-0.302624
C	-0.0182897892	 1.1915322761	-0.3251319973	 0.35756
C	-1.1495469473	 1.9432302003	 0.4087049123	-0.366591
C	-0.1371346722	 3.1230793345	 0.6551141027	-0.269527
C	 0.0826448113	 3.5070214583	 2.0395496519	 0.2868
N	 0.2840321473	 3.8053163623	 3.1384783449	-0.329714
C	 0.9765208983	 2.265954876	-0.0022555239	 0.2267
C	 2.3931791496	 2.0272740796	 0.4769796792	-0.30733
C	 2.1601466402	 2.6970971286	-0.8366267149	-0.310054
H	-2.0210131252	 2.1930414755	-0.1997367544	 0.147224
H	-1.4803625845	 1.4400945796	 1.3202416533	 0.158951
H	-0.3881051287	 4.0127002173	 0.0716956277	 0.132674
H	 2.7231597474	 2.6281721573	 1.3178097923	 0.150593
H	 2.7279874449	 0.9957814524	 0.4831658072	 0.145653
H	 2.3324406765	 2.1323742889	-1.7467810287	 0.145071
H	 2.3431325452	 3.7637412669	-0.9119087233	 0.134616
57.3958	118.1385	183.2204	199.1155	216.936	326.6758	424.324	499.3107	518.6368	595.125	609.6749	706.4405	761.9686	796.5799	834.4369	905.4281	951.6732	975.3098	1010.7978	1043.3139	1055.7865	1069.2286	1090.3414	1113.0462	1185.3408	1198.8926	1218.4638	1246.4328	1335.3583	1354.3247	1438.8079	1456.5522	1487.2436	1889.8389	2355.1074	3078.3701	3080.1225	3133.5384	3136.446	3139.6487	3219.1861	3233.8814
O=C1CC(C#N)C11CC1	O=C1C[C@@H](C#N)C21CC2	
InChI=1S/C7H7NO/c8-4-5-3-6(9)7(5)1-2-7/h5H,1-3H2	InChI=1S/C7H7NO/c8-4-5-3-6(9)7(5)1-2-7/h5H,1-3H2/t5-/m0/s1
