20
gdb 18575	3.13005	2.11363	1.6955	0.1946	78.7	-0.2311	0.0286	0.2597	874.1858	0.179268	-311.8752	-311.868015	-311.867071	-311.90655	28.759	
C	 0.4713658301	 1.5384930217	-0.1712213832	-0.40567
C	 0.063839555	 0.0831684111	 0.0303659497	 0.038696
C	 0.6874582269	-0.9443326807	-0.9654706175	-0.245771
C	 1.410805135	-1.6533180745	 0.220062809	-0.044648
C	 2.8622802492	-1.3054524408	 0.40965696	-0.076092
C	 3.0576656828	-0.4456396113	 1.4101694486	-0.058576
C	 1.7723312564	-0.0533038446	 2.1062564051	-0.274474
C	 0.6802679765	-0.7145573868	 1.2377167367	-0.025676
H	 1.5596084155	 1.6556072671	-0.1987510879	 0.120924
H	 0.0772039043	 1.9114975089	-1.1233810142	 0.110096
H	 0.0805010277	 2.1852298458	 0.6222749716	 0.110484
H	-1.0292801078	 0.0264063047	 0.0419361876	 0.06619
H	-0.0501110718	-1.5714989642	-1.4734328379	 0.091889
H	 1.351192648	-0.5144965978	-1.7220126613	 0.091482
H	 1.225117164	-2.7301913672	 0.2929431481	 0.065094
H	 3.6460052378	-1.7187213328	-0.2177079003	 0.086865
H	 4.0247193113	-0.0628839256	 1.7205794065	 0.087241
H	 1.7534517184	-0.4248817134	 3.1400677346	 0.098626
H	 1.655212729	 1.0348700506	 2.1777575612	 0.102412
H	-0.0893381784	-1.1942590604	 1.8451596334	 0.060909
64.9439	223.3742	247.3973	280.988	347.3137	442.6317	470.7036	622.1346	730.3796	748.8989	756.5751	783.7605	845.1835	870.0326	895.1404	940.2187	946.3059	972.5263	994.2687	998.905	1026.5554	1091.5068	1106.7102	1114.4116	1127.5957	1148.8089	1198.6451	1215.3066	1242.2632	1264.6454	1280.0638	1301.8114	1317.3029	1331.7252	1363.3162	1379.7179	1406.1471	1481.1224	1485.2594	1495.6054	1503.4119	1678.1404	3009.702	3024.6139	3037.8127	3041.3126	3047.5172	3048.783	3085.6723	3087.5306	3096.913	3102.9596	3169.5153	3195.6744
CC1CC2C=CCC12	C[C@H]1C[C@H]2C=CC[C@@H]12	
InChI=1S/C8H12/c1-6-5-7-3-2-4-8(6)7/h2-3,6-8H,4-5H2,1H3	InChI=1S/C8H12/c1-6-5-7-3-2-4-8(6)7/h2-3,6-8H,4-5H2,1H3/t6-,7+,8-/m0/s1
