18
gdb 19662	4.27	2.03047	1.91892	1.3002	70.57	-0.2558	0.0769	0.3327	775.1655	0.156961	-347.770125	-347.764041	-347.763097	-347.799877	25.766	
O	 0.0650243769	 1.4915448942	-0.058996616	-0.440404
C	 0.01918991	 0.087972453	 0.0339664853	 0.150823
C	 0.1385919244	-0.6292935344	 1.4146654778	-0.110261
C	-0.9240079438	 0.1253360888	 2.2370293005	-0.199385
C	-2.1133742851	-0.3304407568	 1.3640056383	-0.036947
C	-2.0824445496	-1.8664743743	 1.5851517	-0.23215
C	-0.7690563261	-1.779742464	 0.7947183942	-0.029996
C	-1.3533846631	-0.5687219057	-0.0146721237	-0.05565
H	 0.9851844916	 1.7706140076	-0.0127089705	 0.280945
H	 0.68039451	-0.3842577673	-0.7075489493	 0.061989
H	 1.1067369028	-0.8382697179	 1.8699029616	 0.053214
H	-1.0105794991	-0.2174364847	 3.2718394319	 0.084597
H	-0.7550313416	 1.2035421143	 2.2237395344	 0.103834
H	-3.040143411	 0.2390487418	 1.413586629	 0.061805
H	-2.0782837185	-2.2387516811	 2.6151625043	 0.08578
H	-2.848001988	-2.3921838121	 1.0064643035	 0.094289
H	-0.2727167183	-2.6309008316	 0.3312030279	 0.063042
H	-1.9488798714	-0.6743724199	-0.9201523394	 0.064473
213.5107	270.0953	292.8066	456.0161	466.1884	553.6463	689.1349	706.2932	773.2315	822.22	829.6927	835.7605	902.2283	921.7574	957.1562	967.0787	981.0411	992.1404	1013.9812	1037.2874	1071.8466	1088.3942	1125.705	1132.4813	1160.9656	1184.1512	1197.3941	1211.4608	1233.8111	1254.4156	1269.2058	1280.1204	1294.9094	1329.7857	1342.5142	1435.8583	1487.0427	1506.6078	2995.1731	3036.5073	3061.847	3093.1887	3110.2509	3117.8937	3121.9913	3125.4198	3134.7467	3812.9958
OC1C2CC3CC2C13	O[C@H]1[C@H]2C[C@@H]3C[C@H]2[C@H]13	
InChI=1S/C7H10O/c8-7-5-2-3-1-4(5)6(3)7/h3-8H,1-2H2	InChI=1S/C7H10O/c8-7-5-2-3-1-4(5)6(3)7/h3-8H,1-2H2/t3-,4+,5-,6+,7-/m0/s1
