16
gdb 34809	4.1246	1.32521	1.24531	6.6687	72.66	-0.2568	0.033	0.2898	1008.0178	0.127863	-396.86536	-396.858823	-396.857879	-396.896233	26.575	
N	-0.0480627246	-1.1605944553	-0.0743211666	-0.334811
C	-0.0162465305	-0.0063279681	-0.0182996872	 0.283869
C	-0.0349508619	 1.4431179026	-0.0090527207	-0.149985
C	-0.0625467707	 2.087400803	 1.4136524931	-0.028627
N	 1.3997752459	 1.7301869803	 1.4840709663	-0.298886
C	 1.3747979916	 2.1148351647	 0.0272391468	-0.028623
C	 1.0277427596	 3.6267965759	 0.0698363805	-0.05785
N	-0.3657866848	 3.964489218	-0.3021187784	-0.329847
C	-0.0374379039	 3.606463722	 1.0972792155	-0.057853
H	-0.7434898263	 1.8339499435	-0.7358932438	 0.151453
H	-0.7141322775	 1.7218335233	 2.2052542317	 0.09554
H	 1.9341071106	 2.3920289029	 2.0511293496	 0.208421
H	 2.1963473531	 1.7774150615	-0.6020798789	 0.09554
H	 1.8087236625	 4.3753094915	 0.0056434615	 0.106884
H	-0.455860955	 4.9768642571	-0.3754699756	 0.237889
H	-0.1443822982	 4.338028237	 1.8895544662	 0.106884
152.2204	157.9684	358.1357	378.7713	448.768	539.4223	547.605	586.9147	693.2014	791.2149	822.3792	858.4412	885.8159	892.4475	899.6705	903.7287	941.2058	950.9146	1035.7679	1045.4059	1063.3149	1106.6557	1122.5385	1135.3453	1147.6833	1187.4676	1211.2682	1224.5311	1280.4238	1292.949	1323.2984	1338.9924	1343.4734	1394.4863	2360.3294	3140.0156	3140.3266	3147.1077	3180.4485	3190.6301	3423.9601	3480.1746
N#CC1C2NC1C1NC21	N#C[C@H]1[C@H]2N[C@@H]1[C@H]1N[C@@H]21	
InChI=1S/C6H7N3/c7-1-2-3-5-6(9-5)4(2)8-3/h2-6,8-9H	InChI=1S/C6H7N3/c7-1-2-3-5-6(9-5)4(2)8-3/h2-6,8-9H/t2-,3+,4-,5-,6+
