18
gdb 60716	3.20758	1.08012	0.89165	2.65	78.75	-0.2356	-0.0578	0.1778	1325.0342	0.145773	-435.284983	-435.2747	-435.273755	-435.321637	35.223	
C	-0.4491967821	 1.4158901897	 0.0416081396	-0.341268
N	-0.0872333099	-0.0033530461	 0.027056881	-0.099819
C	 0.1579923366	-0.6433621603	 1.2392803772	 0.096805
N	 0.0461898321	-0.0321860838	 2.3498965957	-0.476104
C	 0.0007690508	-0.7262810825	-1.1514790525	 0.311546
N	 0.1506404801	-1.9980219231	-1.1504938466	-0.515339
C	 0.0247753954	 0.0808710753	-2.4518021153	 0.289571
C	-0.8941373794	-0.3831630239	-3.562681444	-0.487479
O	 0.781335545	 1.0150577871	-2.5748194356	-0.284238
H	 0.401654813	 2.0452896036	-0.2267849362	 0.153685
H	-1.2645565717	 1.6085018461	-0.6595061464	 0.123204
H	-0.7764084722	 1.6528589367	 1.0524414841	 0.171946
H	 0.4456823525	-1.6839972365	 1.0949185349	 0.147762
H	 0.2754274324	-0.6630326569	 3.1150891526	 0.230379
H	 0.2275833268	-2.3616590674	-2.0968139624	 0.225612
H	-1.936554651	-0.2655461026	-3.2432835241	 0.154149
H	-0.7112289196	 0.216153646	-4.4550020844	 0.152132
H	-0.7591733187	-1.4432473114	-3.7953031677	 0.147458
31.592	58.9933	100.1286	108.043	154.752	198.7681	263.755	305.0285	318.3751	378.3429	388.9903	516.7954	586.1301	637.438	712.4204	768.2926	808.2515	824.8454	887.3759	990.9922	1039.0472	1067.2335	1080.6007	1151.1108	1171.6406	1189.8292	1251.1537	1353.7161	1382.8371	1403.0752	1434.3524	1454.3908	1468.2286	1472.3595	1493.0216	1515.2755	1662.5917	1712.0831	1802.3025	3041.8739	3059.3905	3106.1372	3127.0673	3145.859	3157.8006	3171.5861	3510.0621	3523.2023
CN(C=N)C(=N)C(C)=O	CN(C=N)C(=N)C(=O)C	
InChI=1S/C5H9N3O/c1-4(9)5(7)8(2)3-6/h3,6-7H,1-2H3	InChI=1S/C5H9N3O/c1-4(9)5(7)8(2)3-6/h3,6-7H,1-2H3
