23
gdb 58438	2.36514	1.33694	1.23754	1.541	84.87	-0.2289	0.0786	0.3075	1204.1394	0.204273	-388.252584	-388.242897	-388.241952	-388.286818	37.204	
C	 0.6716441489	 0.0377674528	-1.2570655488	-0.39796
C	-0.0299165914	 0.0811468046	 0.1086681843	-0.02874
C	 0.0645334133	 1.4788393174	 0.7417832114	-0.401588
C	-1.4739893702	-0.4126088808	 0.0264085816	 0.327337
C	-2.4595728961	 0.4559354738	-0.7420014603	-0.474553
C	-1.8157316105	-1.8978454253	-0.0956311171	-0.188387
C	-0.9136806461	-2.7479305958	 0.7913031846	-0.113982
O	-1.1691068536	-1.8980141133	 1.9423638334	-0.287942
C	-2.1108459279	-1.1345376387	 1.1818228313	 0.039495
H	 1.7299307633	 0.3014216713	-1.1589556964	 0.109596
H	 0.6131792808	-0.9604056609	-1.7033611564	 0.110942
H	 0.2236128111	 0.746004815	-1.9631022025	 0.11146
H	 0.4987817867	-0.5998859806	 0.7829584639	 0.092765
H	 1.1111163606	 1.7511235267	 0.9132056027	 0.109406
H	-0.3706783084	 2.2500871444	 0.0971893792	 0.11093
H	-0.4520713373	 1.5114597886	 1.7063840809	 0.117898
H	-2.1807126991	 0.5419087199	-1.7975550345	 0.121923
H	-3.4675549587	 0.0292569777	-0.7055960223	 0.114134
H	-2.5157531599	 1.4658020713	-0.3248622317	 0.122896
H	-2.4856100614	-2.279399818	-0.8553929466	 0.091939
H	-1.310543901	-3.7540202167	 0.9686855035	 0.108965
H	 0.1527520176	-2.8126534703	 0.5453351468	 0.105867
H	-3.0340818007	-0.8448989332	 1.6733635931	 0.097598
46.5492	173.7262	194.2699	206.7722	223.4381	246.2133	264.9938	296.0794	338.2644	363.2616	447.6964	504.1772	568.9082	648.0986	776.4531	813.8333	867.1337	893.1496	927.3876	938.8401	956.7745	965.3237	983.8876	1010.7396	1032.9998	1054.2994	1070.745	1088.7276	1117.2737	1149.991	1163.4138	1189.7828	1202.5418	1248.5909	1300.5824	1320.4553	1349.4395	1370.7093	1394.6368	1412.2756	1418.9834	1421.8365	1485.2041	1487.5353	1501.1544	1503.6246	1508.7338	1513.1664	1519.1046	3022.7802	3026.9678	3029.6843	3034.4516	3054.6364	3068.7213	3090.2634	3094.4252	3099.169	3100.2296	3102.7693	3105.8492	3160.933	3192.7212
CC(C)C1(C)C2COC12	CC(C)[C@@]1(C)[C@H]2CO[C@@H]12	
InChI=1S/C8H14O/c1-5(2)8(3)6-4-9-7(6)8/h5-7H,4H2,1-3H3	InChI=1S/C8H14O/c1-5(2)8(3)6-4-9-7(6)8/h5-7H,4H2,1-3H3/t6-,7+,8-/m0/s1
