19
gdb 70275	2.64683	1.59552	1.23001	2.7429	75.41	-0.2338	-0.0244	0.2094	1068.1742	0.158089	-423.027861	-423.019415	-423.01847	-423.060899	32.131	
C	 0.127414506	 1.1980382704	-0.5581642811	-0.470413
C	-0.0604745145	-0.1925818564	-0.0211950028	 0.441455
C	-0.6237896695	-0.5010377889	 1.3396236236	-0.335757
C	 0.8109934099	-0.8740544059	 0.9970901969	-0.099224
C	 1.0594445598	-2.2930458701	 0.4928676492	-0.282852
C	 0.5214897424	-2.2178205809	-0.9681342468	 0.006552
O	-0.4034507239	-1.1524196287	-1.0108224832	-0.283282
C	 1.6871198993	-2.0167782298	-1.9303827605	 0.150834
O	 1.951429378	-0.9902183134	-2.496616846	-0.23298
H	 0.8889837735	 1.1953135177	-1.3421490991	 0.14879
H	-0.8072419773	 1.5749330388	-0.986661832	 0.12523
H	 0.4330314695	 1.8806407589	 0.240379813	 0.110347
H	-0.7730825675	 0.3208890469	 2.0324481827	 0.111971
H	-1.3559451444	-1.2989819031	 1.4094428846	 0.113039
H	 1.6193725057	-0.3437775744	 1.4864455551	 0.095789
H	 2.120847909	-2.558201351	 0.5275729435	 0.113491
H	 0.516004514	-3.0468589615	 1.0700963241	 0.115826
H	 0.0043970091	-3.1401753058	-1.2626135331	 0.098336
H	 2.320263551	-2.9289058529	-2.0528217182	 0.072848
85.147	114.7767	184.5733	219.8185	254.8761	307.5837	336.7167	403.323	450.521	591.9154	661.9084	732.0394	771.1923	824.6512	826.0532	857.857	876.2956	921.3896	954.0337	974.7898	991.0844	1044.353	1059.8171	1089.7473	1092.6427	1135.1942	1143.2178	1207.5313	1236.5125	1248.2665	1285.3284	1315.2002	1369.7214	1390.3605	1413.0824	1421.8337	1477.2509	1477.8692	1495.808	1506.8155	1841.3302	2840.532	3031.8472	3038.7702	3050.8029	3089.283	3105.0363	3123.4535	3127.9686	3177.6055	3215.1394
CC12CC1CC(O2)C=O	C[C@]12C[C@H]1C[C@@H](O2)C=O	
InChI=1S/C7H10O2/c1-7-3-5(7)2-6(4-8)9-7/h4-6H,2-3H2,1H3	InChI=1S/C7H10O2/c1-7-3-5(7)2-6(4-8)9-7/h4-6H,2-3H2,1H3/t5-,6-,7+/m1/s1
