19
gdb 88799	2.69678	1.3817	1.08724	2.797	75.91	-0.246	-0.0233	0.2227	1169.5832	0.157548	-423.015571	-423.006671	-423.005727	-423.049913	32.753	
C	 0.0959834838	 1.4039963096	-0.3595363466	-0.449671
C	 0.0885399216	-0.0451057659	 0.0503344061	 0.078222
O	 1.3418637454	-0.7469944275	 0.1365695425	-0.260218
C	 0.5729401978	-0.5773042756	 1.334064527	 0.044816
C	 1.1943816236	 0.2189290796	 2.4632547571	-0.174065
C	 2.1245875329	-0.6300019279	 3.3976491364	-0.243428
C	 3.3866749643	 0.0660469502	 2.8078464078	-0.319084
C	 2.4551264616	 1.0589269877	 2.1130640667	 0.413925
O	 2.618652793	 2.1312779746	 1.6087920247	-0.295378
H	 0.834898046	 1.9885603116	 0.1894825673	 0.170305
H	 0.3101386872	 1.4868199233	-1.4304147632	 0.127407
H	-0.8968230073	 1.835638192	-0.1882883797	 0.116382
H	-0.6866924011	-0.642490833	-0.435859838	 0.088803
H	 0.1050152691	-1.5013366616	 1.6850264145	 0.091501
H	 0.4207043683	 0.7962674044	 2.9813170916	 0.105461
H	 1.9719188754	-0.4146743417	 4.4566324245	 0.113825
H	 2.0686196625	-1.7087784712	 3.2434123694	 0.113237
H	 4.1211159772	 0.4944329061	 3.4937920977	 0.128785
H	 3.9091111089	-0.5516332747	 2.0700052142	 0.149175
52.573	66.9271	148.385	189.7855	212.3209	255.243	379.4396	426.0437	453.1354	512.5601	580.1318	703.7124	716.7548	762.7133	778.5005	869.3954	905.4495	934.2077	948.2898	1015.1992	1036.2267	1043.257	1078.1917	1091.6319	1135.3042	1164.1258	1184.227	1189.4825	1227.7671	1232.2095	1268.4234	1279.5785	1329.0594	1389.5034	1426.8177	1435.1762	1463.6833	1490.6255	1502.4215	1513.8158	1887.1428	3036.9547	3053.7787	3060.6501	3062.7823	3079.1046	3080.9242	3094.8168	3116.395	3136.0712	3154.7392
CC1OC1C1CCC1=O	C[C@H]1O[C@H]1[C@H]1CCC1=O	
InChI=1S/C7H10O2/c1-4-7(9-4)5-2-3-6(5)8/h4-5,7H,2-3H2,1H3	InChI=1S/C7H10O2/c1-4-7(9-4)5-2-3-6(5)8/h4-5,7H,2-3H2,1H3/t4-,5+,7-/m1/s1
