23
gdb 118431	2.09938	1.00078	0.744	2.7342	83.71	-0.2325	-0.0141	0.2184	1635.3121	0.201726	-425.443015	-425.431442	-425.430498	-425.480689	40.094	
C	-0.0641706422	 1.6100261096	-0.006980244	-0.384246
C	-0.0121227797	 0.0804189181	-0.0237766801	-0.164647
C	-1.4050923194	-0.5587390038	-0.0212392852	-0.196079
C	-1.3607529523	-2.0957411779	 0.0047711814	 0.012651
O	-0.7043796936	-2.4798113188	 1.1833153572	-0.227126
C	-0.2816942523	-3.8288941483	 1.2206051131	-0.242528
C	-2.7798195467	-2.6890824346	-0.0996017271	 0.362023
C	-3.536782224	-2.4283124828	-1.3940169385	-0.480148
O	-3.2667848942	-3.3263163699	 0.8034668271	-0.29552
H	 0.9419842812	 2.040516079	-0.0071640895	 0.113828
H	-0.5936996554	 2.0030155698	-0.8825157106	 0.11031
H	-0.5828890519	 1.9786190409	 0.8848790658	 0.117633
H	 0.5377067215	-0.2604071333	-0.9114878399	 0.089341
H	 0.5428185631	-0.2877919166	 0.8440847479	 0.121344
H	-1.9679182015	-0.2231142803	 0.8589479791	 0.115832
H	-1.9645344006	-0.228605782	-0.904080649	 0.09727
H	-0.7981430544	-2.4486454237	-0.8817022973	 0.068466
H	 0.2829364644	-3.9563018073	 2.1472480466	 0.126813
H	-1.1287109782	-4.5230718847	 1.2200452284	 0.13172
H	 0.3792298114	-4.0628726247	 0.370765019	 0.09663
H	-2.8756226263	-2.4198055076	-2.2656176969	 0.129193
H	-4.312648678	-3.1858323791	-1.5159132573	 0.145506
H	-4.0222889609	-1.4469872721	-1.3416727204	 0.151733
54.366	80.8961	90.538	107.6625	119.2389	143.6305	185.665	245.224	251.5842	275.217	323.4898	332.3242	432.2971	484.3167	595.123	624.2309	745.7725	814.8256	856.4448	896.2904	943.2776	979.5433	1008.2316	1041.3447	1064.1727	1125.4249	1139.7054	1163.5234	1177.3205	1194.3949	1234.3341	1261.3658	1285.0843	1333.2716	1338.0727	1376.1814	1382.7708	1392.0896	1414.2755	1465.7081	1471.5357	1478.6791	1480.2008	1484.4852	1494.4243	1500.0799	1510.6563	1513.7129	1815.5461	2916.015	2980.3881	3018.6289	3027.8313	3032.5906	3040.2385	3068.9012	3072.3033	3082.299	3102.4665	3104.1234	3105.1775	3120.9308	3146.9719
CCCC(OC)C(C)=O	CCC[C@@H](OC)C(=O)C	
InChI=1S/C7H14O2/c1-4-5-7(9-3)6(2)8/h7H,4-5H2,1-3H3	InChI=1S/C7H14O2/c1-4-5-7(9-3)6(2)8/h7H,4-5H2,1-3H3/t7-/m1/s1
