21
gdb 104929	2.24849	1.34074	1.01684	4.2014	80.34	-0.2399	-0.012	0.2279	1267.5621	0.179039	-424.230759	-424.220416	-424.219472	-424.265545	38.453	
C	 0.3277992544	 1.4671782784	 0.2909016804	-0.380379
C	-0.2200632052	 0.1029734213	-0.1483215653	-0.266854
C	 0.545208795	-0.5015814962	-1.3156625415	 0.187552
C	 1.969373421	-1.0506081227	-1.115396222	-0.394974
C	 0.8487274947	-1.9975104618	-1.4040375029	 0.345109
C	 0.3537384377	-2.9710435223	-0.3572529471	-0.445699
O	 0.7620786072	-2.515050497	-2.7109058454	-0.460154
C	 0.327247476	 0.1835489095	-2.6262810098	 0.13795
O	-0.4654050523	 1.0807962241	-2.7895010211	-0.281757
H	 1.3761115814	 1.3938088547	 0.6003397048	 0.107155
H	 0.260543169	 2.1924134803	-0.5228945816	 0.142809
H	-0.2439692285	 1.8559171199	 1.1390996401	 0.110164
H	-0.2093028729	-0.5822610116	 0.703741304	 0.090396
H	-1.2664118104	 0.2155278431	-0.4510885351	 0.120367
H	 2.6865197447	-0.8623259519	-1.9082518931	 0.120495
H	 2.3730627434	-1.0011503451	-0.1093403115	 0.121697
H	 0.4763848791	-2.5937263238	 0.6594534612	 0.127061
H	-0.7007076274	-3.212628566	-0.5207528717	 0.136041
H	 0.9276897884	-3.9031914989	-0.4299028434	 0.112105
H	 1.3930694576	-3.2403893919	-2.7814545094	 0.284715
H	 0.9574486272	-0.1841764921	-3.4595862498	 0.086201
90.2208	101.8572	143.5657	186.203	215.1732	238.5316	266.4819	285.548	319.0404	338.7238	389.1168	407.8207	453.3454	519.9022	577.0013	702.9737	743.8429	794.5789	869.4279	915.9781	918.9918	966.3723	996.0745	1019.8969	1052.2724	1058.3118	1076.9269	1105.9874	1167.0558	1220.8809	1290.0245	1304.2232	1332.3927	1369.224	1380.9014	1407.858	1417.6799	1442.8102	1468.2016	1480.8941	1488.7297	1496.9772	1500.4973	1512.3139	1803.8843	2939.2301	3030.4469	3038.9688	3053.0008	3089.1292	3096.247	3103.4368	3124.1155	3132.7724	3136.6153	3215.3112	3791.1409
CCC1(CC1(C)O)C=O	CC[C@]1(C[C@]1(C)O)C=O	
InChI=1S/C7H12O2/c1-3-7(5-8)4-6(7,2)9/h5,9H,3-4H2,1-2H3	InChI=1S/C7H12O2/c1-3-7(5-8)4-6(7,2)9/h5,9H,3-4H2,1-2H3/t6-,7-/m0/s1
