19
gdb 6848	3.31282	1.86764	1.64676	2.1422	70.87	-0.2442	0.0271	0.2713	886.3537	0.166322	-365.085086	-365.077147	-365.076203	-365.116762	30.428	
C	-0.0795596164	 1.5664280594	 0.0075587719	-0.410646
C	-0.0106673155	 0.0290513059	 0.0010876692	 0.202773
C	-1.4257508303	-0.5621615765	-0.007615228	-0.427919
C	 0.7504132412	-0.462110266	-1.2365353077	-0.078474
O	 2.127316704	-0.0570626007	-1.222585184	-0.228702
C	 2.7329652609	-0.1019646417	-0.0104365584	 0.122949
N	 2.2280970783	-0.3001656335	 1.1305469625	-0.271125
C	 0.7814065155	-0.4826821962	 1.2238226898	-0.167196
H	 0.9157383871	 2.0173941898	 0.0325023698	 0.132761
H	-0.5952068248	 1.9389137379	-0.8844119542	 0.109739
H	-0.6296952573	 1.9210245825	 0.8852810159	 0.114546
H	-2.0017727833	-0.2038266627	-0.8683397727	 0.114024
H	-1.4034710142	-1.6567481469	-0.0486911141	 0.114252
H	-1.9703493314	-0.2733832365	 0.8976502065	 0.120594
H	 0.7141725132	-1.5582492187	-1.2961931237	 0.105762
H	 0.331922779	-0.0537956626	-2.1607776473	 0.113177
H	 3.8003218208	 0.079268937	-0.1254846941	 0.121946
H	 0.4376748153	 0.027309008	 2.1319280553	 0.106919
H	 0.5795735579	-1.5508587686	 1.3835415433	 0.104621
148.5782	181.5233	198.9936	226.3113	283.1834	332.3984	383.9985	401.6219	484.1731	523.8911	535.3571	737.8258	860.5662	904.9793	933.5762	943.3689	953.9035	957.4629	971.768	987.1453	1045.1137	1068.0175	1164.3743	1196.5402	1229.3967	1238.6108	1292.4408	1329.1747	1352.1983	1397.9928	1404.4678	1410.7254	1434.3348	1479.7063	1484.3481	1488.8751	1503.6328	1508.5786	1510.8242	1737.8008	3007.0056	3015.7785	3024.8707	3035.0367	3045.2611	3087.3632	3092.0385	3095.8969	3099.2256	3120.2577	3156.5904
CC1(C)COC=NC1	CC1(C)COC=NC1	
InChI=1S/C6H11NO/c1-6(2)3-7-5-8-4-6/h5H,3-4H2,1-2H3	InChI=1S/C6H11NO/c1-6(2)3-7-5-8-4-6/h5H,3-4H2,1-2H3
