13
gdb 132479	3.24254	1.40128	0.97844	2.3615	65.82	-0.2162	-0.0303	0.1859	1076.5345	0.091205	-494.08169	-494.074643	-494.073699	-494.113224	27.142	
O	-0.1021674804	 1.2985439007	 0.0104296605	-0.403002
C	 0.0450182943	-0.0326349068	 0.002406411	 0.522623
N	 1.2183165215	-0.5771974773	-0.0070394528	-0.396275
C	 1.2311276795	-1.9573482853	-0.0145723988	-0.11958
C	 0.1081034782	-2.704794442	-0.0123868909	 0.167457
F	 0.1430075741	-4.041338302	-0.019804008	-0.077523
C	-1.2150079319	-2.107877562	-0.0018206153	 0.288869
N	-2.3666204787	-2.6596103281	 0.0015892343	-0.563976
N	-1.1291113933	-0.7057631045	 0.0052741278	-0.378016
H	 0.7929407358	 1.6657964507	 0.0074510622	 0.318746
H	 2.2059002634	-2.4335797734	-0.0225509784	 0.130769
H	-2.2602523722	-3.6723387933	-0.0044734009	 0.229519
H	-2.0044965303	-0.1991826367	 0.0128775893	 0.28039
138.9571	167.3989	301.9664	361.0071	387.2912	415.4482	463.8436	525.619	551.289	601.6569	655.0866	735.6298	756.9341	763.2734	787.3774	831.456	947.627	1017.5592	1098.2153	1190.072	1271.0776	1290.9859	1311.0285	1347.9341	1430.4811	1564.2152	1641.411	1669.0925	1724.4376	3190.1832	3515.3724	3601.6578	3778.7895
OC1=NC=C(F)C(=N)N1	OC1=NCC(=C([NH])N1)F	
InChI=1S/C4H4FN3O/c5-2-1-7-4(9)8-3(2)6/h1H,(H3,6,7,8,9)	InChI=1S/C4H5FN3O/c5-2-1-7-4(9)8-3(2)6/h6H,1H2,(H2,7,8,9)
