17
gdb 107262	2.50446	1.73222	1.23086	2.1615	67.28	-0.2368	0.0452	0.282	1019.765	0.13434	-458.868952	-458.860874	-458.85993	-458.90123	31.847	
O	 0.1342474185	 1.3924720388	 0.1349867002	-0.420828
C	-0.0175220108	-0.0004041707	-0.0734377918	-0.189553
C	-1.461261031	-0.3990580725	-0.0371688174	 0.326725
O	-1.9226893694	-1.6192625371	-0.6261519031	-0.288927
C	-2.5518753085	-0.373539687	-1.0034793309	-0.055081
C	-3.5788033522	 0.0522684913	 0.0931860856	-0.150336
C	-3.6084100226	-0.9402551437	 1.2436217749	-0.349245
C	-2.4616388701	 0.0154310881	 1.1107754018	 0.303738
O	-2.1156950003	 0.9899676324	 2.0414254463	-0.458231
H	-0.3732912105	 1.6164680265	 0.9263467708	 0.293418
H	 0.4014598343	-0.2369435752	-1.0564205528	 0.123711
H	 0.545571921	-0.5874493435	 0.6725224406	 0.088994
H	-2.5748892596	-0.1273788771	-2.0578134312	 0.114824
H	-4.3454811112	 0.8005341052	-0.0519766339	 0.107927
H	-4.3157977298	-0.6693458938	 2.0219727134	 0.11711
H	-3.4817166934	-2.0013512108	 1.067129172	 0.138785
H	-1.8685113346	 0.550152919	 2.8631592753	 0.29697
107.6029	153.9807	214.2165	278.8773	322.5499	365.044	409.2857	437.3397	507.2882	531.8797	549.9493	618.6922	650.0218	786.456	804.6221	853.5174	905.1491	923.9804	945.5764	988.7996	996.9004	1025.059	1046.0065	1065.9367	1095.7802	1136.6978	1194.0431	1213.8465	1252.9984	1270.3934	1300.3728	1362.8634	1388.8966	1433.0481	1470.2045	1496.4873	1506.2766	2956.2689	3080.9447	3133.9752	3196.2798	3217.3111	3229.5981	3757.0514	3786.2505
OCC12OC1C1CC21O	OC[C@]12O[C@H]1[C@H]1C[C@@]21O	
InChI=1S/C6H8O3/c7-2-6-4(9-6)3-1-5(3,6)8/h3-4,7-8H,1-2H2	InChI=1S/C6H8O3/c7-2-6-4(9-6)3-1-5(3,6)8/h3-4,7-8H,1-2H2/t3-,4+,5+,6+/m1/s1
