18
gdb 33833	4.32326	1.12191	1.0384	1.5665	85.09	-0.2342	0.0203	0.2545	1194.7923	0.146497	-364.717175	-364.709074	-364.70813	-364.749518	32.262	
C	 0.1859750618	-1.1478149418	 0.0781255588	-0.399677
C	 0.0802516822	 0.0497895376	 0.0291641155	 0.210534
C	-0.0929778585	 1.4629635229	-0.0123927496	 0.149074
C	 0.2360840266	 2.3001194254	-1.1937216757	-0.263566
N	 1.079246037	 2.4706950152	 0.0004730291	-0.193614
C	 0.2640451494	 3.2948223628	 0.9350465914	 0.404996
C	 0.9116705179	 4.048423687	 2.0439823237	-0.337654
C	 0.2480975132	 4.790311784	 0.8959746689	-0.328263
C	-0.8814013619	 2.2839466502	 1.0195394674	-0.393131
H	 0.2921820731	-2.2035569651	 0.1179158105	 0.191158
H	 0.7536974682	 1.809622329	-2.0115990462	 0.13025
H	-0.4375003331	 3.104089998	-1.4842453577	 0.116489
H	 0.4276129314	 4.0560749028	 3.0152281786	 0.114522
H	 1.995843104	 4.0393392175	 2.0731732588	 0.128697
H	 0.8936036489	 5.2806252769	 0.1745729163	 0.122521
H	-0.6900903536	 5.3020927992	 1.0848988102	 0.11548
H	-1.8817001315	 2.6029743373	 0.7120803847	 0.107049
H	-0.9411434751	 1.7874402113	 1.9898377954	 0.125135
90.0151	142.6786	220.6028	261.4042	295.9785	393.0737	442.83	507.1711	522.4898	564.4199	597.7664	628.892	656.5961	761.3591	769.4615	806.4656	854.4501	868.4525	930.8771	950.6224	965.0371	996.2932	1048.1492	1062.1565	1076.3852	1120.1483	1127.7524	1169.505	1187.3456	1209.0494	1237.6467	1257.4522	1347.9427	1383.708	1453.7568	1484.8849	1494.1461	1508.8379	2234.082	3054.5273	3103.2842	3118.5566	3126.2229	3130.7181	3205.7756	3208.6727	3223.8401	3503.1539
C#CC12CN1C1(CC1)C2	C#C[C@]12CN1C1(CC1)C2	
InChI=1S/C8H9N/c1-2-7-5-8(3-4-8)9(7)6-7/h1H,3-6H2	InChI=1S/C8H9N/c1-2-7-5-8(3-4-8)9(7)6-7/h1H,3-6H2/t7-,9?/m0/s1
