17
gdb 69867	2.75654	1.6676	1.20221	3.692	77.44	-0.2399	0.0095	0.2493	1032.6136	0.135774	-380.805149	-380.797241	-380.796297	-380.837286	30.796	
C	 0.0590465111	 1.4949117805	 0.0690589806	-0.492149
C	-0.0992192616	 0.0093685525	-0.0401268206	 0.288552
C	-0.9741169246	-0.8189792203	 0.8111418919	-0.298663
N	 0.4975855136	-0.9419554259	 0.966589189	-0.172831
C	 1.079449333	-1.7303948149	-0.1760348258	-0.032279
C	 0.1671734657	-2.245263463	-1.2367794511	-0.353174
C	 0.5266102264	-0.7710711596	-1.2350662631	 0.13155
C	 1.1941039366	-0.1377792597	-2.3184755553	 0.200271
N	 1.7326804781	 0.3905091751	-3.1978421356	-0.359413
H	 1.0792080367	 1.8015435536	-0.1820309255	 0.145112
H	-0.6245340593	 2.0071051011	-0.6173277873	 0.135792
H	-0.1600868581	 1.823989081	 1.0879895639	 0.133588
H	-1.4179261905	-0.3217822405	 1.6687890061	 0.133651
H	-1.5694936972	-1.640548533	 0.4317314527	 0.124585
H	 2.0963343714	-2.0803252687	-0.0575428138	 0.133531
H	 0.6841387993	-2.8053905864	-2.0093887553	 0.148573
H	-0.8479028806	-2.5804307917	-1.0630662109	 0.133303
123.7974	138.239	191.3911	245.1262	313.756	389.1828	469.2391	486.9672	528.0992	540.4245	597.605	623.3504	716.917	779.4262	829.1568	868.8234	916.9528	943.4249	983.5799	1012.7244	1018.3294	1070.3644	1086.0492	1106.6267	1113.6903	1133.081	1169.0713	1256.2162	1288.4983	1341.0826	1383.2495	1421.5664	1474.6199	1480.8573	1492.305	1532.6233	2337.9244	3036.7754	3102.2659	3124.6492	3132.0205	3147.1695	3207.1383	3215.769	3227.98
CC12CN1C1CC21C#N	C[C@]12CN1[C@H]1C[C@@]21C#N	
InChI=1S/C7H8N2/c1-6-4-9(6)5-2-7(5,6)3-8/h5H,2,4H2,1H3	InChI=1S/C7H8N2/c1-6-4-9(6)5-2-7(5,6)3-8/h5H,2,4H2,1H3/t5-,6+,7-,9?/m0/s1
