17
gdb 89365	2.4653	1.6008	1.36515	5.2814	68.17	-0.2313	-0.0039	0.2274	1001.2015	0.135478	-458.956202	-458.948093	-458.947149	-458.988488	31.521	
O	-0.0785818705	 1.393567825	 0.0142487492	-0.431642
C	-0.0301569875	-0.0175842592	 0.0236760031	 0.132718
C	 0.4824036612	-0.6335750726	 1.3774464027	-0.332545
C	-0.7954894111	-1.370098551	 1.831392543	 0.30461
O	-0.825146012	-2.0058582486	 3.0559559066	-0.47359
C	-1.255625701	-2.0361134775	 0.4734649084	-0.316959
C	-1.4687506018	-0.5628795638	 0.0058563724	-0.161664
C	-1.8817505252	-0.3306253672	 1.4761268092	 0.40838
O	-2.7706829237	 0.2115417474	 2.0558342259	-0.31519
H	 0.8226124771	 1.7313547078	 0.0252572068	 0.286715
H	 0.5443208196	-0.3970719732	-0.8324703633	 0.07463
H	 1.319828345	-1.3271214991	 1.2400027439	 0.094815
H	 0.7798828301	 0.1514973837	 2.0780336707	 0.118546
H	 0.0194734165	-2.4440541393	 3.2042700521	 0.28587
H	-0.4986352792	-2.6147415714	-0.0622827347	 0.101659
H	-2.1848414256	-2.5983579293	 0.5719010218	 0.12818
H	-2.1033713419	-0.2887401216	-0.8316191777	 0.095467
126.7631	157.0003	209.1611	255.8724	284.5957	333.4211	386.468	434.5521	463.5893	508.6207	593.155	680.1038	724.7493	787.6162	828.1795	854.6088	876.082	941.4236	963.883	1002.9404	1008.6985	1066.4969	1094.7415	1127.6814	1146.7966	1161.2982	1195.3799	1218.2562	1240.3139	1280.6886	1302.232	1346.9113	1401.1979	1422.3255	1481.2643	1501.3165	1914.6588	2999.9087	3036.9395	3066.4037	3100.3445	3143.6819	3170.97	3807.4143	3819.3761
OC1CC2(O)CC1C2=O	O[C@H]1C[C@]2(O)C[C@H]1C2=O	
InChI=1S/C6H8O3/c7-4-2-6(9)1-3(4)5(6)8/h3-4,7,9H,1-2H2	InChI=1S/C6H8O3/c7-4-2-6(9)1-3(4)5(6)8/h3-4,7,9H,1-2H2/t3-,4+,6-/m1/s1
