18
gdb 99013	4.17495	0.77076	0.65811	5.7598	73.62	-0.2471	-0.0112	0.2359	1631.8224	0.147057	-472.401713	-472.391857	-472.390912	-472.437268	35.403	
O	-1.9752839797	 1.9402458542	-0.0644486503	-0.4331
C	-2.5677560611	 0.672961184	-0.0723646132	-0.077477
C	-1.513453282	-0.4173118837	 0.007565841	 0.372245
N	-0.294322175	-0.041722505	 0.0543697387	-0.542989
N	-1.9048932279	-1.7559979676	 0.0265902831	-0.371
C	-3.1680547248	-2.331920352	-0.0035363846	 0.321719
N	-4.2389824422	-1.6605826642	-0.1266977536	-0.491666
C	-3.112773026	-3.8566070603	 0.14047502	-0.161063
O	-4.3567390494	-4.464476145	-0.10215114	-0.394304
H	-1.0189471518	 1.7757338982	-0.0163018894	 0.293494
H	-3.2671247617	 0.5493451711	 0.7659599466	 0.126459
H	-3.1703041094	 0.5143165649	-0.9769562957	 0.127131
H	 0.3761160129	-0.8076667631	 0.1079350899	 0.208018
H	-1.1340709009	-2.4061928813	 0.0839550864	 0.241453
H	-5.0301975692	-2.3043865372	-0.0864033023	 0.228224
H	-2.3203765372	-4.2605149471	-0.5102150239	 0.108617
H	-2.8399099317	-4.1078305658	 1.1723573093	 0.147783
H	-4.542808613	-4.40510083	-1.0455798019	 0.296457
44.5748	78.0756	131.9842	148.8605	162.1262	275.9947	335.539	345.4065	366.8459	399.8554	428.8254	499.2204	549.8837	569.7911	649.4238	714.3754	840.1905	845.4014	901.563	946.2948	1002.8996	1031.9317	1063.0018	1126.2108	1129.4534	1166.8759	1210.2165	1253.8118	1281.8355	1318.8271	1376.1683	1397.9099	1407.7697	1472.0061	1485.6641	1487.5529	1536.5662	1715.0488	1738.9938	2977.3157	3017.7713	3036.3827	3063.5684	3475.9232	3479.1454	3596.0522	3655.9807	3811.2434
OCC(=N)NC(=N)CO	OCC(=N)NC(=N)CO	
InChI=1S/C4H9N3O2/c5-3(1-8)7-4(6)2-9/h8-9H,1-2H2,(H3,5,6,7)	InChI=1S/C4H9N3O2/c5-3(1-8)7-4(6)2-9/h8-9H,1-2H2,(H3,5,6,7)
