15
gdb 34768	2.16077	1.85134	1.21494	5.0596	74.57	-0.2406	0.0126	0.2533	1017.8575	0.112411	-379.588051	-379.580147	-379.579203	-379.620591	29.92	
C	-0.2237314404	-1.1962006931	 0.0597811644	-0.413674
C	-0.0978008328	-0.0012408574	 0.0673693049	 0.329603
C	 0.019176099	 1.4282302075	 0.0565774227	-0.212747
C	 0.512375024	 2.2455929392	 1.2242344554	-0.031449
N	 1.5150498686	 1.4610970454	 1.9699187396	-0.312355
C	 2.4447329319	 1.5691687746	 0.7966198897	-0.15303
C	 3.0914969098	 0.3272622677	 0.3627848721	 0.319213
N	 3.6582219389	-0.6165453631	 0.0126408163	-0.327885
C	 1.3301120951	 2.2008088813	-0.0535208954	-0.120393
H	-0.3077392415	-2.2547491302	 0.0594274701	 0.202031
H	-0.7635874443	 1.9427307927	-0.4975886019	 0.124612
H	-0.0650272532	 3.0378011749	 1.6844495889	 0.11284
H	 1.8857967779	 1.9680765755	 2.7658454027	 0.236804
H	 3.2312945673	 2.3119342528	 0.9678528277	 0.130418
H	 1.4997120299	 2.9235373522	-0.8400166073	 0.116013
89.3473	126.4326	163.0497	219.4946	332.0245	359.5035	505.028	532.7142	574.9141	606.7408	618.3873	664.7132	721.0677	754.1036	800.4744	835.482	904.4153	937.8149	986.5303	1010.3611	1027.5311	1051.6109	1080.6439	1095.1338	1168.2708	1194.6688	1275.2414	1313.383	1351.2706	1374.6515	1436.6921	2244.1375	2361.0237	3050.6738	3130.7826	3190.4673	3206.1283	3504.6851	3543.2233
C#CC1C2NC(C#N)C12	C#C[C@H]1[C@H]2N[C@@H](C#N)[C@@H]12	
InChI=1S/C7H6N2/c1-2-4-6-5(3-8)9-7(4)6/h1,4-7,9H	InChI=1S/C7H6N2/c1-2-4-6-5(3-8)9-7(4)6/h1,4-7,9H/t4-,5+,6-,7-/m1/s1
