19
gdb 90862	3.64514	1.43348	1.20735	1.0003	81.22	-0.2231	-0.0071	0.216	1053.5213	0.160906	-385.820832	-385.813601	-385.812656	-385.852	30.19	
O	 0.0541940685	 1.4627617104	 0.0219755864	-0.436896
C	 0.0598157503	 0.0478073333	-0.0097909451	 0.096626
C	-1.4262608921	-0.4405870004	-0.012306808	-0.227523
C	-1.4670671021	-1.9735165174	-0.0958274583	-0.021278
C	-1.298824282	-2.9600002382	-1.2863800305	-0.067215
C	-0.4084779017	-2.5348053898	-2.4937984619	-0.279905
C	 0.4489509031	-1.8596539986	-1.4338561752	 0.149951
C	 0.6023122666	-0.5413700087	-1.2915272982	-0.185798
C	-0.1683389733	-2.6932049464	-0.3137788551	-0.15784
H	 0.9685320293	 1.7620751859	 0.0428477715	 0.282431
H	 0.55253912	-0.3662384199	 0.8820666697	 0.076801
H	-1.9210930074	-0.1107279624	 0.9080915536	 0.101734
H	-1.9380953598	 0.0543500029	-0.8437880088	 0.110215
H	-2.1143134567	-2.4319430699	 0.649698696	 0.086052
H	-1.9425772597	-3.8340579313	-1.3124842866	 0.087079
H	 0.0197804025	-3.4408124319	-2.9377451055	 0.10656
H	-0.8269381491	-1.899734799	-3.2811900254	 0.09731
H	 0.6426460166	 0.1233278383	-2.1527982349	 0.093441
H	 0.331559507	-3.3544072668	 0.3825176066	 0.088256
155.0496	217.2985	276.1472	339.0567	382.4537	422.773	440.826	515.4941	530.0541	673.9427	720.2931	762.2314	781.8315	843.2614	870.8604	894.4038	930.0152	945.8762	971.4092	989.3685	1015.4141	1030.6602	1055.2062	1070.6405	1086.9163	1116.4502	1128.5578	1165.8925	1187.1426	1224.3643	1239.8472	1257.7084	1293.0963	1300.5934	1321.2457	1353.7627	1386.015	1409.6065	1489.9788	1493.2344	1686.5841	2987.1783	3028.887	3040.7027	3082.4111	3084.1122	3123.4258	3144.4485	3153.998	3188.1941	3820.4386
OC1CC2C3CC(=C1)C23	O[C@H]1C[C@H]2[C@H]3C[C]([CH]1)[C@@H]23	
InChI=1S/C8H10O/c9-5-1-4-2-6-7(3-5)8(4)6/h1,5-9H,2-3H2	InChI=1S/C8H10O/c9-5-1-4-2-6-7(3-5)8(4)6/h1,5-9H,2-3H2/t5-,6-,7+,8-/m1/s1
