14
gdb 26935	2.50382	1.63799	0.9902	4.6541	68.46	-0.1961	-0.0335	0.1627	1088.5027	0.101297	-473.874218	-473.866273	-473.865328	-473.90645	29.945	
O	 0.054019035	 1.3217786353	 0.1853670979	-0.415411
C	 0.0506499592	-0.014218111	 0.0255313492	 0.351553
C	 0.069089829	-0.8338865219	-1.1075270926	-0.074023
C	 0.0982756292	-0.4985050711	-2.4911741148	 0.058531
O	 0.1118425608	-1.3347710934	-3.3924517052	-0.34913
C	 0.0524949106	-2.1960313485	-0.6101830742	 0.281879
O	 0.0630532751	-3.2784997379	-1.4070941927	-0.438516
C	 0.0256207282	-2.1555456131	 0.752038837	-0.203817
N	 0.0251744304	-0.7928085185	 1.1170996523	-0.301621
H	 0.073111924	 1.7462312891	-0.6787307887	 0.319416
H	 0.1087421568	 0.5844113744	-2.7527942342	 0.049267
H	 0.0829611446	-2.9333495006	-2.321487662	 0.311235
H	 0.0071248469	-2.9304451949	 1.496807743	 0.13426
H	 0.0078946701	-0.4387523277	 2.0581499449	 0.276378
137.3283	194.1205	205.9426	266.5892	305.8548	312.8054	334.2312	457.5158	489.622	552.7814	600.6834	633.4444	671.2297	685.5019	724.8887	757.749	812.8814	1014.2439	1051.8218	1095.7901	1195.7124	1231.9588	1269.9689	1359.9704	1386.5225	1434.1247	1485.6089	1574.0335	1608.4091	1665.647	1731.4219	2851.749	3296.4893	3552.6899	3680.8169	3834.2791
OC1=C(C=O)C(O)=CN1	Oc1c(C=O)c(O)c[nH]1	
InChI=1S/C5H5NO3/c7-2-3-4(8)1-6-5(3)9/h1-2,6,8-9H	InChI=1S/C5H5NO3/c7-2-3-4(8)1-6-5(3)9/h1-2,6,8-9H
