17
gdb 124392	3.26501	1.10986	0.96298	2.4962	79.41	-0.2381	0.0198	0.258	1248.8843	0.136493	-380.857752	-380.849101	-380.848157	-380.892152	31.956	
C	-0.1775187953	 1.4893255652	 0.0141808903	-0.376807
C	 0.0452423513	-0.0424379531	-0.0469563057	-0.288165
C	 0.7648675523	-0.4064680178	-1.2700877783	 0.333389
C	 1.360173208	-0.6750097283	-2.2791452737	-0.473931
C	 0.7488256808	-0.5544892215	 1.1882094681	 0.231102
C	 0.1730264882	-1.1151483415	 2.3108242167	-0.14416
N	 1.1849573876	-1.3760177982	 3.174180579	-0.180459
N	 2.3933186988	-1.0300330376	 2.6934174746	-0.224398
C	 2.1316557854	-0.5304114813	 1.4897987243	-0.076532
H	 0.7812704008	 2.0119204642	 0.0643956085	 0.13156
H	-0.7146306323	 1.8364390436	-0.8727739537	 0.123139
H	-0.757280628	 1.7468024739	 0.9049317439	 0.116332
H	-0.9439155915	-0.5176378517	-0.0892805826	 0.107401
H	 1.8832020533	-0.9278770679	-3.1679076498	 0.19564
H	-0.8538943941	-1.3441782075	 2.5500116798	 0.132624
H	 1.1250429172	-1.7974128862	 4.0853012964	 0.274633
H	 2.9394175474	-0.1797544642	 0.8645770921	 0.118631
22.8625	109.8459	165.1036	196.728	237.9848	321.1349	383.7685	458.602	511.2966	542.9326	628.4143	633.9974	672.6142	697.1369	709.1572	791.1648	866.1586	892.865	952.6174	983.0201	1016.9396	1061.8733	1075.6987	1113.03	1169.6355	1238.4943	1263.9484	1314.7022	1347.5963	1391.1687	1403.7954	1423.7016	1489.1189	1493.3614	1496.4693	1607.6013	2236.2962	3014.3572	3043.2457	3121.8478	3126.4514	3250.0698	3254.9852	3504.6165	3676.9563
CC(C#C)C1=CNN=C1	C[C@@H](C#C)c1c[nH]nc1	
InChI=1S/C7H8N2/c1-3-6(2)7-4-8-9-5-7/h1,4-6H,2H3,(H,8,9)	InChI=1S/C7H8N2/c1-3-6(2)7-4-8-9-5-7/h1,4-6H,2H3,(H,8,9)/t6-/m0/s1
