15
gdb 49332	2.34586	1.76537	1.02635	3.3636	68.9	-0.2657	-0.051	0.2147	1087.1827	0.112898	-454.014479	-454.006429	-454.005485	-454.047911	28.76	
N	-0.1174581165	 1.2615126247	 0.3008264345	-0.513317
C	-0.0147912535	 0.0219927332	 0.0760501673	 0.38528
C	-1.2101729917	-0.8861460648	-0.1382282218	-0.288563
C	-0.6737669407	-2.3033421362	 0.0866517081	-0.346626
C	 0.8398400008	-2.1868634369	-0.0461477603	 0.418819
O	 1.6351802399	-3.0729054747	-0.1510913114	-0.2986
N	 1.1533367081	-0.7903356997	-0.0132634618	-0.19561
C	 2.4488495743	-0.2610719083	-0.1270468909	 0.162253
O	 3.4644015191	-0.8956895583	-0.1181139983	-0.250606
H	 0.7736638752	 1.7345116926	 0.4428931935	 0.228205
H	-2.0238191638	-0.5951455108	 0.5258787935	 0.148519
H	-1.5632849652	-0.7545703974	-1.1666030428	 0.147665
H	-0.8891019473	-2.6720163997	 1.0954435141	 0.154151
H	-1.0433324368	-3.0506957044	-0.6167362514	 0.150629
H	 2.4227238881	 0.8373297109	-0.2464691924	 0.097801
64.0975	98.6926	130.7001	205.0962	234.2683	372.7983	473.1502	526.0683	544.4923	576.1283	630.6352	682.2787	743.7687	819.2689	877.8892	964.0787	1018.6329	1029.0452	1036.2686	1087.7302	1155.1621	1164.0286	1209.7582	1238.3906	1287.5212	1320.9931	1355.2231	1449.7876	1461.9566	1480.3897	1756.0266	1818.5131	1896.8002	2962.8865	3059.9671	3063.245	3126.7141	3137.7645	3496.3527
N=C1CCC(=O)N1C=O	[NH][C]1CCC(=O)N1C=O	
InChI=1S/C5H6N2O2/c6-4-1-2-5(9)7(4)3-8/h3,6H,1-2H2	InChI=1S/C5H6N2O2/c6-4-1-2-5(9)7(4)3-8/h3,6H,1-2H2
