25
gdb 122630	3.6873	0.65867	0.59691	1.8309	89.65	-0.2389	0.0833	0.3222	1982.421	0.227826	-389.48612	-389.475339	-389.474395	-389.523154	38.751	
C	-0.0977521893	 1.6216539134	 0.0285073363	-0.380444
C	-0.0787295775	 0.0907766777	 0.0350366946	-0.165032
C	 0.7206896858	-0.4979517249	 1.2025183909	-0.163274
C	 0.7468657104	-2.0315749852	 1.2106692916	-0.20383
C	 1.5259256906	-2.6035848242	 2.3918394352	-0.055061
C	 0.8063752846	-2.5781596412	 3.7593321813	-0.076748
O	 0.7024733959	-4.0144569664	 3.7892429953	-0.292349
C	 1.5263016062	-4.1465203921	 2.6052384834	 0.143241
C	 0.9180117586	-5.0796184634	 1.5768526732	-0.401988
H	 0.916360635	 2.0300690666	-0.0454042371	 0.11331
H	-0.675349186	 2.011094575	-0.8156470976	 0.111714
H	-0.5451063793	 2.0158904826	 0.9477979887	 0.113833
H	-1.1083244316	-0.2888330593	 0.0746919361	 0.095492
H	 0.3415871839	-0.2753595484	-0.9110995497	 0.094416
H	 1.7512369805	-0.1175129339	 1.1664720472	 0.091929
H	 0.2982009163	-0.1333421078	 2.1493374779	 0.095588
H	-0.2837348291	-2.4092120275	 1.2288585717	 0.100212
H	 1.1887359484	-2.3903005856	 0.2713190342	 0.094385
H	 2.5302783135	-2.1695334865	 2.4112600882	 0.069455
H	 1.4021375304	-2.1916246003	 4.5970119666	 0.093626
H	-0.1801018161	-2.0965911482	 3.7768545585	 0.095492
H	 2.5252149637	-4.5160651029	 2.8827926762	 0.066437
H	-0.0746338773	-4.7458497535	 1.2645353003	 0.120615
H	 1.5599513725	-5.1523977041	 0.6921290329	 0.11366
H	 0.8190820199	-6.0819670699	 2.0056997041	 0.12532
49.9468	64.0092	86.6689	103.2862	146.9037	202.6263	231.9826	247.4492	289.1148	354.1794	404.2898	423.67	522.1542	731.6868	744.8448	792.3087	841.6293	875.0073	893.0154	907.8239	928.6514	988.6568	1011.2019	1032.6815	1035.8368	1068.2811	1091.5017	1101.8438	1140.668	1158.3124	1164.5356	1202.6794	1242.0909	1248.7245	1287.4695	1294.2864	1318.9233	1334.6889	1349.3235	1364.53	1388.4506	1393.7747	1403.5532	1407.91	1414.9002	1479.1249	1484.1227	1486.9016	1495.9626	1500.4303	1500.9737	1512.4396	1525.2381	2977.7862	2999.8438	3003.0525	3010.5194	3018.498	3025.6654	3029.5105	3037.1541	3038.5628	3042.7697	3055.8214	3068.4656	3095.7529	3101.558	3104.6539	3123.1256
CCCCC1COC1C	CCCC[C@H]1CO[C@H]1C	
InChI=1S/C8H16O/c1-3-4-5-8-6-9-7(8)2/h7-8H,3-6H2,1-2H3	InChI=1S/C8H16O/c1-3-4-5-8-6-9-7(8)2/h7-8H,3-6H2,1-2H3/t7-,8-/m0/s1
