22
gdb 56162	3.52177	0.8258	0.80184	3.3932	84.17	-0.2396	0.0374	0.2769	1568.5326	0.192479	-404.380561	-404.369922	-404.368978	-404.418181	38.079	
C	 0.3780197057	-3.9726853464	 3.5959489351	-0.481882
C	 0.1450884135	-3.1116972876	 2.3624974439	 0.408269
O	 0.5612999104	-1.9693039995	 2.2882731852	-0.374818
N	-0.5529629688	-3.718342121	 1.3557981644	-0.307507
C	-0.9019253559	-3.046024165	 0.1143859894	-0.234276
C	-2.4033403796	-2.9280562393	-0.0950411073	 0.370415
C	-3.1326132308	-2.0874735093	 0.9347629574	-0.455836
C	-2.886721167	-2.8914892166	-1.5227378073	-0.305981
C	-3.1172555479	-4.1266126319	-0.6835304971	-0.307206
H	 1.4548697231	-4.0646687912	 3.7603795747	 0.152295
H	-0.0406861106	-3.4596966468	 4.4657217861	 0.151523
H	-0.0577125144	-4.9730906273	 3.5278355618	 0.107639
H	-0.899338	-4.6526437623	 1.4990309724	 0.24122
H	-0.4361391394	-2.0585034498	 0.1701745077	 0.147439
H	-0.4540155106	-3.5808589344	-0.7334148533	 0.095653
H	-2.759120052	-1.0574346261	 0.9372370814	 0.127412
H	-4.206938388	-2.0570553495	 0.7294175769	 0.109739
H	-2.9946892729	-2.4908277336	 1.9433639783	 0.116642
H	-3.7401520006	-2.2628261684	-1.7527173976	 0.113514
H	-2.1519313535	-2.9472841616	-2.3194493539	 0.111134
H	-2.5370428544	-5.013178729	-0.9214843043	 0.103177
H	-4.1273536963	-4.3370890336	-0.3485104339	 0.111434
23.8866	43.6951	62.6599	86.9969	212.9654	235.3094	252.1867	309.522	351.5775	364.0096	415.4765	457.9263	523.3667	620.9443	637.1057	722.4009	787.2164	868.8172	878.3816	915.729	942.5244	955.5487	993.7807	1021.8102	1049.7054	1050.4591	1080.532	1082.839	1109.0821	1132.8887	1188.7083	1248.5019	1264.8829	1323.8471	1355.8831	1391.9237	1399.0972	1423.739	1467.7735	1471.0387	1481.1281	1487.4657	1492.3793	1500.0477	1510.4127	1539.9235	1779.4909	3015.1582	3031.186	3049.1991	3095.0445	3104.5676	3106.2395	3122.4051	3127.5833	3128.2264	3130.3053	3201.4067	3216.8372	3644.8953
CC(=O)NCC1(C)CC1	CC(=O)NCC1(C)CC1	
InChI=1S/C7H13NO/c1-6(9)8-5-7(2)3-4-7/h3-5H2,1-2H3,(H,8,9)	InChI=1S/C7H13NO/c1-6(9)8-5-7(2)3-4-7/h3-5H2,1-2H3,(H,8,9)
