21
gdb 30649	3.64241	0.97346	0.82761	3.8084	84.74	-0.2135	0.0354	0.2489	1445.8364	0.183994	-383.320426	-383.311136	-383.310192	-383.355064	34.519	
C	-0.2074462704	 1.5897289352	 0.3775435783	-0.392051
C	-0.2056103628	 0.0595392733	 0.3139316667	-0.159078
C	-1.5060439372	-0.5640685734	-0.2532329794	-0.104428
C	-1.7394307932	-0.1838791384	-1.7224252151	-0.3959
C	-1.5053670156	-2.0565262014	-0.0855774772	 0.321611
C	-1.425769963	-3.1064273139	-0.9676619972	-0.173986
N	-1.4457653454	-4.3181862511	-0.3108196615	-0.258245
C	-1.5378600786	-4.0152125667	 0.9609669078	 0.006967
N	-1.5753589361	-2.6647297703	 1.1554601326	-0.311578
H	 0.7065292601	 1.9586928057	 0.8530642068	 0.115722
H	-0.2636427313	 2.0426014253	-0.6166530219	 0.122975
H	-1.0579224065	 1.9619098413	 0.9605674892	 0.111996
H	 0.6398524202	-0.2924623133	-0.2904410399	 0.106099
H	-0.0360613603	-0.3368213547	 1.3229198488	 0.08392
H	-2.3439977701	-0.1563708738	 0.3344328758	 0.074659
H	-0.9050108292	-0.5182976457	-2.3483008869	 0.123542
H	-2.6537825403	-0.6458241327	-2.1045194939	 0.124893
H	-1.8340028353	 0.8981771368	-1.8399122333	 0.115624
H	-1.3576459179	-3.0595537337	-2.0435176391	 0.102612
H	-1.5833081102	-4.7162961718	 1.7813127777	 0.12509
H	-1.657614457	-2.1922947567	 2.0402231615	 0.259557
45.2114	92.8935	127.5758	200.1265	227.1089	276.9544	286.5865	348.1927	399.6912	465.164	520.4645	658.1329	683.5657	724.3737	780.9591	803.8098	838.4469	855.7483	929.8765	966.3921	987.2112	1006.2605	1039.388	1095.6624	1116.9014	1129.9194	1148.7122	1174.4367	1230.1579	1281.2783	1286.8486	1321.3098	1351.3929	1367.8371	1395.849	1411.6325	1416.3011	1426.0339	1482.8276	1493.9112	1500.5627	1505.3481	1510.4517	1513.3407	1609.0814	2972.6052	3022.396	3032.9893	3042.2009	3056.5637	3098.622	3108.7099	3110.9998	3124.7506	3246.4525	3253.7927	3660.1718
CCC(C)C1=CN=CN1	CC[C@@H](C)c1cnc[nH]1	
InChI=1S/C7H12N2/c1-3-6(2)7-4-8-5-9-7/h4-6H,3H2,1-2H3,(H,8,9)	InChI=1S/C7H12N2/c1-3-6(2)7-4-8-5-9-7/h4-6H,3H2,1-2H3,(H,8,9)/t6-/m1/s1
