18
gdb 88798	3.1784	1.09168	0.88605	2.0396	74.07	-0.2463	-0.0314	0.215	1318.5916	0.14612	-439.049903	-439.040974	-439.040029	-439.084744	32.014	
C	-0.0865197767	 1.5377961085	-0.1934137687	-0.394446
C	-0.0764241333	 0.0547124787	 0.0864804733	 0.005779
N	 1.1938162892	-0.6634296671	-0.0838816668	-0.335149
C	 0.593875167	-0.5826045682	 1.2581217941	-0.045388
C	 1.3761485871	 0.1912884954	 2.2823250922	 0.027552
O	 0.5572003021	 0.7103855774	 3.3650748669	-0.295127
C	 1.3068118833	 0.0444356562	 4.400008605	-0.189882
C	 2.1808840285	-0.6132376829	 3.3245916568	 0.323646
O	 3.0586932679	-1.4182432272	 3.299956365	-0.26552
H	 0.8493083087	 2.0098331862	 0.1128869558	 0.12797
H	-0.212804017	 1.7201636081	-1.2657919186	 0.121717
H	-0.9120461956	 2.0257392889	 0.3347451911	 0.127428
H	-0.9770529369	-0.4642757125	-0.2408971461	 0.087622
H	 1.0526043466	-1.5871073852	-0.4816929556	 0.238313
H	 0.1109831039	-1.4744876847	 1.6544309692	 0.086166
H	 1.9699635753	 0.9778223864	 1.8012920283	 0.113412
H	 1.8382934765	 0.738748125	 5.0640396943	 0.132292
H	 0.6955903935	-0.6381707232	 5.0038033839	 0.133615
37.0834	92.8252	114.5073	158.0816	195.8076	257.834	380.4901	403.7872	447.3548	500.6485	577.7475	715.8338	775.0855	810.4272	844.0808	929.5742	942.4181	992.8082	1002.2815	1008.4325	1026.3858	1050.7201	1083.1954	1103.9304	1137.7921	1153.7988	1212.4963	1233.9922	1250.6698	1273.675	1288.8087	1301.846	1403.7246	1430.3115	1466.3427	1481.5938	1488.6949	1501.8304	1924.5758	3014.495	3039.6414	3044.1334	3061.8819	3101.7684	3104.1285	3119.5722	3133.6337	3518.6764
CC1NC1C1OCC1=O	C[C@H]1N[C@H]1[C@H]1OCC1=O	
InChI=1S/C6H9NO2/c1-3-5(7-3)6-4(8)2-9-6/h3,5-7H,2H2,1H3	InChI=1S/C6H9NO2/c1-3-5(7-3)6-4(8)2-9-6/h3,5-7H,2H2,1H3/t3-,5-,6+/m1/s1
