20
gdb 59483	3.01803	1.01855	0.97837	0.8052	75.22	-0.2453	0.0673	0.3126	1331.1958	0.169812	-440.230226	-440.220689	-440.219745	-440.265164	34.933	
C	-0.6511741588	 1.0963567615	 0.3193413845	-0.411875
C	 0.1126748007	-0.1371408468	-0.1630995772	 0.081105
O	 1.0368767703	 0.1787968763	-1.2021948562	-0.443222
C	 0.9685507972	-0.7140704637	 0.9457442436	 0.084945
O	 0.292155828	-1.3459834654	 2.0418583318	-0.271621
C	 1.1343544857	-2.1514827878	 1.2036415792	 0.017498
C	 0.4513239045	-3.2286677574	 0.4122569606	-0.033069
C	-0.3011579409	-4.2882291629	 1.1299687203	-0.242171
N	-1.0148895302	-3.2674093827	 0.340780694	-0.315615
H	 0.0452043726	 1.8731687876	 0.6512192418	 0.123783
H	-1.2695207157	 1.5089112697	-0.4858388471	 0.108485
H	-1.3111978619	 0.8365279725	 1.1523968568	 0.133754
H	-0.6007974874	-0.8987706701	-0.5038302634	 0.09669
H	 0.5474055999	 0.6081982002	-1.9106181522	 0.286169
H	 1.7801157834	-0.0499850567	 1.2493918354	 0.098867
H	 2.0656449702	-2.4610458013	 1.6820045876	 0.099803
H	 0.9554010949	-3.4850521004	-0.517497411	 0.105968
H	-0.3410878627	-5.2962443497	 0.7277126944	 0.119198
H	-0.3510051585	-4.2230660355	 2.2138872018	 0.12085
H	-1.3676944013	-2.5623506474	 0.9868227853	 0.24046
42.9138	107.0932	117.476	182.2455	240.8101	252.3838	259.5306	296.9082	357.73	433.3719	490.3337	559.4878	641.0271	745.8426	841.0791	854.5907	877.439	898.7908	954.8941	972.5622	1003.7496	1005.398	1074.6755	1103.3991	1121.8498	1123.7184	1138.558	1152.5607	1170.1788	1194.4082	1262.816	1280.8385	1291.4261	1315.955	1359.2028	1377.2826	1396.9476	1401.9746	1433.2639	1482.796	1492.6744	1508.3006	1515.7563	3027.2145	3030.7439	3086.4496	3099.606	3101.7191	3109.7237	3118.3988	3129.3112	3197.7639	3479.474	3824.2574
CC(O)C1OC1C1CN1	C[C@@H](O)[C@H]1O[C@H]1[C@H]1CN1	
InChI=1S/C6H11NO2/c1-3(8)5-6(9-5)4-2-7-4/h3-8H,2H2,1H3	InChI=1S/C6H11NO2/c1-3(8)5-6(9-5)4-2-7-4/h3-8H,2H2,1H3/t3-,4-,5-,6+/m1/s1
