19
gdb 17670	3.85278	1.50996	1.31309	0.909	71.67	-0.2178	0.0774	0.2952	997.9099	0.163933	-365.007055	-364.99858	-364.997635	-365.039596	32.342	
C	 0.2208095832	 1.3682123468	-0.3887965745	-0.444531
C	 0.1721398646	-0.0919369051	 0.0051405933	 0.289094
C	 1.4850945146	-0.8715439027	-0.0068932542	-0.361128
C	 0.8225331667	-0.5173943964	 1.2959062668	 0.07738
O	 1.4881469156	 0.40597062	 2.1086959056	-0.420317
N	-1.1050853609	-0.682666873	-0.3417095325	-0.112161
C	-1.2468354989	-1.2809846037	-1.6675528653	-0.220435
C	-1.2640055196	-2.1266725961	-0.4430759863	-0.234259
H	 1.1150151122	 1.8487798696	 0.0128335652	 0.127574
H	 0.2260760336	 1.4778667544	-1.4786495418	 0.115502
H	-0.6623592097	 1.890167976	-0.0060046505	 0.118569
H	 1.5143696624	-1.9148203716	-0.3019367727	 0.110972
H	 2.3769351177	-0.3103293946	-0.2639865887	 0.12157
H	 0.3366359171	-1.3341381278	 1.8314592861	 0.086171
H	 0.8231026717	 0.9051851845	 2.5951897795	 0.287971
H	-2.1660947329	-1.0497789852	-2.1979496025	 0.114854
H	-0.3567452167	-1.3430586758	-2.2911201857	 0.113363
H	-0.4066523231	-2.7741679509	-0.2750906081	 0.113545
H	-2.2004439075	-2.5154007384	-0.0525021937	 0.116266
79.3246	167.4601	197.1634	229.9808	266.3947	301.5647	315.4369	379.9998	466.1011	472.2024	551.4892	652.5523	781.8264	830.9233	852.325	899.1271	913.469	921.8865	984.3632	1021.7217	1030.9193	1039.1462	1109.6314	1116.9274	1118.3475	1120.6482	1170.7479	1177.1205	1189.6775	1228.7907	1297.2395	1325.0399	1339.3327	1408.5361	1424.5783	1479.2378	1488.2185	1493.1485	1508.752	1522.0337	3036.1016	3090.3931	3095.138	3098.4492	3106.0842	3131.9199	3135.593	3178.6321	3192.8283	3218.6543	3800.9245
CC1(CC1O)N1CC1	C[C@]1(C[C@H]1O)N1CC1	
InChI=1S/C6H11NO/c1-6(4-5(6)8)7-2-3-7/h5,8H,2-4H2,1H3	InChI=1S/C6H11NO/c1-6(4-5(6)8)7-2-3-7/h5,8H,2-4H2,1H3/t5-,6-/m1/s1
