25
gdb 113075	2.94272	0.92405	0.78159	0.9529	89.88	-0.2418	0.0798	0.3216	1603.6139	0.227452	-389.481021	-389.470236	-389.469292	-389.517003	39.535	
C	-0.2491663538	 1.5488447354	 0.2060246763	-0.379952
C	-0.0003566698	 0.0507895131	-0.0021249036	-0.195314
C	 0.7302994407	-0.5936055638	 1.1699519961	 0.049336
C	 0.0033493113	-0.7255541056	 2.5404118267	-0.281733
C	 0.7217943036	-2.0911245936	 2.7210760806	 0.163642
O	 0.0033335996	-3.1839382951	 3.2283030193	-0.240813
C	-0.2539840252	-3.0912127847	 4.6099711548	-0.237565
C	 0.9895103326	-2.1398287653	 1.1933287984	-0.079295
C	-0.0053136543	-3.0014248911	 0.4171642657	-0.385211
H	 0.6937411385	 2.0930119035	 0.3319956497	 0.111733
H	-0.7757323601	 1.9883059502	-0.6468952862	 0.110099
H	-0.8555344037	 1.7294972368	 1.1002459857	 0.117776
H	-0.957649461	-0.4583376654	-0.1660348557	 0.094905
H	 0.585280512	-0.0974940213	-0.9193456367	 0.092912
H	 1.6849104553	-0.0737600894	 1.3179287965	 0.065189
H	 0.1659337341	 0.0517743268	 3.2907218085	 0.09128
H	-1.0736484182	-0.8748917945	 2.4089392512	 0.102487
H	 1.6594841797	-1.9625957054	 3.2857694537	 0.058553
H	 0.6784065159	-3.0278691718	 5.1939191772	 0.101492
H	-0.8724329343	-2.2152078404	 4.857511741	 0.106932
H	-0.7928783151	-3.9954627436	 4.9037452444	 0.124341
H	 2.0073821058	-2.4358157859	 0.9206028429	 0.062681
H	-1.0436552398	-2.7600208632	 0.6613440324	 0.117137
H	 0.1285810307	-2.8738398977	-0.6618760391	 0.106713
H	 0.1431889653	-4.0576850181	 0.6571590002	 0.122675
68.1966	94.7014	100.8551	146.6893	190.8574	198.1153	220.9215	236.5606	286.1505	321.621	381.0193	431.986	469.0138	546.0915	661.8715	760.2317	794.0255	819.2587	915.8692	921.9818	946.7446	969.676	1012.2628	1027.2416	1043.5625	1064.2463	1116.5955	1142.7375	1153.3121	1182.1734	1183.4935	1186.3158	1222.738	1245.7784	1266.4069	1279.6678	1297.2329	1301.322	1344.5331	1368.4232	1381.3344	1403.7855	1410.3526	1417.5443	1479.2816	1484.1911	1485.3817	1490.3883	1496.1681	1498.0506	1499.0233	1507.8584	1510.1039	2962.8036	2972.8851	3017.0711	3018.1578	3020.4357	3029.4127	3040.8077	3046.984	3050.7152	3057.0385	3096.1602	3101.2142	3105.0899	3108.913	3111.0978	3117.2329
CCC1CC(OC)C1C	CC[C@H]1C[C@@H](OC)[C@H]1C	
InChI=1S/C8H16O/c1-4-7-5-8(9-3)6(7)2/h6-8H,4-5H2,1-3H3	InChI=1S/C8H16O/c1-4-7-5-8(9-3)6(7)2/h6-8H,4-5H2,1-3H3/t6-,7-,8+/m0/s1
