17
gdb 76433	3.14898	1.04413	0.97473	2.9993	68.49	-0.2531	0.0206	0.2737	1239.441	0.13505	-455.12551	-455.116235	-455.115291	-455.159718	34.194	
N	-0.3745132583	 1.4359436648	-0.0893137297	-0.572639
C	-0.0733380243	 0.0265980358	-0.0808743621	 0.226015
C	 1.0486541634	-0.4751016095	-0.9775768963	-0.439392
C	 2.3428508885	 0.1246143113	-0.6418383533	 0.266039
N	 3.3494084263	 0.6219550589	-0.3691743991	-0.299828
C	-0.3331506484	-0.6865513357	 1.2407406055	 0.067321
O	-0.7450718663	 0.0603558364	 2.3345297421	-0.432696
C	-1.3153335847	-0.8469799706	 0.1008116869	 0.009933
O	-2.5125051559	-0.1561563689	 0.2601959674	-0.43715
H	 0.0339325817	 1.9035177896	 0.7135966661	 0.263633
H	-0.0569051418	 1.8925574646	-0.9357607406	 0.245883
H	 1.1345745893	-1.5650177135	-0.9015759916	 0.155998
H	 0.826234223	-0.2575180499	-2.030882502	 0.152523
H	 0.3286358461	-1.5095692539	 1.4999941815	 0.104891
H	-1.7017318255	 0.1790578011	 2.2232823736	 0.293034
H	-1.4165691504	-1.7915882043	-0.4258068653	 0.101961
H	-2.2864185126	 0.7709385838	 0.0447259868	 0.294473
60.0744	103.1432	152.1046	236.9986	238.0092	276.358	285.0193	347.4829	392.7515	437.2874	439.3493	549.935	658.9739	680.2834	729.1574	743.1912	803.7566	871.112	886.5101	933.1059	962.3049	1024.0961	1070.596	1111.6897	1157.912	1184.6874	1212.8898	1283.7091	1314.8634	1333.316	1340.2872	1388.9997	1410.4444	1457.2214	1464.5266	1635.7953	2362.4191	3025.2466	3071.7351	3134.1138	3149.2569	3512.1356	3550.7651	3602.781	3693.859
NC1(CC#N)C(O)C1O	N[C@@]1(CC#N)[C@@H](O)[C@H]1O	
InChI=1S/C5H8N2O2/c6-2-1-5(7)3(8)4(5)9/h3-4,8-9H,1,7H2	InChI=1S/C5H8N2O2/c6-2-1-5(7)3(8)4(5)9/h3-4,8-9H,1,7H2/t3-,4+,5-
