19
gdb 50703	3.01279	1.35285	1.0471	3.0362	75.08	-0.2461	-0.0247	0.2214	1156.937	0.159846	-423.024507	-423.016287	-423.015343	-423.058604	30.736	
O	-0.8860521836	 1.1829659152	 0.3248855669	-0.254465
C	 0.1998592591	 0.7767752104	 0.0055796909	 0.144426
C	 1.4417336167	 1.6570627569	-0.0490292243	 0.006963
O	 2.5457105851	 0.8048370476	-0.282038841	-0.263555
C	 3.7674891758	 1.5315722673	-0.324776371	-0.071105
C	 3.8676803433	 2.399906688	-1.5835903487	-0.232134
C	 2.5526631254	 3.1187309921	-1.8867875701	-0.042322
C	 1.4400177443	 2.3587986077	-2.570193043	-0.288939
C	 1.3065433954	 2.7318694858	-1.1171821919	-0.027235
H	 0.3838823426	-0.2807990748	-0.2861169823	 0.091895
H	 1.5434125365	 2.1465685448	 0.9361051395	 0.092064
H	 3.8476134114	 2.1583098845	 0.5782041629	 0.092652
H	 4.5686802965	 0.7884613703	-0.2906640955	 0.109873
H	 4.6716130935	 3.1301225015	-1.4413956766	 0.103335
H	 4.1573919375	 1.7764560676	-2.4369518934	 0.110179
H	 2.6444517666	 4.167652698	-2.148910927	 0.090511
H	 0.817451458	 2.8783223027	-3.2896006322	 0.11409
H	 1.6353536488	 1.3179100868	-2.8081118561	 0.120397
H	 0.5965327772	 3.5105849976	-0.8611414571	 0.103369
23.826	92.941	173.5241	220.2532	287.3925	354.8376	408.6794	472.7245	536.0842	578.7151	690.5814	750.0688	791.0158	840.6606	860.7717	917.1228	943.6113	976.9481	997.6834	1067.6105	1073.9957	1081.8224	1097.281	1111.2049	1130.885	1145.4959	1162.5795	1225.1256	1259.6152	1283.3163	1312.3635	1333.6895	1354.2763	1369.4918	1394.5043	1409.4159	1421.0246	1479.1116	1493.272	1501.7226	1839.8948	2895.0503	2946.4886	2975.19	3035.7528	3074.9215	3092.2594	3131.6835	3154.9128	3173.0091	3219.9688
O=CC1OCCC2CC12	O=C[C@H]1OCC[C@H]2C[C@@H]12	
InChI=1S/C7H10O2/c8-4-7-6-3-5(6)1-2-9-7/h4-7H,1-3H2	InChI=1S/C7H10O2/c8-4-7-6-3-5(6)1-2-9-7/h4-7H,1-3H2/t5-,6+,7+/m0/s1
