27
gdb 96346	1.99764	1.55098	1.13033	0.0853	94.8	-0.2824	0.0763	0.3587	1280.9422	0.253459	-353.593457	-353.5836	-353.582656	-353.626927	40.048	
C	-0.0285364858	 1.5770276545	-0.1045592589	-0.420903
C	 0.064000645	 0.0475376321	-0.004035426	 0.043393
C	 0.6611576804	-0.532048565	-1.3016738251	-0.197625
C	 0.7016833027	-2.0641124201	-1.3038746602	-0.198722
C	 1.4429780714	-2.5956306753	-0.0721882319	-0.207039
C	 0.8372971928	-2.0248055576	 1.2157152705	-0.201005
C	 0.7961417579	-0.4755104565	 1.2743295108	 0.284237
C	 2.2267058859	 0.0875028648	 1.4008620802	-0.419385
C	 0.0088251096	-0.0790048937	 2.5376081833	-0.426464
H	 0.9576296197	 2.0341156443	-0.2385150294	 0.114128
H	-0.6366160392	 1.8612050604	-0.9701424774	 0.108366
H	-0.4887972032	 2.0266431761	 0.7795044438	 0.111083
H	-0.9660331225	-0.3352572414	 0.0686524299	 0.061265
H	 0.0729620459	-0.1711204738	-2.1543920809	 0.085611
H	 1.6757510431	-0.1372315171	-1.449140618	 0.091263
H	-0.326677761	-2.4522856958	-1.3003175983	 0.089072
H	 1.1688503484	-2.4314597352	-2.2248778969	 0.085641
H	 1.4037676283	-3.6907959351	-0.0450313334	 0.087077
H	 2.5056523026	-2.329780817	-0.1399619442	 0.093813
H	-0.1913249432	-2.4002980176	 1.3129498088	 0.083818
H	 1.3832825196	-2.4006746123	 2.0902400167	 0.082428
H	 2.8489044836	-0.134695689	 0.5297624442	 0.111861
H	 2.2189706549	 1.1737774982	 1.531988378	 0.111178
H	 2.7252421782	-0.3423233719	 2.2769326829	 0.106894
H	 0.4564313518	-0.5362785605	 3.4274587466	 0.105371
H	 0.0021669587	 1.0032405064	 2.6977219726	 0.109312
H	-1.0318759457	-0.4177456219	 2.4791802922	 0.105331
113.4007	177.3074	213.2001	230.6778	251.2204	284.8578	304.2562	323.1387	352.5287	361.102	423.2661	433.6479	469.6748	510.8607	557.6287	678.6603	795.7589	834.4101	851.5076	895.6087	914.9195	941.5651	942.7049	965.3257	989.6438	1017.8181	1027.2571	1039.7029	1083.9382	1108.5637	1114.6974	1174.0527	1178.648	1210.5263	1235.1263	1266.2649	1294.5633	1309.3006	1341.0592	1362.7301	1370.9142	1379.2494	1384.0797	1389.6778	1399.7722	1409.6338	1427.4815	1477.6202	1480.5051	1484.5218	1489.7897	1494.624	1500.3053	1505.3719	1511.1069	1511.7579	1515.4302	2977.0022	3003.2956	3007.7902	3012.9918	3020.8487	3024.5822	3033.7883	3037.7253	3046.4568	3050.3652	3056.912	3065.3191	3085.7685	3093.3815	3096.7278	3103.2965	3112.601	3113.7879
CC1CCCCC1(C)C	C[C@H]1CCCCC1(C)C	
InChI=1S/C9H18/c1-8-6-4-5-7-9(8,2)3/h8H,4-7H2,1-3H3	InChI=1S/C9H18/c1-8-6-4-5-7-9(8,2)3/h8H,4-7H2,1-3H3/t8-/m0/s1
