19
gdb 49014	2.67763	1.6005	1.33271	2.5305	78.85	-0.2447	-0.0209	0.2237	1029.8321	0.159376	-385.844039	-385.836289	-385.835345	-385.876626	30.402	
O	-0.0937863907	-0.0155463582	-0.0752531695	-0.244271
C	 0.017408104	 1.1744442257	 0.0858691811	 0.050203
C	 1.3029474205	 1.9341553962	 0.033886681	 0.28066
C	 1.4900375638	 2.9161809618	-1.1751023542	-0.31328
C	 2.8462214812	 2.2059208365	-1.5054192344	-0.239099
C	 2.6512786168	 1.2482017776	-0.2918455368	-0.069469
C	 3.1887203834	 1.664715718	 1.0971030148	-0.048594
C	 3.1241836849	 3.1490965249	 1.3225562095	-0.300823
C	 1.8557537994	 2.3520298254	 1.4269293452	-0.118737
H	-0.8799440795	 1.8088371977	 0.2859785883	 0.06933
H	 0.7321692318	 2.7936210889	-1.9535880254	 0.109495
H	 1.5457406397	 3.9756537504	-0.9144813922	 0.108095
H	 2.8331031895	 1.6870360844	-2.4662047696	 0.10862
H	 3.7341992161	 2.8416545858	-1.4713400586	 0.105326
H	 2.6666347276	 0.1761411973	-0.4821835963	 0.091243
H	 3.7943213917	 1.0283954678	 1.7310965686	 0.09074
H	 3.5220767746	 3.478804833	 2.2774904569	 0.116714
H	 3.2907942583	 3.8602954802	 0.5198927434	 0.113464
H	 1.2739235869	 2.3251949767	 2.3414456882	 0.090383
48.8616	165.5368	197.9293	268.7497	300.9282	359.3704	451.1342	551.6703	648.144	690.8039	732.7954	761.9777	778.0848	843.1549	903.0298	918.2801	934.3826	941.7407	950.7452	972.664	1003.1492	1038.3366	1063.9098	1090.3134	1104.7926	1114.1859	1133.301	1157.837	1191.4902	1219.7944	1230.4491	1255.942	1264.3653	1304.3535	1317.1082	1358.6515	1419.7853	1472.6359	1481.802	1503.2171	1816.5554	2838.4911	3057.3061	3067.3828	3103.7269	3120.6023	3125.8427	3129.8001	3167.7395	3181.711	3203.4634
O=CC12CCC1C1CC21	O=C[C@]12CC[C@H]1[C@H]1C[C@@H]21	
InChI=1S/C8H10O/c9-4-8-2-1-6(8)5-3-7(5)8/h4-7H,1-3H2	InChI=1S/C8H10O/c9-4-8-2-1-6(8)5-3-7(5)8/h4-7H,1-3H2/t5-,6+,7-,8-/m1/s1
