14
gdb 11489	3.56076	1.41757	1.1421	4.4977	63.45	-0.2644	-0.0879	0.1764	1023.2532	0.105758	-378.698698	-378.690707	-378.689762	-378.732854	27.239	
O	-0.612002306	 1.5117673359	-1.9306280638	-0.255245
C	-0.0249614179	 1.6690848477	-0.8915350067	 0.298237
C	 1.3811396961	 2.2371545363	-0.7847089981	-0.258876
N	 2.0830344778	 1.6907354063	 0.3578308142	-0.066302
C	 2.9239067179	 0.5185990892	 0.1155149092	-0.224992
C	 3.5328855762	 1.8526812139	 0.3735001217	-0.219576
C	-0.6841266731	 1.3339305384	 0.389976572	 0.247037
N	-1.2601718322	 1.0709903155	 1.3574026675	-0.308045
H	 1.8730833909	 2.0785328841	-1.7579663353	 0.124664
H	 1.2718665419	 3.3225288367	-0.6442163173	 0.150985
H	 2.9030433262	-0.2383814358	 0.8928897997	 0.136605
H	 2.9803923118	 0.1332408225	-0.90113042	 0.122743
H	 3.9988868068	 2.3582824779	-0.4702930371	 0.119418
H	 3.9655982235	 2.0846857713	 1.3417672239	 0.133349
21.9466	78.4388	119.8884	215.9172	277.0571	351.5827	383.7539	442.8561	592.7699	659.831	727.099	785.1083	843.0636	907.0912	992.8728	1039.1951	1048.1393	1113.2226	1125.9945	1156.5838	1173.8333	1203.9295	1255.8103	1330.1832	1354.9682	1457.3877	1492.0555	1519.5692	1802.8766	2338.8902	2977.1476	3032.2639	3101.2502	3105.7036	3190.061	3204.0951
O=C(CN1CC1)C#N	O=C(CN1CC1)C#N	
InChI=1S/C5H6N2O/c6-3-5(8)4-7-1-2-7/h1-2,4H2	InChI=1S/C5H6N2O/c6-3-5(8)4-7-1-2-7/h1-2,4H2
