21
gdb 63172	2.29146	1.60236	1.28571	2.3737	77.81	-0.2196	0.0633	0.2828	1098.5126	0.182114	-424.224953	-424.215851	-424.214907	-424.257919	35.899	
C	 0.0025529242	 1.6244794854	 0.0511779033	-0.462368
C	 0.0872242716	 0.1174455603	 0.1048472425	 0.301106
O	-1.1616889775	-0.4906136581	-0.1912975332	-0.477535
C	 1.2838221795	-0.7294962478	-0.3227307335	-0.197282
C	 2.6796409148	-0.1279182327	-0.380356557	-0.228974
C	 2.9442353177	 0.4950267779	 1.0209265788	-0.228152
C	 1.9159008521	-0.1370056123	 1.9888832545	-0.275001
C	 0.8104783249	-0.7245932652	 1.1299685151	 0.413362
O	 0.1242055371	-1.7702217324	 1.7341022908	-0.483711
H	 0.9332207253	 2.1103678609	 0.3459598848	 0.125164
H	-0.2370341621	 1.9580043832	-0.9663826643	 0.108556
H	-0.7944485332	 1.9768261785	 0.7135543218	 0.129233
H	-1.2547399002	-0.5455531357	-1.148335018	 0.286574
H	 1.0504325755	-1.5739541338	-0.9652661218	 0.07561
H	 3.3931469118	-0.9348086159	-0.5808547828	 0.105462
H	 2.8089751284	 0.6098605603	-1.180636373	 0.094348
H	 3.9706662845	 0.3134989437	 1.3506215288	 0.101093
H	 2.8273932767	 1.5813490094	 0.9876791771	 0.107039
H	 2.3548018388	-0.9740275851	 2.5427517409	 0.115745
H	 1.5460852278	 0.5767015727	 2.7323156285	 0.100591
H	-0.7182901275	-1.8375104432	 1.2634557168	 0.289138
149.666	166.2004	172.0804	213.0559	243.6162	267.3231	304.6515	394.2851	406.6353	434.1361	484.4546	521.7514	618.8104	657.6732	685.312	717.6951	818.0451	867.7343	903.0273	917.2679	959.7483	964.1952	1004.4268	1053.7906	1078.2477	1100.6172	1129.2359	1140.8781	1190.755	1215.036	1227.2024	1252.6511	1276.4137	1293.5992	1327.8639	1333.229	1337.4173	1410.4666	1416.862	1452.4724	1482.1383	1487.1526	1494.7211	1505.5809	1519.6414	3027.7215	3031.3221	3043.5936	3059.5851	3066.1177	3077.8071	3090.334	3101.7904	3145.9469	3148.6453	3744.9762	3803.1658
CC1(O)C2CCCC12O	C[C@@]1(O)[C@H]2CCC[C@@]12O	
InChI=1S/C7H12O2/c1-6(8)5-3-2-4-7(5,6)9/h5,8-9H,2-4H2,1H3	InChI=1S/C7H12O2/c1-6(8)5-3-2-4-7(5,6)9/h5,8-9H,2-4H2,1H3/t5-,6-,7+/m1/s1
