18
gdb 19761	3.06813	2.87301	2.40187	0.4667	74.28	-0.22	0.0274	0.2475	706.2088	0.158692	-310.689076	-310.683571	-310.682627	-310.718119	24.415	
C	-0.0043755645	 1.5467395981	 0.0105560021	-0.215672
C	 1.4717693735	 1.9004260779	 0.0262347213	-0.054246
C	 2.2102526855	 0.7327132128	 0.6225942638	-0.054245
C	 1.1818235668	-0.3289153241	 0.9684604785	-0.215672
C	 0.0309649612	-0.0114746924	-0.0345712167	-0.086275
C	 0.4870405231	-0.425987159	-1.4109922233	-0.095497
C	 1.6474144569	 0.1018206048	-1.814411566	-0.048255
C	 2.3379055412	 1.016492402	-0.8784692019	-0.074187
H	-0.4821084977	 1.8934597266	 0.9344458269	 0.093972
H	-0.550179764	 1.9698165215	-0.838562545	 0.09657
H	 1.7839555223	 2.9255676586	 0.1871100288	 0.079738
H	 3.0902446345	 0.8600227101	 1.241999316	 0.079738
H	 1.5513850921	-1.3532392892	 0.8585361407	 0.09657
H	 0.8389020778	-0.1953637921	 2.0012161876	 0.093971
H	-0.9186954562	-0.4668372788	 0.2497826937	 0.060913
H	-0.1001890019	-1.1068792636	-2.0170486838	 0.081295
H	 2.0920844918	-0.1106868098	-2.7811578285	 0.084558
H	 3.2791529175	 1.4480423566	-1.1990223842	 0.076723
345.0572	371.7125	375.1532	528.9595	546.5303	652.9391	695.9078	742.5588	783.3545	793.618	831.339	855.6929	888.8081	922.624	934.3072	947.3265	969.546	1004.4063	1024.5359	1043.6787	1047.3443	1088.3386	1091.9356	1134.3411	1151.217	1173.8228	1198.0879	1206.127	1281.2464	1295.595	1323.8609	1342.2134	1362.7181	1401.3767	1412.5471	1479.7465	1495.5704	1681.4844	3033.2252	3035.9452	3082.0941	3083.7454	3098.1042	3165.2639	3174.5398	3175.1574	3187.4762	3196.6692
C1C2C3CC1C=CC23	C1[C@H]2[C@H]3C[C@@H]1C=C[C@@H]23	
InChI=1S/C8H10/c1-2-6-7-3-5(1)4-8(6)7/h1-2,5-8H,3-4H2	InChI=1S/C8H10/c1-2-6-7-3-5(1)4-8(6)7/h1-2,5-8H,3-4H2/t5-,6+,7-,8+
