16
gdb 87670	3.37083	1.26645	1.04325	5.7409	74.39	-0.2309	-0.0294	0.2016	1129.8467	0.124713	-437.908177	-437.900385	-437.899441	-437.940359	30.349	
O	-0.2502238287	 1.4265520614	-0.018618948	-0.419821
C	-0.0590027704	 0.0440180642	 0.0110255197	 0.035952
C	-0.4321043836	-0.7196178508	 1.2540290512	-0.382092
C	-1.3420423972	-0.7607525384	 0.0307218186	 0.351253
N	-2.6012955129	-0.0885887801	 0.0202934854	-0.392928
C	-3.5130450769	-0.7376315848	-0.8069289843	 0.38431
O	-4.6152868819	-0.3338467855	-1.108784524	-0.381082
C	-2.827366607	-1.9970593056	-1.2212705189	-0.216073
C	-1.5719325445	-1.9900489098	-0.7588063792	-0.138129
H	 0.4040854384	 1.8354005554	 0.5582068049	 0.297147
H	 0.7639277267	-0.3251463875	-0.6001452855	 0.102349
H	 0.1263279851	-1.6139574239	 1.5088098215	 0.125326
H	-0.7989711965	-0.1420240783	 2.0955439945	 0.130919
H	-2.6539354229	 0.9085144412	 0.1578214659	 0.260063
H	-3.3152779196	-2.7492314976	-1.8237570593	 0.123326
H	-0.8134642782	-2.7517981799	-0.8851452426	 0.119479
107.633	161.9363	205.8851	283.4764	314.9376	387.8921	458.0472	487.1094	491.6279	542.5473	609.1049	699.0528	720.8972	805.6856	832.9389	876.7001	901.7813	927.3864	950.2431	963.1294	1024.1717	1048.8932	1084.2172	1102.003	1170.1277	1215.1463	1253.4396	1277.7886	1335.4026	1354.9258	1392.6793	1433.4486	1480.3585	1633.264	1820.2783	3106.8626	3132.7515	3215.4291	3229.1253	3252.5336	3648.2271	3803.4011
OC1CC11NC(=O)C=C1	O[C@H]1C[C@]21NC(=O)C=C2	
InChI=1S/C6H7NO2/c8-4-3-6(4)2-1-5(9)7-6/h1-2,4,8H,3H2,(H,7,9)	InChI=1S/C6H7NO2/c8-4-3-6(4)2-1-5(9)7-6/h1-2,4,8H,3H2,(H,7,9)/t4-,6+/m0/s1
