19
gdb 30134	3.63514	1.04474	1.03768	0.8543	82.7	-0.197	0.0488	0.2458	1256.8821	0.161509	-382.083955	-382.075665	-382.074721	-382.117193	31.901	
C	-0.124217217	 1.5085317547	-0.2251288115	-0.395588
C	-0.0313763817	 0.0214077575	 0.0009025175	 0.021331
N	 1.2961207959	-0.5985526941	-0.1332410067	-0.341587
C	 0.6460951099	-0.5929317552	 1.1907117499	-0.17918
C	 1.306333384	 0.1798079875	 2.2663854942	 0.322608
C	 2.5084391235	 0.8483165524	 2.1759332076	-0.175376
N	 2.7651477977	 1.4232630891	 3.3946520468	-0.239063
C	 1.7496054227	 1.1338282212	 4.2700401638	-0.07021
C	 0.829303602	 0.3634156634	 3.6001567764	-0.266899
H	 0.7040244187	 2.0256558755	 0.2642132892	 0.129787
H	-0.0924412338	 1.7410207798	-1.2950976981	 0.112828
H	-1.0632103358	 1.901785145	 0.1797881405	 0.111398
H	-0.8743209387	-0.5490853852	-0.3897058046	 0.075208
H	 1.2250628614	-1.5182151866	-0.5586082066	 0.227559
H	 0.2035558662	-1.5311040692	 1.525594511	 0.075324
H	 3.1884742823	 0.9372420828	 1.3457039656	 0.1305
H	 3.5802515367	 1.9675607406	 3.6141602964	 0.259632
H	 1.7685883975	 1.4961166788	 5.2853225371	 0.115408
H	-0.0880150016	-0.0288863179	 4.0131349717	 0.086321
59.8236	115.2683	168.2852	205.9687	274.3948	383.4172	426.7465	475.2367	516.4143	636.3809	642.8979	691.1112	718.136	785.3683	794.5791	823.9476	856.6025	905.4701	925.2727	971.2151	1004.8067	1017.512	1067.0165	1084.3253	1092.7762	1141.3737	1159.975	1179.0883	1235.3725	1249.1993	1257.6505	1302.2249	1392.1558	1403.923	1434.2751	1458.5433	1469.3302	1490.8459	1496.5243	1526.9099	1612.8071	3033.9631	3092.4076	3093.8889	3103.8063	3130.9552	3239.8642	3267.1982	3280.7116	3509.8255	3688.293
CC1NC1C1=CNC=C1	C[C@H]1N[C@H]1c1c[nH]cc1	
InChI=1S/C7H10N2/c1-5-7(9-5)6-2-3-8-4-6/h2-5,7-9H,1H3	InChI=1S/C7H10N2/c1-5-7(9-5)6-2-3-8-4-6/h2-5,7-9H,1H3/t5-,7-/m1/s1
