20
gdb 40758	2.75191	1.30366	0.99586	1.6669	79.4	-0.2408	0.0655	0.3063	1238.1001	0.1714	-403.079862	-403.071369	-403.070425	-403.11369	32.027	
C	 0.079963145	 1.5371585827	 0.1049829868	-0.240048
N	 1.1500978245	 0.58313904	-0.2319443533	-0.32447
C	-0.2115081307	 0.0842187779	 0.0449400081	-0.022916
C	-0.3457897894	-0.7367916203	 1.2953087215	 0.091593
O	-1.7264948108	-0.8542654784	 1.7285418654	-0.303473
C	-1.6803889868	-2.2985526157	 1.6914158829	-0.139544
C	-0.2458223538	-2.2601940019	 1.1803446102	 0.285741
C	 0.3881419845	-3.0780444786	 0.0967760672	-0.325377
C	 0.902924177	-3.1552403787	 1.5173818056	-0.323822
H	 0.1910985626	 2.0239012527	 1.0701011324	 0.123187
H	-0.3238715236	 2.171494628	-0.679215839	 0.113829
H	 1.3175100295	 0.5909393577	-1.2342275235	 0.233704
H	-0.8076176382	-0.2683458791	-0.7943856189	 0.084617
H	 0.2873336977	-0.3034066644	 2.0821174728	 0.07746
H	-1.8191565546	-2.7382684116	 2.6883219927	 0.099651
H	-2.4327147051	-2.7151248764	 1.0085372134	 0.099656
H	-0.1686930858	-3.9237631771	-0.2950346384	 0.112412
H	 1.0014568649	-2.5660479461	-0.6372979812	 0.121008
H	 1.8597920852	-2.6923837692	 1.73699423	 0.124272
H	 0.697665098	-4.0546851816	 2.0897825952	 0.112522
60.9279	76.851	143.9188	218.0731	264.5422	299.7994	354.2764	431.2127	480.0012	589.4814	776.0594	824.9007	865.0788	868.2936	881.8747	895.1126	916.938	946.2603	962.1307	982.6343	1007.7607	1021.02	1051.4943	1065.3724	1079.768	1095.7928	1117.5258	1145.3292	1151.9713	1189.5721	1227.1126	1244.0943	1251.0233	1270.8523	1285.7639	1323.9658	1334.5082	1410.3924	1458.1561	1462.9198	1507.1511	1513.0584	1525.4638	2997.5733	3009.2761	3038.7477	3109.9642	3122.4327	3126.0417	3130.604	3195.5443	3201.6979	3216.2926	3509.1609
C1NC1C1OCC11CC1	C1N[C@H]1[C@H]1OCC21CC2	
InChI=1S/C7H11NO/c1-2-7(1)4-9-6(7)5-3-8-5/h5-6,8H,1-4H2	InChI=1S/C7H11NO/c1-2-7(1)4-9-6(7)5-3-8-5/h5-6,8H,1-4H2/t5-,6-/m1/s1
