21
gdb 106311	2.79714	1.21968	1.01496	1.1775	78.95	-0.2319	0.0684	0.3003	1268.4739	0.180869	-424.184443	-424.174787	-424.173843	-424.218696	36.188	
C	-0.1821753125	 1.474813564	-0.3362312033	-0.42439
C	 0.052225707	-0.0199134415	-0.2694661292	-0.074639
C	 1.3595487716	-0.7733377436	-0.5181524854	-0.227598
C	 2.5636095102	-0.1028681444	 0.1393453819	 0.153815
C	 3.2157169791	 1.152139894	-0.4055968923	-0.418922
O	 1.8122451497	 0.0847819669	 1.3816608999	-0.344231
C	 0.7388647635	-0.7167703298	 0.8641563802	 0.412864
C	 0.1699589506	-1.741003202	 1.8093858638	-0.184491
O	-0.9447826424	-2.4304293076	 1.2723417497	-0.406537
H	-0.0587093442	 1.8621089621	-1.3531904805	 0.116027
H	-1.2025156464	 1.7126489041	-0.0152787627	 0.108052
H	 0.5045484919	 2.0058292916	 0.3257677328	 0.138058
H	-0.7666689068	-0.6220072876	-0.660509475	 0.089151
H	 1.413899798	-1.5984869109	-1.2164337817	 0.098004
H	 3.3389775149	-0.8584295248	 0.3297444699	 0.08309
H	 3.9020582651	 1.5707826455	 0.337998327	 0.126367
H	 3.8002693339	 0.9010829799	-1.2974915381	 0.11872
H	 2.4881680916	 1.9179657143	-0.6765590616	 0.126016
H	 0.9237870577	-2.5031949259	 2.0337061502	 0.120238
H	-0.0710278567	-1.2387531028	 2.7603181221	 0.103041
H	-1.6711911757	-1.8023939514	 1.2072754724	 0.287363
65.9675	154.9387	175.1617	190.0971	204.8114	226.6906	254.8742	311.4611	328.5041	360.4351	463.2342	562.4589	608.9699	669.2206	708.6616	756.5556	857.1493	870.5538	908.5622	963.0965	1005.2914	1022.314	1043.6237	1066.73	1080.9109	1095.4484	1129.5979	1143.7407	1151.1102	1179.6641	1217.8817	1271.2023	1308.2117	1331.0672	1381.228	1394.0027	1405.6681	1408.8655	1415.6213	1476.1361	1483.2277	1494.779	1500.0149	1506.0965	1511.1236	2977.9184	2999.2701	3032.761	3041.8007	3069.1145	3087.14	3102.2612	3120.0881	3134.7947	3148.0081	3194.0931	3820.2795
CC1C2C(C)OC12CO	C[C@H]1[C@H]2[C@@H](C)O[C@@]12CO	
InChI=1S/C7H12O2/c1-4-6-5(2)9-7(4,6)3-8/h4-6,8H,3H2,1-2H3	InChI=1S/C7H12O2/c1-4-6-5(2)9-7(4,6)3-8/h4-6,8H,3H2,1-2H3/t4-,5+,6-,7-/m0/s1
