15
gdb 90221	3.10314	1.83721	1.63072	1.1436	64.52	-0.2232	0.0321	0.2554	849.2962	0.110695	-457.566625	-457.559876	-457.558932	-457.597568	27.421	
O	 0.1939806585	 1.2251443277	-0.3830912558	-0.413153
C	 0.0720620914	-0.1168675731	-0.0160579871	 0.047044
C	 0.1747945099	-0.407719012	 1.5398827399	-0.354713
C	-1.3632371793	-0.4679461561	 1.5873011575	 0.279205
O	-2.1583763248	 0.7715818879	 1.5652864327	-0.351618
C	-2.7682251663	-0.0335823718	 0.5105399673	-0.012804
C	-2.5295224328	-1.4309073999	 1.2372299655	-0.009109
O	-1.8217186764	-2.0322107067	 0.1155410404	-0.338218
C	-1.4144645147	-0.6240135934	 0.0543292566	 0.255776
H	-0.4254721062	 1.7275196262	 0.1629291019	 0.294218
H	 0.7331787929	-0.7018117417	-0.6586232352	 0.118407
H	 0.6238839129	-1.3797080399	 1.753490983	 0.141578
H	 0.651835067	 0.3632357989	 2.1484223474	 0.132964
H	-3.6373896196	 0.3744227184	-0.0128646529	 0.106281
H	-3.1939016127	-2.0701106045	 1.8260598987	 0.104141
105.9039	226.6597	329.4484	389.0575	458.6658	481.6936	514.2047	528.1867	646.2742	717.8992	730.7592	760.0347	809.3846	817.0512	870.0528	905.0093	933.654	952.8954	1026.9317	1045.931	1089.1618	1105.139	1116.0985	1148.6926	1176.2782	1215.1102	1228.0843	1252.5949	1256.7202	1305.1112	1331.8917	1432.6495	1441.4717	3071.0952	3076.9296	3088.0662	3098.5372	3143.5205	3762.4833
OC1CC23OC4C2OC134	O[C@H]1C[C@]23O[C@@H]4[C@H]2O[C@]134	
InChI=1S/C6H6O3/c7-2-1-5-3-4(8-5)6(2,5)9-3/h2-4,7H,1H2	InChI=1S/C6H6O3/c7-2-1-5-3-4(8-5)6(2,5)9-3/h2-4,7H,1H2/t2-,3+,4+,5-,6-/m0/s1
