23
gdb 63654	4.00769	0.82022	0.78599	0.9299	87.6	-0.2279	0.0793	0.3071	1590.6716	0.204754	-384.41959	-384.409575	-384.408631	-384.454844	37.405	
C	-0.1086955498	 1.5051512892	-0.1220976324	-0.437635
C	 0.0226367132	 0.0076286715	 0.0800839061	 0.322413
C	-1.0153853749	-0.8066192627	-0.6693536209	-0.456211
N	 1.4087097464	-0.5031269808	 0.1133350918	-0.370647
C	 0.5776773208	-0.5765201238	 1.3340740086	-0.038465
C	 1.0427825968	 0.2128012132	 2.5352592822	-0.167355
N	 1.945180452	-0.6004590084	 3.3476385846	-0.06978
C	 3.3535309798	-0.5640288612	 2.95916542	-0.212395
C	 2.8857407397	 0.1316305699	 4.189350462	-0.224258
H	 0.7083913174	 2.0489251756	 0.3538913072	 0.125878
H	-0.088140212	 1.744536556	-1.1915315493	 0.11493
H	-1.057789452	 1.8738184259	 0.2832490489	 0.112598
H	-0.929878814	-0.6435822226	-1.7505034537	 0.118695
H	-0.8985610294	-1.8779034495	-0.4762573784	 0.112062
H	-2.0315498308	-0.5217095458	-0.3739987643	 0.121654
H	 1.461207076	-1.4163139032	-0.3318117405	 0.223002
H	 0.1927997664	-1.5587067505	 1.6061079679	 0.084065
H	 1.5172670548	 1.1511065222	 2.2056460464	 0.085433
H	 0.180010294	 0.4775525389	 3.160283001	 0.100289
H	 3.8862908333	-1.5080547251	 3.0313308074	 0.110746
H	 3.6247487181	 0.0497590977	 2.103516386	 0.126125
H	 2.8534633026	 1.2200416925	 4.1644097837	 0.105898
H	 3.0712608519	-0.2939512488	 5.1715794057	 0.112959
57.0452	75.932	121.9194	170.5307	199.1996	245.2218	263.827	326.833	369.4584	385.8733	432.2519	476.5623	523.1976	698.2365	765.5965	822.3206	845.187	872.9667	907.13	956.28	979.2917	985.4186	998.5066	1023.8086	1042.9515	1079.7015	1084.4035	1114.1095	1115.589	1136.7621	1157.8637	1171.8777	1173.2776	1232.6908	1290.1003	1307.7528	1323.8388	1345.7844	1373.3153	1410.2714	1421.8608	1464.1371	1476.555	1482.2636	1490.4033	1494.0229	1498.7036	1514.5928	1523.4248	2968.9442	3020.7124	3031.993	3040.3315	3082.2899	3088.5136	3093.1486	3098.4662	3107.1678	3116.4903	3136.8022	3176.6779	3194.7732	3491.5091
CC1(C)NC1CN1CC1	CC1(C)N[C@H]1CN1CC1	
InChI=1S/C7H14N2/c1-7(2)6(8-7)5-9-3-4-9/h6,8H,3-5H2,1-2H3	InChI=1S/C7H14N2/c1-7(2)6(8-7)5-9-3-4-9/h6,8H,3-5H2,1-2H3/t6-/m0/s1
