22
gdb 105799	2.2576	1.49634	1.22822	1.4227	86.04	-0.2141	0.0677	0.2817	1178.0489	0.193754	-367.125201	-367.116125	-367.11518	-367.158826	35.155	
C	-0.1233058352	 1.4852225908	 0.0251909379	-0.375978
C	 0.0459050649	-0.0400420276	 0.0314224587	-0.266328
C	 0.7260814766	-0.5362316207	-1.2123198347	 0.348273
C	-0.0139269177	-0.953007398	-2.4703651225	-0.048783
C	-0.0235206216	-0.4508677716	-3.9146243349	-0.444903
C	 0.9179175022	-1.9287350851	-1.7915347206	-0.185351
C	 2.4096392682	-1.5762356807	-1.9108125958	-0.033649
C	 2.7513648928	-0.3338267991	-2.6383588078	-0.259067
N	 2.219491911	-0.2287727051	-1.2664515623	-0.178096
H	 0.8481744864	 1.973993155	-0.0953618102	 0.134869
H	-0.7689923003	 1.8077502424	-0.7984954825	 0.110345
H	-0.5668888288	 1.8376373833	 0.9613537389	 0.108035
H	 0.6445116129	-0.3368434048	 0.9011744652	 0.105441
H	-0.9292710019	-0.5315761	 0.1308001305	 0.091742
H	-1.0272311838	-1.1880129298	-2.1436057522	 0.093075
H	 0.7274575772	-0.9446646179	-4.5356423872	 0.131943
H	-0.9984762925	-0.6629775233	-4.3644964054	 0.112675
H	 0.1316693773	 0.6308790022	-3.9832036311	 0.128583
H	 0.5881422835	-2.884049837	-1.401113753	 0.087905
H	 3.1782679101	-2.2485906145	-1.5421409221	 0.097401
H	 3.8085748996	-0.0795609756	-2.6694339709	 0.11807
H	 2.1883682694	 0.0305008073	-3.482720348	 0.123798
76.4018	127.7889	134.649	215.0093	225.7187	297.8916	315.1913	363.2188	407.5122	489.7689	579.2498	673.1539	704.7335	736.392	754.0908	780.228	842.5685	900.3399	916.4789	948.4868	978.0134	988.2594	1004.4468	1053.3687	1058.0157	1083.095	1093.8203	1106.2682	1112.8228	1134.2617	1166.9486	1208.1658	1233.797	1258.8937	1297.3415	1349.9309	1352.1659	1372.1642	1402.5575	1413.4676	1469.2197	1476.3652	1494.4233	1498.0542	1503.9436	1509.8513	1517.9285	3026.4072	3035.1205	3035.9955	3063.2638	3088.7424	3104.3444	3104.4847	3113.92	3117.3935	3127.1446	3153.9301	3180.7603	3270.0849
CCC12C(C)C1C1CN21	CC[C@]12[C@@H](C)[C@H]1[C@H]1CN21	
InChI=1S/C8H13N/c1-3-8-5(2)7(8)6-4-9(6)8/h5-7H,3-4H2,1-2H3	InChI=1S/C8H13N/c1-3-8-5(2)7(8)6-4-9(6)8/h5-7H,3-4H2,1-2H3/t5-,6+,7-,8-,9?/m0/s1
