21
gdb 81014	2.26644	1.73116	1.59065	1.5399	82.18	-0.2368	0.0109	0.2477	1010.5649	0.183984	-387.096755	-387.088743	-387.087798	-387.128433	33.234	
C	 0.007043178	 1.5435647148	 0.0733655335	-0.485096
C	-0.012125688	 0.0281588151	-0.009161514	 0.271067
C	 0.2173948171	-0.6663883847	-1.3863145295	-0.257592
C	-0.7188136659	-1.8068853911	-0.8848893855	-0.122292
C	 0.075326189	-2.7094642008	 0.0319118305	-0.07417
C	 0.8482043052	-2.1383254062	 0.960421474	-0.092984
C	 0.8956153741	-0.6296602753	 1.0533139281	-0.290044
C	-1.397512808	-0.7039357659	-0.0071323168	 0.140163
O	-2.0361635661	-1.0309301604	 1.1925569526	-0.443018
H	 1.019608419	 1.9417111078	-0.0642023438	 0.1102
H	-0.6342975408	 1.987805817	-0.6954705896	 0.109166
H	-0.3545204762	 1.8858030478	 1.0501239178	 0.121113
H	-0.233067042	-0.092628587	-2.2015699726	 0.09462
H	 1.2382310014	-0.9491311524	-1.6528135308	 0.096468
H	-1.3285846528	-2.3515095101	-1.6066040113	 0.060868
H	 0.0016942746	-3.7875640482	-0.072088871	 0.091445
H	 1.4507624502	-2.7230043841	 1.649965006	 0.091898
H	 1.9289181297	-0.2734155504	 0.935721172	 0.106956
H	 0.5821856813	-0.3024935782	 2.0554636197	 0.110284
H	-2.1203079241	-0.1340062711	-0.599123229	 0.081979
H	-1.4974176659	-1.7079201065	 1.6225123497	 0.278969
184.4921	207.5082	235.6952	249.0119	300.7838	368.1054	404.5532	459.239	472.1282	518.0909	580.4183	644.8064	702.2184	748.2877	803.1826	846.8124	865.8428	900.2067	916.4712	954.0643	975.7541	985.6253	1007.156	1017.1084	1097.6415	1107.4075	1132.3565	1157.985	1179.5665	1191.3082	1224.5697	1243.0839	1260.5798	1273.316	1304.1178	1340.107	1376.2707	1394.3791	1407.7561	1442.1957	1465.1247	1490.8317	1492.0605	1495.0141	1689.5529	2999.5693	3018.7378	3024.3528	3052.4189	3066.1601	3082.3442	3092.0496	3100.9544	3113.9047	3158.3681	3183.2435	3754.7206
CC12CC(C=CC1)C2O	C[C@@]12C[C@@H](C=CC1)[C@H]2O	
InChI=1S/C8H12O/c1-8-4-2-3-6(5-8)7(8)9/h2-3,6-7,9H,4-5H2,1H3	InChI=1S/C8H12O/c1-8-4-2-3-6(5-8)7(8)9/h2-3,6-7,9H,4-5H2,1H3/t6-,7-,8+/m1/s1
