20
gdb 69938	3.87945	1.37019	1.18397	1.1672	85.79	-0.222	0.0159	0.238	1109.8356	0.172667	-365.971522	-365.96389	-365.962946	-366.003124	31.231	
C	-0.1201361	 1.5215357554	-0.0325465155	-0.493138
C	 0.0871209839	 0.0298439857	-0.0071677042	 0.325929
N	-0.7022720029	-0.8121708592	 0.9462767157	-0.367911
C	 0.7652956125	-0.7244339263	 1.1059738905	-0.134169
C	 1.5605910347	-1.8461999012	 0.4684433981	-0.035847
C	 1.1511970833	-3.3614927784	 0.3486808154	-0.242732
C	 1.3182732692	-3.2566207581	-1.2149221881	-0.306551
C	 1.1662220247	-1.7703045868	-0.9886138902	 0.254564
C	 0.3309064928	-0.7672677818	-1.2625498545	-0.266612
H	 0.7157645335	 2.0252083633	-0.5296127985	 0.126682
H	-1.0353722532	 1.7837702901	-0.5765860964	 0.12372
H	-0.2063429616	 1.9296234409	 0.9801523762	 0.111332
H	-1.1260966485	-0.1999953579	 1.6427295947	 0.220139
H	 1.155096377	-0.196223647	 1.9703030648	 0.077419
H	 2.6346377953	-1.7475765399	 0.6623495147	 0.071886
H	 1.7866483019	-4.0862508613	 0.8624478373	 0.096822
H	 0.1058007163	-3.50089802	 0.6270450212	 0.132406
H	 2.3262657701	-3.5547249983	-1.5226618343	 0.106779
H	 0.5843871219	-3.7562374608	-1.8505982569	 0.109699
H	-0.2654361208	-0.6395236782	-2.15908634	 0.089581
154.9997	185.3705	207.4026	264.3279	300.2046	394.9637	468.9971	516.29	569.1417	678.62	692.6084	734.4703	783.622	814.0784	824.032	855.3712	888.6107	913.5923	935.1249	976.5198	981.0351	1023.331	1052.6503	1077.2589	1083.0125	1100.8423	1127.7205	1144.3527	1176.0883	1224.0903	1232.1899	1247.2715	1264.0029	1292.0504	1350.2139	1353.8913	1405.9118	1421.1748	1469.958	1483.509	1485.0904	1499.8718	1705.141	3023.3723	3039.324	3046.9056	3069.9901	3084.9124	3097.592	3109.9445	3144.7576	3158.1571	3191.2966	3466.7434
CC12NC1C1CCC1=C2	C[C@]12N[C@H]1[C@H]1CC[C]1[CH]2	
InChI=1S/C8H11N/c1-8-4-5-2-3-6(5)7(8)9-8/h4,6-7,9H,2-3H2,1H3	InChI=1S/C8H11N/c1-8-4-5-2-3-6(5)7(8)9-8/h4,6-7,9H,2-3H2,1H3/t6-,7-,8+/m0/s1
