19
gdb 127004	2.97823	1.22735	0.94631	3.1311	78.82	-0.2088	0.0419	0.2506	1281.7241	0.159644	-419.224079	-419.214777	-419.213833	-419.25936	32.923	
C	 0.7618024393	 1.2395344584	-0.7016769358	-0.388327
C	-0.5256309343	 0.4331798533	-0.5892668566	-0.062259
O	-0.3168791391	-0.851088035	 0.009361338	-0.275212
C	 0.2029449334	-1.8087072059	-0.781121095	 0.481327
C	 0.5046835431	-1.8979927061	-2.1293612112	-0.381627
C	 0.9894496845	-3.2171365557	-2.2698189664	 0.004538
N	 0.9928543345	-3.8861080338	-1.1249929809	-0.277342
N	 0.5110202805	-2.9991509054	-0.2115293952	-0.047528
C	 0.3143638213	-3.3897441593	 1.1658892726	-0.326516
H	 1.2118329845	 1.3816876917	 0.2848707108	 0.130838
H	 1.4885347453	 0.7369239242	-1.3447310878	 0.140566
H	 0.5468379636	 2.2243155979	-1.1286693082	 0.121993
H	-1.238999061	 0.9315803382	 0.0721178231	 0.118707
H	-1.0061077505	 0.3036614816	-1.5667122266	 0.117049
H	 0.4028277232	-1.1379051418	-2.8846823651	 0.102109
H	 1.3430001554	-3.6997981267	-3.1697114741	 0.106886
H	 0.5293898727	-2.5442303764	 1.8222884847	 0.143647
H	-0.7133957793	-3.7240088479	 1.3470318084	 0.136648
H	 0.9996104529	-4.2102907514	 1.3787358452	 0.154504
45.7713	57.8536	96.5346	181.5452	188.0749	243.2423	284.9097	324.3555	419.8143	539.7483	624.8181	656.4362	690.0375	740.7576	763.3976	818.2977	877.581	901.0961	944.2845	1017.9025	1063.1266	1077.1907	1116.9636	1151.9159	1195.4276	1210.0902	1246.0386	1305.5632	1322.0984	1368.7798	1395.9638	1412.3684	1433.7921	1463.7844	1484.876	1489.7814	1495.3701	1506.177	1513.0504	1554.3281	1594.2988	3035.592	3038.9084	3046.2555	3095.8714	3113.8758	3117.9031	3133.7156	3161.4457	3238.1288	3276.4591
CCOC1=CC=NN1C	CCOc1ccnn1C	
InChI=1S/C6H10N2O/c1-3-9-6-4-5-7-8(6)2/h4-5H,3H2,1-2H3	InChI=1S/C6H10N2O/c1-3-9-6-4-5-7-8(6)2/h4-5H,3H2,1-2H3
