18
gdb 73229	2.23084	1.96751	1.40635	3.9087	72.47	-0.2525	0.0107	0.2632	986.7217	0.14854	-439.088273	-439.080307	-439.079363	-439.120816	30.246	
C	-0.1941503251	 1.4722050808	 0.0200290788	-0.4568
C	 0.0374200638	-0.0186103683	 0.0144565931	 0.350194
O	-1.1747376885	-0.773861963	 0.2998306823	-0.314355
C	-0.5283099914	-1.5059993124	 1.3608831829	-0.086642
C	 0.7982519225	-0.7520354593	 1.1500807407	-0.14874
C	 1.9152843287	-1.5160528683	 0.4440319678	-0.110885
O	 1.5721812775	-1.5422299117	-0.9539640754	-0.24977
C	 0.6810777387	-0.5509432014	-1.258505478	 0.385388
N	 0.4007927891	-0.1591530496	-2.4235598288	-0.536378
H	 0.753609258	 2.0120080246	-0.0730416466	 0.120556
H	-0.8207838334	 1.7420912134	-0.8338779566	 0.159149
H	-0.6911789398	 1.7772758338	 0.9445448411	 0.117922
H	-1.0200350154	-1.339015219	 2.3260941525	 0.108117
H	-0.4918028734	-2.5841787189	 1.1589404383	 0.107266
H	 1.1491244243	-0.1558223422	 1.9917127926	 0.092646
H	 2.8842419877	-1.0148552126	 0.5579221824	 0.115563
H	 2.0177001596	-2.5516864078	 0.7801108898	 0.122545
H	 0.9354631571	-0.678264648	-3.1225071469	 0.224224
83.5519	136.8196	213.8024	231.0528	272.8734	300.2238	376.7943	466.1143	585.1833	639.3825	703.1804	718.7343	801.5832	869.4756	890.1724	902.7904	907.5491	956.3138	978.1752	1024.2346	1052.4761	1089.8508	1128.0445	1132.4682	1162.3393	1167.0421	1208.2541	1239.6744	1263.1721	1317.5427	1342.299	1354.0169	1407.7357	1413.5983	1477.7107	1484.8657	1517.4442	1526.064	1777.009	3015.3645	3029.8339	3044.4094	3060.4768	3090.7509	3117.6938	3120.2174	3133.5523	3469.7515
CC12OCC1COC2=N	C[C@]12OC[C@H]1CO[C]2[NH]	
InChI=1S/C6H9NO2/c1-6-4(3-9-6)2-8-5(6)7/h4,7H,2-3H2,1H3	InChI=1S/C6H9NO2/c1-6-4(3-9-6)2-8-5(6)7/h4,7H,2-3H2,1H3/t4-,6+/m1/s1
