16
gdb 33182	5.65111	0.81061	0.72459	5.0675	69.69	-0.226	0.0072	0.2332	1497.0697	0.124114	-475.023191	-475.01488	-475.013936	-475.057744	29.837	
O	-0.2887220032	 1.5524560707	 0.1176448418	-0.423701
C	 0.0440548854	 0.1873645947	 0.2482432212	-0.045878
C	-1.1318652171	-0.7080041807	-0.1434182335	-0.157272
N	-1.5442268819	-0.3391798149	-1.4925779318	-0.401449
C	-2.2096886829	-1.1433091368	-2.1805216522	 0.550136
O	-2.6400895204	-2.4029832391	-1.8300936952	-0.225364
C	-3.324641122	-2.9055108442	-2.9224856903	-0.054704
C	-3.3179966472	-1.9943840056	-3.8877579437	-0.044211
O	-2.6302448986	-0.8792408054	-3.4549900874	-0.218245
H	-0.7046733628	 1.6269355385	-0.7517285462	 0.292051
H	 0.9173622868	-0.0756415792	-0.3716929582	 0.082336
H	 0.3138539229	 0.0151273884	 1.2958840575	 0.099088
H	-0.8513159287	-1.7675598524	-0.0633774064	 0.100167
H	-1.9621744323	-0.5298542946	 0.5536579812	 0.113088
H	-3.7372848105	-3.8944518313	-2.8350823183	 0.166112
H	-3.7239316476	-1.9646445979	-4.8828218486	 0.167848
22.798	100.8	141.3518	183.8201	229.9827	321.3524	469.0375	501.5078	520.0833	566.6749	712.2186	732.8458	751.25	799.8706	847.4377	898.4308	909.6433	946.2015	1047.1333	1078.666	1100.7612	1112.4459	1118.1659	1131.6831	1201.6735	1227.887	1266.4717	1365.4616	1380.4888	1387.3702	1443.6862	1475.6609	1507.4	1680.8495	1837.8715	2966.2045	2998.501	3042.0524	3070.3816	3299.2145	3325.2019	3759.296
OCCN=C1OC=CO1	OCCN=c1occo1	
InChI=1S/C5H7NO3/c7-2-1-6-5-8-3-4-9-5/h3-4,7H,1-2H2	InChI=1S/C5H7NO3/c7-2-1-6-5-8-3-4-9-5/h3-4,7H,1-2H2
