21
gdb 96069	2.51551	1.50944	1.08349	2.0962	77.61	-0.2561	0.0809	0.337	1174.5468	0.183142	-424.23496	-424.226288	-424.225344	-424.267797	34.242	
C	 0.1395004346	 1.4928601625	-0.0708378775	-0.469733
C	-0.0258577416	-0.0030377114	 0.0735822348	 0.39746
C	-1.2427243138	-0.616529113	-0.6137136019	-0.26577
C	-1.8454938501	-1.8101464288	 0.14561327	-0.217909
C	-0.7624356026	-2.7527037308	 0.6815755668	-0.229398
C	 0.1136216082	-2.0397654325	 1.7182405579	 0.122457
O	 1.2102143227	-2.8415181002	 2.1414268033	-0.441638
C	 0.6085924579	-0.7036382397	 1.2063184572	-0.038342
O	 1.1990032396	-0.7471479151	-0.1039119695	-0.303853
H	 1.077460562	 1.8236993369	 0.381790422	 0.127822
H	 0.1512875311	 1.7757860541	-1.1294371231	 0.126178
H	-0.6897972626	 2.0246235739	 0.407968961	 0.120532
H	-2.0049508105	 0.1577652641	-0.7531379755	 0.09882
H	-0.9281223908	-0.9265642368	-1.6179900781	 0.114617
H	-2.4434902244	-1.4382582134	 0.988699603	 0.097882
H	-2.538179359	-2.3518028254	-0.5068734439	 0.098959
H	-1.2021596755	-3.6422276334	 1.1421970788	 0.101546
H	-0.1237010514	-3.092704021	-0.1427291331	 0.101498
H	-0.4738465403	-1.8606553979	 2.628356465	 0.087433
H	 1.8014370982	-2.9231932386	 1.3835442954	 0.285925
H	 1.1788524983	-0.1208101335	 1.9317344073	 0.085516
101.421	157.4387	216.0453	243.5075	268.3121	356.7555	364.1848	383.2914	395.778	452.5483	464.6781	577.7085	639.2603	718.3871	777.5004	857.3793	868.4175	892.9822	911.0883	972.8961	1005.4108	1034.7351	1053.9183	1073.9563	1087.3479	1116.8292	1153.3079	1177.3664	1207.3658	1235.4277	1280.6246	1293.307	1322.4734	1350.2517	1371.2531	1384.8226	1387.7196	1411.433	1425.8555	1457.0886	1477.8648	1484.6245	1489.2907	1496.4879	1501.9198	3016.7084	3027.8083	3028.9401	3033.7649	3039.1076	3067.8781	3076.494	3090.9182	3095.3527	3099.0605	3123.55	3790.2453
CC12CCCC(O)C1O2	C[C@]12CCC[C@@H](O)[C@H]1O2	
InChI=1S/C7H12O2/c1-7-4-2-3-5(8)6(7)9-7/h5-6,8H,2-4H2,1H3	InChI=1S/C7H12O2/c1-7-4-2-3-5(8)6(7)9-7/h5-6,8H,2-4H2,1H3/t5-,6-,7+/m1/s1
