18
gdb 29281	4.30408	0.98696	0.85072	2.1022	81.42	-0.177	0.037	0.2141	1353.1587	0.150152	-398.128186	-398.119606	-398.118662	-398.162193	32.354	
N	-0.0744215469	 1.2496745697	 0.6758951791	-0.607065
C	-0.0583323502	-0.0665211267	 0.1720582386	 0.269193
C	-0.9907600096	-0.6552609433	-0.656708088	-0.171593
N	-0.6147334129	-1.971081752	-0.8360959844	-0.314111
C	 0.5350696878	-2.2366010453	-0.1395138099	 0.344167
C	 0.9048980101	-1.0643151805	 0.4958406322	-0.321351
C	 1.1250190293	-3.5870701895	-0.1429056806	-0.124622
C	 2.1996361881	-3.9537112095	 0.8093909808	-0.233541
N	 0.861240833	-4.5404355682	 0.9752698297	-0.318164
H	 0.8591613904	 1.628203644	 0.777243371	 0.238702
H	-0.6123518569	 1.8782381909	 0.092512343	 0.236166
H	-1.8719748267	-0.2525913629	-1.1289630505	 0.104176
H	-1.134483749	-2.6533758343	-1.3593759675	 0.259026
H	 1.7826733281	-0.9251699249	 1.1088230784	 0.085205
H	 1.1195752609	-4.0894342075	-1.1090533287	 0.088394
H	 2.973623715	-4.6511234663	 0.5018794474	 0.11683
H	 2.528712135	-3.2004856551	 1.5192562175	 0.117644
H	 0.3725295143	-4.0323412988	 1.7103155919	 0.230944
31.2762	123.2006	165.5484	179.322	286.2861	363.1583	366.1942	438.11	472.9842	588.9794	629.2293	667.7642	683.6609	718.7329	763.5639	803.0977	811.1202	872.1771	956.9018	979.6785	1002.1926	1019.2898	1103.7685	1105.9228	1128.3366	1140.6733	1174.8363	1205.4122	1253.5149	1284.9317	1304.8432	1323.1717	1417.0392	1463.3352	1475.2146	1511.2235	1549.1501	1640.6295	1659.9674	3111.6354	3115.9792	3198.1764	3243.2201	3262.1731	3486.0107	3528.5616	3615.4103	3683.7169
NC1=CNC(=C1)C1CN1	Nc1c[nH]c(c1)[C@H]1CN1	
InChI=1S/C6H9N3/c7-4-1-5(8-2-4)6-3-9-6/h1-2,6,8-9H,3,7H2	InChI=1S/C6H9N3/c7-4-1-5(8-2-4)6-3-9-6/h1-2,6,8-9H,3,7H2/t6-/m1/s1
