18
gdb 96639	2.53917	1.2481	0.91088	2.8748	71.15	-0.234	0.0122	0.2462	1282.1398	0.146964	-472.451249	-472.44143	-472.440486	-472.48602	36.089	
C	 0.5035340271	 1.3218341034	 0.1986766205	-0.344378
N	 0.6133201563	-0.1164402703	 0.031110823	-0.308331
C	 0.5325452313	-0.5852736352	-1.1603872746	 0.34208
N	 0.3713144205	 0.098140735	-2.3218359577	-0.537815
C	 0.6507389464	-2.102548507	-1.3476752881	-0.021862
O	 0.4207405389	-2.4906685875	-2.6746353178	-0.444911
C	 2.0433438675	-2.6351039282	-0.9265189017	 0.376304
N	 2.4363273659	-2.3064449808	 0.3158328622	-0.507469
O	 2.6580089547	-3.3400335879	-1.7149460316	-0.388847
H	 1.3001533957	 1.8705483985	-0.3290030755	 0.110892
H	-0.4606344283	 1.7146658391	-0.1641516026	 0.10642
H	 0.5752678459	 1.5735115776	 1.2596009966	 0.123438
H	 0.1215320156	 1.0707008352	-2.3186560757	 0.259928
H	 0.2084433864	-0.4550156922	-3.1490430484	 0.275257
H	-0.0898673421	-2.5575754552	-0.6753010785	 0.126089
H	 1.2157099737	-3.013673851	-2.9008410128	 0.298535
H	 1.9404439102	-1.5349994883	 0.7597671529	 0.27403
H	 3.3710483744	-2.5513579952	 0.6012420497	 0.260639
64.5264	89.6645	152.7151	158.2412	226.9879	262.5252	301.6049	341.8772	362.1132	402.2392	461.8933	509.2149	569.0654	599.226	612.0275	656.4824	684.2411	717.3458	754.3795	900.5077	927.347	1008.7904	1108.454	1113.9261	1146.2043	1168.0871	1205.2386	1238.7763	1329.8381	1352.5076	1387.3791	1440.403	1452.0157	1495.4066	1504.8519	1599.564	1617.6107	1726.8516	1790.5926	2960.2824	3003.6274	3014.2801	3100.6297	3432.3732	3559.7165	3592.6861	3671.6262	3733.6477
CN=C(N)C(O)C(N)=O	CN=C(N)[C@@H](O)C(=O)N	
InChI=1S/C4H9N3O2/c1-7-3(5)2(8)4(6)9/h2,8H,1H3,(H2,5,7)(H2,6,9)	InChI=1S/C4H9N3O2/c1-7-3(5)2(8)4(6)9/h2,8H,1H3,(H2,5,7)(H2,6,9)/t2-/m1/s1
