20
gdb 89594	4.17719	0.91119	0.86709	4.1774	83.53	-0.2673	0.0337	0.301	1401.7251	0.171033	-366.007233	-365.998345	-365.997401	-366.041152	33.53	
C	-0.1557865972	 1.5992706429	 0.1450280027	-0.404682
C	 0.0285721282	 0.0883413867	 0.0865358078	 0.040005
C	 1.0228655128	-0.5243390435	-0.9638242898	-0.315292
C	 1.7536986636	-1.249819781	 0.1759396753	 0.386945
C	 2.266084275	-2.6691284897	 0.1019565541	-0.461542
C	 3.4707961365	-2.7862528253	-0.7261830191	 0.265092
N	 4.4163007565	-2.8599009358	-1.3864056582	-0.309552
C	 2.2820987075	-0.2422637227	 1.1549316995	-0.318094
C	 0.820642968	-0.6102216515	 1.2058903466	-0.135904
H	 0.7993744223	 2.1208512005	 0.2633202252	 0.11732
H	-0.6247448932	 1.97140645	-0.7723791601	 0.117384
H	-0.7967608187	 1.8838429996	 0.9866781093	 0.116627
H	-0.9489659233	-0.3911959594	-0.0248490667	 0.077445
H	 0.5286413726	-1.2001292388	-1.6663185301	 0.1049
H	 1.6307316655	 0.1851820355	-1.5341912051	 0.106472
H	 2.5003335631	-3.0425715992	 1.1057435934	 0.14973
H	 1.5007750757	-3.3374246984	-0.3125949544	 0.148462
H	 2.8819532682	-0.6479001601	 1.9641367432	 0.114561
H	 2.6084702275	 0.7373563781	 0.8159175512	 0.11454
H	 0.3872764095	-1.0517065579	 2.0966971251	 0.085582
57.3549	89.1719	168.3537	222.1477	231.4	318.5186	357.3245	393.9449	405.5936	440.153	527.3061	653.8684	725.8708	800.3623	852.64	889.1639	898.227	905.0671	941.9987	974.6426	980.5987	997.7585	1030.4135	1079.6792	1096.0789	1107.3289	1127.2386	1179.0764	1190.8767	1242.093	1262.1564	1281.176	1318.6069	1329.7408	1371.2393	1397.3013	1416.2397	1456.8863	1482.5642	1494.3661	1497.0436	1508.4797	2360.4426	3030.0025	3030.1255	3048.2077	3051.3391	3070.4637	3095.119	3100.8436	3105.9195	3114.8908	3169.0496	3198.4664
CC1CC2(CC#N)CC12	C[C@H]1C[C@@]2(CC#N)C[C@@H]12	
InChI=1S/C8H11N/c1-6-4-8(2-3-9)5-7(6)8/h6-7H,2,4-5H2,1H3	InChI=1S/C8H11N/c1-6-4-8(2-3-9)5-7(6)8/h6-7H,2,4-5H2,1H3/t6-,7-,8-/m0/s1
