18
gdb 128797	6.57785	0.80402	0.72623	3.1825	75.43	-0.2442	0.0229	0.2671	1568.7528	0.14787	-435.292671	-435.283265	-435.282321	-435.328733	32.115	
C	 0.0516575661	 1.3134867308	 0.0062951058	-0.228417
O	-0.0037468785	-0.0958985108	 0.0169855208	-0.249556
C	-1.3216852451	-0.5959611575	-0.0272908581	-0.175856
C	-1.2476904435	-2.0886020212	-0.0109264696	 0.345248
N	-2.2572748805	-2.9371653169	-0.0400230688	-0.364217
C	-1.637105716	-4.157943949	-0.0062820194	 0.333625
C	-2.3824577952	-5.449738958	-0.0217766586	-0.482981
N	-0.3133463609	-4.0995299201	 0.0415179892	-0.265461
N	-0.0850884935	-2.7618984746	 0.0376408876	-0.219653
H	 1.1055085426	 1.5971543133	 0.0430348231	 0.134782
H	-0.3996872684	 1.7288856475	-0.907337646	 0.114846
H	-0.4662049968	 1.7450111304	 0.8761196178	 0.114849
H	-1.9124488336	-0.242614402	 0.8334100709	 0.123823
H	-1.8468671525	-0.2587380396	-0.9356640941	 0.123808
H	-2.9946946799	-5.5332546597	-0.925256778	 0.136682
H	-1.6832894084	-6.2868916532	 0.0117114867	 0.13815
H	-3.059534494	-5.5169332142	 0.8356190281	 0.136684
H	 0.8465995981	-2.3830976653	 0.0682899625	 0.283641
20.5784	67.3624	102.6304	128.7381	192.4335	216.5633	305.3932	334.7581	350.1429	459.8263	580.2429	687.6341	703.8492	719.931	782.6116	987.9096	1009.1828	1022.145	1044.2967	1070.3053	1078.2887	1150.9085	1167.3715	1184.5661	1226.638	1234.2268	1277.545	1359.8167	1390.6993	1414.16	1471.0943	1478.2772	1480.261	1484.67	1487.2915	1500.7332	1520.3172	1547.4869	1594.2552	2968.9945	2983.3555	2994.4588	3030.5485	3045.877	3101.3287	3124.6319	3143.8191	3679.0846
COCC1=NC(C)=NN1	COCc1nc(C)n[nH]1	
InChI=1S/C5H9N3O/c1-4-6-5(3-9-2)8-7-4/h3H2,1-2H3,(H,6,7,8)	InChI=1S/C5H9N3O/c1-4-6-5(3-9-2)8-7-4/h3H2,1-2H3,(H,6,7,8)
