23
gdb 73868	2.2657	1.49872	0.97613	0.2205	93.88	-0.2165	0.0236	0.2401	1296.4924	0.205955	-351.172253	-351.162636	-351.161692	-351.206703	36.597	
C	 0.5250693709	 1.5701374441	 0.1164952526	-0.472875
C	 0.2312365399	 0.0930253622	-0.0569895516	 0.217464
C	-0.1824333814	-0.4386320971	-1.2196187575	 0.212965
C	-0.301980739	 0.3609564846	-2.4999913486	-0.476227
C	-0.5578409262	-1.9016040453	-1.4668260787	-0.344163
C	-1.2481073003	-2.6638034227	-0.3608119961	-0.050263
C	-0.7267841579	-2.8179497603	 0.8521120267	-0.052597
C	 0.5797971268	-2.1752649773	 1.2319422684	-0.26997
C	 0.4865236134	-0.6424665879	 1.2492711203	-0.257343
H	 0.1185893602	 1.9195642675	 1.0738272851	 0.117169
H	 1.6065662207	 1.7596208091	 0.1564032474	 0.119196
H	 0.1014912589	 2.2024654678	-0.6631574403	 0.119123
H	 0.1317682018	 1.3589030076	-2.4464256361	 0.117515
H	 0.2042781377	-0.1693902907	-3.3172650253	 0.119345
H	-1.3522425335	 0.4615465623	-2.8063389168	 0.119959
H	-1.201123352	-1.9225965392	-2.3529803474	 0.09859
H	 0.3497674568	-2.4484065967	-1.7739680729	 0.118451
H	-2.2053611342	-3.118525094	-0.6027358648	 0.084433
H	-1.2612358918	-3.3866497069	 1.6086857882	 0.082434
H	 0.9027884699	-2.5168259314	 2.2206050009	 0.092586
H	 1.3674199317	-2.4768988263	 0.527577171	 0.105774
H	 1.4271640995	-0.2450991785	 1.6590437942	 0.094409
H	-0.2846303718	-0.3422549208	 1.9749847611	 0.104025
55.4498	114.4472	126.4904	164.8857	232.1803	296.9137	320.4073	347.7627	390.7451	396.7468	492.9072	517.6588	569.6419	636.2369	694.3542	752.6567	860.3227	863.9398	892.6338	968.3164	987.4673	995.9549	1000.7787	1027.9454	1062.8807	1071.1066	1082.0421	1106.476	1128.9307	1201.9632	1227.7761	1229.8885	1245.1223	1284.3905	1352.6829	1374.2825	1385.4933	1402.6162	1415.3108	1421.4566	1468.7195	1471.654	1480.1692	1485.6654	1489.1989	1491.5706	1514.8965	1731.1528	1737.4602	2963.5668	2986.5413	3001.9535	3011.0477	3014.6024	3019.0836	3051.772	3055.0086	3057.8535	3070.0251	3133.5957	3145.8203	3152.3593	3170.8168
CC1=C(C)CC=CCC1	CC1=C(C)CC=CCC1	
InChI=1S/C9H14/c1-8-6-4-3-5-7-9(8)2/h3-4H,5-7H2,1-2H3	InChI=1S/C9H14/c1-8-6-4-3-5-7-9(8)2/h3-4H,5-7H2,1-2H3
