15
gdb 27778	2.07544	1.84273	0.98215	4.0075	73.53	-0.2277	-0.0359	0.1918	1140.5933	0.112712	-454.034866	-454.026551	-454.025607	-454.06772	30.711	
C	 0.0188837725	 1.505729353	 0.024177827	-0.466813
C	-0.0174391356	 0.0066298135	-0.0043335447	 0.334453
C	-1.1864869344	-0.6885884231	-0.1272442177	-0.330056
C	-1.1923431306	-2.118857242	-0.1568110724	 0.421084
O	-2.0934523855	-2.8993124783	-0.2627307325	-0.337365
O	 0.1275563579	-2.6880831385	-0.0388710425	-0.24856
C	 1.1993213814	-1.9008656254	 0.0827726617	 0.505203
N	 2.3427517896	-2.6061617441	 0.2166163374	-0.555189
N	 1.2070420061	-0.6002891345	 0.1007206649	-0.41433
H	 0.6484629694	 1.8775249863	-0.7911053096	 0.144371
H	-0.978475289	 1.9396159336	-0.0656000312	 0.127963
H	 0.4781617789	 1.8481064208	 0.957532777	 0.145278
H	-2.145035001	-0.1955945798	-0.2107294397	 0.114209
H	 2.3335912075	-3.5949343796	 0.0373520901	 0.27953
H	 3.2096119829	-2.0992848618	 0.1755808523	 0.280223
123.986	153.7934	179.2909	184.2455	240.4003	296.7999	346.5535	480.1976	512.8974	552.1186	571.2272	598.8743	625.8408	730.6569	785.7319	831.9896	837.7861	966.2922	1010.8408	1024.1234	1060.2052	1116.6641	1151.3922	1229.7384	1400.8533	1431.5442	1446.2784	1470.3238	1478.9094	1573.182	1628.9357	1667.4107	1874.3802	3041.6562	3099.3757	3139.5201	3228.6409	3624.0152	3758.349
CC1=CC(=O)OC(N)=N1	Cc1cc(=O)oc(N)n1	
InChI=1S/C5H6N2O2/c1-3-2-4(8)9-5(6)7-3/h2H,1H3,(H2,6,7)	InChI=1S/C5H6N2O2/c1-3-2-4(8)9-5(6)7-3/h2H,1H3,(H2,6,7)
