21
gdb 113447	2.70486	1.14595	0.94606	1.4861	79.95	-0.2134	0.0722	0.2855	1340.4315	0.180165	-424.182281	-424.172698	-424.171754	-424.217061	35.412	
C	 0.11034657	 1.1641830648	 0.0104076682	-0.236265
O	-0.1400108366	-0.0197678565	-0.7211352325	-0.232168
C	-1.3491152244	-0.6212455465	-0.3755268701	 0.033781
C	-1.5448790432	-2.0535712445	-0.8098941434	-0.399836
C	-1.366996306	-1.7190746775	 0.643601241	 0.42083
C	-0.2754572847	-2.1748275179	 1.5987597674	-0.374951
C	-1.447968345	-2.3620043066	 2.5942339041	 0.158271
C	-1.4519740941	-1.5290855573	 3.8591456828	-0.396794
O	-2.4048590178	-1.8739426632	 1.6096775365	-0.322768
H	 1.0773133118	 1.5494966582	-0.3215159608	 0.12729
H	-0.661182949	 1.9255308925	-0.1806852465	 0.109438
H	 0.1490868398	 0.9803468813	 1.0934977089	 0.108041
H	-2.2218807164	 0.0343003581	-0.413615864	 0.090131
H	-2.5326207363	-2.3371993094	-1.1572013017	 0.123954
H	-0.7141466567	-2.5364492601	-1.3149893642	 0.124442
H	 0.2544939987	-3.0854004711	 1.3140566752	 0.112374
H	 0.4500022584	-1.4084355668	 1.8805921664	 0.112162
H	-1.6577935044	-3.4137882764	 2.8268735721	 0.079265
H	-1.2238090342	-0.4821684373	 3.635724471	 0.118958
H	-2.4334704781	-1.5707490766	 4.3416552726	 0.128046
H	-0.7057299816	-1.9060649072	 4.5674575371	 0.1158
50.2856	117.482	139.9699	146.2712	210.3176	241.5916	283.9664	371.7509	374.2005	405.6663	442.3505	514.7384	607.2011	778.9702	804.0469	861.5781	889.186	907.8668	910.9054	936.1079	1001.2412	1043.4507	1066.7567	1075.0577	1102.3931	1119.2798	1130.9068	1171.4294	1182.887	1187.7022	1204.3477	1240.1283	1250.7275	1307.9472	1345.528	1380.4366	1402.2127	1413.1969	1468.6561	1482.4504	1484.5983	1487.9337	1496.67	1499.5091	1511.9851	2983.5333	3018.8979	3032.6258	3033.7257	3071.5855	3080.9691	3104.7398	3112.3887	3117.9153	3124.2299	3128.2967	3222.5287
COC1CC11CC(C)O1	CO[C@H]1C[C@]21C[C@@H](C)O2	
InChI=1S/C7H12O2/c1-5-3-7(9-5)4-6(7)8-2/h5-6H,3-4H2,1-2H3	InChI=1S/C7H12O2/c1-5-3-7(9-5)4-6(7)8-2/h5-6H,3-4H2,1-2H3/t5-,6+,7+/m1/s1
