23
gdb 94363	2.72035	1.42673	1.18304	0.1848	89.08	-0.2425	0.0902	0.3328	1173.8781	0.206659	-351.119538	-351.111066	-351.110122	-351.152306	34.208	
C	-0.7243508841	 1.1352150562	-0.0504572426	-0.420547
C	 0.1264248631	-0.1235579107	-0.1417060633	-0.011707
C	 1.5603777824	-0.0093403138	-0.7283611531	-0.231366
C	 2.0285395997	-1.0631604528	 0.3065891572	-0.293194
C	 0.7470694993	-0.7799162118	 1.1346669394	 0.375456
C	 0.9552011915	 0.0169199392	 2.4713103721	-0.315367
C	 0.345983851	-1.1606450215	 3.2423575886	-0.033046
C	-1.0529882367	-1.4166657653	 2.7624547912	-0.289007
C	 0.1021833486	-1.9115597562	 1.9319923601	-0.125095
H	-0.205937887	 1.9313983484	 0.4951391325	 0.112955
H	-0.9523317741	 1.5188522275	-1.05180029	 0.111371
H	-1.6784529172	 0.9496360385	 0.4547463818	 0.114759
H	-0.4281582545	-0.8993145668	-0.6852181202	 0.06773
H	 1.6977959896	-0.2378885026	-1.7881996301	 0.091303
H	 1.9935047225	 0.9764691994	-0.5285435497	 0.096452
H	 2.013908719	-2.0753583978	-0.1117101345	 0.095213
H	 2.9923933264	-0.9079668582	 0.7996029897	 0.092444
H	 2.0136058993	 0.183777455	 2.6870037941	 0.09893
H	 0.4254724933	 0.969612807	 2.5776780691	 0.092677
H	 0.7052749455	-1.5441555471	 4.189443297	 0.081778
H	-1.5961492894	-2.1898388779	 3.2971445501	 0.107354
H	-1.6772599722	-0.595375623	 2.4186622537	 0.105748
H	 0.2313467841	-2.9661877257	 1.7124497069	 0.075158
91.0062	129.1022	203.1713	232.8861	268.2582	331.2798	394.8444	417.2198	472.5159	524.0596	649.3975	744.626	785.7396	789.589	833.8873	864.7667	891.8329	908.672	934.9047	943.662	957.0592	968.2264	987.1155	1024.5475	1053.0309	1061.3994	1081.918	1101.278	1133.1689	1149.7711	1172.7197	1179.8126	1191.0597	1207.8845	1249.7021	1257.0083	1263.9094	1269.5319	1288.3943	1316.817	1363.0508	1371.7887	1409.3931	1476.2779	1484.1369	1490.5192	1498.919	1500.0119	1500.8194	3019.3741	3024.346	3039.336	3040.7466	3047.0996	3086.7696	3086.9125	3094.1738	3096.8585	3104.9462	3109.849	3161.3318	3181.7906	3198.4501
CC1CCC11CC2CC12	C[C@H]1CC[C@]21C[C@H]1C[C@@H]21	
InChI=1S/C9H14/c1-6-2-3-9(6)5-7-4-8(7)9/h6-8H,2-5H2,1H3	InChI=1S/C9H14/c1-6-2-3-9(6)5-7-4-8(7)9/h6-8H,2-5H2,1H3/t6-,7+,8+,9+/m0/s1
