15
gdb 130129	5.74459	0.99284	0.89596	2.2819	68.52	-0.2128	0.0055	0.2183	1251.5774	0.115067	-450.129425	-450.121726	-450.120781	-450.161947	28.616	
N	-0.6972393019	 1.2350373159	-0.4385826234	-0.585593
C	-0.1369003322	 0.0069343807	-0.1532831461	 0.388183
N	-0.4032227241	-0.6663221347	 0.9601444727	-0.292333
N	 0.3151740387	-1.8107020265	 0.761978222	-0.241584
C	 0.9492463831	-1.7678579474	-0.420520873	 0.376063
N	 0.6912764445	-0.6265830042	-1.0376033979	-0.381208
C	 1.8079234016	-2.8653982983	-0.9044246612	-0.041427
C	 2.9827996934	-3.3170821366	-0.1351790557	-0.168241
O	 1.7615653461	-4.057135724	-0.113380995	-0.23783
H	-0.1362226797	 1.7906722347	-1.0668867454	 0.258209
H	-0.9991328083	 1.7444756673	 0.3787725062	 0.257337
H	 0.261767276	-2.580149143	 1.408253528	 0.283836
H	 1.8052103989	-3.0108330252	-1.9824906963	 0.127388
H	 3.8092759804	-3.7953298156	-0.6577141738	 0.130617
H	 3.2378587834	-2.8057111931	 0.7908518789	 0.126582
75.2144	145.0334	166.36	292.7995	309.0787	360.639	420.4969	497.6008	562.2971	614.6391	664.4038	731.228	765.1128	796.1396	863.0497	903.4312	998.2526	1019.5704	1078.7599	1090.6721	1092.0929	1153.9988	1166.0622	1181.8671	1259.033	1297.9084	1368.0947	1440.3205	1489.4351	1520.5648	1575.0203	1601.5349	1648.9394	3092.1748	3143.9194	3187.205	3576.2168	3676.6162	3682.6005
NC1=NNC(=N1)C1CO1	Nc1n[nH]c(n1)[C@H]1CO1	
InChI=1S/C4H6N4O/c5-4-6-3(7-8-4)2-1-9-2/h2H,1H2,(H3,5,6,7,8)	InChI=1S/C4H6N4O/c5-4-6-3(7-8-4)2-1-9-2/h2H,1H2,(H3,5,6,7,8)/t2-/m1/s1
