17
gdb 107778	2.8444	1.66758	1.29	3.8797	71.54	-0.2442	-0.0014	0.2427	993.0264	0.136527	-421.791267	-421.783745	-421.7828	-421.823302	29.369	
O	 0.0200073284	 1.3899004946	-0.1276500191	-0.422365
C	 0.0951488496	-0.005860915	 0.1047998741	-0.193302
C	-1.2915384045	-0.5996099996	 0.1350500219	 0.17627
C	-2.3084328707	-0.4288202863	 1.3000853226	-0.277836
C	-2.9847497211	-1.6906495496	 0.7513014957	-0.066763
C	-2.9841735711	-1.5965563253	-0.7862256731	-0.191418
C	-1.760098987	-2.1165271968	 0.0196610946	-0.146163
C	-2.1650299037	-0.4016436329	-1.1172349971	 0.433
O	-2.0210823593	 0.3048931624	-2.0838330599	-0.37858
H	-0.4409563518	 1.4968671727	-0.9711980349	 0.29961
H	 0.6940432134	-0.5155853034	-0.667765538	 0.094515
H	 0.611566561	-0.1424586432	 1.0612103251	 0.108184
H	-1.8429922968	-0.6211716429	 2.2710117751	 0.110805
H	-2.8785046572	 0.5048658962	 1.335720027	 0.113079
H	-3.7237215436	-2.3202901344	 1.2306532588	 0.105725
H	-3.6658891874	-2.1672864711	-1.4012318686	 0.11525
H	-1.233616968	-3.0478003351	-0.1207381643	 0.119987
97.2617	143.9783	185.0169	259.2399	378.2715	407.5393	473.3055	541.1811	614.1533	702.3839	727.2112	758.7803	817.5216	819.3945	845.3301	882.7635	910.464	930.2956	983.963	1016.8902	1035.6952	1044.2859	1074.7182	1091.6602	1111.8958	1146.1782	1182.1489	1223.681	1253.616	1296.1597	1329.6044	1353.8892	1387.5588	1448.951	1498.5499	1507.4479	1847.0938	2970.9482	3047.3607	3063.4678	3105.3192	3195.8774	3222.0263	3245.3832	3750.0151
OCC12CC3C(C13)C2=O	OC[C@]12C[C@H]3[C@H]([C@@H]13)C2=O	
InChI=1S/C7H8O2/c8-2-7-1-3-4(5(3)7)6(7)9/h3-5,8H,1-2H2	InChI=1S/C7H8O2/c8-2-7-1-3-4(5(3)7)6(7)9/h3-5,8H,1-2H2/t3-,4+,5-,7+/m0/s1
