21
gdb 63697	2.49961	1.54614	1.20531	2.3278	77.95	-0.2399	0.0567	0.2966	1122.5467	0.180689	-424.197891	-424.188731	-424.187787	-424.231217	35.729	
C	 0.235998273	 1.4974788724	 0.0446576738	-0.445271
C	 0.0021406008	-0.0072058329	-0.0042002653	 0.321373
C	-1.4739856742	-0.3484766064	-0.2170435695	-0.439608
C	 0.928534837	-0.8196899467	-0.9819605343	-0.365806
C	 1.4185665591	-1.7051618561	 0.1936893986	 0.364512
O	 1.426130954	-3.0907605068	 0.0647115901	-0.474705
C	 2.6308770705	-1.1506181917	 0.9478808568	-0.108871
O	 1.7950170617	-0.2748330891	 1.7403275214	-0.290599
C	 0.5822062369	-0.8253689863	 1.1897655667	 0.004114
H	 1.2762008476	 1.7215544577	 0.2919732659	 0.128372
H	-0.0024491684	 1.9599960338	-0.9199161575	 0.107227
H	-0.3952991891	 1.9688462044	 0.8064115268	 0.112749
H	-1.827970074	 0.0266732112	-1.1838327682	 0.116224
H	-1.6453395944	-1.4318599322	-0.1998426262	 0.101379
H	-2.0961456259	 0.0951103458	 0.5682617844	 0.118568
H	 0.3715931012	-1.3776509859	-1.7427108776	 0.0895
H	 1.7131055446	-0.2483874482	-1.4865391596	 0.102717
H	 0.683014488	-3.3553842017	-0.4866398264	 0.281454
H	 3.1213264585	-1.9100566037	 1.5690658228	 0.110159
H	 3.3826306197	-0.604605608	 0.3654103423	 0.09939
H	-0.1065076969	-1.1820474894	 1.9619017552	 0.067123
65.9056	207.9006	218.0828	236.8384	259.1587	287.5153	311.511	336.5314	351.7648	396.2516	415.3979	522.2131	577.762	662.9312	762.6912	846.8199	879.188	910.6361	923.3397	955.5906	963.1427	989.2246	1004.4572	1017.3269	1055.4948	1093.6544	1109.0074	1141.1212	1165.7127	1210.9301	1221.8407	1240.3441	1285.6521	1297.6168	1316.5673	1348.0338	1399.7411	1408.7115	1419.0331	1474.9998	1482.0995	1487.4946	1499.5288	1507.4279	1517.4476	3016.3152	3016.3543	3028.6914	3037.9932	3062.7019	3068.2805	3079.8937	3087.9138	3093.2864	3095.2189	3122.6725	3819.1483
CC1(C)CC2(O)COC12	CC1(C)C[C@@]2(O)CO[C@@H]12	
InChI=1S/C7H12O2/c1-6(2)3-7(8)4-9-5(6)7/h5,8H,3-4H2,1-2H3	InChI=1S/C7H12O2/c1-6(2)3-7(8)4-9-5(6)7/h5,8H,3-4H2,1-2H3/t5-,7+/m0/s1
