16
gdb 25266	3.06994	1.76589	1.1367	2.6838	77.58	-0.2181	-0.0233	0.1948	1017.6188	0.127607	-400.833847	-400.826951	-400.826007	-400.865546	26.716	
O	 0.0309626397	-0.0391110622	 0.0024549068	-0.343864
C	-0.0156480004	 1.1623944758	 0.0092552697	 0.415609
C	-1.2495595019	 2.0717850786	 0.0319362066	-0.33945
C	-0.7290898681	 3.5344676997	 0.0318924435	-0.361857
C	 0.7638515067	 3.3656393395	 0.0091248306	 0.362159
C	 1.9305029635	 4.0744806751	-0.0043800044	-0.326879
C	 3.0023234755	 3.1125373022	-0.0249671619	-0.134771
C	 2.4597958824	 1.854763502	-0.023498111	-0.119995
N	 1.0896536432	 2.0189096908	-0.0025090607	-0.061663
H	-1.8698324475	 1.8375747035	-0.8372588834	 0.146678
H	-1.8443102385	 1.8285228911	 0.9163490167	 0.146675
H	-1.091074484	 4.0915662287	-0.8380364568	 0.130549
H	-1.0653074357	 4.0824142072	 0.9178292863	 0.13055
H	 2.0341039114	 5.1487702673	-0.0004244115	 0.105013
H	 4.0581734106	 3.3395880459	-0.0392671959	 0.107497
H	 2.8991173431	 0.8716873448	-0.0349866946	 0.14375
77.5492	140.3498	238.491	308.3528	533.6126	548.3259	619.2846	628.262	644.7767	663.3993	728.9271	736.1492	794.7769	834.2015	865.7356	913.3816	985.7511	1028.3757	1028.6554	1034.5719	1095.3116	1149.398	1160.3372	1236.0022	1242.6122	1269.1847	1303.1132	1316.7781	1425.2915	1433.4251	1462.5482	1499.5863	1502.8152	1618.2092	1849.9075	3048.0102	3075.0192	3075.3467	3115.2377	3239.7557	3254.1166	3288.147
O=C1CCC2=CC=CN12	O=C1CCc2cccn12	
InChI=1S/C7H7NO/c9-7-4-3-6-2-1-5-8(6)7/h1-2,5H,3-4H2	InChI=1S/C7H7NO/c9-7-4-3-6-2-1-5-8(6)7/h1-2,5H,3-4H2
