13
gdb 24517	4.12499	1.71338	1.21056	2.5384	71.27	-0.2547	-0.0402	0.2145	919.4103	0.09411	-415.688884	-415.683266	-415.682321	-415.718843	22.42	
O	-0.059356992	 1.3385472041	 0.0098263838	-0.208421
C	 1.25707792	 1.7265497185	-0.0004950785	 0.059815
N	 2.1326158276	 0.7854573728	-0.0142269388	-0.31928
C	 1.3594883349	-0.3810401353	-0.0132159456	 0.178401
C	 0.0091721051	-0.0238112729	 0.0016632721	 0.374857
C	-1.0017929718	-0.966478268	 0.0061152221	-0.291813
C	-0.5509278907	-2.2863900882	-0.0054814143	 0.026882
N	 0.7379420332	-2.6676421955	-0.0199055647	-0.276972
C	 1.6888106207	-1.7344060235	-0.0238365042	-0.073404
H	 1.4269501571	 2.7926386534	 0.0037574712	 0.162142
H	-2.054439356	-0.7148083667	 0.0175666191	 0.122178
H	-1.2781204594	-3.094039948	-0.0029957591	 0.117561
H	 2.7234856112	-2.0652465107	-0.035578023	 0.128054
231.9161	259.8341	419.7717	421.7804	557.9609	617.215	642.2943	652.4145	814.1986	815.5502	844.8998	882.0718	887.1337	935.1237	957.7107	983.2577	1041.8703	1081.6801	1173.1064	1206.6992	1269.591	1312.5977	1326.6446	1352.6114	1458.9831	1488.6108	1565.5797	1626.204	1653.0671	3164.8757	3173.5484	3217.7943	3273.0128
O1C=NC2=C1C=CN=C2	o1cnc2c1ccnc2	
InChI=1S/C6H4N2O/c1-2-7-3-5-6(1)9-4-8-5/h1-4H	InChI=1S/C6H4N2O/c1-2-7-3-5-6(1)9-4-8-5/h1-4H
