23
gdb 59424	3.09931	1.02851	0.90504	1.7124	86.29	-0.2533	0.0769	0.3302	1429.1286	0.204171	-388.274882	-388.265073	-388.264129	-388.309753	36.956	
C	 0.5458871687	 0.6316048577	-1.6682799113	-0.388777
C	 0.1330921182	-0.1892406333	-0.438052749	 0.007202
C	 0.0945813861	 0.6700037401	 0.833924167	-0.394056
C	-1.2115373941	-0.8437381507	-0.6702329703	-0.043527
O	-1.2514083248	-1.9310341653	-1.613348693	-0.302524
C	-1.5368375146	-2.2115725974	-0.253683393	 0.454743
C	-0.7449363202	-3.1726105532	 0.6400758662	-0.309262
C	-2.0690244593	-3.430931509	 1.4221490895	-0.212517
C	-2.8679118835	-2.7673596897	 0.2597730099	-0.311427
H	 1.5405530709	 1.0684616732	-1.5328770577	 0.109201
H	 0.564079659	 0.003309236	-2.563117322	 0.131769
H	-0.1580308226	 1.4535528004	-1.8455550025	 0.110594
H	 0.8683625554	-0.9915318531	-0.3003842158	 0.077075
H	-0.1625057423	 0.0737828668	 1.7156393508	 0.113855
H	 1.0658539279	 1.1406485872	 1.015734938	 0.1159
H	-0.6487090701	 1.4711772963	 0.7449340299	 0.114926
H	-2.0452647963	-0.1434002952	-0.780574111	 0.081093
H	-0.413933803	-4.051727908	 0.079217031	 0.113998
H	 0.105196422	-2.7712151859	 1.1972269088	 0.104354
H	-2.3080340239	-4.4708680616	 1.6497166789	 0.10437
H	-2.1227018317	-2.849617267	 2.3455590513	 0.106365
H	-3.6514083308	-2.0512045161	 0.5195362198	 0.102668
H	-3.2800541309	-3.5054326423	-0.4349630156	 0.113976
55.0504	99.3322	135.3048	153.4025	218.5131	246.8859	276.2976	335.2755	365.9315	397.638	474.3729	505.4975	578.1963	716.8052	780.4002	822.6825	861.4556	880.8492	913.3393	922.4132	931.2879	955.789	969.6805	1003.8864	1025.0312	1060.067	1136.9925	1143.8689	1172.5529	1177.2121	1200.8608	1205.2247	1225.0657	1244.7703	1268.6002	1275.8202	1312.5572	1344.2309	1369.2849	1396.8572	1417.3258	1469.772	1481.0042	1488.4107	1489.5891	1490.9778	1503.4462	1509.7803	1525.724	3026.1404	3028.6839	3032.3514	3054.8191	3058.6558	3062.8357	3072.614	3090.8124	3096.3898	3103.2874	3103.8669	3108.7009	3115.6256	3130.6558
CC(C)C1OC11CCC1	CC(C)[C@H]1OC21CCC2	
InChI=1S/C8H14O/c1-6(2)7-8(9-7)4-3-5-8/h6-7H,3-5H2,1-2H3	InChI=1S/C8H14O/c1-6(2)7-8(9-7)4-3-5-8/h6-7H,3-5H2,1-2H3/t7-/m1/s1
