21
gdb 113406	2.96377	1.32006	1.07449	1.3137	84.12	-0.2551	0.0745	0.3295	1193.4529	0.183046	-387.011656	-387.003271	-387.002326	-387.044731	32.895	
O	 0.2215133874	 0.4602845053	 0.9905799979	-0.417917
C	-0.1328738917	 0.1154541903	-0.3452627964	-0.094387
C	-1.4880784433	-0.5379519444	-0.3141509583	-0.12285
C	-1.8711359299	-1.5420214321	-1.4054988321	-0.426665
C	-1.6246665537	-1.9866978261	-0.0049130914	 0.493814
C	-0.6588102966	-3.0222040197	 0.6079813108	-0.122441
C	-1.2634963311	-2.6289354394	 1.9909438424	-0.217348
C	-2.4820365909	-2.7491119198	 1.0221422229	-0.133611
C	-1.8230883308	-4.051958297	 0.4725142536	-0.217885
H	 1.0653390315	 0.921610821	 0.9683759272	 0.284537
H	-0.158071883	 1.0109328494	-0.9869644289	 0.085238
H	 0.6002355677	-0.5810203609	-0.7834232761	 0.078991
H	-2.284113134	 0.1173438865	 0.0325140827	 0.086922
H	-2.8878939822	-1.5082153355	-1.7846472223	 0.110048
H	-1.1256730099	-1.7678882515	-2.1635189165	 0.107411
H	 0.3929861057	-3.1771741052	 0.3635944116	 0.066777
H	-1.1999735194	-3.3861759576	 2.7777869181	 0.080895
H	-1.0169742459	-1.6298903321	 2.3538546756	 0.116144
H	-3.5354726166	-2.5845078862	 1.254578791	 0.067403
H	-2.0990558128	-4.352712135	-0.5411361527	 0.090441
H	-1.7944150406	-4.9050458101	 1.1564025908	 0.084482
77.1246	121.2493	166.9302	228.5312	256.4971	312.8247	398.3829	443.9467	522.115	606.8554	622.6057	770.0949	794.9406	823.4657	871.0992	893.711	903.5913	939.2004	983.6125	986.4712	1019.3688	1021.0746	1040.6866	1058.006	1066.724	1072.619	1096.949	1108.865	1120.7091	1160.9536	1161.9676	1186.8771	1196.7613	1228.7735	1243.1932	1245.1443	1257.9613	1273.8244	1339.7845	1426.1851	1464.0847	1493.9889	1505.7993	1517.5072	1539.6961	2961.8679	2989.5888	3049.1583	3054.3393	3097.6673	3104.0405	3113.6128	3117.6813	3132.9337	3136.0907	3195.9725	3824.043
OCC1CC11C2CC1C2	OC[C@H]1C[C@]21[C@H]1C[C@@H]2C1	
InChI=1S/C8H12O/c9-4-7-3-8(7)5-1-6(8)2-5/h5-7,9H,1-4H2	InChI=1S/C8H12O/c9-4-7-3-8(7)5-1-6(8)2-5/h5-7,9H,1-4H2/t5-,6+,7-,8-/m1/s1
