19
gdb 103552	2.49361	1.28688	1.04714	0.681	73.04	-0.2495	0.0161	0.2656	1208.4412	0.158477	-456.338251	-456.328557	-456.327613	-456.37267	35.813	
C	-0.2927229916	 1.6344409119	 0.111499561	-0.441712
C	-0.0728417105	 0.1353909048	 0.1210104376	 0.387062
C	-1.313123992	-0.6613774595	-0.2671970692	-0.104146
O	-1.7487864969	-0.3526506554	-1.5762365645	-0.417036
O	 1.0235387803	-0.2433442023	-0.8131750466	-0.311338
C	 1.8253879338	-0.6697517402	 0.2244932937	 0.406807
N	 3.0218697253	-1.0461315462	 0.2355532124	-0.549271
C	 0.7644705949	-0.4493233342	 1.2986729596	-0.180311
N	 1.0164961254	 0.3857786224	 2.4503659055	-0.514859
H	 0.6551616264	 2.1744785366	 0.181071367	 0.117162
H	-0.7977597437	 1.9283571063	-0.8113129192	 0.141398
H	-0.9151030693	 1.9214674676	 0.9638834252	 0.138964
H	-1.0978666714	-1.7360063878	-0.1596840531	 0.090789
H	-2.1382955812	-0.4143796944	 0.4096178111	 0.120857
H	-1.0092879334	-0.5471797302	-2.1643511745	 0.294068
H	 3.4307448751	-1.0272138987	-0.700743885	 0.226977
H	 0.348155932	-1.4010679765	 1.6438382362	 0.108387
H	 1.462620322	-0.1600849529	 3.1798683509	 0.246506
H	 1.6647051849	 1.1318134387	 2.218175942	 0.239696
69.7108	108.6993	177.1679	189.8589	207.5723	243.4227	259.8609	322.6191	363.492	390.8929	434.9145	451.23	590.0671	663.5487	689.1129	796.0081	828.2941	856.805	873.5267	930.9562	938.5628	974.3251	1015.2093	1071.6219	1106.1138	1134.5694	1179.0922	1205.7853	1224.831	1261.0292	1297.677	1302.9364	1387.9432	1409.3588	1425.0645	1433.1055	1479.9321	1493.8077	1496.7692	1671.9133	1816.2407	2982.8767	3050.3165	3065.0062	3076.5967	3123.4546	3136.0678	3469.1084	3508.4496	3584.1038	3793.8691
CC1(CO)OC(=N)C1N	C[C@@]1(CO)O[C]([NH])[C@H]1N	
InChI=1S/C5H10N2O2/c1-5(2-8)3(6)4(7)9-5/h3,7-8H,2,6H2,1H3	InChI=1S/C5H10N2O2/c1-5(2-8)3(6)4(7)9-5/h3,7-8H,2,6H2,1H3/t3-,5+/m1/s1
