17
gdb 103209	3.23219	1.51192	1.29229	1.4957	66.4	-0.2241	0.0582	0.2823	994.4867	0.135182	-458.877012	-458.869255	-458.86831	-458.90904	30.624	
O	-0.1222661121	 1.4483031699	-0.0066353638	-0.441548
C	 0.0227571145	 0.0309048238	 0.1109633259	-0.1654
C	-1.3861535798	-0.5360075466	 0.0940480976	 0.465145
O	-2.1133001737	-0.0308598669	-1.0053085593	-0.496927
C	-1.6015627442	-2.039441884	 0.2107162562	-0.189994
C	-1.6531038229	-2.3155910928	 1.7228484409	 0.081426
O	-1.3769202249	-1.0924431843	 2.4138893194	-0.294843
C	-2.2235276142	-0.4521505725	 1.4168369922	-0.007406
C	-2.8748696018	-1.8310500869	 1.0345964124	-0.140844
H	 0.7467397774	 1.840565816	-0.124596526	 0.295833
H	 0.5900359802	-0.3802541957	-0.737307879	 0.091344
H	 0.5200563452	-0.247461738	 1.0470969774	 0.11518
H	-1.8513138715	 0.897116616	-1.0746093862	 0.288128
H	-1.3949494871	-2.8015264428	-0.5298159739	 0.093048
H	-1.3902618504	-3.2570558541	 2.186534367	 0.112583
H	-2.6995907336	 0.4670451728	 1.7499716586	 0.08951
H	-3.8845143411	-2.1992268739	 0.9303683907	 0.104765
106.1982	180.449	210.3352	233.1886	319.5058	376.7767	448.815	480.4294	544.7117	582.0876	710.5012	778.2572	780.4011	809.1543	819.7414	875.5084	929.6721	933.2033	974.9621	1008.2882	1028.9332	1043.3214	1058.4747	1071.6236	1094.4709	1146.0122	1161.9049	1174.4741	1190.4785	1218.6303	1251.8241	1272.9179	1304.0418	1372.8978	1420.8878	1456.7618	1507.6342	2994.2256	3065.4844	3155.2707	3199.8513	3208.6538	3229.5279	3760.2309	3847.1999
OCC1(O)C2C3OC1C23	OC[C@@]1(O)[C@H]2[C@H]3O[C@@H]1[C@@H]23	
InChI=1S/C6H8O3/c7-1-6(8)3-2-4(3)9-5(2)6/h2-5,7-8H,1H2	InChI=1S/C6H8O3/c7-1-6(8)3-2-4(3)9-5(2)6/h2-5,7-8H,1H2/t2-,3+,4-,5+,6+/m0/s1
