20
gdb 119434	4.72436	0.8049	0.75834	2.7547	81.22	-0.2401	-0.0189	0.2213	1554.4403	0.170246	-403.134278	-403.125184	-403.12424	-403.168821	33.683	
C	-0.0483576	 1.6010769529	 0.160313873	-0.382846
C	-0.0334916081	 0.0707881989	 0.1619908865	-0.166365
C	-1.3994966195	-0.5364099198	-0.1941806537	-0.28641
C	-1.3852795709	-2.0373902692	-0.1896824721	 0.352016
C	-0.6943889509	-2.9557473783	-1.2206795771	-0.427843
C	-1.9306488031	-3.8923207177	-1.0734207706	 0.419461
O	-2.316251483	-4.8384846425	-1.6976760826	-0.309023
C	-2.5478727151	-3.0123721031	-0.0165953829	-0.227539
N	-1.5584722149	-2.7594115094	 1.0527083544	-0.347694
H	 0.93427484	 2.0080857768	 0.4172255468	 0.115192
H	-0.3250877337	 1.9944730852	-0.8242533728	 0.115475
H	-0.7705746495	 1.9901573086	 0.8863693259	 0.118728
H	 0.7211868105	-0.290906085	-0.5484518096	 0.099036
H	 0.2698291453	-0.2981178958	 1.1492564438	 0.110111
H	-2.1525661146	-0.1941121557	 0.5246360689	 0.113084
H	-1.71418014	-0.1824029551	-1.184667202	 0.101309
H	-0.6536035288	-2.5609127534	-2.2410997237	 0.133332
H	 0.2932618585	-3.3388776649	-0.9463527686	 0.119224
H	-3.5965766786	-2.8537985853	 0.2057439164	 0.112793
H	-0.9036764537	-3.5313160973	 1.1674739599	 0.23796
62.4378	83.9325	95.3029	165.0906	249.2287	303.0953	328.538	384.2718	435.7046	471.107	580.1586	649.9542	720.8974	747.7638	791.3306	840.3092	873.0021	897.6564	960.2249	975.4118	1010.7379	1036.6185	1053.3634	1081.2393	1097.4968	1129.4078	1149.8695	1159.442	1202.9505	1226.7851	1256.8627	1300.6883	1310.1779	1340.5397	1382.2032	1414.0087	1427.106	1465.6787	1473.0502	1492.4601	1500.3806	1508.9645	1882.5135	3018.3085	3024.9702	3031.2549	3049.474	3052.5755	3076.1311	3098.8844	3102.361	3105.4308	3190.459	3461.5374
CCCC12CC(=O)C1N2	CCC[C@]12CC(=O)[C@H]1N2	
InChI=1S/C7H11NO/c1-2-3-7-4-5(9)6(7)8-7/h6,8H,2-4H2,1H3	InChI=1S/C7H11NO/c1-2-3-7-4-5(9)6(7)8-7/h6,8H,2-4H2,1H3/t6-,7+/m1/s1
