21
gdb 70086	2.14046	1.82529	1.44803	1.2325	82.89	-0.2254	0.0199	0.2453	1042.463	0.181468	-387.088713	-387.079791	-387.078847	-387.121231	35.961	
C	-0.1377806719	 1.579678284	 0.0279227721	-0.423487
C	-0.0215338543	 0.0455337672	-0.0096355024	 0.158449
C	-1.4314045698	-0.5750374062	-0.0947570044	-0.402436
C	 0.8290541961	-0.4513209702	-1.1699680102	-0.106259
C	 1.8017865672	-1.2816522726	-0.7875354353	-0.092934
C	 1.8500259623	-1.4187601691	 0.695753321	-0.133206
C	 2.1789672261	-0.1239402764	 1.4363405029	-0.351445
C	 0.7448737285	-0.5267788618	 1.2089107472	 0.378214
O	 0.0043138072	-0.9429246638	 2.3196148927	-0.469684
H	 0.8433255478	 2.0602067072	 0.07249314	 0.11468
H	-0.6557534313	 1.9556709962	-0.8610336926	 0.111732
H	-0.7147627235	 1.9026708254	 0.9027857465	 0.102514
H	-1.9226955016	-0.2683354194	-1.0242528636	 0.103143
H	-1.3808279175	-1.6666989936	-0.0775474706	 0.122725
H	-2.055461283	-0.2544212935	 0.7442990508	 0.107486
H	 0.6188646126	-0.1542303792	-2.1923797981	 0.08972
H	 2.5076491024	-1.7719397415	-1.4486383655	 0.095053
H	 2.0874511592	-2.362457956	 1.1730535097	 0.095132
H	 2.5274030863	-0.2286308044	 2.4590702719	 0.108553
H	 2.6262393685	 0.6873325149	 0.8717897185	 0.110318
H	-0.1634267411	-0.1710251373	 2.8711029495	 0.281733
128.4374	209.1053	224.9893	246.3156	280.2918	292.417	315.5554	338.8785	380.5174	436.5742	484.5878	575.4707	594.6699	633.8094	738.0525	777.6229	823.8779	865.999	913.0092	922.562	946.3066	959.5117	967.3485	988.6394	1024.1538	1039.2111	1064.359	1068.4051	1122.1478	1170.2211	1190.7775	1229.3297	1235.7796	1290.4831	1318.2261	1373.6223	1383.9645	1397.2051	1421.4199	1466.9171	1480.5745	1483.6196	1500.4477	1505.5123	1665.548	3024.8199	3037.3485	3086.2165	3105.9508	3111.1249	3120.5856	3122.5782	3174.7379	3181.1472	3203.0696	3216.1548	3794.9956
CC1(C)C=CC2CC12O	CC1(C)C=C[C@H]2C[C@@]12O	
InChI=1S/C8H12O/c1-7(2)4-3-6-5-8(6,7)9/h3-4,6,9H,5H2,1-2H3	InChI=1S/C8H12O/c1-7(2)4-3-6-5-8(6,7)9/h3-4,6,9H,5H2,1-2H3/t6-,8-/m0/s1
