23
gdb 111686	2.41774	1.31245	1.15856	1.3389	85.39	-0.2429	0.0801	0.3229	1241.9756	0.206528	-388.293154	-388.283991	-388.283047	-388.326849	35.286	
C	-0.1052704313	 1.6098204465	-0.2618287656	-0.377701
C	-0.0220060824	 0.1661504116	 0.2510022469	-0.213395
C	-1.3535003951	-0.5546875713	 0.1256230811	 0.004112
C	-1.8265412431	-1.2584419936	-1.127391824	-0.08632
C	-0.7680329656	-1.7465352389	-2.1035072237	-0.099431
O	 0.201179994	-2.4488375718	-1.329940583	-0.266706
C	-0.4445141306	-3.006870953	-0.1805734385	 0.134755
C	 0.5967109355	-3.2462357925	 0.9035564979	-0.405218
C	-1.5856748836	-2.0513388158	 0.1393973209	-0.109755
H	 0.8539488783	 2.1252974998	-0.1516121873	 0.109786
H	-0.3817188596	 1.6373131744	-1.3212326123	 0.115858
H	-0.8579193137	 2.1853734451	 0.2891442204	 0.109686
H	 0.7558130254	-0.3767150823	-0.2904152223	 0.124853
H	 0.2807964928	 0.1764597324	 1.3064513163	 0.092166
H	-2.1582753912	-0.0173911874	 0.6266169038	 0.079064
H	-2.8234454485	-1.0727090464	-1.5112035729	 0.083369
H	-1.2319734617	-2.4095451578	-2.8518331268	 0.091684
H	-0.2384419085	-0.950425218	-2.6387427797	 0.105766
H	-0.896539856	-3.977882489	-0.4529907486	 0.064073
H	 1.045489321	-2.3081344296	 1.2377616473	 0.125594
H	 0.134169426	-3.7361168617	 1.7661743649	 0.112295
H	 1.391568911	-3.8967180415	 0.5271682078	 0.123261
H	-2.4098350732	-2.4432493094	 0.7257097575	 0.082202
86.2944	125.215	184.1443	195.285	223.9287	243.6783	262.9102	327.3621	419.6368	479.9807	549.8366	675.486	725.348	763.268	766.8594	819.6729	843.9127	879.5773	936.6072	974.1093	990.1311	1000.0579	1035.2777	1050.0129	1077.2415	1090.8256	1112.919	1128.6093	1131.8674	1142.7394	1164.6761	1227.4465	1243.4397	1292.0481	1328.1697	1336.089	1345.2166	1362.1685	1388.8092	1399.1747	1408.8073	1411.7255	1452.3371	1485.9572	1496.2677	1497.8719	1499.0538	1511.2238	1516.1975	2931.8274	2972.3379	3019.9991	3028.5312	3046.069	3057.1773	3085.0855	3101.0726	3102.9757	3113.2894	3117.338	3133.1063	3163.0581	3174.1178
CCC1C2COC(C)C12	CC[C@H]1[C@H]2CO[C@@H](C)[C@@H]12	
InChI=1S/C8H14O/c1-3-6-7-4-9-5(2)8(6)7/h5-8H,3-4H2,1-2H3	InChI=1S/C8H14O/c1-3-6-7-4-9-5(2)8(6)7/h5-8H,3-4H2,1-2H3/t5-,6-,7+,8-/m0/s1
