16
gdb 61362	3.73473	0.84679	0.76079	3.268	75.07	-0.2602	-0.0396	0.2206	1470.411	0.120197	-437.861771	-437.851999	-437.851054	-437.897335	34.055	
C	-0.0591946013	 1.4396973338	-0.1159080011	-0.409585
C	 0.0441873976	-0.0772329685	-0.0451336711	 0.036951
O	 0.781038976	-0.5195300687	 1.1104166928	-0.254281
C	 2.1217925504	-0.6113096393	 0.9914652457	 0.264159
N	 2.7337139378	-0.3154978401	-0.0833185631	-0.533761
C	 2.7275542288	-1.0766134216	 2.208368612	 0.273766
C	 3.2806786943	-1.4617716475	 3.2035598642	-0.399789
C	-1.3072286192	-0.7713451661	 0.050265329	 0.150182
O	-2.3048044377	-0.3658794665	-0.4840528202	-0.243855
H	 0.9189622199	 1.8766428024	-0.3222441773	 0.142555
H	-0.7542463866	 1.7089385162	-0.9144892629	 0.146231
H	-0.444221325	 1.8397479607	 0.8261174075	 0.130775
H	 0.5495415998	-0.4603789499	-0.9419106183	 0.145235
H	 3.7345758551	-0.4632832116	 0.0178823994	 0.241174
H	 3.7664598949	-1.8024812231	 4.0852748139	 0.214711
H	-1.2885261647	-1.7109671204	 0.6444057694	 0.095532
61.9773	71.5209	82.529	137.7355	212.3668	241.029	253.2118	284.2452	381.4347	416.3018	492.8691	584.8321	646.0362	664.9281	669.8064	732.4227	840.1339	844.288	886.362	918.5183	961.0329	1094.1933	1102.8556	1133.9793	1154.6365	1305.8052	1340.4723	1379.8064	1395.2478	1413.3759	1485.9151	1498.5602	1683.1521	1841.3496	2237.7941	2902.7965	3031.2439	3057.4715	3134.4978	3150.86	3498.1051	3534.772
CC(OC(=N)C#C)C=O	C[C@@H](O[C]([NH])C#C)C=O	
InChI=1S/C6H7NO2/c1-3-6(7)9-5(2)4-8/h1,4-5,7H,2H3	InChI=1S/C6H7NO2/c1-3-6(7)9-5(2)4-8/h1,4-5,7H,2H3/t5-/m1/s1
