21
gdb 109002	3.59131	1.06994	1.01863	1.8414	84.34	-0.224	0.0099	0.2339	1313.9964	0.182232	-387.053435	-387.044699	-387.043754	-387.086891	33.741	
C	-0.010177088	 1.501669224	 0.2591408074	-0.370558
C	-0.0663133486	 0.0011371507	-0.0821037142	-0.322208
C	-1.4544578676	-0.5435966903	-0.1023875879	 0.376977
C	-2.2209435108	-1.0451084416	-1.078009153	-0.223168
C	-3.507857706	-1.3929210267	-0.3188073649	 0.01378
O	-3.6821987733	-0.2080576881	 0.5326335231	-0.288952
C	-2.4141192712	-0.6688340567	 1.1029560762	-0.050846
C	-2.9387817996	-2.1390163668	 0.9398044121	 0.038423
C	-3.9507109091	-2.6158793786	 1.9689377538	-0.425967
H	 1.0251402835	 1.8554250766	 0.2805522992	 0.112726
H	-0.5596676316	 2.0891367407	-0.4821316506	 0.127898
H	-0.4547541059	 1.7044768336	 1.2386095163	 0.121545
H	 0.4062942909	-0.1731055972	-1.0554388729	 0.106038
H	 0.5331822694	-0.5512323214	 0.6556524238	 0.104968
H	-2.0133028156	-1.196876292	-2.1274649712	 0.103166
H	-4.4050306655	-1.7020315883	-0.8549851388	 0.074302
H	-2.1570814718	-0.2205381488	 2.0635358789	 0.071794
H	-2.1754410673	-2.8947299372	 0.7337312871	 0.068054
H	-4.7006016444	-1.8449680298	 2.1599950776	 0.135736
H	-4.4617932381	-3.5205913255	 1.6212571581	 0.113562
H	-3.4563781394	-2.8637001565	 2.9149217	 0.11273
68.4275	115.4227	178.3736	229.3059	242.5611	269.9935	333.2374	380.2981	498.7505	557.3894	608.0591	685.7854	764.7549	785.17	806.4083	819.5759	841.9726	875.5721	906.1368	918.607	956.4572	1029.7578	1042.9778	1065.1784	1072.622	1091.9562	1113.9433	1153.3524	1194.8382	1213.7686	1235.1148	1239.7488	1266.8233	1297.3516	1322.9804	1348.7414	1372.9398	1401.1925	1409.2949	1478.543	1491.5346	1496.428	1503.9653	1505.3288	1679.0472	3004.9681	3031.9618	3038.8548	3058.0467	3067.5304	3089.2341	3108.4819	3114.493	3116.6541	3125.6236	3129.7513	3235.1238
CCC1=CC2OC1C2C	CCC1=C[C@@H]2O[C@H]1[C@H]2C	
InChI=1S/C8H12O/c1-3-6-4-7-5(2)8(6)9-7/h4-5,7-8H,3H2,1-2H3	InChI=1S/C8H12O/c1-3-6-4-7-5(2)8(6)9-7/h4-5,7-8H,3H2,1-2H3/t5-,7-,8-/m0/s1
