23
gdb 119074	2.59798	1.00191	0.8245	0.5453	81.42	-0.245	0.0714	0.3164	1489.9757	0.204405	-425.396944	-425.38644	-425.385496	-425.433513	37.784	
C	-0.2188598206	 1.4296732453	-0.288541243	-0.409246
C	 0.0124850433	-0.0567503034	 0.0045153461	-0.235597
C	 0.7626480472	-0.4172119109	 1.2970502102	 0.258018
C	 0.8802306968	-1.9485380709	 1.3869894606	-0.220219
C	 1.5967569275	-2.5314017215	 2.6034933032	-0.099302
O	 1.5687644486	-3.9456176759	 2.4476273845	-0.422546
C	 2.0911839084	 0.3268677201	 1.6009269729	-0.11219
O	 1.6452893773	 0.6585969892	 2.9323604944	-0.280379
C	 0.2975505662	 0.2491806721	 2.6201242885	-0.112179
H	 0.7192199065	 1.9847704101	-0.3830469186	 0.121759
H	-0.7596104738	 1.5430995484	-1.233303791	 0.117148
H	-0.8160966095	 1.9174265873	 0.4876410981	 0.121759
H	-0.9589278377	-0.5687813969	 0.0257116897	 0.100667
H	 0.5594253569	-0.502619888	-0.8371000473	 0.100662
H	-0.1267918529	-2.3844262732	 1.3579348831	 0.105353
H	 1.3970505486	-2.318305603	 0.4919563786	 0.105322
H	 2.6317680203	-2.1651278101	 2.6610608192	 0.094006
H	 1.0950806695	-2.2310020749	 3.5345239221	 0.094035
H	 2.0172172867	-4.3367334705	 3.2028939466	 0.285517
H	 3.010342145	-0.2696677239	 1.6060862746	 0.099393
H	 2.2626879632	 1.2277165821	 0.9979186587	 0.094308
H	-0.3660111237	 1.113894651	 2.4914882969	 0.094301
H	-0.1275932738	-0.4054379927	 3.3891879519	 0.099411
40.4445	63.1217	87.669	134.794	155.2714	244.4061	269.4993	311.308	315.1348	338.5182	380.4769	386.8769	545.7552	632.5966	763.9701	790.5057	851.2966	894.9258	930.956	964.5946	968.8481	1014.3959	1017.247	1030.7117	1068.031	1074.6012	1093.1398	1154.0066	1165.3466	1187.1852	1195.1214	1241.3507	1250.4098	1269.4804	1304.9842	1312.2711	1344.1557	1346.0008	1371.8423	1396.141	1415.9138	1468.65	1475.2364	1489.7549	1494.1567	1503.967	1520.2244	1520.4216	1543.4863	2990.1966	3007.9169	3009.4331	3017.167	3018.8787	3023.6202	3041.3621	3043.0921	3058.4844	3060.7177	3064.2646	3105.7697	3113.4747	3829.9774
CCC1(CCO)COC1	CCC1(CCO)COC1	
InChI=1S/C7H14O2/c1-2-7(3-4-8)5-9-6-7/h8H,2-6H2,1H3	InChI=1S/C7H14O2/c1-2-7(3-4-8)5-9-6-7/h8H,2-6H2,1H3
