17
gdb 46249	3.07566	1.57012	1.29385	2.1603	72.82	-0.2465	0.0091	0.2555	1000.8095	0.137378	-417.953356	-417.946055	-417.945111	-417.985125	28.486	
N	 0.0219897329	 1.2102354694	-0.3343375355	-0.551989
C	 0.0188010055	-0.0068116199	-0.0292393712	 0.412486
O	 1.0258678992	-0.8297101922	 0.4220690189	-0.262149
C	 0.1141021829	-1.9760464824	 0.4916902471	-0.147182
C	-1.0409003357	-1.0925122954	-0.0038396196	 0.208222
C	-2.3912532037	-0.9631558897	 0.7389300308	-0.332651
C	-3.0511012658	-1.2833886176	-0.5990372113	-0.01926
C	-2.5781745023	-0.3813386283	-1.663997738	-0.242692
N	-1.7086420642	-1.5194781996	-1.2812655595	-0.174275
H	 0.9500943186	 1.6243383989	-0.2320127447	 0.230974
H	 0.4139355027	-2.7626133117	-0.2035446581	 0.135223
H	 0.0401941347	-2.3538324105	 1.5145926969	 0.118978
H	-2.5188966512	-1.750640764	 1.4850880823	 0.116911
H	-2.6253772366	 0.0043451868	 1.1899582255	 0.126259
H	-3.8793077721	-1.9693814663	-0.7405279127	 0.099117
H	-3.0066158008	-0.5133386336	-2.6525134847	 0.124152
H	-2.2438015041	 0.6260711661	-1.4338427863	 0.157878
117.9504	157.2524	173.3709	320.4381	323.0814	430.1238	458.6711	577.5288	666.1565	758.6063	765.4389	779.8401	820.0123	864.8318	889.6994	911.7561	947.347	963.6668	1005.0393	1018.6461	1060.9974	1094.6377	1116.1339	1135.9817	1155.212	1172.2573	1192.5479	1217.988	1246.8511	1259.6189	1281.2536	1367.7825	1374.2617	1480.8555	1504.7176	1509.6928	1815.2095	3063.4199	3065.1971	3118.5307	3123.2037	3133.3338	3171.0596	3215.9098	3476.0547
N=C1OCC11CC2CN12	[NH][C]1OC[C@]21C[C@H]1CN21	
InChI=1S/C6H8N2O/c7-5-6(3-9-5)1-4-2-8(4)6/h4,7H,1-3H2	InChI=1S/C6H8N2O/c7-5-6(3-9-5)1-4-2-8(4)6/h4,7H,1-3H2/t4-,6-,8?/m0/s1
