24
gdb 57546	3.51826	0.75174	0.72925	1.4548	86.64	-0.225	0.0649	0.2899	1712.4275	0.214895	-405.522489	-405.511735	-405.510791	-405.558464	40.249	
C	 0.09225339	 1.5462422483	 0.3141639813	-0.41542
C	-0.0065856754	 0.0452897188	-0.0002437084	 0.335724
C	 0.6216410627	-0.7769873909	 1.1346828051	-0.410972
O	-1.3842162138	-0.3284712041	-0.1543198774	-0.460605
C	 0.6647832683	-0.3190200416	-1.3352309306	-0.171101
C	 0.093060131	 0.3895121188	-2.5648398203	-0.163071
N	 0.7440198026	-0.1053959178	-3.7766881557	-0.062566
C	 0.1231292604	-1.2676811795	-4.4055135391	-0.220499
C	 0.0075620719	 0.083189703	-5.0204984316	-0.221429
H	 1.1347995996	 1.8787152009	 0.3502966409	 0.116399
H	-0.4361321542	 2.1405702815	-0.4350866309	 0.125276
H	-0.3565236371	 1.7614563145	 1.2914053107	 0.099999
H	 0.1259304831	-0.5601108703	 2.0885644755	 0.098288
H	 0.5172213526	-1.8465098186	 0.9317074405	 0.12064
H	 1.6855010111	-0.5471839858	 1.2539093541	 0.114141
H	-1.8420225136	-0.1039956851	 0.6626356529	 0.273558
H	 1.7385488311	-0.1135380473	-1.2678745413	 0.100108
H	 0.5569032596	-1.4008783556	-1.4773153825	 0.101014
H	-1.0001820873	 0.2503239237	-2.5924691145	 0.099699
H	 0.2837073799	 1.4674872757	-2.512322273	 0.096542
H	 0.8040385316	-2.0072275011	-4.8174091561	 0.112452
H	-0.7729473962	-1.6791448128	-3.9426073038	 0.112892
H	-0.9663331309	 0.568278649	-4.9685051637	 0.106529
H	 0.602902683	 0.3501538763	-5.8892973521	 0.112399
55.6128	66.4063	135.1234	140.1079	222.5483	254.7393	268.5763	286.2582	303.1758	342.8304	380.9742	403.0822	436.4379	492.2355	524.2541	754.3171	780.7637	796.2461	846.1975	898.435	916.047	935.4284	948.5251	994.8369	1024.7498	1029.0286	1059.2458	1078.4721	1112.5344	1117.9996	1155.6693	1164.9746	1173.4008	1203.1536	1220.2962	1271.5831	1315.1507	1323.117	1339.0745	1378.8407	1396.9509	1407.2953	1418.5745	1471.6068	1481.7094	1487.0732	1492.393	1500.522	1504.0189	1510.9173	1527.2111	2971.6064	3024.0534	3029.1491	3037.7669	3052.4032	3084.0357	3088.7203	3091.5273	3095.8319	3096.4138	3115.8325	3123.5476	3173.0042	3187.5985	3807.5836
CC(C)(O)CCN1CC1	CC(C)(O)CCN1CC1	
InChI=1S/C7H15NO/c1-7(2,9)3-4-8-5-6-8/h9H,3-6H2,1-2H3	InChI=1S/C7H15NO/c1-7(2,9)3-4-8-5-6-8/h9H,3-6H2,1-2H3
