17
gdb 70416	2.31224	1.56436	1.41689	1.4438	68.41	-0.2563	-0.0378	0.2185	1013.6089	0.13272	-458.936992	-458.92821	-458.927265	-458.970373	32.713	
C	 0.0382030037	 1.5058985507	 0.0599429724	-0.526129
C	 0.2097659103	 0.0260826703	-0.0216231714	 0.363546
O	-0.7688791869	-0.825599014	 0.5935694883	-0.307352
C	 0.6262533634	-1.0119589272	 0.9312601371	-0.024701
C	 1.2419223739	-1.8872977169	-0.1544079051	-0.318096
C	 0.7264574228	-0.8471167004	-1.2230375719	 0.264831
O	-0.2713361994	-1.2537381429	-2.1152981056	-0.492139
C	 1.8215052366	-0.1825614275	-2.0269068012	 0.12226
O	 2.9266274104	 0.0464609878	-1.6041435266	-0.263125
H	 0.9728892758	 2.0148289288	-0.193406674	 0.146615
H	-0.7370385047	 1.8443594867	-0.6361185168	 0.138371
H	-0.2584242857	 1.796321821	 1.0711568239	 0.140587
H	 0.8854577495	-0.9280597405	 1.9797128105	 0.114149
H	 2.3333080784	-1.9033155687	-0.1193595411	 0.138138
H	 0.8380880055	-2.8969413754	-0.2556624217	 0.113242
H	-1.0303435353	-1.4966655135	-1.567969615	 0.292132
H	 1.5046103617	 0.1046153315	-3.0525210718	 0.097672
72.4967	126.3097	191.7732	199.4611	237.3525	266.7486	331.4584	414.8619	449.5922	475.6863	522.2911	624.3291	654.0959	697.8198	755.9943	843.5672	881.783	904.7564	958.8675	980.8135	1045.3398	1066.339	1102.8943	1119.652	1137.1785	1184.8111	1219.456	1250.6011	1270.2176	1376.6926	1403.1515	1415.4909	1446.6661	1470.1133	1485.163	1495.5174	1825.2329	2910.7043	3039.3597	3071.1596	3106.7211	3125.739	3139.1538	3197.78	3762.3165
CC12OC1CC2(O)C=O	C[C@]12O[C@H]1C[C@]2(O)C=O	
InChI=1S/C6H8O3/c1-5-4(9-5)2-6(5,8)3-7/h3-4,8H,2H2,1H3	InChI=1S/C6H8O3/c1-5-4(9-5)2-6(5,8)3-7/h3-4,8H,2H2,1H3/t4-,5-,6-/m0/s1
