21
gdb 95242	2.75824	1.43482	1.08034	2.4638	78.67	-0.2492	0.0785	0.3276	1179.235	0.183456	-424.216927	-424.208544	-424.2076	-424.24976	32.724	
C	-0.3210990564	 1.4529189464	 0.0726749382	-0.394303
C	 0.0375814827	-0.0283974816	-0.0083685031	 0.130652
C	 0.736001074	-0.3749684869	-1.3303188449	-0.187088
C	 0.7949669439	-1.8655427559	-1.6751569695	-0.264276
C	 1.5607195209	-2.7603646385	-0.7255488748	 0.067695
O	 2.721341602	-2.2432901348	-0.0582369995	-0.249074
C	 1.6061707487	-2.6434467285	 0.7385512416	 0.052888
C	 0.9063919847	-1.6031903946	 1.5961157496	-0.128474
O	 0.8825313569	-0.290369727	 1.1081533765	-0.239495
H	 0.5803006636	 2.0658026875	-0.0277147862	 0.126942
H	-1.0188384969	 1.7299551816	-0.7228925841	 0.11061
H	-0.7808719312	 1.6791312052	 1.038024427	 0.119158
H	-0.883920808	-0.6293274712	 0.089378945	 0.057977
H	 0.2143516512	 0.1369325327	-2.1477218671	 0.090808
H	 1.7496304175	 0.0365091284	-1.2849401719	 0.123479
H	-0.223063762	-2.2720458764	-1.7631182878	 0.102497
H	 1.2440559676	-1.9757578206	-2.6706172677	 0.107209
H	 1.7101322822	-3.7682935441	-1.1220465212	 0.084338
H	 1.7658467301	-3.5734064559	 1.2940189218	 0.084328
H	-0.1131681186	-1.9733750397	 1.8101332978	 0.088024
H	 1.4350255171	-1.5469186362	 2.5550769106	 0.116105
77.94	172.1079	221.0284	235.212	270.6676	327.2245	347.9309	389.4996	441.3873	485.1904	603.813	689.8801	734.9275	790.3778	816.0429	875.7143	899.4125	932.5017	965.6299	988.0588	1017.4893	1073.5149	1084.1823	1101.4264	1148.7449	1161.2137	1166.4785	1192.0454	1235.4148	1273.1221	1286.0496	1326.6662	1339.9704	1380.4782	1391.5381	1399.551	1406.3241	1411.9892	1419.9266	1463.1617	1479.5046	1480.1455	1486.5184	1500.7313	1509.1526	2940.5736	2947.3284	3007.6494	3033.291	3042.4377	3045.9653	3048.3655	3059.519	3073.6471	3088.9946	3115.9987	3124.0277
CC1CCC2OC2CO1	C[C@H]1CC[C@H]2O[C@H]2CO1	
InChI=1S/C7H12O2/c1-5-2-3-6-7(9-6)4-8-5/h5-7H,2-4H2,1H3	InChI=1S/C7H12O2/c1-5-2-3-6-7(9-6)4-8-5/h5-7H,2-4H2,1H3/t5-,6+,7-/m0/s1
