19
gdb 17683	4.07752	1.36728	1.33068	2.2225	72.4	-0.2281	0.0855	0.3137	1030.8321	0.163661	-365.007296	-364.998653	-364.997709	-365.040435	31.845	
C	 0.0789710519	 1.4437289415	-0.4617441828	-0.315907
N	 0.1830048301	 0.0254008216	-0.1605846977	-0.106748
C	 1.5054939357	-0.5468287589	 0.0392240477	-0.288338
C	 0.5484477799	-0.4419689861	 1.1863897999	 0.292779
C	 0.830764307	 0.5248172593	 2.3193928682	-0.483137
C	-0.2115191349	-1.6855036391	 1.5615178428	 0.062817
C	-0.0497364047	-2.3976154751	 2.8359532931	-0.196398
O	-1.1953760692	-1.5771117844	 2.595697062	-0.23717
H	 0.8829078729	 2.0669263111	-0.0402918121	 0.099709
H	 0.0999271609	 1.5679397941	-1.5493648113	 0.125752
H	-0.8799746441	 1.8242717086	-0.0963602718	 0.128418
H	 1.6986285402	-1.4999828593	-0.4491551575	 0.109177
H	 2.3606778689	 0.1294816982	 0.0590371152	 0.103108
H	 1.3133270022	 1.4365240835	 1.964382592	 0.118633
H	-0.0964828659	 0.7917583342	 2.8334897468	 0.143393
H	 1.5016095794	 0.0711689283	 3.0558955054	 0.122125
H	-0.5408133878	-2.2567499992	 0.6934155254	 0.095892
H	-0.2412636097	-3.4692126472	 2.8771566017	 0.114518
H	 0.6404262269	-2.0252018513	 3.590487973	 0.111377
57.0974	152.8782	169.0833	191.5636	226.3322	306.0841	318.6736	366.6218	438.3536	488.3763	523.9174	698.7268	767.6502	832.274	862.5193	921.1514	935.4733	973.6791	1032.0312	1060.772	1091.072	1107.4417	1121.0883	1150.0637	1154.479	1171.3578	1174.4847	1206.5339	1274.1872	1323.7771	1358.5804	1409.6582	1440.2704	1447.3156	1481.1541	1486.156	1499.1788	1512.6967	1516.9666	1532.4644	2978.3945	3049.8286	3066.7056	3076.262	3087.0087	3103.1623	3110.1085	3113.9067	3140.0018	3158.6862	3172.5436
CN1CC1(C)C1CO1	CN1C[C@]1(C)[C@H]1CO1	
InChI=1S/C6H11NO/c1-6(4-7(6)2)5-3-8-5/h5H,3-4H2,1-2H3	InChI=1S/C6H11NO/c1-6(4-7(6)2)5-3-8-5/h5H,3-4H2,1-2H3/t5-,6-,7?/m1/s1
