18
gdb 120240	3.02988	1.11108	0.90956	3.0743	73.82	-0.2227	-0.025	0.1977	1322.1564	0.145946	-439.036685	-439.027772	-439.026828	-439.071254	32.055	
C	-0.0824427928	 1.5070433994	 0.0398288095	-0.386281
C	-0.1370935646	 0.0174696	-0.2468741837	-0.047352
O	-1.3325639337	-0.5011822252	 0.3301011531	-0.254713
C	-1.4895687926	-1.8671860637	 0.1446709721	 0.057966
C	-2.7582606687	-2.4990410468	 0.7155797753	-0.106024
N	-3.8847403303	-1.9617867235	-0.0515263002	-0.314558
C	-3.1137906991	-3.1330059457	-0.6047014871	-0.191827
C	-1.9084916474	-2.4838019236	-1.2474909349	 0.414158
O	-1.39191037	-2.5274394438	-2.3248831882	-0.312335
H	 0.8291138519	 1.9406168972	-0.3820493891	 0.116495
H	-0.9452369853	 2.0134431449	-0.4014571358	 0.132943
H	-0.0899894554	 1.6919656167	 1.1178109705	 0.124538
H	-0.1258479782	-0.176913302	-1.3276226748	 0.121474
H	 0.7364461788	-0.4968904472	 0.1882960427	 0.086142
H	-0.598135848	-2.4332448252	 0.4746741006	 0.086867
H	-2.8843114916	-2.9202797535	 1.7042041164	 0.111596
H	-4.7407829509	-2.3555346687	 0.3405484974	 0.242035
H	-3.604594062	-4.0721398792	-0.8232265238	 0.118877
64.8687	76.3324	97.1298	176.6322	223.4356	258.3121	290.8141	397.4035	478.8504	546.9605	633.5805	709.437	788.1344	820.8624	828.2789	879.4916	892.5563	911.9852	973.353	1003.9472	1047.6797	1064.5583	1095.1612	1107.3351	1147.9087	1179.272	1187.9439	1196.7435	1281.951	1299.0701	1313.4553	1347.2733	1375.3276	1404.2163	1442.9667	1483.7235	1500.4159	1529.2414	1895.2173	2935.4187	2965.1483	3034.8124	3046.0796	3120.58	3124.4201	3203.8369	3214.5831	3466.0616
CCOC1C2NC2C1=O	CCO[C@H]1[C@H]2N[C@H]2C1=O	
InChI=1S/C6H9NO2/c1-2-9-6-4-3(7-4)5(6)8/h3-4,6-7H,2H2,1H3	InChI=1S/C6H9NO2/c1-2-9-6-4-3(7-4)5(6)8/h3-4,6-7H,2H2,1H3/t3-,4+,6+/m1/s1
