18
gdb 85756	3.35636	1.19231	1.02652	2.1487	76.88	-0.2431	0.0526	0.2957	1181.5149	0.148423	-401.89611	-401.887909	-401.886965	-401.928877	32.147	
O	 0.0564293488	 1.3821451237	-0.0848722993	-0.441808
C	 0.0334579458	-0.0314268541	-0.082826605	 0.150631
C	 0.7361985212	-0.6598726919	 1.1515157831	-0.270816
C	 0.0065119786	-2.0044259945	 1.4272442468	-0.171042
C	 0.0665383321	-2.4504452631	 2.8129402847	 0.32583
C	 0.1154540337	-2.8213154853	 3.9553638182	-0.456646
C	-1.4071684858	-1.752619363	 0.8947481652	-0.044086
N	-1.9654444639	-0.4475570068	 1.2997209539	-0.342894
C	-1.3702192093	-0.6168485313	-0.048556332	-0.085351
H	-0.4903611409	 1.6567010278	 0.6621154707	 0.286787
H	 0.5325291089	-0.3340818799	-1.010200501	 0.089194
H	 1.8085853334	-0.7945592308	 1.0002710089	 0.110002
H	 0.6003222114	 0.0061028335	 2.0058653144	 0.126036
H	 0.4457791297	-2.7864400384	 0.7921818574	 0.105578
H	 0.1580145233	-3.1439328315	 4.9659549876	 0.193077
H	-2.0799632037	-2.5940388178	 0.7678572272	 0.096936
H	-2.978894841	-0.4852300893	 1.2318218451	 0.236968
H	-2.0077162025	-0.5583602272	-0.9243835157	 0.091603
83.4935	128.4755	157.2835	269.3625	341.1429	387.0984	430.9398	466.7976	525.2136	571.0294	609.2661	625.6928	634.3791	657.7761	810.0834	833.1485	886.802	899.3589	917.5856	992.5321	1009.5932	1038.7695	1048.9799	1074.439	1099.3973	1121.3043	1165.1157	1195.2431	1255.0748	1263.4619	1293.8605	1321.5654	1327.5382	1343.2092	1370.1644	1423.2584	1440.2423	1484.	2237.015	3009.268	3052.6071	3082.3811	3132.1326	3164.3964	3175.3325	3504.8831	3511.782	3777.6992
OC1CC(C#C)C2NC12	O[C@H]1C[C@@H](C#C)[C@H]2N[C@@H]12	
InChI=1S/C7H9NO/c1-2-4-3-5(9)7-6(4)8-7/h1,4-9H,3H2	InChI=1S/C7H9NO/c1-2-4-3-5(9)7-6(4)8-7/h1,4-9H,3H2/t4-,5+,6-,7+/m1/s1
