18
gdb 86662	3.45273	1.21015	0.93586	1.9979	77.17	-0.2201	-0.0096	0.2105	1241.7143	0.148967	-435.325382	-435.31664	-435.315696	-435.359045	32.491	
C	-0.1939215597	 1.5288778959	 0.0229489506	-0.385753
C	 0.095152631	 0.0295563924	 0.005207894	 0.048444
C	 0.9709495284	-0.4100191696	-1.207496851	-0.214024
N	 1.9631969272	-1.2795858111	-0.5660966732	-0.118208
C	 2.8222843505	-2.1074840648	-1.219742246	 0.160168
O	 3.6383222023	-2.8470260181	-0.6978013642	-0.343558
C	 1.8186487744	-1.1146015981	 0.8405262597	 0.463541
N	 2.7477807236	-1.6837678085	 1.6470333577	-0.588259
N	 0.824771505	-0.3961607855	 1.2041253569	-0.346393
H	 0.7399397433	 2.0997087953	 0.0572894278	 0.117824
H	-0.7560511067	 1.8329159412	-0.8670003714	 0.107599
H	-0.7809133896	 1.7869132563	 0.9079396122	 0.130975
H	-0.8653111224	-0.5050753728	-0.0249728677	 0.08239
H	 0.4102463035	-0.9513833055	-1.9732601253	 0.123859
H	 1.4628605125	 0.4499929171	-1.6773881867	 0.119321
H	 2.6998634152	-2.0464441531	-2.3165683858	 0.093661
H	 3.3334084373	-2.3965171955	 1.2329183837	 0.284394
H	 2.5080589641	-1.7375488056	 2.622622479	 0.264017
48.9072	127.586	211.7921	234.6013	260.2436	265.7754	317.5627	415.693	439.224	460.8089	505.8477	585.8249	671.0886	727.4905	751.5334	797.5672	855.7703	929.5364	937.2464	1029.9329	1067.3718	1126.1192	1147.5515	1163.3965	1214.8772	1225.5246	1312.5546	1322.147	1362.8874	1383.1882	1406.3886	1422.3161	1444.7231	1486.9282	1497.6194	1517.9349	1601.0783	1738.9097	1783.1475	2967.332	2988.6622	3027.8552	3034.0909	3094.8106	3102.6295	3123.5554	3544.9292	3706.3351
CC1CN(C=O)C(N)=N1	C[C@H]1CN(C=O)[C](N)[N]1	
InChI=1S/C5H9N3O/c1-4-2-8(3-9)5(6)7-4/h3-4H,2H2,1H3,(H2,6,7)	InChI=1S/C5H9N3O/c1-4-2-8(3-9)5(6)7-4/h3-4H,2H2,1H3,(H2,6,7)/t4-/m0/s1
