19
gdb 78398	3.06888	1.33066	1.18468	2.902	79.03	-0.2278	-0.0209	0.2069	1124.3077	0.158962	-385.857084	-385.849236	-385.848292	-385.889326	31.121	
C	-0.0599900818	 1.4243322417	 0.0498828291	-0.425251
C	 0.0625907745	-0.0844678203	-0.0020731645	-0.021903
C	 0.7527451728	-0.6694566812	-1.206682738	-0.063238
C	 1.4424628931	-0.6599582683	 0.1652899056	-0.058439
C	 1.4514678526	-2.2103380889	 0.1792421908	-0.165575
C	 0.756491936	-2.2171621601	-1.2213871132	-0.045464
C	-0.4667340037	-2.9890377662	-0.6463393513	-0.376009
C	 0.2031009291	-2.9228177659	 0.7518326596	 0.395447
O	-0.1147410249	-3.3119824244	 1.8369080929	-0.297382
H	 0.8180626971	 1.9070765606	-0.3926161381	 0.116925
H	-0.9418425265	 1.7679167904	-0.5011022746	 0.120599
H	-0.1490827306	 1.7766881664	 1.0827844461	 0.124299
H	-0.7856580445	-0.6037870859	 0.4386841449	 0.091064
H	 0.9628329617	-0.0543749215	-2.0743618491	 0.085329
H	 2.2660796493	-0.05142937	 0.519252754	 0.09033
H	 2.419809082	-2.6771797435	 0.3617333277	 0.091204
H	 1.2580115522	-2.6632555677	-2.0782494807	 0.079054
H	-1.4598092386	-2.5400661403	-0.7320784733	 0.128935
H	-0.5254618697	-4.0247165751	-0.9986240981	 0.130074
87.9321	188.6193	209.8992	250.3295	281.4934	359.2747	425.4318	473.1832	553.7397	624.905	731.3961	771.0746	773.9498	831.4793	856.3059	881.6579	901.8293	922.7756	982.0103	1011.1953	1033.2674	1044.4231	1045.9153	1068.7614	1073.5101	1101.1535	1144.2338	1154.1948	1192.012	1202.917	1217.856	1229.021	1277.4104	1292.344	1324.6191	1418.1369	1425.8443	1431.0512	1493.8564	1503.1986	1886.2853	3029.9648	3051.1703	3095.0578	3097.6339	3105.8802	3112.1474	3125.5025	3128.7998	3169.5108	3182.0944
CC1C2C1C1C2CC1=O	C[C@H]1[C@H]2[C@@H]1[C@@H]1[C@H]2CC1=O	
InChI=1S/C8H10O/c1-3-6-4-2-5(9)8(4)7(3)6/h3-4,6-8H,2H2,1H3	InChI=1S/C8H10O/c1-3-6-4-2-5(9)8(4)7(3)6/h3-4,6-8H,2H2,1H3/t3-,4-,6+,7+,8+/m0/s1
