18
gdb 57269	2.15123	1.62269	1.23794	3.7607	71.4	-0.2783	0.013	0.2913	1084.1296	0.144152	-439.076272	-439.06645	-439.065506	-439.110606	36.139	
C	-0.2585543115	 1.5264089996	-0.19490701	-0.41475
C	 0.0030618665	 0.02403563	-0.0315483786	 0.137237
O	 0.7587461788	-0.1296148148	 1.1641038624	-0.43499
C	-1.2984052068	-0.6733046663	 0.1181109357	 0.2713
N	-2.2940980287	-1.2333048572	 0.2916197706	-0.349982
C	 0.7818773268	-0.5498721765	-1.2367272307	 0.380615
C	 2.1492554522	 0.0565850458	-1.4673008475	-0.471932
C	 0.4879809516	-1.9096437123	-1.7230402722	-0.248713
O	-0.0115551913	-0.7501134747	-2.4033113648	-0.267168
H	 0.6914659875	 2.0634219727	-0.183766112	 0.138167
H	-0.7764188148	 1.7165589515	-1.1373400218	 0.153199
H	-0.8715673556	 1.888146733	 0.6325590921	 0.146865
H	 0.8731901784	-1.0725035699	 1.332593974	 0.293836
H	 2.7460461915	 0.0206906538	-0.5526340754	 0.137663
H	 2.6711685232	-0.488713962	-2.2564393193	 0.130445
H	 2.0662051799	 1.1009799461	-1.7809915867	 0.136967
H	 1.2690558187	-2.4544317873	-2.2507106756	 0.119959
H	-0.2711781764	-2.5225314516	-1.2426571403	 0.141283
53.653	150.2034	172.0749	192.3421	206.0758	257.9	294.2044	325.5564	349.729	367.8617	407.2971	435.271	493.5905	564.081	607.1935	653.1546	805.8128	857.5402	928.3615	930.9842	951.3828	1017.0401	1060.7721	1109.1892	1138.5468	1149.8286	1173.3273	1183.8698	1283.4873	1355.6937	1386.4209	1404.9103	1413.9381	1477.7868	1485.1916	1492.0185	1504.7446	1526.6096	2353.7613	3053.2759	3064.1548	3094.3696	3122.1635	3138.3527	3147.6108	3151.0162	3186.9083	3796.1068
CC(O)(C#N)C1(C)CO1	C[C@@](O)(C#N)[C@@]1(C)CO1	
InChI=1S/C6H9NO2/c1-5(8,3-7)6(2)4-9-6/h8H,4H2,1-2H3	InChI=1S/C6H9NO2/c1-5(8,3-7)6(2)4-9-6/h8H,4H2,1-2H3/t5-,6-/m1/s1
