18
gdb 97104	2.3843	1.48206	1.05542	2.2702	76.26	-0.2427	0.0189	0.2615	1174.3914	0.146611	-439.057676	-439.048746	-439.047802	-439.091664	32.584	
C	 0.1860458074	 1.2414692107	-0.1556783806	-0.344296
N	 0.3439168125	-0.2055910475	-0.0927834608	-0.377697
C	 0.5459563039	-0.7656474602	 1.0130232656	 0.475651
O	 0.6877838773	-0.2639475559	 2.2957531943	-0.280089
C	 0.9957744914	-1.6051604942	 2.8157690332	-0.161532
C	 0.828042913	-2.1621114281	 1.4057956264	 0.088318
C	 0.1851292875	-3.4062740566	 0.8354294156	-0.38128
C	 1.6170015684	-3.0852112956	 0.5053581873	 0.092158
O	 1.9976325049	-2.6344940142	-0.7473973646	-0.428272
H	 0.9356591278	 1.6563760591	-0.8377815315	 0.131253
H	-0.7974693914	 1.4801039419	-0.5748059758	 0.130589
H	 0.2831493215	 1.7371409967	 0.8166344918	 0.130839
H	 2.001277428	-1.6293114697	 3.2434869365	 0.128005
H	 0.2517040013	-1.915214616	 3.5541058531	 0.125625
H	-0.0090788422	-4.2235089957	 1.5232182727	 0.121194
H	-0.5657854376	-3.2556751501	 0.066224427	 0.136943
H	 2.3860423008	-3.7048406908	 0.9581506097	 0.11182
H	 1.4960753858	-1.8242105139	-0.9438923198	 0.300771
74.5192	110.107	134.3319	155.5302	227.4073	253.0302	315.4018	422.6928	453.2067	489.5672	504.5641	653.0203	734.5162	761.3188	810.1661	861.4484	900.4241	952.9983	994.4886	1037.1207	1048.3128	1089.9356	1101.1214	1109.1743	1134.827	1142.3034	1168.0078	1176.2358	1245.5434	1300.9886	1360.6459	1406.3631	1441.4229	1451.5071	1491.3755	1493.7389	1499.8618	1511.6997	1830.0605	3021.6452	3057.4323	3086.4966	3093.8594	3116.8639	3123.787	3154.3567	3218.6501	3632.5249
CN=C1OCC11CC1O	CN=C1OC[C@]21C[C@H]2O	
InChI=1S/C6H9NO2/c1-7-5-6(3-9-5)2-4(6)8/h4,8H,2-3H2,1H3	InChI=1S/C6H9NO2/c1-7-5-6(3-9-5)2-4(6)8/h4,8H,2-3H2,1H3/t4-,6-/m1/s1
