21
gdb 89296	2.35732	1.63754	1.16896	3.2105	77.8	-0.2409	0.0555	0.2964	1122.4498	0.182173	-424.200978	-424.192073	-424.191128	-424.234122	35.219	
C	-0.3603273037	 1.5197930544	 0.2203491278	-0.497524
C	 0.0930078445	 0.0973917774	-0.0210445197	 0.382702
C	-1.0165922634	-0.998701279	-0.1127534222	-0.33925
C	-0.4339586159	-1.683021978	 1.1628636247	 0.180396
O	-0.3274217054	-3.0744585832	 1.2446827678	-0.445766
C	 0.828779252	-0.7886606739	 1.0684424341	-0.150915
C	 1.8860505205	-1.1675882801	-0.0056707432	 0.109512
O	 1.83010915	-2.5416464486	-0.3780592964	-0.437646
C	 1.2580106855	-0.1554126309	-1.0091661278	-0.321825
H	 0.485036401	 2.1774158016	 0.4532067686	 0.11026
H	-0.8625922731	 1.9262506755	-0.6664399143	 0.116879
H	-1.0690794871	 1.5779865092	 1.0540947776	 0.116832
H	-2.0470044887	-0.6429005002	-0.0284649829	 0.094934
H	-0.9376343699	-1.6249833002	-1.0057766544	 0.094224
H	-1.0131636835	-1.3701765179	 2.0385837047	 0.084691
H	 0.3362170632	-3.3322004702	 0.5917367671	 0.290611
H	 1.2419208203	-0.3947808668	 1.9987323983	 0.058838
H	 2.9097436223	-0.9079546651	 0.2916074905	 0.076497
H	 2.3388842084	-2.6619776418	-1.1856075733	 0.289555
H	 0.9882909766	-0.5587045977	-1.9911174468	 0.090412
H	 1.8940851063	 0.7240311754	-1.1528677901	 0.096583
66.5293	190.4552	225.9624	241.5307	258.0793	284.1964	345.2292	359.4476	410.8429	443.0026	527.7344	554.1445	587.5167	697.917	740.0796	815.4693	837.1837	873.1034	932.123	936.0525	955.4058	980.8883	1037.2638	1042.2011	1081.884	1120.3181	1141.6663	1152.1614	1171.3617	1195.9683	1232.654	1243.4299	1245.6454	1279.9005	1318.7319	1321.5666	1339.2399	1346.4158	1410.5416	1414.489	1466.6881	1473.1661	1483.247	1492.3017	1493.4557	3011.6123	3015.9367	3035.1521	3042.6659	3052.3938	3078.4842	3086.7521	3089.9851	3091.4667	3107.2996	3761.7706	3824.1581
CC12CC(O)C1C(O)C2	C[C@]12C[C@@H](O)[C@H]1[C@@H](O)C2	
InChI=1S/C7H12O2/c1-7-2-4(8)6(7)5(9)3-7/h4-6,8-9H,2-3H2,1H3	InChI=1S/C7H12O2/c1-7-2-4(8)6(7)5(9)3-7/h4-6,8-9H,2-3H2,1H3/t4-,5+,6+,7-
