13
gdb 129785	3.57297	1.68232	1.14611	3.1732	66.43	-0.2066	-0.0075	0.1991	962.1293	0.093174	-448.936557	-448.92979	-448.928846	-448.967599	25.874	
N	 0.118897293	 1.4094126023	 0.1524776901	-0.610782
C	-0.0466669595	 0.0332747149	 0.0512535532	 0.223067
C	-1.1549610611	-0.798792647	 0.0354830993	 0.169662
N	-2.5474808339	-0.8858663289	 0.0126714626	-0.35869
C	-2.7497268353	-2.1594066775	-0.0274131834	 0.042243
O	-1.6357432093	-2.9851568246	-0.040450665	-0.212296
C	-0.6126756011	-2.0870136712	 0.0033366483	 0.413374
N	 0.6968715967	-2.1737755537	-0.0095197909	-0.366683
N	 1.0175404838	-0.8265743565	 0.0259251976	-0.251367
H	 0.7742924645	 1.7969847158	-0.5156327782	 0.256214
H	-0.7647280679	 1.8967861725	 0.0876662304	 0.270307
H	-3.697601013	-2.674574135	-0.05044098	 0.150647
H	 1.986814533	-0.5762205813	 0.120750206	 0.274305
174.0756	209.3045	255.34	273.9811	357.5967	456.4061	575.0309	619.2078	632.1699	639.1022	719.4582	740.0634	781.1115	823.6767	840.4183	919.4581	1050.8673	1075.6125	1091.174	1156.6067	1275.3493	1325.0278	1342.7527	1456.2673	1476.9892	1561.8584	1612.0199	1644.0338	1689.8735	3275.087	3535.023	3632.9253	3680.6342
NC1=C2N=COC2=NN1	Nc1c2ncoc2n[nH]1	
InChI=1S/C4H4N4O/c5-3-2-4(8-7-3)9-1-6-2/h1H,(H3,5,7,8)	InChI=1S/C4H4N4O/c5-3-2-4(8-7-3)9-1-6-2/h1H,(H3,5,7,8)
