18
gdb 63086	3.0129	1.41398	1.31231	1.749	71.59	-0.2385	0.027	0.2654	1036.2853	0.148041	-439.076149	-439.067963	-439.067019	-439.108529	31.633	
C	 0.1063807414	 1.5824124547	 0.0681236376	-0.469625
C	 0.0448660275	 0.0761135028	-0.0262306902	 0.343085
O	-1.1455636116	-0.4942590873	 0.4560900097	-0.459453
C	 0.6019946816	-0.6857383916	-1.2067771904	-0.141006
C	 1.3849487384	-0.0007462819	-2.3142866155	-0.187082
N	 2.7136686048	 0.4867311106	-1.957550516	-0.263659
C	 3.1453485933	 0.3415341831	-0.7811022239	 0.1201
O	 2.5462542482	-0.2012176593	 0.3127802926	-0.218926
C	 1.2769251203	-0.7861307	 0.1392245464	 0.020249
H	 1.0099048405	 1.9921545	-0.3870752371	 0.144404
H	-0.7622707798	 2.0197593957	-0.4337372377	 0.131164
H	 0.088173054	 1.9023375797	 1.1169621004	 0.114029
H	-1.205233798	-0.3019481072	 1.3992642645	 0.281929
H	 0.0115918919	-1.5465977028	-1.5020338473	 0.107072
H	 1.5177027886	-0.7115930529	-3.1379367329	 0.123812
H	 0.8242679433	 0.8419617163	-2.7389926531	 0.117724
H	 4.137514887	 0.6930275549	-0.5053875581	 0.124976
H	 1.1888588087	-1.6950304649	 0.7233787312	 0.111206
113.8072	165.7357	208.6226	235.2239	268.7475	335.1836	389.4791	429.503	469.364	504.5379	550.4107	624.7497	716.0079	811.5131	838.2515	898.4417	943.2387	966.234	975.5839	1005.431	1016.7794	1038.0088	1086.1621	1109.5631	1139.0151	1172.5181	1234.4881	1274.4641	1289.0799	1331.6345	1336.8718	1360.9968	1414.7456	1421.3019	1451.6657	1480.6977	1494.8136	1507.6206	1740.9628	3021.0211	3032.4258	3052.9595	3095.0588	3137.6939	3162.8541	3165.926	3178.4935	3784.4152
CC1(O)C2CN=COC12	C[C@@]1(O)[C@H]2CN=CO[C@@H]12	
InChI=1S/C6H9NO2/c1-6(8)4-2-7-3-9-5(4)6/h3-5,8H,2H2,1H3	InChI=1S/C6H9NO2/c1-6(8)4-2-7-3-9-5(4)6/h3-5,8H,2H2,1H3/t4-,5+,6+/m0/s1
