21
gdb 101103	3.43373	1.09952	0.98338	2.0557	78.99	-0.2433	0.077	0.3204	1299.959	0.181346	-424.162322	-424.153241	-424.152296	-424.196252	34.779	
C	 0.0351943377	 1.5060461667	-0.1255702262	-0.386925
C	-0.0120526396	-0.004826489	 0.1084980193	-0.18765
C	-1.4384051293	-0.5691720862	 0.0381191844	-0.028814
O	-2.0778973995	-0.2619331396	-1.195716438	-0.434952
C	-1.4681071965	-2.0640285159	 0.2296131783	 0.436229
C	-0.763660984	-3.0145571455	 1.234079511	-0.273256
C	-1.3720108512	-3.8483952906	 0.082491812	 0.049026
C	-2.6790050538	-3.0330083312	 0.1783435741	-0.260838
O	-0.8458825113	-2.8537804729	-0.8844116418	-0.362475
H	 1.0654864735	 1.8738788815	-0.1195140592	 0.10814
H	-0.4174231053	 1.7579658145	-1.0877325404	 0.132694
H	-0.5167569696	 2.0449319554	 0.6530214755	 0.110291
H	 0.600721864	-0.5279455231	-0.6360393693	 0.10903
H	 0.4134480341	-0.2508256191	 1.0896828474	 0.094729
H	-2.0548722322	-0.1039427724	 0.8190162153	 0.088086
H	-1.7270616357	-0.8876409925	-1.842847314	 0.291324
H	 0.3252131508	-2.9612660422	 1.2435963156	 0.1114
H	-1.1987651434	-3.1183963119	 2.2310451165	 0.09781
H	-1.2249307952	-4.9002514808	-0.1605332531	 0.098695
H	-3.2871756308	-3.1370944213	 1.0803342524	 0.095472
H	-3.2708862728	-2.9850553038	-0.7352659197	 0.111985
70.7315	100.5853	141.5316	193.4774	232.3545	286.8291	347.2884	384.8576	431.0928	491.4404	534.4918	607.5628	688.9746	750.371	792.9164	809.3748	879.4772	910.2861	930.0232	953.6175	983.138	987.1333	992.5078	1062.116	1087.7028	1090.5059	1116.7852	1119.5757	1138.0508	1164.5941	1211.4939	1233.1314	1243.4046	1258.9187	1274.5834	1335.8786	1337.8165	1387.0161	1408.2353	1437.593	1468.1181	1485.5456	1496.2959	1510.1397	1514.0213	3023.7495	3027.2287	3035.8697	3063.4141	3065.1509	3072.1325	3101.1032	3124.6875	3126.2622	3151.2529	3157.595	3771.4467
CCC(O)C12CC(C1)O2	CC[C@@H](O)[C@@]12C[C@@H](C1)O2	
InChI=1S/C7H12O2/c1-2-6(8)7-3-5(4-7)9-7/h5-6,8H,2-4H2,1H3	InChI=1S/C7H12O2/c1-2-6(8)7-3-5(4-7)9-7/h5-6,8H,2-4H2,1H3/t5-,6-,7+/m1/s1
