16
gdb 14534	4.5192	1.59308	1.42225	1.2626	71.43	-0.23	0.0401	0.2701	904.9368	0.128837	-346.522947	-346.515319	-346.514374	-346.554438	29.191	
C	 0.0039832634	 1.5458311473	 0.0010874137	-0.482171
C	 0.0298414363	 0.0271857056	-0.0427827074	 0.108877
C	-1.1164286323	-0.6335448006	 0.5248568675	 0.249405
C	-2.0736913062	-1.1789693409	 1.0089470869	-0.426897
C	 0.6472155863	-0.7704343493	-1.2053097611	-0.164023
C	 1.9109914071	-0.077350013	-1.6972124927	-0.118499
O	 2.4448969566	-0.0166179021	-0.34359997	-0.287361
C	 1.3252814447	-0.753245865	 0.1379519171	 0.070892
H	 0.9919262362	 1.9525870339	-0.2233373858	 0.140399
H	-0.7212989784	 1.9494923183	-0.7119205921	 0.123936
H	-0.2799613505	 1.8854836028	 1.0010297646	 0.130376
H	-2.9206136073	-1.6551454044	 1.4369568617	 0.191435
H	 0.0990025737	-1.5510061237	-1.7134714917	 0.113479
H	 2.538270941	-0.7228798858	-2.3212128127	 0.118805
H	 1.8194204901	 0.9118829443	-2.158379699	 0.112704
H	 1.4865394493	-1.4982744573	 0.907870561	 0.118644
146.0279	153.5768	172.354	263.2506	281.6428	404.003	474.1126	518.9241	525.8652	579.3124	655.8316	665.9355	753.1035	833.8733	903.661	942.8215	953.2174	979.9283	993.177	1040.5015	1077.0467	1091.2992	1107.8223	1159.6563	1197.6123	1238.154	1278.5912	1317.7481	1383.5473	1409.2896	1487.3462	1498.8661	1516.3664	2230.5689	3033.6977	3046.3663	3083.7164	3111.5641	3135.4654	3187.654	3216.1906	3503.2776
CC1(C#C)C2COC12	C[C@@]1(C#C)[C@H]2CO[C@@H]12	
InChI=1S/C7H8O/c1-3-7(2)5-4-8-6(5)7/h1,5-6H,4H2,2H3	InChI=1S/C7H8O/c1-3-7(2)5-4-8-6(5)7/h1,5-6H,4H2,2H3/t5-,6+,7+/m0/s1
