20
gdb 124559	4.00433	0.90127	0.86461	2.9771	81.68	-0.2507	-0.0073	0.2434	1435.745	0.170614	-403.160469	-403.151357	-403.150413	-403.195257	33.422	
C	-0.0855780723	 1.5476664522	-0.0886790769	-0.395405
C	 0.0178803585	 0.0215537973	 0.0133837439	 0.045779
C	 0.9278854397	-0.3972486779	 1.1743043728	-0.388107
C	-1.3954136686	-0.598790816	 0.1416739386	-0.315041
C	-1.4177285561	-2.0867518409	 0.0523572062	 0.442015
C	-1.7285504962	-3.0832261595	 0.9280170027	-0.343322
C	-1.5264472459	-4.2688431618	 0.173560183	 0.035098
N	-1.1284821036	-4.0187345868	-1.0485370788	-0.142196
O	-1.0588038726	-2.6280561832	-1.128566398	-0.21185
H	 0.9039029873	 1.9997400247	-0.2091376371	 0.115665
H	-0.7003934305	 1.8523599691	-0.9420847127	 0.113959
H	-0.5356800691	 1.9724507079	 0.8167946063	 0.112648
H	 0.4529047973	-0.3579891161	-0.9196130077	 0.098288
H	 1.9356799537	 0.0096444489	 1.0451432345	 0.116118
H	 0.5390761057	-0.0235088266	 2.1296616917	 0.109131
H	 1.0119221262	-1.4852410171	 1.2502011274	 0.12436
H	-1.8430362011	-0.3043794548	 1.0975641961	 0.112441
H	-2.0356528073	-0.1907042161	-0.6501853687	 0.123423
H	-2.0532203649	-2.9856769669	 1.9503358255	 0.11655
H	-1.6588282102	-5.2972191863	 0.4798363213	 0.130448
42.7017	72.1416	108.9618	219.6562	245.501	276.8951	316.7502	341.8482	415.1986	419.9148	647.8387	661.9641	754.0282	805.0983	831.6039	878.3424	917.412	926.3389	932.3939	946.3217	952.9937	968.6846	1016.2285	1054.8426	1105.8326	1136.7107	1190.7756	1213.165	1231.1811	1275.5401	1312.8664	1361.5267	1371.2991	1390.1266	1402.5418	1423.1427	1469.9304	1487.1015	1493.3045	1503.6934	1509.3401	1514.443	1633.0489	3024.0401	3025.7236	3027.9358	3034.6291	3076.7782	3089.6443	3096.9653	3103.2581	3110.9171	3241.9341	3279.9604
CC(C)CC1=CC=NO1	CC(C)Cc1ccno1	
InChI=1S/C7H11NO/c1-6(2)5-7-3-4-8-9-7/h3-4,6H,5H2,1-2H3	InChI=1S/C7H11NO/c1-6(2)5-7-3-4-8-9-7/h3-4,6H,5H2,1-2H3
