19
gdb 30939	2.37366	1.33107	0.90499	3.8921	81.5	-0.1825	0.0371	0.2196	1319.7207	0.158607	-419.252074	-419.242409	-419.241465	-419.286896	34.921	
C	 0.2517872206	 1.6474180586	-0.1603053461	-0.368876
C	-0.0278244698	 0.1452903512	 0.0278150616	-0.306645
C	 0.6071194528	-0.432696216	 1.2475602599	 0.223271
C	 0.0835770591	-0.9448765908	 2.3727198202	 0.241628
C	-1.2963962382	-1.1592808174	 2.8676741498	-0.493237
O	 1.1170142799	-1.3384301544	 3.2248650492	-0.250616
C	 2.3217999083	-1.0734629204	 2.6079422194	 0.452272
N	 3.4868300958	-1.3119970272	 3.0493560428	-0.611985
N	 1.9996746561	-0.4905715386	 1.4039093485	-0.387086
H	 1.3250596754	 1.8488363131	-0.2338717574	 0.120446
H	-0.2213010069	 2.0161495503	-1.0750988675	 0.119787
H	-0.1354979719	 2.2235303691	 0.6849605601	 0.128225
H	-1.1069557875	-0.0252535722	 0.0850453696	 0.117774
H	 0.3209561422	-0.4013653229	-0.8594744732	 0.113538
H	-1.4800893754	-2.2176577222	 3.087360253	 0.140194
H	-1.4826934251	-0.5984725045	 3.7913798923	 0.139743
H	-2.0236376519	-0.8348939475	 2.1200307824	 0.132842
H	 3.4375118257	-1.7510227177	 3.9646325391	 0.220515
H	 2.6942047607	-0.2822177106	 0.7098928861	 0.26821
61.5581	98.2135	146.3359	175.6189	190.8378	201.9552	268.0072	295.2056	355.001	419.4747	521.6392	602.3943	630.9223	662.482	712.387	749.0594	781.3992	814.809	938.6144	966.2924	989.5409	1059.0206	1065.2595	1065.62	1083.8623	1147.5394	1243.945	1253.6538	1305.3624	1351.5287	1365.4466	1410.2283	1420.5555	1438.3132	1466.2853	1477.8971	1494.8575	1496.0741	1505.4849	1757.8258	1793.9894	3012.2365	3025.383	3041.2816	3072.3193	3081.3172	3112.9246	3118.7017	3127.1063	3541.2196	3703.6244
CCC1=C(C)OC(=N)N1	CCC1=C(C)O[C@H]([NH])N1	
InChI=1S/C6H10N2O/c1-3-5-4(2)9-6(7)8-5/h3H2,1-2H3,(H2,7,8)	InChI=1S/C6H11N2O/c1-3-5-4(2)9-6(7)8-5/h6-8H,3H2,1-2H3/t6-/m1/s1
