20
gdb 5868	4.03138	1.05023	1.02967	1.4619	77.94	-0.2494	0.0388	0.2883	1259.8571	0.172351	-348.967595	-348.957484	-348.95654	-349.002637	36.875	
C	-0.0599385082	 1.5675871994	 0.0721725747	-0.417287
C	 0.0358871393	 0.0338416694	 0.0461216508	 0.385821
C	 0.7140705361	-0.4965528387	 1.3193015658	-0.417268
C	-1.3598110955	-0.5796801944	-0.1031171981	-0.400001
O	 0.719636485	-0.4241346618	-1.1361534683	-0.286474
C	 2.06515016	-0.0249136515	-1.3110833341	-0.22952
C	 2.5705537102	-0.5889745503	-2.5580557801	 0.294183
C	 3.0140443234	-1.0396215726	-3.5789824299	-0.420315
H	 0.9133047717	 2.0408860069	 0.2336171965	 0.113819
H	-0.4742485141	 1.9386606658	-0.86990422	 0.123667
H	-0.7157428114	 1.8900439398	 0.8866707327	 0.1162
H	 0.0963704691	-0.2752231927	 2.1950443379	 0.116195
H	 0.8453195884	-1.580847385	 1.2565952891	 0.123666
H	 1.692785392	-0.0377500482	 1.4892916963	 0.113814
H	-1.831022725	-0.2268070805	-1.0245076065	 0.121599
H	-1.2899336975	-1.6697073746	-0.1528868451	 0.121606
H	-1.9970242153	-0.3073480148	 0.7432815976	 0.108425
H	 2.1608220958	 1.0712114331	-1.3510769861	 0.117178
H	 2.7012093934	-0.3686792934	-0.4807202325	 0.117173
H	 3.4000960826	-1.4411235157	-4.4829651807	 0.197518
34.1689	91.3691	128.0961	203.3847	246.3444	262.1725	269.9695	333.2073	338.3433	340.1229	381.1993	453.3345	493.9846	530.9494	605.1308	669.4049	758.8331	896.5764	909.1855	924.3296	956.0472	974.0382	1027.8037	1045.6661	1048.6557	1100.7009	1223.1542	1248.0704	1256.6283	1272.8849	1392.2764	1393.8513	1410.9154	1424.3979	1471.1721	1484.8252	1486.4472	1498.0668	1499.8589	1506.1226	1521.337	2247.0147	2976.9359	2998.3281	3036.6932	3039.4037	3046.7559	3103.658	3109.4091	3114.3157	3114.9326	3122.3371	3123.3857	3507.3256
CC(C)(C)OCC#C	CC(C)(C)OCC#C	
InChI=1S/C7H12O/c1-5-6-8-7(2,3)4/h1H,6H2,2-4H3	InChI=1S/C7H12O/c1-5-6-8-7(2,3)4/h1H,6H2,2-4H3
