21
gdb 101471	3.3882	0.9552	0.79412	0.8907	74.54	-0.2535	0.0758	0.3292	1451.414	0.182064	-461.356114	-461.346357	-461.345412	-461.391481	34.965	
C	-0.0908750921	 1.5260300087	-0.0295813787	-0.407412
C	 0.0492982223	-0.0020210787	 0.0118946956	 0.007389
C	 0.7209326972	-0.5314714443	-1.2562597365	-0.084145
O	-0.0929870507	-0.1745195672	-2.366055168	-0.426271
C	 0.8214633129	-0.4485161973	 1.2549728709	 0.110414
C	 0.1348565204	-0.111909431	 2.5956667399	-0.131399
O	 0.4400630697	-1.2278618951	 3.4170377735	-0.233738
C	 0.4191626524	-2.3206311961	 2.5379950952	 0.021001
O	 0.9576950185	-1.8768698659	 1.3083715303	-0.276011
H	 0.8933650938	 2.009373661	 0.0009043404	 0.110714
H	-0.5852258401	 1.8296096254	-0.954057329	 0.142721
H	-0.6771582297	 1.905139991	 0.813473955	 0.11254
H	-0.9515145764	-0.4525972312	 0.0571467403	 0.082337
H	 1.7299400071	-0.0932619298	-1.3468880635	 0.078513
H	 0.8350884055	-1.6201231987	-1.1763233204	 0.107724
H	 0.3130498196	-0.5301060926	-3.1613537172	 0.287069
H	 1.8342464188	-0.0197449499	 1.2292254584	 0.079313
H	 0.5213631626	 0.7875383957	 3.0773443342	 0.122531
H	-0.954090125	-0.0094971113	 2.4612507252	 0.09673
H	 1.0430348826	-3.1202923133	 2.9497365732	 0.116787
H	-0.6138277594	-2.6855568692	 2.3885450314	 0.083194
49.8467	86.8038	116.8847	153.5528	225.3951	244.8587	264.0118	268.3397	322.7303	389.9729	414.7858	529.1636	685.7469	744.4289	849.7427	891.4202	933.4347	966.4913	974.8272	997.9951	1030.6055	1069.0484	1096.632	1109.496	1122.4009	1162.018	1175.3473	1187.1302	1209.0657	1241.9792	1263.908	1272.2904	1310.2197	1336.9442	1358.7129	1370.2903	1397.0511	1409.1154	1433.9335	1457.1004	1493.8385	1507.2135	1510.5404	1526.1852	1547.1934	2930.9034	2954.6715	2976.4075	2993.1934	3021.8303	3031.7015	3040.3873	3075.0153	3093.8709	3117.5046	3135.3572	3837.1433
CC(CO)C1COCO1	C[C@@H](CO)[C@H]1COCO1	
InChI=1S/C6H12O3/c1-5(2-7)6-3-8-4-9-6/h5-7H,2-4H2,1H3	InChI=1S/C6H12O3/c1-5(2-7)6-3-8-4-9-6/h5-7H,2-4H2,1H3/t5-,6+/m0/s1
