17
gdb 53809	3.40239	1.0866	0.90042	1.8312	69.23	-0.2474	-0.0909	0.1565	1289.2663	0.133265	-458.966945	-458.957529	-458.956585	-459.003011	31.907	
C	-0.4672484813	 1.4445005575	-0.0276159582	-0.475655
C	-0.4180824721	-0.0589062427	-0.1092705648	 0.304951
O	-0.7558811897	-0.8062061372	 0.7800602154	-0.275078
C	 0.0970738923	-0.6593978048	-1.4412446742	 0.261263
O	 0.3742172177	 0.0684566564	-2.366306401	-0.279731
C	 0.1820723045	-2.163614598	-1.4789823744	-0.137577
C	-1.1819487889	-2.9002910534	-1.6153806166	-0.071153
O	-0.8081335101	-3.4293912849	-2.8976039499	-0.267357
C	 0.4938523569	-2.8047401214	-2.8415069815	-0.095825
H	 0.5354864085	 1.8592022499	-0.1752030435	 0.157535
H	-1.0817951014	 1.8431927306	-0.840787543	 0.160794
H	-0.8653469456	 1.7500369749	 0.9399980029	 0.144322
H	 0.7707452215	-2.5144544434	-0.6298327971	 0.116911
H	-1.3542993293	-3.6815516791	-0.8671028298	 0.118077
H	-2.0701452785	-2.2591246858	-1.6726354961	 0.108464
H	 0.6468629258	-2.0890990344	-3.6557033928	 0.126067
H	 1.3032052996	-3.5436381341	-2.8392683157	 0.103993
45.2971	49.2903	76.8893	113.935	148.5008	227.8308	299.4866	332.3946	405.5534	518.6819	581.4857	672.279	731.6221	815.9866	879.2537	899.8953	951.8109	1003.0378	1028.2317	1040.4627	1049.5369	1102.4866	1113.281	1155.448	1167.531	1212.9704	1247.4795	1307.7012	1360.1827	1377.4719	1386.2094	1451.8358	1460.2462	1512.0094	1535.3183	1798.5563	1804.9034	3019.1096	3032.6321	3049.2887	3067.6186	3083.8743	3105.3423	3110.335	3163.362
CC(=O)C(=O)C1COC1	CC(=O)C(=O)C1COC1	
InChI=1S/C6H8O3/c1-4(7)6(8)5-2-9-3-5/h5H,2-3H2,1H3	InChI=1S/C6H8O3/c1-4(7)6(8)5-2-9-3-5/h5H,2-3H2,1H3
