19
gdb 99798	1.80355	1.19758	0.87005	1.7813	86.76	-0.2525	0.0194	0.2719	1450.2357	0.154204	-385.828712	-385.817427	-385.816483	-385.865793	39.664	
C	-0.0018323736	 1.5260378396	 0.1905982067	-0.399215
C	-0.0053666947	 0.008458104	 0.0095047561	-0.171971
C	 0.7017036101	-0.4610320443	-1.2875165235	-0.039782
O	 2.0533396919	 0.0013904438	-1.1812662436	-0.428682
C	 0.6744521401	-1.9349863945	-1.3592224527	 0.330092
C	 0.6731301515	-3.1359170491	-1.4025756885	-0.459406
C	 0.0539682479	 0.0925144434	-2.4900997239	 0.123294
C	-0.4499735081	 0.5469479368	-3.4849051132	 0.009855
C	-1.0631253575	 1.0923460496	-4.6870254756	-0.500663
H	 1.0198977303	 1.911098255	 0.2168163009	 0.136462
H	-0.5325944686	 2.0223202142	-0.6269959681	 0.1233
H	-0.4960916444	 1.7943199041	 1.1290696581	 0.1087
H	 0.5156160268	-0.4791292464	 0.8396618077	 0.115169
H	-1.0274201467	-0.3813352325	-0.0090716424	 0.112076
H	 2.5047440915	-0.2404122546	-1.9975891746	 0.285762
H	 0.6702250156	-4.1971136409	-1.4464563373	 0.196936
H	-1.0442796781	 0.3665454877	-5.5072221009	 0.15237
H	-2.1086942829	 1.3652785801	-4.5076702627	 0.153177
H	-0.538747531	 1.9927354539	-5.0251629325	 0.152528
37.8486	77.9281	104.6985	107.6763	145.4804	199.9061	226.2351	266.2015	287.2402	328.9988	337.1173	402.633	477.3505	500.0206	545.4267	589.2531	632.9963	648.6552	659.7436	788.8983	901.3287	960.4349	1014.1652	1047.005	1052.3667	1054.42	1093.0426	1148.228	1207.8485	1303.0688	1350.2783	1372.5163	1405.153	1413.7695	1473.8105	1476.8233	1477.976	1491.6267	1509.7416	2232.474	2365.8641	3029.5196	3047.3445	3053.9596	3091.8559	3092.2551	3096.3271	3114.3382	3134.2839	3501.3706	3810.2432
CCC(O)(C#C)C#CC	CC[C@@](O)(C#C)C#CC	
InChI=1S/C8H10O/c1-4-7-8(9,5-2)6-3/h2,9H,6H2,1,3H3	InChI=1S/C8H10O/c1-4-7-8(9,5-2)6-3/h2,9H,6H2,1,3H3/t8-/m0/s1
