22
gdb 118166	4.9059	0.57615	0.54156	2.4452	85.11	-0.2462	0.0231	0.2693	2099.8529	0.190542	-441.465427	-441.453914	-441.45297	-441.503743	38.861	
C	 0.0674074688	 1.4185314948	-0.8639107606	-0.225215
O	-0.3547077058	 0.0776442931	-0.8973826551	-0.233457
C	-0.6318776548	-0.4433457943	 0.3844514388	-0.044006
C	-1.074472954	-1.905232374	 0.2402591409	 0.03686
C	 0.019418271	-2.754400793	-0.4161706926	-0.411913
N	-1.5681937225	-2.3180037267	 1.5474301912	-0.240417
C	-1.1676545288	-3.3803698605	 2.0852381449	 0.123399
O	-1.6386339822	-3.7384462353	 3.300164191	-0.194058
C	-1.1282030934	-4.9602065378	 3.8167536561	-0.25008
H	 0.2526100732	 1.7311278376	-1.8947268409	 0.124112
H	-0.6982892363	 2.077545393	-0.4246704398	 0.104844
H	 0.9957683918	 1.5413151191	-0.2831038481	 0.102154
H	 0.2622868653	-0.3865461158	 1.0303077685	 0.080061
H	-1.4320588241	 0.1270618276	 0.8793494328	 0.100969
H	-1.9452267468	-1.8914404024	-0.4305477295	 0.097856
H	 0.3045033081	-2.2920643266	-1.3632485767	 0.137267
H	 0.9153753532	-2.81009963	 0.2137145838	 0.109037
H	-0.321845468	-3.7740952781	-0.6213142713	 0.109852
H	-0.4462842718	-4.0910682998	 1.6620371265	 0.076908
H	-1.3824593837	-5.8096450978	 3.1705705601	 0.125472
H	-0.0394653065	-4.9204832869	 3.9467571982	 0.124943
H	-1.5973669627	-5.1022714864	 4.7910806818	 0.145412
34.3205	55.0837	84.4609	100.2861	136.3053	156.7239	196.4378	232.5937	246.4615	295.4881	324.4993	356.6389	369.2292	501.5312	509.9892	630.3777	854.6181	924.3129	962.9187	986.3129	999.1552	1058.1132	1101.71	1136.599	1155.6362	1173.3402	1177.0706	1184.3261	1195.0651	1229.7179	1258.1282	1274.4273	1319.9853	1368.556	1389.3153	1412.5582	1417.9515	1479.8965	1484.2097	1484.4732	1494.2551	1495.1821	1501.3669	1502.1259	1504.5436	1526.7667	1776.8	2949.4576	2969.4728	3002.3764	3008.6647	3011.0345	3016.7503	3028.0097	3039.4441	3072.2103	3094.9919	3110.3096	3132.8786	3142.7596
COCC(C)N=COC	COC[C@@H](C)N=COC	
InChI=1S/C6H13NO2/c1-6(4-8-2)7-5-9-3/h5-6H,4H2,1-3H3	InChI=1S/C6H13NO2/c1-6(4-8-2)7-5-9-3/h5-6H,4H2,1-3H3/t6-/m1/s1
