17
gdb 133659	2.37934	1.27862	1.01408	1.9248	57.26	-0.2595	0.0679	0.3273	1182.5843	0.13077	-586.649183	-586.639303	-586.638358	-586.684289	35.662	
C	 0.0562661512	 1.5837479738	-0.0904210981	-0.401191
C	-0.1176825093	 0.0710363716	 0.0332258109	 0.148382
O	 0.1730364205	-0.595394973	-1.1837696064	-0.428139
C	 0.6894086517	-0.4897083904	 1.2294434946	-0.181777
N	 0.1313169602	 0.0355877063	 2.4702160725	-0.507868
C	 0.7596591194	-2.0250951319	 1.2238178417	 0.28945
F	 1.5324178179	-2.5083669644	 0.2436618995	-0.073886
F	 1.2893331581	-2.4659742657	 2.3850371917	-0.092454
F	-0.4569880821	-2.5788321365	 1.1132994325	-0.081609
H	 1.1007176591	 1.8314498661	-0.3189478739	 0.10448
H	-0.5688969273	 1.9628788831	-0.9026410885	 0.124745
H	-0.2129441634	 2.0844860276	 0.8416553536	 0.141896
H	-1.1740072428	-0.1585165575	 0.2199287331	 0.097731
H	 1.0973964834	-0.4377671275	-1.405546017	 0.279654
H	 1.7304284387	-0.1486152399	 1.150844576	 0.099383
H	-0.8119824047	-0.3229256332	 2.5973715387	 0.238478
H	 0.6728569993	-0.2960985087	 3.2618489291	 0.242725
51.4915	75.4532	175.4431	208.2404	243.008	265.5066	281.4851	289.3057	319.7213	353.5714	427.3182	459.3769	506.3634	548.0206	589.3266	691.5959	813.0491	864.1371	911.5641	966.816	1028.9365	1092.4633	1109.5478	1146.4803	1172.8999	1191.7672	1201.9153	1277.8657	1317.3406	1334.1196	1385.1408	1395.4037	1404.5719	1426.1985	1490.3089	1497.2628	1666.8557	3026.9457	3028.046	3046.8964	3106.987	3142.7915	3491.9268	3575.4987	3802.6199
CC(O)C(N)C(F)(F)F	C[C@@H](O)[C@@H](N)C(F)(F)F	
InChI=1S/C4H8F3NO/c1-2(9)3(8)4(5,6)7/h2-3,9H,8H2,1H3	InChI=1S/C4H8F3NO/c1-2(9)3(8)4(5,6)7/h2-3,9H,8H2,1H3/t2-,3-/m1/s1
