14
gdb 23537	2.06198	1.80668	1.08034	5.3527	70.58	-0.2544	-0.0179	0.2365	1066.7444	0.100694	-432.775758	-432.767921	-432.766977	-432.808434	28.976	
O	-0.0991475673	 1.2899989642	 0.0380381269	-0.380297
N	 0.0537963109	-0.0952093183	-0.0697746281	-0.249323
C	-1.0544086511	-0.689177039	 0.0446227636	 0.4835
C	-1.4310176048	-2.1216805997	-0.09703644	-0.166836
N	-2.2682660538	-2.4367596783	 1.1046227068	-0.312574
C	-2.8832529718	-1.7490862915	-0.0339972836	-0.053739
C	-2.5360241842	-0.2457620474	 0.1204874158	-0.266883
C	-3.0251458252	 0.4476278623	 1.3023461646	 0.316295
N	-3.4389190353	 1.000642538	 2.2284328845	-0.331588
H	 0.8067806159	 1.6087973105	-0.0432668752	 0.316672
H	-0.9231844496	-2.8979843157	-0.6516971087	 0.125065
H	-2.5161660928	-3.4243100239	 1.0395772224	 0.245729
H	-3.7269620583	-2.152815936	-0.5764495871	 0.123066
H	-2.7841503825	 0.3311334547	-0.7765077819	 0.150913
90.3499	127.5839	165.1143	225.1686	322.1866	385.5126	438.3327	450.9216	524.0624	602.2256	635.3083	702.9219	801.3004	823.6182	872.0691	885.5627	965.8356	997.3892	1009.2659	1048.0745	1080.7729	1103.4	1132.5831	1171.7739	1253.0557	1313.3922	1328.1897	1355.2172	1424.0121	1796.4076	2364.5029	3071.3736	3214.7534	3228.1097	3475.6074	3813.7468
ON=C1C2NC2C1C#N	ON=C1[C@H]2N[C@H]2[C@H]1C#N	
InChI=1S/C5H5N3O/c6-1-2-3-5(7-3)4(2)8-9/h2-3,5,7,9H	InChI=1S/C5H5N3O/c6-1-2-3-5(7-3)4(2)8-9/h2-3,5,7,9H/t2-,3+,5+/m1/s1
