19
gdb 72155	2.72825	1.94726	1.81096	2.1184	72.83	-0.2519	0.0945	0.3464	885.5931	0.162474	-423.026983	-423.020502	-423.019558	-423.05739	27.946	
C	-0.0981537936	 1.4798289189	 0.0086634968	-0.505295
C	 0.0230732077	-0.018242069	-0.0556916375	 0.382373
C	 0.6205374923	-0.7297194356	-1.2884110642	-0.236483
C	 0.5843196468	-2.1086049907	-0.5917222898	-0.113706
C	 1.6474203758	-1.8337351112	 0.4993276158	-0.209323
C	 0.7369051288	-0.8062985536	 1.1909944887	-0.000294
O	-0.3076810719	-1.7028503595	 1.6010930687	-0.244934
C	-0.7716964135	-1.9455329772	 0.2834323767	 0.171166
O	-1.2652810042	-0.6715231003	-0.0760645752	-0.272329
H	 0.8924993363	 1.9449201505	 0.0079536777	 0.119511
H	-0.6547459503	 1.8598676351	-0.8535526484	 0.130068
H	-0.6244290066	 1.785789273	 0.9174668787	 0.134239
H	-0.0501602768	-0.6152075943	-2.1412473692	 0.103855
H	 1.6323416877	-0.4311590026	-1.5722537057	 0.09296
H	 0.6679641259	-3.0097739556	-1.1954819844	 0.071678
H	 1.8547360804	-2.6638824773	 1.1756642141	 0.107357
H	 2.5826742376	-1.452117126	 0.0844401145	 0.094934
H	 1.0963732578	-0.2096337621	 2.0270830955	 0.080393
H	-1.5402821502	-2.7138546125	 0.2513415472	 0.093829
207.9596	250.4287	268.5263	411.0001	534.5431	547.3369	591.2428	618.8928	641.2833	698.9091	760.0094	832.3063	851.6788	868.5532	898.6059	921.4341	931.8987	939.2741	955.8532	964.6897	1002.8327	1032.0599	1053.529	1084.795	1128.8388	1161.4493	1174.2854	1182.4216	1226.0012	1246.5571	1254.3863	1271.0453	1287.2298	1306.159	1339.9229	1349.5181	1417.9637	1482.3179	1482.6398	1495.8672	1514.8203	3040.3476	3068.7721	3079.151	3111.1147	3116.0707	3126.937	3134.1363	3141.7918	3145.6078	3164.7633
CC12CC3CC1OC3O2	C[C@@]12C[C@H]3C[C@@H]1O[C@H]3O2	
InChI=1S/C7H10O2/c1-7-3-4-2-5(7)8-6(4)9-7/h4-6H,2-3H2,1H3	InChI=1S/C7H10O2/c1-7-3-4-2-5(7)8-6(4)9-7/h4-6H,2-3H2,1H3/t4-,5+,6+,7-/m1/s1
