23
gdb 116895	4.29308	0.50344	0.46396	1.9801	93.19	-0.2463	0.0397	0.286	2460.5132	0.2028	-388.27457	-388.262788	-388.261844	-388.314049	40.901	
C	-0.0260648556	 1.5877556294	 0.0190713918	-0.38172
C	-0.0087634767	 0.0580950879	 0.012314559	-0.15323
C	 0.7453614765	-0.5241784306	 1.225913664	-0.337829
C	 0.775323426	-1.982600817	 1.2374315463	 0.049872
C	 0.799713468	-3.1876534921	 1.2119922559	 0.083894
C	 0.8027396358	-4.6529807213	 1.2436660453	-0.04861
O	 1.5128899619	-5.1528324076	 2.3790775313	-0.417983
C	-0.6288320199	-5.221550506	 1.1717507811	-0.168007
C	-0.6505020133	-6.7502987949	 1.1384274765	-0.385942
H	 0.9901041943	 1.9967978667	-0.0068972169	 0.116844
H	-0.5647924812	 1.9802164829	-0.8485094476	 0.115622
H	-0.5159694022	 1.9761170771	 0.9190082526	 0.115877
H	-1.0328194209	-0.3315824554	 0.0119412803	 0.108628
H	 0.4617491794	-0.310337302	-0.9059965513	 0.110337
H	 1.7724650739	-0.1347982849	 1.2344524336	 0.127352
H	 0.2775682587	-0.1583163552	 2.1501173395	 0.124003
H	 1.3682984509	-5.03219945	 0.3821669158	 0.109525
H	 1.1890941226	-4.6716697079	 3.148666009	 0.281028
H	-1.1891901132	-4.8481472447	 2.0386478889	 0.093566
H	-1.1200167859	-4.8064705209	 0.283974989	 0.103962
H	-1.6768152881	-7.1290616646	 1.1389923102	 0.108216
H	-0.1535324905	-7.1328127592	 0.2397200758	 0.113234
H	-0.1285806004	-7.1601278896	 2.0066695399	 0.131361
12.3053	55.0117	63.9738	102.979	139.135	177.0931	224.2974	239.7482	266.4226	278.7847	299.467	347.7427	415.6691	487.309	547.9777	559.3201	743.5868	763.4584	811.642	873.1617	880.2204	909.2858	975.3153	1040.7431	1057.6269	1092.7027	1108.4197	1112.9862	1123.1426	1166.4599	1249.5432	1259.0876	1292.1218	1305.3365	1321.7363	1325.611	1373.8883	1380.2234	1403.7055	1411.7747	1419.4336	1475.2589	1479.7324	1492.0151	1495.0664	1498.5842	1508.8155	1508.9655	2358.3156	3008.9691	3018.2786	3029.747	3029.9819	3035.8939	3037.094	3042.0349	3067.6521	3073.8607	3100.8198	3102.2502	3106.3911	3125.7436	3805.1594
CCCC#CC(O)CC	CCCC#C[C@@H](O)CC	
InChI=1S/C8H14O/c1-3-5-6-7-8(9)4-2/h8-9H,3-5H2,1-2H3	InChI=1S/C8H14O/c1-3-5-6-7-8(9)4-2/h8-9H,3-5H2,1-2H3/t8-/m0/s1
