15
gdb 45110	2.89476	1.84629	1.31179	4.501	64.67	-0.2658	-0.0152	0.2506	932.57	0.113768	-457.758086	-457.751363	-457.750419	-457.789365	26.365	
O	 0.0352029028	 0.0149910132	 0.3205177436	-0.321697
C	 0.0097246212	 1.1595545371	-0.0385822385	 0.44343
O	-1.1818839788	 1.7639072975	-0.2792828308	-0.23687
C	-1.3187042368	 2.9648338939	-1.0100398877	 0.106575
C	-1.1566998182	 4.2961801254	-0.3475752809	-0.314599
C	-0.1176406703	 3.8055950102	-1.3416020552	-0.100876
C	 1.1988946041	 3.3159985131	-0.8209661849	 0.035361
O	 1.3151317745	 3.1792406408	 0.5889846188	-0.236401
C	 1.2593375985	 1.9786078191	-0.1989679393	-0.119295
H	-2.1002681789	 2.844168811	-1.7517774478	 0.120844
H	-1.8235229958	 5.0968175127	-0.6451370643	 0.125447
H	-0.8495646064	 4.2954434283	 0.6911157378	 0.154417
H	-0.080290393	 4.2590606978	-2.32585681	 0.105044
H	 2.0921428307	 3.693541848	-1.3151526477	 0.111097
H	 2.1662922664	 1.3814798219	-0.2042659431	 0.127525
92.8139	204.5503	262.2898	394.0851	414.8889	491.7778	501.2048	593.3966	689.5984	758.447	766.7241	807.4501	850.2095	873.9866	907.5358	915.4061	999.2352	1050.6939	1066.038	1072.0255	1096.3375	1122.5473	1130.8612	1164.1122	1235.0554	1250.8604	1269.4336	1361.9032	1384.9147	1408.8751	1436.9492	1479.318	1844.3897	3129.9105	3148.7295	3168.3334	3169.5987	3177.5563	3246.5151
O=C1OC2CC2C2OC12	O=C1O[C@H]2C[C@H]2[C@H]2O[C@@H]12	
InChI=1S/C6H6O3/c7-6-5-4(9-5)2-1-3(2)8-6/h2-5H,1H2	InChI=1S/C6H6O3/c7-6-5-4(9-5)2-1-3(2)8-6/h2-5H,1H2/t2-,3+,4-,5-/m1/s1
