21
gdb 115482	2.69633	1.11137	0.82415	1.4412	80.91	-0.214	0.0602	0.2742	1443.7749	0.183484	-420.431524	-420.421923	-420.420979	-420.466346	34.784	
C	-0.167466295	 1.5788227249	 0.0525407465	-0.379481
C	-0.0719051763	 0.0524117201	 0.0119154483	-0.17059
C	 0.7831915599	-0.5247675023	 1.1408812436	 0.065752
C	 0.8324253357	-2.0838064714	 1.1555675404	-0.206365
N	 2.2184943225	-2.3240172619	 1.5738761612	-0.368881
C	 2.8867344478	-1.1425337916	 1.2814559992	 0.482188
O	 4.2190100652	-1.2243720133	 1.3048925048	-0.262456
C	 4.906356376	 0.003441612	 1.0511835188	-0.23247
N	 2.1918167333	-0.0961215997	 1.0518661717	-0.383327
H	 0.8296790556	 2.0238422948	 0.0049811681	 0.13773
H	-0.7590818825	 1.9614485225	-0.7849676225	 0.10385
H	-0.6419919017	 1.9202408636	 0.9795290428	 0.108518
H	-1.0760704879	-0.3892648256	 0.0711502238	 0.086984
H	 0.3580387454	-0.269530208	-0.9452559152	 0.091118
H	 0.3763296321	-0.1673715141	 2.0996383764	 0.074917
H	 0.1187166041	-2.5284040951	 1.8539661508	 0.109441
H	 0.634423437	-2.4903708296	 0.1523430639	 0.094887
H	 2.6720117211	-3.1782108846	 1.2816850339	 0.241564
H	 4.6421892082	 0.3962340676	 0.0655955033	 0.138186
H	 4.6478475589	 0.751051242	 1.8056508947	 0.140997
H	 5.9691788607	-0.2366676204	 1.0968124657	 0.127438
82.2056	110.6907	115.8327	144.3786	179.6627	234.8611	257.3369	262.7753	393.3125	469.6707	504.8671	551.9493	654.1464	719.7132	752.6957	800.1333	863.3912	960.6992	981.8998	991.2144	1015.0092	1045.8215	1100.7977	1102.6377	1133.1399	1158.4825	1184.1543	1214.1785	1227.1515	1285.9603	1291.5665	1310.0645	1343.5815	1348.563	1394.5779	1408.1239	1451.6828	1476.9419	1480.1005	1493.7473	1495.8694	1504.7324	1510.7155	1531.1618	1715.7299	2974.6514	2987.6013	3012.6687	3034.6497	3047.5601	3050.9069	3083.9146	3097.8398	3121.5531	3123.7592	3152.3183	3596.671
CCC1CNC(OC)=N1	CC[C@H]1CN[C](OC)[N]1	
InChI=1S/C6H12N2O/c1-3-5-4-7-6(8-5)9-2/h5H,3-4H2,1-2H3,(H,7,8)	InChI=1S/C6H12N2O/c1-3-5-4-7-6(8-5)9-2/h5H,3-4H2,1-2H3,(H,7,8)/t5-/m0/s1
