18
gdb 18160	3.58837	1.5735	1.3869	2.4744	67.38	-0.2421	0.0658	0.3079	961.4569	0.153647	-384.888069	-384.880195	-384.879251	-384.920299	29.779	
C	 0.441522843	 1.7136382778	-0.6319681607	-0.421087
C	 0.464739707	 0.2200659673	-0.387647638	-0.012475
C	 1.709976351	-0.6022890733	-0.3459240857	 0.077836
O	 2.7883734299	 0.1023017965	 0.2865516557	-0.317221
C	 2.0848979731	 0.0392375487	 1.5680568149	 0.132062
C	 2.1200537049	 1.3548171163	 2.3236930633	-0.090996
O	 3.4616389111	 1.7433533928	 2.5658274875	-0.421775
C	 0.8358965158	-0.5220414937	 0.8932904091	-0.19808
H	 1.4141632307	 2.1593348088	-0.4159499904	 0.133431
H	 0.211250301	 1.9162362688	-1.6834048363	 0.115343
H	-0.3165224087	 2.216664088	-0.0226303428	 0.118252
H	-0.342028142	-0.3203891893	-0.881939215	 0.092845
H	 1.9733378106	-1.4181905594	-1.0096593235	 0.103601
H	 2.573127801	-0.7299593752	 2.1814045477	 0.091602
H	 1.5639733782	 2.1349043745	 1.7889522458	 0.094165
H	 1.6461983518	 1.219974818	 3.3028601593	 0.109137
H	 3.9014529979	 1.7492200943	 1.70744658	 0.294729
H	 0.1856436337	-1.2675708909	 1.3309947191	 0.098632
80.3021	147.8367	192.3907	236.3323	275.6655	338.161	419.5295	455.9668	531.996	609.0328	721.087	748.6003	817.6485	843.0042	885.6096	985.4752	996.992	1016.2433	1025.7072	1056.4276	1067.2122	1079.043	1095.931	1130.6867	1148.5891	1206.5763	1216.0886	1263.2413	1298.554	1327.7192	1355.9992	1400.8316	1411.1639	1432.0465	1446.0478	1494.2152	1497.9556	1513.6352	3015.7813	3030.1314	3037.3462	3074.6637	3093.4601	3116.2941	3136.0814	3173.8644	3201.2374	3795.0047
CC1C2OC(CO)C12	C[C@H]1[C@H]2O[C@@H](CO)[C@@H]12	
InChI=1S/C6H10O2/c1-3-5-4(2-7)8-6(3)5/h3-7H,2H2,1H3	InChI=1S/C6H10O2/c1-3-5-4(2-7)8-6(3)5/h3-7H,2H2,1H3/t3-,4+,5-,6-/m1/s1
