16
gdb 28061	4.5871	0.93892	0.7832	5.3342	76.63	-0.2068	0.0196	0.2264	1408.1423	0.124716	-434.109205	-434.100356	-434.099412	-434.145296	30.677	
C	-0.0350810198	 1.4777627658	 0.0355885857	-0.49585
C	 0.0037892924	-0.0123170047	-0.0200125212	 0.359922
N	-0.0061768912	-0.7420563878	-1.122746111	-0.382211
C	 0.0403207917	-2.0389235904	-0.7009278326	 0.385533
O	 0.0468866304	-3.1136095059	-1.5381997996	-0.229002
C	 0.0046514919	-2.904788498	-2.8810861915	 0.10076
N	 0.0114387163	-3.9106553909	-3.6427069581	-0.441275
C	 0.0795256174	-2.128395852	 0.6631521419	-0.22362
N	 0.0550365118	-0.8076607267	 1.0815305643	-0.280651
H	 0.8521750832	 1.8911368153	 0.5286548086	 0.13619
H	-0.0729054319	 1.8641945885	-0.98338067	 0.159629
H	-0.9156878624	 1.8432504941	 0.576113968	 0.136194
H	-0.0315618127	-1.8485255051	-3.150821108	 0.137065
H	-0.0234411885	-3.599317648	-4.6117396326	 0.22922
H	 0.1203720289	-2.962511233	 1.3400422826	 0.140627
H	 0.0724088724	-0.4964366912	 2.0379865734	 0.267469
17.1898	36.8482	100.5097	155.9461	219.6123	335.3668	345.1432	454.0153	507.1593	516.3326	652.8569	675.1608	690.6676	729.4474	818.5439	831.8494	973.6114	1001.0791	1049.9638	1060.4772	1063.369	1088.4865	1109.5843	1249.6544	1290.9511	1322.3433	1384.3394	1406.1419	1414.1649	1449.1523	1482.569	1507.7395	1570.4724	1622.6817	1741.0375	3031.604	3081.3669	3128.763	3150.3271	3296.7751	3512.4813	3668.1255
CC1=NC(OC=N)=CN1	Cc1nc(O[CH][NH])c[nH]1	
InChI=1S/C5H7N3O/c1-4-7-2-5(8-4)9-3-6/h2-3,6H,1H3,(H,7,8)	InChI=1S/C5H7N3O/c1-4-7-2-5(8-4)9-3-6/h2-3,6H,1H3,(H,7,8)
