21
gdb 116897	4.35802	0.50759	0.48848	1.4212	85.98	-0.2441	0.0451	0.2891	2307.9162	0.178892	-424.181547	-424.169979	-424.169034	-424.220822	39.175	
C	 0.3074237577	 0.8573115691	 0.7191294586	-0.229816
O	 0.2557175743	-0.4193515917	 0.1250784463	-0.241457
C	 0.4567824229	-0.4135886377	-1.2867535235	-0.041605
C	 1.9444051496	-0.2798626063	-1.6529496098	-0.390426
C	-0.1139602445	-1.6457081941	-1.830670777	 0.073255
C	-0.5715281174	-2.6508441396	-2.3099635091	 0.073849
C	-1.1070775833	-3.8862987393	-2.8658624695	-0.328104
C	-0.253780399	-5.1096747706	-2.5130342632	-0.063089
O	-0.8739443375	-6.2328187644	-3.1158208971	-0.415651
H	 1.3048851261	 1.3174088241	 0.6601170436	 0.105202
H	-0.4179432952	 1.548942504	 0.261808925	 0.10445
H	 0.0506652002	 0.726817435	 1.7732364614	 0.12936
H	-0.0899037263	 0.4427185612	-1.7189098878	 0.089234
H	 2.0686118054	-0.2945049443	-2.7391857248	 0.125248
H	 2.3567734455	 0.6595215049	-1.2741527071	 0.115027
H	 2.507411521	-1.11232843	-1.2236209859	 0.13163
H	-2.1279424028	-4.0592285317	-2.5041506284	 0.138757
H	-1.1743884182	-3.8151327469	-3.958462935	 0.136766
H	 0.7706107159	-4.9599740848	-2.8856539392	 0.096691
H	-0.1976733953	-5.2116825203	-1.4192858827	 0.101719
H	-0.3666697489	-7.0167429067	-2.8870345649	 0.28896
14.7043	59.1755	69.5595	83.6997	126.6055	191.2517	210.6127	239.5686	255.1539	322.2805	327.2003	340.8141	417.7844	458.6736	538.1876	585.4674	779.9995	793.9853	861.5529	991.1944	1010.6226	1064.772	1080.2492	1087.6874	1098.8297	1132.8066	1180.153	1186.8978	1217.8437	1221.3692	1239.4086	1304.2681	1332.4987	1343.6054	1373.35	1396.4967	1455.0806	1475.0266	1476.3546	1482.2014	1491.3054	1501.2521	1511.0321	1527.9081	2371.8551	2946.269	2974.6947	2984.7125	3016.0404	3022.6569	3030.8812	3048.092	3068.3145	3113.138	3121.5304	3132.2295	3835.7221
COC(C)C#CCCO	CO[C@@H](C)C#CCCO	
InChI=1S/C7H12O2/c1-7(9-2)5-3-4-6-8/h7-8H,4,6H2,1-2H3	InChI=1S/C7H12O2/c1-7(9-2)5-3-4-6-8/h7-8H,4,6H2,1-2H3/t7-/m0/s1
