16
gdb 23017	2.91357	1.06144	0.90517	4.2095	74.41	-0.2506	-0.0131	0.2375	1281.2901	0.12294	-434.010075	-434.00091	-433.999966	-434.044628	32.789	
C	 1.17241534	 0.2132062074	 0.5824865135	-0.499871
C	-0.2555371744	-0.1276938004	 0.2736459133	 0.386141
N	-1.2796197501	 0.3017292871	 0.9134218421	-0.176651
O	-0.9239198184	 1.1149847251	 1.9897906599	-0.388706
C	-0.6182636284	-1.0145959548	-0.8663685836	-0.09012
N	 0.2991329344	-1.1087556202	-2.0027174716	-0.31972
C	 0.0758325245	-2.3152315566	-1.1940024409	-0.193314
C	 1.193841356	-2.8276527427	-0.4394130103	 0.33579
N	 2.0660790868	-3.2703606942	 0.1768223977	-0.33395
H	 1.7967775364	 0.0780884373	-0.3014980765	 0.15393
H	 1.2366216115	 1.2452382136	 0.9326733889	 0.147541
H	 1.5610881815	-0.4300666385	 1.3791589979	 0.163442
H	-1.7815403279	 1.3828871138	 2.3371624918	 0.310152
H	-1.6880228829	-1.0258658578	-1.0588107141	 0.112828
H	-0.2038395513	-1.1760154193	-2.8828853886	 0.253923
H	-0.5632384077	-3.0988533399	-1.5935739695	 0.138585
55.1451	96.1371	113.3095	187.0688	232.4264	261.7001	312.0955	376.3481	407.748	457.7592	536.1359	571.1931	603.1301	668.264	765.3763	823.9063	883.6097	927.9445	965.3824	998.2279	1034.5014	1059.8971	1091.661	1173.3817	1198.8638	1223.0293	1301.8963	1371.4215	1400.3984	1410.9161	1454.1793	1483.6915	1485.1038	1716.3649	2359.4181	3052.6675	3118.5447	3140.8217	3151.7587	3155.3654	3520.5477	3817.2925
CC(=NO)C1NC1C#N	CC(=NO)[C@H]1N[C@H]1C#N	
InChI=1S/C5H7N3O/c1-3(8-9)5-4(2-6)7-5/h4-5,7,9H,1H3	InChI=1S/C5H7N3O/c1-3(8-9)5-4(2-6)7-5/h4-5,7,9H,1H3/t4-,5+/m0/s1
