19
gdb 65824	2.44884	1.29704	1.17428	2.7804	80.61	-0.2386	-0.0166	0.222	1165.7442	0.157381	-385.897431	-385.888406	-385.887462	-385.931031	34.694	
C	-0.0970744086	 1.5652264002	-0.0158174986	-0.434919
C	 0.027260724	 0.0324335479	 0.0065178823	 0.072501
C	 0.8507066211	-0.5146156487	-1.2044243514	-0.238012
C	 1.3028990722	-1.9140343294	-0.7718548601	-0.324834
C	 1.4592748355	-1.8203141903	 0.7505187925	 0.411331
O	 1.9865273189	-2.6357353128	 1.4599732959	-0.310609
C	 0.839685324	-0.4976318392	 1.2172104181	-0.343199
C	-1.3069985788	-0.5761325563	 0.0049351099	 0.353878
C	-2.4007343674	-1.0760439663	 0.0026959581	-0.508081
H	 0.8966319489	 2.0249952051	-0.0053690706	 0.113812
H	-0.62245244	 1.8977442649	-0.9158971432	 0.126815
H	-0.6545162325	 1.9266845139	 0.8527317727	 0.128872
H	 0.2673269127	-0.5058624748	-2.12718949	 0.114474
H	 1.719471221	 0.1378990394	-1.3509075756	 0.102597
H	 0.5258926329	-2.6608151491	-0.9751114502	 0.144994
H	 2.2246870923	-2.268116734	-1.2386053107	 0.127653
H	 1.664777074	 0.192225753	 1.4403032448	 0.125882
H	 0.2597001609	-0.626893143	 2.1322767005	 0.136563
H	-3.3676427411	-1.5155198205	 0.0041453358	 0.200282
60.9828	130.4506	180.3738	206.7275	242.5641	284.8528	371.3224	432.5011	453.0288	484.7929	535.6852	595.1797	611.0614	630.5935	639.4588	717.2935	740.2311	812.484	881.6627	922.9961	938.5674	994.8102	1021.0994	1053.4493	1107.7643	1151.5794	1163.557	1188.9217	1241.4621	1270.4637	1276.5348	1317.7844	1334.2022	1408.7105	1441.9328	1446.9994	1487.4246	1491.1228	1499.8378	1850.292	2229.188	3029.4816	3034.9777	3041.5908	3049.3952	3108.019	3110.3626	3115.9938	3117.2493	3124.469	3500.8406
CC1(CCC(=O)C1)C#C	C[C@]1(CCC(=O)C1)C#C	
InChI=1S/C8H10O/c1-3-8(2)5-4-7(9)6-8/h1H,4-6H2,2H3	InChI=1S/C8H10O/c1-3-8(2)5-4-7(9)6-8/h1H,4-6H2,2H3/t8-/m1/s1
