20
gdb 8954	4.10336	1.07441	0.89941	1.5239	67.73	-0.2599	0.0608	0.3207	1304.4792	0.174505	-423.271207	-423.26108	-423.260135	-423.306096	36.349	
C	-0.0353473198	 1.5685800708	 0.0678802275	-0.385234
C	-0.0113769389	 0.0404767705	-0.0111016448	-0.194656
C	 0.7475613644	-0.4836701068	-1.2320958059	 0.124749
O	 2.112034965	-0.0629232926	-1.2397174898	-0.435278
C	 0.6618904212	-2.0101063729	-1.3571835268	 0.119402
O	-0.7053422724	-2.3721867765	-1.4344585252	-0.447522
C	 1.4035696808	-2.5314169436	-2.5850240284	-0.104245
O	 1.1415824503	-3.9344025127	-2.6343412157	-0.43668
H	 0.9791885686	 1.9767655096	 0.0562635564	 0.121236
H	-0.573333714	 1.9969094783	-0.7850024274	 0.115518
H	-0.5329273976	 1.9095052054	 0.9806740847	 0.10928
H	 0.4583098501	-0.3766606745	 0.8931710305	 0.078744
H	-1.0273850675	-0.3641014678	-0.0410937445	 0.127797
H	 0.3128174068	-0.0464912315	-2.1402665889	 0.089853
H	 2.500159128	-0.3234717885	-0.3963938863	 0.278621
H	 1.1282122532	-2.463765284	-0.4618004412	 0.055828
H	-0.7115754569	-3.2769383583	-1.7727487791	 0.291265
H	 1.0148417463	-2.0271174391	-3.4821968471	 0.093254
H	 2.4758192468	-2.3193282093	-2.5021249688	 0.103912
H	 1.4090697855	-4.2667845265	-3.4952301893	 0.294156
71.1747	90.4955	129.7409	148.5716	215.0057	251.6791	267.3008	286.3408	312.4816	344.3266	412.834	439.0518	484.0595	536.885	589.7155	779.493	878.7901	898.7167	988.0634	1026.46	1041.3022	1073.6488	1085.3984	1113.6897	1124.8018	1143.6843	1212.6591	1240.7882	1251.6631	1272.721	1319.2683	1345.1481	1368.7544	1382.7036	1403.7832	1413.9802	1434.2465	1457.7352	1484.9247	1495.6301	1509.5514	1511.4918	2922.0348	2993.3032	2996.1908	3035.2237	3038.6204	3060.8048	3087.3337	3102.6099	3117.8612	3769.7883	3790.9843	3845.3903
CCC(O)C(O)CO	CC[C@@H](O)[C@@H](O)CO	
InChI=1S/C5H12O3/c1-2-4(7)5(8)3-6/h4-8H,2-3H2,1H3	InChI=1S/C5H12O3/c1-2-4(7)5(8)3-6/h4-8H,2-3H2,1H3/t4-,5+/m1/s1
