18
gdb 65790	2.77402	1.44407	1.26692	3.1261	70.85	-0.2485	0.026	0.2745	1061.1974	0.147501	-439.077819	-439.069572	-439.068627	-439.11097	30.792	
C	 0.2181440453	 1.7526160864	 0.6810245254	-0.432586
C	 0.0426467418	 0.2770426286	 0.3305001622	 0.327837
C	 0.4665755254	-0.0805148838	-1.1241689722	-0.238539
N	 1.6846431004	-0.8943487681	-0.991830439	-0.263996
C	 1.8542927004	-1.0560522094	 0.2517999072	 0.11478
O	 1.0010569883	-0.4876112944	 1.135353229	-0.25911
C	-1.3388694468	-0.2052047882	 0.7304994656	 0.048654
C	-2.5065102937	-0.0864660985	-0.1489249864	-0.189746
O	-1.8726794784	-1.3487525229	 0.0700028912	-0.228275
H	 1.243920306	 2.0684869807	 0.4717646809	 0.134377
H	-0.4627489871	 2.3680955029	 0.0849072237	 0.124259
H	 0.0120572444	 1.9335884984	 1.74025189	 0.12796
H	-0.3008923996	-0.669556861	-1.6346022464	 0.134894
H	 0.6714864721	 0.813492188	-1.7214039732	 0.110728
H	 2.6535373721	-1.6298006818	 0.7083146774	 0.139106
H	-1.5039941902	-0.1960342389	 1.8084753304	 0.106649
H	-3.4982306715	 0.0227954344	 0.2860918832	 0.124025
H	-2.392249529	 0.3241215776	-1.1514332392	 0.118984
73.5913	92.4858	208.506	226.7365	245.2097	319.1581	358.3598	452.2312	485.3177	575.246	596.5257	782.4699	847.1645	856.4831	888.8119	936.7287	942.9919	954.0976	973.6415	989.8408	1035.8269	1087.9152	1107.0812	1156.1399	1162.2079	1172.0255	1179.1691	1235.1075	1278.8655	1304.5763	1335.2545	1345.4706	1405.2853	1429.8477	1480.6408	1487.1627	1492.7162	1531.5767	1712.8727	3039.8356	3049.7037	3087.0897	3092.4792	3108.0639	3115.2719	3120.2238	3173.8819	3213.6429
CC1(CN=CO1)C1CO1	C[C@]1(CN=CO1)[C@H]1CO1	
InChI=1S/C6H9NO2/c1-6(5-2-8-5)3-7-4-9-6/h4-5H,2-3H2,1H3	InChI=1S/C6H9NO2/c1-6(5-2-8-5)3-7-4-9-6/h4-5H,2-3H2,1H3/t5-,6+/m1/s1
