19
gdb 94261	1.92975	1.46614	1.26015	2.4681	77.02	-0.2528	-0.0515	0.2012	1141.3392	0.156526	-423.036605	-423.027092	-423.026148	-423.071429	34.053	
C	-0.6204708648	 1.2250026269	 0.0249395113	-0.42531
C	 0.1707900053	-0.0694979589	-0.0739877047	-0.003366
C	 1.5567171274	-0.0582019643	-0.767548703	-0.22583
C	 2.1221489136	-0.9935804255	 0.3288618107	-0.274345
C	 0.9056043206	-0.6865013749	 1.2280964461	 0.117246
C	 1.1264376953	 0.3854216953	 2.2639524793	 0.099939
O	 2.1167666271	 1.0675137137	 2.3462776846	-0.253764
C	 0.127550612	-1.8455285548	 1.7942777212	 0.087062
O	 0.3107383136	-2.9998639016	 1.5021593003	-0.252968
H	-0.0210845027	 2.0332556059	 0.455487845	 0.136932
H	-0.929358566	 1.5412788555	-0.9775465252	 0.1293
H	-1.5276978249	 1.1107358429	 0.6277328722	 0.121431
H	-0.4568165576	-0.8621570042	-0.4930868631	 0.100967
H	 1.5819482517	-0.415627388	-1.7991558816	 0.106629
H	 2.012157836	 0.934821579	-0.7263278427	 0.1195
H	 2.1259297592	-2.0471342237	 0.0452009279	 0.129554
H	 3.0860655732	-0.716347423	 0.7557546627	 0.12594
H	 0.2728475236	 0.5369678943	 2.9643392491	 0.081461
H	-0.6924494828	-1.5585469645	 2.4935106301	 0.079619
60.0718	86.6914	98.7743	204.1048	226.7404	241.6267	259.1221	284.6345	349.1275	421.855	489.7556	581.5857	676.0339	751.5776	773.78	832.6628	898.2316	908.0802	955.3314	977.2683	1001.2123	1062.593	1078.7618	1120.9713	1175.4731	1196.2203	1230.5397	1241.7336	1272.8057	1286.2138	1303.0082	1362.6086	1410.4439	1422.9182	1441.544	1473.8631	1490.5189	1494.5046	1500.046	1797.9298	1837.5412	2847.1103	2870.2334	3030.629	3055.3467	3064.3665	3088.7859	3095.8771	3107.4159	3117.7535	3151.1553
CC1CCC1(C=O)C=O	C[C@H]1CCC1(C=O)C=O	
InChI=1S/C7H10O2/c1-6-2-3-7(6,4-8)5-9/h4-6H,2-3H2,1H3	InChI=1S/C7H10O2/c1-6-2-3-7(6,4-8)5-9/h4-6H,2-3H2,1H3/t6-/m0/s1
