21
gdb 104223	2.46424	1.37344	1.23308	2.1293	78.69	-0.2491	0.0753	0.3244	1161.2454	0.180121	-424.187769	-424.178244	-424.177299	-424.221819	35.765	
C	-0.0019216338	 1.411707864	 0.2265957677	-0.251867
O	-0.0843871252	 0.0157637711	 0.4194884632	-0.291495
C	-1.3060938604	-0.5881636373	 0.046825724	 0.327223
C	-2.4891903194	-0.1069919418	 0.8847126398	-0.444299
C	-1.6045355196	-0.6760937388	-1.4916714721	-0.28232
C	-1.8466672183	-2.2090553424	-1.3426838398	-0.334071
C	-1.1867286121	-2.1186321097	 0.0323746043	 0.421426
C	-0.1134033237	-2.9209355996	 0.6114099012	-0.256424
O	-1.4515049329	-2.9546980447	 1.1407132104	-0.280307
H	 1.0357324049	 1.695624723	 0.4190288527	 0.1272
H	-0.2581027196	 1.6998815744	-0.8036900761	 0.106546
H	-0.648593557	 1.9730540149	 0.9148240042	 0.111218
H	-2.7026875337	 0.9516812668	 0.7099555908	 0.113317
H	-3.3911099621	-0.6730024848	 0.6342767375	 0.12311
H	-2.279813878	-0.2589603385	 1.9470224253	 0.134292
H	-2.4375784572	-0.0802775946	-1.8694016884	 0.099434
H	-0.7061841684	-0.457911209	-2.073119863	 0.110953
H	-2.9070880373	-2.4659680352	-1.270485305	 0.1172
H	-1.3760791827	-2.8634237004	-2.0789952266	 0.10957
H	 0.2091515768	-3.8321855359	 0.1088377228	 0.110576
H	 0.6267596596	-2.4395380714	 1.2461412669	 0.128715
93.3862	96.5457	165.6537	187.5243	206.7389	266.4994	289.2395	322.8772	351.3255	396.0485	485.2392	498.4466	588.498	674.1825	759.853	859.8291	879.9621	894.832	916.1247	925.9391	948.6957	969.1134	1086.3951	1117.3344	1131.0654	1145.7234	1160.2717	1165.1187	1180.8244	1187.8033	1202.7516	1224.2694	1254.45	1257.9265	1301.7437	1404.9982	1433.2242	1470.6677	1474.4955	1483.9325	1486.2939	1492.5348	1504.0678	1511.5322	1534.8657	2988.7469	3038.7658	3045.6254	3064.5758	3071.6563	3087.279	3110.447	3112.9216	3114.397	3123.9381	3132.9885	3183.58
COC1(C)CCC11CO1	CO[C@@]1(C)CC[C@]21CO2	
InChI=1S/C7H12O2/c1-6(8-2)3-4-7(6)5-9-7/h3-5H2,1-2H3	InChI=1S/C7H12O2/c1-6(8-2)3-4-7(6)5-9-7/h3-5H2,1-2H3/t6-,7+/m0/s1
