14
gdb 28144	5.28053	1.27002	1.02379	1.8287	70.87	-0.1699	0.0298	0.1998	1067.878	0.102901	-436.717415	-436.710218	-436.709273	-436.748772	27.875	
O	 0.0771538146	 1.3239296787	 0.1812879778	-0.432176
C	 0.0672246464	-0.0188749784	-0.0048622579	 0.407719
C	 0.082245211	-0.7956984157	-1.1490079284	-0.494287
C	 0.059296755	-2.1252950197	-0.6449857939	 0.369725
C	 0.0320964636	-2.1211549444	 0.7314718361	 0.262763
N	 0.0368630216	-0.7958459027	 1.1299978937	-0.448774
C	 0.0100979908	-3.4811338405	 1.1583346301	-0.343729
C	 0.0261723844	-4.2018292002	-0.0028570037	-0.023159
O	 0.0561094898	-3.3951805278	-1.1197188249	-0.212726
H	 0.0955289319	 1.7507112864	-0.6805049734	 0.310118
H	 0.1058710443	-0.4420698524	-2.1663834134	 0.102034
H	 0.0232161117	-0.4229926028	 2.0622859635	 0.266846
H	-0.0137321968	-3.8905041745	 2.1556317842	 0.107975
H	 0.0198453018	-5.2598571457	-0.20217397	 0.127672
144.6369	192.7505	233.9357	316.5801	326.2254	388.2444	522.7768	563.6539	584.1673	651.394	670.7198	695.4202	735.1195	756.616	786.7262	823.31	919.8885	1013.1091	1037.8874	1129.3003	1151.9909	1177.2376	1186.6863	1269.4111	1327.9877	1448.1157	1483.261	1529.6813	1552.0578	1580.1779	1613.6862	3257.1608	3263.1888	3291.2051	3694.011	3850.0937
OC1=CC2=C(N1)C=CO2	Oc1cc2c([nH]1)cco2	
InChI=1S/C6H5NO2/c8-6-3-5-4(7-6)1-2-9-5/h1-3,7-8H	InChI=1S/C6H5NO2/c8-6-3-5-4(7-6)1-2-9-5/h1-3,7-8H
