19
gdb 100618	2.08609	1.20994	0.80909	4.683	80.41	-0.3327	-0.0086	0.3241	1415.3659	0.157751	-382.102684	-382.092457	-382.091512	-382.138321	36.077	
C	 0.0805225567	 1.559434242	 0.0284453275	-0.398777
C	-0.0076151187	 0.0305146105	-0.0131469983	-0.1964
C	-1.4492627226	-0.5095901547	-0.0170159108	 0.02827
C	-2.2231233009	-0.1276079822	-1.2839596582	-0.423501
C	-1.4318674662	-2.0698706809	 0.1439141344	-0.297131
C	-0.7272140728	-2.494881035	 1.3624274736	 0.304736
N	-0.1585570625	-2.8090318743	 2.3169375732	-0.312354
C	-2.7864833806	-2.6409063895	 0.13794204	 0.30168
N	-3.8588816273	-3.0681142675	 0.1146310674	-0.311015
H	 1.1243438826	 1.877472943	 0.1017051684	 0.126791
H	-0.3414253154	 2.0233892901	-0.8675558258	 0.124668
H	-0.4501714001	 1.9618165005	 0.8980817937	 0.125243
H	 0.5152873826	-0.3456952117	-0.9033847099	 0.101323
H	 0.5251958504	-0.375464381	 0.8533963075	 0.132734
H	-1.9767505501	-0.1106436098	 0.857924902	 0.111916
H	-1.7164961868	-0.5035601234	-2.180813482	 0.122171
H	-3.2399566755	-0.5280125791	-1.2737836953	 0.151626
H	-2.2963523021	 0.958264392	-1.3731470327	 0.134846
H	-0.8922733408	-2.494318239	-0.7142222148	 0.173172
57.4865	81.2124	135.9178	141.0961	177.8325	215.8712	258.0677	273.4841	342.2878	386.1511	391.106	423.0094	507.2814	573.6894	594.518	780.663	843.5651	858.6085	962.8763	984.0117	993.418	1025.4782	1052.8953	1114.6707	1153.7467	1176.6827	1242.408	1301.9293	1315.8786	1338.2405	1369.6177	1386.4216	1416.8025	1422.0215	1484.1195	1496.8765	1499.1281	1507.9684	1513.3578	2365.6851	2371.1864	3015.3333	3023.8947	3036.5084	3040.8735	3047.2474	3072.3362	3108.696	3112.4111	3116.967	3133.1961
CCC(C)C(C#N)C#N	CC[C@@H](C)C(C#N)C#N	
InChI=1S/C7H10N2/c1-3-6(2)7(4-8)5-9/h6-7H,3H2,1-2H3	InChI=1S/C7H10N2/c1-3-6(2)7(4-8)5-9/h6-7H,3H2,1-2H3/t6-/m1/s1
