16
gdb 61718	3.20169	0.93098	0.80839	5.2204	74.37	-0.2497	-0.0339	0.2158	1398.1401	0.12244	-434.098704	-434.088934	-434.08799	-434.134922	32.987	
C	 0.5757505117	 1.1783171162	-0.3081432281	-0.50955
C	 0.2328548421	-0.2977904062	-0.2748445022	 0.397812
N	 0.320867095	-0.856239263	 1.0054683949	-0.349451
C	 0.1004811389	-2.1645312945	 1.422382955	 0.165453
O	-0.2493025692	-3.0942915835	 0.7506282549	-0.252109
N	-0.0950772914	-1.032836731	-1.2604420222	-0.23032
C	-0.1851839741	-0.4457631601	-2.588974988	-0.289053
C	 1.1064378311	 0.0140024844	-3.1235689853	 0.26602
N	 2.1313916309	 0.3811237425	-3.5119602765	-0.316671
H	 0.5566721969	 1.6317843776	 0.6855970378	 0.125639
H	 1.570754632	 1.324810024	-0.7396979727	 0.18734
H	-0.1329979535	 1.721796143	-0.9386603999	 0.154042
H	 0.6102982056	-0.2269910903	 1.7378424816	 0.255375
H	 0.2955329329	-2.2389746348	 2.5126408196	 0.082265
H	-0.5762872761	-1.2088961983	-3.2690958634	 0.166946
H	-0.8877622528	 0.4006510039	-2.6327939356	 0.146261
39.2843	54.7124	102.1489	111.9536	164.3094	220.5943	295.9244	325.055	369.2665	388.3935	477.0053	545.8594	610.6366	645.5237	754.6166	866.5344	916.7836	981.538	997.32	1020.3489	1050.9274	1095.9003	1148.3452	1236.0755	1293.9138	1350.7751	1406.9144	1452.4201	1467.0275	1482.9078	1494.6104	1526.4116	1732.0315	1853.3723	2353.0679	2915.1824	2993.6218	3049.2739	3076.0072	3119.2165	3126.295	3632.9175
CC(NC=O)=NCC#N	CC(=NCC#N)NC=O	
InChI=1S/C5H7N3O/c1-5(8-4-9)7-3-2-6/h4H,3H2,1H3,(H,7,8,9)	InChI=1S/C5H7N3O/c1-5(8-4-9)7-3-2-6/h4H,3H2,1H3,(H,7,8,9)
