20
gdb 31714	5.23003	0.82942	0.76295	0.9853	82.38	-0.2263	0.0147	0.241	1580.6021	0.17085	-403.203341	-403.193905	-403.192961	-403.238755	33.836	
C	 0.2604647297	 0.6701030446	 1.0030586831	-0.387315
C	-0.4053706107	 0.3328609518	-0.3334072411	-0.285151
C	 0.5557452403	-0.0602122186	-1.409085078	 0.250764
C	 1.9058780402	-0.1679257692	-1.3835111506	-0.126268
O	 2.3310470653	-0.5653353181	-2.6252536277	-0.181687
C	 1.1915081318	-0.6804611759	-3.3556400635	 0.379059
C	 1.3226223998	-1.0940578752	-4.7812662295	-0.287341
C	 2.0974429311	-0.0773902301	-5.6369359211	-0.378686
N	 0.1163272366	-0.3944987199	-2.6917722289	-0.35428
H	 0.8207501167	-0.1855487253	 1.3943215194	 0.120107
H	 0.9574143813	 1.5082919138	 0.8990327019	 0.120084
H	-0.4879380947	 0.9487223911	 1.749838232	 0.116768
H	-1.1296337797	-0.4805389319	-0.1979189506	 0.119733
H	-0.9942564083	 1.1887741137	-0.6871816634	 0.119477
H	 2.6702834425	-0.019179015	-0.6414565093	 0.139017
H	 1.8257651797	-2.067752244	-4.8270434732	 0.121661
H	 0.3096586889	-1.2317181875	-5.1665966178	 0.134219
H	 1.5913570388	 0.8924607339	-5.6444961118	 0.129179
H	 3.1084450634	 0.0703985631	-5.2476459215	 0.13241
H	 2.1768345475	-0.4292805014	-6.6694217482	 0.11825
39.3659	49.4429	135.398	165.1426	213.8352	223.7799	286.6019	325.2571	375.3815	479.4192	621.2171	647.5565	700.127	739.217	752.5589	794.8274	801.0419	951.7359	964.8393	980.1562	1029.5809	1072.8096	1082.0238	1101.7424	1112.6239	1134.317	1220.2874	1243.9459	1279.8111	1280.5354	1339.6038	1364.4189	1389.2653	1409.3489	1412.174	1473.4213	1479.9865	1497.8767	1497.9829	1506.6319	1509.5377	1618.3962	1636.7779	3025.0431	3036.6471	3036.9129	3044.626	3048.3065	3102.6077	3104.4646	3113.4798	3117.3124	3127.6199	3297.3366
CCC1=COC(CC)=N1	CCc1coc(CC)n1	
InChI=1S/C7H11NO/c1-3-6-5-9-7(4-2)8-6/h5H,3-4H2,1-2H3	InChI=1S/C7H11NO/c1-3-6-5-9-7(4-2)8-6/h5H,3-4H2,1-2H3
