19
gdb 36621	5.15941	0.78387	0.74963	4.102	81.22	-0.2418	0.0242	0.266	1524.7107	0.160005	-382.041151	-382.032492	-382.031548	-382.075316	32.221	
N	 0.0740026411	-1.190642327	-0.1412441302	-0.298526
C	 0.0500641764	-0.0359457421	-0.1557009971	 0.247692
C	 0.0114945019	 1.4291767289	-0.1446409028	-0.276464
N	 1.3138981569	 1.9855726071	 0.2225146015	-0.385132
C	 1.3565739492	 3.40850842	 0.199908007	 0.387703
C	 1.5562417109	 4.1252454176	-1.1084305424	-0.297294
C	 2.5760325038	 4.3054295305	-0.0141375483	-0.121101
C	 2.0470470366	 5.3028544608	 1.0232894774	-0.217364
C	 0.7998332196	 4.3858157333	 1.2579503936	-0.293219
H	-0.2409300243	 1.7796404974	-1.1520692165	 0.161186
H	-0.8184236135	 1.739177911	 0.5134525075	 0.137509
H	 1.6039608439	 1.6224613243	 1.125066973	 0.229869
H	 1.8724032725	 3.4820824963	-1.9228104098	 0.120894
H	 0.9076516864	 4.9490814149	-1.3985941962	 0.104898
H	 3.6104010452	 4.0176499587	-0.1555443456	 0.096324
H	 2.6771293437	 5.3840043344	 1.9113847303	 0.106665
H	 1.842587387	 6.3101388868	 0.6473935581	 0.101539
H	-0.1859834101	 4.8204397184	 1.0610521185	 0.094856
H	 0.7959457928	 3.9539009987	 2.2629953819	 0.099964
48.4109	94.0914	107.3839	206.098	257.7935	351.6049	381.2094	393.8608	443.8512	523.0827	674.4306	735.1896	758.8222	787.5428	855.8516	895.9716	917.1902	951.0087	967.6272	976.584	1002.1036	1020.6614	1042.4722	1073.0491	1090.1332	1128.7863	1151.1047	1206.6002	1220.2898	1229.6662	1248.917	1274.0852	1292.6422	1367.5757	1402.3633	1477.8787	1479.2648	1489.5449	1492.2203	1511.124	2367.1524	2958.7493	3038.5835	3054.5103	3063.2047	3088.1774	3106.468	3113.1756	3190.882	3208.9367	3516.2279
N#CCNC12CC1CC2	N#CCN[C@]12C[C@H]1CC2	
InChI=1S/C7H10N2/c8-3-4-9-7-2-1-6(7)5-7/h6,9H,1-2,4-5H2	InChI=1S/C7H10N2/c8-3-4-9-7-2-1-6(7)5-7/h6,9H,1-2,4-5H2/t6-,7-/m1/s1
