21
gdb 91406	2.83389	1.51575	1.34056	1.3228	81.45	-0.2317	0.0184	0.2501	1051.1262	0.186319	-387.109188	-387.101776	-387.100832	-387.140501	31.255	
O	-0.1541390965	 1.5038035311	 0.1739613458	-0.441133
C	 0.012157835	 0.0964601314	 0.0179238931	 0.141476
C	 0.8525490067	-0.5076402581	 1.167795613	-0.238959
C	 0.6686694214	-2.0442970976	 1.28652504	-0.05461
C	-0.8287849511	-2.315904289	 1.5439650774	-0.204674
C	-1.3981634159	-2.0413602269	 0.1356377389	-0.060991
C	-1.4001594105	-0.5065203925	-0.0892651344	-0.20409
C	-0.330605004	-2.7118825674	-0.7232550302	-0.070639
C	 0.8354915921	-2.7131760246	-0.07458163	-0.073644
H	 0.7181015444	 1.9094095015	 0.136933033	 0.275899
H	 0.5364357659	-0.1074761717	-0.9255478996	 0.068905
H	 1.9086593319	-0.2487232452	 1.0157304098	 0.079735
H	 0.5399434383	-0.0360665095	 2.1070679455	 0.102367
H	 1.3290524583	-2.445918243	 2.0605181776	 0.060509
H	-0.9863321877	-3.3617263196	 1.8250056852	 0.09068
H	-1.2595472492	-1.6738422335	 2.3190378794	 0.087506
H	-2.4036597066	-2.4434771093	-0.0173770125	 0.061631
H	-2.0354460938	-0.0333475595	 0.6686255862	 0.105611
H	-1.8228140971	-0.2444151934	-1.0650128022	 0.095993
H	-0.5000386455	-3.0483619827	-1.7398627009	 0.089792
H	 1.7881691339	-3.0516345908	-0.4661636853	 0.088636
146.2933	255.6641	278.2223	332.0506	348.5424	393.7818	406.6277	470.027	543.2932	609.8941	724.6485	782.1797	784.8191	838.1783	844.4366	879.2275	892.683	932.4517	950.3587	975.3837	980.5151	1021.2525	1039.7106	1056.5082	1086.7971	1101.0372	1130.4141	1136.7461	1176.5834	1215.102	1234.3623	1274.8449	1288.0057	1297.8044	1312.4268	1332.7505	1333.8979	1359.7616	1379.0105	1396.5316	1437.3624	1487.1106	1490.0764	1506.8871	1660.377	2997.2076	3015.7532	3036.3191	3042.6038	3061.5496	3063.9424	3068.089	3079.5495	3094.1558	3181.5993	3207.6581	3811.4877
OC1CC2CC(C1)C=C2	O[C@H]1C[C@H]2C[C@@H](C1)C=C2	
InChI=1S/C8H12O/c9-8-4-6-1-2-7(3-6)5-8/h1-2,6-9H,3-5H2	InChI=1S/C8H12O/c9-8-4-6-1-2-7(3-6)5-8/h1-2,6-9H,3-5H2/t6-,7+,8+
