16
gdb 64885	4.26738	0.89223	0.86397	2.6104	68.85	-0.2539	-0.0568	0.1971	1328.9312	0.122391	-475.033877	-475.025073	-475.024129	-475.068477	31.042	
O	 0.3133751228	 1.5311862011	-0.2946856539	-0.468526
C	 0.0050545211	 0.2179455557	 0.0099128423	 0.307055
C	 0.1262570855	-0.1966056713	 1.5225789731	-0.248193
N	-1.2470140933	-0.6921541959	 1.4448851424	-0.046417
C	-1.5199263837	-0.1429104823	 0.1200180854	-0.233104
C	-2.1123829057	-1.175767201	 2.3677991209	 0.13577
O	-3.2923247872	-1.3645068524	 2.1619387583	-0.321337
C	 0.7515404429	-0.731353108	-0.8996941845	 0.116828
O	 1.5011381646	-0.3271812243	-1.754134122	-0.270023
H	 0.9468645899	 1.4940146485	-1.0306163309	 0.298445
H	 0.8815985521	-0.9473766375	 1.7793424743	 0.12408
H	 0.2552996354	 0.6902466175	 2.1525117657	 0.13922
H	-2.142221083	 0.7576293983	 0.1326834032	 0.143635
H	-1.9273367384	-0.8601242373	-0.599069461	 0.131717
H	-1.6102841955	-1.4002980744	 3.3310653114	 0.075653
H	 0.5697247424	-1.8124247368	-0.7363555545	 0.115198
35.543	104.6497	111.4101	182.1041	277.0425	296.8901	333.0004	384.6833	404.837	450.1657	521.4997	610.7809	785.1879	842.5351	867.2581	893.1579	961.3863	965.2486	1034.8589	1077.5063	1107.708	1129.3455	1163.5145	1197.4448	1265.5952	1278.5099	1339.2394	1386.9023	1396.8686	1435.0354	1458.8	1496.4648	1517.6725	1795.054	1815.3774	2927.5496	2942.5702	3029.5292	3046.0225	3083.6872	3098.2851	3672.4954
OC1(CN(C1)C=O)C=O	OC1(CN(C1)C=O)C=O	
InChI=1S/C5H7NO3/c7-3-5(9)1-6(2-5)4-8/h3-4,9H,1-2H2	InChI=1S/C5H7NO3/c7-3-5(9)1-6(2-5)4-8/h3-4,9H,1-2H2
