14
gdb 29621	3.27557	1.14476	0.8764	4.3772	65.87	-0.2086	-0.0024	0.2062	1227.8299	0.100615	-473.862907	-473.854667	-473.853723	-473.896351	29.832	
O	-0.0515767182	 1.2909248928	 0.2253287612	-0.451164
C	 0.0180420725	-0.0574445129	 0.0733604277	 0.236279
C	-0.1767347205	-0.7606043991	-1.0923272112	-0.158935
N	-0.0199013304	-2.0985119454	-0.7928684848	-0.238022
C	 0.2780018164	-2.2685340305	 0.5299471335	-0.170068
C	 0.3007181899	-1.0093383695	 1.0893588034	 0.184045
O	 0.5897764628	-0.6447662063	 2.3920886169	-0.235498
C	-0.2419157004	-1.1021358914	 3.3713484464	 0.152578
O	-0.0456135051	-0.8784564555	 4.5240019877	-0.258908
H	 0.2092393344	 1.4974764488	 1.1302524219	 0.305173
H	-0.412657708	-0.4211141929	-2.0858111594	 0.132708
H	-0.1038315536	-2.8440984232	-1.4594445049	 0.271319
H	 0.466551028	-3.2374436754	 0.9601950049	 0.137125
H	-1.0805197678	-1.6882884694	 2.9542665367	 0.093365
53.6938	132.6817	152.4767	257.2618	284.8846	334.9062	361.0565	438.0292	476.8922	533.0576	621.8701	628.9829	694.6546	725.1626	741.1033	846.6717	912.5884	1047.7723	1072.261	1103.965	1147.3341	1180.3728	1241.7305	1291.1174	1367.8392	1403.3498	1457.9463	1483.6376	1580.7868	1661.3398	1874.625	2984.0227	3276.2082	3286.0225	3701.6784	3806.9852
OC1=CNC=C1OC=O	Oc1c[nH]cc1OC=O	
InChI=1S/C5H5NO3/c7-3-9-5-2-6-1-4(5)8/h1-3,6,8H	InChI=1S/C5H5NO3/c7-3-9-5-2-6-1-4(5)8/h1-3,6,8H
