12
gdb 5287	5.22852	1.7009	1.2834	2.9105	58.1	-0.2592	-0.0439	0.2153	862.7432	0.085378	-414.722584	-414.715771	-414.714827	-414.754008	24.29	
N	-0.058328809	 1.3018509967	 0.0071452683	-0.531722
C	 0.0466942303	-0.0524053293	 0.0007181144	 0.322158
O	 1.0873277847	-0.6772173707	-0.00966343	-0.352387
C	-1.2899043455	-0.7175968147	 0.0093005733	 0.325175
N	-2.4615123209	-0.1519042919	 0.0209341561	-0.313779
C	-3.3558950963	-1.2065113848	 0.0244446516	-0.114456
C	-2.6562555153	-2.3695954518	 0.0144262326	-0.030926
O	-1.3314096916	-2.0667272812	 0.0047892879	-0.145982
H	 0.7830542082	 1.8522118362	 0.0026240388	 0.268512
H	-0.9625778167	 1.7436454071	 0.0161186528	 0.279689
H	-4.4232021841	-1.0543646511	 0.0337252988	 0.134983
H	-2.9126343438	-3.4148826145	 0.0126832754	 0.158735
71.8307	186.7595	200.5965	230.7697	397.6627	508.3849	571.4901	630.7253	669.0119	684.6307	786.3351	809.4536	870.6334	935.8656	961.8498	1090.5673	1121.5399	1153.8839	1164.1679	1232.6146	1339.6893	1422.9981	1521.9005	1583.0565	1604.6539	1806.2761	3267.8698	3303.3945	3602.4131	3745.4856
NC(=O)C1=NC=CO1	NC(=O)c1ncco1	
InChI=1S/C4H4N2O2/c5-3(7)4-6-1-2-8-4/h1-2H,(H2,5,7)	InChI=1S/C4H4N2O2/c5-3(7)4-6-1-2-8-4/h1-2H,(H2,5,7)
