17
gdb 71903	2.40132	1.8536	1.62991	0.4475	67.41	-0.2384	0.0587	0.2972	912.0615	0.135039	-458.903922	-458.896203	-458.895259	-458.935573	30.717	
O	 0.0054295053	 1.4073370089	 0.0182648551	-0.477547
C	 0.0062144818	 0.0151569834	 0.0037132314	 0.353042
C	 0.4599339788	-0.7284908824	-1.2829963337	-0.303397
C	-0.6784204983	-1.7592444016	-1.076569034	 0.014899
O	-0.3643372865	-2.7065399068	-0.0340748954	-0.299388
C	-0.7310706298	-1.7810326462	 1.0108680491	 0.014866
C	 0.3948863067	-0.7554696221	 1.295899811	-0.30323
C	-1.3482692192	-0.7915095219	-0.0388637203	 0.311598
O	-2.5739857078	-0.1789651801	-0.0634286381	-0.462706
H	 0.9201524613	 1.7106495331	 0.0387864031	 0.279354
H	 0.2432785774	-0.1005758116	-2.1533667939	 0.111338
H	 1.4796405124	-1.1188274916	-1.3383807086	 0.097987
H	-1.1394689543	-2.2330161573	-1.9450290962	 0.081313
H	-1.2351347713	-2.2726248232	 1.8448339185	 0.081311
H	 1.4106887717	-1.1474368994	 1.3945890324	 0.097932
H	 0.1343124895	-0.1455983764	 2.1670451297	 0.111402
H	-3.2596101077	-0.8568821047	-0.0877482101	 0.291226
156.3504	204.9503	214.645	275.0408	295.9849	395.3542	424.4666	424.999	451.3347	602.4543	636.7031	668.5386	785.2757	836.1837	856.5512	901.9523	918.643	947.2286	965.1288	986.4784	1051.0374	1052.7392	1092.806	1122.2594	1141.6797	1170.9348	1207.1624	1238.5432	1244.5742	1256.9493	1284.5651	1309.9405	1336.6113	1354.0283	1428.1447	1456.4125	1481.2359	3046.6851	3048.923	3093.0582	3097.7952	3111.6801	3114.592	3789.4866	3795.1984
OC12CC3OC(C1)C23O	O[C@@]12C[C@H]3O[C@@H](C1)[C@@]23O	
InChI=1S/C6H8O3/c7-5-1-3-6(5,8)4(2-5)9-3/h3-4,7-8H,1-2H2	InChI=1S/C6H8O3/c7-5-1-3-6(5,8)4(2-5)9-3/h3-4,7-8H,1-2H2/t3-,4+,5+,6-
