19
gdb 87883	3.16556	1.24254	1.22568	1.3153	75.14	-0.2434	0.0698	0.3132	1112.1308	0.159091	-422.964231	-422.956206	-422.955262	-422.996971	31.257	
O	-0.1577243393	 1.3720733375	 0.1220722396	-0.418067
C	-0.1196864527	-0.0212256578	 0.0187259318	 0.044636
C	-0.3854340663	-0.7823219242	 1.2826749891	-0.380573
C	-1.3993034161	-0.799696262	 0.1675023582	 0.333068
C	-2.8202742403	-0.210903975	 0.2191253791	-0.315192
C	-3.2834523979	-1.3676428048	-0.69621332	 0.12795
O	-3.1383484751	-1.0655059519	-2.1010636778	-0.296315
C	-1.8808229442	-1.7783652713	-2.1763649885	-0.07994
C	-1.8640900745	-2.0103813583	-0.6571230648	-0.179388
H	-0.5286927334	 1.7208650064	-0.6957208739	 0.289568
H	 0.6396508962	-0.4160849526	-0.6584723619	 0.082261
H	 0.1945301376	-1.6791793619	 1.4760785069	 0.112177
H	-0.6259310984	-0.1909214728	 2.1604016616	 0.124733
H	-3.2701854975	-0.2368857898	 1.2166947279	 0.103785
H	-2.9575653401	 0.7865731554	-0.2071334552	 0.102832
H	-4.2229156476	-1.8796649021	-0.4733699979	 0.076453
H	-1.9803717873	-2.6945094834	-2.7735577309	 0.098553
H	-1.0747972512	-1.1634876175	-2.5961656685	 0.095985
H	-1.638891672	-3.0078941641	-0.280456765	 0.077473
65.5468	144.8639	201.007	233.9028	308.8277	361.0208	428.1124	447.635	476.6116	576.004	726.7771	796.7375	816.3208	842.5535	876.9299	897.7079	932.9738	969.4488	978.0018	995.8973	1015.3789	1044.979	1059.4735	1072.6573	1109.4876	1141.1854	1158.9672	1176.2225	1179.3044	1196.4795	1241.9824	1260.7132	1281.6722	1298.5446	1305.9064	1343.769	1360.5002	1426.0598	1466.7289	1485.3613	1519.2741	3003.4428	3046.7486	3047.86	3075.5741	3081.7847	3102.9078	3112.3468	3124.9731	3215.0726	3800.7191
OC1CC11CC2OCC12	O[C@H]1C[C@]21C[C@H]1OC[C@@H]21	
InChI=1S/C7H10O2/c8-6-2-7(6)1-5-4(7)3-9-5/h4-6,8H,1-3H2	InChI=1S/C7H10O2/c8-6-2-7(6)1-5-4(7)3-9-5/h4-6,8H,1-3H2/t4-,5-,6+,7-/m1/s1
