15
gdb 125683	2.72541	1.5653	1.00034	3.1469	68.48	-0.2548	-0.0299	0.2249	1109.9954	0.114058	-450.179069	-450.170421	-450.169476	-450.213032	30.435	
C	-0.0321316613	 1.510412711	-0.061664068	-0.485318
C	-0.0343441736	 0.0218650478	 0.0166930303	 0.252175
N	-0.0971571124	-0.7526841571	-1.0686133312	-0.256956
N	-0.0756489049	-1.9889185001	-0.5755648463	-0.076936
N	-0.0043236476	-2.099981196	 0.7361512549	-0.295647
C	 0.0237857358	-0.8272147315	 1.1475285264	 0.176439
C	 0.1038358092	-0.4401008583	 2.5771353536	 0.336581
N	 0.1467900601	-1.4834400675	 3.4477747373	-0.540086
O	 0.1277969999	 0.731047155	 2.9188275979	-0.377422
H	 0.8706747167	 1.9207517952	 0.3983744934	 0.150823
H	-0.0872208552	 1.829105401	-1.1043467103	 0.132428
H	-0.8765888609	 1.9282962084	 0.4927746706	 0.150786
H	-0.1120281391	-2.7969176848	-1.1764525908	 0.296183
H	 0.1248798647	-2.4338985328	 3.1201548451	 0.274021
H	 0.2018700786	-1.2860398803	 4.4322650871	 0.26293
64.0577	77.7744	174.5233	174.7206	203.1183	294.2733	312.2903	418.3728	516.0367	523.157	578.535	668.065	699.5416	708.5928	722.3884	820.8104	991.9031	1026.9518	1071.8347	1087.6662	1151.3324	1194.2029	1239.8625	1352.1882	1365.3718	1417.0128	1452.8498	1474.2569	1476.557	1530.3091	1556.2517	1608.7923	1779.4693	3056.2006	3116.9284	3143.5392	3606.1527	3662.9279	3746.8635
CC1=NNN=C1C(N)=O	Cc1n[nH]nc1C(=O)N	
InChI=1S/C4H6N4O/c1-2-3(4(5)9)7-8-6-2/h1H3,(H2,5,9)(H,6,7,8)	InChI=1S/C4H6N4O/c1-2-3(4(5)9)7-8-6-2/h1H3,(H2,5,9)(H,6,7,8)
