23
gdb 64379	2.18152	1.48729	1.1273	0.7104	90.58	-0.2545	0.0533	0.3078	1217.7037	0.205043	-351.148883	-351.139052	-351.138107	-351.182952	38.171	
C	 0.3659068501	 1.5224587439	-0.3314560114	-0.423331
C	 0.0649816617	 0.0417995451	-0.0429043067	 0.285256
C	-1.4322985956	-0.1387718345	 0.221908275	-0.441429
C	 0.5801431976	-0.8561533137	-1.1913050992	-0.231381
C	 2.1025727749	-1.0163147866	-0.962309462	-0.222512
C	 2.3434801686	-0.7034878935	 0.5407338902	-0.229295
C	 0.9284031549	-0.4979864083	 1.1458988316	-0.164014
C	 0.9039845829	 0.3094624217	 2.3554758915	 0.314991
C	 0.8856688582	 0.9810114743	 3.3536724085	-0.460584
H	 1.4212846594	 1.6936055622	-0.5649802632	 0.112078
H	-0.2217520634	 1.8661551067	-1.1893559413	 0.108124
H	 0.1114429676	 2.1480574667	 0.5287649228	 0.126959
H	-2.0260553944	 0.1869022806	-0.6391437902	 0.109561
H	-1.6764614562	-1.188695426	 0.4188811377	 0.105985
H	-1.7500719002	 0.4495133229	 1.0891451056	 0.123111
H	 0.0866543781	-1.8336175639	-1.1297391393	 0.090772
H	 0.3406221681	-0.4417751443	-2.1754215209	 0.091581
H	 2.4388657375	-2.0220885997	-1.2279998974	 0.099293
H	 2.6701620689	-0.3248862901	-1.5912753085	 0.103742
H	 2.8815255736	-1.499491075	 1.0611348457	 0.104553
H	 2.933178654	 0.2082904157	 0.6650237311	 0.112033
H	 0.521738383	-1.4883709187	 1.3955365379	 0.095106
H	 0.8715459109	 1.5687695346	 4.2377286726	 0.189401
83.8911	121.1693	139.2722	218.4919	222.5268	244.7446	291.8308	335.0688	368.1562	395.2211	493.3269	534.9714	559.4324	614.8344	628.691	632.1283	717.183	783.7016	836.6181	899.6671	933.3466	952.7829	961.288	990.7233	1018.4598	1021.8499	1055.4165	1086.9269	1095.1205	1175.6796	1225.481	1244.3072	1246.6137	1267.2828	1293.3635	1325.4701	1329.6614	1347.128	1363.4765	1401.7309	1422.3672	1481.1169	1484.4676	1491.9714	1499.0734	1505.1916	1510.9008	1516.9281	2229.3015	2998.8195	3024.4443	3030.6698	3037.3064	3055.3609	3068.051	3076.3072	3090.6655	3092.5807	3098.5612	3100.7521	3111.9386	3115.4896	3504.1141
CC1(C)CCCC1C#C	CC1(C)CCC[C@H]1C#C	
InChI=1S/C9H14/c1-4-8-6-5-7-9(8,2)3/h1,8H,5-7H2,2-3H3	InChI=1S/C9H14/c1-4-8-6-5-7-9(8,2)3/h1,8H,5-7H2,2-3H3/t8-/m1/s1
