14
gdb 9220	6.69874	0.99964	0.89935	5.4375	56.11	-0.2784	-0.0116	0.2668	1216.3371	0.10466	-456.858801	-456.850115	-456.849171	-456.893327	28.243	
C	-0.1813836502	 1.2283903731	-0.1438604325	-0.243841
O	-0.0672181755	-0.1530523516	 0.2392671482	-0.227636
C	-1.1883154277	-0.8773895546	 0.1242882469	 0.441483
O	-2.251829239	-0.45971596	-0.2494871135	-0.339426
C	-0.9129524317	-2.3311207533	 0.4953348598	-0.224516
O	-2.1059465644	-3.022829395	 0.807894891	-0.163979
C	-2.9175791602	-3.348711046	-0.2285663521	 0.193868
O	-3.9710243475	-3.8795801408	-0.0641635208	-0.267939
H	 0.8100113051	 1.6565237843	-0.0008131177	 0.142705
H	-0.4902231409	 1.3104922169	-1.1885379829	 0.148095
H	-0.9154303543	 1.7373517014	 0.4847678771	 0.151998
H	-0.3734272032	-2.803160713	-0.3374638184	 0.144443
H	-0.2721493839	-2.3819753651	 1.3763635167	 0.160781
H	-2.4831212364	-3.0957221563	-1.2127813817	 0.083964
45.7215	79.242	108.2619	156.2556	176.9914	232.5794	308.2937	348.473	410.1733	576.4869	659.3308	739.164	905.7214	990.273	1025.7051	1031.0593	1082.7061	1159.4052	1178.9394	1210.6361	1256.1126	1289.9719	1394.8201	1430.8731	1473.2776	1477.4988	1482.7264	1496.0228	1837.7799	1879.8108	2974.0685	3024.8643	3058.3971	3133.0417	3136.6518	3169.256
COC(=O)COC=O	COC(=O)COC=O	
InChI=1S/C4H6O4/c1-7-4(6)2-8-3-5/h3H,2H2,1H3	InChI=1S/C4H6O4/c1-7-4(6)2-8-3-5/h3H,2H2,1H3
