16
gdb 31286	1.883	1.67498	0.95788	2.3191	67.01	-0.2419	-0.0088	0.2331	1189.7833	0.124596	-475.038557	-475.029825	-475.028881	-475.072954	30.84	
O	 0.2463109727	 1.2192034778	 0.3313999195	-0.408465
C	 0.0660660352	-0.1201377542	-0.1138772481	-0.190031
C	-1.366523091	-0.5225223304	-0.1883900252	 0.256007
C	-2.2513974486	-0.8121526107	-1.1799963117	 0.118635
C	-2.0458499131	-0.8626015202	-2.6666000934	-0.177018
O	-0.7399469529	-1.2800569466	-3.0416430193	-0.40303
N	-3.4954668386	-1.0897573977	-0.6141486194	-0.3038
C	-3.3084242642	-0.9493960761	 0.6553363055	 0.061718
O	-2.0478246882	-0.6160346777	 1.0061407727	-0.186249
H	-0.1194676915	 1.2805236809	 1.2199765774	 0.288874
H	 0.4833771265	-0.1804700747	-1.1203494117	 0.149988
H	 0.6184339192	-0.8240831354	 0.5283683976	 0.101948
H	-2.8269699886	-1.5024911333	-3.0996018508	 0.118763
H	-2.1682835895	 0.13383853	-3.1056205605	 0.135516
H	-0.6223734005	-2.1814759019	-2.7232146672	 0.285038
H	-4.021501937	-1.0707480199	 1.4558914247	 0.152106
55.7366	72.3625	147.3073	173.5441	241.1146	282.7514	354.2636	366.7188	421.5239	467.6546	653.6838	682.8435	713.6685	791.2889	842.0624	943.2804	962.2092	974.1514	1041.4212	1066.9365	1097.114	1143.865	1178.4704	1215.6969	1250.0225	1290.4514	1345.5268	1376.7707	1392.2655	1417.365	1422.9163	1497.958	1499.7301	1555.3478	1662.4598	2980.8677	3015.1801	3066.8621	3128.8632	3273.5232	3808.5821	3816.9337
OCC1=C(CO)N=CO1	OCc1c(CO)nco1	
InChI=1S/C5H7NO3/c7-1-4-5(2-8)9-3-6-4/h3,7-8H,1-2H2	InChI=1S/C5H7NO3/c7-1-4-5(2-8)9-3-6-4/h3,7-8H,1-2H2
