17
gdb 13551	3.70458	1.40115	1.12784	2.4662	69.9	-0.2407	0.0222	0.2629	1058.781	0.142186	-360.010283	-360.001634	-360.00069	-360.043535	31.066	
C	-0.4479146443	 1.3648518115	 0.0053433609	-0.31542
N	 0.0150219834	-0.014797667	 0.0576242167	-0.080118
C	 1.3957868024	-0.3023920677	-0.3050617174	-0.252782
C	 0.9277666578	-0.4486514712	 1.1025921917	 0.03871
C	 1.4342410857	 0.4914264681	 2.1895247177	-0.159591
N	 0.4032971086	 0.6733919295	 3.2156790211	-0.499772
C	 2.7128574292	-0.0295391968	 2.7256110961	 0.261636
N	 3.6899429043	-0.4424539013	 3.1863207476	-0.32033
H	 0.346184617	 2.1183362046	 0.1310239139	 0.098008
H	-0.9112314685	 1.5355272957	-0.9709556904	 0.126691
H	-1.197883974	 1.5219844742	 0.784412066	 0.143764
H	 1.564610057	-1.1772122456	-0.9266021376	 0.12578
H	 2.0537135932	 0.5406782388	-0.519251903	 0.111742
H	 0.7179157704	-1.4488754064	 1.481973352	 0.103867
H	 1.6474735828	 1.4728808729	 1.7543274665	 0.129667
H	 0.1734340702	-0.2249265806	 3.6327722122	 0.242522
H	 0.7566677246	 1.2583162013	 3.967604316	 0.245625
65.6441	122.372	179.1624	202.7072	240.8437	265.6403	298.0976	362.1358	428.5247	509.7541	528.7333	604.5751	751.0069	853.3622	875.2639	914.4263	967.1976	1032.8506	1037.0967	1093.8662	1126.9932	1130.505	1151.7042	1167.5955	1201.1062	1222.7617	1303.6699	1344.0689	1382.9486	1423.4262	1450.234	1486.2489	1503.891	1516.3541	1661.2757	2342.7936	2972.1668	3065.0669	3076.0868	3084.2348	3104.3175	3124.4176	3178.3582	3489.3522	3569.7083
CN1CC1C(N)C#N	CN1C[C@H]1[C@@H](N)C#N	
InChI=1S/C5H9N3/c1-8-3-5(8)4(7)2-6/h4-5H,3,7H2,1H3	InChI=1S/C5H9N3/c1-8-3-5(8)4(7)2-6/h4-5H,3,7H2,1H3/t4-,5-,8?/m0/s1
