19
gdb 68091	3.07606	1.59125	1.49487	1.4224	78.7	-0.2144	-0.0158	0.1986	999.1062	0.157974	-385.876335	-385.868379	-385.867435	-385.907876	32.875	
C	 0.0374163447	 1.4969876087	-0.0893011418	-0.501333
C	-0.0057684866	-0.008364244	 0.0243833485	 0.293583
O	 0.6488527862	-0.6617739179	-1.0809434355	-0.284749
C	 0.4081448202	-2.0102602682	-0.6327641992	 0.293584
C	 0.9758356197	-3.0413632443	-1.5790345469	-0.501333
C	 1.0156489824	-1.9139710465	 0.7968032345	-0.118582
C	 0.7600102013	-0.6767806715	 1.2028408537	-0.118516
C	-1.1370698289	-1.9469533829	-0.4587907003	-0.118519
C	-1.3928433117	-0.7098669179	-0.052522344	-0.118579
H	 1.0718311915	 1.8506478216	-0.1109429061	 0.130207
H	-0.4618042268	 1.8272341861	-1.004327544	 0.130191
H	-0.4676053628	 1.9578694096	 0.7655679471	 0.117287
H	 2.058084688	-2.9190128469	-1.6756013932	 0.13019
H	 0.7739537005	-4.0510173886	-1.2074134916	 0.117287
H	 0.5251952373	-2.9418064916	-2.5702809805	 0.130208
H	 1.4860830557	-2.7322688883	 1.324424404	 0.10477
H	 0.96374052	-0.2045067339	 2.1540267709	 0.104766
H	-1.8090289049	-2.7827313032	-0.5975345075	 0.104766
H	-2.3316242559	-0.2551670004	 0.2325071621	 0.10477
198.1051	198.6641	228.3567	257.0868	284.6863	356.6124	427.3799	468.523	533.0938	599.3261	617.2076	663.879	684.412	723.0217	742.529	802.7991	847.5993	855.6016	865.9145	883.0859	889.8026	900.673	916.7482	1042.9069	1059.057	1117.8186	1147.6047	1147.8933	1193.0598	1218.574	1275.8092	1325.337	1326.2559	1409.8544	1415.3678	1481.1405	1482.4415	1496.4589	1497.4599	1617.8116	1668.4953	3043.1242	3043.3814	3114.696	3114.8306	3122.7358	3122.9495	3213.6729	3214.7485	3240.9601	3243.1752
CC12OC(C)(C=C1)C=C2	C[C@@]12O[C@@](C)(C=C1)C=C2	
InChI=1S/C8H10O/c1-7-3-5-8(2,9-7)6-4-7/h3-6H,1-2H3	InChI=1S/C8H10O/c1-7-3-5-8(2,9-7)6-4-7/h3-6H,1-2H3/t7-,8+
