14
gdb 125456	3.10939	1.47145	1.0049	1.6113	68.2	-0.2341	-0.0749	0.1592	1094.3135	0.101859	-470.050872	-470.043157	-470.042213	-470.083194	28.763	
C	-0.0339382571	 1.4944514811	-0.0145935912	-0.466028
C	-0.0046731478	 0.0036962375	-0.0530072833	 0.225489
N	-0.0255462912	-0.6328432682	-1.1825462597	-0.313729
C	 0.0044133892	-2.0004069988	-1.1334157916	 0.469821
O	-0.019586976	-2.5876250356	-2.3413586369	-0.3923
N	 0.051948792	-2.7489191944	-0.0737471617	-0.30968
N	 0.0727026202	-2.0622504085	 1.0976094954	-0.274748
C	 0.0488015496	-0.6972018568	 1.2555540377	 0.392036
O	 0.0712680408	-0.1471441442	 2.3447351388	-0.383897
H	 0.8523918521	 1.8702139926	 0.5082339871	 0.158726
H	-0.0795938399	 1.9006427996	-1.0246570349	 0.144553
H	-0.8926640101	 1.834591739	 0.574218666	 0.158796
H	 0.0047215953	-3.5428063607	-2.1957647475	 0.311902
H	 0.1100002327	-2.6339218326	 1.9306295518	 0.279058
105.3791	126.3227	213.3199	279.4348	352.1079	378.2504	414.4314	509.1476	517.0527	530.3194	592.3186	637.9529	705.575	729.6796	798.7295	820.8723	960.8451	1027.5406	1044.9101	1179.1837	1205.2273	1288.8656	1341.6871	1403.7385	1424.8692	1453.1437	1461.1546	1483.0209	1591.2347	1659.8807	1775.3975	3044.8522	3097.5508	3163.5205	3602.5782	3790.7193
CC1=NC(O)=NNC1=O	Cc1nc(O)n[nH]c1=O	
InChI=1S/C4H5N3O2/c1-2-3(8)6-7-4(9)5-2/h1H3,(H,6,8)(H,5,7,9)	InChI=1S/C4H5N3O2/c1-2-3(8)6-7-4(9)5-2/h1H3,(H,6,8)(H,5,7,9)
