23
gdb 100975	2.27464	1.07141	0.99248	1.0889	82.13	-0.2522	0.0678	0.3199	1410.0206	0.201995	-425.419119	-425.407925	-425.406981	-425.455471	40.659	
C	 0.2940390203	 1.6249170202	 0.0569874224	-0.385066
C	 0.4300601437	 0.1004312332	 0.0231755147	-0.199575
C	 0.3985158084	-0.5276011968	 1.4226790067	 0.050738
O	-0.8262435679	-0.2666399627	 2.1071265824	-0.433821
C	 0.693109581	-2.0289881367	 1.3919214688	 0.399636
C	-0.3966684508	-2.9067216021	 0.8074689186	-0.492127
O	 2.0249015882	-2.3573785	 0.958331931	-0.307347
C	 1.6638922422	-2.6449428742	 2.3188138906	 0.025244
C	 2.4326978123	-1.9496379148	 3.4123831175	-0.428723
H	 1.1369473405	 2.0819833108	 0.5868533641	 0.116953
H	 0.2689126945	 2.042527127	-0.9538609064	 0.110588
H	-0.6216493433	 1.9231913417	 0.5752075919	 0.122894
H	-0.377599478	-0.3294596129	-0.5862519238	 0.08531
H	 1.3693648947	-0.1925454712	-0.4582894766	 0.122161
H	 1.1638401557	-0.0345833279	 2.02836272	 0.085505
H	-1.5499336925	-0.49500458	 1.5138622444	 0.281003
H	-0.6344650903	-2.6180610361	-0.2218231321	 0.124806
H	-0.0736137732	-3.9501264172	 0.7930569056	 0.13081
H	-1.3111801007	-2.839223472	 1.4054068422	 0.123643
H	 1.5195325486	-3.7127901343	 2.5032036781	 0.080856
H	 2.6091262621	-0.8956750505	 3.1921201885	 0.13102
H	 1.892902956	-2.023453088	 4.362491141	 0.127729
H	 3.4080228184	-2.4305381754	 3.5425526004	 0.127766
44.5785	92.8443	127.4393	168.0344	177.4997	202.989	234.352	246.8102	262.7439	297.5198	309.2279	391.1459	462.1036	481.6379	512.8838	543.7875	741.367	774.59	788.146	871.5378	912.0875	972.0621	986.0826	1003.8414	1047.2538	1069.9365	1089.9525	1099.4917	1130.213	1139.9761	1166.9825	1249.5155	1267.7392	1299.5567	1330.7424	1356.1337	1391.1388	1403.405	1406.1562	1409.2263	1417.1442	1462.8966	1483.0725	1485.6139	1491.0903	1496.269	1498.4255	1508.3108	1517.3174	3008.9721	3037.3775	3039.5849	3040.2002	3069.3694	3071.3102	3080.3519	3100.3237	3103.078	3104.4949	3117.8498	3125.0804	3137.7928	3806.8608
CCC(O)C1(C)OC1C	CC[C@@H](O)[C@@]1(C)O[C@H]1C	
InChI=1S/C7H14O2/c1-4-6(8)7(3)5(2)9-7/h5-6,8H,4H2,1-3H3	InChI=1S/C7H14O2/c1-4-6(8)7(3)5(2)9-7/h5-6,8H,4H2,1-3H3/t5-,6+,7-/m0/s1
