20
gdb 17629	3.20866	1.44794	1.08325	0.4312	70.98	-0.2453	0.066	0.3113	1132.6339	0.174641	-386.122227	-386.112528	-386.111583	-386.156839	35.187	
C	-0.0088843751	 1.5438051029	-0.061403907	-0.406129
C	 0.0241987253	 0.0180986054	-0.0275949701	 0.118564
O	 0.6719619381	-0.523495177	-1.1735894645	-0.425879
C	 0.642879737	-0.5210969481	 1.2812098632	 0.087673
O	-0.088778514	-0.0261130971	 2.404944056	-0.431425
C	 0.7490001739	-2.0294490267	 1.2894652626	 0.015314
C	 2.0396730088	-2.7193592205	 0.9351171053	-0.254929
C	 1.5606707603	-2.7116359154	 2.3632468172	-0.281143
H	 1.0117429138	 1.9491487008	-0.0518878363	 0.100961
H	-0.5058837179	 1.8952081037	-0.9695544446	 0.117848
H	-0.5305615474	 1.9367440451	 0.8139108137	 0.134386
H	-1.0038791788	-0.3666251677	-0.085761806	 0.076331
H	 1.5577962655	-0.1465644272	-1.2142267515	 0.276792
H	 1.6494979937	-0.09132839	 1.3944500348	 0.067291
H	-0.8645676478	-0.5861677089	 2.5147533916	 0.279363
H	-0.1602745365	-2.5372287346	 0.9717962756	 0.078021
H	 1.9859098523	-3.6431320143	 0.3705092978	 0.114157
H	 2.8925271213	-2.0979662439	 0.6827902866	 0.103654
H	 2.0782394698	-2.0770704634	 3.0746186247	 0.119394
H	 1.181950898	-3.6354314732	 2.7862893409	 0.109757
54.4138	73.5213	155.5177	176.9422	228.4043	253.7165	261.1573	277.283	345.8452	407.5364	447.8166	486.1613	544.8744	768.2652	828.6199	851.0511	872.4539	935.44	943.8818	984.5121	1048.189	1054.806	1065.5875	1077.966	1102.6252	1130.566	1146.976	1179.477	1196.2031	1224.9544	1239.4706	1279.339	1317.288	1382.6712	1392.8154	1402.4722	1414.945	1431.262	1471.3437	1491.4191	1497.2575	1506.9789	2995.604	3014.8764	3026.0849	3099.7132	3118.3271	3132.5042	3137.2999	3137.4221	3210.1918	3225.0706	3800.0938	3809.2821
CC(O)C(O)C1CC1	C[C@@H](O)[C@@H](O)C1CC1	
InChI=1S/C6H12O2/c1-4(7)6(8)5-2-3-5/h4-8H,2-3H2,1H3	InChI=1S/C6H12O2/c1-4(7)6(8)5-2-3-5/h4-8H,2-3H2,1H3/t4-,6-/m1/s1
