22
gdb 22070	2.47884	1.15379	0.97277	0.9728	86.57	-0.2383	0.0129	0.2512	1343.4025	0.191094	-404.311936	-404.301591	-404.300647	-404.346831	39.008	
C	-0.5914080333	 1.1728800571	-0.1698445605	-0.412107
C	-0.0178241693	-0.2349191469	-0.0774321717	-0.091293
C	 1.229576715	-0.5896964761	-0.857037526	 0.409091
C	 1.827680916	-1.3906355002	 0.2768100813	-0.362959
C	 0.7441660873	-0.7479867661	 1.2167562959	 0.317776
C	 1.3392957771	 0.3816432805	 2.0583105106	-0.439048
C	-0.0452844834	-1.7248909455	 2.0820842439	-0.45462
N	 1.6142363361	-0.1825345917	-1.9925783199	-0.250172
O	 2.8874639163	-0.7000860341	-2.3118440693	-0.395243
H	 0.1638661222	 1.9339805367	 0.043209044	 0.120908
H	-0.9703849424	 1.3597612541	-1.1789471214	 0.130436
H	-1.4217175051	 1.3060647562	 0.531840651	 0.112088
H	-0.8077781805	-0.9605299645	-0.316499942	 0.086635
H	 1.7044887386	-2.471285673	 0.1454588129	 0.115385
H	 2.8768005218	-1.1877071087	 0.5075633724	 0.121493
H	 1.9395361364	 1.066727296	 1.4507996486	 0.120668
H	 0.5581000741	 0.9681037661	 2.5537694349	 0.114262
H	 1.9928225609	-0.0278938238	 2.8366873996	 0.113186
H	 0.5879200712	-2.1624335191	 2.8626663648	 0.114401
H	-0.8839580107	-1.2239807867	 2.5798762884	 0.114273
H	-0.4537193593	-2.5462847754	 1.4835802749	 0.110822
H	 3.057109341	-0.2982074551	-3.1704055223	 0.304018
49.3433	148.4741	175.093	193.8936	228.282	239.5762	266.1636	278.8764	327.755	347.8317	370.8443	396.8507	475.5364	513.4046	546.2896	658.9525	722.053	798.4794	856.4185	884.5156	952.1708	954.4711	970.31	1010.9035	1017.585	1066.5776	1073.35	1135.9832	1157.0612	1196.9693	1202.4958	1236.5028	1276.3359	1304.664	1356.0059	1401.277	1402.0476	1407.5787	1420.898	1461.6419	1482.3483	1484.0812	1493.043	1496.9829	1503.8845	1508.1706	1783.6249	3005.4419	3019.2026	3026.4904	3038.6422	3045.8581	3084.3236	3090.9675	3092.7763	3097.3982	3101.7577	3105.65	3118.0195	3818.5872
CC1C(CC1(C)C)=NO	C[C@H]1C(=NO)CC1(C)C	
InChI=1S/C7H13NO/c1-5-6(8-9)4-7(5,2)3/h5,9H,4H2,1-3H3	InChI=1S/C7H13NO/c1-5-6(8-9)4-7(5,2)3/h5,9H,4H2,1-3H3/t5-/m0/s1
