19
gdb 119210	2.0112	1.23799	0.86447	4.1326	77.91	-0.2342	0.0046	0.2387	1400.7729	0.157105	-419.186516	-419.176351	-419.175407	-419.222222	35.602	
C	-0.2284987807	 1.4700671981	-0.0606762641	-0.311734
N	-0.1816009685	 0.0182378022	-0.1682675795	-0.285684
C	 0.9125290522	-0.4532833124	-1.0000664688	-0.219522
C	 0.9033773406	-1.9686296002	-1.1057959145	 0.228098
O	 0.030142989	-2.5734949089	-2.0624182521	-0.2626
C	 1.4360729223	-2.7230792576	-2.2680843332	 0.037744
C	 2.0524411962	-2.0895217622	-3.4877296245	-0.431427
C	 0.935671747	-2.6424414797	 0.1869944157	 0.257696
N	 0.9796925472	-3.1355472238	 1.2318053321	-0.341021
H	 0.7116989708	 1.9286342653	 0.2954672003	 0.096914
H	-0.4572899236	 1.9033591746	-1.0411362713	 0.12478
H	-1.0303304754	 1.7570464983	 0.6246620354	 0.127714
H	-0.1070323014	-0.3905700345	 0.7580896676	 0.235635
H	 0.7816764837	-0.0398180384	-2.0038911631	 0.120047
H	 1.9127343939	-0.1357544307	-0.6439494138	 0.094045
H	 1.7984118697	-3.7287078428	-2.0483830808	 0.112218
H	 1.6555037965	-1.0923185679	-3.681916206	 0.137395
H	 3.1389540362	-2.0236655681	-3.3707093086	 0.136382
H	 1.8474327545	-2.7125694811	-4.364087391	 0.143318
67.6346	78.5474	122.6924	143.95	168.1868	172.3238	246.8481	271.3169	327.7748	387.3824	406.5458	495.221	564.2639	594.2503	724.5807	772.0988	802.2405	913.3758	960.6238	994.0876	1002.0877	1036.9668	1113.2643	1138.5936	1144.0406	1173.7527	1196.427	1243.3631	1288.8066	1330.0286	1392.5458	1409.7118	1452.2031	1459.3391	1482.383	1487.8395	1490.9111	1500.8772	1507.7944	1521.7929	2351.7063	2906.9519	2944.1279	3046.4799	3056.4507	3084.6338	3099.2164	3109.1223	3111.7934	3146.3435	3517.4404
CNCC1(OC1C)C#N	CNC[C@]1(O[C@H]1C)C#N	
InChI=1S/C6H10N2O/c1-5-6(3-7,9-5)4-8-2/h5,8H,4H2,1-2H3	InChI=1S/C6H10N2O/c1-5-6(3-7,9-5)4-8-2/h5,8H,4H2,1-2H3/t5-,6+/m0/s1
