17
gdb 46066	2.82205	1.37305	1.17028	3.3429	67.5	-0.2431	-0.0209	0.2221	1085.9006	0.135442	-458.95464	-458.946681	-458.945737	-458.987988	29.468	
O	 1.0745944297	 0.7507938023	-0.6422486412	-0.299058
C	 0.4957134627	 1.6403408174	-0.0822486271	 0.393746
C	-0.9184139423	 2.1398563239	-0.3855803919	-0.18544
O	-1.2371686047	 3.064063457	 0.6405405041	-0.266417
C	-0.0147627066	 3.6352817638	 1.1451651083	 0.053664
C	 1.0100510131	 2.4973977057	 1.0772797898	-0.361954
C	 0.3452772951	 4.8577379928	 0.3226436132	 0.075113
C	 1.6977385452	 5.4172961676	 0.2340810853	-0.18761
O	 1.1544784872	 4.6452894696	-0.8398382446	-0.229487
H	-0.9283327144	 2.6014891103	-1.3843692603	 0.136457
H	-1.6438144139	 1.3209455993	-0.373729797	 0.136777
H	-0.2355647107	 3.9534012934	 2.1688871402	 0.098
H	 0.9808390466	 1.8968153163	 1.9924301965	 0.138549
H	 2.0426213427	 2.7960802757	 0.8980705592	 0.144609
H	-0.4995874355	 5.5280854608	 0.1610370376	 0.108807
H	 1.8229332347	 6.4786853552	 0.027640457	 0.125482
H	 2.5190373012	 4.9531591887	 0.7774707707	 0.118763
55.2052	88.0516	149.6554	249.6438	269.3978	430.6544	449.594	470.3192	515.0441	627.0218	745.1228	762.6451	795.6716	837.639	886.0032	917.6662	953.8464	979.0508	1034.9514	1071.2824	1095.5727	1102.4371	1153.7286	1166.8971	1169.8956	1178.1845	1222.8677	1258.5714	1287.1558	1314.6859	1352.5856	1372.4204	1422.4307	1448.469	1479.838	1530.6544	1866.7328	3001.3867	3059.0498	3070.2981	3087.6645	3090.5755	3112.9251	3142.1721	3176.5636
O=C1COC(C1)C1CO1	O=C1CO[C@@H](C1)[C@H]1CO1	
InChI=1S/C6H8O3/c7-4-1-5(8-2-4)6-3-9-6/h5-6H,1-3H2	InChI=1S/C6H8O3/c7-4-1-5(8-2-4)6-3-9-6/h5-6H,1-3H2/t5-,6+/m0/s1
