12
gdb 133515	3.54366	0.94809	0.86638	2.092	53.65	-0.2767	-0.0581	0.2186	1259.0836	0.070443	-566.962562	-566.953594	-566.95265	-566.999291	30.528	
F	 0.0941911776	 0.099523873	-0.1590950024	-0.038854
C	-0.0122857892	 1.4060429114	 0.0018116034	 0.23621
F	 1.2179790937	 1.9444292451	 0.0155884118	-0.079872
F	-0.6701229924	 1.9216729417	-1.0493147468	-0.079743
C	-0.7594303207	 1.764869195	 1.3188798282	 0.239671
O	-1.1576740013	 0.8983374589	 2.040672779	-0.245758
C	-0.9035526737	 3.2678514183	 1.5464481039	-0.489825
C	-1.6005952687	 3.6173865137	 2.7696752959	 0.302847
C	-2.1771518698	 3.9063144513	 3.7814592676	-0.40335
H	 0.1070639791	 3.6980568015	 1.5235075174	 0.176032
H	-1.4089117189	 3.6831502395	 0.6638185128	 0.175926
H	-2.6876505156	 4.1609076606	 4.6772997094	 0.206718
7.3271	47.5551	118.3594	210.9268	223.1804	319.0729	330.465	400.0956	418.8427	489.8146	567.5088	598.9265	639.6322	659.015	722.9974	816.7246	939.9353	952.0697	1037.3061	1173.3323	1216.3028	1229.6785	1301.344	1358.2151	1436.9437	1867.3431	2255.7563	3024.9666	3051.9479	3505.5288
FC(F)(F)C(=O)CC#C	FC(F)(F)C(=O)CC#C	
InChI=1S/C5H3F3O/c1-2-3-4(9)5(6,7)8/h1H,3H2	InChI=1S/C5H3F3O/c1-2-3-4(9)5(6,7)8/h1H,3H2
