17
gdb 41164	3.07824	1.87678	1.70378	1.8634	72.11	-0.2292	0.004	0.2333	861.2949	0.138863	-417.894892	-417.888538	-417.887594	-417.925181	26.898	
C	 0.0625815747	 1.5579162409	-0.2251181518	-0.25684
N	 1.5718861242	 1.4650169032	 0.0812944702	-0.384848
C	 1.1753739507	 0.2738982136	 0.9576810298	 0.030815
C	 1.1864171153	-1.2962746114	 1.1960734585	-0.058045
C	-0.4242883644	-1.1001559597	 1.132688685	-0.343193
C	-0.0545796014	 0.0545672251	 0.1555592104	 0.374039
O	 0.2840366336	-0.6071440987	-1.1203728214	-0.2683
C	 1.1437518362	-1.6388435204	-1.0248913955	 0.100774
N	 1.651324621	-2.0640439788	 0.0563346279	-0.247905
H	-0.4063051546	 2.2369092626	 0.4893257774	 0.124747
H	-0.1932796849	 1.8328995575	-1.2505128975	 0.121785
H	 2.0213573489	 1.1278047232	-0.7687858796	 0.232819
H	 0.9147166998	 0.7170566721	 1.922028389	 0.106133
H	 1.6227207865	-1.6736466568	 2.120438332	 0.090649
H	-0.9985810935	-1.9451980406	 0.7481748124	 0.121315
H	-0.8292999772	-0.7487821063	 2.0812017185	 0.123161
H	 1.3669338752	-2.0768918155	-1.9948116551	 0.132893
196.3057	285.2693	358.8247	388.2006	423.3508	522.8803	532.4502	662.1643	684.615	747.6061	769.3757	777.9214	816.2246	885.4984	902.7628	918.2761	962.1295	963.3593	995.5183	1010.6602	1042.9242	1110.5051	1128.4177	1148.9487	1171.129	1191.0798	1217.9392	1231.2943	1246.3508	1264.9077	1312.0501	1336.7892	1376.4265	1417.9476	1476.1771	1483.3305	1701.8039	3067.3217	3072.456	3082.2136	3113.7646	3140.3844	3157.786	3174.1092	3484.42
C1NC2C3CC12OC=N3	C1N[C@@H]2[C@H]3C[C@@]12O[CH][N]3	
InChI=1S/C6H8N2O/c1-4-5-6(1,2-7-5)9-3-8-4/h3-5,7H,1-2H2	InChI=1S/C6H8N2O/c1-4-5-6(1,2-7-5)9-3-8-4/h3-5,7H,1-2H2/t4-,5-,6-/m1/s1
