22
gdb 6475	3.68173	1.23618	1.13906	1.5755	77.68	-0.2538	0.0738	0.3276	1171.6744	0.199008	-350.202428	-350.193164	-350.192219	-350.23583	35.457	
C	-0.1786714441	 1.8065808539	-0.120103642	-0.38809
C	-0.3707173417	 0.2862803795	-0.1705116593	-0.232271
C	 0.6145874512	-0.4608114498	-1.0769621734	 0.360054
C	 0.4650011526	-0.0552568474	-2.5475561351	-0.447167
C	 2.1101578615	-0.4596683656	-0.6140855086	-0.303758
C	 2.1722055754	-1.9790171234	-0.9193151184	 0.175131
O	 2.9001310702	-2.8355467969	-0.074562735	-0.436181
C	 0.6220260916	-2.0155741443	-0.9088881781	-0.316453
H	 0.8402864494	 2.0671292925	 0.18701431	 0.117718
H	-0.3624173564	 2.2751899102	-1.0916193623	 0.118519
H	-0.8673466255	 2.2615921763	 0.5985560804	 0.112267
H	-0.2778549746	-0.1156381601	 0.8470371878	 0.082633
H	-1.3958074324	 0.0567681869	-0.4935605779	 0.091797
H	 0.6971629274	 1.0034970502	-2.7007147145	 0.115943
H	 1.1359612268	-0.6311082587	-3.1930937984	 0.114918
H	-0.5592688621	-0.2292518774	-2.8976364376	 0.111193
H	 2.8136695474	 0.197274973	-1.1325040008	 0.096035
H	 2.1929313597	-0.2784602092	 0.4643004246	 0.083897
H	 2.5675391301	-2.1658330426	-1.9214042077	 0.091698
H	 2.5782109578	-2.7081251432	 0.824152899	 0.273594
H	 0.2470741112	-2.3109026422	 0.0782674283	 0.083011
H	 0.1157739145	-2.6179852118	-1.6682473609	 0.095512
84.6335	102.3275	200.8137	227.2467	257.157	284.3109	327.6763	334.3841	369.3374	375.6574	458.8572	480.226	585.5416	725.217	786.3968	830.5515	889.5511	895.5835	908.8905	959.6997	993.5728	1018.1523	1042.6845	1052.0879	1090.851	1099.8743	1119.6073	1180.7917	1216.4283	1222.6065	1265.3898	1279.0202	1293.7689	1326.9015	1342.8803	1366.5834	1409.4371	1415.0731	1437.9516	1468.1632	1479.0347	1492.3788	1497.7086	1499.7817	1506.6157	1510.9184	3005.0811	3025.7782	3030.0424	3035.1214	3035.3843	3040.327	3069.6457	3091.0683	3094.1347	3097.4136	3100.0669	3102.6249	3109.2077	3806.0631
CCC1(C)CC(O)C1	CC[C@@]1(C)C[C@@H](O)C1	
InChI=1S/C7H14O/c1-3-7(2)4-6(8)5-7/h6,8H,3-5H2,1-2H3	InChI=1S/C7H14O/c1-3-7(2)4-6(8)5-7/h6,8H,3-5H2,1-2H3/t6-,7+
