21
gdb 73463	2.74616	1.76912	1.50938	1.3593	80.46	-0.218	0.0836	0.3015	992.0419	0.185783	-387.105722	-387.098337	-387.097393	-387.137057	30.644	
C	 0.0682839367	 1.4939550748	-0.0936904522	-0.474848
C	 0.036928372	-0.017546732	-0.0409333899	 0.289158
C	-1.2486831509	-0.6644077778	-0.5494611152	-0.270939
C	-1.1389674402	-2.2110516243	-0.6444668299	-0.212057
C	 0.1748158737	-2.6756522302	-0.0098045031	 0.066013
C	 0.3106625866	-2.1148815219	 1.4233529142	-0.242496
C	 0.7507693324	-0.6892859505	 1.1322205308	-0.146551
C	 1.336499377	-0.7553762148	-0.2579628693	 0.069459
O	 1.2560075646	-2.0751030775	-0.7409595628	-0.26767
H	 1.0244356425	 1.8876612645	 0.267109523	 0.11256
H	-0.0765059851	 1.8575164982	-1.1178593566	 0.115834
H	-0.7232231846	 1.928299912	 0.5293563576	 0.114291
H	-2.071488132	-0.3750630774	 0.1160967575	 0.097591
H	-1.4959160975	-0.2437230621	-1.5308446528	 0.100979
H	-1.9866662926	-2.6982308131	-0.1504917709	 0.093049
H	-1.1438928368	-2.5350425721	-1.6891420156	 0.105841
H	 0.2975781957	-3.7589055543	-0.0767790289	 0.076251
H	-0.631107307	-2.1919680122	 1.9761041531	 0.098719
H	 1.0847572341	-2.6447271416	 1.9880959704	 0.103614
H	 1.1866958205	-0.0816894729	 1.9171164684	 0.079165
H	 2.2405960408	-0.2489382147	-0.5755826979	 0.09204
136.498	209.2616	254.3819	302.5191	353.4105	388.4691	462.9404	505.8807	575.7703	667.6896	712.5519	796.1899	828.071	847.9161	863.7891	864.5469	916.0986	929.6831	975.9888	1007.2534	1017.9203	1046.6498	1059.4477	1071.9925	1091.9599	1109.4327	1121.9101	1182.1605	1193.8819	1222.969	1252.1076	1274.8533	1290.8799	1294.5961	1326.1652	1360.2364	1368.7356	1377.9331	1415.5969	1434.2846	1479.6127	1490.9281	1492.1338	1498.5492	1511.6117	3016.1704	3020.674	3042.5877	3045.3569	3051.5104	3077.0647	3085.3118	3088.9023	3091.5612	3093.1011	3169.8397	3181.8622
CC12CCC3CC1C2O3	C[C@]12CC[C@@H]3C[C@H]1[C@H]2O3	
InChI=1S/C8H12O/c1-8-3-2-5-4-6(8)7(8)9-5/h5-7H,2-4H2,1H3	InChI=1S/C8H12O/c1-8-3-2-5-4-6(8)7(8)9-5/h5-7H,2-4H2,1H3/t5-,6+,7-,8+/m1/s1
