21
gdb 95318	2.58261	1.70178	1.47887	2.3553	75.76	-0.2424	0.0701	0.3125	1001.1439	0.186738	-424.253864	-424.246489	-424.245545	-424.285264	30.801	
O	 0.0441142585	 1.4149888301	-0.1213019712	-0.45176
C	 0.0930686044	 0.000605846	 0.0001321757	 0.145818
C	 0.8444958801	-0.4338958539	 1.2753222093	-0.232593
C	-0.0212449137	-0.2208814244	 2.5328907272	-0.219549
C	-1.4626083307	-0.6864984329	 2.2800460847	 0.099901
C	-1.5578917319	-2.1606586525	 1.8241536789	-0.225265
C	-1.4468482815	-2.0641342783	 0.2774338863	-0.241427
C	-1.345264456	-0.5465862696	 0.0250891895	 0.060743
O	-1.9925696487	 0.0487727503	 1.1619642338	-0.281433
H	-0.6820309072	 1.698799139	 0.4493949859	 0.283987
H	 0.6215302646	-0.3659554131	-0.8875990705	 0.075723
H	 1.1222274066	-1.49104492	 1.1874819062	 0.095099
H	 1.7773193031	 0.1329077088	 1.3445506729	 0.106956
H	 0.4053258079	-0.7483782133	 3.3936018404	 0.09522
H	-0.048478277	 0.8433937006	 2.7933121258	 0.103832
H	-2.1024768932	-0.4658107501	 3.1382269125	 0.076514
H	-0.7748684311	-2.7794738516	 2.2694810049	 0.103843
H	-2.5202081745	-2.5858320039	 2.1176275348	 0.107988
H	-0.584135183	-2.6046046175	-0.1214111058	 0.106053
H	-2.3382037525	-2.469651394	-0.2060694935	 0.108503
H	-1.8827141839	-0.2096465596	-0.8647779578	 0.081846
149.3761	178.017	257.479	348.3076	373.8643	415.149	466.8563	490.7196	528.1435	663.1866	743.8174	773.5759	781.8275	810.2708	830.1045	876.7575	909.4334	939.7852	974.3901	994.3728	1010.7247	1021.4945	1030.3317	1057.6381	1098.9497	1119.41	1172.4999	1195.5817	1213.3061	1248.2561	1258.0558	1269.3463	1306.9298	1322.4756	1331.5267	1342.5256	1353.0796	1366.3101	1383.2819	1398.8844	1435.7275	1476.9177	1486.0287	1489.5642	1512.5757	3033.564	3034.6941	3047.9185	3061.5369	3068.7777	3074.097	3079.302	3086.6454	3090.8069	3100.0682	3119.637	3764.7441
OC1CCC2CCC1O2	O[C@H]1CC[C@@H]2CC[C@H]1O2	
InChI=1S/C7H12O2/c8-6-3-1-5-2-4-7(6)9-5/h5-8H,1-4H2	InChI=1S/C7H12O2/c8-6-3-1-5-2-4-7(6)9-5/h5-8H,1-4H2/t5-,6+,7-/m1/s1
