16
gdb 68129	3.95353	1.30122	1.15132	4.9534	74.03	-0.2593	-0.0243	0.235	1071.2044	0.123477	-400.717406	-400.70975	-400.708806	-400.749214	30.084	
C	 0.0857044662	 1.5241075934	 0.1117019275	-0.512236
C	 0.0096745077	 0.0326883547	-0.0296191207	 0.345281
C	 0.5948141601	-0.7812612718	-1.2310266607	-0.286667
C	 0.5999291345	-1.8251905308	-0.0693445781	 0.286964
O	 0.9371615808	-0.7316425511	 0.8373842379	-0.33167
C	-0.9173009957	-2.0016030203	 0.1934139002	-0.124853
C	-1.3124611728	-0.7309935737	 0.2231124096	-0.120302
C	 1.4758800163	-2.9780582337	-0.0311163532	 0.164406
N	 2.158081749	-3.910238434	-0.0295476933	-0.333676
H	 1.1008337941	 1.8807488177	-0.0789100828	 0.138558
H	-0.5933315136	 2.0071832071	-0.5980132944	 0.131025
H	-0.2034279202	 1.8263430067	 1.1228243198	 0.14236
H	-0.036518559	-0.9791132503	-2.0980290284	 0.114345
H	 1.6020107231	-0.4612414121	-1.5060182225	 0.125475
H	-1.4455157716	-2.9351607092	 0.3099739845	 0.136385
H	-2.2907803589	-0.2985663626	 0.3735544346	 0.124608
141.9171	151.1263	191.4797	292.202	303.7314	457.0933	496.6611	521.7	529.6958	575.9315	619.3587	635.596	709.5468	749.482	805.7068	857.1324	892.4785	898.998	952.6351	982.2547	1029.5661	1048.9857	1101.9918	1129.8435	1172.781	1185.7524	1228.0899	1301.4606	1350.8791	1419.9625	1478.8577	1487.1717	1493.4658	1622.0146	2366.4573	3044.7035	3074.237	3114.839	3127.2622	3152.6172	3236.9527	3267.6785
CC12CC(O1)(C=C2)C#N	C[C@@]12C[C@@](O1)(C=C2)C#N	
InChI=1S/C7H7NO/c1-6-2-3-7(4-6,5-8)9-6/h2-3H,4H2,1H3	InChI=1S/C7H7NO/c1-6-2-3-7(4-6,5-8)9-6/h2-3H,4H2,1H3/t6-,7+/m1/s1
