16
gdb 45726	2.8084	1.31761	0.99035	3.3766	77.45	-0.2444	0.0006	0.245	1175.3615	0.124646	-400.754893	-400.746656	-400.745712	-400.788525	30.778	
O	 0.051359535	-0.0488005753	 0.0948320352	-0.373884
C	 0.0050967391	 1.1635074599	 0.0154076	 0.406026
C	-1.2941632119	 1.8958353558	-0.2862217656	-0.380819
C	-1.1908910649	 3.3879288082	-0.367547395	-0.072806
C	-0.0517871296	 4.0514833893	-0.2179908062	-0.044987
C	 1.2683135622	 3.3769982484	 0.0640218694	-0.184429
N	 1.1175722267	 1.9340473748	 0.2160720248	-0.310278
C	 2.2574922267	 3.7029248888	-0.9758134014	 0.32844
C	 3.0801563672	 3.969842564	-1.8097031076	-0.465542
H	-1.6841291715	 1.4785552458	-1.2233172413	 0.148041
H	-2.0189682374	 1.5916785323	 0.4797349276	 0.145739
H	-2.1092027565	 3.9359943417	-0.5621529303	 0.104891
H	-0.0056623388	 5.1321039491	-0.2947232749	 0.113465
H	 1.6544560435	 3.785077624	 1.0129022095	 0.127823
H	 1.9617253828	 1.3996632491	 0.3671526805	 0.251893
H	 3.8018714273	 4.202072814	-2.5537769346	 0.206426
48.6607	74.5113	154.5357	229.3978	363.3664	437.2217	446.7305	497.7374	517.1869	549.9967	601.5884	633.9199	646.2711	670.4507	715.5852	807.7449	907.4474	921.4855	971.4952	974.0466	1006.2014	1022.629	1139.8786	1186.5029	1211.5212	1304.556	1320.7357	1345.5788	1374.7418	1420.9087	1448.8165	1477.6488	1747.5399	1792.4367	2235.2437	2957.9302	3033.118	3056.2093	3158.1291	3197.5282	3501.0728	3604.7721
O=C1CC=CC(N1)C#C	O=C1CC=C[C@@H](N1)C#C	
InChI=1S/C7H7NO/c1-2-6-4-3-5-7(9)8-6/h1,3-4,6H,5H2,(H,8,9)	InChI=1S/C7H7NO/c1-2-6-4-3-5-7(9)8-6/h1,3-4,6H,5H2,(H,8,9)/t6-/m0/s1
