15
gdb 93488	2.56043	1.58113	1.1511	2.9663	64.55	-0.2732	-0.0182	0.255	1039.811	0.114513	-491.133033	-491.125233	-491.124289	-491.165793	28.982	
O	 0.0439016177	 1.3695956592	 0.0579646599	-0.428522
C	-0.0029146205	-0.0465820253	 0.0102984717	 0.054922
C	-1.4572327633	-0.4627488212	-0.0835054997	-0.091131
O	-2.0495774874	-0.0939517201	-1.3374161575	-0.231123
C	-1.378434934	-0.3256968934	-2.4779537831	 0.483182
O	-1.9026552837	-0.2441502729	-3.554424852	-0.369796
N	-0.031077033	-0.6715477853	-2.3390600094	-0.420467
C	 0.7586551857	-0.5436123197	-1.2041470762	 0.366128
N	 2.0119979639	-0.7448232188	-1.1205381202	-0.523346
H	 0.9738053708	 1.623858274	 0.0370240972	 0.30037
H	 0.4497276618	-0.4998024999	 0.9013782777	 0.108853
H	-1.5478908615	-1.5466804003	 0.0561050136	 0.126411
H	-2.0480235672	 0.0489735757	 0.6771707193	 0.145567
H	 0.4170386327	-0.8558027241	-3.226318502	 0.264203
H	 2.423692518	-1.0117313579	-2.0178099493	 0.214751
68.7628	119.9663	196.0946	260.127	347.3475	381.7352	394.484	480.5155	539.1336	591.7745	632.4921	713.2166	746.9462	768.676	885.2559	890.5449	922.5892	936.8906	1014.6359	1110.1784	1128.3452	1155.6713	1229.7271	1256.0442	1288.564	1351.8369	1413.0525	1418.6007	1422.3196	1436.0692	1495.5216	1740.7338	1863.8322	3030.9942	3046.9686	3133.5086	3444.7588	3603.0041	3804.5822
OC1COC(=O)NC1=N	O[C@H]1COC(=O)N[C]1[NH]	
InChI=1S/C4H6N2O3/c5-3-2(7)1-9-4(8)6-3/h2,7H,1H2,(H2,5,6,8)	InChI=1S/C4H6N2O3/c5-3-2(7)1-9-4(8)6-3/h2,7H,1H2,(H2,5,6,8)/t2-/m0/s1
