19
gdb 8891	3.64474	1.36545	1.09715	2.1909	69.59	-0.2342	0.0629	0.2971	1143.9913	0.163706	-402.241601	-402.231502	-402.230558	-402.277872	33.62	
C	-0.0069554537	 1.6161043083	 0.1052292964	-0.378951
C	 0.0374334717	 0.0855418133	 0.0647483646	-0.146161
N	 0.7418403306	-0.5094903606	 1.1972149615	-0.14408
C	 0.011355653	-0.6868194736	 2.4402824214	-0.342562
C	 2.0877754731	-0.6982777477	 1.0736915897	 0.528965
O	 2.7291353784	-0.4727021333	 0.066849627	-0.434788
O	 2.6424382322	-1.184565363	 2.2157076667	-0.263262
C	 4.0471456191	-1.4288935691	 2.1308201112	-0.231491
H	 1.0070677972	 2.0234073729	 0.0682175266	 0.139302
H	-0.5622673475	 2.0017797248	-0.7557712731	 0.116637
H	-0.4974755245	 1.9846282867	 1.0119714846	 0.11453
H	-0.9787099827	-0.3256453309	 0.0564295168	 0.097923
H	 0.5429672018	-0.24430606	-0.8441850455	 0.140352
H	 0.5967002885	-1.28915358	 3.1306940413	 0.158585
H	-0.2186409701	 0.2721638405	 2.9241881058	 0.12211
H	-0.9360366128	-1.1998941711	 2.2389988232	 0.122555
H	 4.3416585088	-1.7957251092	 3.1149553659	 0.125609
H	 4.2689046967	-2.1767319259	 1.3650015747	 0.137031
H	 4.5889592903	-0.5111788922	 1.8885379013	 0.137695
35.529	58.901	101.8155	108.9883	146.0822	174.5002	213.7144	257.5811	362.6363	394.2551	411.621	545.2387	613.2219	776.797	785.6828	815.8947	919.6733	1018.5374	1085.1163	1099.9025	1109.9862	1156.8856	1183.8193	1210.2481	1220.0284	1267.2347	1336.3954	1391.9828	1407.7437	1428.9334	1457.6266	1473.4243	1480.6918	1489.0364	1490.3917	1500.1586	1502.9335	1505.8908	1531.9085	1789.1386	3007.6347	3038.2912	3039.9564	3049.3322	3062.4956	3100.794	3117.87	3123.0572	3130.2104	3149.9722	3179.0084
CCN(C)C(=O)OC	CCN(C)C(=O)OC	
InChI=1S/C5H11NO2/c1-4-6(2)5(7)8-3/h4H2,1-3H3	InChI=1S/C5H11NO2/c1-4-6(2)5(7)8-3/h4H2,1-3H3
