21
gdb 71641	3.01264	1.85373	1.59804	0.1919	84.28	-0.2361	0.0934	0.3295	947.3212	0.185308	-349.926952	-349.920096	-349.919152	-349.957529	29.904	
C	 0.0250702768	 1.5482219706	 0.0467331657	-0.49078
C	 0.003604076	 0.0315349149	-0.003929166	 0.332446
C	 0.3307894403	-0.6550135057	-1.3693156934	-0.277898
C	-0.7816705297	-1.6768720395	-1.0652467621	-0.030465
C	-0.5089700025	-2.679589117	 0.0798862885	-0.084387
C	 0.1210742869	-1.9996731015	 1.2867907964	-0.048828
C	 0.8162211155	-0.6623764959	 1.1067615582	-0.267876
C	-1.3558403496	-1.863620509	 1.0585270255	-0.087288
C	-1.3991773207	-0.7305560531	 0.0060036597	-0.081106
H	 1.044414293	 1.935042422	-0.072483437	 0.112779
H	-0.5868849346	 1.9818211965	-0.7518989546	 0.108522
H	-0.3600908882	 1.9184978292	 1.0041711255	 0.110868
H	 0.0551789041	-0.0168375784	-2.2159085997	 0.087701
H	 1.3538438326	-1.0170780028	-1.5157653596	 0.085833
H	-1.3830694178	-2.0890385187	-1.8771049988	 0.06023
H	-0.4495714546	-3.7559975954	-0.0332610981	 0.077462
H	 0.4577606437	-2.6739113611	 2.0680040895	 0.078269
H	 1.8741867589	-0.7492405746	 0.8328880032	 0.09216
H	 0.7640520865	-0.0948829393	 2.0455681011	 0.086397
H	-2.1331602364	-2.1711096021	 1.746173605	 0.078636
H	-2.3041883702	-0.1522347692	-0.1697412791	 0.057324
213.7729	239.7737	259.0501	359.3113	409.3665	462.768	556.0047	628.0032	695.0841	711.0704	746.6608	777.9146	818.0567	848.4456	877.5158	898.7715	916.9315	930.5969	960.2296	966.1064	994.8656	1005.5782	1017.0521	1026.9	1059.7595	1078.9473	1111.6923	1121.5049	1155.3244	1161.701	1199.64	1224.9014	1240.3781	1249.2528	1262.0795	1279.1278	1303.6909	1326.8245	1344.6733	1406.94	1412.509	1480.7749	1491.8781	1493.8235	1498.7601	3011.6353	3017.4448	3031.3799	3057.5087	3080.2618	3081.945	3088.2245	3092.0419	3130.0024	3160.9459	3171.9623	3193.2917
CC12CC3C4C(C1)C4C23	C[C@@]12C[C@H]3[C@H]4[C@@H](C1)[C@H]4[C@@H]23	
InChI=1S/C9H12/c1-9-2-4-6-5(3-9)8(9)7(4)6/h4-8H,2-3H2,1H3	InChI=1S/C9H12/c1-9-2-4-6-5(3-9)8(9)7(4)6/h4-8H,2-3H2,1H3/t4-,5+,6-,7-,8+,9+/m1/s1
