19
gdb 66500	3.32427	1.89592	1.69979	1.4394	83.85	-0.1882	-0.0696	0.1186	886.4405	0.159999	-348.612179	-348.6054	-348.604456	-348.642662	29.12	
C	-0.0101276989	 1.4819299576	-0.0063353655	-0.51984
C	 0.018164892	-0.0166883531	 0.0010513555	 0.381076
C	 0.4742663305	-1.0161638046	-1.0324045489	-0.141956
C	 1.2388958587	-0.8784275644	 0.2699169133	-0.124311
C	 0.8064196972	-2.0354112422	 1.1846632725	-0.03491
C	 0.1553994753	-2.9691042667	 0.4031663893	-0.075061
C	-0.5430024114	-2.0726378376	-0.5808133437	-0.087125
C	-1.070680325	-0.9636587899	 0.5651490071	-0.1074
C	-0.4416329262	-1.4893279522	 1.9435553397	-0.251654
H	 0.9076410313	 1.8874287135	-0.4463600458	 0.119987
H	-0.8566910248	 1.8697275016	-0.5848589048	 0.116978
H	-0.092128462	 1.8839737489	 1.0109260305	 0.119818
H	 0.8783134191	-0.872290758	-2.0264136926	 0.083248
H	 2.2272733017	-0.4377655135	 0.3065912534	 0.078151
H	-0.4038223814	-3.7842510467	 0.8624162272	 0.102642
H	-1.271377565	-2.472854146	-1.2846152792	 0.071304
H	-2.1022566725	-0.5983518923	 0.552936278	 0.062632
H	-1.0412922039	-2.2522782569	 2.4434484365	 0.105692
H	-0.2537445647	-0.6576418973	 2.6318957975	 0.100729
202.472	210.1748	265.0282	396.6777	417.3239	537.8716	570.228	609.6247	668.1027	698.8272	717.6766	773.2148	833.9347	846.9413	859.5497	887.9284	909.3053	921.9969	938.6759	971.215	983.4107	1026.4794	1033.1435	1047.6864	1068.6807	1102.0515	1117.9697	1161.7171	1179.5156	1211.4494	1220.8756	1233.2334	1247.3458	1270.1917	1300.6839	1407.9229	1428.581	1453.969	1483.8646	1487.323	1499.0339	3017.18	3039.5033	3070.8341	3075.7257	3088.8473	3110.7613	3119.6671	3127.5734	3185.0049	3194.4807
CC12C3C1C1=CC3C2C1	C[C@@]12[C@H]3[C@@H]1[C]1[CH][C@H]3[C@H]2C1	
InChI=1S/C9H10/c1-9-6-3-4-2-5(6)8(9)7(4)9/h2,5-8H,3H2,1H3	InChI=1S/C9H10/c1-9-6-3-4-2-5(6)8(9)7(4)9/h2,5-8H,3H2,1H3/t5-,6+,7-,8+,9-/m0/s1
