20
gdb 64449	2.20812	1.72608	1.25997	4.2754	75.14	-0.2368	0.0145	0.2513	1086.1983	0.171304	-440.321289	-440.312365	-440.311421	-440.354665	34.17	
C	 0.1864039833	 1.5023739586	-0.0663914429	-0.399315
C	-0.0148459798	-0.0205976499	-0.0248593929	 0.100314
C	-1.5244551207	-0.3447380645	 0.0960763384	-0.415001
N	 0.5992193111	-0.5976316306	-1.2313971929	-0.32321
C	 0.8646632893	-2.0221772907	-1.122811271	-0.192624
C	 1.9140979591	-2.1858352559	-0.0436458772	-0.043879
O	 1.488807044	-1.6142505982	 1.2044786136	-0.240281
C	 0.6553837887	-0.5523106455	 1.2597082001	 0.440645
O	 0.4084763972	-0.0671572306	 2.3318173187	-0.341405
H	 1.2474591778	 1.7450175726	-0.1633965009	 0.123897
H	-0.3380755195	 1.9199807755	-0.9327562944	 0.103941
H	-0.2051436923	 1.9641848463	 0.8411673454	 0.14206
H	-2.0616716227	 0.1011953476	-0.7482244607	 0.108354
H	-1.7107403652	-1.4230741684	 0.0899684884	 0.120222
H	-1.9309028106	 0.0631310366	 1.0239333132	 0.147389
H	 0.0143117025	-0.3917043517	-2.0343888587	 0.219141
H	-0.0194478257	-2.6371992943	-0.8772124502	 0.095293
H	 1.2667759772	-2.3897382033	-2.0724180548	 0.113033
H	 2.1211411137	-3.2373256777	 0.1713984063	 0.11878
H	 2.8434229825	-1.6921671259	-0.3482284274	 0.122646
60.2885	149.733	213.2052	246.4249	267.5197	303.0737	306.011	343.9514	418.4218	456.8673	476.3436	538.8319	620.2379	677.5476	749.0599	770.0637	877.2962	906.1249	938.109	953.9242	1001.2338	1022.7699	1075.3826	1119.0695	1134.4714	1171.6562	1183.8055	1219.4183	1239.7435	1264.9652	1318.2272	1386.6225	1391.9258	1405.5874	1428.2243	1473.9743	1477.7505	1486.4134	1496.4454	1500.1818	1505.1678	1519.9818	1828.7428	2947.3614	3034.1619	3042.0566	3046.2246	3076.3557	3103.0755	3105.5498	3113.0579	3132.6962	3148.5732	3520.0709
CC1(C)NCCOC1=O	CC1(C)NCCOC1=O	
InChI=1S/C6H11NO2/c1-6(2)5(8)9-4-3-7-6/h7H,3-4H2,1-2H3	InChI=1S/C6H11NO2/c1-6(2)5(8)9-4-3-7-6/h7H,3-4H2,1-2H3
