19
gdb 79768	2.99177	2.00514	1.80201	0.3894	77.08	-0.194	0.0684	0.2624	867.1378	0.162112	-381.950197	-381.9436	-381.942656	-381.981094	27.431	
C	-0.0539657287	 1.607223059	 0.001768867	-0.440814
C	 0.0535310319	 0.0831180281	-0.1122426111	 0.08211
C	 0.5371269018	-0.7395809732	-1.3296791975	-0.056115
C	 0.9659284179	-1.7991221808	-0.27630199	-0.0018
C	 2.4191107777	-1.5648093436	-0.6586693033	-0.006626
C	 2.4798184339	-0.3913638199	 0.3592970389	-0.028802
C	 2.6354716737	 0.51283315	-0.8754529889	-0.181591
N	 2.0045001973	-0.5504223613	-1.7286111675	-0.166089
N	 1.0252770896	-0.6780453298	 0.7641736694	-0.183648
H	-0.0608795492	 2.0879741717	-0.9816839502	 0.128883
H	-0.9773531408	 1.8907912422	 0.5142317897	 0.119302
H	 0.7745147354	 2.0289023896	 0.5757556789	 0.134444
H	-0.9252572611	-0.3467155672	 0.1399386438	 0.087947
H	-0.1151743516	-0.8919061359	-2.1936856042	 0.07095
H	 0.4517129593	-2.7254654609	-0.0208770622	 0.074872
H	 3.2008467888	-2.2875531187	-0.8917778234	 0.075434
H	 3.142526729	-0.2992657442	 1.2225588817	 0.07464
H	 2.192040582	 1.505456103	-0.9279888321	 0.109418
H	 3.6934923531	 0.5886762218	-1.154086419	 0.107486
86.4991	221.6662	269.3091	424.2977	490.1716	566.2871	620.359	684.252	726.9415	767.3865	813.9778	831.7257	849.8669	885.176	900.624	904.322	922.8642	947.2314	995.182	1013.0306	1024.8891	1074.3664	1114.548	1119.8676	1133.3535	1170.4318	1175.2436	1184.2892	1190.4505	1227.1965	1245.3959	1267.2708	1273.9628	1287.3912	1290.2615	1319.9809	1393.3734	1419.0951	1487.5229	1503.2336	1516.5444	3003.6562	3035.9216	3043.0639	3064.4268	3075.9838	3102.2351	3106.719	3116.6035	3119.5249	3151.0949
CC1C2C3C4C(CN24)N13	C[C@H]1[C@@H]2[C@H]3[C@@H]4[C@@H](CN24)N13	
InChI=1S/C7H10N2/c1-3-5-7-6-4(9(3)7)2-8(5)6/h3-7H,2H2,1H3	InChI=1S/C7H10N2/c1-3-5-7-6-4(9(3)7)2-8(5)6/h3-7H,2H2,1H3/t3-,4+,5+,6-,7-/m0/s1
