18
gdb 82153	3.37984	1.07482	0.93436	4.8442	72.21	-0.2367	-0.0127	0.2239	1255.0819	0.147278	-439.041984	-439.033535	-439.032591	-439.075839	31.432	
O	 0.0420686618	 1.3870363688	 0.110520069	-0.429048
C	 0.0424634585	-0.0101815453	 0.0088893426	 0.122311
C	-1.3319117652	-0.6884263825	 0.0825349852	-0.082949
N	-2.0798031395	-0.0750536733	-1.0455616729	-0.356789
C	-1.1840210493	-1.2326083836	-1.2929192801	-0.067388
C	 0.2312776856	-0.6635657145	-1.4343258425	-0.049778
C	 0.5254127334	 0.2447550084	-2.6310248148	-0.289368
C	 1.8857444144	 0.9013027953	-2.5279255986	 0.143642
O	 2.7762284205	 0.7496078736	-3.3268413546	-0.245603
H	-0.7628209434	 1.6774237143	-0.3416146887	 0.294282
H	 0.7681246286	-0.3917762882	 0.7292584528	 0.096083
H	-1.8520455337	-1.0811513838	 0.9472410369	 0.100798
H	-3.037445409	-0.4186688102	-1.0089961848	 0.23913
H	-1.5753828398	-2.1499087102	-1.7149951205	 0.102111
H	 0.9718240504	-1.4669194986	-1.3727324029	 0.088517
H	 0.4845536446	-0.3219624239	-3.5666139036	 0.114366
H	-0.2374262062	 1.0321334612	-2.6690160728	 0.122558
H	 2.0142481881	 1.5485392124	-1.6342759897	 0.097127
60.4354	86.7459	133.5445	193.3374	250.4218	294.7446	436.8778	489.3976	530.3475	585.1302	634.531	683.4578	781.2288	816.9403	843.8567	863.089	913.8152	934.7453	968.3279	1004.4996	1038.2277	1076.4338	1095.865	1103.8696	1123.5606	1137.4928	1173.3668	1204.3187	1240.6551	1270.9957	1286.6685	1318.732	1328.0019	1368.6549	1378.0281	1421.2529	1445.9509	1465.7426	1826.2469	2913.7129	3036.0116	3062.5785	3095.5715	3102.5532	3187.526	3201.0454	3497.8019	3741.3791
OC1C2NC2C1CC=O	O[C@H]1[C@H]2N[C@H]2[C@H]1CC=O	
InChI=1S/C6H9NO2/c8-2-1-3-4-5(7-4)6(3)9/h2-7,9H,1H2	InChI=1S/C6H9NO2/c8-2-1-3-4-5(7-4)6(3)9/h2-7,9H,1H2/t3-,4+,5+,6-/m1/s1
