16
gdb 30965	2.5081	1.34077	0.91628	4.2511	68.82	-0.1762	0.0462	0.2224	1232.1918	0.124399	-471.240476	-471.231185	-471.230241	-471.274727	33.35	
C	 0.1591398133	 1.2097346384	 0.4161023548	-0.329051
N	-0.1549723573	 0.1562999092	-0.5608716096	-0.39362
C	-1.234970636	-0.668989612	-0.2385390355	 0.251839
C	-1.3045093148	-1.9665165669	 0.1232673238	 0.234201
O	-0.3046391415	-2.8471512142	 0.39402839	-0.432087
N	-2.6627590443	-2.3224633413	 0.2011068157	-0.403423
C	-3.4731156417	-1.2159850233	-0.038706628	 0.439124
O	-4.6860888145	-1.1502520742	-0.0119405615	-0.431978
N	-2.5602039461	-0.2074591558	-0.3171134909	-0.384622
H	 0.9981136939	 1.8011657176	 0.0405625528	 0.125657
H	-0.7002234681	 1.8777184436	 0.5211829784	 0.13156
H	 0.4109992753	 0.820379145	 1.413471069	 0.117925
H	 0.6613565109	-0.4174520138	-0.7343653958	 0.238247
H	-0.2543089394	-3.5066163734	-0.3103752975	 0.30302
H	-3.0200924694	-3.1602578742	 0.6260729427	 0.2661
H	-2.8423114003	 0.6861728454	-0.6793587783	 0.267107
63.6942	124.5375	157.9806	174.9197	241.839	263.5712	284.4136	331.911	359.3808	398.8657	489.9367	575.3101	625.8588	653.8047	681.267	732.8774	753.9215	854.7701	1000.8235	1029.8707	1094.9777	1151.0401	1160.8934	1235.6074	1262.822	1284.7701	1326.26	1378.8448	1443.949	1477.848	1485.9001	1492.1179	1517.7155	1768.8361	1845.3225	2995.6905	3085.6268	3122.1231	3559.523	3688.7188	3693.569	3733.13
CNC1=C(O)NC(=O)N1	CNc1c(O)[nH]c(=O)[nH]1	
InChI=1S/C4H7N3O2/c1-5-2-3(8)7-4(9)6-2/h5,8H,1H3,(H2,6,7,9)	InChI=1S/C4H7N3O2/c1-5-2-3(8)7-4(9)6-2/h5,8H,1H3,(H2,6,7,9)
