18
gdb 99040	5.29012	0.77952	0.68629	1.3818	75.21	-0.2201	0.0187	0.2388	1633.7571	0.146758	-472.45936	-472.449137	-472.448193	-472.49501	35.584	
C	-1.2066628563	-2.2965655754	-1.9033935882	-0.235495
O	-0.0228849331	-2.6737893429	-1.1916921731	-0.260745
C	-0.141136472	-2.6696811726	 0.1522772949	 0.558193
O	-1.1619981626	-2.3731332041	 0.7436003231	-0.428438
N	 1.0453682227	-3.0416876208	 0.7131789435	-0.435069
C	 1.3555805365	-3.2112534128	 2.077860701	 0.463486
N	 0.4120407314	-2.7567997422	 2.9575315777	-0.568635
N	 2.49867064	-3.7224964668	 2.3262041623	-0.328966
C	 2.8676545303	-3.872748665	 3.7187604597	-0.333503
H	-1.5140877746	-1.2830856076	-1.634637087	 0.144133
H	-0.9399325033	-2.3460922094	-2.9589958442	 0.137274
H	-2.0264906809	-2.9851532569	-1.6846799849	 0.143051
H	 1.8000745784	-3.3053042426	 0.0980568483	 0.271175
H	-0.5070031047	-2.5631260053	 2.5793193878	 0.281959
H	 0.4704858973	-3.1051506304	 3.8988346618	 0.257554
H	 2.8479615692	-2.9192181701	 4.2708933114	 0.110221
H	 2.2138748267	-4.5777724094	 4.2608357213	 0.100785
H	 3.884130065	-4.2695055657	 3.7820682647	 0.123021
64.1181	94.5477	113.5494	150.2684	156.4671	164.7049	245.686	276.989	356.4758	380.8319	406.2534	419.8696	590.2938	634.2256	664.2722	726.259	750.3747	778.2257	924.6885	977.6302	1032.7558	1116.034	1130.5075	1140.7498	1182.8185	1203.2541	1217.0882	1257.4986	1412.3219	1441.1815	1464.4695	1482.9047	1494.9515	1498.6424	1506.4709	1532.0592	1626.3133	1751.6743	1795.6339	2950.2938	2995.3304	3054.1438	3096.4286	3129.7405	3161.022	3528.8646	3638.9667	3701.4736
COC(=O)NC(N)=NC	COC(=O)NC(=NC)N	
InChI=1S/C4H9N3O2/c1-6-3(5)7-4(8)9-2/h1-2H3,(H3,5,6,7,8)	InChI=1S/C4H9N3O2/c1-6-3(5)7-4(8)9-2/h1-2H3,(H3,5,6,7,8)
