19
gdb 62671	3.07462	1.39966	1.20338	0.7364	75.57	-0.2368	0.0742	0.311	1087.2203	0.157488	-422.971991	-422.963323	-422.962379	-423.00447	34.435	
C	-0.0249915553	 1.5727640176	-0.0008435765	-0.463899
C	 0.1010723777	 0.0693786262	 0.0905442805	 0.395018
O	-1.0692318316	-0.6136204396	-0.295597236	-0.475798
C	 1.3647260931	-0.7096966501	-0.2133166342	-0.121565
C	 2.6079476976	-0.0168646997	 0.2794976305	-0.142236
C	 3.2496993004	-0.8042264904	 1.4044374392	-0.340615
C	 2.0202025871	 0.0191513831	 1.6938019124	 0.38215
O	 2.0561634752	 1.1125838719	 2.5474874567	-0.467675
C	 0.7653350461	-0.6684744278	 1.2205567872	-0.182642
H	 0.8578945461	 2.081881901	 0.3875101583	 0.144619
H	-0.1691559651	 1.8825223614	-1.044258776	 0.098192
H	-0.8948725637	 1.9057442575	 0.5738472868	 0.124644
H	-1.2421107929	-0.3960977389	-1.2181477358	 0.280139
H	 1.3297093073	-1.5624733912	-0.8821678621	 0.086293
H	 3.1419961747	 0.7790864249	-0.226172209	 0.093609
H	 3.2211100601	-1.8906845211	 1.4051561046	 0.104573
H	 4.1668568502	-0.3688616392	 1.7903642318	 0.110795
H	 2.1156448231	 0.7887256235	 3.4527526428	 0.285554
H	 0.23430814	-1.4653019591	 1.7292100688	 0.088844
155.0541	174.6301	204.6975	227.462	267.2264	294.2041	363.8197	386.8949	407.9235	452.1695	505.7755	568.7326	621.3556	699.3064	791.2514	831.3708	885.2575	892.5562	910.3863	946.5139	975.0174	999.5983	1010.7509	1043.0944	1057.9573	1086.4781	1094.4958	1096.9179	1160.2006	1190.2364	1242.9406	1271.5404	1280.6358	1310.1217	1314.5469	1386.7653	1416.2555	1432.9704	1485.0795	1489.3094	1500.5033	3022.5512	3090.9449	3110.061	3145.2793	3170.094	3178.353	3181.826	3202.3046	3797.9129	3798.048
CC1(O)C2C3CC3(O)C12	C[C@@]1(O)[C@H]2[C@@H]3C[C@]3(O)[C@@H]12	
InChI=1S/C7H10O2/c1-6(8)4-3-2-7(3,9)5(4)6/h3-5,8-9H,2H2,1H3	InChI=1S/C7H10O2/c1-6(8)4-3-2-7(3,9)5(4)6/h3-5,8-9H,2H2,1H3/t3-,4-,5+,6+,7+/m0/s1
