17
gdb 35831	1.9768	1.70711	0.9602	1.0349	89.39	-0.2301	-0.0206	0.2095	1207.4983	0.13456	-347.505097	-347.496381	-347.495437	-347.538515	33.105	
C	-0.1011984349	-1.2379339713	-0.0752830043	-0.466152
C	-0.0336479683	-0.0384082205	-0.044223852	 0.332939
C	 0.0300342612	 1.4157901985	 0.013233245	-0.283054
C	-0.6277057421	 2.0192330026	 1.2906056456	-0.220361
C	 0.2000198806	 3.2828191557	 1.6198939558	-0.261325
C	 1.5144149712	 3.0196342121	 0.9365965295	-0.176686
C	 1.4507472182	 2.0046249522	 0.0632322383	 0.189195
C	 2.484764859	 1.5427379115	-0.7827481955	 0.231862
C	 3.3376221471	 1.1241545789	-1.5237879465	-0.413976
H	-0.1519549983	-2.2978648082	-0.1093658744	 0.194768
H	-0.4641229428	 1.8130875866	-0.8858854665	 0.116442
H	-1.6911813052	 2.2203899167	 1.1461590382	 0.108938
H	-0.5338443238	 1.2939523545	 2.1028739726	 0.123227
H	-0.2642169087	 4.1945048057	 1.2161758867	 0.115299
H	 0.3046814328	 3.4462735974	 2.698128708	 0.112816
H	 2.40085036	 3.6205317757	 1.1023544472	 0.104303
H	 4.0958984441	 0.7583391419	-2.1705638078	 0.191765
81.2057	105.1499	161.9475	187.2093	227.2129	354.0119	442.9605	466.8513	507.6758	554.87	592.149	613.3661	621.7688	637.973	638.5002	666.6882	803.5909	837.2114	886.4896	934.914	949.9559	1014.1348	1046.7457	1062.4396	1150.432	1184.9814	1226.5563	1259.3617	1291.1809	1302.7566	1327.6401	1353.3942	1481.0411	1497.7492	1673.681	2223.9977	2238.6638	2991.2598	3003.374	3056.1751	3073.0291	3120.0065	3205.3215	3504.1182	3505.4766
C#CC1CCC=C1C#C	C#C[C@H]1CCC=C1C#C	
InChI=1S/C9H8/c1-3-8-6-5-7-9(8)4-2/h1-2,6,9H,5,7H2	InChI=1S/C9H8/c1-3-8-6-5-7-9(8)4-2/h1-2,6,9H,5,7H2/t9-/m0/s1
