15
gdb 25022	4.17124	1.13354	0.95239	2.8368	70.42	-0.2209	0.0044	0.2253	1190.8549	0.11391	-453.931127	-453.923717	-453.922773	-453.96358	27.766	
N	-0.1906952698	 1.2075205575	 0.2715634461	-0.577275
C	-0.0370734114	-0.0280582645	 0.1191169235	 0.499255
O	 1.0920964071	-0.716074008	-0.2479879006	-0.216927
C	 0.7499503031	-2.059325407	-0.2835038651	-0.172073
C	-0.5298410935	-2.1948843459	 0.0589899197	 0.347184
O	-1.0455785037	-0.9308367784	 0.3124033685	-0.23978
C	-1.4308333128	-3.3380840997	 0.1905815414	-0.113452
C	-2.5540987628	-3.3017451772	 1.1706823031	-0.239392
N	-2.83160986	-3.2367038219	-0.2691055922	-0.319807
H	 0.6748978565	 1.7044864752	 0.0802819857	 0.239587
H	 1.5179707997	-2.7576190485	-0.5628647812	 0.165317
H	-0.9560744121	-4.2889561696	-0.0335198477	 0.107468
H	-2.857346395	-4.2241290958	 1.6571395889	 0.129478
H	-2.6704280943	-2.4011348512	 1.7655746653	 0.139263
H	-3.028394691	-2.2730703649	-0.5322913954	 0.251152
83.6481	128.9649	154.7733	231.6794	395.4349	421.1963	499.5254	628.5378	655.9674	726.1274	743.1451	757.3827	777.5207	819.2836	878.4924	917.2915	963.0541	979.0503	1002.8099	1017.7139	1094.3055	1106.9179	1134.4565	1174.4218	1201.9541	1257.3158	1283.6133	1299.0979	1353.1043	1412.2964	1505.5996	1735.5114	1816.0348	3119.3351	3154.7512	3211.7445	3307.9645	3499.3001	3551.5666
N=C1OC=C(O1)C1CN1	[NH][C@H]1OC=C(O1)[C@H]1CN1	
InChI=1S/C5H6N2O2/c6-5-8-2-4(9-5)3-1-7-3/h2-3,6-7H,1H2	InChI=1S/C5H7N2O2/c6-5-8-2-4(9-5)3-1-7-3/h2-3,5-7H,1H2/t3-,5+/m1/s1
