16
gdb 64617	2.86691	1.44491	1.34918	2.7332	72.99	-0.2708	-0.0291	0.2416	1007.3679	0.12434	-400.747225	-400.73946	-400.738516	-400.779303	29.749	
C	-0.0470610612	 1.5657026694	 0.0531353917	-0.426483
C	-0.0011056873	 0.0220234289	 0.0070644044	 0.051658
C	 0.7977371817	-0.5064622276	-1.1887824101	-0.10409
C	 1.8122450502	-1.2888568807	-0.8207167671	-0.090742
C	 1.8840173986	-1.3853561481	 0.6677609883	-0.004865
O	 2.1106946672	-0.0997798198	 1.3034540009	-0.255338
C	 0.7781565693	-0.5793018275	 1.2012494347	 0.010913
C	-1.3647103825	-0.5242194182	-0.0163166099	 0.251149
N	-2.4375644603	-0.9548804538	-0.0237102493	-0.335929
H	 0.9730189207	 1.9410539481	 0.1511910425	 0.151555
H	-0.4944124098	 1.9665662868	-0.8597406948	 0.134961
H	-0.6397386426	 1.909241833	 0.9048802492	 0.138707
H	 0.5467323698	-0.2078376529	-2.1995244322	 0.124174
H	 2.5218741978	-1.7616976096	-1.48746938	 0.120332
H	 2.3187339223	-2.2360719662	 1.181589153	 0.113876
H	 0.2593638662	-0.7809644516	 2.1337012786	 0.120122
122.4021	149.2045	214.7686	236.0913	261.975	389.5688	447.7356	496.0617	524.8401	582.1499	626.5885	752.2181	771.6072	821.2526	852.5307	868.4699	931.1266	959.5401	961.8513	991.4342	1039.4201	1100.6519	1107.8946	1134.4238	1188.6835	1208.1862	1254.4396	1294.147	1369.3099	1396.3948	1416.6117	1492.4607	1495.7159	1665.559	2351.1892	3053.425	3128.1803	3148.4928	3160.7536	3180.0993	3203.2663	3228.3556
CC1(C=CC2OC12)C#N	C[C@]1(C=C[C@H]2O[C@@H]12)C#N	
InChI=1S/C7H7NO/c1-7(4-8)3-2-5-6(7)9-5/h2-3,5-6H,1H3	InChI=1S/C7H7NO/c1-7(4-8)3-2-5-6(7)9-5/h2-3,5-6H,1H3/t5-,6-,7+/m1/s1
