17
gdb 126639	3.40105	1.05813	0.86371	2.3598	72.07	-0.2435	-0.0391	0.2043	1340.0736	0.135393	-451.288727	-451.279932	-451.278988	-451.32361	31.136	
C	 0.0406484754	 1.4753144194	 0.0073335219	-0.383045
C	 0.0172611767	-0.0547391371	 0.0136863892	-0.185122
C	-1.4149626327	-0.5983578164	-0.0048440144	-0.14142
N	-1.469959595	-2.0505674638	 0.0241502935	-0.063668
N	-1.5192905632	-2.805248261	-1.0843836421	-0.042832
N	-1.5128955941	-4.0176277885	-0.7920918918	-0.004712
O	-1.4430414224	-4.1270027687	 0.6369817038	-0.243085
C	-1.4060130081	-2.8608797341	 1.1469732777	 0.512335
N	-1.3344827492	-2.4621131524	 2.3448755247	-0.598138
H	 1.067997986	 1.848892401	 0.0259643198	 0.125491
H	-0.4442476307	 1.8794065867	-0.8881580889	 0.120365
H	-0.4779577159	 1.8838015863	 0.8812972232	 0.126319
H	 0.5568302418	-0.4471121606	-0.8560627015	 0.114648
H	 0.5218894845	-0.4374895876	 0.9071299501	 0.13228
H	-1.9673104183	-0.2549352592	 0.8747222029	 0.152581
H	-1.9516665719	-0.2757765961	-0.9008491692	 0.137626
H	-1.3117448629	-3.2418139682	 2.9963004809	 0.240377
36.6119	83.6083	85.9575	219.9578	237.0768	273.6641	285.8123	372.7326	483.2706	649.5287	711.9824	725.5577	732.2044	756.4405	758.9396	798.5675	881.0033	904.405	1000.4599	1041.8245	1048.3059	1109.1761	1126.4357	1225.9026	1236.9658	1313.599	1334.7648	1377.026	1404.7934	1411.1478	1418.0032	1468.8798	1492.2987	1501.5164	1508.4223	1524.4329	1781.8729	3034.5166	3040.4146	3067.1128	3077.5606	3102.7146	3114.6888	3124.7572	3545.7817
CCCN1N=NOC1=N	CCCN1N=NO[C@@H]1[NH]	
InChI=1S/C4H8N4O/c1-2-3-8-4(5)9-7-6-8/h5H,2-3H2,1H3	InChI=1S/C4H9N4O/c1-2-3-8-4(5)9-7-6-8/h4-5H,2-3H2,1H3/t4-/m1/s1
