19
gdb 26172	2.62066	1.33133	1.07107	0.218	78.78	-0.1777	0.0618	0.2395	1198.8983	0.159473	-419.222558	-419.213361	-419.212417	-419.256393	34.643	
C	 0.0755498762	 1.4125501326	-0.0956017855	-0.319999
N	-0.024730158	-0.0377545845	 0.0561459804	-0.183901
C	 0.8312960839	-0.5301291267	 1.1337231326	-0.319994
C	-1.3636533025	-0.5201259183	 0.1169815636	 0.136009
C	-1.8677814738	-1.3379216459	-0.8671123472	 0.338781
O	-1.2701967667	-1.8100048001	-1.9820254059	-0.44157
N	-3.1574676611	-1.6522796043	-0.5711089132	-0.306833
C	-3.5089530078	-1.0345335641	 0.6220494478	-0.094964
C	-2.422272504	-0.3302187023	 1.0700645073	-0.234902
H	 1.1153083553	 1.6904583429	-0.3026359041	 0.109746
H	-0.5453963057	 1.7361156664	-0.9343162652	 0.122312
H	-0.2485759139	 1.9645376478	 0.8042447348	 0.098314
H	 0.5617539223	-0.1180856693	 2.1221744855	 0.098307
H	 0.7597387385	-1.6189599291	 1.1888584953	 0.122312
H	 1.8732806773	-0.2580072147	 0.9302366049	 0.109749
H	-0.3745537204	-1.4394640511	-1.9456564825	 0.296788
H	-3.746664616	-2.2379317739	-1.1357522834	 0.265478
H	-4.4970598877	-1.1592308998	 1.0319142077	 0.113956
H	-2.3837284559	 0.2562124944	 1.9753414973	 0.090411
59.1809	145.4927	150.995	235.9684	240.9088	272.0248	299.5883	378.8801	415.1066	457.2	518.8282	519.1396	604.0408	630.8687	642.263	732.192	738.2512	813.0914	899.6011	957.2063	1053.1238	1075.024	1078.6661	1118.7402	1164.7398	1183.0827	1218.2673	1223.0669	1229.1509	1317.2402	1392.4944	1403.9922	1438.3349	1468.3802	1479.4619	1496.3443	1498.3618	1513.8578	1527.8485	1571.6969	1658.5801	2950.168	2955.8059	3053.1007	3056.0209	3114.2198	3116.9116	3245.5818	3277.9849	3690.4096	3719.0428
CN(C)C1=C(O)NC=C1	CN(C)c1c(O)[nH]cc1	
InChI=1S/C6H10N2O/c1-8(2)5-3-4-7-6(5)9/h3-4,7,9H,1-2H3	InChI=1S/C6H10N2O/c1-8(2)5-3-4-7-6(5)9/h3-4,7,9H,1-2H3
