17
gdb 105847	2.09916	1.63022	1.22989	3.3384	68.75	-0.2272	-0.0008	0.2264	1085.4314	0.13563	-455.114017	-455.105111	-455.104166	-455.14779	32.461	
C	 0.1418562591	 1.4227194313	-0.2726985888	-0.334718
N	-0.1560323351	 0.0258661265	 0.0639316516	-0.38062
C	 0.5504503807	-0.4775983092	 1.1728488353	 0.125111
C	 2.0307996788	-0.878998744	 1.0667641524	-0.026238
N	 3.0771444458	-0.2739310385	 1.8411617244	-0.5253
C	 1.0408365907	-1.8865412248	 1.543307491	-0.014004
O	 0.7694993751	-1.6411607938	 2.9499525192	-0.2779
C	 0.1924708296	-0.4035450706	 2.6435645112	 0.399979
O	-0.4141708317	 0.3059733393	 3.3773204723	-0.326504
H	 1.2072353398	 1.5166112498	-0.5015229163	 0.138841
H	-0.4239039688	 1.7000143098	-1.1662727091	 0.121564
H	-0.0977026009	 2.1335122251	 0.5310426257	 0.127356
H	-1.1547718435	-0.1045283664	 0.1830651223	 0.232152
H	 2.29353737	-0.995938376	 0.0176679683	 0.122216
H	 2.8581865146	-0.3410621944	 2.8317348394	 0.250824
H	 3.9407064361	-0.7915551631	 1.7036926652	 0.237756
H	 0.7691994296	-2.8562946711	 1.149481126	 0.129484
80.4763	122.9131	146.6069	171.9696	208.2096	265.1466	286.5704	358.9676	447.254	498.1478	639.2039	653.8881	718.9335	747.0448	786.6568	815.5619	878.5799	911.2267	942.8005	970.0623	1019.1908	1047.4933	1057.0979	1133.9158	1155.0808	1183.6884	1213.6718	1249.3553	1273.315	1369.1556	1453.9525	1481.5337	1483.5665	1494.7398	1522.9641	1663.1022	1931.2757	3001.9959	3082.9492	3120.0234	3151.148	3217.02	3487.477	3526.7441	3564.1429
CNC12C(N)C1OC2=O	CN[C@]12[C@@H](N)[C@H]1OC2=O	
InChI=1S/C5H8N2O2/c1-7-5-2(6)3(5)9-4(5)8/h2-3,7H,6H2,1H3	InChI=1S/C5H8N2O2/c1-7-5-2(6)3(5)9-4(5)8/h2-3,7H,6H2,1H3/t2-,3+,5+/m0/s1
