21
gdb 100160	3.88217	0.76758	0.76139	3.7079	76.83	-0.2637	0.0063	0.2701	1586.1782	0.178226	-461.379206	-461.368182	-461.367238	-461.41625	38.465	
C	 0.0900734346	 1.3063147762	-0.0789045822	-0.245686
O	-0.0587345086	-0.090600134	 0.0529902827	-0.282748
C	-1.3888708733	-0.6126429335	 0.1382921858	 0.34777
C	-2.1537814154	-0.0551615875	 1.3457498327	-0.431062
C	-2.1665470344	-0.3945934172	-1.1660689847	-0.433206
C	-1.0926067389	-2.1093751546	 0.3466835046	-0.108719
O	-2.3043126523	-2.8575078402	 0.4741533913	-0.180929
C	-2.5134405707	-3.8923721582	-0.3621458212	 0.175177
O	-3.4951433897	-4.5696521946	-0.3181944326	-0.274626
H	 1.1648214824	 1.4955376198	-0.1374404782	 0.13102
H	-0.3790619056	 1.697424711	-0.9920208495	 0.109547
H	-0.3114222303	 1.8564484677	 0.7826553776	 0.111506
H	-2.4429719018	 0.9884350241	 1.1952759617	 0.116837
H	-3.0650605769	-0.6362055628	 1.5073380095	 0.144066
H	-1.5376875918	-0.1191380192	 2.2479802687	 0.121431
H	-1.5837168467	-0.7468350488	-2.0230422078	 0.118021
H	-3.1148294982	-0.9376308097	-1.138727716	 0.138738
H	-2.3998413848	 0.662255326	-1.3202160288	 0.121241
H	-0.4953156686	-2.4802123156	-0.4943527356	 0.116166
H	-0.5152165703	-2.2397660787	 1.2662132692	 0.125416
H	-1.6817553188	-4.0364338903	-1.0792864973	 0.080041
42.4157	63.6358	71.4674	139.2307	180.4755	209.3302	250.5137	262.3054	296.2087	305.1059	364.7536	369.5102	399.7324	451.9163	554.5913	683.6373	746.5355	871.0061	906.2954	950.5589	996.5755	1026.0069	1046.4891	1058.744	1118.2045	1146.6276	1180.6665	1198.1073	1214.14	1242.0419	1293.5463	1316.1064	1380.8822	1393.4306	1411.5518	1431.5802	1476.1517	1481.6032	1482.8652	1495.8314	1500.8747	1504.6001	1512.9012	1518.0196	1866.6957	2947.7711	2998.3037	3037.0591	3040.2358	3046.9777	3052.0433	3098.3768	3111.7984	3114.445	3117.8776	3123.5721	3130.1301
COC(C)(C)COC=O	COC(C)(C)COC=O	
InChI=1S/C6H12O3/c1-6(2,8-3)4-9-5-7/h5H,4H2,1-3H3	InChI=1S/C6H12O3/c1-6(2,8-3)4-9-5-7/h5H,4H2,1-3H3
