18
gdb 86890	2.94962	1.2673	1.02972	4.2514	71.97	-0.2866	0.0158	0.3023	1193.2836	0.146864	-439.102525	-439.093591	-439.092647	-439.136592	32.58	
C	-0.2627597118	 1.5166501014	-0.0469383626	-0.400765
C	 0.1969634268	 0.06782312	-0.1241481355	 0.116021
O	 1.038785654	-0.0884614396	-1.2887991738	-0.269509
C	 2.3210575695	-0.4701468908	-0.8558221021	 0.053931
O	 2.4201153715	-0.1771602443	 0.5030021627	-0.239051
C	 1.1047846474	-0.4311360815	 1.0274652156	 0.082784
C	 0.9681843017	 0.2277067872	 2.3845337236	-0.421918
C	 2.5325449587	-1.930632864	-1.1102372208	 0.275271
N	 2.7110803277	-3.0541668302	-1.3103121592	-0.325692
H	 0.58527017	 2.1899025962	 0.1063569037	 0.131058
H	-0.7526792119	 1.7927321735	-0.9842185872	 0.134731
H	-0.9795714168	 1.6586830094	 0.7677196981	 0.120365
H	-0.6653263026	-0.5974873413	-0.2414919975	 0.09858
H	 3.0843252837	 0.0956476086	-1.3994942543	 0.138939
H	 0.9757546341	-1.518891152	 1.1280043367	 0.100156
H	 1.1406293147	 1.3045496185	 2.3248040468	 0.135419
H	-0.033148354	 0.053408465	 2.789548692	 0.129162
H	 1.6945821175	-0.2002192859	 3.0798832238	 0.140517
50.349	95.6207	181.8715	230.4437	257.4642	266.4591	271.6014	346.8137	382.2678	488.5736	538.7007	600.0116	692.5101	771.1936	813.1858	864.1227	888.0333	924.0971	1001.6337	1022.2264	1059.9212	1083.0435	1108.0068	1131.385	1165.202	1191.7965	1299.7416	1340.0249	1359.4006	1368.7958	1390.3013	1395.0411	1413.8595	1425.1223	1478.0359	1489.4667	1497.3375	1506.5059	2354.769	2996.9422	3044.0157	3050.071	3053.5401	3070.2614	3118.4015	3124.2502	3126.5372	3136.72
CC1OC(OC1C)C#N	C[C@H]1O[C@@H](O[C@H]1C)C#N	
InChI=1S/C6H9NO2/c1-4-5(2)9-6(3-7)8-4/h4-6H,1-2H3	InChI=1S/C6H9NO2/c1-4-5(2)9-6(3-7)8-4/h4-6H,1-2H3/t4-,5+,6+
