18
gdb 128856	5.69867	0.73066	0.70682	1.2099	75.22	-0.26	-0.0029	0.2571	1621.1463	0.148812	-435.257035	-435.248174	-435.24723	-435.292743	30.33	
C	-0.0018985574	 1.3678425555	 0.0091004044	-0.228967
O	-0.0200026148	-0.0410096199	 0.0025259002	-0.230366
C	-1.3214287816	-0.5735227765	 0.0116222337	-0.054668
C	-1.1779485882	-2.095729563	 0.0025857984	-0.16381
N	-2.4705241206	-2.7545021421	 0.0111848804	 0.146275
N	-3.1083584821	-3.0430917549	 1.141222794	-0.227964
C	-4.2651802234	-3.5617472346	 0.7241405057	-0.059837
C	-4.2768880991	-3.5572055804	-0.6768931987	-0.059865
N	-3.1271703391	-3.0358046475	-1.1098882897	-0.227913
H	 1.0449231558	 1.6799624305	 0.0014443904	 0.131092
H	-0.505721776	 1.7852956142	-0.8765692361	 0.108839
H	-0.4901382692	 1.7767940554	 0.9073742692	 0.108843
H	-1.8785895595	-0.257055248	 0.908413696	 0.10658
H	-1.8946955192	-0.2480087561	-0.8717023646	 0.10649
H	-0.6462583207	-2.4162264933	-0.8945437993	 0.147294
H	-0.6295922707	-2.4251735486	 0.8863688579	 0.147248
H	-5.004434255	-3.9082138034	 1.4283138719	 0.125364
H	-5.0278106093	-3.8991627873	-1.3708493137	 0.125366
25.3813	80.3378	86.9893	101.2424	230.2936	233.7353	341.8436	374.5753	449.0284	681.7505	697.8806	788.7492	806.0344	847.5685	896.1154	981.5668	991.8551	1003.6069	1066.6158	1073.6771	1099.8117	1167.7577	1175.9988	1204.3947	1231.3725	1233.6331	1289.0853	1297.1554	1343.5899	1373.2122	1405.0511	1426.8142	1445.6382	1476.4974	1482.6184	1486.5104	1504.4719	1505.2094	1534.1392	2964.6524	2978.0007	3002.7558	3021.4497	3093.1667	3118.8672	3153.7541	3264.439	3281.9029
COCCN1N=CC=N1	COCCn1nccn1	
InChI=1S/C5H9N3O/c1-9-5-4-8-6-2-3-7-8/h2-3H,4-5H2,1H3	InChI=1S/C5H9N3O/c1-9-5-4-8-6-2-3-7-8/h2-3H,4-5H2,1H3
