18
gdb 40734	4.83617	1.06863	0.9675	1.0948	72.02	-0.2452	0.0772	0.3224	1235.4953	0.14833	-439.026386	-439.018729	-439.017785	-439.059165	29.364	
C	 0.0236682414	 1.483773662	-0.0455912637	-0.236208
N	 1.199738397	 0.6020978252	-0.0396923578	-0.312366
C	-0.1442488476	 0.0118955149	 0.0209260933	-0.032072
C	-0.4939864257	-0.6652114609	 1.3125632405	 0.233913
O	-1.9028654258	-0.6206616846	 1.5227307144	-0.276914
C	-2.2239531071	-1.7798154653	 2.2550038053	 0.063405
C	-2.4011650488	-3.0437854212	 1.4425279187	-0.324998
C	-1.0711807779	-2.7129484738	 2.083950617	 0.061821
O	-0.1458340134	-2.0448285031	 1.2594702761	-0.27602
H	-0.0996432914	 2.0848296407	 0.8509872816	 0.125001
H	-0.2656817439	 1.9808995066	-0.9671999624	 0.116192
H	 1.5796197254	 0.5053433201	-0.9767522966	 0.237744
H	-0.5351743173	-0.4961263531	-0.8572551514	 0.092253
H	 0.0314430375	-0.1798008155	 2.1523950389	 0.076882
H	-2.753857007	-1.6089582299	 3.1855016727	 0.105167
H	-2.9863757272	-3.846073039	 1.8811648376	 0.114601
H	-2.4730200644	-2.9363586326	 0.3665049124	 0.125642
H	-0.6387191938	-3.3199454705	 2.8715858533	 0.105959
71.6113	87.2686	175.8891	300.8984	303.7608	415.5104	458.1891	482.9229	723.7988	736.0512	784.1712	804.8248	862.919	882.104	896.8304	929.0132	950.9186	999.0011	1003.3849	1010.0114	1015.3053	1065.7569	1076.5616	1099.3686	1113.1514	1120.1749	1145.6724	1151.2568	1200.3872	1234.6539	1252.3445	1281.4268	1300.3855	1345.7455	1361.6188	1371.0094	1457.5292	1476.7676	1519.1518	2966.6818	3112.6816	3130.8823	3144.5054	3165.1761	3174.5426	3197.2949	3231.7054	3518.3605
C1NC1C1OC2CC2O1	C1N[C@H]1[C@H]1O[C@H]2C[C@H]2O1	
InChI=1S/C6H9NO2/c1-4-5(1)9-6(8-4)3-2-7-3/h3-7H,1-2H2	InChI=1S/C6H9NO2/c1-4-5(1)9-6(8-4)3-2-7-3/h3-7H,1-2H2/t3-,4-,5+,6-/m1/s1
