12
gdb 133521	1.90491	1.68203	1.07906	1.5928	58.12	-0.2818	0.0139	0.2958	1065.1404	0.070739	-529.77959	-529.770838	-529.769894	-529.813546	31.298	
F	-0.0202813014	 0.0570996759	-0.0068993046	-0.06699
C	-0.0101571081	 1.3935307	 0.0034664048	 0.290588
F	 1.252639149	 1.8037822996	-0.0975910675	-0.061166
F	-0.6782802016	 1.8198846906	-1.0726760259	-0.066983
C	-0.6844083712	 1.920533685	 1.291474159	-0.506576
C	-0.007955839	 1.4006544821	 2.480866451	 0.334555
C	 0.5372814372	 0.9737816242	 3.4599392209	-0.422345
C	-0.7472474926	 3.3828910896	 1.282851989	 0.334528
C	-0.8078727752	 4.5805549496	 1.2801915554	-0.422319
H	-1.7062841232	 1.5178984959	 1.255896304	 0.165305
H	 1.0256830281	 0.5966783877	 4.3247039542	 0.210702
H	-0.855884352	 5.6417977399	 1.2761726198	 0.210701
58.7919	123.322	136.171	151.4966	317.9871	320.0138	338.2767	417.5048	450.1505	534.1886	560.0463	578.063	653.366	653.8407	676.5754	677.3803	717.053	844.3023	966.5655	1058.7249	1161.714	1219.2282	1264.1326	1302.5749	1333.1404	2252.2781	2257.0244	3022.0381	3502.034	3502.9255
FC(F)(F)C(C#C)C#C	FC(F)(F)C(C#C)C#C	
InChI=1S/C6H3F3/c1-3-5(4-2)6(7,8)9/h1-2,5H	InChI=1S/C6H3F3/c1-3-5(4-2)6(7,8)9/h1-2,5H
