16
gdb 125616	4.59141	0.86848	0.79833	1.5198	72.47	-0.2509	-0.0376	0.2133	1421.6452	0.124289	-434.113259	-434.104498	-434.103553	-434.148643	30.142	
C	-0.0307817481	 1.4906604354	-0.2209297673	-0.482481
C	 0.0098385756	 0.0101382379	-0.049327106	 0.337472
N	 0.2278481158	-0.8197779611	-1.0594292234	-0.256547
N	 0.1811543698	-2.0320166361	-0.4525095159	-0.238633
C	-0.0684747327	-1.8927774435	 0.8669535373	 0.336697
C	-0.1359128884	-3.026111324	 1.836645465	-0.39282
C	 1.13598603	-3.1148233459	 2.6810089822	 0.158328
O	 1.7376506292	-4.1355219761	 2.8772834247	-0.225753
N	-0.1781329388	-0.608930351	 1.1573456433	-0.341239
H	 0.7341394443	 1.9722200815	 0.3961819372	 0.140454
H	 0.1395406978	 1.7524275654	-1.2663499433	 0.14172
H	-1.0000336078	 1.8898074923	 0.0935736317	 0.140668
H	 0.3136239986	-2.870574417	-0.994082107	 0.281312
H	-0.9694520939	-2.8408688325	 2.5254105045	 0.161359
H	-0.2971133916	-3.9881085015	 1.3443555677	 0.129964
H	 1.4605293803	-2.1425494738	 3.1082312592	 0.1095
25.3709	61.673	108.1294	136.434	236.3736	279.6429	385.5122	405.334	455.8446	543.5024	643.2206	714.6522	726.0614	759.8541	837.6065	996.1532	1018.9452	1027.6605	1043.5524	1071.0759	1082.9284	1164.5458	1176.3595	1268.4525	1308.3975	1377.518	1409.8534	1410.3791	1450.7678	1469.7159	1478.1405	1481.2555	1541.1201	1581.7431	1839.4534	2917.9765	3043.3226	3048.1788	3104.5437	3117.0892	3146.617	3661.5029
CC1=NNC(CC=O)=N1	Cc1n[nH]c(CC=O)n1	
InChI=1S/C5H7N3O/c1-4-6-5(2-3-9)8-7-4/h3H,2H2,1H3,(H,6,7,8)	InChI=1S/C5H7N3O/c1-4-6-5(2-3-9)8-7-4/h3H,2H2,1H3,(H,6,7,8)
