17
gdb 32536	2.6116	1.33785	0.89475	0.0562	71.81	-0.2062	0.0336	0.2399	1279.2218	0.135165	-458.954347	-458.945565	-458.94462	-458.988103	31.762	
C	 0.0506960392	 1.3326471123	 0.0060178129	-0.250351
O	 0.024702977	-0.083009369	 0.0033043677	-0.256597
C	-1.2110933733	-0.6268821877	 0.011270475	 0.21211
C	-2.4462427109	-0.050536185	 0.0216863465	-0.139253
O	-3.4128277028	-1.0138975136	 0.0267379686	-0.159639
C	-2.7837680925	-2.2249310263	 0.0193473228	-0.139253
C	-1.432019006	-2.0501223747	 0.0097487605	 0.212108
O	-0.4192432629	-2.943008925	 0.0002467683	-0.256596
C	-0.8236217561	-4.2999324724	 0.0000175004	-0.250351
H	 1.1005276225	 1.6276909654	-0.0012328465	 0.137095
H	-0.4509683175	 1.7389923549	-0.882980989	 0.121742
H	-0.4376104975	 1.7353241151	 0.9040745223	 0.12174
H	-2.7898143599	 0.9686219595	 0.0265385698	 0.133335
H	-3.4201336382	-3.0919837391	 0.0222123072	 0.133335
H	-1.4112976459	-4.5374979875	 0.8974004503	 0.12174
H	-1.4245761676	-4.5332380473	-0.8896591298	 0.121742
H	 0.0873704125	-4.8993299598	-0.0081922769	 0.137094
79.8927	118.1013	158.8874	203.1881	230.0339	258.4748	297.7414	352.6962	416.9967	583.4568	590.3235	633.0101	643.143	709.4851	717.2468	749.8444	887.5862	1053.7098	1068.4522	1088.8641	1181.9493	1182.1409	1188.7431	1220.1414	1227.0842	1249.876	1267.7645	1340.5224	1431.9889	1474.581	1478.6001	1485.3662	1485.4532	1507.3925	1508.7235	1622.945	1672.8885	2996.7002	2997.5712	3052.2618	3052.4744	3141.1996	3141.3981	3288.2601	3293.5148
COC1=COC=C1OC	COc1cocc1OC	
InChI=1S/C6H8O3/c1-7-5-3-9-4-6(5)8-2/h3-4H,1-2H3	InChI=1S/C6H8O3/c1-7-5-3-9-4-6(5)8-2/h3-4H,1-2H3
