17
gdb 28462	3.14974	1.34632	0.94949	1.6472	80.86	-0.2051	0.0043	0.2094	1201.2478	0.137559	-418.085825	-418.077498	-418.076554	-418.118221	32.381	
C	 0.0396516162	 1.5076741579	 0.0380770705	-0.543299
C	 0.0156975363	 0.0020681886	 0.0304294967	 0.141664
C	-0.06604279	-0.7366738791	-1.143483291	-0.06318
N	-0.0868617644	-2.0681106351	-1.2273409109	-0.356541
C	-0.0326353395	-2.7527756474	-0.0777043829	 0.386542
N	-0.1162672416	-4.1301202223	-0.1863122482	-0.56777
C	 0.0534073457	-2.1304140602	 1.1749020499	-0.2836
C	 0.0793866936	-0.7458930866	 1.221140535	 0.340001
O	 0.1658304277	-0.1568659148	 2.4415043887	-0.433396
H	 0.95940306	 1.9114963904	 0.484061337	 0.126772
H	-0.0152701063	 1.8960057274	-0.9821748728	 0.137749
H	-0.8078811653	 1.9385827435	 0.5892602435	 0.127749
H	-0.1141972015	-0.2057780026	-2.0936820088	 0.095452
H	 0.0859211117	-4.4671174489	-1.1160087313	 0.252056
H	 0.3137368737	-4.6685329257	 0.5492718413	 0.247642
H	 0.09153567	-2.7011560935	 2.0953605914	 0.091561
H	 0.1701334536	 0.7995753284	 2.3317363818	 0.300597
132.8296	160.4719	218.2138	285.6224	313.0029	329.0909	377.1592	393.1445	452.2118	472.7992	531.0791	564.1421	571.5483	696.791	762.6141	769.1822	788.9066	862.4945	954.3647	969.4453	1015.8149	1062.1378	1094.2789	1174.702	1203.4646	1278.9568	1337.8099	1348.5196	1364.5839	1412.4139	1470.8479	1486.467	1508.1681	1532.896	1610.3981	1633.4337	1675.9474	2998.9575	3040.2603	3109.7447	3129.5863	3195.9442	3576.1393	3689.9299	3824.7271
CC1=CN=C(N)C=C1O	Cc1cnc(N)cc1O	
InChI=1S/C6H8N2O/c1-4-3-8-6(7)2-5(4)9/h2-3H,1H3,(H3,7,8,9)	InChI=1S/C6H8N2O/c1-4-3-8-6(7)2-5(4)9/h2-3H,1H3,(H3,7,8,9)
