18
gdb 46933	2.87862	1.8357	1.40687	3.5501	76.77	-0.2463	0.0262	0.2725	951.9651	0.15111	-401.938304	-401.93153	-401.930586	-401.969386	27.725	
N	-0.0938021161	 1.2699901007	 0.18658027	-0.529721
C	 0.0090756222	 0.0241203232	-0.0271733632	 0.381836
O	 1.2300421447	-0.5583616173	-0.2296558302	-0.260818
C	 1.3153301451	-1.8555985994	-0.8413927625	-0.087472
C	 0.2212531083	-2.7915845524	-0.3672281091	-0.050992
C	-0.0610861745	-2.7593555944	 1.1745794082	-0.251905
C	-1.3855349251	-2.0542406051	 0.8816451268	-0.067451
C	-1.1918582287	-2.2271698012	-0.6148080278	-0.109391
C	-1.1982155741	-0.8437938992	-0.0262061918	-0.072631
H	 0.8299548743	 1.7058201238	 0.1395382239	 0.214304
H	 1.2784871799	-1.7399298399	-1.934013143	 0.108312
H	 2.3084952466	-2.2271499842	-0.571618208	 0.116426
H	 0.383735847	-3.7952072205	-0.764382148	 0.083898
H	-0.2149238343	-3.7651002935	 1.5716784815	 0.107944
H	 0.6621734405	-2.2331679057	 1.8039493966	 0.113135
H	-2.2947631291	-2.1408567852	 1.4636772364	 0.096392
H	-1.8868216717	-2.5409681709	-1.3835563782	 0.091957
H	-2.107098475	-0.2702550389	-0.1608637019	 0.116177
108.3863	201.4489	324.2158	331.1934	411.4545	491.0196	541.0295	648.4196	697.221	773.18	793.3504	804.9393	832.096	853.1957	898.8821	907.6194	968.7588	980.5693	1005.756	1012.4315	1044.4708	1068.1346	1079.8775	1095.4771	1126.6242	1146.4177	1174.3417	1216.1991	1255.8333	1277.1201	1298.4538	1312.2802	1327.5006	1355.2821	1406.3158	1437.1618	1492.3664	1505.1803	1738.4607	3006.9559	3058.9608	3080.6962	3093.9679	3114.1161	3182.9843	3189.0685	3201.5086	3458.6855
N=C1OCC2CC3C2C13	[NH][C]1OC[C@H]2C[C@@H]3[C@H]2[C@H]13	
InChI=1S/C7H9NO/c8-7-6-4-1-3(2-9-7)5(4)6/h3-6,8H,1-2H2	InChI=1S/C7H9NO/c8-7-6-4-1-3(2-9-7)5(4)6/h3-6,8H,1-2H2/t3-,4-,5+,6-/m1/s1
