18
gdb 13621	3.94629	1.15395	1.04195	1.3631	64.58	-0.2611	0.0548	0.316	1172.6063	0.151814	-422.048282	-422.039226	-422.038282	-422.082455	32.506	
C	 0.3451774808	 1.6227080531	-0.3715910541	-0.419705
C	 0.1493631522	 0.1616200896	-0.063233803	 0.080855
O	 1.3188741048	-0.6626631551	 0.0486823287	-0.270683
C	 0.493207588	-0.4966107666	 1.2068148615	 0.056036
C	 1.126957419	 0.1905211048	 2.3930751203	 0.085535
O	 0.0935007134	 0.5386558953	 3.2953308801	-0.445363
C	 2.1325265375	-0.7326087697	 3.090711906	-0.100897
O	 2.545469787	-0.1631116068	 4.3316475594	-0.424206
H	 1.1509873805	 2.0629216308	 0.2186602825	 0.127681
H	 0.5921733051	 1.7525100163	-1.4304540188	 0.12856
H	-0.5775022867	 2.176986306	-0.1704113658	 0.130473
H	-0.6502878139	-0.3116091307	-0.6371793276	 0.091125
H	-0.0832244438	-1.3819559198	 1.4845489402	 0.09236
H	 1.6690591937	 1.0885514036	 2.051793531	 0.054633
H	 0.5203602696	 0.5966695875	 4.1613578928	 0.289468
H	 1.6448017448	-1.6782999532	 3.3494410863	 0.118433
H	 2.9818262352	-0.948073118	 2.430509917	 0.115535
H	 3.1413047327	 0.569029563	 4.1392184136	 0.290161
46.7656	111.2377	125.5715	173.5234	225.0941	271.8113	340.8816	391.1196	413.4314	422.3921	530.8409	544.4384	586.4159	784.5369	852.6433	893.4063	972.6339	989.2055	1011.6974	1074.662	1090.5943	1100.9779	1133.4396	1166.8037	1174.3469	1210.4429	1280.9342	1295.4345	1347.5928	1361.3884	1380.2948	1407.2359	1418.314	1440.137	1476.055	1491.6613	1494.8426	1518.6992	2959.3445	3029.1851	3042.1021	3079.1047	3088.8434	3094.4176	3103.678	3135.0439	3747.0631	3808.5029
CC1OC1C(O)CO	C[C@H]1O[C@H]1[C@@H](O)CO	
InChI=1S/C5H10O3/c1-3-5(8-3)4(7)2-6/h3-7H,2H2,1H3	InChI=1S/C5H10O3/c1-3-5(8-3)4(7)2-6/h3-7H,2H2,1H3/t3-,4+,5-/m1/s1
