18
gdb 76136	2.27439	1.38114	1.15392	13.997	70.66	-0.1896	-0.0334	0.1562	1135.6626	0.145981	-476.177957	-476.168787	-476.167843	-476.211846	33.758	
C	 0.0946641207	 1.5823440032	-0.1552971143	-0.471837
C	 0.0970975898	 0.0875431707	-0.012666027	 0.14295
N	-1.1826800633	-0.5219002792	-0.5426656282	-0.433184
H	-1.3846048189	-0.1966396002	-1.4934177683	 0.319892
H	-1.1054710841	-1.5419048828	-0.560481644	 0.325965
H	-1.9804986671	-0.2810761809	 0.055951876	 0.326312
C	 1.3340227303	-0.7889724426	-0.1807426965	 0.12086
O	 2.5419681376	-0.201773352	-0.3867342567	-0.435787
C	 0.6576305782	-0.6656922316	 1.176067024	-0.301928
C	 1.3603975882	 0.1544657908	 2.3051725967	 0.412159
O	 2.3591276763	 0.8266921102	 1.8953325854	-0.502196
O	 0.8641233515	 0.0644015911	 3.4205284329	-0.43265
H	 1.0226279709	 1.9534553913	 0.2829245232	 0.210169
H	 0.0531087831	 1.891584229	-1.2074053911	 0.111877
H	-0.7369852585	 2.0464833014	 0.3895166684	 0.122748
H	 1.1896306625	-1.7181050102	-0.7418463226	 0.069008
H	 2.7100861593	 0.2875686807	 0.5024510407	 0.335603
H	 0.0731192935	-1.505270149	 1.5461238913	 0.080038
71.0899	152.8427	169.1771	193.4059	208.0863	249.1981	314.4263	335.0579	373.1619	408.7976	489.5154	536.0511	655.5898	768.6492	796.9447	813.6281	849.1865	871.1406	944.8818	981.733	1002.5328	1026.3443	1036.6361	1094.8917	1134.6586	1171.2534	1236.0415	1259.5991	1273.347	1353.7617	1405.7446	1421.3807	1461.19	1482.1114	1496.342	1588.0637	1635.3881	1650.5861	1793.3799	2665.6656	3014.3225	3042.2066	3074.1738	3129.6713	3145.7139	3368.613	3446.8468	3485.4408
CC1([NH3+])C(O)C1C([O-])=O	C[C@@]1([NH3])[C@@H](O)[C@H]1C(=O)[O]	
InChI=1S/C5H9NO3/c1-5(6)2(3(5)7)4(8)9/h2-3,7H,6H2,1H3,(H,8,9)	InChI=1S/C5H9NO3/c1-5(6)2(3(5)7)4(8)9/h2-3,7H,1,6H3/t2-,3-,5-/m0/s1
