18
gdb 107095	2.53679	1.35915	1.05876	1.8215	78.21	-0.2443	0.0288	0.2731	1173.3133	0.146604	-401.861065	-401.8524	-401.851456	-401.894549	33.103	
O	 0.2827982534	 0.3769247235	-1.0493002978	-0.416031
C	-0.22097065	 0.3023248701	 0.2727262249	-0.157923
C	-1.5706172935	-0.3538886387	 0.312121222	 0.314058
C	-1.9928660467	-1.3306022543	 1.3321642512	-0.286903
N	-1.6905939987	-1.8415882647	-0.0220537844	-0.177466
C	-2.9210631451	-1.507918041	-0.8540296129	-0.139625
C	-2.7315836427	 0.0222599624	-0.6062898073	-0.320857
C	-2.7874347681	-1.9414938019	-2.229820797	 0.311355
C	-2.6745411454	-2.2790846622	-3.3779392805	-0.417639
H	 0.2652590129	-0.5224505721	-1.3991329754	 0.293568
H	 0.4658553077	-0.2423037934	 0.9394084076	 0.093736
H	-0.2856058998	 1.3348887943	 0.6355010422	 0.114251
H	-1.2610699413	-1.6458417069	 2.0697161414	 0.124622
H	-3.0232016092	-1.3436378822	 1.6834768718	 0.113365
H	-3.8300159373	-1.9344426158	-0.4141364372	 0.106411
H	-3.5670870366	 0.5663549033	-0.1585522203	 0.105786
H	-2.3924452941	 0.5365624336	-1.5048793823	 0.140284
H	-2.5790718852	-2.5869956639	-4.3898198961	 0.199008
67.8731	100.5251	167.7595	204.7844	284.4228	319.0404	441.9731	449.1297	482.4801	504.8324	540.1743	619.1942	642.1703	658.5084	725.5006	793.3229	849.3627	881.4551	938.6319	960.5549	981.4944	1047.9805	1073.3519	1079.3201	1114.2651	1128.0552	1154.2861	1198.8254	1230.6255	1247.4066	1316.2217	1349.1523	1358.5631	1403.0316	1435.1511	1482.3175	1491.1305	1507.1917	2238.9178	2984.6603	3035.3685	3062.6108	3069.0111	3099.5764	3148.2989	3194.7094	3503.7892	3784.5144
OCC12CN1C(C2)C#C	OC[C@]12CN1[C@@H](C2)C#C	
InChI=1S/C7H9NO/c1-2-6-3-7(5-9)4-8(6)7/h1,6,9H,3-5H2	InChI=1S/C7H9NO/c1-2-6-3-7(5-9)4-8(6)7/h1,6,9H,3-5H2/t6-,7+,8?/m1/s1
