17
gdb 56563	2.83206	1.17416	0.87061	6.1104	71.15	-0.2367	0.0058	0.2425	1273.2458	0.135179	-455.131574	-455.122029	-455.121085	-455.165935	35.243	
N	-0.2860815566	 1.3895375352	 0.0395840039	-0.525185
C	-0.0334580086	-0.0299778049	 0.0062135073	-0.082598
C	 0.6462681175	-0.5737729001	-1.3025317902	-0.217236
N	 0.5520646623	-2.0537179533	-1.289169119	-0.518799
H	 1.1788646027	-2.454938592	-1.9799009258	 0.256211
H	 0.8865595952	-2.159027152	 0.4766412533	 0.31227
H	-0.3901502961	-2.3322227104	-1.5516414686	 0.253039
C	 0.0601300075	 0.0191369066	-2.5042156141	 0.309053
C	-0.4508215793	 0.4801309305	-3.4908516044	-0.423693
C	 0.8274372772	-0.4195362666	 1.2297158016	 0.413506
O	 1.1997912308	 0.3918765095	 2.0368914688	-0.32956
O	 1.1325714813	-1.7158695005	 1.3278269309	-0.373681
H	 0.438366688	 1.850783102	 0.5791229953	 0.247919
H	-0.3510558917	 1.787000931	-0.8891708389	 0.232847
H	-0.9820766897	-0.5866465414	 0.092439763	 0.101624
H	 1.7122132395	-0.3173564857	-1.2661250763	 0.133832
H	-0.8910652998	 0.8896223523	-4.3670211567	 0.210451
74.7316	94.4944	141.027	206.9496	239.9357	265.0548	313.4299	338.3908	353.6213	413.2974	478.1418	538.5507	587.8709	635.0589	646.973	671.0227	717.6152	805.1293	855.028	895.8173	929.9986	936.9048	1042.6137	1089.9908	1139.6035	1200.7721	1211.3835	1266.3922	1292.8746	1363.552	1381.7819	1390.7777	1483.3557	1621.2346	1648.8212	1856.2931	2226.9922	2957.0811	3039.662	3287.4453	3493.4525	3498.6397	3515.8094	3574.7878	3614.2045
NC(C([NH3+])C#C)C([O-])=O	N[C@@H]([C@@H](N)C#C)C(=O)O	
InChI=1S/C5H8N2O2/c1-2-3(6)4(7)5(8)9/h1,3-4H,6-7H2,(H,8,9)	InChI=1S/C5H8N2O2/c1-2-3(6)4(7)5(8)9/h1,3-4H,6-7H2,(H,8,9)/t3-,4-/m0/s1
