18
gdb 37517	3.73232	2.02162	1.77733	0.8699	81.1	-0.2024	-0.0473	0.1551	823.5494	0.150356	-364.681858	-364.676025	-364.675081	-364.711442	26.174	
C	-0.0794485716	 1.4365289519	 0.0648939779	-0.228689
C	 1.4466800275	 1.5243059682	-0.0170609778	-0.053986
C	 1.6161595107	 0.2376938194	 0.8374809861	-0.109905
C	 0.1701663963	-0.0845940052	 0.0230904187	-0.005268
N	 0.6313397531	-0.2822848043	-1.3846563059	-0.098384
C	 1.281320154	-1.6124755221	-1.6665244352	-0.203383
C	 2.366464095	-1.7030688335	-0.5844239918	-0.128198
C	 2.5251392484	-0.4326182088	-0.1702480818	 0.049206
C	 1.8546755335	 0.5519883995	-1.1791069681	-0.04739
H	-0.453776692	 1.768279454	 1.037330162	 0.098442
H	-0.6849359167	 1.8518273695	-0.7441360034	 0.105734
H	 2.0294218901	 2.4326635916	 0.1262036193	 0.07105
H	 1.6092622202	 0.1749377676	 1.9242334356	 0.075603
H	-0.5479840184	-0.8228929887	 0.3804634979	 0.068371
H	 0.5752068524	-2.4431223663	-1.5624854746	 0.114121
H	 1.617254836	-1.5911188924	-2.7102506476	 0.119868
H	 2.4658974506	-2.5793319424	 0.0494117365	 0.101816
H	 2.346990281	 0.8902853821	-2.0911299379	 0.070993
319.265	333.4643	401.5201	432.0824	530.0722	594.9295	673.3457	689.3669	751.7553	774.5653	827.1475	847.217	850.6857	888.3492	899.1346	936.787	937.4926	976.4577	982.8585	988.2897	1020.3092	1039.4943	1057.386	1079.7963	1105.7483	1145.4368	1155.1443	1177.9741	1211.7241	1228.8639	1235.5127	1240.7471	1271.0163	1288.5561	1299.6985	1318.1017	1467.0055	1486.5085	1583.9412	3030.3199	3058.7836	3082.0395	3111.5468	3117.3057	3119.2477	3127.7731	3136.9414	3166.9402
C1C2C3C1N1CC=C3C21	C1[C@H]2[C@H]3[C@@H]1N1C[CH][C]3[C@H]21	
InChI=1S/C8H9N/c1-2-9-6-3-5-7(6)4(1)8(5)9/h1,5-8H,2-3H2	InChI=1S/C8H9N/c1-2-9-6-3-5-7(6)4(1)8(5)9/h1,5-8H,2-3H2/t5-,6+,7-,8+/m0/s1
