16
gdb 12467	3.50493	1.8808	1.28746	2.9974	68.86	-0.2424	-0.0536	0.1888	917.1144	0.13167	-383.757548	-383.750478	-383.749533	-383.789211	26.465	
O	-0.0146771772	 0.6526287947	 1.4274571937	-0.324908
C	-0.057537876	 1.3821822379	 0.4541367336	 0.357328
C	-1.403971855	 1.9080575035	-0.0288079917	-0.296986
C	-1.5233337875	 2.2701688149	-1.5058872978	-0.108929
O	-0.7834651336	 3.4398493538	-1.8139256181	-0.235906
C	 0.5357356204	 3.2203245783	-2.2331903671	-0.133356
C	 1.4532421394	 2.4616610539	-1.3208382973	-0.046986
C	 1.2152938856	 1.7303275843	-0.2246097815	-0.15218
H	-2.1520459793	 1.1593733422	 0.2505003096	 0.124305
H	-1.627511978	 2.810389857	 0.5552793267	 0.139351
H	-1.2191757369	 1.433280944	-2.1523574389	 0.10017
H	-2.5687994613	 2.50007114	-1.7358964808	 0.116828
H	 0.556991869	 2.710653377	-3.216795536	 0.109919
H	 0.9639992428	 4.2163570692	-2.4036398644	 0.130994
H	 2.4897346451	 2.5191854704	-1.6551045826	 0.111581
H	 2.0606552927	 1.2598269891	 0.2707718526	 0.108774
63.8778	155.6266	262.3907	338.241	365.8913	391.3852	493.3618	501.4841	637.1932	690.8382	748.3304	826.4713	866.498	910.3112	946.504	1009.4657	1034.7841	1049.2488	1085.4422	1167.5052	1200.5469	1230.6925	1280.4316	1303.5953	1317.686	1366.4765	1397.8238	1414.3271	1419.2971	1441.4712	1467.6293	1502.5532	1701.95	1753.3056	2916.9581	2996.39	3035.0105	3044.3626	3074.0524	3091.9127	3125.2011	3170.1158
O=C1CCOCC=C1	O=C1CCOCC=C1	
InChI=1S/C6H8O2/c7-6-2-1-4-8-5-3-6/h1-2H,3-5H2	InChI=1S/C6H8O2/c7-6-2-1-4-8-5-3-6/h1-2H,3-5H2
