14
gdb 37107	3.88458	1.76583	1.693	1.1077	62.87	-0.2185	-0.0042	0.2144	808.2325	0.101528	-436.581896	-436.575886	-436.574942	-436.611862	24.936	
C	 0.0195237802	 1.4512463853	-0.0356562473	-0.370151
C	 1.3558080641	 0.7680880916	 0.0049674204	 0.231028
O	 1.958562534	 0.4797004837	 1.2491269641	-0.239103
C	 1.0816256353	-0.3626790005	 1.8900232509	 0.088854
N	 0.0169760732	-0.7287723958	 1.2935852434	-0.296226
C	 0.0238930875	-0.048087153	 0.0245925445	 0.179624
C	 0.4886090054	-0.7697162365	-1.2759236957	-0.021186
O	 0.7576107063	 0.2366650632	-2.2565007476	-0.223818
C	 1.7576926249	-0.0302220923	-1.2723539997	-0.038526
H	-0.2788430048	 1.9575211551	 0.8751911988	 0.139887
H	-0.2714441644	 1.933612511	-0.9594396277	 0.154569
H	 1.376733815	-0.6366950916	 2.8967743242	 0.151571
H	 0.2080326912	-1.759188909	-1.6165039347	 0.122131
H	 2.7603232221	-0.2694727313	-1.6063884837	 0.121345
246.1315	297.5763	361.9839	403.1872	464.1583	531.2102	562.9768	644.12	664.6388	835.9917	839.4128	849.2209	851.078	906.4405	916.6581	922.2219	957.3308	1015.6463	1031.5117	1047.4201	1105.4072	1145.7447	1171.6452	1180.5003	1259.8313	1269.2536	1301.2071	1329.5549	1373.0058	1439.5073	1634.3511	3152.9826	3182.8401	3198.2646	3221.6804	3250.8137
C1C23OC=NC12C1OC31	C1[C@@]23OC=N[C@@]12[C@H]1O[C@@H]31	
InChI=1S/C6H5NO2/c1-5-3-4(9-3)6(1,5)8-2-7-5/h2-4H,1H2	InChI=1S/C6H5NO2/c1-5-3-4(9-3)6(1,5)8-2-7-5/h2-4H,1H2/t3-,4+,5+,6-/m0/s1
