19
gdb 31971	3.0001	1.11798	0.86468	1.7258	81.86	-0.1733	0.0394	0.2127	1374.7118	0.15952	-419.217972	-419.208456	-419.207512	-419.253171	34.153	
C	 0.240110746	 1.2858949608	 0.207774872	-0.325123
N	-0.3976490351	 0.0912721682	-0.3569516358	-0.385125
C	 0.3961681672	-0.7018214838	-1.1737228916	 0.305011
C	 0.9466453771	-1.9302346272	-1.0169655496	-0.188947
C	 1.7236315625	-2.2126482462	-2.190465614	-0.298023
C	 1.5751595108	-1.1238488772	-3.0021408505	 0.417895
N	 1.9909166359	-0.8512482732	-4.2941669921	-0.386445
C	 2.3679182583	 0.5186162293	-4.6317707936	-0.329049
O	 0.7889134625	-0.1906403766	-2.4186939712	-0.21243
H	 1.1006535864	 0.9770397771	 0.8079342807	 0.130177
H	 0.589642333	 2.0042327884	-0.5486754514	 0.110392
H	-0.4716361396	 1.7930127899	 0.8662561626	 0.115177
H	-1.2764375272	 0.3331993623	-0.8024096571	 0.229115
H	 0.8134523491	-2.5619977433	-0.1527941709	 0.103275
H	 2.2997073265	-3.0991111633	-2.4028559442	 0.08902
H	 2.6608987158	-1.5372152088	-4.6117537091	 0.240474
H	 3.2248266164	 0.8959327112	-4.0527500879	 0.112348
H	 2.6156938961	 0.5612717979	-5.6949816379	 0.123126
H	 1.5188466583	 1.1808545046	-4.4530559284	 0.149132
57.6428	61.2802	125.1946	162.2541	172.8201	204.163	274.877	385.4892	411.8049	492.7016	579.063	623.7766	640.0158	698.0326	735.2289	746.7021	758.5421	842.807	944.6406	979.9331	1016.8198	1049.9425	1072.4485	1145.266	1148.9168	1151.3892	1169.1752	1182.4901	1261.5276	1311.185	1391.5965	1447.7773	1451.0468	1469.918	1486.0091	1490.0929	1492.7917	1516.2387	1519.9057	1642.9113	1683.2143	2985.3367	2992.1378	3074.5718	3094.032	3114.8363	3137.6959	3250.3568	3264.5715	3512.9543	3597.0425
CNC1=CC=C(NC)O1	CNc1ccc(NC)o1	
InChI=1S/C6H10N2O/c1-7-5-3-4-6(8-2)9-5/h3-4,7-8H,1-2H3	InChI=1S/C6H10N2O/c1-7-5-3-4-6(8-2)9-5/h3-4,7-8H,1-2H3
