19
gdb 85742	3.29978	1.19292	1.01854	5.1235	79.42	-0.2537	0.0406	0.2943	1209.4052	0.161446	-382.080402	-382.072218	-382.071273	-382.113181	31.502	
C	 0.0334097747	 1.5672939209	 0.0161400245	-0.406217
C	 0.0358625234	 0.0379301651	 0.0191145731	 0.025005
C	 0.7782980818	-0.578576568	-1.1934026114	-0.244135
C	 1.2618804171	-1.9786593936	-0.7145267723	-0.148484
C	 2.4317185677	-2.4745366906	-1.4369231153	 0.276649
N	 3.3540900844	-2.8755123023	-2.0065334737	-0.330428
C	 1.485711433	-1.7902902222	 0.7861085898	-0.051761
N	 2.2105508147	-0.5478880363	 1.1022127144	-0.325477
C	 0.7368797078	-0.5882203777	 1.2173408119	-0.044818
H	 1.0577475183	 1.9471071131	 0.0800656587	 0.136145
H	-0.4214205368	 1.9610785405	-0.8984601007	 0.116876
H	-0.5314039455	 1.9649503125	 0.8658588702	 0.111856
H	-1.0014656441	-0.3247845751	 0.026290143	 0.076323
H	 0.1508126658	-0.648291899	-2.084218216	 0.111761
H	 1.6484319351	 0.0320479511	-1.4407364844	 0.14185
H	 0.4577672128	-2.7144305118	-0.842869926	 0.12277
H	 1.6146927724	-2.6635775978	 1.415957908	 0.102522
H	 2.6344708742	-0.6301619689	 2.0220399379	 0.23904
H	 0.2834148034	-0.5277230899	 2.2020200583	 0.090524
90.9325	134.103	175.4235	235.0913	277.9578	329.1216	385.0886	458.7791	546.2546	557.9398	597.9913	653.9016	807.6767	831.5879	869.0959	890.3844	906.6795	934.3473	947.8272	1018.8641	1031.2372	1050.3384	1065.4072	1113.3317	1119.3935	1140.6315	1182.87	1226.1815	1251.9837	1278.7196	1306.7354	1328.2561	1346.4001	1354.609	1386.2333	1408.5469	1427.5291	1487.6818	1497.6975	1502.6406	2357.6103	3010.0864	3033.8755	3034.131	3081.3874	3100.1116	3112.2267	3131.6211	3156.824	3176.0766	3517.3718
CC1CC(C#N)C2NC12	C[C@H]1C[C@@H](C#N)[C@H]2N[C@@H]12	
InChI=1S/C7H10N2/c1-4-2-5(3-8)7-6(4)9-7/h4-7,9H,2H2,1H3	InChI=1S/C7H10N2/c1-4-2-5(3-8)7-6(4)9-7/h4-7,9H,2H2,1H3/t4-,5-,6-,7+/m0/s1
