20
gdb 84146	2.32687	1.33483	0.90356	4.1372	83.62	-0.2334	0.0119	0.2453	1321.4486	0.170464	-403.198505	-403.189175	-403.188231	-403.232791	34.142	
C	-0.0361725421	 1.6361147571	 0.0204158241	-0.384172
C	-0.0088070082	 0.0995772757	 0.0117663879	-0.014245
C	 0.7320696526	-0.4760394972	-1.1684055648	-0.185953
C	 1.791907156	-1.2000095384	-0.8101372874	 0.303455
C	 2.775063623	-1.8997133063	-1.6911697919	-0.489727
C	 1.9140056011	-1.2476728717	 0.6931563798	-0.244425
N	 0.7554573621	-0.472855336	 1.1337856629	-0.058206
C	 0.356390527	-0.4699204163	 2.4269463144	 0.139941
O	 0.9555406119	-1.010168561	 3.3366298139	-0.345217
H	 0.9809585128	 2.0375395345	-0.004444112	 0.12495
H	-0.5791574227	 2.0096461562	-0.8541207688	 0.118364
H	-0.5385079821	 2.0162507184	 0.9149910255	 0.123306
H	-1.0470629605	-0.2651628055	 0.0413586683	 0.095533
H	 0.4171030996	-0.2770364008	-2.1860402917	 0.098719
H	 2.5379261032	-1.7583743956	-2.7485115609	 0.12896
H	 3.7936834892	-1.5314005932	-1.5165734704	 0.133496
H	 2.7936210071	-2.9770669347	-1.485118925	 0.13432
H	 1.8742051824	-2.2680463838	 1.0977323933	 0.130189
H	 2.8567521358	-0.8108354191	 1.0533264496	 0.123329
H	-0.5920640681	 0.0852795778	 2.5746395729	 0.067384
65.8697	125.1195	167.2936	179.8145	187.5722	240.1185	295.1043	341.4521	366.6955	415.18	504.6304	516.7127	615.5079	723.616	838.8043	857.9811	898.095	927.4198	989.9161	1008.6311	1017.7432	1036.4161	1088.1033	1090.899	1108.5356	1168.0378	1197.0486	1247.5219	1287.4366	1309.7749	1363.6486	1375.0918	1401.427	1405.0616	1417.4648	1443.9077	1478.269	1488.2754	1492.976	1494.0377	1514.3912	1731.095	1788.5124	2926.0658	2979.5773	3000.7879	3022.7705	3028.1655	3036.3193	3069.998	3108.1171	3118.0027	3120.0765	3203.7741
CC1C=C(C)CN1C=O	C[C@H]1C=C(C)CN1C=O	
InChI=1S/C7H11NO/c1-6-3-7(2)8(4-6)5-9/h3,5,7H,4H2,1-2H3	InChI=1S/C7H11NO/c1-6-3-7(2)8(4-6)5-9/h3,5,7H,4H2,1-2H3/t7-/m0/s1
