15
gdb 93472	3.04191	1.40391	0.99229	2.421	62.83	-0.2641	-0.0276	0.2364	1112.3826	0.114761	-491.157733	-491.149738	-491.148794	-491.190624	29.178	
N	-0.0042143458	 1.4479886353	 0.2118169187	-0.50361
C	-0.0122413081	 0.0161296268	-0.0328625995	-0.127085
C	-1.442000336	-0.5102437856	-0.1002992221	-0.083117
O	-1.4734408267	-1.9252567371	-0.3389938202	-0.234718
C	-0.7240114134	-2.4453095072	-1.3309986081	 0.485745
O	-0.8960354389	-3.5574428969	-1.7418687203	-0.358748
N	 0.2740941782	-1.6058005809	-1.8386813374	-0.410855
C	 0.732126609	-0.4128680332	-1.3003994836	 0.405458
O	 1.6369465161	 0.2132825483	-1.7995590129	-0.344456
H	 0.961292388	 1.7605358773	 0.2671169381	 0.251978
H	-0.388675427	 1.9307841791	-0.5974473404	 0.236161
H	 0.4896108006	-0.4815565277	 0.8086319115	 0.132645
H	-1.9578667149	-0.3566239288	 0.847002311	 0.151222
H	-2.0055465997	 0.0021317665	-0.8919809223	 0.122115
H	 0.7878673184	-1.9850433859	-2.6237714324	 0.277264
85.9253	128.2196	177.8591	214.2367	280.4058	353.4061	390.2048	429.483	495.8852	597.6163	680.0531	712.9388	756.5114	773.5955	788.8156	906.1191	930.0502	1005.401	1063.4774	1101.0166	1176.8499	1203.481	1227.4728	1261.8632	1335.3519	1355.0392	1396.4894	1407.3129	1430.8302	1509.3339	1673.7515	1822.6612	1870.9883	3016.2666	3030.7507	3141.6291	3485.4622	3559.5636	3597.8938
NC1COC(=O)NC1=O	N[C@H]1COC(=O)NC1=O	
InChI=1S/C4H6N2O3/c5-2-1-9-4(8)6-3(2)7/h2H,1,5H2,(H,6,7,8)	InChI=1S/C4H6N2O3/c5-2-1-9-4(8)6-3(2)7/h2H,1,5H2,(H,6,7,8)/t2-/m0/s1
