19
gdb 13026	2.60814	2.4532	1.61662	2.8462	71.26	-0.2341	0.0726	0.3067	878.4871	0.165957	-365.051825	-365.044003	-365.043059	-365.08345	30.163	
C	 0.126664413	 1.5516526642	-0.0625649092	-0.406254
C	 0.0455941165	 0.0356116499	 0.0218379318	 0.117882
O	 0.7120952483	-0.5144117651	-1.1169642159	-0.273168
C	 1.301505741	-1.7648024815	-0.7844363951	-0.077284
C	 1.5295878735	-1.7199284006	 0.7102028812	-0.112487
N	 2.1993216677	-0.4692332963	 1.1345738535	-0.36474
C	 0.7268339058	-0.5934727388	 1.2361996355	 0.30786
C	 0.0369273001	-0.5768002305	 2.5734328648	-0.499848
H	 1.169445732	 1.8682562317	 0.01410483	 0.139859
H	-0.2798977781	 1.8998827246	-1.0157906683	 0.123128
H	-0.4504936475	 2.0154371916	 0.744351293	 0.105272
H	-1.0118080939	-0.285046098	 0.0284273545	 0.057928
H	 0.6346743467	-2.607351045	-1.0328781405	 0.085691
H	 2.2220130607	-1.8630925329	-1.3694556757	 0.111252
H	 1.6846452981	-2.63661144	 1.2702278675	 0.087816
H	 2.6027475928	-0.6105508487	 2.0589248129	 0.224342
H	-0.0357066603	 0.4425884229	 2.9697145634	 0.130004
H	-0.9806197564	-0.9756672823	 2.4979615699	 0.126697
H	 0.5815906	-1.1816899052	 3.3057531965	 0.116052
130.8982	198.9046	221.9771	228.5095	250.184	302.6519	386.7442	442.4159	543.4801	577.7745	670.171	761.9439	829.2607	854.1292	885.9345	917.8016	950.1017	1009.0897	1023.6416	1062.6962	1094.647	1102.9665	1107.5563	1125.1302	1149.9004	1168.2906	1234.5055	1299.8418	1308.7202	1352.5347	1386.0894	1389.0721	1404.2247	1416.143	1452.7578	1483.3706	1487.7466	1499.5172	1502.3254	1509.3932	2936.8277	2967.9926	3025.8764	3042.5573	3067.8263	3088.0025	3098.989	3112.4247	3135.2911	3164.802	3483.2726
CC1OCC2NC12C	C[C@H]1OC[C@H]2N[C@@]12C	
InChI=1S/C6H11NO/c1-4-6(2)5(7-6)3-8-4/h4-5,7H,3H2,1-2H3	InChI=1S/C6H11NO/c1-4-6(2)5(7-6)3-8-4/h4-5,7H,3H2,1-2H3/t4-,5-,6+/m1/s1
