20
gdb 95018	2.49435	1.88191	1.42439	2.4349	76.88	-0.2189	0.072	0.291	991.8161	0.17343	-403.103148	-403.095644	-403.0947	-403.134846	30.314	
C	-0.06086381	 1.5857469303	-0.0713271321	-0.41091
C	 0.0316870456	 0.0619456557	 0.0074132409	 0.004236
C	 0.7624481453	-0.5795929825	-1.2020603897	-0.084337
O	 1.3681432201	-1.7945565675	-0.7453106402	-0.268924
C	 1.6220592878	-1.6960731081	 0.6316185758	 0.114788
C	 2.9116534695	-1.0067713322	 1.135167731	-0.081087
N	 2.964915125	 0.344026151	 0.5266857336	-0.332209
C	 2.1090459641	 0.1125810181	 1.7133943851	-0.067097
C	 0.7891780514	-0.5124727805	 1.2191425276	-0.070697
H	 0.9364469377	 2.0328571537	-0.0941791788	 0.136946
H	-0.5938636679	 1.8994250411	-0.9756099467	 0.111729
H	-0.6034102184	 1.9956631067	 0.7871020129	 0.107157
H	-0.9838732389	-0.3511760347	 0.0438071314	 0.073789
H	 0.0747106219	-0.8463578802	-2.012142565	 0.090253
H	 1.5258559448	 0.1015325639	-1.5907158533	 0.113819
H	 1.46925759	-2.6748143735	 1.0948377315	 0.07871
H	 3.8160149188	-1.4790890365	 1.4994932985	 0.089137
H	 3.8258473607	 0.7793594421	 0.8559320498	 0.230161
H	 2.2675991569	 0.6718921948	 2.6269297816	 0.091571
H	 0.1329672654	-0.7908676318	 2.0453145762	 0.072966
120.7001	197.8114	220.2201	231.0191	306.9729	387.9087	496.5183	561.0123	619.6486	674.1156	738.2368	786.3059	826.5552	851.3619	882.4349	904.9427	931.4819	955.7705	968.7457	980.0214	999.9205	1028.2436	1066.714	1099.0296	1110.5446	1135.5289	1143.1242	1172.4661	1189.8634	1224.4666	1247.6358	1258.3427	1309.8759	1320.6645	1333.6738	1358.0573	1370.3388	1381.7786	1400.0371	1410.3268	1496.4336	1506.1914	1515.6896	3019.9115	3032.563	3037.3099	3070.4211	3083.8783	3092.5837	3098.2832	3120.9663	3180.6065	3195.5599	3474.0654
CC1COC2C3NC3C12	C[C@H]1CO[C@H]2[C@H]3N[C@H]3[C@@H]12	
InChI=1S/C7H11NO/c1-3-2-9-7-4(3)5-6(7)8-5/h3-8H,2H2,1H3	InChI=1S/C7H11NO/c1-3-2-9-7-4(3)5-6(7)8-5/h3-8H,2H2,1H3/t3-,4+,5-,6-,7+/m0/s1
