20
gdb 89783	2.33013	1.46269	1.02612	4.0023	81.88	-0.2263	0.0248	0.2511	1218.3576	0.170108	-403.150388	-403.141319	-403.140375	-403.184598	33.766	
C	-0.6756712805	 1.2735975678	 0.1957304175	-0.404611
C	 0.0181856314	-0.0528227859	-0.0705394452	 0.062983
C	 0.9711530891	-0.1450871771	-1.306109744	-0.364211
C	 2.1061884139	-0.4828507168	-0.3286512776	 0.39577
C	 3.1764351866	-1.524128766	-0.458859844	-0.324989
C	 3.5401778155	-0.0518416696	-0.3566085249	-0.322703
N	 1.1849876952	-0.3343213636	 0.783880384	-0.090716
C	 1.2505978577	-0.5667940381	 2.1105085099	 0.121615
O	 0.3052086075	-0.4906785461	 2.8736860488	-0.344523
H	 0.0354584197	 2.1042132912	 0.1409655889	 0.115526
H	-1.4635661628	 1.4419408265	-0.5461051995	 0.116331
H	-1.125627258	 1.2668545225	 1.191173318	 0.155109
H	-0.7081917712	-0.8722077964	-0.0245551484	 0.097703
H	 0.7270751778	-0.9303736363	-2.0234772093	 0.115647
H	 1.0980758437	 0.802826767	-1.833962993	 0.113638
H	 3.3806442892	-2.1561496883	 0.3991028125	 0.125174
H	 3.2890678336	-2.0198448033	-1.4178589041	 0.12156
H	 3.9031832535	 0.4556239316	-1.2447139515	 0.121606
H	 3.9826423917	 0.2953185674	 0.5713288361	 0.124898
H	 2.2761973163	-0.8303694168	 2.4427287159	 0.064194
62.0374	72.8635	156.6746	220.5603	249.1132	261.5901	297.7746	380.373	398.2889	477.0313	531.9534	570.4626	761.4371	790.2985	822.086	840.242	903.7969	920.1413	934.7796	954.4669	1027.1964	1036.2496	1050.5134	1072.1424	1101.3706	1127.7726	1142.591	1187.1734	1195.1387	1224.1736	1250.3789	1307.7856	1363.2015	1393.1939	1396.3101	1405.9677	1448.973	1457.9301	1484.7134	1490.3934	1503.5186	1506.5597	1775.7793	2912.9684	3036.9393	3039.9555	3072.7898	3106.9766	3125.9272	3127.4702	3128.8777	3132.7	3207.3386	3221.6332
CC1CC2(CC2)N1C=O	C[C@H]1CC2(CC2)N1C=O	
InChI=1S/C7H11NO/c1-6-4-7(2-3-7)8(6)5-9/h5-6H,2-4H2,1H3	InChI=1S/C7H11NO/c1-6-4-7(2-3-7)8(6)5-9/h5-6H,2-4H2,1H3/t6-/m0/s1
