22
gdb 57847	2.38428	1.27366	1.03332	4.475	80.69	-0.2328	0.0343	0.2671	1289.2198	0.190083	-441.501792	-441.49016	-441.489216	-441.540702	41.031	
C	-0.8902768587	 1.0481706363	 0.5544564254	-0.342704
N	-0.6753051031	-0.3728081741	 0.3146007274	-0.103054
C	-0.8138697305	-1.1782987542	 1.5114546865	-0.330404
C	-0.3511191572	-0.7622585953	-0.9708468018	 0.398706
O	-0.2616350187	 0.0563798037	-1.8642109811	-0.358256
C	-0.0981262166	-2.2711216821	-1.2932833939	 0.220595
C	 1.1336148078	-2.82088645	-0.5479955355	-0.425198
C	-1.3689470641	-3.1203499924	-1.0956617558	-0.425538
O	 0.2058435076	-2.2649200858	-2.6847674407	-0.426544
H	-0.1689910098	 1.4267705313	 1.2905125585	 0.116523
H	-0.7677671656	 1.5820275409	-0.3848293415	 0.173167
H	-1.8998650904	 1.2205970144	 0.9491587105	 0.116622
H	-1.8088280738	-1.0317537129	 1.9536552006	 0.122661
H	-0.6893687022	-2.2370600917	 1.3173993325	 0.138907
H	-0.0717534418	-0.8810361807	 2.2658417587	 0.122224
H	 1.0307641221	-2.84969332	 0.5379792739	 0.116319
H	 1.3293295165	-3.8465618036	-0.8836230172	 0.10682
H	 2.0063357896	-2.211729904	-0.797287493	 0.14121
H	-2.1722223852	-2.7141418711	-1.7157315884	 0.14172
H	-1.1714565495	-4.1474303116	-1.4259294769	 0.107006
H	-1.7220480763	-3.1736988999	-0.0645638029	 0.116932
H	 0.3692706698	-3.1810537072	-2.9335854353	 0.272286
5.1148	53.1106	114.266	142.7268	193.3563	198.8549	242.4558	262.5489	265.4597	300.6695	311.437	358.3494	372.5506	435.7417	457.4058	528.5459	578.7594	689.4346	742.7444	852.5892	922.776	953.557	983.7835	1022.8995	1070.489	1098.5201	1132.0388	1177.2154	1179.0329	1189.7892	1209.4893	1272.7186	1364.9235	1400.5814	1401.8283	1421.3319	1433.4962	1468.7993	1474.3843	1482.9436	1497.2905	1498.514	1501.8295	1508.4834	1513.6312	1538.9712	1759.4664	2999.2593	3011.4353	3031.1491	3034.8653	3037.0421	3054.8538	3104.2053	3107.0569	3136.0496	3136.8575	3181.365	3208.8287	3808.974
CN(C)C(=O)C(C)(C)O	CN(C)C(=O)C(C)(C)O	
InChI=1S/C6H13NO2/c1-6(2,9)5(8)7(3)4/h9H,1-4H3	InChI=1S/C6H13NO2/c1-6(2,9)5(8)7(3)4/h9H,1-4H3
