14
gdb 77796	2.92644	1.37197	1.09624	3.1268	70.54	-0.2493	-0.0134	0.2359	1075.9968	0.099112	-436.63322	-436.625095	-436.624151	-436.66578	30.701	
O	-0.1987000522	 1.4217171787	 0.0724313444	-0.412448
C	-0.0945822039	 0.0382315187	 0.0376174676	 0.04576
C	-0.4321721998	-0.8405899725	 1.2358888668	-0.369136
C	-1.5861360125	-0.1631479814	 1.9639060333	 0.446022
O	-1.7637922747	 0.2700465301	 3.0644528517	-0.338947
N	-2.40718687	-0.1897790014	 0.8230165668	-0.38896
C	-1.3530674169	-0.7838772351	-0.0117528193	 0.172741
C	-1.6375391227	-1.778085337	-0.989012056	 0.215179
C	-1.8671045359	-2.6000703288	-1.8359658063	-0.374091
H	 0.4241056884	 1.7624035555	 0.7242787745	 0.302532
H	 0.7186485786	-0.3537091959	-0.5749536365	 0.116354
H	 0.2042250665	-1.642249244	 1.5833637347	 0.132254
H	-2.9289092999	 0.6268508588	 0.5229312745	 0.254654
H	-2.0774691449	-3.3319654256	-2.5763152762	 0.198086
111.9789	149.8292	155.1664	239.1241	273.6864	390.1501	432.982	502.3547	511.6883	534.1647	553.416	600.7111	680.5791	702.6044	743.7647	764.4019	859.2474	913.5429	933.3135	994.3708	1060.7681	1090.1737	1132.6668	1202.752	1247.9726	1296.9888	1307.196	1336.1295	1448.7152	1908.5957	2242.4451	3104.8922	3226.1079	3500.9413	3548.2372	3803.3253
OC1C2C(=O)NC12C#C	O[C@H]1[C@H]2C(=O)N[C@@]12C#C	
InChI=1S/C6H5NO2/c1-2-6-3(4(6)8)5(9)7-6/h1,3-4,8H,(H,7,9)	InChI=1S/C6H5NO2/c1-2-6-3(4(6)8)5(9)7-6/h1,3-4,8H,(H,7,9)/t3-,4-,6+/m0/s1
