18
gdb 89618	3.71914	1.1682	0.98328	5.2436	72.8	-0.2516	0.0061	0.2577	1210.8724	0.148233	-439.088509	-439.080248	-439.079304	-439.121403	31.54	
C	-0.1365845611	 1.6019496755	 0.0191421822	-0.418123
C	 0.0617787579	 0.0963169444	 0.0536497983	 0.065834
N	 1.1218023365	-0.4732363438	-0.8550692423	-0.413495
H	 1.4680026372	-2.3899277987	-1.5194152367	 0.302818
H	 1.6938178258	 0.2380681811	-1.30701077	 0.224814
C	 1.7902105075	-1.1133490811	 0.2874344393	 0.198889
C	 2.1900822134	-0.1640633186	 1.3774570325	-0.331781
C	 0.7459908988	-0.5533165826	 1.2674245728	-0.133212
C	 2.2694893137	-2.5187939653	 0.1667026253	 0.373164
O	 1.9714021961	-3.0667420989	-1.0269594375	-0.381296
O	 2.8406295144	-3.1191896176	 1.0386850311	-0.352268
H	 0.7795938542	 2.1414018249	 0.2788195511	 0.121729
H	-0.4536658781	 1.9262237008	-0.9780236466	 0.128468
H	-0.9156454065	 1.8971172908	 0.7291173702	 0.132691
H	-0.8872567076	-0.4034195547	-0.1673079309	 0.098839
H	 2.7220972966	-0.6362833846	 2.1959915898	 0.153514
H	 2.5337104664	 0.8328621367	 1.1144083577	 0.110878
H	 0.2396906049	-1.1000121184	 2.0518247039	 0.118538
99.938	125.3383	162.9167	227.396	263.8299	297.1104	415.5617	457.3213	511.5825	549.7338	676.767	727.6636	744.2611	751.6375	824.5275	848.9366	873.4439	947.7151	948.2488	992.1737	1007.2974	1025.592	1075.0296	1106.5385	1113.1148	1146.0923	1170.6443	1224.3236	1286.8518	1311.7638	1340.4194	1351.3718	1395.1791	1408.2146	1429.3329	1478.5636	1490.0409	1495.2438	1861.8966	3034.2174	3046.8445	3103.0839	3110.541	3119.8629	3207.2427	3222.9072	3469.1889	3589.3577
CC1[NH2+]C2(CC12)C([O-])=O	C[C@H]1N[C@]2(C[C@@H]12)C(=O)O	
InChI=1S/C6H9NO2/c1-3-4-2-6(4,7-3)5(8)9/h3-4,7H,2H2,1H3,(H,8,9)	InChI=1S/C6H9NO2/c1-3-4-2-6(4,7-3)5(8)9/h3-4,7H,2H2,1H3,(H,8,9)/t3-,4+,6+/m1/s1
