17
gdb 14070	3.46761	1.67459	1.39327	2.4559	70.64	-0.2312	-0.0215	0.2097	947.446	0.141377	-363.845041	-363.837072	-363.836128	-363.87747	29.369	
C	-0.0625956946	 1.4701212693	-0.1036983396	-0.395871
C	 0.0790568625	-0.032478341	-0.0514613345	-0.039568
C	 1.4334760409	-0.6835406229	-0.1225990345	-0.355653
C	 0.677845443	-0.6784604945	 1.1825292866	 0.221345
N	 1.0302793956	 0.0191453195	 2.436050041	-0.379669
C	 0.5280454655	-1.1345233208	 3.2529877702	-0.28626
C	 0.1114405358	-1.8383329001	 1.9437947162	 0.326304
O	-0.4381614893	-2.8622179294	 1.6562720593	-0.309155
H	 0.7381362409	 1.9582234852	 0.4590738196	 0.123639
H	-0.0292128985	 1.8318409576	-1.1368774782	 0.119856
H	-1.0121187497	 1.789275215	 0.3372507258	 0.12642
H	-0.7370064548	-0.6007042939	-0.4913878147	 0.106893
H	 1.5445894721	-1.6347925247	-0.6327780344	 0.133195
H	 2.3005793221	-0.0308140084	-0.1762076881	 0.118985
H	 2.0344766719	 0.1276863212	 2.5363075982	 0.224282
H	 1.2911013377	-1.677885934	 3.8214509144	 0.128323
H	-0.2949136612	-0.8689363682	 3.9239678524	 0.136934
99.053	118.7102	153.6942	183.3013	254.5549	346.7297	424.0061	514.433	544.4686	606.7072	718.9009	755.4563	813.6558	858.7126	889.0386	916.8887	967.7763	1005.1598	1028.5953	1054.1324	1065.4138	1106.0468	1122.1993	1141.9766	1188.7258	1219.7439	1278.671	1304.9847	1356.6629	1403.5185	1424.5334	1463.2886	1475.6785	1486.2727	1500.4408	1896.4251	3036.4286	3040.3083	3091.5438	3100.5502	3111.9258	3118.6496	3143.7423	3209.7097	3515.8576
CC1CC11NCC1=O	C[C@H]1C[C@]21NCC2=O	
InChI=1S/C6H9NO/c1-4-2-6(4)5(8)3-7-6/h4,7H,2-3H2,1H3	InChI=1S/C6H9NO/c1-4-2-6(4)5(8)3-7-6/h4,7H,2-3H2,1H3/t4-,6+/m0/s1
