13
gdb 132195	2.00837	1.85598	0.97039	4.3268	63.32	-0.2572	-0.0457	0.2115	1102.5769	0.087986	-497.906703	-497.899099	-497.898155	-497.939331	27.411	
C	-0.0201107872	 1.4582401105	 0.1300215614	-0.469241
C	-0.0116745313	-0.0229306296	-0.0508122144	 0.405815
N	-0.1313744683	-0.6131233339	-1.165167437	-0.328115
C	-0.1112975322	-2.039775705	-1.2384109851	 0.398208
O	-0.2249418857	-2.6042297567	-2.3005506431	-0.336073
C	 0.0533446479	-2.7318829285	 0.0424291077	-0.453547
C	 0.1694202633	-1.9959122213	 1.1502157423	 0.405911
F	 0.3216995585	-2.4687534976	 2.3616417173	-0.029574
O	 0.1458310163	-0.6575374531	 1.1753693272	-0.223973
H	 0.9156721602	 1.7882956218	 0.5920444729	 0.158209
H	-0.143872092	 1.9364521946	-0.8399348152	 0.169122
H	-0.8354544739	 1.7531605458	 0.7981168677	 0.158215
H	 0.0793397846	-3.8110110072	 0.0813990483	 0.145043
105.0749	124.4293	176.5672	212.9366	292.4719	375.5102	494.299	531.8379	587.8854	592.6252	621.0866	681.7132	775.6974	863.9478	896.1836	921.6658	996.1739	1063.5844	1077.6164	1138.5757	1229.9111	1287.5582	1389.1625	1410.8199	1467.7743	1473.3604	1678.0854	1757.213	1809.7325	3052.0773	3111.22	3177.9436	3246.5076
CC1=NC(=O)C=C(F)O1	Cc1nc(=O)cc(F)o1	
InChI=1S/C5H4FNO2/c1-3-7-5(8)2-4(6)9-3/h2H,1H3	InChI=1S/C5H4FNO2/c1-3-7-5(8)2-4(6)9-3/h2H,1H3
