19
gdb 112017	2.52592	1.59379	1.19363	2.7467	75.99	-0.2289	0.0167	0.2456	1078.0667	0.159338	-423.01145	-423.00307	-423.002126	-423.044046	33.113	
O	 0.2741875922	 0.2758032567	 1.0665125455	-0.425058
C	-0.1430872308	 0.3698949984	-0.2972250512	-0.097959
C	-1.5018382451	-0.3165805702	-0.377663552	-0.096598
C	-2.1327880321	-0.4118277627	-1.7511649992	-0.123168
C	-2.5428866275	-1.6548958543	-2.0226516928	-0.073167
C	-2.17635071	-2.6115742625	-0.9373963834	-0.153073
C	-0.6688567549	-2.7717569973	-0.7311822461	-0.341428
C	-1.4527270599	-1.7763337046	 0.0884910051	 0.437722
O	-1.6222526577	-2.010651294	 1.4496330824	-0.487645
H	 1.1843925403	 0.5777885186	 1.1317622925	 0.292307
H	-0.2188389614	 1.4219093792	-0.6116381592	 0.089349
H	 0.5746868419	-0.1312943881	-0.9621245203	 0.094345
H	-2.1707385475	 0.2257251743	 0.3079344422	 0.097235
H	-2.245987081	 0.4456067573	-2.4053820835	 0.092723
H	-3.0504804096	-1.9610849172	-2.9307224292	 0.096719
H	-2.8304327613	-3.4299514913	-0.6599307184	 0.095894
H	-0.3508095809	-3.6519491642	-0.1825023352	 0.113247
H	-0.0074563503	-2.4514598613	-1.5301429051	 0.102411
H	-0.9041303346	-1.5298471668	 1.882505708	 0.286142
100.3625	143.9104	207.9866	259.2274	305.3634	323.6722	372.3808	431.9355	465.0959	490.7266	555.4504	622.1893	702.6714	741.6397	789.0906	856.9038	896.2331	909.6442	958.326	978.4427	1010.8003	1031.8243	1040.8532	1046.5516	1058.8798	1066.5651	1105.7854	1147.6683	1206.6124	1227.7131	1237.4576	1250.2395	1302.981	1331.6477	1345.3727	1393.1168	1415.2747	1445.2785	1482.3058	1517.5378	1661.0747	2982.6091	2992.1204	3024.79	3120.3161	3177.2903	3183.6685	3205.3577	3217.1935	3762.8206	3838.3352
OCC1C=CC2CC12O	OC[C@H]1C=C[C@H]2C[C@@]12O	
InChI=1S/C7H10O2/c8-4-6-2-1-5-3-7(5,6)9/h1-2,5-6,8-9H,3-4H2	InChI=1S/C7H10O2/c8-4-6-2-1-5-3-7(5,6)9/h1-2,5-6,8-9H,3-4H2/t5-,6+,7-/m0/s1
