15
gdb 6309	3.97666	1.24363	1.08452	2.0976	64.17	-0.2655	0.0311	0.2966	1096.0986	0.116414	-399.811488	-399.802543	-399.801599	-399.845578	31.82	
C	-0.0347997397	 1.5585030226	 0.0376138262	-0.399922
C	-0.0239329023	 0.0283881369	 0.0010495923	-0.045233
O	-1.3817914499	-0.4731435431	 0.0386973254	-0.268459
C	-1.882261799	-0.7044638496	 1.2810903885	 0.50837
N	-3.1761021493	-1.1255204458	 1.1811931993	-0.562696
O	-1.2803864504	-0.5333350349	 2.3163467956	-0.400382
C	 0.6032133186	-0.5010489263	-1.2052261421	 0.327169
C	 1.1499225359	-0.9059266456	-2.1949234925	-0.447123
H	 0.9879813747	 1.9400859043	-0.0212993733	 0.131375
H	-0.6062008371	 1.9551856194	-0.8050801002	 0.132334
H	-0.4831406788	 1.8950151132	 0.9751918986	 0.141962
H	 0.4897203788	-0.3504451099	 0.8899182616	 0.142781
H	-3.5165616105	-1.442052067	 0.2893004107	 0.267812
H	-3.583867073	-1.5148108686	 2.0134665456	 0.270342
H	 1.6327901319	-1.2745019155	-3.0660987658	 0.201671
38.5583	89.0678	159.5739	183.91	238.7528	304.6121	337.0349	378.845	427.8582	513.0174	544.3646	567.4664	621.5527	650.7648	676.6373	782.4671	847.9958	889.4575	1018.9186	1063.4072	1106.139	1120.1889	1140.1542	1326.8244	1356.3642	1392.6976	1398.5855	1486.6287	1493.6811	1610.8325	1828.0247	2245.4007	3051.8075	3071.3181	3131.666	3140.3306	3503.3413	3615.4011	3746.2444
CC(OC(N)=O)C#C	C[C@@H](OC(=O)N)C#C	
InChI=1S/C5H7NO2/c1-3-4(2)8-5(6)7/h1,4H,2H3,(H2,6,7)	InChI=1S/C5H7NO2/c1-3-4(2)8-5(6)7/h1,4H,2H3,(H2,6,7)/t4-/m1/s1
