15
gdb 64532	4.42976	1.27644	1.12808	1.0088	66.05	-0.2447	-0.0474	0.1973	1033.9783	0.110892	-457.667592	-457.660477	-457.659533	-457.699137	27.894	
O	 0.0475229483	 1.4373872642	-0.0212989168	-0.49277
C	 0.0458153119	 0.0469103044	-0.0402649493	 0.337821
C	 1.0131162501	-0.4798215829	-1.0592214285	 0.097987
O	 1.6840839618	 0.2576656037	-1.7439029498	-0.277396
C	 0.0495534104	-0.6605647462	 1.3469918745	-0.163258
C	-1.4721383126	-0.357375987	 1.5444147051	 0.09076
O	-1.8202715805	-1.7263180732	 1.8868506985	-0.323697
C	-0.8178108921	-1.8511367948	 0.8345398369	 0.073
C	-1.3506521771	-0.6387394126	 0.0106728458	-0.162999
H	 0.6976790981	 1.7094891233	-0.6883753979	 0.295785
H	 1.0826245291	-1.5824394631	-1.1527418731	 0.096707
H	 0.8257654051	-0.679966229	 2.110688727	 0.099789
H	-1.9570524441	 0.4638260837	 2.0658867673	 0.120893
H	-0.5264474768	-2.8489712284	 0.5129004753	 0.107613
H	-2.1499210918	-0.6336603421	-0.7290943151	 0.099764
109.1822	162.7959	272.4229	313.0006	360.8696	443.1698	482.8451	541.9586	583.9251	754.3339	786.4126	798.1982	833.087	839.1244	884.502	894.8542	918.2809	974.5226	1015.0431	1045.2024	1054.2118	1111.6517	1140.7349	1146.6812	1158.1287	1180.4757	1189.9746	1222.8435	1301.1971	1328.603	1381.7137	1447.8493	1800.8212	2933.6613	3129.6762	3134.5905	3144.0532	3162.5675	3692.6213
OC1(C=O)C2C3OC2C13	O[C@@]1(C=O)[C@H]2[C@@H]3O[C@H]2[C@H]13	
InChI=1S/C6H6O3/c7-1-6(8)2-4-3(6)5(2)9-4/h1-5,8H	InChI=1S/C6H6O3/c7-1-6(8)2-4-3(6)5(2)9-4/h1-5,8H/t2-,3+,4-,5+,6-
