17
gdb 51207	3.67715	1.15745	1.04867	2.9019	72.57	-0.24	-0.0264	0.2136	1160.1804	0.134199	-421.739909	-421.732137	-421.731193	-421.77334	29.057	
O	-0.075404571	-0.0298891098	 0.0689695279	-0.2388
C	-0.0276931559	 1.1623802891	-0.0880413575	 0.156619
C	 1.259538503	 1.9702742522	-0.0896604802	-0.429918
C	 1.3166017929	 2.9367186	-1.2382375166	 0.470775
O	 0.2999121732	 3.9885663471	-1.3103920377	-0.361134
C	 1.142875336	 4.2048342864	-2.4811468116	 0.088899
C	 2.4777220135	 3.8516732452	-1.7547659893	-0.142221
C	 2.8804705354	 2.8410901013	-2.8503776906	-0.279226
C	 1.3451587455	 2.6917514889	-2.789552451	-0.132272
H	-0.9466451873	 1.7672209523	-0.2416369865	 0.104114
H	 1.2962979904	 2.5469851389	 0.8455206035	 0.139969
H	 2.1124509961	 1.285749316	-0.1057913914	 0.133542
H	 0.9078842203	 5.0311253095	-3.1503423102	 0.100726
H	 3.0901317864	 4.523128503	-1.1528559316	 0.086278
H	 3.2910713843	 3.2625942872	-3.7714619718	 0.104843
H	 3.4713454698	 1.9785093	-2.5313659383	 0.106811
H	 0.6763015675	 2.0473995625	-3.3600037271	 0.090995
50.1705	64.6134	153.8702	249.1062	325.6204	450.1145	458.6554	543.1352	652.4855	742.0725	760.2291	782.135	825.91	853.0812	879.7989	898.6299	925.3721	961.6587	999.7133	1027.9432	1065.2004	1080.468	1100.4506	1107.5298	1145.2994	1166.2266	1182.4021	1204.5759	1234.431	1256.4672	1277.3884	1298.1627	1382.8405	1424.3338	1438.8549	1516.0198	1834.1587	2913.678	3020.4369	3057.4609	3103.3037	3113.4417	3119.4598	3121.0857	3138.6772
O=CCC12OC3C1CC23	O=CC[C@@]12O[C@H]3[C@@H]1C[C@@H]23	
InChI=1S/C7H8O2/c8-2-1-7-4-3-5(7)6(4)9-7/h2,4-6H,1,3H2	InChI=1S/C7H8O2/c8-2-1-7-4-3-5(7)6(4)9-7/h2,4-6H,1,3H2/t4-,5+,6-,7+
