15
gdb 129874	3.7014	1.15374	0.88204	5.596	76.24	-0.2109	-0.0258	0.1851	1233.6972	0.114417	-450.157092	-450.148853	-450.147909	-450.189793	30.768	
N	 0.0752421959	 1.4495360945	 0.1108416729	-0.620411
C	-0.0142311595	 0.0551783423	 0.0194875993	 0.104498
C	-1.0831529605	-0.7916655437	 0.028297712	-0.081827
N	-0.5752674407	-2.0806112853	-0.0191970203	-0.023513
C	-1.3316244568	-3.2436897209	-0.0260559021	 0.182717
O	-0.8988905718	-4.3622744162	-0.0845477404	-0.284507
N	 0.7930092212	-2.0894348227	-0.055235465	-0.320919
C	 1.1291243019	-0.8174397208	-0.0285509079	 0.394007
N	 2.4402604579	-0.3775933159	-0.1095773146	-0.593574
H	 0.716541922	 1.8330048383	-0.5751616873	 0.254494
H	-0.8195216213	 1.9137712991	 0.0244213386	 0.24936
H	-2.145438005	-0.6090441564	 0.0566952652	 0.137015
H	-2.4088511061	-2.9939554717	 0.0308635903	 0.082629
H	 3.1069436323	-1.1306739135	 0.0030080212	 0.263315
H	 2.6413598104	 0.390585573	 0.5186109882	 0.256715
101.7101	181.5951	205.7636	226.1596	248.9615	309.8339	372.1865	409.1646	449.9854	539.6448	598.5306	639.7694	693.6022	737.6455	764.0329	769.7747	811.5206	857.216	978.6858	1011.8498	1117.2637	1149.8358	1208.3169	1269.8896	1328.4874	1406.2278	1457.8428	1482.2389	1570.4511	1629.1535	1651.3007	1695.897	1834.4766	2948.7629	3261.265	3517.4431	3535.3487	3615.7331	3635.5473
NC1=CN(C=O)N=C1N	Nc1cn(C=O)nc1N	
InChI=1S/C4H6N4O/c5-3-1-8(2-9)7-4(3)6/h1-2H,5H2,(H2,6,7)	InChI=1S/C4H6N4O/c5-3-1-8(2-9)7-4(3)6/h1-2H,5H2,(H2,6,7)
