18
gdb 49240	3.57934	1.20681	0.98602	5.5796	83.02	-0.2071	-0.0205	0.1865	1192.2644	0.150008	-401.969797	-401.962081	-401.961136	-402.002111	30.067	
O	-0.2310552025	-0.0384979969	-0.2859222156	-0.315725
C	-0.0878485769	 1.1705684322	-0.296717998	 0.084888
C	 1.1434404904	 1.8647182989	 0.0173441896	 0.139012
C	 1.1547788949	 3.2205759623	-0.0315474507	-0.043004
N	 2.2424500719	 3.9964119047	 0.2225690794	-0.29938
C	 3.4243850517	 3.4294725522	 0.8122916481	 0.006797
C	 3.338602032	 2.7537050153	 2.1681827055	-0.302176
C	 3.5079007021	 1.9313342538	 0.9112391215	-0.035893
C	 2.3752959248	 1.0710359434	 0.3666005321	-0.329737
H	-0.9414582534	 1.8430134372	-0.5540518625	 0.04008
H	 0.2542726618	 3.7647871408	-0.3035972094	 0.11639
H	 2.0731130534	 4.9720732311	 0.4118598408	 0.250281
H	 4.3230313282	 3.9850400268	 0.5664232881	 0.102996
H	 4.176648484	 2.8496190926	 2.8497426039	 0.117226
H	 2.3631835326	 2.741743808	 2.6440112623	 0.125288
H	 4.4985695927	 1.5152294675	 0.7568034555	 0.095118
H	 2.1122249473	 0.272415481	 1.0707245131	 0.125843
H	 2.7333828852	 0.5537510891	-0.5330590435	 0.121996
81.3347	162.7007	201.4651	290.1059	346.892	379.0091	443.6295	488.2545	528.7764	573.6822	632.2519	722.6891	787.2063	826.6364	863.2057	874.8142	919.2265	978.5126	1017.0021	1026.5918	1038.7975	1054.6826	1090.1503	1121.771	1155.5595	1210.4553	1229.2154	1256.3085	1284.494	1321.3946	1371.4998	1403.9269	1417.5429	1442.0054	1476.5204	1488.1578	1524.8452	1692.6681	1764.4238	2833.2749	3022.4984	3049.615	3130.7588	3151.2851	3164.051	3170.0701	3220.9194	3614.9091
O=CC1=CNC2CC2C1	O=CC1=CN[C@H]2C[C@H]2C1	
InChI=1S/C7H9NO/c9-4-5-1-6-2-7(6)8-3-5/h3-4,6-8H,1-2H2	InChI=1S/C7H9NO/c9-4-5-1-6-2-7(6)8-3-5/h3-4,6-8H,1-2H2/t6-,7+/m1/s1
