22
gdb 89435	2.77862	1.59713	1.34216	1.8313	84.31	-0.2199	0.083	0.3029	1078.6297	0.195727	-367.185315	-367.177164	-367.17622	-367.217311	33.201	
C	-0.3297245879	 1.534547895	 0.0724010169	-0.403711
C	 0.0176161407	 0.0450126522	-0.0475354317	 0.000037
C	 0.7961581608	-0.372683995	-1.3330316409	-0.271671
C	 2.1869978059	-0.8122698246	-0.8403585388	 0.31053
C	 3.0294809724	-1.5743516539	-1.8421483499	-0.494407
C	 2.8386733814	 0.3725619395	-0.0827081339	-0.19249
N	 2.3189182632	-0.1028850115	 1.2444251704	-0.158202
C	 0.8862616047	-0.5016341109	 1.082952522	-0.02083
C	 1.9348287463	-1.4032132474	 0.5811506235	-0.102487
H	 0.5612457036	 2.1682742111	 0.0585788807	 0.125356
H	-0.9795535277	 1.8501849753	-0.7505653827	 0.112307
H	-0.8594393325	 1.734699894	 1.0099554421	 0.115588
H	-0.9278444809	-0.5106344931	-0.0114339476	 0.074731
H	 0.2915721173	-1.2067757379	-1.8344884901	 0.091991
H	 0.8722195526	 0.4454994888	-2.0586754989	 0.093033
H	 3.2317864017	-0.9642891749	-2.7300596673	 0.116851
H	 3.9935672801	-1.8667830464	-1.4125594808	 0.117042
H	 2.5200229056	-2.4853809757	-2.1772204861	 0.114795
H	 3.9304963037	 0.3078256273	-0.053176215	 0.103538
H	 2.5527405969	 1.3903559638	-0.3703204764	 0.092218
H	 0.4263456842	-0.6800945393	 2.0504506792	 0.089544
H	 2.2237571978	-2.3730939062	 0.9713146255	 0.086238
153.4944	192.4541	219.0579	221.2382	278.0909	325.4317	393.8517	405.7033	485.719	597.1706	635.4602	654.3074	776.7346	783.721	826.1033	869.1578	873.1077	925.4549	935.7433	946.0836	982.6468	998.9027	1013.0632	1052.3413	1055.1718	1083.2084	1137.4896	1166.596	1174.7278	1197.2995	1222.19	1245.3478	1255.7832	1274.623	1288.9314	1323.0441	1358.3585	1374.8257	1393.4386	1413.2686	1414.2814	1485.472	1493.239	1494.7272	1496.1658	1498.1407	1515.2753	3013.7489	3021.1549	3028.8832	3032.9645	3038.2918	3069.0782	3085.3728	3086.2398	3093.4705	3097.4707	3115.9989	3153.8006	3171.0709
CC1CC2(C)CN3C1C23	C[C@H]1C[C@@]2(C)CN3[C@@H]1[C@@H]23	
InChI=1S/C8H13N/c1-5-3-8(2)4-9-6(5)7(8)9/h5-7H,3-4H2,1-2H3	InChI=1S/C8H13N/c1-5-3-8(2)4-9-6(5)7(8)9/h5-7H,3-4H2,1-2H3/t5-,6-,7-,8-,9?/m0/s1
