17
gdb 62203	5.42609	0.56769	0.52879	1.478	74.17	-0.315	-0.0017	0.3133	1938.4336	0.134704	-418.032671	-418.022752	-418.021808	-418.068786	34.053	
O	-0.0872065322	 1.4310542658	 0.041505713	-0.404308
C	 0.0261024614	 0.0204602252	 0.0258696858	-0.02509
C	 0.6855320505	-0.5207673133	-1.2567805632	-0.21317
C	-0.0869833652	-0.1051413359	-2.5112520937	-0.187449
C	 0.6057201607	-0.5993038625	-3.7961108882	-0.34804
C	-0.1207429645	-0.2144678565	-5.0042427647	 0.259297
N	-0.7081654593	 0.0972097378	-5.9490309038	-0.297399
C	 0.7450236142	-0.4702392595	 1.219714211	 0.256071
N	 1.3406144046	-0.8352168079	 2.1401206384	-0.30805
H	 0.7966285505	 1.8086993015	 0.1227216631	 0.29849
H	-1.0047069262	-0.348601665	 0.0818085666	 0.146366
H	 1.7186590207	-0.1515742295	-1.3014365778	 0.114416
H	 0.7475514224	-1.613141763	-1.1835837663	 0.128233
H	-1.1048110881	-0.5095554918	-2.4742222671	 0.127566
H	-0.1834546406	 0.9833882234	-2.5393701854	 0.141848
H	 1.623283047	-0.1958734989	-3.8597875119	 0.155166
H	 0.7030201441	-1.69135335	-3.7830437857	 0.156053
47.017	76.4266	88.6608	131.0558	152.0376	230.6893	288.4892	305.7528	337.8014	398.1706	428.0194	542.1572	587.6353	593.2744	745.101	828.5759	886.3225	947.996	975.5349	1035.4737	1056.9387	1097.8092	1107.4047	1166.5196	1249.7235	1272.4617	1303.4478	1325.1858	1338.7918	1368.3867	1396.5351	1420.8274	1468.9061	1479.1662	1504.8331	2356.5635	2365.3014	3023.4271	3037.3903	3052.0684	3053.7954	3071.2228	3074.3924	3112.1936	3798.6185
OC(CCCC#N)C#N	O[C@@H](CCCC#N)C#N	
InChI=1S/C6H8N2O/c7-4-2-1-3-6(9)5-8/h6,9H,1-3H2	InChI=1S/C6H8N2O/c7-4-2-1-3-6(9)5-8/h6,9H,1-3H2/t6-/m0/s1
