22
gdb 95877	2.94365	1.11955	0.87881	3.9933	84.52	-0.2358	0.0341	0.2699	1372.0082	0.196339	-404.403684	-404.39481	-404.393866	-404.437286	34.028	
C	-0.0685658684	 1.5303992511	 0.0322211613	-0.403778
C	 0.0031253044	 0.0020883989	 0.0079424909	 0.036074
C	 0.6299275061	-0.5315068371	-1.2922573613	-0.190225
C	 0.7496522541	-2.0619798363	-1.2776316051	-0.209862
C	 1.5145853114	-2.5410614861	-0.0386426072	-0.17133
N	 0.927262943	-1.9785712473	 1.1715024509	-0.035328
C	 0.7917262928	-0.5337435297	 1.2165266425	-0.176105
C	 0.5055845076	-2.7860418049	 2.1832733564	 0.14449
O	 0.5802366913	-3.9977018484	 2.2017931953	-0.345836
H	 0.9323556929	 1.9737668395	-0.02649861	 0.116589
H	-0.6484852085	 1.9089706757	-0.8152835902	 0.118033
H	-0.5414415979	 1.895602319	 0.9503298246	 0.114239
H	-1.0167859168	-0.4010203487	 0.0831871703	 0.079635
H	 0.0387152621	-0.2018254467	-2.1541041104	 0.096371
H	 1.6294691005	-0.0878613972	-1.4129797256	 0.092542
H	-0.2508041299	-2.5117395896	-1.2739955235	 0.10923
H	 1.2590787505	-2.4169953803	-2.1800023649	 0.099494
H	 1.4899630893	-3.6262116356	 0.0684447822	 0.145712
H	 2.567161635	-2.2270057644	-0.1067682037	 0.101276
H	 1.7909642078	-0.0687070847	 1.2272669265	 0.100485
H	 0.2981281057	-0.2602054841	 2.1548733823	 0.111374
H	 0.0701862871	-2.1989908531	 3.0170607586	 0.06692
63.7411	135.0271	214.3426	223.8365	277.6684	300.4384	331.6489	349.7653	406.0206	430.2342	447.6676	543.6672	711.6836	788.1394	836.9872	862.6919	898.0524	903.8406	965.2671	986.3511	1000.2071	1030.0488	1055.5119	1099.7804	1146.6086	1156.7112	1173.6447	1219.6953	1246.5015	1285.2423	1307.2046	1329.3048	1340.3884	1371.7904	1380.4157	1393.4421	1405.2106	1415.7697	1435.9419	1461.409	1481.8755	1485.6563	1487.837	1497.7607	1500.4157	1501.1509	1790.9309	2925.4038	2973.3325	2992.7217	3000.1228	3012.5251	3028.0167	3032.381	3061.7693	3073.2496	3079.2597	3093.4729	3102.4291	3130.6489
CC1CCCN(C1)C=O	C[C@H]1CCCN(C1)C=O	
InChI=1S/C7H13NO/c1-7-3-2-4-8(5-7)6-9/h6-7H,2-5H2,1H3	InChI=1S/C7H13NO/c1-7-3-2-4-8(5-7)6-9/h6-7H,2-5H2,1H3/t7-/m0/s1
