21
gdb 111945	2.79701	1.21382	0.92676	3.5371	85.14	-0.2337	-0.0425	0.1912	1318.5239	0.182511	-387.136111	-387.126833	-387.125889	-387.170483	34.739	
C	-0.0805682712	 1.6579216021	 0.0395017639	-0.393087
C	-0.0952818514	 0.1260167013	 0.0211993575	-0.17239
C	 0.7129736322	-0.5170588527	 1.1717749269	-0.064928
C	 0.1116781525	-0.2128020096	 2.5273241802	-0.047527
C	-0.3399878549	-1.2947137756	 3.1714199219	-0.186819
C	-0.0817835486	-2.5081849384	 2.3649566753	 0.379991
O	-0.4507282783	-3.6373863811	 2.5958745165	-0.342743
C	 0.7733857248	-2.0738604343	 1.1583945184	-0.120516
C	 0.4009784834	-2.8239928146	-0.1203265028	-0.406293
H	 0.9444839363	 2.0448718143	 0.0154976411	 0.116609
H	-0.6071276521	 2.0610898289	-0.8306739173	 0.118953
H	-0.5678452935	 2.0628453702	 0.9320043498	 0.118489
H	-1.1306714624	-0.233198644	 0.0593563544	 0.104838
H	 0.3196960429	-0.2234886644	-0.9304031606	 0.106007
H	 1.7264633574	-0.0950750412	 1.1203372718	 0.08212
H	 0.0427632431	 0.8028924681	 2.9028133383	 0.114664
H	-0.8422384317	-1.3252505667	 4.130000599	 0.113946
H	 1.7976527902	-2.3643946229	 1.4315737737	 0.107775
H	-0.598895225	-2.5574983274	-0.4741558612	 0.12112
H	 1.1122975309	-2.6272735265	-0.9279094394	 0.111015
H	 0.4003739954	-3.8969575555	 0.0883777029	 0.138775
45.4002	103.7829	187.3864	209.5313	231.4899	249.7623	271.1038	308.9719	389.6438	467.0564	524.4735	641.7054	693.4818	735.0885	751.7377	787.9481	815.2748	870.2603	939.725	956.1754	1007.6682	1025.1385	1050.3649	1061.0845	1104.2972	1111.663	1135.5724	1161.6478	1195.7861	1246.3402	1275.4954	1314.5677	1329.2978	1346.4925	1369.083	1371.0755	1405.6018	1414.2747	1485.9911	1496.5093	1500.4948	1504.561	1509.1996	1648.7352	1810.0134	2997.9327	3015.4888	3032.0093	3034.7075	3044.4007	3070.7744	3101.5037	3108.0604	3112.8623	3123.2271	3186.7872	3224.2394
CCC1C=CC(=O)C1C	CC[C@H]1C=CC(=O)[C@H]1C	
InChI=1S/C8H12O/c1-3-7-4-5-8(9)6(7)2/h4-7H,3H2,1-2H3	InChI=1S/C8H12O/c1-3-7-4-5-8(9)6(7)2/h4-7H,3H2,1-2H3/t6-,7-/m0/s1
