18
gdb 89268	2.4916	1.82556	1.33421	3.4507	70.71	-0.2201	0.0494	0.2695	984.3021	0.147007	-438.995101	-438.987145	-438.9862	-439.026931	31.936	
O	 0.1442023366	 1.3891873279	-0.2709437074	-0.418051
C	 0.0391973179	 0.0100636919	-0.0056518879	 0.112978
C	 0.2892982811	-0.5174338954	 1.4545024561	-0.369666
C	-1.1367140988	-1.1482000856	 1.4314992444	 0.416555
O	-1.2652093885	-2.5232242505	 1.6306718497	-0.484343
C	-2.3097235815	-0.2761663271	 1.9332597158	-0.114528
C	-2.1641570638	 1.1553266412	 1.6209335978	-0.246644
N	-2.5869047245	 0.254392488	 0.527281461	-0.143337
C	-1.4067908318	-0.5615320531	 0.0321518883	-0.042351
H	 1.0785489849	 1.6145941645	-0.3204986753	 0.287937
H	 0.6324370605	-0.5698413093	-0.7258423794	 0.08195
H	 1.0775611424	-1.2717898012	 1.5158654298	 0.103258
H	 0.462155111	 0.2555771095	 2.2075863452	 0.099418
H	-1.1496115493	-2.7050167577	 2.5704776951	 0.279761
H	-3.1149364146	-0.6752181272	 2.5448425382	 0.093136
H	-2.9789088189	 1.8043919393	 1.9318221522	 0.118763
H	-1.1986264454	 1.6421249439	 1.5759947462	 0.135918
H	-1.7177119972	-1.1775209192	-0.81068334	 0.089247
157.4497	212.0263	238.9928	267.657	279.3706	336.5492	351.0057	442.7488	468.1756	546.589	631.0885	671.9717	716.5826	744.2535	820.482	867.6912	904.6199	937.7812	968.7186	1008.6502	1018.3031	1044.4563	1053.0571	1105.3258	1137.4035	1158.6138	1175.4448	1187.2535	1204.5496	1220.3581	1228.673	1262.2046	1308.4207	1312.9374	1345.1512	1394.5051	1424.1577	1464.3999	1514.0112	2999.3999	3057.826	3119.2413	3120.4406	3125.0628	3142.9218	3226.8215	3787.9853	3817.1319
OC1CC2(O)C3CN3C12	O[C@H]1C[C@@]2(O)[C@H]3CN3[C@@H]12	
InChI=1S/C6H9NO2/c8-3-1-6(9)4-2-7(4)5(3)6/h3-5,8-9H,1-2H2	InChI=1S/C6H9NO2/c8-3-1-6(9)4-2-7(4)5(3)6/h3-5,8-9H,1-2H2/t3-,4+,5-,6+,7?/m0/s1
