17
gdb 54638	4.0237	1.1264	0.95104	3.4155	75.53	-0.2407	-0.0334	0.2074	1214.5423	0.137875	-418.024246	-418.016381	-418.015437	-418.056945	30.472	
N	 0.7108155776	 0.2538261798	 0.9253385379	-0.537479
C	-0.2301723962	 0.3226921126	-0.0749204028	 0.31644
O	-0.1323427176	 1.0988101716	-1.0099864549	-0.357111
C	-1.3570768814	-0.6416726814	 0.0189151836	 0.231687
C	-1.4182214618	-1.7767069213	 0.7319727956	-0.181475
C	-2.7398683263	-2.4394532384	 0.560272891	-0.077666
N	-3.8645830002	-1.5752635418	 1.0326691667	-0.334304
C	-3.5035200882	-1.5888807602	-0.3989767982	-0.055555
C	-2.6078198884	-0.4289519703	-0.8149896756	-0.290753
H	 1.4045982958	 0.985688093	 0.9212466775	 0.257917
H	 0.4529585498	-0.1208171345	 1.8229091333	 0.256335
H	-0.6274667463	-2.1780988878	 1.3548908876	 0.100763
H	-2.8460988532	-3.5166013833	 0.6236291788	 0.092577
H	-4.6860624971	-2.1653310219	 1.1577708788	 0.229528
H	-4.2044289313	-2.0158871662	-1.1078711182	 0.092107
H	-3.0714664188	 0.542536455	-0.6144140455	 0.130154
H	-2.3672468765	-0.451429745	-1.8835786655	 0.126834
63.022	124.2451	192.6371	331.3797	349.8871	394.1273	409.9303	493.1798	533.9092	550.481	649.0744	705.1707	752.1605	811.0451	826.7906	849.8314	901.9082	921.2295	952.9122	967.5702	1004.365	1070.3005	1082.1099	1111.0333	1133.7692	1166.4298	1187.5991	1238.7006	1276.0805	1328.7167	1358.9875	1395.6503	1407.6716	1462.119	1614.4726	1668.5475	1772.2753	3050.0351	3085.5496	3167.7609	3177.4794	3201.3272	3474.4877	3587.9352	3716.0291
NC(=O)C1=CC2NC2C1	NC(=O)C1=C[C@H]2N[C@H]2C1	
InChI=1S/C6H8N2O/c7-6(9)3-1-4-5(2-3)8-4/h1,4-5,8H,2H2,(H2,7,9)	InChI=1S/C6H8N2O/c7-6(9)3-1-4-5(2-3)8-4/h1,4-5,8H,2H2,(H2,7,9)/t4-,5+/m1/s1
