19
gdb 116613	2.23141	1.27986	0.875	1.7088	82.36	-0.2485	-0.023	0.2255	1348.4744	0.15888	-419.227596	-419.218259	-419.217314	-419.26255	33.097	
C	 0.2119040592	 1.2851372104	-0.0831063291	-0.368753
C	-0.1082572618	-0.1641783674	 0.3002423929	-0.156026
N	-1.5115833329	-0.4761507682	 0.077184011	-0.299094
C	-1.9246577639	-0.9779003124	-0.9949666317	 0.416027
C	-3.3115355746	-1.4172860075	-1.4495030106	-0.346126
C	-2.6438946514	-1.9005430147	-2.7680288392	-0.166254
N	-1.359021742	-1.4123715728	-2.2357999573	-0.11889
C	-0.171811054	-1.3191235049	-2.9141728891	 0.135832
O	-0.027561116	-1.7332007844	-4.0422480667	-0.310181
H	 1.2471184209	 1.5302316528	 0.1731547243	 0.118378
H	 0.0770520019	 1.4514518309	-1.1569114856	 0.117481
H	-0.4505931479	 1.9731577387	 0.449206509	 0.132644
H	 0.5640807207	-0.8535611418	-0.232414489	 0.091697
H	 0.0885642913	-0.3001273637	 1.3691864607	 0.111085
H	-3.7604750575	-2.195444843	-0.8305221585	 0.1383
H	-4.0206824962	-0.5959782054	-1.5663262306	 0.138471
H	-2.6522851525	-2.9792223153	-2.9388845894	 0.133654
H	-2.9473954849	-1.3841729378	-3.6809572428	 0.135057
H	 0.6278375917	-0.8268867434	-2.3356842681	 0.096698
60.6793	77.5023	126.8718	172.5484	193.1594	209.735	278.3717	323.09	376.9429	446.2513	577.584	604.2525	723.3567	794.435	815.8522	833.4275	912.3173	955.0094	1028.7433	1046.3311	1051.9035	1075.6537	1114.7309	1141.7513	1157.8569	1186.1227	1194.8414	1243.0175	1302.7263	1314.3849	1353.87	1373.4655	1404.7011	1424.954	1468.9724	1489.4075	1498.3929	1517.2418	1525.2644	1783.1025	1816.4783	2985.7157	3003.9059	3038.2939	3055.9287	3074.0976	3089.52	3108.89	3121.0162	3123.1142	3144.5681
CCN=C1CCN1C=O	CCN=C1CCN1C=O	
InChI=1S/C6H10N2O/c1-2-7-6-3-4-8(6)5-9/h5H,2-4H2,1H3	InChI=1S/C6H10N2O/c1-2-7-6-3-4-8(6)5-9/h5H,2-4H2,1H3
