21
gdb 104651	2.30875	1.26707	0.99922	1.6635	79.66	-0.2404	-0.029	0.2113	1301.1483	0.179535	-424.220407	-424.210439	-424.209495	-424.255328	36.34	
C	 0.1126395683	 1.7111439324	 0.5594652026	-0.261129
O	 0.2082943467	 0.3022262256	 0.6674807438	-0.288001
C	-0.8935844915	-0.3894230838	 0.129004717	 0.328524
C	-1.1867682267	-0.3005891696	-1.3949884735	-0.300531
C	-1.3340571086	-1.8490237158	-1.4232439489	 0.054309
C	-0.731484281	-2.6181663	-2.5876354093	-0.408367
C	-0.6143418175	-1.9109412318	-0.0474515378	-0.303855
C	-2.1181808905	-0.1917872024	 1.007824011	 0.09747
O	-3.2610573161	-0.2189435707	 0.627917426	-0.249327
H	 1.015151439	 2.1267838125	 1.0125486053	 0.133228
H	 0.0577911691	 2.0355412977	-0.4889345721	 0.117182
H	-0.7640943112	 2.1117868996	 1.0899669756	 0.113704
H	-2.0524517766	 0.2919855018	-1.6947899105	 0.114691
H	-0.2948746117	 0.0319480447	-1.9341070602	 0.103114
H	-2.3885038433	-2.1121364033	-1.3010967004	 0.094245
H	 0.325501184	-2.3625870147	-2.7248042526	 0.11169
H	-0.7949285538	-3.6999132916	-2.4248785711	 0.116946
H	-1.2541246933	-2.3920258239	-3.5236692524	 0.11829
H	 0.4654428878	-2.053597171	-0.1488041135	 0.115351
H	-0.998092182	-2.593637799	 0.7150056126	 0.106044
H	-1.8575264208	-0.0551715766	 2.0832584482	 0.086422
77.6965	86.4213	138.0292	185.4966	199.5976	232.6797	242.3658	263.2004	333.9714	395.3336	411.4815	468.1964	571.6296	587.995	748.7429	824.2279	865.7693	897.013	928.5901	935.767	958.3977	1052.2411	1066.0548	1101.3922	1111.0846	1153.0959	1181.6975	1187.1602	1208.016	1228.9806	1233.2839	1272.0889	1282.7109	1296.9027	1377.3063	1396.8152	1411.9793	1456.9436	1478.3907	1487.4393	1490.2828	1495.6939	1496.7465	1506.9798	1825.1033	2867.4435	2987.0411	3023.4005	3040.1023	3055.1557	3060.4069	3066.591	3092.4589	3094.116	3115.203	3123.3892	3130.2628
COC1(CC(C)C1)C=O	CO[C@]1(C[C@@H](C)C1)C=O	
InChI=1S/C7H12O2/c1-6-3-7(4-6,5-8)9-2/h5-6H,3-4H2,1-2H3	InChI=1S/C7H12O2/c1-6-3-7(4-6,5-8)9-2/h5-6H,3-4H2,1-2H3/t6-,7+
