18
gdb 67340	2.78332	1.94425	1.33276	2.1722	75.82	-0.2221	-0.0173	0.2048	964.8672	0.148398	-401.91113	-401.903746	-401.902802	-401.942812	29.349	
C	-0.1282675477	 1.5568555913	 0.0180254153	-0.508038
C	-0.0083876591	 0.0540194295	 0.0287628016	 0.21792
C	 1.1312124289	-0.7821129028	-0.6799376147	-0.064952
C	 2.1184857386	-0.4469117595	 0.4510807717	-0.239996
C	 0.7724767627	-0.7975697629	 1.1080394078	-0.064935
N	 0.6672425733	-1.9846979331	 0.1466537763	-0.130091
C	-0.7661461197	-2.1771744448	-0.1423969639	-0.294499
C	-1.2716567847	-0.7355367141	-0.2321956679	 0.362577
O	-2.3794567587	-0.3175030676	-0.4503844852	-0.327541
H	 0.8241863578	 2.0584051434	 0.2075635696	 0.118373
H	-0.5105430798	 1.8981371942	-0.9491854067	 0.136188
H	-0.8462089544	 1.8839400633	 0.7767918022	 0.136036
H	 1.3139857672	-0.869552334	-1.7532426702	 0.088903
H	 2.9192901731	-1.1715784925	 0.6054365185	 0.113197
H	 2.4627821841	 0.5836929128	 0.5290957099	 0.105561
H	 0.5274331066	-0.9033917851	 2.1671913947	 0.088881
H	-0.909344804	-2.7235031144	-1.0801545794	 0.13118
H	-1.2580900344	-2.7376569038	 0.6590018505	 0.131234
106.7027	141.7018	268.4693	295.3046	332.1673	378.5174	535.3766	572.9418	608.8685	645.0604	694.4611	718.4848	820.2278	850.6978	853.8735	878.433	922.0575	1002.4002	1009.3583	1043.8673	1058.252	1083.9624	1108.2364	1117.4747	1125.8446	1159.0402	1186.735	1214.6641	1214.7338	1223.053	1287.4616	1289.1639	1331.3263	1419.3265	1461.8465	1485.5052	1485.645	1504.3758	1854.875	3042.4832	3052.9865	3081.9664	3089.4345	3099.1999	3099.4988	3105.9902	3118.3499	3158.8338
CC12C3CC1N3CC2=O	C[C@@]12[C@H]3C[C@@H]1N3CC2=O	
InChI=1S/C7H9NO/c1-7-4-2-5(7)8(4)3-6(7)9/h4-5H,2-3H2,1H3	InChI=1S/C7H9NO/c1-7-4-2-5(7)8(4)3-6(7)9/h4-5H,2-3H2,1H3/t4-,5+,7-
