18
gdb 32116	3.55605	1.17244	0.89248	2.3235	85.97	-0.208	-0.0295	0.1785	1309.3956	0.148685	-398.190011	-398.181071	-398.180126	-398.224207	32.168	
C	-0.0373904397	 1.4154792348	-0.0850712676	-0.324704
N	-0.1061607907	-0.0081740053	 0.1503587403	-0.34893
C	 0.6124324565	-0.6625043283	 1.1111726195	 0.382802
C	 1.3284873148	 0.0125500003	 2.1255802298	-0.092302
N	 1.9922173234	-0.6525125682	 3.0593872443	-0.227989
C	 1.9615976125	-1.9874274852	 3.0038710682	-0.090388
C	 1.266059414	-2.6668465702	 2.0022451126	 0.319129
C	 1.2381968279	-4.1695069665	 1.9331010516	-0.471277
N	 0.5956805248	-2.0008362387	 1.0574804963	-0.386975
H	 0.9819196524	 1.7634776556	-0.3076396423	 0.12657
H	-0.6750095559	 1.6611797127	-0.9362394506	 0.132914
H	-0.4063151867	 1.9807751887	 0.7791382778	 0.136872
H	-0.448642095	-0.6057297192	-0.5845402604	 0.24709
H	 1.3569648549	 1.0967401608	 2.1722594037	 0.100215
H	 2.5073036127	-2.5281898702	 3.7714650934	 0.098269
H	 0.2087998565	-4.5365814281	 1.9982673213	 0.138501
H	 1.6416101918	-4.5162531558	 0.9762446301	 0.137598
H	 1.8207698757	-4.6180991373	 2.7412816317	 0.122605
66.4705	73.7275	148.2529	200.6783	206.4179	235.1901	321.0931	407.0691	484.0097	491.2788	564.5995	599.3157	625.3415	731.5522	783.3405	865.6428	918.3612	946.6456	1009.2	1032.0536	1057.5809	1103.6369	1158.9537	1197.2353	1209.8579	1262.6821	1282.7661	1355.9205	1409.3836	1415.2839	1455.8154	1475.6754	1484.239	1487.7782	1492.6455	1521.4146	1551.1701	1592.7728	1619.3361	2995.5517	3040.4932	3053.1816	3100.1541	3125.9859	3128.2191	3166.4612	3171.0108	3639.6001
CNC1=CN=CC(C)=N1	CNc1cncc(C)n1	
InChI=1S/C6H9N3/c1-5-3-8-4-6(7-2)9-5/h3-4H,1-2H3,(H,7,9)	InChI=1S/C6H9N3/c1-5-3-8-4-6(7-2)9-5/h3-4H,1-2H3,(H,7,9)
