19
gdb 9721	2.69195	1.90634	1.6065	3.9309	74.2	-0.3067	0.0398	0.3465	924.4715	0.166976	-327.968224	-327.960074	-327.95913	-328.000763	30.45	
C	-0.1426363463	 1.5544124667	-0.0193494751	-0.438353
C	 0.041977097	 0.0282796751	-0.000403384	 0.112562
C	 0.8743851417	-0.5135041239	-1.1935521989	-0.220856
C	 1.3495397348	-1.9144617955	-0.7534961187	-0.21255
C	 1.3476145628	-1.8950699756	 0.8049679552	-0.21248
C	 0.8695215764	-0.4841859229	 1.2090018155	-0.220884
C	-1.2800590789	-0.6189521117	 0.0048044518	 0.270856
N	-2.3183371719	-1.1282456785	 0.0088506106	-0.351723
H	 0.8373531452	 2.041392627	-0.0233831948	 0.120755
H	-0.6913630972	 1.8756210185	-0.9090547826	 0.134058
H	-0.6947775827	 1.8971679961	 0.860146003	 0.134059
H	 0.311862062	-0.5197468664	-2.1302103327	 0.11475
H	 1.7276977795	 0.1615351195	-1.3260293301	 0.102285
H	 0.6629141275	-2.68079486	-1.1227379927	 0.121588
H	 2.3345205456	-2.1467253651	-1.1658364218	 0.103654
H	 0.6613968173	-2.6531355421	 1.1915824454	 0.121533
H	 2.3320072945	-2.115350183	 1.2252225354	 0.103679
H	 1.7217968171	 0.1944690251	 1.3290024213	 0.102298
H	 0.3028768756	-0.4682972132	 2.1430530534	 0.114769
72.9115	125.6231	185.7234	219.9157	239.956	300.5346	375.488	477.8532	560.1252	620.0449	658.3711	685.5197	800.3647	810.5451	884.6666	901.8814	916.6882	961.2969	998.8405	1049.8283	1066.6384	1079.4282	1132.8862	1167.0034	1226.3254	1231.094	1267.0449	1281.8351	1310.3629	1341.2331	1345.5472	1354.431	1411.1765	1481.1049	1490.095	1491.2691	1493.8435	1502.1007	1518.42	2346.9693	3039.5073	3039.8058	3045.8727	3059.8998	3070.2235	3090.2313	3102.1526	3107.1471	3115.4159	3119.2127	3119.3764
CC1(CCCC1)C#N	CC1(CCCC1)C#N	
InChI=1S/C7H11N/c1-7(6-8)4-2-3-5-7/h2-5H2,1H3	InChI=1S/C7H11N/c1-7(6-8)4-2-3-5-7/h2-5H2,1H3
