14
gdb 26566	2.39201	1.91144	1.06831	5.38	66.55	-0.2282	-0.0206	0.2076	1026.3445	0.103397	-470.065687	-470.057849	-470.056905	-470.098708	28.784	
N	-0.3953956992	 1.3590674736	-0.1008744952	-0.622484
C	-0.1523538832	-0.0523445013	-0.0645099312	-0.038186
C	-1.2518291499	-0.8455904486	 0.0188334274	 0.475479
O	-2.5050356574	-0.388073181	 0.0664658063	-0.411696
N	-1.1104180015	-2.2057157979	 0.0589884402	-0.372287
C	 0.1554132505	-2.7376316303	 0.0128577996	 0.094955
N	 1.2418016129	-2.0636400956	-0.0657622182	-0.310578
C	 1.1796294674	-0.6418808358	-0.1116284917	 0.32191
O	 2.191170168	 0.0325493351	-0.1859847371	-0.376794
H	 0.104683413	 1.8067780585	 0.6648816136	 0.256143
H	 0.0250276283	 1.7516759043	-0.9411204157	 0.256163
H	-2.3949470793	 0.583291115	 0.0271046123	 0.312044
H	-1.9304954504	-2.7894974438	 0.1200899198	 0.277869
H	 0.1834799807	-3.8255539621	 0.04911431	 0.137462
38.7869	155.4962	226.1063	269.7666	276.6325	341.855	452.9961	518.2062	526.4725	560.6403	594.0435	676.8067	716.7191	741.3585	808.7482	892.5182	935.8721	956.6939	1019.3195	1090.2517	1210.7803	1222.549	1281.7984	1322.0539	1403.7639	1430.5227	1554.8272	1632.2864	1664.8395	1739.0102	1762.3716	3146.2842	3472.6234	3521.9389	3585.524	3635.5691
NC1=C(O)NC=NC1=O	Nc1c(O)[nH]cnc1=O	
InChI=1S/C4H5N3O2/c5-2-3(8)6-1-7-4(2)9/h1H,5H2,(H2,6,7,8,9)	InChI=1S/C4H5N3O2/c5-2-3(8)6-1-7-4(2)9/h1H,5H2,(H2,6,7,8,9)
