17
gdb 50861	5.8719	0.74236	0.68732	2.2584	73.29	-0.2642	0.0041	0.2683	1614.8217	0.1356	-455.169999	-455.16087	-455.159926	-455.205168	32.051	
N	-0.2053316393	 1.1968834197	-0.2660871792	-0.432643
C	-0.1824289531	 0.0089060727	 0.1494873855	 0.120597
O	-1.0833140904	-0.8747482157	-0.3762469964	-0.235021
C	-1.036985437	-2.1785225524	 0.0943346036	 0.538762
O	-0.2641563714	-2.5820009179	 0.9264740108	-0.39219
N	-2.0081311643	-2.8879555108	-0.5313978942	-0.373378
C	-2.1505335872	-4.3022049271	-0.3629741586	 0.04765
C	-2.6482895684	-4.8282135041	 0.9551275051	-0.23858
C	-3.547017137	-4.8561271695	-0.2538537584	-0.287382
H	 0.5151961939	 1.7380404295	 0.2092777657	 0.236188
H	 0.4688265264	-0.4497053096	 0.8943615258	 0.142552
H	-2.4986326702	-2.4237945562	-1.2798828154	 0.263467
H	-1.412689074	-4.9045088035	-0.8874244814	 0.108012
H	-2.2231782122	-5.7577799685	 1.3141567924	 0.125337
H	-2.8601578838	-4.0983389816	 1.726376077	 0.131551
H	-4.3667994692	-4.1468898692	-0.2851061915	 0.121702
H	-3.7514461029	-5.804764186	-0.7362862606	 0.123376
56.0633	61.0914	125.7134	127.8391	141.8917	249.0817	347.2609	385.6853	485.8984	506.3356	542.2938	764.6263	772.4719	780.5492	838.2576	848.8732	854.0083	938.7316	997.9846	1036.6931	1064.7569	1072.3167	1081.9079	1100.806	1128.2739	1193.7441	1197.4308	1223.0545	1267.3606	1285.6288	1388.111	1405.0847	1463.6704	1500.4019	1521.3887	1749.1265	1846.9829	3129.6758	3135.6858	3141.3265	3154.3525	3225.5885	3245.1577	3508.7944	3629.7106
N=COC(=O)NC1CC1	[NH][CH]OC(=O)NC1CC1	
InChI=1S/C5H8N2O2/c6-3-9-5(8)7-4-1-2-4/h3-4,6H,1-2H2,(H,7,8)	InChI=1S/C5H8N2O2/c6-3-9-5(8)7-4-1-2-4/h3-4,6H,1-2H2,(H,7,8)
