15
gdb 34179	4.57502	1.49949	1.35048	1.7131	74.17	-0.2342	0.0319	0.2661	933.8381	0.112685	-383.391779	-383.385339	-383.384395	-383.422337	26.939	
C	 0.0276425577	-1.1002422943	-0.039462937	-0.363045
C	-0.012299421	 0.1011203419	-0.0331155405	 0.17214
C	-0.0299875353	 1.5260255769	-0.003912854	 0.345217
O	-1.0485420159	 2.1614279038	-0.7325673428	-0.274168
C	-0.766732325	 3.5066227641	-0.4859409409	 0.041473
C	-0.1858138319	 3.7310183631	 0.8963922235	-0.135625
C	 0.7193502453	 3.7675064127	-0.3370568131	-0.135629
C	 1.2517348224	 2.3691885159	 0.0199693531	-0.177879
C	 0.3538424196	 2.3329668556	 1.2434076504	-0.177881
H	 0.0569093156	-2.1615045396	-0.049672894	 0.186924
H	-1.4446437488	 4.2008047592	-0.9628792941	 0.111006
H	-0.4859473531	 4.5090632836	 1.5834596319	 0.098702
H	 1.2623272586	 4.5795363454	-0.7988787199	 0.098702
H	 2.2381662586	 1.9635369874	-0.1509402678	 0.105032
H	 0.4985357533	 1.8933576744	 2.2194312652	 0.105032
151.3957	156.5941	443.7464	480.8752	529.6687	574.1471	576.3566	636.3499	689.1124	719.8599	750.3658	757.843	764.5152	812.5128	833.3497	865.3331	900.8636	949.3345	953.9325	995.2141	1009.3197	1026.8978	1040.9058	1047.8018	1110.2447	1153.7163	1187.4767	1193.0321	1254.3068	1309.9351	1349.6261	1380.1971	2246.1335	3209.9726	3216.4266	3221.7737	3226.0957	3233.0348	3504.6733
C#CC12OC3C4C3C1C24	C#C[C@]12O[C@H]3[C@@H]4[C@H]3[C@H]1[C@H]24	
InChI=1S/C8H6O/c1-2-8-5-3-4(6(5)8)7(3)9-8/h1,3-7H	InChI=1S/C8H6O/c1-2-8-5-3-4(6(5)8)7(3)9-8/h1,3-7H/t3-,4+,5-,6+,7+,8-
