21
gdb 116389	2.42923	1.36728	0.92456	3.6426	80.14	-0.2278	0.0321	0.2599	1303.05	0.18508	-420.448112	-420.439109	-420.438165	-420.482163	33.974	
C	-0.0991847131	 1.5670702507	 0.0121937142	-0.406037
C	 0.0191733807	 0.0407985119	 0.0084765787	-0.170245
C	 0.7603275803	-0.5155647182	-1.2128274042	-0.076422
N	 2.1703352703	-0.1215653303	-1.2077211434	-0.312208
C	 2.9146090851	-0.7366975368	-2.2971632424	-0.161333
C	 3.0049420109	-2.230549802	-2.0131688388	-0.131691
N	 1.6727256547	-2.7509297946	-1.7469079732	-0.32713
C	 0.6049368871	-2.0438089065	-1.2751690803	 0.430745
O	-0.4424291158	-2.5896396841	-0.9750267215	-0.385074
H	 0.8775910918	 2.0596225595	 0.0795320804	 0.111028
H	-0.5983310078	 1.9308696235	-0.8934889103	 0.113877
H	-0.6852896431	 1.9067886177	 0.871373012	 0.119755
H	 0.5405659322	-0.2966256776	 0.9115610344	 0.103071
H	-0.9720003512	-0.4184897574	 0.0200198532	 0.128591
H	 0.2400122588	-0.1529168211	-2.1240169512	 0.079365
H	 2.238173971	 0.8880815425	-1.2617365232	 0.224131
H	 2.4449526539	-0.5812722123	-3.2869213407	 0.08765
H	 3.9223294257	-0.3126974908	-2.3357796104	 0.105922
H	 3.4301969719	-2.7567851545	-2.8751378463	 0.107044
H	 3.6681392655	-2.3960683421	-1.1528610142	 0.114141
H	 1.5330948509	-3.7512409476	-1.7370067027	 0.244822
63.0053	96.3507	148.2444	201.0384	238.3651	314.6887	328.9823	400.1667	453.0274	478.1059	521.0045	577.646	666.9297	687.6708	758.3439	788.6322	863.2153	901.8935	917.6096	978.6975	1022.7299	1063.9757	1087.6467	1107.8042	1126.5829	1157.0257	1178.0614	1256.412	1257.3705	1283.0701	1294.6744	1331.1264	1351.5828	1379.7258	1397.1116	1409.5774	1417.1044	1479.9473	1483.9339	1486.5558	1498.4483	1501.0969	1513.3942	1520.6223	1781.4575	2881.4518	2923.7647	3006.5046	3026.5486	3047.9166	3060.4084	3081.9624	3082.3374	3102.7162	3116.4075	3536.423	3603.4601
CCC1NCCNC1=O	CC[C@H]1NCCNC1=O	
InChI=1S/C6H12N2O/c1-2-5-6(9)8-4-3-7-5/h5,7H,2-4H2,1H3,(H,8,9)	InChI=1S/C6H12N2O/c1-2-5-6(9)8-4-3-7-5/h5,7H,2-4H2,1H3,(H,8,9)/t5-/m1/s1
