12
gdb 5017	3.33558	2.53029	1.43883	2.5034	61.95	-0.2218	-0.0528	0.169	782.2138	0.085581	-414.685239	-414.679032	-414.678088	-414.715676	23.626	
O	-0.0712852863	 1.285236796	 0.1723289762	-0.371277
C	 0.0119281831	-0.0407487651	 0.0397401303	 0.377821
N	 1.152321219	-0.6197287763	-0.0797776914	-0.348419
C	 1.151521665	-2.0020198552	-0.213070896	-0.092006
C	 0.0160520169	-2.7095615748	-0.2179306942	 0.02853
O	-1.2012912878	-2.106735475	-0.091812571	-0.227067
C	-1.2929680667	-0.7384027419	 0.0453040603	 0.333607
N	-2.4001107414	-0.1385155793	 0.1650118261	-0.503519
H	 0.8400186802	 1.6144983202	 0.1532190373	 0.30591
H	 2.1138588168	-2.4863712012	-0.3135213428	 0.124703
H	-0.0686449794	-3.7825524137	-0.3167083325	 0.140654
H	-3.1739926295	-0.8048090037	 0.1439528175	 0.231062
100.6906	258.3427	335.2199	422.7633	508.4062	528.2059	562.6684	569.2479	606.3547	745.4634	790.1869	795.4874	880.2778	899.1066	926.3881	999.4726	1052.4859	1149.9554	1255.8949	1269.8187	1297.9121	1416.4685	1455.5712	1635.8971	1674.9004	1739.4528	3215.6508	3245.2729	3479.9138	3748.3748
OC1=NC=COC1=N	OC1=C(OC=C[N]1)[NH]	
InChI=1S/C4H4N2O2/c5-3-4(7)6-1-2-8-3/h1-2,5H,(H,6,7)	InChI=1S/C4H4N2O2/c5-3-4(7)6-1-2-8-3/h1-2,5H,(H,6,7)
