13
gdb 25453	2.25132	1.74643	0.9835	3.5412	75.59	-0.2546	-0.0727	0.182	1090.6851	0.090947	-415.67924	-415.671945	-415.671001	-415.711363	26.512	
O	-0.0782145626	-0.0104248358	 7.3957*^-6	-0.275575
C	-0.0361894376	 1.1886212161	 0.008382088	 0.171736
N	 1.1667638063	 1.9105980108	 0.000249899	-0.130826
C	 2.4279015735	 1.3515226927	-0.018020899	-0.062128
C	 3.3499545772	 2.3630570301	-0.0208417843	-0.152236
C	 2.6407215612	 3.5978328938	-0.0037703394	-0.248608
C	 1.2969506603	 3.3049315722	 0.0090958537	 0.242985
C	 0.1799489633	 4.1672196996	 0.0279763595	 0.219529
N	-0.7399703696	 4.872838193	 0.0435066215	-0.349026
H	-0.9161099431	 1.8507719595	 0.0231574511	 0.143057
H	 2.5272162434	 0.2791267958	-0.027073745	 0.169666
H	 4.4216139926	 2.240712205	-0.0337368052	 0.130768
H	 3.0588372549	 4.592178577	-0.0010901655	 0.140659
136.6255	143.3483	154.5649	252.1253	269.6266	468.4387	503.3108	561.8057	610.1765	632.9472	669.397	782.6295	826.0447	857.0521	902.6094	910.5773	1038.7063	1041.1567	1084.6422	1166.4798	1257.9913	1316.9957	1354.0821	1435.7841	1453.2345	1483.8373	1592.537	1830.4033	2335.0049	3028.0288	3257.1036	3269.9196	3293.966
O=CN1C=CC=C1C#N	O=Cn1cccc1C#N	
InChI=1S/C6H4N2O/c7-4-6-2-1-3-8(6)5-9/h1-3,5H	InChI=1S/C6H4N2O/c7-4-6-2-1-3-8(6)5-9/h1-3,5H
