19
gdb 50622	3.27873	1.12491	0.89282	2.7179	86.59	-0.2256	-0.0416	0.184	1293.6013	0.160257	-385.911509	-385.903069	-385.902125	-385.945716	31.381	
O	-0.6415149058	 0.3511652241	 0.1607231814	-0.246437
C	-0.2394747886	 1.479986885	 0.0605936822	 0.146314
C	 1.2329954025	 1.8850200055	-0.0264426235	-0.109272
C	 1.4387649247	 2.6340696342	-1.3532698499	-0.225045
C	 2.8460538395	 3.2330654497	-1.5492272498	-0.267045
C	 3.0644069902	 4.5227284264	-0.8084058231	-0.076313
C	 2.7266414614	 4.7586500076	 0.4668506508	-0.059553
C	 2.1350271615	 3.831370991	 1.4256769436	-0.086123
C	 1.5597301552	 2.6312009616	 1.2430997845	-0.083465
H	-0.9416031771	 2.3457826287	 0.031501843	 0.079035
H	 1.7960507834	 0.9427603413	-0.0373042221	 0.102897
H	 1.2299802249	 1.9313279054	-2.1680706776	 0.110944
H	 0.6998465586	 3.4397339989	-1.4382072733	 0.110584
H	 3.5997219236	 2.4931141853	-1.2436603474	 0.12074
H	 3.0108824273	 3.4036022971	-2.6180696974	 0.105801
H	 3.5319162694	 5.3295196622	-1.3672947202	 0.093236
H	 2.9582954582	 5.7403427982	 0.8735593047	 0.088586
H	 2.2072350667	 4.164266031	 2.4597790984	 0.092477
H	 1.2463796044	 2.1023533368	 2.1421029856	 0.102637
38.2547	57.3939	187.8478	233.3704	291.7812	307.5991	394.2499	413.4606	494.9946	575.1238	608.0316	714.4884	785.6671	817.014	857.0013	879.1192	909.8117	956.1488	1000.382	1006.7075	1016.8741	1028.2912	1070.8623	1085.0302	1123.8252	1190.7736	1240.3582	1259.722	1276.3579	1295.5121	1345.4161	1367.1608	1386.4935	1418.9243	1427.3915	1458.4787	1477.043	1490.7273	1675.868	1708.5909	1831.3505	2860.1355	3007.4804	3023.713	3029.3188	3067.5691	3072.2035	3123.4152	3140.1028	3149.8852	3167.4789
O=CC1CCC=CC=C1	O=C[C@H]1CCC=CC=C1	
InChI=1S/C8H10O/c9-7-8-5-3-1-2-4-6-8/h1-3,5,7-8H,4,6H2	InChI=1S/C8H10O/c9-7-8-5-3-1-2-4-6-8/h1-3,5,7-8H,4,6H2/t8-/m1/s1
