15
gdb 31327	2.90514	1.27391	0.89198	4.3918	75.88	-0.2187	-0.0496	0.1691	1235.8106	0.112952	-453.984046	-453.97558	-453.974635	-454.017858	29.389	
C	-0.08548593	 1.5061225242	 0.0803412948	-0.327406
N	-0.0383734329	 0.0668088496	-0.1219595821	-0.388458
C	-1.1501607915	-0.706483249	-0.0490795818	 0.296025
C	-1.2764600973	-2.0896813806	 0.0059849262	 0.162549
O	-2.6419325316	-2.3522121359	 0.0203710869	-0.159206
C	-3.2155983381	-1.1556298264	-0.020777015	 0.098397
N	-2.4101269944	-0.1359590191	-0.0609006879	-0.32566
C	-0.3292007572	-3.1622750706	 0.0502310969	 0.054007
O	-0.5778142352	-4.3507269787	 0.1001513055	-0.303405
H	 0.8571310302	 1.9376272918	-0.2629084028	 0.131439
H	-0.9018958888	 1.9291751958	-0.5061700511	 0.166226
H	-0.2405457489	 1.7825819398	 1.1318497081	 0.130005
H	 0.839783297	-0.3905093671	 0.0586689377	 0.256368
H	-4.2951084263	-1.1272713719	-0.0157273061	 0.163689
H	 0.725120385	-2.7939758418	 0.0347514908	 0.045431
77.7453	103.7335	150.1838	157.2938	224.3457	248.4035	364.9077	375.1924	451.6328	581.4884	633.6277	715.0682	754.9545	809.9532	890.1089	954.1428	1003.6813	1030.8829	1102.1926	1149.7255	1184.0193	1218.1284	1266.618	1329.2051	1395.1449	1440.9484	1468.2468	1481.7565	1491.7994	1517.3298	1561.6822	1666.6476	1769.3266	2825.7964	3015.341	3104.01	3150.8921	3266.6661	3647.5895
CNC1=C(OC=N1)C=O	CNc1c(ocn1)C=O	
InChI=1S/C5H6N2O2/c1-6-5-4(2-8)9-3-7-5/h2-3,6H,1H3	InChI=1S/C5H6N2O2/c1-6-5-4(2-8)9-3-7-5/h2-3,6H,1H3
