23
gdb 122303	4.51297	0.7425	0.71452	1.0367	87.91	-0.2474	0.0839	0.3313	1719.7658	0.205075	-388.257583	-388.247886	-388.246942	-388.293071	35.757	
C	-0.2291348818	 1.4837005908	-0.1208256929	-0.384012
C	 0.0200420963	-0.010291184	 0.0007536206	-0.016761
O	 0.6145521671	-0.4674020947	-1.1951920371	-0.247039
C	 0.8961292126	-1.8547288006	-1.1832399902	-0.188184
C	 1.5810390505	-2.2274438237	-2.4574743841	 0.385043
C	 0.8309768239	-2.5157421266	-3.7289315067	-0.310117
C	 1.6927232556	-3.5976072292	-3.1384855394	-0.109054
C	 3.1667223646	-3.3349582162	-3.4714811778	-0.219138
C	 3.0520339701	-1.931684279	-2.7887598273	-0.28098
H	 0.7114064607	 2.0163751591	-0.2879437646	 0.125646
H	-0.894678674	 1.6938453426	-0.962911647	 0.125946
H	-0.6907344023	 1.8704777503	 0.7927542941	 0.112004
H	 0.6782307895	-0.2238438826	 0.861053477	 0.081561
H	-0.9274616889	-0.5462427248	 0.1855134562	 0.081058
H	 1.5360616132	-2.0994210855	-0.3164714346	 0.078945
H	-0.0357709099	-2.4364577906	-1.0689734627	 0.079104
H	-0.2393693805	-2.6542449835	-3.6117010813	 0.108511
H	 1.1177124916	-2.0301358402	-4.6595047632	 0.102261
H	 1.2753878551	-4.5478184529	-2.8249365708	 0.081993
H	 3.853704097	-3.9976035454	-2.9404043215	 0.100892
H	 3.4238374716	-3.3497140378	-4.5359301128	 0.094876
H	 3.2323344915	-1.0545151663	-3.4175662811	 0.097825
H	 3.6789270866	-1.8533585992	-1.8967719829	 0.099622
47.5317	78.4271	95.3125	130.248	216.9328	244.7244	292.0892	328.0149	349.2318	432.6156	478.3068	683.1845	741.6975	785.1312	820.8283	842.9497	880.2394	918.8829	943.6571	950.4628	970.8182	973.843	1020.7176	1038.8982	1043.9427	1084.7811	1116.0985	1135.8964	1154.3249	1160.7136	1186.7851	1217.6932	1224.0735	1241.9673	1268.3053	1279.8071	1295.1899	1326.6477	1374.3998	1398.0075	1411.8565	1457.7381	1482.5969	1482.7898	1486.3973	1499.3933	1507.0862	1513.995	1534.7638	2933.5231	2949.4512	2962.038	2968.2729	3043.3901	3044.0445	3052.9546	3092.7055	3102.8241	3111.4558	3117.9483	3120.6723	3172.3992	3195.9318
CCOCC12CC1CC2	CCOC[C@]12C[C@H]1CC2	
InChI=1S/C8H14O/c1-2-9-6-8-4-3-7(8)5-8/h7H,2-6H2,1H3	InChI=1S/C8H14O/c1-2-9-6-8-4-3-7(8)5-8/h7H,2-6H2,1H3/t7-,8+/m1/s1
