19
gdb 67963	2.29489	1.81198	1.3095	4.3053	76.7	-0.2315	0.0297	0.2613	1039.4697	0.160521	-419.209794	-419.20166	-419.200716	-419.242154	31.912	
C	-0.2352260227	 1.6601741598	-0.0544824846	-0.461407
C	-0.0046557423	 0.1617797603	 0.0348769866	 0.315084
C	-1.2774368641	-0.7047920453	-0.0290214265	-0.270433
C	-0.9386353714	-1.912324227	 0.8645530919	-0.09417
O	-0.0888716918	-1.3934205901	 1.8869675937	-0.24495
C	 0.7509414629	-0.4499754531	 1.276485184	-0.018605
C	 1.7639890782	-1.0033584264	 0.2505435968	 0.357015
N	 2.7497134472	-1.7858589076	 0.3700708243	-0.555634
N	 1.1258162657	-0.3281333495	-0.7838729223	-0.365696
H	 0.7071747395	 2.2039252505	 0.0558379943	 0.125812
H	-0.6716776019	 1.9363457666	-1.0213610755	 0.117606
H	-0.9250645434	 1.9924167683	 0.727797407	 0.125109
H	-2.1194857479	-0.1474904092	 0.3932601534	 0.111099
H	-1.5416258359	-0.9924681641	-1.050863249	 0.099877
H	-1.807928484	-2.3607603298	 1.3499134917	 0.113943
H	-0.4170518326	-2.694224347	 0.2942611669	 0.108114
H	 1.1504740587	 0.2222215047	 2.036485947	 0.100891
H	 3.1780544821	-1.9964523087	-0.5341689506	 0.204578
H	 1.1195045838	-0.5663981624	-1.7663040991	 0.231768
95.6416	180.4211	212.5713	255.5697	293.9041	336.6687	365.2946	407.8256	467.2181	597.1961	630.1298	638.366	715.7638	807.9468	835.6113	845.8257	903.5974	931.707	956.9864	972.6827	995.741	1033.9417	1062.5292	1125.7439	1143.3459	1156.0441	1196.1571	1227.4201	1229.875	1256.6464	1311.1134	1335.9019	1337.542	1368.7957	1390.5239	1410.3291	1476.8583	1488.3065	1495.2701	1520.5513	1794.0245	3005.2876	3030.5735	3053.0732	3094.6936	3098.9454	3110.0234	3116.1923	3117.2742	3444.0882	3582.9049
CC12CCOC1C(=N)N2	C[C@]12CCO[C@H]1[C]([NH])N2	
InChI=1S/C6H10N2O/c1-6-2-3-9-4(6)5(7)8-6/h4H,2-3H2,1H3,(H2,7,8)	InChI=1S/C6H10N2O/c1-6-2-3-9-4(6)5(7)8-6/h4H,2-3H2,1H3,(H2,7,8)/t4-,6-/m0/s1
