17
gdb 47467	3.37312	1.10548	0.88929	5.1773	72.24	-0.2376	-0.0362	0.2014	1268.4469	0.13702	-418.036775	-418.028297	-418.027353	-418.070794	30.659	
O	-0.2352645434	 0.1410096242	 0.6407120076	-0.29386
C	-0.158365964	 1.2608145032	 0.2118923519	 0.386468
C	-1.3213087164	 2.1454559244	-0.2663304149	-0.280521
N	-0.7472136948	 3.4436745878	-0.6349938986	-0.292345
C	 0.5357788103	 3.5409967383	 0.083851485	-0.213313
C	 1.1179554864	 2.1134325943	 0.1193369985	-0.107087
C	 2.1299077041	 1.8165127535	 1.2375456295	-0.355205
C	 2.8573791149	 0.5636449658	 1.041919013	 0.277074
N	 3.468049059	-0.4017521846	 0.8703645073	-0.305753
H	-1.8660031227	 1.6767144265	-1.090081706	 0.140972
H	-2.0298245924	 2.2494893894	 0.5673159773	 0.142772
H	-0.5658725714	 3.4602193382	-1.6327331392	 0.228498
H	 1.1917639088	 4.2670604107	-0.4007301466	 0.120253
H	 0.3482333273	 3.8961746692	 1.1068765838	 0.116021
H	 1.5772755544	 1.8990628288	-0.8554337475	 0.122827
H	 2.8672557115	 2.6257882172	 1.2940604899	 0.154303
H	 1.6194397784	 1.780582413	 2.2063420589	 0.158896
53.2581	79.3586	135.099	206.624	241.0114	329.6674	378.1912	428.8845	490.7004	566.2279	632.0026	652.6053	721.9366	795.6618	881.7672	919.6908	940.7208	975.458	1003.362	1052.4314	1076.8623	1103.4542	1137.2414	1183.2878	1209.4684	1266.4081	1281.3543	1309.643	1323.5686	1357.6254	1377.8792	1460.3538	1461.8246	1467.7217	1502.7455	1854.1247	2366.824	3011.0964	3018.7996	3025.8572	3043.035	3083.5371	3099.7244	3109.1986	3528.4999
O=C1CNCC1CC#N	O=C1CNC[C@H]1CC#N	
InChI=1S/C6H8N2O/c7-2-1-5-3-8-4-6(5)9/h5,8H,1,3-4H2	InChI=1S/C6H8N2O/c7-2-1-5-3-8-4-6(5)9/h5,8H,1,3-4H2/t5-/m1/s1
