16
gdb 36278	4.70841	1.03331	0.96627	6.5862	73.22	-0.2284	0.0363	0.2647	1203.5335	0.124392	-396.817552	-396.810027	-396.809083	-396.85022	28.835	
N	 0.232915871	-1.147600151	 0.8749410599	-0.309628
C	 0.0578904381	-0.0956053477	 0.4307431185	 0.269344
C	-0.1924140715	 1.2418906212	-0.1386361771	-0.270256
N	 1.0645011003	 1.9825500636	-0.22647871	-0.070033
C	 1.5794553887	 2.7940648167	-1.28588969	-0.059873
C	 0.5799664782	 3.8676743842	-1.8541573026	-0.075846
N	-0.7356386713	 3.6843880229	-1.1948104837	-0.335849
C	 0.358576617	 4.4043390107	-0.4995123819	-0.075841
C	 1.3523773453	 3.3443550292	 0.1032323575	-0.059858
H	-0.65760585	 1.1252971431	-1.1199391866	 0.161571
H	-0.9196647972	 1.7612911493	 0.4893055094	 0.161527
H	 2.5002193252	 2.5122809619	-1.7849299516	 0.109012
H	 0.6798590302	 4.3811148837	-2.8006737935	 0.104303
H	-1.3666817128	 4.3880895761	-1.5767329473	 0.238125
H	 0.2487863534	 5.4261428063	-0.1628255348	 0.104301
H	 2.0628797354	 3.5720372096	 0.8903795938	 0.109002
44.5745	138.2514	230.3298	242.8257	379.1303	400.0341	496.9666	501.0672	691.5437	730.5861	741.5261	746.4011	809.6173	860.3005	874.2061	897.2932	922.0007	922.9396	936.7839	1015.4726	1042.2145	1044.1035	1051.4682	1107.7297	1108.2197	1225.8007	1228.8454	1272.5216	1292.7701	1295.3959	1340.6283	1352.7857	1415.2961	1439.2318	2360.3864	3076.3138	3121.2136	3166.8049	3176.9941	3204.7254	3217.9017	3478.4755
N#CCN1C2C3NC3C12	N#CCN1[C@H]2[C@H]3N[C@H]3[C@@H]12	
InChI=1S/C6H7N3/c7-1-2-9-5-3-4(8-3)6(5)9/h3-6,8H,2H2	InChI=1S/C6H7N3/c7-1-2-9-5-3-4(8-3)6(5)9/h3-6,8H,2H2/t3-,4+,5-,6+,9?
