18
gdb 86128	2.49012	1.51663	0.98389	5.6748	74.74	-0.2325	-0.0601	0.1725	1197.0818	0.147314	-439.146753	-439.137608	-439.136664	-439.181014	32.557	
C	-0.239536484	 1.554785998	 0.0398808567	-0.402815
C	 0.118989494	 0.072020008	-0.0360704963	-0.113903
C	 1.007339972	-0.3510773142	-1.2247993175	-0.191647
N	 1.935978287	-1.3307873035	-0.6762195772	-0.082955
C	 2.8538802927	-2.0629315537	-1.5170628044	-0.346105
C	 1.9655363539	-1.412756138	 0.6876659072	 0.309537
O	 2.6926549768	-2.1048187142	 1.3655825055	-0.371967
C	 0.8864824866	-0.4309209625	 1.1828166597	 0.304198
O	 0.7077363022	-0.1239963036	 2.3293163264	-0.291151
H	 0.6616689777	 2.1763286463	 0.0346645379	 0.127106
H	-0.8664200721	 1.8558820169	-0.804499784	 0.120752
H	-0.7806104004	 1.7570496221	 0.9673485093	 0.148357
H	-0.8049084213	-0.5224033223	-0.0630196727	 0.12385
H	 0.4312908317	-0.7923240988	-2.046646188	 0.116981
H	 1.553688938	 0.5100505722	-1.6364671553	 0.116574
H	 3.521271393	-1.382293441	-2.0606351418	 0.130685
H	 3.4484842036	-2.7122819208	-0.8723249339	 0.171962
H	 2.3105463788	-2.6710633607	-2.2500530816	 0.130539
59.2092	114.16	147.7008	191.7969	204.0292	233.728	287.8056	331.3654	362.7414	475.9819	530.4813	577.4462	621.5829	738.9045	796.0744	904.0084	940.8057	966.6125	1017.4234	1071.1402	1104.6536	1143.8472	1152.5119	1165.111	1224.9895	1271.2315	1286.5622	1311.8151	1351.6424	1408.8842	1433.9289	1449.2163	1491.6318	1495.2723	1497.7299	1509.0775	1540.0315	1816.7255	1859.8646	2997.355	3015.9501	3017.5433	3042.6512	3048.5172	3068.4942	3110.733	3129.413	3145.191
CC1CN(C)C(=O)C1=O	C[C@H]1CN(C)C(=O)C1=O	
InChI=1S/C6H9NO2/c1-4-3-7(2)6(9)5(4)8/h4H,3H2,1-2H3	InChI=1S/C6H9NO2/c1-4-3-7(2)6(9)5(4)8/h4H,3H2,1-2H3/t4-/m0/s1
