16
gdb 132419	3.13842	1.34184	0.94549	3.7177	79.26	-0.191	-0.0278	0.1632	1177.3022	0.125278	-442.085971	-442.078056	-442.077112	-442.118371	30.319	
C	-0.0160971305	 1.4993133392	 0.0761526176	-0.493755
C	-0.0025317181	 0.0056999582	-0.0532756401	 0.405594
C	-0.0328571953	-0.6699208087	-1.2336046679	-0.247964
C	-0.015295889	-2.1013064782	-1.2189472052	-0.197943
C	 0.030840277	-2.7628091451	-0.0426734426	 0.182929
F	 0.0485379097	-4.0988947434	 0.0120717546	-0.079522
C	 0.0647945468	-2.094302539	 1.2477535545	 0.29086
N	 0.1090669379	-2.611568625	 2.4215120865	-0.578492
N	 0.0440494507	-0.7037178136	 1.1187008885	-0.407638
H	 0.8805635767	 1.8609351253	 0.5935363416	 0.142068
H	-0.0539616863	 1.9682078193	-0.9080931868	 0.143483
H	-0.8852989776	 1.8398824422	 0.6514399357	 0.142055
H	-0.0697214636	-0.1297772817	-2.1691350632	 0.102387
H	-0.038682272	-2.6652608039	-2.1449547467	 0.117292
H	 0.118709122	-3.6262228612	 2.3461170283	 0.220212
H	 0.0668962115	-0.2142826944	 2.0027759252	 0.258434
117.4075	151.3534	164.437	294.5092	317.9974	366.0599	408.8538	450.3909	528.1072	586.011	599.6613	661.4088	729.6936	749.8253	766.8395	781.0035	804.9552	922.6794	982.5527	1019.9802	1064.589	1103.2768	1141.6124	1219.4953	1271.309	1305.7724	1374.1044	1416.107	1423.0992	1476.8579	1478.0835	1509.4354	1625.5468	1674.3243	1710.5944	3027.6749	3078.0961	3139.9294	3194.7685	3228.8955	3521.2239	3602.0121
CC1=CC=C(F)C(=N)N1	C[C@H]1C=CC(=C([NH])N1)F	
InChI=1S/C6H7FN2/c1-4-2-3-5(7)6(8)9-4/h2-3H,1H3,(H2,8,9)	InChI=1S/C6H8FN2/c1-4-2-3-5(7)6(8)9-4/h2-4,8-9H,1H3/t4-/m0/s1
