21
gdb 91042	2.16456	1.83986	1.49447	1.7788	81.29	-0.2394	0.0708	0.3102	1034.4311	0.182308	-387.037959	-387.02966	-387.028716	-387.070111	33.373	
C	-0.3318781928	 1.5373168313	-0.0866064117	-0.420807
C	 0.087100402	 0.0810017126	-0.0546224599	 0.106088
O	 1.1926277792	-0.2640534843	-0.9469727913	-0.32667
C	 1.8184150907	-1.0808164854	 0.0767336607	 0.068965
C	 3.0130556218	-0.4490080944	 0.8215707118	-0.064615
C	 2.8562264731	 1.0363128787	 0.8769096732	-0.299161
C	 2.0154995394	 0.1960307997	 1.8044150797	-0.11901
C	 0.8309825074	-0.5656160017	 1.1411929049	 0.280945
C	 0.072603507	-1.4729407805	 2.0828865498	-0.496115
H	-0.560955647	 1.8377238105	-1.114392663	 0.127674
H	-1.2419552233	 1.6684052909	 0.5094042662	 0.115148
H	 0.4331716709	 2.2066164004	 0.3092289648	 0.126932
H	-0.781734988	-0.54095968	-0.3231944255	 0.06648
H	 1.9038960243	-2.1323821455	-0.2100288207	 0.070922
H	 3.9529729902	-0.9492664018	 1.0208573126	 0.083659
H	 3.6650912489	 1.5610710951	 1.3761300376	 0.109078
H	 2.440013755	 1.5560464656	 0.0240996734	 0.130327
H	 2.1080723901	 0.3030494398	 2.8794365184	 0.083642
H	-0.5414683795	-0.8922876257	 2.7821950836	 0.119119
H	-0.5910763325	-2.1504508296	 1.535325312	 0.117026
H	 0.7601626333	-2.0818794257	 2.6803682933	 0.120376
168.1664	195.126	200.2643	226.4924	232.8317	295.0841	341.4607	411.8565	509.9133	555.1097	627.8508	669.3388	754.5143	767.3824	839.594	862.3918	892.0318	903.7596	917.5294	958.4756	982.456	1010.5152	1034.2867	1044.4886	1059.8346	1100.5465	1106.782	1133.9553	1166.237	1172.381	1188.5818	1232.4714	1259.6393	1277.7315	1296.5509	1331.3226	1363.8849	1400.902	1413.2269	1416.7474	1481.4242	1490.6184	1492.9125	1496.1902	1499.7268	2966.6223	3020.9781	3040.445	3071.46	3082.7562	3096.5741	3100.7183	3136.91	3143.0072	3167.9741	3184.1332	3229.6709
CC1OC2C3CC3C12C	C[C@H]1O[C@H]2[C@H]3C[C@H]3[C@@]12C	
InChI=1S/C8H12O/c1-4-8(2)6-3-5(6)7(8)9-4/h4-7H,3H2,1-2H3	InChI=1S/C8H12O/c1-4-8(2)6-3-5(6)7(8)9-4/h4-7H,3H2,1-2H3/t4-,5+,6-,7+,8-/m1/s1
