17
gdb 85594	2.90818	1.38192	0.96026	0.68	70.53	-0.2464	0.0158	0.2621	1174.7786	0.137407	-455.216337	-455.207633	-455.206688	-455.250605	30.911	
C	-0.0757621699	 1.4495075075	 0.010608625	-0.345506
N	 0.0279084258	-0.0005498338	 0.0664045799	-0.108608
C	-1.2257896995	-0.735978216	 0.0404627678	-0.276356
C	-1.1546277681	-2.2093841971	 0.4232902375	 0.395507
O	-2.1654878836	-2.8279956856	 0.6917275363	-0.369236
N	 0.088285833	-2.7538426403	 0.442310467	-0.322338
C	 1.2964042354	-2.1085470644	-0.0307811533	-0.277427
C	 1.2560644737	-0.5834698282	-0.0270609704	 0.413417
O	 2.3002638217	 0.0374065659	-0.1199084381	-0.383465
H	 0.9314868925	 1.862420133	 0.0293599902	 0.174279
H	-0.5826342935	 1.7695684832	-0.908576974	 0.127445
H	-0.6479351736	 1.8214121739	 0.8679685963	 0.12984
H	-1.9287935408	-0.2734642262	 0.7407655363	 0.149904
H	-1.6970359792	-0.6759214508	-0.9528192957	 0.140401
H	 0.1169268851	-3.7404905676	 0.6582735802	 0.256592
H	 2.1418898377	-2.3903690376	 0.6019040645	 0.153369
H	 1.5500385833	-2.4181905059	-1.0554738697	 0.142182
47.7999	95.9296	132.0747	152.954	208.6985	325.5635	404.7234	427.4166	449.7102	518.1725	590.5	597.5233	653.9478	723.9811	807.5326	864.7969	1000.2337	1011.4343	1028.57	1107.7097	1148.2241	1156.3863	1250.251	1254.5623	1273.6305	1328.5927	1340.4667	1400.1752	1432.1553	1455.8597	1474.5274	1488.0867	1499.0377	1513.7162	1543.3996	1772.2529	1805.6286	2993.0018	3001.4978	3020.2928	3072.2348	3074.9628	3094.8762	3170.4046	3601.1946
CN1CC(=O)NCC1=O	CN1CC(=O)NCC1=O	
InChI=1S/C5H8N2O2/c1-7-3-4(8)6-2-5(7)9/h2-3H2,1H3,(H,6,8)	InChI=1S/C5H8N2O2/c1-7-3-4(8)6-2-5(7)9/h2-3H2,1H3,(H,6,8)
