21
gdb 81805	2.03168	1.79821	1.31325	1.1452	82.72	-0.2296	0.0728	0.3025	1101.433	0.182091	-383.207368	-383.198443	-383.197499	-383.24041	34.702	
C	 0.0839139593	 1.5494486998	-0.0499618443	-0.399301
C	 0.048205704	 0.0341802417	 0.0210916622	-0.030998
N	 1.0675265504	-0.5872973996	-0.9091910278	-0.180516
C	 0.9252774625	-2.0470068279	-0.7319105147	-0.289155
C	 1.6954128946	-1.3027458259	 0.2869063821	 0.301874
C	 3.1745463414	-1.4336516919	 0.4911645086	-0.50174
C	 0.7287120971	-0.6275759716	 1.2317812786	 0.292197
C	 0.9863397788	-0.0368832074	 2.5599381331	-0.314735
N	 0.1512575691	-1.2509127743	 2.4202824166	-0.37717
H	 1.095272158	 1.923202088	 0.1341158019	 0.12345
H	-0.2285407543	 1.888239485	-1.0424265604	 0.12604
H	-0.5906385683	 1.9932902212	 0.6903376475	 0.108948
H	-0.9657267252	-0.3345069706	-0.18612906	 0.072203
H	-0.0526164016	-2.4585503592	-0.4886864969	 0.110308
H	 1.4875619837	-2.6197354713	-1.463870308	 0.116406
H	 3.6692482781	-1.7180385971	-0.4418415315	 0.128355
H	 3.613299505	-0.4913575457	 0.8359034207	 0.121727
H	 3.3929690893	-2.204189942	 1.2395991631	 0.130093
H	 1.9396059226	-0.1985315795	 3.0567090637	 0.119825
H	 0.5070385014	 0.9075864892	 2.8053834963	 0.113546
H	-0.8335261559	-1.0053223609	 2.4992559292	 0.228641
102.5685	168.859	205.1909	218.6596	224.4237	233.3888	292.8259	387.3456	411.7972	503.7744	523.5644	567.814	654.1382	732.3486	807.3403	837.5247	881.8703	902.331	938.4076	956.0891	977.4541	1009.6969	1026.1051	1054.0541	1065.513	1091.7882	1115.0652	1126.6851	1143.3194	1177.6593	1221.496	1264.9735	1265.8161	1313.8054	1356.0353	1371.8865	1405.7949	1417.4194	1433.0689	1481.4074	1485.5287	1492.3962	1495.5719	1505.8241	1518.6043	3007.6932	3029.9442	3035.2586	3092.4168	3098.0204	3102.5035	3104.8112	3113.0466	3117.0792	3185.4285	3189.4079	3485.7022
CC1N2CC2(C)C11CN1	C[C@H]1N2C[C@]2(C)[C@]21CN2	
InChI=1S/C7H12N2/c1-5-7(3-8-7)6(2)4-9(5)6/h5,8H,3-4H2,1-2H3	InChI=1S/C7H12N2/c1-5-7(3-8-7)6(2)4-9(5)6/h5,8H,3-4H2,1-2H3/t5-,6-,7-,9?/m1/s1
