22
gdb 58676	2.02192	1.39832	1.1623	3.0015	83.51	-0.2368	-0.0228	0.214	1232.1422	0.191219	-404.334471	-404.324082	-404.323138	-404.369214	38.372	
C	-1.5297750836	-2.3404296691	 0.2016921827	-0.406504
C	-0.3237512755	-1.4021104929	 0.0197401473	-0.046422
C	-0.7499132987	-0.0538778796	-0.5864463518	-0.411721
C	 0.4441379249	-1.22636289	 1.3288306961	 0.222085
C	 1.429203812	-2.2901002957	 1.7544977183	-0.288859
N	 1.9039860349	-0.9794377912	 1.3923665206	-0.124113
C	 2.6905971914	-0.8284531534	 0.177016223	-0.321468
C	-0.2287572788	-0.5217240039	 2.4695154588	 0.145942
O	-1.3925876982	-0.2085504135	 2.5224425098	-0.271001
H	-2.2564395145	-1.907987668	 0.8921532583	 0.149829
H	-2.0256982499	-2.5083921094	-0.7599708182	 0.10862
H	-1.2197594496	-3.3146801815	 0.5936971201	 0.106889
H	 0.3590372418	-1.8867379338	-0.6877230154	 0.072193
H	-1.462045966	 0.4572622287	 0.0651887468	 0.147928
H	 0.1082838871	 0.6078649889	-0.7409991078	 0.110079
H	-1.229079367	-0.2115685084	-1.5579324827	 0.110817
H	 1.5347312459	-2.5772191607	 2.7986902783	 0.120325
H	 1.5583768807	-3.1070711484	 1.0435691035	 0.116152
H	 2.4344372702	-1.5309886147	-0.6294883363	 0.110303
H	 2.5844530947	 0.1920117477	-0.201864949	 0.133271
H	 3.7425070758	-0.985475819	 0.4356552015	 0.131298
H	 0.4746633923	-0.302960402	 3.303551146	 0.084356
92.1364	110.1598	164.8917	203.8415	210.3932	226.5831	241.5297	254.6982	263.4837	331.226	380.3057	436.0164	442.8362	510.3185	556.3576	727.8045	764.8099	887.6024	896.5494	932.2054	944.6535	968.4806	1028.7464	1056.7367	1082.812	1122.0575	1131.1718	1136.8339	1160.6066	1198.8682	1201.6775	1313.504	1323.4201	1345.6597	1374.2866	1395.6076	1416.4917	1432.6607	1450.4174	1485.0675	1488.5734	1499.829	1501.0895	1502.935	1509.8642	1520.9804	1816.5149	2890.9823	2990.3798	3034.9639	3036.8475	3042.4336	3075.1399	3076.6059	3097.4895	3102.6234	3110.9728	3132.651	3139.3678	3161.5389
CC(C)C1(CN1C)C=O	CC(C)[C@]1(CN1C)C=O	
InChI=1S/C7H13NO/c1-6(2)7(5-9)4-8(7)3/h5-6H,4H2,1-3H3	InChI=1S/C7H13NO/c1-6(2)7(5-9)4-8(7)3/h5-6H,4H2,1-3H3/t7-,8?/m0/s1
