17
gdb 64744	3.01387	1.1182	1.05392	2.0458	73.24	-0.2553	-0.044	0.2113	1191.064	0.134299	-418.017739	-418.008571	-418.007626	-418.052161	32.892	
C	-0.2011524737	 1.6760772581	 0.1734344576	-0.43325
C	 0.0412116819	 0.1764000001	 0.0547216679	 0.180025
C	-1.268462533	-0.6045960165	-0.2416565123	-0.384766
C	-1.7956539319	-0.3014082911	-1.5698997126	 0.264999
N	-2.1777373308	-0.0589469816	-2.6335816844	-0.304966
N	 1.1978813039	-0.1962694752	-0.8069517321	-0.348113
C	 1.8263666669	-1.0527726333	 0.2297755449	-0.287499
C	 0.7953097567	-0.5042731633	 1.2261580544	 0.358763
O	 0.6237370399	-0.5584099299	 2.405144224	-0.287565
H	 0.742626305	 2.1935166509	 0.3572186434	 0.134812
H	-0.6325284052	 2.0712580012	-0.7517054382	 0.146932
H	-0.8874469732	 1.8900994465	 0.9989058281	 0.131265
H	-1.0955160293	-1.6851795746	-0.1777167593	 0.152561
H	-2.0224485307	-0.357715177	 0.513285359	 0.169623
H	 0.9572729648	-0.6618581786	-1.6744917188	 0.235292
H	 1.7343464321	-2.139287376	 0.090066889	 0.129213
H	 2.8748931165	-0.8188969498	 0.4424236695	 0.142673
54.5058	99.5149	130.9874	173.487	196.5918	256.7926	334.2988	370.9576	395.0715	469.1536	528.2033	586.3839	626.7486	722.3009	759.4946	879.3182	907.5104	946.9994	965.8547	967.452	1007.9844	1051.362	1123.8384	1148.3237	1164.628	1186.9682	1257.9144	1305.5162	1327.5203	1364.6033	1407.4035	1456.9271	1477.3399	1483.1492	1494.0615	1915.7585	2357.5191	3008.7278	3041.0061	3044.3436	3071.6519	3087.5831	3113.7458	3133.1309	3547.7968
CC1(CC#N)NCC1=O	C[C@@]1(CC#N)NCC1=O	
InChI=1S/C6H8N2O/c1-6(2-3-7)5(9)4-8-6/h8H,2,4H2,1H3	InChI=1S/C6H8N2O/c1-6(2-3-7)5(9)4-8-6/h8H,2,4H2,1H3/t6-/m0/s1
