15
gdb 46407	3.94438	0.88013	0.76912	4.2299	67.92	-0.2798	-0.0119	0.2679	1406.2052	0.112025	-453.929009	-453.920522	-453.919577	-453.96346	29.443	
N	-0.319148228	 1.1371721628	-0.3312998227	-0.54337
C	-0.1517208553	-0.0712457931	-0.0454891138	 0.431103
O	 0.9386419824	-0.7579348975	 0.4368985929	-0.247652
C	 0.1642413633	-1.9954683849	 0.5672905349	-0.115029
C	-1.0581506781	-1.2993199304	-0.0536497127	-0.002965
O	-2.1736928503	-1.2716400849	 0.796332969	-0.248558
C	-3.2084177859	-0.4328154745	 0.3066624728	-0.204701
C	-4.3269836172	-0.4721955359	 1.2499200499	 0.268837
N	-5.2258317992	-0.4840115011	 1.9740794147	-0.290553
H	 0.5180466198	 1.6952235934	-0.1543750731	 0.238777
H	 0.6181943842	-2.807213834	-0.0028674493	 0.133044
H	 0.0283088825	-2.2685822612	 1.6151209307	 0.145938
H	-1.3274583173	-1.6420461515	-1.0625374637	 0.107846
H	-2.8587758915	 0.6017548096	 0.1934072563	 0.184117
H	-3.5618658595	-0.7766773867	-0.6783822362	 0.143168
45.6881	93.3435	114.4104	165.0908	220.2715	314.9818	372.1499	386.0006	459.879	548.8864	697.7241	743.7154	851.4402	875.9392	935.2882	961.1653	965.8688	1015.7277	1033.2666	1051.681	1112.1072	1153.5891	1189.2263	1232.6905	1254.7403	1263.2669	1336.403	1378.1412	1433.7451	1499.6421	1506.1447	1824.5506	2375.5158	2989.5083	3013.1941	3050.1424	3081.9023	3150.0476	3476.4308
N=C1OCC1OCC#N	[NH][C]1OC[C@H]1OCC#N	
InChI=1S/C5H6N2O2/c6-1-2-8-4-3-9-5(4)7/h4,7H,2-3H2	InChI=1S/C5H6N2O2/c6-1-2-8-4-3-9-5(4)7/h4,7H,2-3H2/t4-/m1/s1
