19
gdb 77382	2.39822	1.66629	1.34606	2.3362	74.46	-0.2401	0.0638	0.3039	1033.423	0.15754	-422.970432	-422.961771	-422.960827	-423.002951	34.172	
C	-0.0087351298	 1.651496872	 0.0603509083	-0.443031
C	 0.0820750293	 0.1308372313	 0.0187661324	-0.100476
C	 0.7681153673	-0.6012781777	-1.1348088626	 0.387127
O	 0.2994623676	-0.7492846741	-2.4254523032	-0.465645
C	 2.2702264803	-0.7268554117	-0.7972672915	-0.141069
C	 2.5001135034	-0.1106439768	 0.5818533559	-0.308714
C	 1.0868685748	-0.6714516772	 0.9205827423	 0.367582
O	 0.7401154335	-1.0640429392	 2.2045508775	-0.478491
C	 1.2502895446	-1.7122773259	-0.2535427382	-0.187144
H	 0.9553177184	 2.130276666	-0.1359955531	 0.116981
H	-0.7166088485	 2.0142094931	-0.6931664883	 0.120193
H	-0.3686201345	 2.0048852569	 1.0340389075	 0.108703
H	-0.906941264	-0.3177107085	 0.1687908739	 0.081395
H	 0.5883517383	 0.0108455759	-2.9421849153	 0.285528
H	 2.9891834924	-0.9140851186	-1.5847558928	 0.087349
H	 3.2643891454	-0.6624872955	 1.1370196903	 0.104926
H	 2.6778714761	 0.9666162736	 0.6760668343	 0.082181
H	 0.6279805127	-0.273550754	 2.7445123136	 0.280565
H	 1.1673665627	-2.7867670496	-0.309716381	 0.10204
163.4255	173.582	182.9019	216.6325	275.4799	285.7584	320.3098	370.7291	413.0233	510.4656	565.0226	592.0316	635.7344	696.5002	757.0521	820.7222	842.6538	908.7676	912.7922	935.4335	957.7018	975.3655	1045.1118	1080.9948	1100.8732	1112.7389	1128.1485	1151.6979	1162.0383	1221.2362	1231.6602	1259.9684	1287.8839	1312.3743	1371.6981	1390.3198	1407.6541	1454.8336	1492.3705	1494.8669	1511.7047	3025.818	3033.9541	3046.0133	3085.0183	3094.0169	3106.4407	3197.1138	3240.3933	3794.6523	3798.1922
CC1C2(O)C3CC1(O)C23	C[C@H]1[C@@]2(O)[C@H]3C[C@]1(O)[C@@H]23	
InChI=1S/C7H10O2/c1-3-6(8)2-4-5(6)7(3,4)9/h3-5,8-9H,2H2,1H3	InChI=1S/C7H10O2/c1-3-6(8)2-4-5(6)7(3,4)9/h3-5,8-9H,2H2,1H3/t3-,4+,5+,6-,7-/m1/s1
