21
gdb 121371	3.1347	0.9815	0.80949	2.6892	76.08	-0.2412	0.0708	0.312	1475.4923	0.18154	-461.347308	-461.337411	-461.336467	-461.383447	35.012	
C	-0.0554597092	 1.3448707201	-0.0812962188	-0.223836
O	-0.048561037	-0.0574228247	 0.0148557649	-0.236528
C	 0.771670606	-0.5250268356	 1.0632564682	-0.074023
C	 0.7741847234	-2.0406086398	 1.029488404	 0.105297
O	 1.593981708	-2.5033922746	-0.0348652359	-0.25091
C	 1.7982514166	-3.8852481705	 0.1979142822	-0.069346
C	 1.93116677	-4.0425369351	 1.730971137	-0.266516
C	 1.3315726234	-2.7263590674	 2.2929962906	 0.095934
O	 2.3155223289	-1.8749428007	 2.8676207902	-0.432942
H	 0.9505750933	 1.7472802826	-0.2803336777	 0.104475
H	-0.7133114913	 1.6137298673	-0.9115989332	 0.124007
H	-0.434685438	 1.8182018252	 0.8395047739	 0.098015
H	 1.8026063873	-0.1596971194	 0.9584154557	 0.110003
H	 0.3943708498	-0.1780482584	 2.0393136	 0.087563
H	-0.2630102994	-2.3852568089	 0.8753848577	 0.07037
H	 0.9417041329	-4.4698112884	-0.1760595179	 0.088604
H	 2.6889508487	-4.1934911321	-0.3549457515	 0.109151
H	 1.4116763031	-4.9307541998	 2.0992947805	 0.101411
H	 2.9790416648	-4.1080929765	 2.0351134881	 0.107811
H	 0.5272732693	-2.9168988626	 3.0164657539	 0.066715
H	 2.6792140194	-2.3174208808	 3.6402206782	 0.284745
33.4309	73.9619	96.0914	125.5343	205.0546	231.3896	260.3665	292.4434	337.3077	374.8884	445.1271	571.4391	658.7223	759.8227	846.6595	862.9093	887.6812	929.2326	971.6924	988.8687	1051.3436	1064.7053	1114.0998	1129.2205	1153.3161	1169.7414	1186.3026	1215.7254	1226.407	1236.1795	1246.5171	1275.8942	1284.0903	1309.6603	1346.9489	1363.1505	1404.8778	1426.7402	1437.912	1477.3081	1478.5939	1484.1039	1496.0832	1517.4426	1519.6021	2956.6394	2961.4128	2969.0362	2976.0568	3006.9886	3007.6168	3032.2214	3062.8085	3093.1659	3110.8905	3114.425	3826.932
COCC1OCCC1O	COC[C@H]1OCC[C@H]1O	
InChI=1S/C6H12O3/c1-8-4-6-5(7)2-3-9-6/h5-7H,2-4H2,1H3	InChI=1S/C6H12O3/c1-8-4-6-5(7)2-3-9-6/h5-7H,2-4H2,1H3/t5-,6-/m1/s1
