18
gdb 23201	2.33697	1.39514	0.96949	1.7267	76.39	-0.2475	0.0019	0.2494	1236.0863	0.145376	-439.007226	-438.998207	-438.997263	-439.041223	33.422	
C	-0.2948338337	 1.5183597055	-0.0884412709	-0.385438
C	 0.0666754457	 0.036658632	 0.091514569	-0.31516
C	 0.8586920967	-0.4982789998	-1.0575998702	 0.343905
O	 0.1773601276	-0.7604628258	-2.3137680754	-0.284111
C	 0.9406319344	-1.8174675567	-1.7359582602	-0.057506
C	 2.4071030598	-1.5917040248	-2.1627291893	-0.35168
C	 2.2921954183	-0.2441499217	-1.4433337593	 0.399512
N	 3.0722451104	 0.6889341807	-1.0956394089	-0.261073
O	 4.363653124	 0.4953963037	-1.6154807518	-0.385687
H	 0.6079153198	 2.1295555496	-0.174215894	 0.141737
H	-0.891269353	 1.6625143409	-0.9939460069	 0.132988
H	-0.8752348211	 1.88016628	 0.7650590482	 0.112346
H	 0.652455344	-0.0967632027	 1.0086007044	 0.11253
H	-0.8415175633	-0.5674663587	 0.1933103891	 0.111778
H	 0.4322969703	-2.7467005521	-1.5071622062	 0.112976
H	 3.1345590289	-2.2491864881	-1.6775683376	 0.130479
H	 2.5849953428	-1.5713726506	-3.2398206355	 0.133992
H	 4.8380907784	 1.2610178687	-1.2736049645	 0.308412
66.7674	112.8129	148.9203	182.5016	230.0113	286.5251	322.6791	373.5912	453.582	462.8151	515.4894	568.7022	693.3482	714.1753	774.5512	816.758	874.0748	919.0284	951.3744	973.7599	995.6717	1024.562	1065.5407	1091.5746	1102.6414	1137.2307	1200.9659	1244.0159	1252.3265	1317.5099	1344.9843	1400.9148	1408.4175	1443.9049	1464.4024	1475.2298	1498.0214	1512.006	1791.6257	3036.5549	3044.7029	3066.909	3077.3235	3117.3341	3124.5694	3124.9072	3192.7164	3814.7531
CCC12OC1CC2=NO	CC[C@]12O[C@H]1CC2=NO	
InChI=1S/C6H9NO2/c1-2-6-4(7-8)3-5(6)9-6/h5,8H,2-3H2,1H3	InChI=1S/C6H9NO2/c1-2-6-4(7-8)3-5(6)9-6/h5,8H,2-3H2,1H3/t5-,6+/m0/s1
