22
gdb 101587	3.37534	0.78226	0.67197	3.5505	80.63	-0.2339	0.0385	0.2724	1738.0991	0.192463	-441.527374	-441.51628	-441.515336	-441.564441	39.094	
C	-0.3534091963	 1.5115718143	-0.7062779204	-0.384366
C	-0.2364368025	 0.2077794855	 0.086741328	-0.182084
C	-1.4617940949	-0.701399278	-0.055439928	 0.098396
O	-1.7114124857	-1.012258281	-1.4382176753	-0.423596
C	-1.3406100874	-1.97332957	 0.796552078	-0.314272
C	-2.5965881426	-2.8429462293	 0.943151059	 0.377625
O	-2.834856483	-3.4259925232	 1.9882022779	-0.382017
N	-3.3808450122	-2.9253121879	-0.1654557428	-0.30273
C	-4.5948477508	-3.7145254294	-0.1982244021	-0.332252
H	 0.555692498	 2.1123831373	-0.611783245	 0.114704
H	-0.5241269875	 1.3091563255	-1.7667896431	 0.125718
H	-1.1929853514	 2.1156922177	-0.3456220395	 0.119079
H	 0.6543026548	-0.3521632794	-0.2352306102	 0.088592
H	-0.0875355897	 0.4250981548	 1.1510210156	 0.108477
H	-2.3556771063	-0.145001705	 0.2520960205	 0.102304
H	-0.9264599465	-1.4564605	-1.7812870559	 0.28274
H	-0.5356703252	-2.6014859634	 0.387495248	 0.109772
H	-1.0410721094	-1.7146386197	 1.8151526461	 0.130804
H	-3.0949235317	-2.3939354774	-0.9768389426	 0.255878
H	-5.470946123	-3.0910878665	-0.4108802359	 0.121595
H	-4.5393182823	-4.5024992647	-0.9584456294	 0.119329
H	-4.7143782645	-4.1754061403	 0.7829436272	 0.166299
59.9439	70.3305	77.7794	116.8821	134.8711	178.1073	225.5159	244.6775	310.0588	333.7296	357.5108	394.2037	457.8638	522.9425	623.1163	683.9696	737.3651	780.6525	847.2438	883.01	922.4657	978.8806	1027.4418	1058.2349	1089.8527	1114.9215	1134.5241	1152.0911	1180.0532	1185.0144	1263.0015	1280.374	1293.9021	1345.3074	1357.6955	1389.5007	1407.7098	1421.2178	1436.4778	1457.6001	1482.8935	1496.0833	1498.7336	1501.6936	1508.5422	1585.2067	1775.4264	3001.7811	3011.6418	3022.8911	3039.9887	3045.3244	3060.9738	3071.342	3105.5954	3107.3177	3123.2023	3151.6206	3569.7865	3785.4142
CCC(O)CC(=O)NC	CC[C@@H](O)CC(=O)NC	
InChI=1S/C6H13NO2/c1-3-5(8)4-6(9)7-2/h5,8H,3-4H2,1-2H3,(H,7,9)	InChI=1S/C6H13NO2/c1-3-5(8)4-6(9)7-2/h5,8H,3-4H2,1-2H3,(H,7,9)/t5-/m1/s1
