23
gdb 106808	2.44919	1.41428	1.08149	1.31	85.29	-0.2207	0.083	0.3037	1242.5869	0.205625	-388.295806	-388.286461	-388.285516	-388.329429	36.306	
C	 0.0399355153	 1.525662266	-0.3005399325	-0.373449
C	-0.0253382172	 0.0707884114	 0.1835104378	-0.277014
C	-1.4201780787	-0.514245116	 0.1406911177	 0.289639
C	-1.9817006599	-1.0689751265	-1.1670186053	-0.407345
C	-1.72730447	-1.9864977486	 0.0089618109	 0.403649
C	-0.7329161115	-3.1113552961	-0.0380010584	-0.466107
O	-2.8397267568	-2.3174686573	 0.8134277052	-0.298241
C	-3.5139493035	-1.1142547537	 1.1713496835	-0.100119
C	-2.4631582382	 0.0131342661	 1.1215709688	-0.291935
H	 1.0667455314	 1.9036848533	-0.2763071343	 0.109778
H	-0.3280525587	 1.6126393801	-1.3283075275	 0.118232
H	-0.5710143079	 2.1828614906	 0.3268933163	 0.117026
H	 0.645780518	-0.540450296	-0.4317451784	 0.093676
H	 0.3611706907	 0.0101224397	 1.2101544801	 0.094528
H	-3.0023827326	-0.8425257874	-1.4579566613	 0.10842
H	-1.2905956103	-1.1357455177	-2.0018918043	 0.105574
H	 0.1420748479	-2.837442374	-0.6328806127	 0.116649
H	-0.4016105046	-3.3768813995	 0.9710494617	 0.122148
H	-1.1840991494	-4.0006659769	-0.4901280195	 0.127346
H	-4.3330691794	-0.9142126228	 0.4659954131	 0.096109
H	-3.9553371866	-1.2564859818	 2.161837931	 0.107128
H	-1.9911794662	 0.1542396	 2.1013573378	 0.10181
H	-2.9107672518	 0.9676678771	 0.8274811206	 0.102496
92.1842	145.8936	184.833	203.2409	218.1562	237.0578	280.7296	357.3279	382.9249	430.0576	472.9643	576.3982	657.5041	698.6266	737.5886	788.4384	845.9474	889.3959	906.4807	941.3904	942.8796	963.9594	985.9961	1036.9258	1046.808	1068.6043	1082.4298	1108.2981	1117.7358	1183.2832	1220.4637	1233.6436	1242.5785	1263.386	1312.3862	1340.068	1363.839	1392.8701	1398.7926	1408.7074	1427.9617	1474.6748	1481.3647	1485.4914	1495.8597	1498.2073	1507.1778	1509.6282	1530.9348	2998.6754	3012.4138	3031.3714	3033.8744	3038.2576	3052.0014	3075.8118	3086.6941	3100.8942	3103.6426	3104.2907	3120.2347	3123.254	3205.5616
CCC12CC1(C)OCC2	CC[C@@]12C[C@]1(C)OCC2	
InChI=1S/C8H14O/c1-3-8-4-5-9-7(8,2)6-8/h3-6H2,1-2H3	InChI=1S/C8H14O/c1-3-8-4-5-9-7(8,2)6-8/h3-6H2,1-2H3/t7-,8+/m0/s1
