19
gdb 87246	4.5626	0.75182	0.71852	4.2265	73.98	-0.2683	0.01	0.2783	1570.1246	0.156342	-460.165341	-460.155343	-460.154398	-460.201211	35.455	
C	-0.2954336697	 1.5018375756	 0.0491996832	-0.470643
C	-0.1139475011	-0.0021293942	 0.0081569848	 0.32212
C	-1.3328270443	-0.7872403547	-0.4122136242	-0.155056
O	-1.6427047933	-0.5436308006	-1.7950930458	-0.17787
C	-2.8293384308	 0.0109315767	-2.0995954056	 0.174959
O	-3.1673484735	 0.2436252293	-3.2209764529	-0.277002
C	 1.2415958927	-0.5592858646	-0.3940634088	-0.356607
C	 0.7730551233	-0.6622917017	 1.0352532929	 0.058405
O	 1.326508847	 0.1601150177	 2.0186715829	-0.419177
H	 0.5918640941	 1.9872080247	 0.4577494525	 0.135978
H	-0.4802050539	 1.89818891	-0.9541484676	 0.131858
H	-1.1440514284	 1.7773484054	 0.6864809241	 0.114637
H	-1.1617691389	-1.8640407236	-0.3153948831	 0.114922
H	-2.1988872033	-0.5216068199	 0.2096918683	 0.111574
H	-3.4474281771	 0.2210287274	-1.2040069172	 0.075683
H	 1.283567605	-1.4577228821	-1.0005885311	 0.119522
H	 2.0191246921	 0.1676242032	-0.6031708289	 0.119349
H	 0.4698770387	-1.647738137	 1.3922155515	 0.085093
H	 2.2298076414	-0.1327681317	 2.1774026149	 0.292257
43.8148	50.5706	140.1367	174.5076	195.1693	249.1461	268.0675	277.2368	320.8956	368.8327	394.491	469.3055	570.1132	677.0452	718.2853	827.1782	893.5778	932.8671	972.5844	991.0257	1018.884	1045.3753	1047.6661	1068.2241	1113.3821	1114.615	1168.153	1198.5445	1275.8204	1288.8417	1313.5151	1363.7431	1397.3861	1416.9877	1430.4453	1436.141	1484.9061	1490.2553	1500.6805	1506.3072	1865.5215	2938.2409	3011.6973	3033.1979	3075.4957	3087.3624	3094.8184	3132.3175	3141.0095	3221.6885	3809.9695
CC1(COC=O)CC1O	C[C@@]1(COC=O)C[C@H]1O	
InChI=1S/C6H10O3/c1-6(2-5(6)8)3-9-4-7/h4-5,8H,2-3H2,1H3	InChI=1S/C6H10O3/c1-6(2-5(6)8)3-9-4-7/h4-5,8H,2-3H2,1H3/t5-,6+/m1/s1
