21
gdb 99601	2.06987	1.34028	0.96266	1.2034	83.88	-0.2567	0.0493	0.306	1323.2988	0.17903	-387.044674	-387.034313	-387.033369	-387.080128	38.255	
C	 0.6345057685	 1.3179958323	 0.7254378863	-0.394633
C	 0.9413334985	-0.1442332913	 0.3964722759	-0.19337
C	 0.5229267306	-0.5324897032	-1.0410452727	-0.219092
C	 1.3554357041	 0.1406964218	-2.0387155801	 0.347063
C	 2.0628182107	 0.6897469282	-2.8416180543	-0.486367
C	 0.4978471882	-2.0510667087	-1.3073173765	 0.400503
C	-0.1203765889	-2.4542466952	-2.6276990316	-0.460197
C	 1.4527230746	-2.9503473062	-0.6466087447	-0.220929
O	 0.0954266645	-2.8552099181	-0.1928027146	-0.276635
H	 1.1486255295	 1.9950819486	 0.0364454907	 0.12908
H	-0.4399318385	 1.5221698616	 0.6575431438	 0.114701
H	 0.9554450252	 1.5622839134	 1.7423984196	 0.114294
H	 2.0140051135	-0.3278541014	 0.5206018873	 0.103855
H	 0.4138497487	-0.8112280232	 1.0838761773	 0.123485
H	-0.513602597	-0.1880716435	-1.1811766097	 0.106147
H	 2.6787252756	 1.1773622487	-3.5561255375	 0.196844
H	 0.4361983631	-2.0228640523	-3.4640969188	 0.138663
H	-0.1293600782	-3.5420203559	-2.7281599445	 0.124869
H	-1.1544468981	-2.0969809177	-2.6890540071	 0.123594
H	 1.7167242257	-3.8918102282	-1.1264768871	 0.112317
H	 2.2002927897	-2.5581011799	 0.0388762683	 0.115809
44.2837	92.6333	141.8182	185.7129	188.3201	198.6908	263.2865	320.9167	351.3114	356.9825	391.0111	466.3108	525.4646	550.0473	623.7512	641.8675	746.7642	782.6563	830.2914	883.6614	922.1548	957.0785	969.4355	1020.016	1055.6437	1097.4786	1121.725	1125.2445	1133.0185	1169.1873	1236.3757	1276.3189	1303.4507	1343.0082	1364.1193	1401.3728	1411.8203	1418.7985	1483.9946	1492.544	1496.5484	1498.3218	1508.7725	1533.1182	2229.8609	2984.767	3033.9048	3040.1242	3045.3525	3089.7861	3092.0233	3105.904	3108.4494	3116.2228	3132.0611	3178.3085	3502.8381
CCC(C#C)C1(C)CO1	CC[C@@H](C#C)[C@@]1(C)CO1	
InChI=1S/C8H12O/c1-4-7(5-2)8(3)6-9-8/h1,7H,5-6H2,2-3H3	InChI=1S/C8H12O/c1-4-7(5-2)8(3)6-9-8/h1,7H,5-6H2,2-3H3/t7-,8-/m1/s1
