20
gdb 93801	2.44321	1.47204	1.06259	2.8729	77.	-0.2498	0.0217	0.2716	1196.8366	0.170901	-440.302612	-440.293552	-440.292607	-440.336621	34.006	
C	-0.1843075103	 1.5198731366	 0.0818276619	-0.404371
C	-0.0759531682	 0.016710714	-0.1054197809	 0.120474
C	 0.8376993684	-0.3976834446	-1.244278412	-0.103322
O	 0.9283265127	-1.806040716	-1.2946803822	-0.26141
C	 1.5029727287	-2.3750049864	-0.1216146387	 0.044807
C	 3.0374024336	-2.3196804627	-0.1487126373	-0.400958
C	 0.9627805636	-1.7727971604	 1.1726011454	 0.357811
N	 1.109141941	-2.4089906996	 2.2566646587	-0.510592
O	 0.4168529099	-0.5264982254	 1.1400903339	-0.266524
H	 0.8032462325	 1.9630696469	 0.242353769	 0.128403
H	-0.6363781979	 1.9814092966	-0.8012433289	 0.123601
H	-0.8079095195	 1.7493561425	 0.9493527511	 0.135683
H	-1.0687424004	-0.4185810257	-0.2842438508	 0.095175
H	 0.420242479	-0.075224706	-2.2025945981	 0.11699
H	 1.8258534342	 0.0737714481	-1.1245864618	 0.09742
H	 1.1921140748	-3.4221337125	-0.1308896979	 0.120664
H	 3.4098546832	-1.2921910117	-0.0946057421	 0.117337
H	 3.4353829997	-2.8693918556	 0.7065183433	 0.147402
H	 3.4001061493	-2.773770222	-1.0746839312	 0.123721
H	 0.7379698056	-1.8651679862	 3.0384600386	 0.217687
50.7075	100.6732	218.7585	221.4296	243.6429	274.6505	275.3426	375.6181	443.6632	443.9878	503.2494	519.4628	649.2695	681.3307	773.1754	863.9252	885.7778	904.2234	950.0274	958.8769	1009.9533	1072.7401	1096.8786	1112.789	1140.6119	1154.0929	1167.9723	1186.459	1286.1152	1319.5969	1337.4255	1346.7246	1368.9948	1390.2624	1398.9755	1411.4408	1420.9886	1482.6856	1486.1844	1492.2798	1499.4562	1503.1775	1745.5082	2986.5926	3017.1764	3045.0626	3047.721	3088.0361	3090.4007	3118.8292	3121.3836	3127.259	3142.0928	3463.0688
CC1COC(C)C(=N)O1	C[C@H]1CO[C@@H](C)[C]([NH])O1	
InChI=1S/C6H11NO2/c1-4-3-8-5(2)6(7)9-4/h4-5,7H,3H2,1-2H3	InChI=1S/C6H11NO2/c1-4-3-8-5(2)6(7)9-4/h4-5,7H,3H2,1-2H3/t4-,5-/m0/s1
