20
gdb 86566	2.36904	1.36538	1.27984	5.0973	75.35	-0.2365	0.0142	0.2507	1126.2748	0.171023	-440.317334	-440.307955	-440.307011	-440.351384	35.426	
C	-1.2011729092	 0.8968110667	 0.1181654066	-0.415564
C	-0.2795485705	-0.3047820244	 0.0004697367	 0.010301
C	 0.9590859185	-0.2320673821	-0.9579098858	 0.12876
O	 1.4611487823	 1.0536863544	-1.1945668596	-0.439199
C	 1.7567520984	-1.0599634864	 0.0923171922	-0.256861
C	 0.6934672775	-0.7024269751	 1.1765314939	-0.15695
C	 1.1122736947	 0.4744838058	 2.0342875043	 0.439282
N	 0.7913826652	 0.3952076813	 3.351062397	-0.52338
O	 1.6929309465	 1.4567686534	 1.582024729	-0.392844
H	-0.639038868	 1.8123340709	 0.3140207025	 0.137455
H	-1.7552425684	 1.0416652892	-0.8149539793	 0.119419
H	-1.9319918432	 0.760174805	 0.9233890545	 0.10266
H	-0.8605047111	-1.2001456246	-0.2472902657	 0.073853
H	 0.8202969823	-0.6961867166	-1.9383609935	 0.073182
H	 1.6898962947	 1.4306845659	-0.3258701629	 0.29885
H	 1.7603150588	-2.1312337338	-0.1232216772	 0.098972
H	 2.7778562926	-0.7207706077	 0.2769767128	 0.115069
H	 0.3476920454	-1.5302432658	 1.8017684947	 0.056964
H	 0.3250126675	-0.4021800127	 3.7443762246	 0.264904
H	 1.033268356	 1.1665488867	 3.9520930552	 0.265128
56.9707	142.9245	173.0075	188.6364	230.8726	244.3882	256.3744	358.5029	400.2361	418.0663	541.2123	597.7292	614.0011	689.7437	702.9737	754.8568	780.0834	840.2815	879.5543	902.3299	963.5074	1003.381	1025.4731	1074.1016	1081.5754	1130.7532	1144.8189	1163.709	1200.0851	1251.1437	1256.8146	1268.1809	1292.6781	1339.2247	1360.6532	1412.0237	1428.7908	1463.8847	1489.1386	1496.2842	1502.4055	1617.7764	1747.8956	3033.0503	3040.0382	3059.0059	3064.3534	3076.0911	3095.0365	3129.3289	3131.7038	3602.7415	3608.2495	3743.7237
CC1C(O)CC1C(N)=O	C[C@H]1[C@@H](O)C[C@H]1C(=O)N	
InChI=1S/C6H11NO2/c1-3-4(6(7)9)2-5(3)8/h3-5,8H,2H2,1H3,(H2,7,9)	InChI=1S/C6H11NO2/c1-3-4(6(7)9)2-5(3)8/h3-5,8H,2H2,1H3,(H2,7,9)/t3-,4-,5+/m1/s1
