19
gdb 37357	2.50609	1.92582	1.90781	1.0078	72.68	-0.2321	0.0784	0.3105	881.2034	0.163185	-423.00568	-422.999176	-422.998231	-423.036146	27.645	
C	-0.0105428984	 1.5153989206	 0.2240477089	-0.30799
C	 1.3055185823	 0.7966720744	 0.0340337444	-0.04907
C	 0.012313663	 0.0149231479	 0.0430834402	-0.049069
C	-0.024929718	-0.6304778058	-1.3547581547	 0.05251
C	-0.6451973277	 0.2060204226	-2.4771140477	-0.083766
O	-0.0030314899	 1.4700427896	-2.6202545109	-0.263669
C	 1.4160279686	 1.4520397692	-2.4915379712	-0.083766
C	 1.8799437776	 0.5210252005	-1.3680897173	 0.05251
O	 1.3656456439	-0.7834101818	-1.6979746198	-0.269956
H	-0.2124594192	 1.8611071819	 1.2341336302	 0.105317
H	-0.4016776941	 2.153426432	-0.5543452568	 0.14637
H	 1.9965167716	 0.7400936353	 0.8669041188	 0.089634
H	-0.2501579852	-0.6180285218	 0.8826269802	 0.089634
H	-0.4807600458	-1.6240413844	-1.3352713953	 0.079558
H	-0.5673293464	-0.3694965797	-3.4124426093	 0.098197
H	-1.7013461911	 0.423871931	-2.2869701841	 0.1079
H	 1.8798259818	 1.1098187157	-3.4295667289	 0.098197
H	 1.7158714273	 2.4895954908	-2.3108831293	 0.1079
H	 2.9716788697	 0.4629764619	-1.3594300073	 0.079558
201.8328	253.9507	307.2939	356.6287	428.1405	485.9471	572.3038	651.8689	720.9618	749.6343	782.8441	818.3737	840.359	883.2301	887.4312	937.7181	943.039	966.9775	1028.9724	1036.2199	1050.5133	1083.4019	1089.3897	1110.0568	1112.3756	1114.6394	1164.028	1208.2465	1244.2103	1279.0256	1285.8705	1329.7572	1337.5047	1340.6297	1355.2042	1381.5824	1382.2021	1421.3948	1483.9373	1486.4158	1497.8134	2984.1798	2989.7312	3073.3753	3074.8695	3079.1604	3081.8933	3134.1287	3170.529	3180.0528	3249.9071
C1C2C1C1COCC2O1	C1[C@H]2[C@@H]1[C@H]1COC[C@@H]2O1	
InChI=1S/C7H10O2/c1-4-5(1)7-3-8-2-6(4)9-7/h4-7H,1-3H2	InChI=1S/C7H10O2/c1-4-5(1)7-3-8-2-6(4)9-7/h4-7H,1-3H2/t4-,5+,6-,7+
