18
gdb 86797	3.03463	1.08995	0.96796	3.4382	77.68	-0.2323	0.0045	0.2368	1274.8986	0.148708	-398.151109	-398.142345	-398.141401	-398.185422	31.535	
C	 0.1118843738	 1.6028290537	-0.0361765948	-0.389369
C	 0.22056008	 0.0825537967	-0.0052240883	 0.055513
C	 0.9652755514	-0.5287961747	-1.228024241	-0.216417
N	 1.765878252	-1.5837868295	-0.5884230692	-0.059751
C	 2.919102634	-2.1425909108	-1.2536102954	-0.307195
C	 3.9579950759	-1.1475636393	-1.6024919898	 0.260608
N	 4.7420136105	-0.3410103183	-1.8671178865	-0.299824
C	 1.7870334536	-1.2700543681	 0.7692467248	 0.068216
N	 0.9680995458	-0.3903399008	 1.1832394221	-0.264448
H	 1.1059388069	 2.0586761511	-0.0835543715	 0.126271
H	-0.4627959334	 1.9360667618	-0.9068958992	 0.112511
H	-0.3864036202	 1.9649526288	 0.8666807851	 0.131923
H	-0.7895852192	-0.3444519463	 0.0597842582	 0.091084
H	 0.2947917721	-0.9447261594	-1.9850315863	 0.115366
H	 1.6191392327	 0.2137948585	-1.7097552829	 0.119936
H	 3.3695777746	-2.9052183356	-0.6097368633	 0.165086
H	 2.6102309389	-2.6486909941	-2.1750147007	 0.162964
H	 2.4659852508	-1.8194468436	 1.4171132989	 0.127526
55.3035	68.1443	126.2726	227.2526	251.6416	277.7753	356.2519	373.1063	396.0911	512.9471	561.7921	676.7782	767.0992	835.1288	889.5866	891.6285	923.2821	947.1203	953.2189	978.3182	1083.9954	1132.6629	1148.591	1183.8205	1221.0372	1238.4043	1295.4276	1321.6356	1345.359	1364.4504	1371.7441	1404.9493	1419.9985	1458.9385	1488.0297	1497.4665	1519.5716	1697.3046	2353.3386	2992.9804	3007.9705	3037.3183	3046.9453	3082.7769	3088.9345	3107.3678	3124.118	3171.5461
CC1CN(CC#N)C=N1	C[C@H]1CN(CC#N)[CH][N]1	
InChI=1S/C6H9N3/c1-6-4-9(3-2-7)5-8-6/h5-6H,3-4H2,1H3	InChI=1S/C6H9N3/c1-6-4-9(3-2-7)5-8-6/h5-6H,3-4H2,1H3/t6-/m0/s1
