17
gdb 65494	3.01912	1.21342	1.01407	2.5131	74.33	-0.2577	0.0239	0.2816	1185.4373	0.132909	-421.751631	-421.742907	-421.741963	-421.784938	33.525	
O	 0.2632867527	 1.5287673608	-0.4183123932	-0.460287
C	-0.0177881684	 0.2171236081	 0.0281751003	 0.238216
C	 0.1132721742	-0.0395600894	 1.5779331602	-0.380761
C	-1.2993526297	-0.6201394786	 1.5375872842	 0.489285
C	-1.7952602036	-1.8733224881	 2.1043461075	-0.264552
O	-2.2157768832	-0.5952646224	 2.6107003042	-0.270026
C	-1.5558324509	-0.022813175	 0.1550628016	-0.364353
C	 0.6763713678	-0.7858640418	-0.7720240203	 0.303453
C	 1.2843190145	-1.5913663969	-1.426211608	-0.500783
H	 1.2106752427	 1.5917411996	-0.5830077833	 0.284364
H	 0.929603974	-0.6773264208	 1.9207141283	 0.112193
H	 0.1365864441	 0.9213157841	 2.0992242501	 0.124317
H	-2.5619678166	-2.4408309263	 1.5783785022	 0.117785
H	-1.1618476544	-2.4538534509	 2.7738668913	 0.117102
H	-2.0606812177	 0.9445648182	 0.222974258	 0.132175
H	-2.03234875	-0.6419461977	-0.6056297017	 0.118455
H	 1.8099334444	-2.3052678927	-2.0113019315	 0.203418
57.871	161.4533	176.8981	271.1459	279.2327	322.7032	338.8351	410.6454	428.1026	440.9763	565.3954	596.6689	619.5828	670.1252	689.8571	806.2434	849.4302	870.8264	903.4715	919.4144	969.4186	984.2041	1053.01	1084.6419	1125.8155	1150.0052	1179.2806	1197.8521	1213.368	1246.296	1271.3875	1368.3634	1440.2184	1455.1316	1482.9717	1540.7724	2229.2948	3065.8505	3073.8499	3080.9002	3133.5579	3139.9405	3168.6446	3499.3467	3807.3161
OC1(CC2(CO2)C1)C#C	O[C@]1(C[C@]2(CO2)C1)C#C	
InChI=1S/C7H8O2/c1-2-6(8)3-7(4-6)5-9-7/h1,8H,3-5H2	InChI=1S/C7H8O2/c1-2-6(8)3-7(4-6)5-9-7/h1,8H,3-5H2/t6-,7+
