16
gdb 20886	6.9096	1.09944	1.02438	5.964	65.91	-0.2796	-0.0123	0.2673	1152.3543	0.131746	-376.09151	-376.083867	-376.082923	-376.124685	26.534	
C	-0.0029552268	 1.5634420495	 0.0508598161	-0.383737
C	-0.0169839911	 0.0400109353	 0.1937036484	-0.17642
C	-1.3942118015	-0.5482562217	-0.1292795376	-0.153051
N	-1.4209862402	-2.0010102472	-0.0221490682	 0.039588
C	-1.8403554987	-2.8064641104	 0.9694107822	 0.056805
N	-1.6194848647	-4.0587567993	 0.6332039322	-0.223435
N	-1.0462759466	-4.0060769599	-0.597984036	-0.093119
N	-0.9201156664	-2.7847162233	-1.0006836804	-0.130256
H	 0.9868928543	 1.9653708679	 0.2824843475	 0.129573
H	-0.2562187577	 1.8697424488	-0.9696784233	 0.126808
H	-0.7213478376	 2.0366761481	 0.7293198793	 0.12018
H	 0.7185740628	-0.4143353416	-0.478056613	 0.136416
H	 0.2643835965	-0.2488770334	 1.2131477143	 0.112054
H	-2.15791	-0.1571956961	 0.5497633672	 0.129569
H	-1.6925481056	-0.2953466871	-1.1502468424	 0.148071
H	-2.2909725867	-2.4568140195	 1.8839603237	 0.160954
45.4728	87.3591	110.6389	238.8819	296.8019	343.9098	379.6467	678.2702	735.0091	752.1437	758.2605	863.4451	878.889	904.8164	988.4013	1041.6594	1045.1684	1095.1386	1126.1499	1131.0897	1194.6194	1223.4575	1288.9022	1320.7221	1332.3343	1343.3133	1402.4958	1418.1211	1463.2199	1477.1789	1493.7369	1501.7127	1510.4388	1517.5851	3035.5972	3041.5053	3063.0796	3079.3288	3102.3195	3117.0427	3119.4035	3282.558
CCCN1C=NN=N1	CCCn1cnnn1	
InChI=1S/C4H8N4/c1-2-3-8-4-5-6-7-8/h4H,2-3H2,1H3	InChI=1S/C4H8N4/c1-2-3-8-4-5-6-7-8/h4H,2-3H2,1H3
