19
gdb 68637	2.42521	1.62366	1.35611	2.582	75.03	-0.2432	-0.0246	0.2186	1026.3717	0.159475	-423.025436	-423.017216	-423.016271	-423.058399	31.67	
O	 0.1847428316	 1.3980931731	 0.0602632923	-0.485144
C	 0.0895940547	 0.012094256	 0.0007982801	 0.395422
C	 0.3349912803	-0.8146233214	-1.302372199	-0.286199
C	-0.5636561688	-1.8470291353	-0.563113715	-0.047129
C	 0.3467939787	-2.2516656769	 0.6205573714	-0.212051
C	 0.8231683657	-0.832184674	 1.0636137913	-0.282863
C	-1.348565746	-0.620262154	-0.0147582073	-0.102271
C	-2.1647888512	-0.648071946	 1.2438668147	 0.118901
O	-2.3040330886	-1.5986518184	 1.9761029727	-0.252813
H	 1.0878847115	 1.6343092158	 0.2969259751	 0.284104
H	-0.1444616795	-0.3584119074	-2.1706349658	 0.102803
H	 1.3621725843	-1.1112659646	-1.5358416629	 0.087168
H	-1.0796706707	-2.6412065357	-1.09874683	 0.073041
H	-0.1992584294	-2.7726683348	 1.405539117	 0.133112
H	 1.1749957416	-2.8820667404	 0.2849026628	 0.094125
H	 1.9087032317	-0.7021517916	 0.9943063972	 0.089894
H	 0.5139865168	-0.5740423498	 2.0801278039	 0.112368
H	-1.9310529634	-0.1197191779	-0.7966546596	 0.094559
H	-2.660241319	 0.3221868135	 1.4800083211	 0.082973
54.1044	170.5232	186.7982	211.053	284.8575	334.9014	364.3986	471.292	484.8652	585.1811	640.4773	742.0503	777.7009	831.8883	861.2965	875.5433	893.1266	943.6953	957.5008	981.7849	1002.4461	1036.7714	1058.752	1104.2797	1126.6798	1147.8118	1158.4703	1189.6154	1224.6079	1233.0486	1250.4622	1277.126	1312.3542	1333.0811	1373.2609	1388.1384	1427.2621	1489.1654	1493.6477	1517.5253	1813.4046	2863.5314	3041.6904	3049.7458	3054.7166	3066.7621	3094.2809	3123.9827	3137.7894	3146.9249	3810.9971
OC12CC(CC1)C2C=O	O[C@@]12C[C@@H](CC1)[C@H]2C=O	
InChI=1S/C7H10O2/c8-4-6-5-1-2-7(6,9)3-5/h4-6,9H,1-3H2	InChI=1S/C7H10O2/c8-4-6-5-1-2-7(6,9)3-5/h4-6,9H,1-3H2/t5-,6-,7-/m1/s1
