22
gdb 14236	3.59664	1.51291	1.44123	0.1577	81.52	-0.258	0.0826	0.3406	1029.3339	0.200983	-313.052059	-313.043892	-313.042948	-313.084267	32.203	
C	 0.0959129408	 1.6272556816	-0.0468874254	-0.411779
C	 0.0585165272	 0.1083350391	 0.0362337814	 0.054575
C	 0.9508896216	-0.7405410471	-0.922126411	-0.26357
C	 1.3093989755	-1.6965613409	 0.2575815248	-0.026735
C	 2.6932526388	-1.4983641917	 0.9287520739	 0.054575
C	 3.9622494755	-1.3832277148	 0.0969965637	-0.411779
C	 2.1293484698	-0.2386301933	 1.6570762771	-0.26357
C	 0.6818236619	-0.6447764019	 1.2400244408	-0.026734
H	 1.1159746274	 2.0165298244	 0.0400306239	 0.112916
H	-0.304981715	 1.9749359267	-1.0058407368	 0.112046
H	-0.5035220124	 2.0852963236	 0.7482704915	 0.111309
H	-0.9809773445	-0.2263368703	-0.0646907697	 0.068264
H	 0.4342043641	-1.2013558613	-1.7673660179	 0.095226
H	 1.8094968092	-0.1892769919	-1.3176697891	 0.09381
H	 0.9346505865	-2.7170514215	 0.1575256638	 0.053938
H	 2.8244407459	-2.2998141363	 1.6657774612	 0.068264
H	 3.8888922789	-0.5883584998	-0.6529478008	 0.112916
H	 4.8250382946	-1.1531042148	 0.7324714593	 0.112046
H	 4.1798000855	-2.3189844902	-0.4306684564	 0.111309
H	 2.3179500937	-0.1881863207	 2.732077999	 0.095225
H	 2.4655992402	 0.704660281	 1.2158375225	 0.09381
H	 0.0214622949	-0.9190238599	 2.0649843145	 0.053938
75.2537	187.5718	218.4503	240.8628	251.3669	321.4751	341.6991	479.4479	481.0528	556.3128	707.846	740.1326	769.753	831.2095	887.3399	887.4976	898.4131	936.1381	955.8136	962.1473	1012.3904	1059.2148	1103.0865	1112.5094	1122.2484	1131.6962	1145.9168	1177.778	1208.7838	1218.9292	1253.1875	1259.5013	1280.3064	1296.3888	1314.3031	1333.6046	1371.6847	1377.4644	1407.9951	1409.5737	1479.1213	1483.7647	1494.3407	1497.49	1499.1311	1502.3577	3023.0507	3023.2249	3025.9534	3026.4475	3051.3244	3053.8781	3075.9646	3085.5778	3087.3339	3087.4241	3093.0569	3094.1543	3102.6657	3108.677
CC1CC2C(C)CC12	C[C@H]1C[C@H]2[C@@H](C)C[C@@H]12	
InChI=1S/C8H14/c1-5-3-8-6(2)4-7(5)8/h5-8H,3-4H2,1-2H3	InChI=1S/C8H14/c1-5-3-8-6(2)4-7(5)8/h5-8H,3-4H2,1-2H3/t5-,6-,7-,8-/m0/s1
