17
gdb 83318	2.59002	1.6567	1.38332	3.549	67.17	-0.2461	-0.0149	0.2313	973.9657	0.135842	-458.945751	-458.937964	-458.93702	-458.978203	29.656	
O	-0.1585989342	 1.2661880076	-0.5099018446	-0.41731
C	-0.0288092229	-0.0583696569	-0.1074299128	 0.095916
C	-0.391917047	-0.4114335309	 1.3072339664	 0.025774
O	-1.0385039469	 0.6439102009	 1.9786837604	-0.274497
C	-2.4513331447	 0.5529175755	 1.7193310804	-0.096902
C	-2.584138243	-0.1068465034	 0.3331919551	-0.134627
C	-2.8582537285	 0.8979746083	-0.786779363	 0.163585
O	-3.384000623	 1.9670294809	-0.6147607099	-0.259462
C	-1.2772947876	-0.8876360289	 0.1781290651	-0.162454
H	-0.3139822339	 1.7820939371	 0.2956895416	 0.302558
H	 0.8071613358	-0.5677493654	-0.5782808917	 0.107473
H	 0.2090428303	-1.0601198025	 1.9361597518	 0.103888
H	-2.9284354007	-0.0554227533	 2.4980410123	 0.103393
H	-2.8686747561	 1.5615168067	 1.7348172011	 0.141288
H	-3.4302628374	-0.8055733351	 0.3081856839	 0.112609
H	-2.5900875654	 0.5370275476	-1.8022388604	 0.089188
H	-1.3024764149	-1.928265968	-0.1207699359	 0.099581
90.0124	135.0434	170.0724	260.2658	266.4751	344.8405	470.8674	557.912	576.2719	639.3386	716.8408	752.1299	763.2687	802.7476	844.5896	922.096	932.7912	995.8648	1024.6247	1030.753	1064.0284	1078.5112	1099.4026	1120.029	1135.1891	1199.3349	1231.8537	1243.3808	1296.1446	1302.8459	1335.6729	1349.0814	1384.4305	1415.555	1429.2712	1515.2356	1825.3348	2909.2247	3020.7496	3038.4145	3123.444	3149.1596	3161.2904	3186.1393	3717.2876
OC1C2OCC(C=O)C12	O[C@H]1[C@H]2OC[C@@H](C=O)[C@@H]12	
InChI=1S/C6H8O3/c7-1-3-2-9-6-4(3)5(6)8/h1,3-6,8H,2H2	InChI=1S/C6H8O3/c7-1-3-2-9-6-4(3)5(6)8/h1,3-6,8H,2H2/t3-,4+,5-,6+/m1/s1
