20
gdb 106420	2.82436	1.41829	1.21396	1.6974	80.37	-0.2443	0.081	0.3253	1127.4734	0.170369	-403.042521	-403.034055	-403.033111	-403.075648	32.615	
C	-0.0365369541	 1.3674278151	 0.0223694558	-0.26375
O	 0.0624458466	-0.0454181897	-0.011485235	-0.286771
C	 0.685646373	-0.542463656	-1.1319156139	 0.302193
C	 0.2906878132	-0.4722268901	-2.6372447466	-0.238097
N	 1.5356423353	-1.3779359384	-2.6431523836	-0.182659
C	 2.1429648257	-0.366760019	-1.6537385342	-0.23809
C	 0.9175475098	-2.0178705037	-1.4104523482	 0.403524
C	 1.4434965856	-3.1678039147	-0.6396540275	-0.381327
C	 0.0899731495	-3.2448606387	-1.3583340223	-0.381327
H	 0.9542406705	 1.8426298888	 0.0105220342	 0.115149
H	-0.6205194892	 1.7523203178	-0.8252260847	 0.115155
H	-0.5449830202	 1.6302843993	 0.9520133582	 0.132471
H	-0.6200244971	-0.9848684907	-2.9522967469	 0.108692
H	 0.4455262151	 0.4662131416	-3.1754893292	 0.096819
H	 2.4184506966	 0.5785441504	-2.1279323111	 0.096817
H	 2.9552594884	-0.7812956117	-1.0539115644	 0.108692
H	 2.2630591726	-3.7367538233	-1.0663409933	 0.123781
H	 1.441822846	-3.1112400893	 0.4440286687	 0.122474
H	-0.8095567971	-3.2394029123	-0.7513848064	 0.122472
H	 0.0370939097	-3.8634856656	-2.2482527495	 0.123781
71.2637	143.6027	156.1724	230.6195	241.1981	263.0916	391.7293	448.8758	504.9531	601.6969	630.2705	676.3692	771.687	797.6057	797.8602	888.0553	900.7056	958.2742	959.942	987.4755	1024.0874	1045.4946	1079.3595	1079.5945	1082.1041	1108.9145	1133.9442	1166.2511	1178.6578	1181.4263	1184.4395	1187.1889	1216.146	1254.7275	1287.5006	1417.0977	1449.4988	1484.0343	1488.1673	1495.6518	1505.1588	1510.5089	1551.7881	2994.2986	3047.4269	3058.4856	3063.9418	3126.431	3127.0114	3129.5394	3135.1262	3137.5226	3208.6745	3221.7326
COC12CN(C1)C21CC1	CO[C@@]12CN(C1)C12CC1	
InChI=1S/C7H11NO/c1-9-7-4-8(5-7)6(7)2-3-6/h2-5H2,1H3	InChI=1S/C7H11NO/c1-9-7-4-8(5-7)6(7)2-3-6/h2-5H2,1H3
