16
gdb 12262	3.12893	1.55767	1.22132	1.8811	61.75	-0.2544	-0.0381	0.2163	1006.7976	0.128445	-420.870681	-420.862287	-420.861343	-420.904108	29.619	
C	 0.4316284545	 1.4262813456	-0.2074100929	-0.404906
C	 0.0676634448	-0.0258219749	 0.0415282842	 0.036126
O	 0.8436346914	-0.9778413372	-0.7380243087	-0.325669
C	 1.3502712452	-1.6831252086	 0.4269022188	-0.011228
C	 2.8743427103	-1.6641288723	 0.4596280308	-0.066755
O	 3.3972551756	-2.2764394826	-0.7001646517	-0.414754
C	 0.5921600657	-0.6948677453	 1.3220544768	 0.31635
O	 0.4878051493	-0.5018386292	 2.4946100765	-0.277416
H	 1.4970082555	 1.601782591	-0.0351635611	 0.128909
H	 0.1958026772	 1.7036830798	-1.2388643342	 0.137705
H	-0.1427443175	 2.0708430041	 0.4649948883	 0.14006
H	-1.0090841981	-0.190270733	-0.1066240424	 0.11183
H	 0.9787587435	-2.7155802682	 0.4628291973	 0.115087
H	 3.2293542745	-0.6271171623	 0.5661300393	 0.09213
H	 3.233448209	-2.2334111763	 1.3226558057	 0.126697
H	 2.9955321092	-1.8226845804	-1.4511063568	 0.295832
61.6224	105.4134	140.3166	198.2575	203.7001	302.0964	375.3043	425.2487	445.4992	553.3567	610.512	698.9308	841.3627	859.6492	879.7068	1005.7532	1023.1806	1049.4251	1073.3401	1096.2423	1109.8949	1135.9113	1209.9843	1235.8719	1276.3488	1311.4737	1355.8996	1393.4904	1400.0189	1422.6735	1481.4329	1493.9041	1496.0898	1918.4585	2981.9716	3010.8571	3031.8377	3043.5412	3087.7371	3120.3325	3124.1902	3790.0686
CC1OC(CO)C1=O	C[C@H]1O[C@@H](CO)C1=O	
InChI=1S/C5H8O3/c1-3-5(7)4(2-6)8-3/h3-4,6H,2H2,1H3	InChI=1S/C5H8O3/c1-3-5(7)4(2-6)8-3/h3-4,6H,2H2,1H3/t3-,4+/m1/s1
