17
gdb 22375	3.21986	1.18608	1.00324	1.175	72.98	-0.2244	-0.0007	0.2237	1187.2066	0.13484	-455.049733	-455.041276	-455.040332	-455.082845	32.398	
O	-0.1996966096	 1.3087906026	 0.5183228277	-0.391737
N	-0.065179171	-0.0925720022	 0.5218013687	-0.249641
C	-1.0611191239	-0.6443137583	-0.0299483625	 0.482967
C	-2.392803462	-0.1703408849	-0.5928844679	-0.407296
C	-2.8479810642	-1.6652980549	-0.6651736001	 0.407303
O	-4.0541600463	-2.0239173095	-0.0778899678	-0.469746
C	-2.5653463521	-2.39361352	-1.9884750575	-0.208844
N	-1.1310880857	-2.5396110897	-1.6173068236	-0.315082
C	-1.3878458229	-2.1079810163	-0.2107076856	-0.210565
H	 0.6048528585	 1.5909781159	 0.9666769915	 0.306761
H	-2.9673696791	 0.4350615536	 0.1183694941	 0.118974
H	-2.3524368091	 0.3712373211	-1.5421807037	 0.132608
H	-4.1833988191	-1.5001068355	 0.7199792875	 0.283537
H	-3.1242274158	-3.3365157193	-2.0241915413	 0.108301
H	-2.7382800108	-1.8381153721	-2.916863217	 0.104534
H	-0.7831424915	-3.4878666305	-1.6854280487	 0.22691
H	-1.1478983953	-2.8183712601	 0.5823077261	 0.081015
62.5441	161.9039	189.4245	254.4809	303.8637	350.8569	373.4392	388.1463	420.6593	467.5013	544.4345	616.4693	686.3343	701.7798	794.1011	878.2699	890.2697	939.7336	959.3541	996.286	1016.6131	1044.8918	1060.3287	1099.6778	1120.5158	1145.314	1191.2748	1213.2766	1244.496	1307.1179	1337.1289	1364.4166	1400.2853	1411.6378	1449.6287	1510.3336	1784.1463	3022.836	3039.5311	3071.9326	3095.2498	3100.6446	3554.08	3807.1379	3815.4004
ON=C1CC2(O)CNC12	ON=C1C[C@@]2(O)CN[C@@H]12	
InChI=1S/C5H8N2O2/c8-5-1-3(7-9)4(5)6-2-5/h4,6,8-9H,1-2H2	InChI=1S/C5H8N2O2/c8-5-1-3(7-9)4(5)6-2-5/h4,6,8-9H,1-2H2/t4-,5+/m0/s1
