20
gdb 93717	3.15004	1.06375	1.02018	3.6087	79.38	-0.2952	0.022	0.3172	1278.4348	0.171047	-403.182909	-403.17374	-403.172796	-403.217111	34.802	
C	 0.0074657298	 1.5611244014	-0.014056935	-0.411682
C	 0.0361505549	 0.033333216	-0.0288588716	 0.051038
C	 0.8466284869	-0.5799242666	-1.1880685383	-0.219661
C	 1.1433329852	-2.0013465535	-0.6996842449	-0.249082
C	 1.5564864659	-1.7712959427	 0.7749397771	 0.253129
O	 2.9020672561	-1.3083945524	 0.8649433782	-0.458802
C	 0.6566789945	-0.5949372959	 1.2504736021	-0.253732
C	 1.3972758028	-2.9888211834	 1.593607589	 0.227738
N	 1.2920583106	-3.9579258476	 2.2150202463	-0.344095
H	 1.0207512053	 1.968837861	 0.0750173932	 0.121599
H	-0.4346313276	 1.956970999	-0.9344208288	 0.115691
H	-0.5810339316	 1.9416139558	 0.8272776215	 0.118023
H	-0.9955568197	-0.3305984666	-0.1175673198	 0.077288
H	 0.3099694818	-0.5585432014	-2.1402406223	 0.099014
H	 1.7872771145	-0.0333417562	-1.3191354883	 0.111597
H	 0.2394945472	-2.6200237292	-0.7359635416	 0.119168
H	 1.9258714378	-2.5242763095	-1.257692709	 0.101648
H	 3.4844248266	-2.0053721227	 0.54044258	 0.288922
H	 1.3020596903	 0.109492808	 1.7814539092	 0.12996
H	-0.1074270412	-0.9358350636	 1.951656223	 0.122238
35.2146	142.7694	165.9072	214.6269	244.8667	304.1226	346.5123	387.6717	404.7304	417.3813	485.8301	552.7303	572.9346	611.1514	749.9377	809.0945	858.9625	892.3774	930.1708	952.2685	986.9026	1022.1058	1036.9242	1071.2623	1072.5161	1118.8614	1166.173	1217.4588	1232.6469	1269.8139	1297.7694	1324.9415	1340.2928	1349.4835	1371.0499	1385.4738	1413.6946	1477.5647	1482.2371	1495.0791	1497.7315	1501.2187	2349.8297	3015.4755	3028.1122	3044.8313	3048.1019	3073.0467	3092.2803	3096.7766	3099.4046	3104.4153	3122.8901	3795.2309
CC1CCC(O)(C1)C#N	C[C@H]1CC[C@@](O)(C1)C#N	
InChI=1S/C7H11NO/c1-6-2-3-7(9,4-6)5-8/h6,9H,2-4H2,1H3	InChI=1S/C7H11NO/c1-6-2-3-7(9,4-6)5-8/h6,9H,2-4H2,1H3/t6-,7+/m0/s1
