16
gdb 42666	2.62134	1.96284	1.73376	2.6344	67.75	-0.2326	-0.0304	0.2022	855.8158	0.127182	-437.878223	-437.871776	-437.870832	-437.90899	25.822	
O	-0.0085330642	 0.0665487428	 0.154433136	-0.332182
C	-0.0254012358	 1.2647167742	 0.0512332559	 0.451842
C	-1.2117424958	 2.1718118198	-0.0188667122	-0.182823
C	-0.991050861	 3.4783532744	 0.6918857086	-0.030202
C	 0.2109122675	 3.6470823927	 1.6004233988	-0.103846
O	 1.3225879703	 2.8377776243	 1.2223697363	-0.276705
C	 1.1718749524	 2.2368784267	-0.0668941123	-0.035417
C	 0.6425105374	 3.243755149	-1.0833344877	-0.192306
N	-0.8045834508	 3.4119007255	-0.7511949765	-0.124836
H	-2.2038633332	 1.7729248787	-0.1931202279	 0.11601
H	-1.8755893598	 4.0303422424	 1.0033809338	 0.111871
H	 0.5153775649	 4.7047371206	 1.5977357066	 0.115309
H	-0.0636017701	 3.3894624368	 2.6305731031	 0.125494
H	 2.1132371094	 1.7467515456	-0.309548096	 0.108027
H	 1.1531629572	 4.2093084665	-1.036863599	 0.123365
H	 0.7126198317	 2.8560774201	-2.1044688774	 0.1264
129.7152	193.6126	337.091	407.9706	447.9895	464.1205	574.5321	664.7573	735.0654	739.3093	778.0982	809.8066	860.3597	902.2639	929.1755	957.4869	988.846	1032.4672	1065.2166	1091.9601	1104.7139	1139.2015	1180.8357	1218.7356	1235.588	1257.4623	1262.9516	1307.3248	1332.2793	1337.6398	1392.9451	1417.9774	1488.67	1518.6405	1856.7392	2991.5688	3045.5916	3056.4431	3108.2224	3131.2723	3139.5432	3192.1726
O=C1C2C3COC1CN23	O=C1[C@H]2[C@H]3CO[C@@H]1CN23	
InChI=1S/C6H7NO2/c8-6-4-1-7-3(2-9-4)5(6)7/h3-5H,1-2H2	InChI=1S/C6H7NO2/c8-6-4-1-7-3(2-9-4)5(6)7/h3-5H,1-2H2/t3-,4-,5-,7?/m1/s1
