15
gdb 18183	4.26562	1.81253	1.47871	1.97	71.3	-0.2336	0.0065	0.2401	851.8842	0.119667	-325.463605	-325.456873	-325.455929	-325.494362	26.492	
C	-0.0322836543	-1.2561782102	-0.1359295665	-0.479331
C	-0.0033405469	-0.0585655285	-0.041984593	 0.348724
C	 0.0086815872	 1.3976470249	 0.0546737633	-0.207158
C	-0.6032195167	 1.9417598094	 1.3472043222	-0.081872
C	 0.1998719124	 2.8101430769	 1.9607106988	-0.052421
C	 1.49932563	 2.9355774777	 1.2362764298	-0.090675
N	 2.2449359826	 1.6435019354	 1.2120286686	-0.317082
C	 1.4110362964	 2.0286073847	 0.0618485002	-0.055612
H	-0.0450161032	-2.3152522554	-0.2082621563	 0.19329
H	-0.5498889466	 1.7995504031	-0.804616698	 0.11053
H	-1.5722521383	 1.6056039505	 1.694940949	 0.110451
H	-0.0222645153	 3.3316158003	 2.8838145143	 0.103991
H	 2.0564038915	 3.8660004861	 1.2202934275	 0.092185
H	 3.2178789673	 1.8274926231	 0.972037835	 0.230054
H	 1.8876416138	 2.2507742321	-0.8860425348	 0.094924
117.2457	144.564	310.3751	353.0369	461.0829	527.3637	542.3855	618.448	633.7683	702.5354	751.1655	795.246	824.2861	861.4645	892.3132	919.5519	945.8678	976.4644	1005.6194	1052.0895	1076.0663	1116.517	1152.9641	1165.3036	1235.9151	1272.7493	1309.1588	1317.2978	1388.9233	1409.3882	1670.3582	2238.6226	2985.9617	3167.9523	3178.2478	3199.217	3223.7885	3478.3475	3505.9902
C#CC1C=CC2NC12	C#C[C@H]1C=C[C@H]2N[C@@H]12	
InChI=1S/C7H7N/c1-2-5-3-4-6-7(5)8-6/h1,3-8H	InChI=1S/C7H7N/c1-2-5-3-4-6-7(5)8-6/h1,3-8H/t5-,6+,7-/m0/s1
