18
gdb 32577	1.99124	1.86556	1.03896	2.1042	74.14	-0.1896	0.055	0.2446	1151.9914	0.148718	-435.307307	-435.298006	-435.297062	-435.341904	33.766	
C	-0.1944462803	 1.5405685892	-0.023924686	-0.378471
C	 0.0523106139	 0.0301559907	-0.0241033538	-0.151988
N	 0.75086661	-0.4314317957	 1.1653145766	-0.072542
C	 2.1144759319	-0.7482463335	 1.2844533059	 0.201033
N	 2.9507798534	-0.6727977444	 0.1522941108	-0.611221
C	 2.2803449243	-1.1430942621	 2.5816279425	-0.144986
N	 1.0816506216	-1.0837715147	 3.2763418568	-0.377563
C	 0.2220819194	-0.6513887637	 2.3943725187	 0.431651
O	-1.0901908858	-0.4175990984	 2.6029556532	-0.434343
H	 0.7500527657	 2.0912789774	 0.0196338343	 0.120238
H	-0.7213964281	 1.8362228335	-0.9365325016	 0.117807
H	-0.8043457718	 1.8326728213	 0.8351084271	 0.138536
H	-0.8982388202	-0.5077907102	-0.0888808673	 0.125882
H	 0.6708622933	-0.2621833731	-0.8757917778	 0.135668
H	 3.5063917777	 0.1766189439	 0.1281443379	 0.244664
H	 3.5854860245	-1.4604763534	 0.1084931624	 0.248965
H	 3.1897826964	-1.4736657397	 3.0603478729	 0.096651
H	-1.2540250158	-0.6472040171	 3.5264073373	 0.310018
45.1946	97.2282	118.785	194.8158	206.4474	294.6673	311.6113	357.5058	391.727	428.9222	541.7137	608.6519	638.9957	721.7163	729.1602	756.107	777.1451	808.5264	817.3201	974.1657	1007.8725	1103.2959	1134.6462	1183.8613	1199.7514	1227.0993	1277.9654	1293.1934	1325.5744	1391.7663	1397.945	1409.2853	1478.2413	1490.3553	1504.9152	1570.4745	1598.1994	1615.8233	1659.3937	3041.3617	3061.0069	3107.4408	3114.5879	3131.4338	3245.3163	3498.5951	3587.3511	3802.5
CCN1C(N)=CN=C1O	CCn1c(N)cnc1O	
InChI=1S/C5H9N3O/c1-2-8-4(6)3-7-5(8)9/h3H,2,6H2,1H3,(H,7,9)	InChI=1S/C5H9N3O/c1-2-8-4(6)3-7-5(8)9/h3H,2,6H2,1H3,(H,7,9)
