19
gdb 65528	3.7798	1.18024	1.15238	2.9176	74.87	-0.2389	0.0513	0.2902	1139.4402	0.159826	-419.122875	-419.114627	-419.113682	-419.155691	31.97	
O	-0.0325350131	 1.3674421714	-0.3536986665	-0.483853
C	-0.0483872988	-0.0236884766	-0.1086475314	 0.350332
C	 0.3099316409	-0.5414243278	 1.3232623843	-0.236205
N	-0.9661789988	-1.3393633365	 1.4079159778	-0.117303
C	-2.0391632186	-0.3394173672	 1.3681184386	-0.263697
C	-1.4003302119	-0.7119062466	 0.0870478894	-0.07533
C	 0.7810015623	-0.6823784908	-1.1916155335	-0.002307
C	 0.7626951386	-0.1661314863	-2.5809524296	-0.251098
N	 1.96219044	-0.0021824825	-1.7347126398	-0.339844
H	-0.7005925286	 1.7839112481	 0.1985097441	 0.282752
H	 1.1829192351	-1.1950717578	 1.3573817229	 0.126081
H	 0.3990693494	 0.2260248127	 2.0996961858	 0.10098
H	-3.0245075745	-0.7522655164	 1.561964195	 0.130265
H	-1.8683899392	 0.635378555	 1.8252017244	 0.100489
H	-1.9234383153	-1.2827522671	-0.6739852005	 0.100959
H	 0.9151000846	-1.7504752238	-1.0341639451	 0.099172
H	 0.8786627561	-0.8533023078	-3.4142054166	 0.113775
H	 0.158414432	 0.7127847056	-2.7806916541	 0.121661
H	 1.96865113	 0.9521173644	-1.3797547752	 0.243171
79.8752	131.666	190.4616	215.197	288.7374	336.2636	370.7428	455.3757	492.8499	531.0376	694.5584	747.2253	769.5802	819.7795	859.2773	888.3198	925.4342	955.8802	972.3719	996.0882	1002.429	1053.8797	1075.7218	1098.1992	1106.0219	1113.4895	1122.2703	1145.3805	1169.9529	1194.4102	1215.1864	1248.7923	1271.8097	1280.8378	1305.3898	1329.4653	1372.6528	1443.547	1486.8631	1501.3442	1505.6278	3045.6341	3082.7479	3116.9293	3121.5695	3132.2954	3160.679	3188.5953	3209.1024	3498.6703	3835.339
OC1(CN2CC12)C1CN1	O[C@]1(CN2C[C@@H]12)[C@H]1CN1	
InChI=1S/C6H10N2O/c9-6(4-1-7-4)3-8-2-5(6)8/h4-5,7,9H,1-3H2	InChI=1S/C6H10N2O/c9-6(4-1-7-4)3-8-2-5(6)8/h4-5,7,9H,1-3H2/t4-,5+,6-,8?/m1/s1
