21
gdb 94313	2.37393	1.48022	1.12029	1.9512	79.41	-0.25	0.0577	0.3077	1185.0344	0.179745	-424.206867	-424.197095	-424.196151	-424.240935	36.997	
C	-0.0057905795	 1.5263912664	 0.0782619223	-0.451165
C	-0.1350456023	 0.0207290668	 0.1680290907	 0.27928
C	-1.4424135445	-0.5428974198	-0.3437954652	-0.445182
O	 1.0459063726	-0.7043932951	-0.251406034	-0.332879
C	 0.7091533545	-0.7209490045	 1.1230679124	 0.38334
C	 1.5986856628	-0.1787042947	 2.2518787243	-0.321779
C	 0.9470550252	-1.2311001724	 3.1933080866	-0.261455
C	 0.4278493752	-1.9900424572	 1.9361106345	 0.041361
O	-0.8950620313	-2.4710247174	 1.9258492363	-0.427484
H	 0.9849011382	 1.8598640198	 0.3935468165	 0.125488
H	-0.1637501986	 1.8566048793	-0.9543526214	 0.123695
H	-0.7588790279	 2.0185071157	 0.7036529578	 0.118189
H	-1.5812988216	-0.2562851518	-1.3925322383	 0.111588
H	-1.4621396002	-1.6280334377	-0.2595008175	 0.142189
H	-2.2844248007	-0.1405413281	 0.2291611237	 0.116374
H	 2.6563969043	-0.3779968108	 2.0575800538	 0.114303
H	 1.4829040709	 0.8722285575	 2.5232118756	 0.108679
H	 1.6023024782	-1.7757795952	 3.8754857259	 0.097362
H	 0.1049444926	-0.8136112781	 3.7507918405	 0.111163
H	 1.1397947316	-2.7706409882	 1.6294121686	 0.079804
H	-0.9081501795	-3.3333690344	 2.3520583672	 0.287128
88.9064	136.4464	161.3615	194.5485	220.4607	224.6052	260.3012	306.755	358.1113	411.3566	463.7294	472.3066	541.8786	579.3311	673.5968	720.7868	796.0583	858.0936	926.2254	937.2455	950.5342	958.2944	997.0192	1067.7725	1086.5823	1108.1598	1134.3818	1149.8012	1180.2921	1204.6213	1224.781	1244.4828	1254.0477	1264.7762	1307.3972	1407.0579	1418.5602	1431.0393	1461.5373	1473.9829	1477.6183	1482.072	1496.4577	1499.6037	1529.6135	2994.7768	3032.9623	3038.3116	3063.9032	3069.9956	3092.5924	3097.9648	3114.3385	3129.8108	3131.7957	3166.9392	3822.8204
CC1(C)OC11CCC1O	CC1(C)O[C@]21CC[C@H]2O	
InChI=1S/C7H12O2/c1-6(2)7(9-6)4-3-5(7)8/h5,8H,3-4H2,1-2H3	InChI=1S/C7H12O2/c1-6(2)7(9-6)4-3-5(7)8/h5,8H,3-4H2,1-2H3/t5-,7-/m1/s1
