17
gdb 87615	2.76642	1.56712	1.16698	4.0133	76.58	-0.2097	-0.0161	0.1935	1069.6393	0.136248	-418.016799	-418.008656	-418.007711	-418.049321	31.06	
C	-0.1343485417	 1.4607963294	-0.0929197864	-0.311215
N	 0.0365668852	 0.018605061	 0.0327501431	-0.102454
C	 1.3637896194	-0.5095961439	-0.177372621	-0.277536
C	 0.7796215694	-0.4768466424	 1.2074365215	 0.199197
C	 1.278546702	 0.3392049027	 2.3419743249	-0.266918
C	 1.0905415626	-0.3732740185	 3.462393205	-0.026154
N	 0.5064078344	-1.6168397236	 3.1865697926	-0.358643
C	 0.2677694777	-1.7691360683	 1.8293333576	 0.390614
O	-0.2156989369	-2.731786167	 1.2830104115	-0.369741
H	 0.7652584875	 2.0462766974	 0.1529005882	 0.100638
H	-0.4105357311	 1.6817370391	-1.1284303351	 0.131494
H	-0.9504002651	 1.7871753078	 0.5579582355	 0.131792
H	 1.4169890696	-1.4691642315	-0.6853077965	 0.137996
H	 2.1776189476	 0.1866979763	-0.3790230835	 0.110417
H	 1.7210105774	 1.3200409286	 2.2812486863	 0.113581
H	 1.333084892	-0.1145766772	 4.4828253116	 0.134262
H	 0.2527761499	-2.3124955899	 3.8671928447	 0.262672
106.2805	149.6735	194.4142	218.1608	259.0204	326.2538	421.4554	444.1409	507.1502	569.3413	605.9313	685.7103	714.5216	725.9463	811.9197	851.8601	885.9609	918.6076	928.9591	1040.2784	1074.4857	1088.6277	1116.8061	1145.3652	1155.2673	1175.4799	1206.1964	1281.9571	1334.7996	1388.9925	1425.6718	1449.4185	1485.3923	1496.0339	1501.2608	1649.5356	1843.0814	2980.9755	3076.3581	3085.0784	3114.1937	3184.4685	3239.3752	3268.9235	3672.653
CN1CC11C=CNC1=O	CN1C[C@]21C=CNC2=O	
InChI=1S/C6H8N2O/c1-8-4-6(8)2-3-7-5(6)9/h2-3H,4H2,1H3,(H,7,9)	InChI=1S/C6H8N2O/c1-8-4-6(8)2-3-7-5(6)9/h2-3H,4H2,1H3,(H,7,9)/t6-,8?/m1/s1
