14
gdb 19890	4.16008	2.03053	1.68433	2.5047	66.7	-0.2286	0.0345	0.2631	775.7699	0.105821	-345.274853	-345.268354	-345.26741	-345.305208	25.837	
C	-0.1287841163	-1.2962862081	-0.1038591183	-0.44777
C	 0.0552120492	-0.116231894	 0.0365484506	 0.33397
C	 0.1229546103	 1.3185669297	 0.1017340464	-0.190112
C	 0.4942918349	 2.2029555331	 1.2791603374	-0.126002
C	 1.7435449993	 1.70383285	 2.0694062272	 0.017939
O	 2.2198351584	 0.4854765377	 1.4930395328	-0.220457
C	 2.555101129	 1.7206664824	 0.8563733512	 0.017937
C	 1.3415378957	 2.2205175542	 0.0127730423	-0.125961
H	-0.2426679106	-2.3475480446	-0.1960769052	 0.18802
H	-0.7013922015	 1.7787821224	-0.4433960961	 0.123683
H	-0.1787250442	 2.965103314	 1.6499288012	 0.100863
H	 1.9782501764	 1.9022633686	 3.107625885	 0.113512
H	 3.601667029	 1.9359388734	 0.6811052357	 0.113513
H	 1.4175568606	 2.998197531	-0.7360426703	 0.100865
145.9205	164.0772	323.6482	361.2457	466.8624	596.586	623.9183	630.0263	670.6517	719.9732	728.1024	775.0909	834.0761	861.3045	891.6058	934.8249	936.8303	980.5877	1013.0411	1023.2501	1039.7689	1072.5809	1171.6852	1229.2226	1240.9145	1272.4367	1300.7807	1374.3395	1424.2879	2235.5276	3108.7231	3186.937	3196.8547	3199.4651	3209.3412	3505.6499
C#CC1C2C3OC3C12	C#C[C@H]1[C@H]2[C@H]3O[C@H]3[C@@H]12	
InChI=1S/C7H6O/c1-2-3-4-5(3)7-6(4)8-7/h1,3-7H	InChI=1S/C7H6O/c1-2-3-4-5(3)7-6(4)8-7/h1,3-7H/t3-,4+,5-,6+,7-
