21
gdb 81123	3.19667	1.11791	0.98596	0.715	88.73	-0.2559	0.0571	0.313	1293.091	0.181671	-349.87693	-349.867962	-349.867018	-349.910683	34.877	
C	-0.1581204065	 1.5834227689	-0.0068282107	-0.445803
C	 0.0207694842	 0.0725482045	 0.0137065195	 0.013178
C	 1.1839608859	-0.6389529014	-0.7503933711	-0.063838
C	 2.1622656732	-0.1548642314	 0.3583210821	-0.261383
C	 0.8864573984	-0.6495863503	 1.1058315872	 0.348374
C	 0.6331699504	-0.649745419	 2.6043061523	-0.490663
C	 1.6333811191	-1.4043879421	 3.351688955	 0.307807
C	 2.4726245567	-2.0305556314	 3.942062987	-0.456519
C	 0.9099262563	-1.8780064005	 0.1487324356	-0.252134
H	 0.7727738336	 2.1357635961	 0.143344539	 0.118656
H	-0.5791829975	 1.9028532213	-0.9666788368	 0.118528
H	-0.85975225	 1.8995078404	 0.7736941604	 0.115545
H	-0.9511448647	-0.4124803221	-0.1428984512	 0.058506
H	 1.3579595844	-0.6370835364	-1.8271232522	 0.068121
H	 3.0624984287	-0.7563054794	 0.5062732751	 0.097539
H	 2.3974045806	 0.909623869	 0.4042079224	 0.089554
H	 0.6099836097	 0.3865694505	 2.9678522347	 0.130852
H	-0.3647058894	-1.0644816376	 2.801473821	 0.129249
H	 3.2072350846	-2.5809527209	 4.475425041	 0.193969
H	-0.0412993471	-2.3972192727	-0.003570591	 0.084538
H	 1.7367691293	-2.5793572255	 0.2829523804	 0.095925
58.0041	103.0266	166.7607	191.1494	284.8049	338.2105	349.2131	352.7397	459.3223	547.451	578.5345	617.3765	631.6654	681.6954	765.4972	784.9922	811.5265	887.4121	922.8549	932.7113	975.7432	985.6635	1002.1095	1006.9099	1050.8873	1090.6003	1119.1286	1141.4421	1146.0431	1152.4821	1168.7795	1209.7869	1226.4392	1242.9332	1270.3218	1301.0605	1337.6952	1405.3088	1422.7458	1463.4083	1491.2827	1495.3639	1511.996	1546.4783	2237.6677	3010.1215	3019.7036	3032.647	3041.1535	3048.1339	3066.763	3086.126	3104.3775	3112.7916	3118.7135	3129.7254	3507.0817
CC1C2CC1(CC#C)C2	C[C@H]1[C@H]2C[C@]1(CC#C)C2	
InChI=1S/C9H12/c1-3-4-9-5-8(6-9)7(9)2/h1,7-8H,4-6H2,2H3	InChI=1S/C9H12/c1-3-4-9-5-8(6-9)7(9)2/h1,7-8H,4-6H2,2H3/t7-,8-,9+/m0/s1
