21
gdb 41503	2.89177	1.49168	1.03852	0.7216	93.75	-0.203	-0.0163	0.1866	1186.9427	0.185478	-349.964236	-349.956491	-349.955546	-349.996359	31.308	
C	 0.0162371673	 1.5183321241	-0.2078413696	-0.247884
C	 1.5387368602	 1.5371290234	 0.141349201	-0.318871
C	 1.3651582586	 0.1263647611	 0.6676337806	 0.347029
C	 1.9874456591	-0.6228029189	 1.5789418444	-0.25995
C	 1.5474859332	-1.9312985369	 2.0595174759	-0.044544
C	 0.3908426691	-2.5847315511	 1.8574840352	-0.085061
C	-0.8468765221	-2.181030257	 1.0951313196	-0.256134
C	-1.0798944189	-0.6848195254	 0.8381636707	-0.225844
C	 0.0141637372	-0.0321913524	 0.0007542109	-0.049105
H	-0.5833818352	 2.0270053836	 0.5518823428	 0.104796
H	-0.2735535877	 1.8877256916	-1.1937781804	 0.097006
H	 2.1672606005	 1.5842133253	-0.7561202822	 0.109887
H	 1.8908830054	 2.2994872433	 0.8422756996	 0.108314
H	 2.9151257659	-0.2492625686	 2.0092130676	 0.076724
H	 2.2839173335	-2.4468176481	 2.6735431632	 0.079079
H	 0.3163057472	-3.5733800197	 2.3077312403	 0.082639
H	-0.8578322483	-2.7217847723	 0.1358174339	 0.110023
H	-1.7156081361	-2.5733112081	 1.6412275549	 0.1023
H	-2.0503267706	-0.563330207	 0.3404774876	 0.092183
H	-1.1500654533	-0.158807086	 1.7980160077	 0.099862
H	 0.1027734051	-0.5452524108	-0.9665630837	 0.077551
84.7258	187.7221	233.5523	268.5366	312.9153	383.1385	419.6901	502.9395	560.5627	668.9566	712.508	728.2561	764.4471	826.4715	838.6332	893.0275	909.4937	928.6479	944.669	964.1374	998.6712	1010.6774	1068.2913	1077.0461	1095.1693	1113.4825	1128.71	1192.492	1204.6013	1238.4928	1243.0808	1263.0053	1276.6236	1296.9089	1327.791	1372.383	1382.125	1387.3416	1445.2523	1468.2805	1470.3567	1487.7615	1492.475	1687.0026	1746.4754	2987.222	3007.6002	3016.5436	3030.1573	3030.5781	3061.0419	3063.629	3083.0746	3118.3575	3121.9166	3135.7983	3152.0516
C1CC2=CC=CCCC12	C1CC2=CC=CCC[C@@H]12	
InChI=1S/C9H12/c1-2-4-8-6-7-9(8)5-3-1/h1-2,4,9H,3,5-7H2	InChI=1S/C9H12/c1-2-4-8-6-7-9(8)5-3-1/h1-2,4,9H,3,5-7H2/t9-/m0/s1
