21
gdb 41337	2.94437	1.83102	1.49896	1.3537	80.61	-0.2463	0.0764	0.3227	970.5684	0.186475	-387.095338	-387.088504	-387.08756	-387.126116	29.397	
C	-0.0302873677	 1.5265808499	 0.1731956599	-0.242613
C	 1.5025854879	 1.5264761399	-0.1397791817	-0.330468
C	 1.314632234	 0.142254566	-0.7683802497	 0.446096
C	 2.1629858908	-1.122109594	-0.8158105378	-0.306459
C	 1.2345681333	-2.0012520616	-1.7236404652	-0.221858
C	 0.1506009563	-0.9750155802	-2.17452861	 0.081252
C	-0.9168598596	-0.7531470055	-1.0703066328	-0.252817
C	-0.0417377555	-0.0235170581	-0.026226323	-0.015513
O	 0.8703004002	 0.2629050138	-2.133975947	-0.302699
H	-0.3321043784	 1.896963402	 1.1552139508	 0.093828
H	-0.6045569975	 2.0462152587	-0.5961165144	 0.112267
H	 1.8992130042	 2.305399024	-0.7941529987	 0.107769
H	 2.1045623026	 1.4798046702	 0.7718534032	 0.10286
H	 3.1344265964	-0.9474843767	-1.2867848455	 0.101785
H	 2.3309823562	-1.5570772954	 0.1730595793	 0.094367
H	 1.7775637836	-2.389554852	-2.5878898684	 0.105825
H	 0.8035753738	-2.8525103653	-1.1895981041	 0.097489
H	-0.2438238454	-1.1432319087	-3.1774150558	 0.071365
H	-1.7316042195	-0.1283498156	-1.4488666654	 0.099788
H	-1.3492978638	-1.6860376114	-0.6967129145	 0.092172
H	 0.0326736179	-0.55285882	 0.9266132406	 0.065565
157.7693	231.4281	308.4595	360.7473	399.0477	455.6177	567.4264	632.883	672.6614	755.1781	776.3663	809.8467	818.0651	845.3199	878.7681	882.4037	920.8892	929.622	936.1421	976.7508	990.0572	1018.9591	1057.5813	1070.2488	1110.6711	1119.6666	1171.4957	1179.2155	1199.5165	1210.9559	1231.1784	1243.9657	1259.9462	1267.6584	1280.8058	1307.5065	1316.9842	1333.7535	1342.5331	1343.83	1469.87	1478.6697	1485.2587	1491.0127	1502.7974	3049.0564	3054.0975	3063.4664	3066.186	3070.4082	3076.393	3096.8251	3097.6284	3111.3038	3116.3027	3119.0733	3132.6563
C1CC23CCC(CC12)O3	C1C[C@@]23CC[C@@H](C[C@H]12)O3	
InChI=1S/C8H12O/c1-3-8-4-2-7(9-8)5-6(1)8/h6-7H,1-5H2	InChI=1S/C8H12O/c1-3-8-4-2-7(9-8)5-6(1)8/h6-7H,1-5H2/t6-,7-,8+/m0/s1
