16
gdb 49530	4.42791	1.07251	0.9617	3.1465	71.06	-0.2402	-0.0316	0.2086	1200.8573	0.123197	-437.774987	-437.767387	-437.766442	-437.807358	28.849	
O	 0.0201147137	-0.0651970194	-0.2491150055	-0.254818
C	 0.0284975201	 1.1152788359	 0.0029671244	 0.128924
C	 1.2854437407	 1.939089866	 0.0143083403	-0.090792
C	 1.2098091511	 3.3807584922	-0.5879317271	-0.054039
O	 0.3528437175	 3.7890017376	 0.5529103957	-0.303619
C	 1.4427372484	 2.9938920973	 1.161319138	-0.08158
C	 2.4289726958	 3.7615822567	 0.2667363131	 0.448169
N	 3.8363458979	 3.64875989	-0.0085247059	-0.388042
C	 3.2571727721	 4.9526528745	 0.4451381732	-0.339587
H	-0.8997868891	 1.6681515147	 0.244594062	 0.103168
H	 2.1626341899	 1.3412452397	-0.241362312	 0.106076
H	 0.9126888714	 3.6919882598	-1.5880749762	 0.116106
H	 1.422722488	 2.8422309202	 2.2407392662	 0.110366
H	 4.3300552344	 3.1919158157	 0.7548049881	 0.240157
H	 3.2714925906	 5.7358434342	-0.3069530596	 0.134246
H	 3.4655423375	 5.2884794949	 1.4575561255	 0.125266
89.5541	125.6701	220.7731	274.1186	290.3916	369.275	417.3581	486.0224	613.5074	708.1922	729.6607	767.7446	857.0999	870.1628	891.9699	938.4714	966.6272	975.8654	1029.0725	1045.3387	1106.8361	1116.0614	1122.9253	1130.7184	1140.1255	1179.4615	1185.952	1240.17	1252.4406	1255.5236	1320.1275	1418.624	1458.1718	1536.4157	1815.6035	2950.0618	3105.7665	3113.551	3122.629	3141.578	3199.7483	3498.0481
O=CC1C2OC1C21NC1	O=C[C@H]1[C@H]2O[C@@H]1[C@]12NC1	
InChI=1S/C6H7NO2/c8-1-3-4-6(2-7-6)5(3)9-4/h1,3-5,7H,2H2	InChI=1S/C6H7NO2/c8-1-3-4-6(2-7-6)5(3)9-4/h1,3-5,7H,2H2/t3-,4+,5-,6-
