21
gdb 40885	3.21383	1.53821	1.36658	1.5041	81.51	-0.2346	0.0879	0.3225	1039.36	0.185446	-387.069964	-387.062594	-387.06165	-387.101704	30.064	
C	-0.0261514694	 1.3520195862	-0.3345036246	-0.084825
C	 1.4308401557	 1.5259385178	 0.1358617585	-0.378882
C	 1.2459687885	 0.1217030223	 0.7413099201	 0.533699
O	-0.1082169626	 0.0420551176	 0.2647045558	-0.336798
C	 2.2382044418	-1.035137448	 0.4635019548	-0.101227
C	 3.0045217052	-0.4960920218	 1.7072923669	-0.237479
C	 1.5685330432	-0.1876669678	 2.2246251095	-0.101227
C	 0.9627960038	-1.5956991664	 2.3796111961	-0.212891
C	 1.4709571286	-2.2387863504	 1.0432000345	-0.212891
H	-0.7548563272	 2.045882314	 0.1009267639	 0.10297
H	-0.1765265775	 1.3140076166	-1.4198603601	 0.102969
H	 2.1742311104	 1.5987824771	-0.6604698941	 0.111381
H	 1.5972663406	 2.3288870471	 0.8567340144	 0.111381
H	 2.7169579632	-1.1553333919	-0.5094054042	 0.05466
H	 3.6006911174	-1.2121934885	 2.2785834835	 0.092589
H	 3.591647713	 0.4008684932	 1.4989245122	 0.098365
H	 1.3770590905	 0.540306174	 3.014304566	 0.05466
H	 1.3381715905	-2.109767141	 3.268821055	 0.090763
H	-0.1276663616	-1.5644415314	 2.4327520227	 0.111011
H	 0.6473130698	-2.545185164	 0.3946321314	 0.111011
H	 2.1221407262	-3.1019091748	 1.2070447577	 0.090762
91.5486	181.0958	218.026	262.7172	385.5781	405.3211	508.9347	550.9397	689.8666	782.7429	812.4725	827.4114	836.7004	861.7786	877.8154	907.3503	954.3408	957.9989	972.1926	992.4324	993.6965	1018.2388	1030.5792	1075.1099	1084.1431	1131.1889	1139.0937	1162.6222	1179.7733	1197.3766	1216.6455	1224.674	1232.7923	1261.0098	1263.7849	1267.902	1301.4226	1316.8566	1352.0014	1358.4196	1482.2288	1489.3662	1491.493	1510.6847	1533.8673	3020.5109	3055.2531	3060.2192	3061.4377	3064.5955	3072.1369	3100.7734	3102.5813	3106.9929	3118.0238	3121.572	3125.1598
C1CC2(O1)C1CC2CC1	C1C[C@@]2(O1)[C@H]1C[C@@H]2CC1	
InChI=1S/C8H12O/c1-2-7-5-6(1)8(7)3-4-9-8/h6-7H,1-5H2	InChI=1S/C8H12O/c1-2-7-5-6(1)8(7)3-4-9-8/h6-7H,1-5H2/t6-,7+,8-
