20
gdb 74874	2.73285	1.67456	1.20681	1.4766	85.23	-0.2187	0.0227	0.2414	1084.787	0.173534	-365.994775	-365.987145	-365.9862	-366.026505	31.165	
C	-0.032341637	 1.5153580328	 0.0667973628	-0.487817
C	 0.0055679949	 0.0133000786	-0.0037227195	 0.359483
C	-0.0108449787	-0.6593542495	-1.1633175572	-0.167097
C	 0.0331279119	-2.1311559498	-1.2838806238	-0.073392
C	 1.2856068011	-2.9175557586	-0.9298741433	-0.296106
C	 0.1025025427	-2.9536411556	-0.0053253699	-0.033653
C	 0.1220423054	-2.2048909842	 1.2973208479	-0.048516
N	 1.3224114757	-1.4227677469	 1.632723396	-0.339908
C	 0.0565744735	-0.7139988922	 1.2909917198	-0.14304
H	 0.8746063532	 1.912825883	 0.540580499	 0.128255
H	-0.118586491	 1.9620699131	-0.9275395632	 0.118561
H	-0.8795942594	 1.86570963	 0.6709912413	 0.117383
H	-0.0642348643	-0.0981109635	-2.0942924123	 0.077945
H	-0.554019199	-2.5410405297	-2.1011523129	 0.081728
H	 1.5025548484	-3.804065482	-1.5158386312	 0.104582
H	 2.1459679725	-2.3533370012	-0.5912101508	 0.139249
H	-0.4870723053	-3.8638291007	 0.0135419633	 0.080013
H	-0.3876996772	-2.7077208275	 2.1151161859	 0.078753
H	 1.453657759	-1.4139595795	 2.6415050321	 0.227356
H	-0.4569006664	-0.2263207366	 2.117858596	 0.076222
125.8221	184.9047	220.6302	268.9725	322.2475	430.6446	443.2638	521.5851	542.6747	627.2864	702.6316	734.5292	800.9474	835.0534	846.6667	864.7027	893.6801	916.8308	934.6826	981.1039	1005.4689	1023.0453	1065.4837	1070.448	1088.7808	1099.1655	1122.8459	1130.7555	1156.0804	1193.2028	1211.736	1224.9363	1260.0261	1338.4202	1385.6099	1404.5738	1413.4916	1419.564	1451.4351	1478.3005	1481.6429	1494.0983	1716.6381	3012.0079	3057.7628	3107.2887	3116.2063	3132.2541	3135.3449	3137.1179	3145.4302	3166.6468	3237.1096	3491.0567
CC1=CC2CC2C2NC12	CC1=C[C@H]2C[C@H]2[C@H]2N[C@@H]12	
InChI=1S/C8H11N/c1-4-2-5-3-6(5)8-7(4)9-8/h2,5-9H,3H2,1H3	InChI=1S/C8H11N/c1-4-2-5-3-6(5)8-7(4)9-8/h2,5-9H,3H2,1H3/t5-,6+,7-,8+/m0/s1
