18
gdb 11045	4.11471	1.70356	1.43494	1.5656	67.55	-0.2466	0.0722	0.3187	914.5152	0.153666	-384.932306	-384.924694	-384.92375	-384.963648	29.818	
C	 0.0392375976	 1.5354756443	-0.0183302982	-0.395339
C	 0.0645752275	 0.0233087392	 0.1357142715	 0.132882
O	 0.6769241686	-0.5355352893	-1.038434646	-0.267987
C	 1.2102404184	-1.8098235368	-0.7193077271	-0.143285
C	 1.6179804875	-1.7318889639	 0.7456843619	 0.383208
O	 1.8533629886	-2.9128968504	 1.4400308927	-0.467223
C	 2.3844419138	-0.5147468198	 1.1467436738	-0.319149
C	 0.8723766403	-0.5356052813	 1.2959090573	-0.147493
H	 1.0553523631	 1.9384418443	-0.0493018837	 0.12238
H	-0.4719644197	 1.8134858076	-0.944463663	 0.124664
H	-0.4926692921	 1.9944481479	 0.8207908703	 0.11326
H	-0.97127561	-0.3499597238	 0.2219653563	 0.062604
H	 0.4588481745	-2.611636492	-0.8430599716	 0.07491
H	 2.0386154583	-2.0102023868	-1.4067684707	 0.112461
H	 1.0313118752	-3.4163545829	 1.4653397294	 0.281494
H	 2.9531129159	-0.5995725015	 2.0654446157	 0.120949
H	 2.8346271077	 0.1015128198	 0.37500111	 0.122134
H	 0.4417236049	-0.5499939847	 2.2901679815	 0.089529
141.7602	208.4106	236.7468	251.6308	314.0641	369.5283	389.9159	414.6296	526.0042	568.8565	659.6338	725.844	813.257	869.6499	910.7627	935.1784	951.3118	998.7991	1020.5346	1068.4128	1075.9099	1086.9175	1112.5259	1120.7772	1153.8792	1220.2924	1246.5846	1271.762	1321.7603	1344.3017	1368.1385	1385.8818	1410.4186	1421.3668	1483.8964	1486.1605	1496.5903	1515.6697	2934.222	2943.1199	3042.287	3069.856	3115.6735	3121.0052	3132.3457	3183.9311	3227.1505	3784.224
CC1OCC2(O)CC12	C[C@H]1OC[C@@]2(O)C[C@@H]12	
InChI=1S/C6H10O2/c1-4-5-2-6(5,7)3-8-4/h4-5,7H,2-3H2,1H3	InChI=1S/C6H10O2/c1-4-5-2-6(5,7)3-8-4/h4-5,7H,2-3H2,1H3/t4-,5+,6+/m1/s1
