20
gdb 120021	2.44317	1.23211	0.8912	2.2677	76.81	-0.2502	0.0244	0.2746	1337.2654	0.169799	-440.274947	-440.265278	-440.264334	-440.310037	34.702	
C	 0.266963322	 0.770685291	 0.6309872383	-0.256349
O	-0.3698516358	 0.4017994797	-0.5825054422	-0.234972
C	 0.4386403249	-0.3280593163	-1.4720884243	-0.093689
C	 0.5017430286	-1.827608568	-1.1401694786	-0.172789
C	 1.0849353327	-2.8185155918	-2.1892844217	 0.120816
C	 1.7310461633	-2.2940912611	-3.4538444069	-0.404856
O	 2.0897629259	-3.2508588761	-1.205947305	-0.266429
C	 1.6185297569	-2.3652813904	-0.2645425234	 0.435777
N	 2.0237854977	-2.1300004808	 0.900120977	-0.545801
H	 0.5928688178	-0.0981275465	 1.2144985651	 0.154896
H	 1.1456035157	 1.4056677345	 0.4380176025	 0.100648
H	-0.4646630492	 1.3470641212	 1.2023950123	 0.120486
H	-0.026357687	-0.2164376489	-2.4586654592	 0.108028
H	 1.450078899	 0.1023903858	-1.5277204674	 0.095966
H	-0.4855941141	-2.1289540227	-0.7795735251	 0.117728
H	 0.4204063554	-3.6591121174	-2.411218001	 0.097343
H	 2.4131747053	-1.4657875305	-3.2446717189	 0.131286
H	 2.3015637081	-3.092138239	-3.9380205608	 0.135179
H	 0.9674046688	-1.9493747211	-4.1586303922	 0.12909
H	 2.8263559141	-2.7136306816	 1.1416767714	 0.22764
62.7505	83.7051	120.5187	160.3364	207.2892	221.8434	239.7062	317.2002	373.3942	435.0363	462.929	491.3174	653.574	726.7665	818.1009	857.5912	868.2358	895.7436	946.7997	1014.8947	1029.0192	1053.9397	1071.5644	1131.3303	1141.0913	1164.3184	1186.3958	1220.1522	1235.1972	1245.2858	1292.7127	1332.2883	1362.9782	1385.3979	1407.0295	1414.7678	1477.1902	1484.5725	1491.5988	1497.0982	1502.379	1517.6889	1814.9011	2982.6908	2989.306	3043.0654	3055.8605	3059.9395	3065.3835	3084.4373	3113.5807	3120.6322	3125.6486	3475.8633
COCC1C(C)OC1=N	COC[C@H]1[C@@H](C)O[C]1[NH]	
InChI=1S/C6H11NO2/c1-4-5(3-8-2)6(7)9-4/h4-5,7H,3H2,1-2H3	InChI=1S/C6H11NO2/c1-4-5(3-8-2)6(7)9-4/h4-5,7H,3H2,1-2H3/t4-,5+/m1/s1
