19
gdb 112578	3.4069	0.96714	0.91981	2.4434	78.16	-0.2544	0.0217	0.2761	1349.7665	0.156539	-422.974163	-422.964532	-422.963588	-423.008945	35.793	
C	 0.3484616661	 1.2380321775	 0.2654324037	-0.434668
C	-0.0206530335	-0.2179197358	 0.0030256932	 0.235249
C	 0.5291800919	-0.8551869881	-1.3096162153	-0.362763
C	 1.281520624	-1.8209034928	-0.3781220448	 0.132961
C	 2.7995796723	-1.8158096187	-0.3986646115	-0.067962
O	 3.3151212055	-2.4217992728	 0.7687619353	-0.419942
O	 0.8014108301	-1.12439621	 0.8039772587	-0.33877
C	-1.4433022374	-0.4560003337	 0.2338249659	 0.33709
C	-2.6168530911	-0.6433030711	 0.4141838577	-0.48254
H	 1.4154791788	 1.3923225529	 0.0843151641	 0.119753
H	-0.2256243204	 1.9004154003	-0.3895322733	 0.130375
H	 0.1260255569	 1.5003618162	 1.3032674478	 0.13863
H	-0.2197396304	-1.2984420888	-1.9637975983	 0.12457
H	 1.1712953355	-0.1826129007	-1.88315682	 0.112256
H	 0.9106541988	-2.853077686	-0.3864559957	 0.090194
H	 3.1699133982	-2.3919960036	-1.2545854633	 0.108657
H	 3.1590225127	-0.7788861848	-0.5092899039	 0.080293
H	 2.8811139836	-1.9815025074	 1.5100981453	 0.294685
H	-3.6520262114	-0.8145107226	 0.5797232343	 0.201931
45.3026	99.8272	135.4211	174.9857	224.2808	247.303	335.8853	345.1243	405.0291	451.5533	473.1767	536.7942	572.2393	623.5957	629.6894	666.3852	782.6114	877.5585	894.0135	904.9551	934.778	997.2356	1034.2014	1049.9551	1089.3869	1131.2288	1156.0884	1198.7353	1225.0472	1255.4768	1264.4964	1308.4876	1348.2165	1397.9437	1403.1326	1437.1928	1478.4139	1485.9057	1491.0462	1497.4111	2232.6073	2964.1246	3034.1434	3043.1339	3066.4673	3076.8172	3121.7995	3127.0088	3151.3367	3500.7398	3784.2112
CC1(CC(CO)O1)C#C	C[C@]1(C[C@@H](CO)O1)C#C	
InChI=1S/C7H10O2/c1-3-7(2)4-6(5-8)9-7/h1,6,8H,4-5H2,2H3	InChI=1S/C7H10O2/c1-3-7(2)4-6(5-8)9-7/h1,6,8H,4-5H2,2H3/t6-,7+/m0/s1
