23
gdb 115839	2.5321	1.22275	1.06455	1.2104	84.85	-0.257	0.0767	0.3337	1271.1213	0.207143	-388.287074	-388.277776	-388.276832	-388.320984	35.651	
C	-0.3812111346	 1.4322593245	-0.1894030424	-0.421507
C	-0.0183771832	-0.0247363518	 0.0172223979	 0.00534
C	 1.3179362309	-0.6562518068	-0.2984895061	-0.065953
C	 2.5705047061	 0.2121106514	-0.3752057664	-0.225627
C	 2.6529133219	 0.9863071838	 0.9651925779	-0.231352
C	 1.7811453934	 0.1951630599	 1.9745372542	 0.042732
C	 1.1204842853	 1.0641033349	 3.0376384232	-0.092605
O	 2.1528745067	 1.6807458256	 3.7980918144	-0.425184
C	 0.8141376467	-0.6320794204	 1.132814429	-0.093048
H	 0.4490334947	 2.1166873992	-0.0132201587	 0.121653
H	-0.7210574696	 1.5926148967	-1.2192713886	 0.113188
H	-1.2018680341	 1.7298513283	 0.4735458582	 0.113567
H	-0.8487919847	-0.6773866568	-0.2481007368	 0.080158
H	 1.316359242	-1.5757788691	-0.8751773704	 0.074719
H	 3.4402909035	-0.4448950842	-0.4885540133	 0.09866
H	 2.5752147115	 0.8862918588	-1.239421782	 0.094164
H	 3.6813436732	 1.0873489061	 1.3186216411	 0.106061
H	 2.2722867975	 2.006181934	 0.8573257726	 0.103303
H	 2.4262928752	-0.5147283701	 2.509882521	 0.078408
H	 0.4766432356	 1.8186497664	 2.559343095	 0.084449
H	 0.475420433	 0.4406985775	 3.6780469583	 0.080001
H	 1.7438045137	 2.257432806	 4.4495602065	 0.284632
H	 0.4189267052	-1.5322422237	 1.5941388654	 0.074239
93.4131	125.1763	156.6471	172.7808	192.1791	263.7558	267.7928	348.6644	418.2923	453.4158	518.173	656.9318	692.7783	737.4878	763.0919	824.5578	842.6564	912.1396	949.0832	955.8408	990.3525	1003.9765	1040.2803	1055.7518	1072.8833	1089.2971	1101.4468	1116.2023	1142.0777	1156.0556	1194.6916	1229.6754	1245.2966	1249.2554	1262.7221	1307.4203	1325.0911	1327.234	1346.3117	1364.5486	1385.4882	1418.613	1445.7877	1457.7773	1485.7466	1496.27	1501.3452	1514.7026	1525.3423	2965.5353	2993.8769	3016.8016	3029.2884	3032.0563	3057.2418	3068.2668	3078.4433	3104.7283	3107.9478	3142.6438	3144.2239	3156.9204	3830.975
CC1C2CCC(CO)C12	C[C@H]1[C@H]2CC[C@@H](CO)[C@@H]12	
InChI=1S/C8H14O/c1-5-7-3-2-6(4-9)8(5)7/h5-9H,2-4H2,1H3	InChI=1S/C8H14O/c1-5-7-3-2-6(4-9)8(5)7/h5-9H,2-4H2,1H3/t5-,6-,7+,8+/m0/s1
