16
gdb 61375	3.64979	0.8571	0.75619	2.0451	74.21	-0.2701	-0.0798	0.1903	1473.889	0.12067	-437.859622	-437.849997	-437.849053	-437.894737	33.923	
C	-0.008745182	 1.5566161281	-0.0060731738	-0.404058
C	-0.014154594	 0.026089964	-0.0229641556	-0.061803
O	 0.7694145957	-0.4861659977	 1.0901706966	-0.252157
C	 2.0912505023	-0.6055580953	 0.8985320551	 0.318939
N	 2.7068463941	-0.2786587279	-0.1594045387	-0.507441
C	 2.7475241217	-1.1981262174	 2.1298415597	 0.108016
O	 3.9318864661	-1.4002261071	 2.1798098999	-0.233616
C	-1.353844725	-0.5342183311	 0.1043822912	 0.331943
C	-2.4707977873	-0.967792392	 0.1832757601	-0.432832
H	 1.0121709247	 1.9214757935	-0.1332139963	 0.14805
H	-0.6236234406	 1.9338049804	-0.8272852519	 0.136007
H	-0.4196670874	 1.9260520237	 0.9364990651	 0.134584
H	 0.4593722431	-0.3292869072	-0.9440750295	 0.147287
H	 3.6982784855	-0.4937864186	-0.0348116319	 0.248651
H	 2.0583637541	-1.4270252599	 2.9658543513	 0.112845
H	-3.4554129912	-1.3605160056	 0.2514138286	 0.205585
64.9056	70.5917	126.1976	172.8976	190.9797	228.0583	266.1981	315.6695	374.7004	428.5365	536.3514	553.7616	579.4387	626.8172	682.5694	736.6522	836.1878	891.7156	908.3725	949.8271	1039.0879	1043.8157	1104.89	1118.0221	1139.1434	1327.9929	1347.6707	1365.4627	1400.3742	1435.0729	1486.5904	1495.3696	1715.2862	1831.3595	2246.9471	2955.0686	3055.6466	3063.7721	3134.1742	3148.0505	3470.9594	3502.8894
CC(OC(=N)C=O)C#C	C[C@@H](O[C]([NH])C=O)C#C	
InChI=1S/C6H7NO2/c1-3-5(2)9-6(7)4-8/h1,4-5,7H,2H3	InChI=1S/C6H7NO2/c1-3-5(2)9-6(7)4-8/h1,4-5,7H,2H3/t5-/m1/s1
