18
gdb 35776	3.77914	1.21565	1.0305	0.5127	78.36	-0.2241	0.0284	0.2525	1166.7298	0.148281	-401.875926	-401.868031	-401.867087	-401.908376	30.834	
C	 0.0724904452	-1.1979557866	 0.0446018439	-0.408046
C	 0.070800899	 0.0028975017	 0.0176103357	 0.289049
C	 0.0155833663	 1.4585463166	 0.0160809106	-0.062157
C	-0.8093728494	 1.9916320674	 1.2076695993	-0.169334
N	-0.6373644439	 3.4317536986	 1.4511759067	-0.107284
C	 0.5551450372	 3.8354860089	 2.2020549723	-0.240267
C	 0.4502127652	 4.135932411	 0.7537650545	-0.01167
C	 1.3148283279	 3.3735600967	-0.2312580154	-0.113612
O	 1.3399938926	 1.9871106696	 0.0572827716	-0.25303
H	 0.0851135077	-2.2599165392	 0.0575120711	 0.19957
H	-0.4618648942	 1.7938815675	-0.921138165	 0.098352
H	-1.8695701623	 1.7958983269	 1.0120541152	 0.115973
H	-0.534130421	 1.4342790105	 2.1082950341	 0.11911
H	 0.3984588592	 4.6144526322	 2.9437305197	 0.112659
H	 1.2558969201	 3.0543364224	 2.4897128025	 0.122569
H	 0.1922829454	 5.1454319207	 0.4364739671	 0.092196
H	 0.9430284953	 3.5361868793	-1.2571881471	 0.096873
H	 2.3521915596	 3.7206738955	-0.1911153566	 0.11905
76.7511	145.9591	192.8687	284.2153	365.6448	382.6776	428.6786	490.1934	511.1812	556.494	621.9198	677.2912	694.1621	769.583	793.9208	851.7188	934.7802	961.3176	1013.9464	1031.9978	1056.3365	1085.5214	1094.9123	1123.844	1132.7383	1145.4237	1169.6227	1254.5419	1280.8684	1311.8626	1322.7455	1368.8796	1384.4416	1392.6143	1425.1873	1491.1704	1496.7844	1508.5105	2243.5524	2949.358	2964.4168	3037.7162	3075.4816	3084.8066	3098.0916	3113.8226	3185.5009	3503.9284
C#CC1CN2CC2CO1	C#C[C@H]1CN2C[C@H]2CO1	
InChI=1S/C7H9NO/c1-2-7-4-8-3-6(8)5-9-7/h1,6-7H,3-5H2	InChI=1S/C7H9NO/c1-2-7-4-8-3-6(8)5-9-7/h1,6-7H,3-5H2/t6-,7-,8?/m0/s1
