20
gdb 59739	2.38719	1.49038	1.00826	1.7893	76.1	-0.2671	0.0188	0.2859	1215.273	0.170833	-440.307026	-440.297835	-440.296891	-440.341219	33.845	
C	 0.2002388436	 1.4922561771	-0.0175961395	-0.391878
C	 0.0287734221	-0.0317039801	-0.0649864284	 0.008972
C	-1.4285737941	-0.4369540166	 0.192740464	-0.397884
C	 0.5177110859	-0.5825947258	-1.4234760282	 0.017621
O	 1.8230253952	-0.10820623	-1.7776567904	-0.254622
C	 2.7362665657	-1.103730574	-1.4141323991	 0.0121
O	 2.040465282	-2.3481122895	-1.4737143773	-0.233835
C	 0.7003586193	-2.0912912161	-1.4490240572	 0.390557
N	-0.2125030907	-2.9611838293	-1.4515655622	-0.53153
H	 1.2365433261	 1.7851184807	-0.198705889	 0.125422
H	-0.4239963222	 1.9766043879	-0.7780331488	 0.114396
H	-0.1062268023	 1.8794541838	 0.9590734572	 0.112329
H	 0.6573141622	-0.4758387141	 0.7201213645	 0.074025
H	-2.092300331	 0.0240705667	-0.5485904662	 0.112627
H	-1.5638334656	-1.518530415	 0.1344015679	 0.153093
H	-1.7469105007	-0.0919449699	 1.1813779362	 0.109987
H	-0.1688748362	-0.2660302556	-2.2148108796	 0.115601
H	 3.56206171	-1.1197867923	-2.1311661051	 0.129643
H	 3.1213814624	-0.9663457143	-0.3915024611	 0.106239
H	 0.1825270883	-3.9027738734	-1.4545499677	 0.22714
67.3008	92.8261	172.3586	191.4679	221.9048	242.3965	293.9219	337.9931	374.1669	438.6438	498.252	644.6305	682.0226	758.9249	855.597	887.1187	892.339	933.0478	945.8445	970.7331	1005.5859	1009.4801	1058.6333	1123.0699	1139.1102	1159.3992	1180.8194	1195.2925	1219.7473	1277.5897	1310.1661	1329.0037	1345.4624	1387.2546	1399.3347	1423.6435	1445.8913	1488.7558	1492.3237	1501.8325	1515.4205	1548.6638	1786.469	2980.1074	3002.557	3030.6741	3035.1521	3069.3218	3087.2404	3093.714	3099.9523	3128.5577	3138.278	3476.9749
CC(C)C1OCOC1=N	CC(C)[C@H]1OCO[C]1[NH]	
InChI=1S/C6H11NO2/c1-4(2)5-6(7)9-3-8-5/h4-5,7H,3H2,1-2H3	InChI=1S/C6H11NO2/c1-4(2)5-6(7)9-3-8-5/h4-5,7H,3H2,1-2H3/t5-/m1/s1
