16
gdb 74074	2.77273	1.55993	1.12362	5.5204	73.82	-0.2226	-0.0365	0.186	1073.3152	0.123763	-437.903853	-437.895561	-437.894617	-437.936323	31.627	
C	-0.0942333901	 1.5132350312	 0.049674783	-0.492942
C	 0.1440538149	 0.0353667397	 0.0159843879	 0.287137
O	-0.672630582	-0.8069633475	 0.8672249246	-0.286008
C	 0.7537232936	-0.7983642031	 1.0506242927	-0.14776
C	 1.4305451055	-1.9481423082	 0.3487526363	 0.405876
N	 2.130692261	-2.8634425819	 1.0635383515	-0.592438
C	 1.2343580708	-1.8659262331	-0.9949601968	-0.345377
C	 0.4677889849	-0.6661113051	-1.3217191816	 0.378112
O	 0.1329373267	-0.2403544338	-2.407229035	-0.355259
H	 0.8057991792	 2.0545175974	-0.2582251685	 0.132331
H	-0.8901531793	 1.7714343182	-0.6547302887	 0.151587
H	-0.3823327073	 1.8368464287	 1.0525142023	 0.125512
H	 1.1182202602	-0.4278701824	 2.0053948988	 0.102988
H	 1.9639476933	-2.9387533276	 2.0535234348	 0.267734
H	 2.4434844502	-3.7066072336	 0.6093872492	 0.268405
H	 1.5410667883	-2.5923255291	-1.7356412103	 0.100103
139.5085	156.8802	167.8942	242.4132	298.3922	309.6642	367.0816	411.9317	492.9444	506.567	553.3912	609.0713	677.5419	704.47	753.8667	803.3059	834.9978	890.0091	926.5518	1007.2871	1033.1447	1081.5753	1098.4369	1132.5644	1254.9896	1269.6188	1288.9715	1400.8021	1413.2955	1455.0426	1478.7945	1494.4166	1629.7987	1679.4494	1800.5858	3046.3161	3114.3778	3132.584	3149.7364	3219.6237	3592.302	3705.4701
CC12OC1C(N)=CC2=O	C[C@]12O[C@H]1C(=CC2=O)N	
InChI=1S/C6H7NO2/c1-6-4(8)2-3(7)5(6)9-6/h2,5H,7H2,1H3	InChI=1S/C6H7NO2/c1-6-4(8)2-3(7)5(6)9-6/h2,5H,7H2,1H3/t5-,6+/m0/s1
