21
gdb 91907	2.46636	1.48839	1.04228	1.8498	78.63	-0.2399	0.0734	0.3133	1197.9911	0.182875	-424.218111	-424.209416	-424.208472	-424.251083	34.204	
C	 0.0083396952	 1.5356698206	 0.0929309146	-0.398561
C	 0.018292344	 0.019034643	-0.023929843	 0.141871
C	 0.6508082706	-0.4872620473	-1.3235424268	-0.252374
C	 0.5444705105	-2.01614099	-1.41806352	 0.09798
O	 1.3956265992	-2.5589371145	-2.4228026351	-0.437874
C	 0.8728832383	-2.6897467754	-0.1050724487	-0.044527
C	 2.1865720207	-2.4515651254	 0.6083139742	-0.299153
C	 0.9169108776	-1.8592370906	 1.1557345822	 0.09186
O	 0.7628960604	-0.4700846024	 1.0908041416	-0.270528
H	 1.0265368552	 1.9305944114	 0.0229527887	 0.123264
H	-0.5941145324	 1.978896624	-0.7056505327	 0.111563
H	-0.410556215	 1.8394607229	 1.055927366	 0.124299
H	-1.0180637637	-0.3571061702	 0.0380607763	 0.063318
H	 0.1579888644	-0.0293212246	-2.1904179115	 0.085978
H	 1.70493412	-0.1871978328	-1.3470775374	 0.110361
H	-0.5058972831	-2.2616832139	-1.6500963326	 0.062862
H	 1.1419130428	-2.1673141616	-3.265483822	 0.276934
H	 0.4583404531	-3.6880208002	-0.0056583543	 0.090441
H	 2.6458481073	-3.2898706285	 1.1201747668	 0.109448
H	 2.885221634	-1.7531359573	 0.1623960102	 0.123426
H	 0.4898124109	-2.280738097	 2.0629660935	 0.089411
102.4387	150.7774	199.402	227.5254	259.7468	296.7522	374.7268	409.7654	432.126	456.6462	485.3804	591.4846	663.3728	747.8063	815.1734	834.2767	887.105	918.4218	938.1442	985.2953	1007.7971	1032.1042	1046.1133	1069.9999	1094.4028	1120.1773	1126.3508	1163.5502	1169.638	1186.3247	1223.1667	1244.0263	1267.3727	1288.5311	1353.6072	1375.0284	1389.3886	1394.1757	1410.4771	1414.2422	1442.0621	1478.1256	1482.9619	1491.0608	1500.1786	2943.5241	2951.2732	3025.2566	3042.5561	3074.5594	3116.172	3121.5856	3123.8631	3139.0781	3154.295	3228.6923	3804.7707
CC1CC(O)C2CC2O1	C[C@H]1C[C@@H](O)[C@H]2C[C@H]2O1	
InChI=1S/C7H12O2/c1-4-2-6(8)5-3-7(5)9-4/h4-8H,2-3H2,1H3	InChI=1S/C7H12O2/c1-4-2-6(8)5-3-7(5)9-4/h4-8H,2-3H2,1H3/t4-,5+,6+,7+/m0/s1
