21
gdb 64164	2.13822	1.48599	1.32643	1.8597	84.18	-0.2477	0.0266	0.2743	1138.2179	0.178807	-387.047081	-387.036988	-387.036044	-387.081388	38.48	
C	-0.4371707727	 1.4747975029	 0.1780486429	-0.459841
C	-0.0397139035	 0.0170780441	-0.029428825	 0.230599
C	-1.2153881175	-0.7886686981	-0.5821737063	-0.44188
C	 1.2691379441	-0.2499530938	-0.8080118426	-0.108809
O	 1.7827135435	-1.1042169865	 0.2319410406	-0.314652
C	 0.7259271037	-0.7117593063	 1.1548886462	 0.177561
C	 1.2984129957	 0.1790199177	 2.2605825816	-0.433771
C	 0.0615410082	-1.8685703452	 1.7469604912	 0.324861
C	-0.4830967248	-2.8051209957	 2.2686993292	-0.462752
H	 0.3921416566	 2.0917891681	 0.5320200246	 0.117074
H	-0.7876070232	 1.9043289095	-0.7672206384	 0.118421
H	-1.2575667565	 1.5616032377	 0.8989697052	 0.121641
H	-1.5485301504	-0.3576439141	-1.5329210941	 0.108234
H	-0.9390766421	-1.8315371647	-0.7560930309	 0.13293
H	-2.0627673938	-0.77926453	 0.110470883	 0.120296
H	 1.1666063243	-0.7819708505	-1.7607433608	 0.102476
H	 1.9028507484	 0.634967208	-0.9597032694	 0.091356
H	 1.8628373786	 1.0100888259	 1.8318517387	 0.120004
H	 0.503309433	 0.5765554024	 2.8982418582	 0.124063
H	 1.9762783155	-0.4117451272	 2.881968163	 0.135457
H	-0.9614405571	-3.6405902141	 2.7174767031	 0.196732
56.5181	147.6793	178.733	200.102	227.6132	255.3288	283.4482	317.5764	344.1612	360.1767	392.4471	439.8784	530.9552	551.7994	622.8441	624.1371	661.5859	667.4236	864.2207	882.2773	923.6112	946.0493	964.8537	990.1102	1022.595	1030.586	1102.0674	1139.1855	1159.9387	1189.0463	1219.8443	1266.9321	1284.5785	1352.5401	1397.6094	1405.1457	1424.0279	1474.7455	1480.4009	1485.3292	1491.4545	1503.8923	1509.8578	1531.0152	2228.2307	3000.3625	3030.078	3035.4586	3047.2288	3057.1028	3090.8456	3100.5344	3115.7932	3121.0791	3123.6561	3132.5243	3500.0247
CC1(C)COC1(C)C#C	CC1(C)CO[C@]1(C)C#C	
InChI=1S/C8H12O/c1-5-8(4)7(2,3)6-9-8/h1H,6H2,2-4H3	InChI=1S/C8H12O/c1-5-8(4)7(2,3)6-9-8/h1H,6H2,2-4H3/t8-/m1/s1
