14
gdb 32034	3.99445	1.21694	0.9383	6.2617	69.38	-0.2583	-0.0536	0.2047	1174.5814	0.102078	-470.078217	-470.070172	-470.069227	-470.111783	28.032	
C	 0.0815970682	 1.4480664805	 0.064178004	-0.33851
N	-0.0862495033	 0.0068959332	 0.1333668897	-0.357004
C	-1.2610434264	-0.6247632141	 0.0404742047	 0.558778
N	-2.395919778	 0.0224136396	-0.1258669001	-0.370696
C	-3.4744365019	-0.7851994439	-0.1972231827	 0.089575
N	-3.5324830271	-2.0910415596	-0.124151721	-0.336037
C	-2.3680060761	-2.7718911703	 0.0475219216	 0.450459
O	-2.1773964944	-3.9418411299	 0.1400959619	-0.319195
O	-1.1552851233	-1.9451906265	 0.1327771363	-0.258736
H	 0.7246820346	 1.7209960676	-0.7782802303	 0.143417
H	-0.9014288727	 1.8959422054	-0.0734905994	 0.18756
H	 0.5264595261	 1.8289040569	 0.9887518553	 0.143419
H	 0.7194682891	-0.5861639747	 0.2596547852	 0.272813
H	-4.4241960349	-0.2700822244	-0.3347866352	 0.134157
61.2994	90.4656	137.5616	185.0558	216.0178	389.4674	427.5902	521.4816	553.8855	565.6118	653.5699	733.7238	769.9258	808.5797	847.1053	960.5499	1032.9505	1037.8761	1116.5901	1157.2687	1168.9227	1305.1079	1368.8528	1422.6121	1446.118	1497.6846	1500.1097	1534.2461	1626.7683	1653.8917	1913.3474	3042.3965	3100.501	3149.7662	3172.8102	3637.1456
CNC1=NC=NC(=O)O1	CNc1ncnc(=O)o1	
InChI=1S/C4H5N3O2/c1-5-3-6-2-7-4(8)9-3/h2H,1H3,(H,5,6,7,8)	InChI=1S/C4H5N3O2/c1-5-3-6-2-7-4(8)9-3/h2H,1H3,(H,5,6,7,8)
