16
gdb 52263	5.34994	0.76645	0.72632	1.8442	66.24	-0.2645	-0.0358	0.2287	1503.6595	0.122984	-475.032788	-475.024209	-475.023265	-475.068005	29.214	
O	-0.1213351433	 0.0979561712	 0.4690262334	-0.233174
C	 0.1043712199	 1.040619983	-0.24062397	 0.140062
C	 1.3448181891	 1.9067199757	-0.1069493343	-0.16167
O	 1.3087920673	 2.8834415592	-1.1305121001	-0.244868
C	 2.4224897551	 3.7135882525	-1.1850425648	 0.195056
C	 2.255460236	 4.7233368573	-2.3371460169	-0.20503
N	 1.984289996	 6.0127104049	-1.6836921123	-0.25288
C	 2.1371340407	 5.8024790687	-0.4460082775	 0.115567
O	 2.4857593597	 4.5579875081	-0.0116040799	-0.230696
H	-0.5804986142	 1.3592066243	-1.0565965648	 0.100894
H	 1.3569811274	 2.3673214336	 0.890028933	 0.148531
H	 2.238446029	 1.2679089692	-0.188490439	 0.129353
H	 3.3475808117	 3.124171666	-1.1948782755	 0.089883
H	 3.1570103242	 4.8023057303	-2.9524307211	 0.125893
H	 1.4234424785	 4.4266207332	-2.980787185	 0.136522
H	 2.0284392329	 6.538953223	 0.3418622549	 0.14656
44.3419	55.6191	99.1022	117.2156	174.7958	320.9009	355.0545	462.0175	553.0805	600.0479	736.1079	768.2351	873.7503	890.1559	948.7817	955.1835	987.2742	1026.7213	1040.7936	1088.8651	1105.4431	1114.6125	1166.9626	1231.5071	1239.5773	1304.7662	1321.274	1336.9	1360.3261	1396.3836	1423.0209	1476.5206	1482.7665	1711.6829	1846.7456	2904.0652	2991.3664	3034.6228	3045.6491	3060.9901	3108.9099	3221.5917
O=CCOC1CN=CO1	O=CCO[C@H]1CN=CO1	
InChI=1S/C5H7NO3/c7-1-2-8-5-3-6-4-9-5/h1,4-5H,2-3H2	InChI=1S/C5H7NO3/c7-1-2-8-5-3-6-4-9-5/h1,4-5H,2-3H2/t5-/m1/s1
