16
gdb 46275	3.10449	1.57286	1.29712	3.7915	67.85	-0.2561	-0.0081	0.248	982.3238	0.125389	-437.856625	-437.849468	-437.848523	-437.888345	27.448	
O	-0.1214545358	 0.0880426896	-0.3930202403	-0.332671
C	-0.0371549406	 1.2275603855	-0.0598641605	 0.441276
O	-1.0139383947	 2.0328718833	 0.4617127131	-0.246828
C	-0.1002237853	 3.1803676389	 0.5402964905	-0.14659
C	 1.0400041984	 2.3202898763	-0.0159018428	 0.14145
C	 2.40269313	 2.1384207831	 0.6934831048	-0.332156
C	 3.0400245835	 2.4774356446	-0.6512416894	-0.015113
C	 2.5173451161	 1.6192052647	-1.7290031477	-0.243113
N	 1.6880760111	 2.7698978633	-1.2924630599	-0.170183
H	-0.4266470997	 3.985087864	-0.1203742071	 0.140828
H	 0.0003566402	 3.5234041552	 1.572115762	 0.124865
H	 2.5636553624	 2.9044267336	 1.4548936342	 0.12331
H	 2.62667155	 1.1558875858	 1.1168556195	 0.128162
H	 3.8836731639	 3.1436645595	-0.7945051917	 0.104246
H	 2.924043463	 1.7667495827	-2.7241750997	 0.130191
H	 2.1645099574	 0.6138033899	-1.5186771851	 0.152326
127.599	149.3452	167.2941	321.0091	330.5837	434.7574	462.9907	622.0192	708.5791	764.4941	769.5497	789.3657	821.0783	887.0693	910.309	941.3552	956.521	1005.9233	1059.2306	1086.4739	1114.1125	1122.4084	1136.9432	1155.5517	1172.0673	1198.7195	1227.9608	1251.8677	1282.0558	1353.751	1369.1258	1480.974	1505.3693	1508.6363	1923.2463	3064.3413	3074.3986	3120.1921	3125.8875	3143.5537	3174.3939	3218.2134
O=C1OCC11CC2CN12	O=C1OC[C@]21C[C@H]1CN21	
InChI=1S/C6H7NO2/c8-5-6(3-9-5)1-4-2-7(4)6/h4H,1-3H2	InChI=1S/C6H7NO2/c8-5-6(3-9-5)1-4-2-7(4)6/h4H,1-3H2/t4-,6-,7?/m0/s1
