23
gdb 119088	2.16985	1.21445	0.93725	2.0777	82.12	-0.2477	0.0795	0.3272	1389.4839	0.204452	-425.410491	-425.40033	-425.399386	-425.445934	37.73	
C	 1.907047606	 1.5940323875	-0.498470772	-0.381524
C	 2.0678725047	 0.1070379664	-0.7703877127	-0.066046
O	 0.7752165061	-0.4367178596	-1.0108255315	-0.313084
C	 0.7336072946	-1.7760140302	-1.4890112637	 0.393501
C	 1.1216479778	-2.7377361261	-0.3648095973	-0.096632
O	 0.3236588551	-2.5205019813	 0.781547211	-0.431574
C	-0.637322291	-2.1090663906	-2.1231870488	-0.269423
C	 0.1110489121	-2.8178357054	-3.2856058834	-0.221018
C	 1.4154181798	-2.0914894009	-2.8514640431	-0.281486
H	 1.4530281449	 2.0945491384	-1.3582439565	 0.126429
H	 1.2636633849	 1.7590584411	 0.3707428867	 0.125243
H	 2.880329717	 2.0527961272	-0.2999804367	 0.116266
H	 2.7143789708	-0.0566317394	-1.6449479988	 0.096429
H	 2.5491091341	-0.3857636073	 0.0874672627	 0.097717
H	 0.9655472047	-3.7734274418	-0.6858223364	 0.104011
H	 2.1951771796	-2.6301100169	-0.1351166716	 0.08149
H	 0.2003469555	-1.5639401879	 0.8326886126	 0.285898
H	-1.3277570995	-2.693791575	-1.5124661856	 0.111767
H	-1.1305630006	-1.1911580766	-2.4507927111	 0.107568
H	 0.1721953922	-3.9001287617	-3.1476036343	 0.107522
H	-0.2472511185	-2.6213079965	-4.2975649642	 0.10294
H	 1.577542243	-1.1749168093	-3.4249529184	 0.108116
H	 2.3441623967	-2.6688093043	-2.8328942367	 0.09589
54.9065	86.8038	126.6169	158.3422	179.2155	222.3187	248.8389	330.7966	352.6039	389.4313	423.6357	448.2019	545.2005	674.9634	740.7201	799.9829	822.3631	852.4627	878.8213	907.0722	933.1048	966.1338	981.3381	1043.1426	1071.7041	1085.0788	1112.8762	1142.7158	1161.0705	1187.2973	1196.0241	1205.6906	1239.8241	1250.1964	1272.6164	1292.1439	1300.5808	1305.1582	1357.277	1400.7181	1423.1112	1441.2437	1469.7279	1484.0001	1484.8898	1498.9688	1504.5085	1516.7469	1527.7886	2961.6386	2989.5405	3020.4467	3044.417	3053.2025	3064.9856	3068.367	3073.9816	3103.6542	3118.2547	3119.4106	3122.2274	3134.5498	3770.2119
CCOC1(CO)CCC1	CCOC1(CO)CCC1	
InChI=1S/C7H14O2/c1-2-9-7(6-8)4-3-5-7/h8H,2-6H2,1H3	InChI=1S/C7H14O2/c1-2-9-7(6-8)4-3-5-7/h8H,2-6H2,1H3
