16
gdb 22088	4.25393	0.78203	0.73508	2.6034	76.63	-0.2461	-0.0624	0.1837	1522.0991	0.1195	-437.825269	-437.815098	-437.814154	-437.861894	35.184	
C	-0.0385672533	 1.5418460576	-0.0475120929	-0.48721
C	 0.0313139887	 0.041549524	-0.0521044316	 0.367588
C	 0.1509212582	-0.7018983906	 1.2520918478	-0.388051
C	 1.4476930275	-0.4255412924	 2.0081922207	 0.239842
O	 2.3195312329	 0.3126356405	 1.6070121353	-0.28189
C	 1.5692088682	-1.1301143886	 3.2746008327	 0.243591
C	 1.6516717444	-1.7252252327	 4.3176081089	-0.38972
N	-0.0097167252	-0.7060511752	-1.0886441881	-0.161198
O	-0.1159900718	 0.0272253067	-2.2765630269	-0.394469
H	 0.9727390552	 1.9568362351	 0.008968432	 0.167211
H	-0.5195725602	 1.9112510136	-0.9531116927	 0.149688
H	-0.586085353	 1.8987267827	 0.830371549	 0.119246
H	-0.6799059074	-0.4517906999	 1.9276018255	 0.137918
H	 0.0870819218	-1.7803855043	 1.0704022284	 0.153012
H	 1.7429941	-2.2422106276	 5.2421453261	 0.217156
H	-0.169618336	-0.6698252489	-2.9386711042	 0.307288
37.0011	50.1491	69.1405	121.3563	183.8568	237.4813	304.3736	323.8228	353.0347	395.4526	421.7695	521.3944	577.5764	610.0365	650.4546	664.9723	709.1052	826.6968	836.5198	922.253	993.4165	1035.4337	1058.3332	1100.2086	1195.9021	1272.5316	1339.7668	1396.0772	1401.2984	1434.7933	1481.7325	1486.1851	1733.4811	1771.9882	2211.7068	3016.3197	3048.4607	3081.3932	3107.3341	3154.9059	3494.272	3822.5106
CC(CC(=O)C#C)=NO	CC(=NO)CC(=O)C#C	
InChI=1S/C6H7NO2/c1-3-6(8)4-5(2)7-9/h1,9H,4H2,2H3	InChI=1S/C6H7NO2/c1-3-6(8)4-5(2)7-9/h1,9H,4H2,2H3
