22
gdb 62577	3.31649	1.47131	1.29522	1.3358	86.16	-0.2157	0.0901	0.3057	1090.9302	0.196177	-367.153476	-367.145679	-367.144735	-367.185106	32.715	
C	-0.1272618309	 1.5900982622	 0.0053348477	-0.493328
C	-0.0068521762	 0.0665616058	-0.0805961121	 0.333898
C	-1.1224957858	-0.6196930695	 0.6992318176	-0.440134
C	 0.5060594013	-0.7511515022	-1.2250680668	-0.070291
C	 1.6024179885	-0.315460764	-2.2034933678	-0.06501
C	 2.7781939593	-1.1781401687	-1.6054032955	-0.199597
C	 2.553126444	-0.1977301614	-0.4090591367	 0.006577
C	 2.3085190519	 0.8776035086	-1.5079489829	-0.247937
N	 1.2441222278	-0.7269963476	 0.0815447539	-0.154122
H	-0.2191778786	 2.0699011997	-0.9716716195	 0.131744
H	-1.026878912	 1.8442623102	 0.5731975155	 0.114786
H	 0.7183284313	 2.0404943664	 0.5319176421	 0.133648
H	-2.1010592368	-0.3517003017	 0.2846463583	 0.109615
H	-1.0118341025	-1.7058498135	 0.6721893436	 0.122934
H	-1.1011369123	-0.3042454288	 1.7482406949	 0.117061
H	-0.021635668	-1.671567711	-1.4745067088	 0.080799
H	 1.3600739911	-0.3133225159	-3.2660649263	 0.063406
H	 2.5860938827	-2.2352382533	-1.4090722988	 0.101459
H	 3.7290592786	-1.0373698583	-2.1239280536	 0.093453
H	 3.2775381484	-0.0654078931	 0.3938462005	 0.069499
H	 3.2438325921	 1.1224312265	-2.0160069169	 0.095935
H	 1.7723796562	 1.7941123996	-1.2936268283	 0.095606
129.0052	228.0928	255.8981	267.6512	302.7397	366.4716	416.0291	516.475	521.9924	625.2495	663.6221	695.8343	740.7051	826.6911	833.9998	856.7844	872.0157	890.4138	954.0327	977.7767	989.2191	1008.7631	1033.7276	1036.6736	1046.4949	1056.4943	1097.8923	1105.4313	1107.8947	1127.6189	1141.8691	1208.1662	1215.3694	1238.4007	1253.9981	1279.6553	1302.0188	1319.0842	1393.521	1405.9892	1423.0412	1485.7431	1489.0648	1496.241	1506.449	1510.2028	1544.0854	3028.4583	3045.7809	3065.1941	3086.8269	3092.0973	3097.5703	3105.5089	3117.9479	3120.5766	3123.5246	3126.6184	3133.4251	3203.6239
CC1(C)C2C3CC(C3)N12	CC1(C)[C@H]2[C@@H]3C[C@@H](C3)N12	
InChI=1S/C8H13N/c1-8(2)7-5-3-6(4-5)9(7)8/h5-7H,3-4H2,1-2H3	InChI=1S/C8H13N/c1-8(2)7-5-3-6(4-5)9(7)8/h5-7H,3-4H2,1-2H3/t5-,6+,7-,9?/m1/s1
