21
gdb 119645	4.32913	0.94529	0.90789	1.0763	81.8	-0.2437	0.08	0.3237	1356.427	0.18302	-387.034269	-387.025809	-387.024865	-387.067715	32.881	
O	-0.0748154889	 1.464539338	 0.0081448564	-0.41887
C	 0.0114714761	 0.0471572852	-0.0120132195	-0.073754
C	-1.4098212336	-0.5054753801	 0.0319468502	-0.31574
C	-1.457693905	-2.0129778246	 0.0154710655	 0.338685
C	-1.0054079818	-2.8343007808	-1.2333771357	-0.269303
C	-1.9813734951	-3.9047086353	-0.7577897508	-0.062657
C	-1.9261256038	-3.9232417608	 0.7785413308	-0.062665
C	-0.9175909616	-2.8637614156	 1.2084552442	-0.269304
C	-2.7728679199	-2.9073482648	 0.0519756198	-0.142239
H	 0.8181575297	 1.819988793	-0.0193045417	 0.284247
H	 0.5219991392	-0.3071780037	-0.9219914767	 0.089507
H	 0.5851189834	-0.328548844	 0.8505507854	 0.089512
H	-1.9022534882	-0.1223508406	 0.9344924689	 0.103861
H	-1.9648865308	-0.101146843	-0.8237875114	 0.10386
H	-1.3492216927	-2.3673513363	-2.1617418339	 0.09485
H	 0.059437343	-3.0838198136	-1.3199251142	 0.082866
H	-2.3612991438	-4.7562428936	-1.3077457736	 0.081913
H	-2.2663100892	-4.7881045599	 1.3336924618	 0.081913
H	 0.150504262	-3.1143688453	 1.212258426	 0.082867
H	-1.1934317556	-2.41962457	 2.1701032077	 0.094849
H	-3.8270183335	-2.6741078041	 0.0927014108	 0.085603
73.7577	92.0911	128.0429	262.9653	305.8574	322.6159	344.2553	436.6555	449.1482	684.6986	718.9461	757.2293	778.943	802.7354	803.6725	893.5723	908.7166	932.5059	953.5919	985.9402	1006.1508	1007.6444	1018.9947	1027.8081	1043.5716	1072.6846	1102.2029	1120.4321	1147.1936	1171.1772	1183.8425	1232.322	1241.9247	1247.6511	1252.0992	1298.0704	1305.6866	1321.9207	1367.0556	1369.033	1458.5495	1489.7236	1489.849	1508.3136	1527.276	2964.8627	2989.6259	3016.5069	3023.2912	3025.8902	3064.5951	3081.4623	3084.1388	3189.9976	3196.6566	3221.8743	3830.2781
OCCC12CC3C(C1)C23	OCC[C@@]12C[C@H]3[C@@H](C1)[C@@H]23	
InChI=1S/C8H12O/c9-2-1-8-3-5-6(4-8)7(5)8/h5-7,9H,1-4H2	InChI=1S/C8H12O/c9-2-1-8-3-5-6(4-8)7(5)8/h5-7,9H,1-4H2/t5-,6+,7-,8+
