21
gdb 115453	3.69934	0.88085	0.8172	3.8834	80.38	-0.2449	-0.0155	0.2294	1474.7348	0.18188	-424.242035	-424.232505	-424.23156	-424.277814	34.087	
C	 0.2806992905	 0.7037814662	 0.7159504514	-0.236761
O	 0.1079026717	-0.4317599908	-0.0982267572	-0.249939
C	 0.5283507769	-0.259401354	-1.4441311497	 0.132782
C	 2.0546339161	-0.3900566248	-1.6038262438	-0.234225
C	 2.3333422692	-1.9160203463	-1.6480669627	-0.23352
C	 0.9487737722	-2.6117782737	-1.8417387221	-0.037579
C	-0.0065423388	-1.458408491	-2.230226696	-0.256386
C	 1.0021053611	-3.6800627663	-2.9046889527	 0.148874
O	 0.7028300867	-4.8364351135	-2.7594518569	-0.251727
H	 1.337562904	 0.9859310343	 0.8342646435	 0.105518
H	-0.262211679	 1.5747022918	 0.3159600382	 0.104996
H	-0.1236584185	 0.4585527978	 1.7010709699	 0.130025
H	 0.1477805344	 0.6992443444	-1.82830775	 0.060838
H	 2.3590644158	 0.0867507606	-2.5416234807	 0.102168
H	 2.598472126	 0.1141135755	-0.8011161782	 0.105764
H	 3.0170138288	-2.1607314562	-2.4685198356	 0.103251
H	 2.8050808569	-2.2752397536	-0.7314125144	 0.120116
H	 0.6142906726	-3.0727486709	-0.9108803005	 0.105085
H	-1.0509207276	-1.6724160833	-1.9949118354	 0.120346
H	 0.0682212414	-1.2456744923	-3.3044408476	 0.09922
H	 1.3601483594	-3.3006781339	-3.8950053793	 0.061153
32.9505	76.4691	87.7006	124.5316	203.7715	279.3626	315.8774	323.181	380.1798	405.7795	497.1367	662.0919	730.5909	793.4919	849.1517	860.8033	904.8627	929.442	965.0285	989.9832	1022.5246	1062.5569	1094.9642	1100.51	1138.1032	1181.5176	1188.656	1192.5097	1217.9015	1246.7699	1286.6604	1295.2853	1310.2222	1327.8029	1340.4291	1358.5688	1388.4237	1426.4341	1472.3534	1479.418	1481.394	1491.0218	1502.2016	1510.7411	1836.0935	2816.1224	2973.9213	2987.6443	3021.8467	3033.4813	3042.6078	3057.4823	3090.9001	3099.3162	3113.2023	3113.7991	3120.244
COC1CCC(C1)C=O	CO[C@H]1CC[C@@H](C1)C=O	
InChI=1S/C7H12O2/c1-9-7-3-2-6(4-7)5-8/h5-7H,2-4H2,1H3	InChI=1S/C7H12O2/c1-9-7-3-2-6(4-7)5-8/h5-7H,2-4H2,1H3/t6-,7-/m0/s1
