23
gdb 106379	3.1951	1.35508	1.18997	0.2023	88.51	-0.247	0.0921	0.3391	1168.0404	0.208059	-351.124419	-351.116462	-351.115517	-351.156584	33.213	
C	 0.1288801341	 1.5460207605	-0.0342444972	-0.390835
C	-0.0394239254	 0.0231358384	-0.0080486016	-0.29112
C	-1.4749195074	-0.4702839158	-0.032055378	 0.361593
C	-2.5772075348	-0.0111918355	 1.0006300474	-0.249614
C	-3.5337597549	-0.5951863223	-0.094941036	-0.043757
C	-2.5083004723	-0.032738022	-1.1132092336	-0.278366
C	-3.1901215889	-2.0936897818	 0.0123193905	-0.031321
C	-2.358566921	-2.7633474286	-1.0546616141	-0.319455
C	-1.6766708124	-2.0036506055	 0.0581651476	-0.07451
H	 1.188102394	 1.8204021174	-0.0121841637	 0.110184
H	-0.3061882046	 1.9836379567	-0.9386655138	 0.116312
H	-0.3530569218	 2.0174021888	 0.8284432853	 0.116534
H	 0.4932288282	-0.4167821427	-0.8622084608	 0.097614
H	 0.453226771	-0.3791108566	 0.8881640471	 0.092526
H	-2.5786843802	-0.4950472351	 1.9822342452	 0.082834
H	-2.6530987917	 1.0747401972	 1.1095135102	 0.087493
H	-4.5881194508	-0.3215672494	-0.1433564611	 0.056626
H	-2.5783688362	 1.0546324539	-1.1811077044	 0.093701
H	-2.4507246753	-0.4486653903	-2.1203414503	 0.089128
H	-3.7536181494	-2.7033352161	 0.7098826847	 0.081887
H	-2.2957906046	-3.8451346201	-0.9796326228	 0.104661
H	-2.3500840292	-2.409260471	-2.0785882656	 0.109951
H	-1.0845537363	-2.5462724301	 0.7878849051	 0.077931
83.3925	183.161	210.1102	273.0782	342.9923	390.3374	421.5502	537.8677	551.328	596.0488	648.8593	760.5087	773.9284	794.1866	816.3008	849.0773	888.7935	908.7775	927.3351	960.8615	976.3568	985.7656	989.5339	1022.8267	1058.0364	1068.4033	1074.3357	1080.3831	1101.6313	1110.7189	1141.4821	1183.7089	1193.9411	1208.4103	1213.4673	1231.0824	1266.7328	1293.0017	1310.5935	1330.839	1371.2562	1382.3767	1411.4827	1476.3987	1480.1264	1498.156	1501.3562	1506.7532	1536.0241	3006.6325	3035.5723	3036.3765	3043.4809	3072.3081	3101.8574	3103.2434	3106.2526	3109.0942	3120.3656	3131.8443	3156.9958	3170.8464	3208.7785
CCC12CC(C1)C1CC21	CC[C@@]12C[C@@H](C1)[C@H]1C[C@@H]21	
InChI=1S/C9H14/c1-2-9-4-6(5-9)7-3-8(7)9/h6-8H,2-5H2,1H3	InChI=1S/C9H14/c1-2-9-4-6(5-9)7-3-8(7)9/h6-8H,2-5H2,1H3/t6-,7-,8-,9+/m1/s1
