20
gdb 56639	2.03306	1.41211	1.10645	4.841	79.15	-0.2726	0.035	0.3076	1218.8021	0.168602	-403.153757	-403.143636	-403.142692	-403.188544	37.345	
C	 0.0530443441	 1.496998571	-0.2264735324	-0.41812
C	 0.05206373	-0.0133832534	 0.0827601257	-0.191021
C	 0.7379423955	-0.2791436281	 1.3553799469	 0.288447
N	 1.2895901292	-0.4869570778	 2.3492880637	-0.330694
C	-1.3633283296	-0.5968013518	 0.1029819715	 0.409052
O	-2.2111779973	 0.0130140866	 1.0376247382	-0.465968
C	-1.9789934245	-1.0917461186	-1.185809506	-0.374283
C	-1.6117272625	-2.0658292827	-0.0782969292	-0.024435
C	-0.5162274893	-3.0946570693	-0.2540054531	-0.424826
H	 1.0732593758	 1.8832064642	-0.2804392893	 0.140447
H	-0.4391549615	 1.6774573314	-1.1866929502	 0.125842
H	-0.4739747738	 2.0514750562	 0.5541147795	 0.138459
H	 0.6232747959	-0.5251450521	-0.6988767988	 0.123272
H	-2.5054487837	 0.8571942451	 0.6785041532	 0.286345
H	-3.0285981757	-0.8735900228	-1.349557261	 0.117622
H	-1.3691500247	-1.0932638422	-2.0846321013	 0.11064
H	-2.4574427133	-2.4063201261	 0.5120612663	 0.107097
H	 0.2823555622	-2.7413919265	-0.913588657	 0.113924
H	-0.0634069502	-3.3621680711	 0.7059378547	 0.143981
H	-0.9222830266	-4.007531242	-0.7019214613	 0.124218
56.8412	117.2756	176.9742	191.4912	218.598	227.4809	239.2047	276.4783	325.3273	378.795	397.4934	449.6892	497.2783	546.0142	594.428	742.2724	806.9281	837.4907	888.6553	923.4188	937.4776	999.9921	1023.6468	1044.4106	1084.1319	1104.3219	1114.0415	1133.0907	1185.4478	1225.9056	1279.423	1312.4445	1325.2747	1352.6671	1402.3145	1412.5705	1428.1435	1484.9447	1491.6281	1495.0161	1506.896	1509.1345	2357.9648	3038.1069	3047.5307	3059.7578	3100.8246	3107.9629	3123.2462	3124.5442	3131.9085	3157.7567	3214.6268	3798.5011
CC(C#N)C1(O)CC1C	C[C@@H](C#N)[C@@]1(O)C[C@H]1C	
InChI=1S/C7H11NO/c1-5-3-7(5,9)6(2)4-8/h5-6,9H,3H2,1-2H3	InChI=1S/C7H11NO/c1-5-3-7(5,9)6(2)4-8/h5-6,9H,3H2,1-2H3/t5-,6+,7-/m1/s1
