16
gdb 133711	3.23934	0.9207	0.87324	2.7463	57.78	-0.2681	0.0716	0.3397	1313.3166	0.119841	-569.38064	-569.371877	-569.370933	-569.415113	31.989	
O	-0.1165598098	 1.4353447995	 0.4107670394	-0.416253
C	 0.0018676949	 0.0736172857	 0.1132969315	 0.080928
C	-0.6270436171	-0.9423571089	 1.0290563096	-0.318471
C	-1.2533022378	-0.6328854486	-0.3186085751	-0.02844
C	-2.5557920855	 0.1315244534	-0.39446843	-0.356516
C	-3.757511479	-0.7131261183	-0.024013546	 0.287068
F	-3.7285556791	-1.0989055382	 1.2633307107	-0.081795
F	-4.9012449631	-0.0328932922	-0.2081415816	-0.080702
F	-3.8325774083	-1.8296451995	-0.7696888881	-0.088427
H	 0.4242603004	 1.6190682295	 1.1855898488	 0.292317
H	 0.9243627577	-0.1997048113	-0.3980059647	 0.092137
H	-0.1409248268	-1.9010578668	 1.1708718641	 0.117463
H	-1.1418732122	-0.5594167812	 1.9031300315	 0.124071
H	-1.1297546588	-1.3883067591	-1.087717854	 0.103692
H	-2.5332820234	 0.9967448161	 0.2713857876	 0.142878
H	-2.7277330521	 0.50582941	-1.4088317634	 0.130049
44.3536	90.3358	136.8351	207.3794	279.224	296.7125	365.9525	384.9357	470.4255	516.803	536.9053	564.6827	671.7823	775.1857	830.9601	853.4398	894.9975	903.8656	990.352	1013.5002	1053.8741	1102.7531	1134.2433	1177.067	1181.193	1197.9491	1240.3141	1273.5227	1293.8029	1307.7088	1366.8815	1406.7814	1429.667	1477.5886	1493.0736	3065.73	3103.0759	3125.6531	3139.3945	3164.5301	3228.9225	3811.7091
OC1CC1CC(F)(F)F	O[C@H]1C[C@H]1CC(F)(F)F	
InChI=1S/C5H7F3O/c6-5(7,8)2-3-1-4(3)9/h3-4,9H,1-2H2	InChI=1S/C5H7F3O/c6-5(7,8)2-3-1-4(3)9/h3-4,9H,1-2H2/t3-,4-/m0/s1
