20
gdb 90367	2.18173	1.64279	1.34749	3.8926	78.69	-0.236	0.001	0.237	1080.6373	0.170434	-403.151961	-403.143305	-403.142361	-403.184947	33.47	
C	-0.0152280224	 1.5742761623	-0.0752377826	-0.416355
C	 0.0116623344	 0.0541165332	 0.0249958699	-0.046708
C	 1.0648694279	-0.6786925872	-0.8662376972	-0.205983
N	 1.7728368216	-1.1755502694	 0.3578966459	-0.163809
C	 2.7377064072	-0.2890807685	 0.9072985616	 0.391156
O	 3.8224688815	 0.023195312	 0.5087610385	-0.32449
C	 1.7968125227	 0.1842662702	 2.0363664456	-0.448088
C	 0.7047949798	-0.6090723506	 1.27260588	 0.356103
C	-0.1284952891	-1.5944106408	 2.0613186478	-0.473374
H	 0.9884737187	 2.0076150295	-0.0164263007	 0.130651
H	-0.4483325649	 1.8866543461	-1.0313246108	 0.123514
H	-0.6206623994	 2.0143479609	 0.7247639303	 0.120862
H	-1.0009877224	-0.336858799	-0.1110937402	 0.077802
H	 0.6714109091	-1.5002094364	-1.4694538732	 0.115974
H	 1.6966841529	-0.044178804	-1.4942477506	 0.127742
H	 2.0231883093	-0.2105996523	 3.0304983817	 0.130349
H	 1.6983841391	 1.2691122491	 2.1013819489	 0.134838
H	-0.8689511977	-1.0664309814	 2.6735605437	 0.121462
H	-0.666664741	-2.2779394072	 1.3966782065	 0.123155
H	 0.4994708428	-2.1944528464	 2.7273313948	 0.1252
75.6868	166.0363	213.9229	229.1975	266.8491	283.3463	310.6294	390.9656	428.4347	501.7072	552.0321	598.08	664.956	766.9758	822.9272	832.2102	873.4882	909.6362	930.5668	948.0957	1014.014	1033.5166	1076.48	1085.8646	1110.9139	1153.5558	1164.1004	1199.1007	1211.6957	1235.0931	1256.0514	1297.4099	1306.7726	1369.6938	1411.1018	1414.311	1444.559	1484.981	1491.4434	1494.5764	1502.7398	1506.278	1884.1567	3028.4607	3030.7182	3054.7902	3059.4322	3073.0589	3096.509	3097.8623	3102.8973	3106.6329	3112.4248	3135.1394
CC1CN2C(=O)CC12C	C[C@H]1CN2C(=O)C[C@@]12C	
InChI=1S/C7H11NO/c1-5-4-8-6(9)3-7(5,8)2/h5H,3-4H2,1-2H3	InChI=1S/C7H11NO/c1-5-4-8-6(9)3-7(5,8)2/h5H,3-4H2,1-2H3/t5-,7-/m0/s1
