15
gdb 43652	2.82906	1.28879	1.0744	3.8498	73.58	-0.2443	-0.0644	0.18	1127.8004	0.112739	-416.802686	-416.794537	-416.793592	-416.835989	30.435	
N	-0.1436552168	 1.2556808559	 0.1454720601	-0.532476
C	-0.0482747387	-0.0043168491	 0.0039479206	 0.279774
N	-1.0774936006	-0.8728711756	-0.2729274692	-0.296648
C	-0.7428160298	-2.2860747243	-0.0503242643	-0.181376
C	 0.8068727408	-2.2983686223	-0.157735125	-0.346712
C	 1.2117400648	-0.8500299011	 0.0825602928	 0.36019
O	 2.3117741849	-0.4151651483	 0.2949495443	-0.300876
C	-1.2254921238	-2.785811874	 1.2404077694	 0.343928
C	-1.637988357	-3.1853983536	 2.2959853758	-0.468294
H	 0.7954517534	 1.6292611325	 0.3015636131	 0.235446
H	-2.0282743752	-0.5623004965	-0.1397838911	 0.261964
H	-1.1873200754	-2.8925324644	-0.8470579051	 0.124669
H	 1.2839895659	-2.9780405241	 0.5479816056	 0.157048
H	 1.1198032225	-2.5798728129	-1.1688126856	 0.151858
H	-1.999726195	-3.5370862721	 3.2309993687	 0.211505
51.2239	93.5952	191.014	245.843	311.4563	381.6953	445.4141	484.2252	537.5213	585.1613	638.6979	644.6963	664.0679	666.6261	754.9915	772.5179	829.1074	873.5356	972.8122	1014.346	1060.9862	1091.2673	1168.2406	1179.7143	1229.1286	1298.5364	1360.2065	1401.5631	1427.4097	1444.208	1743.7911	1857.8584	2235.3213	3039.6167	3065.4427	3143.5674	3457.0426	3500.0219	3624.0416
N=C1NC(CC1=O)C#C	[NH][C]1N[C@@H](CC1=O)C#C	
InChI=1S/C6H6N2O/c1-2-4-3-5(9)6(7)8-4/h1,4H,3H2,(H2,7,8)	InChI=1S/C6H6N2O/c1-2-4-3-5(9)6(7)8-4/h1,4H,3H2,(H2,7,8)/t4-/m1/s1
