19
gdb 104993	2.58765	1.31672	1.00793	1.9657	74.79	-0.2636	0.0207	0.2842	1201.3783	0.159018	-419.192167	-419.182632	-419.181688	-419.226737	34.945	
C	 0.712930267	 0.5957243103	-0.6265156826	-0.392378
C	-0.0014616028	-0.7752986544	-0.5733613992	-0.227128
C	 0.8291501446	-1.7284612569	 0.1708980073	 0.26145
N	 1.4790290961	-2.4614922848	 0.7851637724	-0.331643
C	-1.4243857529	-0.7021924885	 0.0071095257	 0.295013
C	-2.3845894252	 0.2101825686	-0.7505231765	-0.12491
O	-2.2179345937	 1.567171766	-0.3892778416	-0.412135
C	-1.9894827928	-1.8421238483	 0.7731086074	-0.286946
N	-1.6209954481	-0.5885280322	 1.4627409407	-0.357495
H	 1.6903849855	 0.4928637953	-1.1037655585	 0.132329
H	 0.1089687579	 1.3146560838	-1.1796015085	 0.158245
H	 0.8634849445	 0.989988298	 0.3819441175	 0.133973
H	-0.0875577081	-1.1610353056	-1.5980915869	 0.134721
H	-2.2127083972	 0.146274097	-1.8305624798	 0.109122
H	-3.4143930247	-0.1243777667	-0.5592605196	 0.09949
H	-2.2636680077	 1.5801997972	 0.5759317078	 0.294789
H	-3.0561741904	-2.0408966127	 0.7224792869	 0.122178
H	-1.3678358532	-2.7158101409	 0.9415482446	 0.144343
H	-0.7408504387	-0.7230728052	 1.9569666229	 0.24698
49.3649	105.9693	153.0342	199.941	211.6235	243.6191	282.7388	336.642	363.499	402.8906	490.8839	520.6529	575.9109	623.2412	717.8545	830.2392	896.5665	914.4072	926.9129	982.3081	996.6481	1029.8767	1059.5521	1077.8702	1099.7455	1131.4484	1163.0971	1202.2043	1268.0953	1276.4631	1318.1912	1345.6243	1366.863	1397.5809	1423.0049	1434.9535	1487.0998	1497.5728	1503.0808	1515.2317	2351.29	2998.9464	3024.1039	3059.1428	3070.7956	3118.161	3128.9553	3163.2512	3208.0588	3488.4343	3767.2896
CC(C#N)C1(CO)CN1	C[C@@H](C#N)[C@@]1(CO)CN1	
InChI=1S/C6H10N2O/c1-5(2-7)6(4-9)3-8-6/h5,8-9H,3-4H2,1H3	InChI=1S/C6H10N2O/c1-5(2-7)6(4-9)3-8-6/h5,8-9H,3-4H2,1H3/t5-,6-/m0/s1
