16
gdb 33607	5.20008	1.30513	1.29266	2.006	80.54	-0.2269	0.0216	0.2485	1000.6569	0.125106	-363.490285	-363.483703	-363.482759	-363.521014	27.268	
C	-0.104956245	-1.1784515478	-0.0804692307	-0.352719
C	-0.0479702054	 0.0217873957	-0.0088501135	-0.010358
C	 0.0619384466	 1.4276559984	 0.0938035396	 0.367434
C	-0.696065441	 2.4699407815	 0.8471568193	-0.114433
C	 0.5287412154	 3.3744487842	 1.0833700872	-0.069332
C	 0.4307223645	 4.480860102	 0.0037359258	-0.246974
C	 0.4413269481	 3.2914250345	-0.9697930677	 0.013459
C	 1.2535315724	 2.4293230785	 0.0406668534	-0.149814
N	-0.7844706345	 2.4399738591	-0.6475887734	-0.189311
H	-0.1645118779	-2.2362602247	-0.1492526939	 0.180004
H	-1.6163467669	 2.3773606313	 1.4096818992	 0.107196
H	 0.8775615689	 3.5438940583	 2.0994200808	 0.080902
H	-0.4347925732	 5.1488563665	 0.0056302032	 0.108618
H	 1.357453547	 5.0585953066	-0.0676159914	 0.107666
H	 0.6287642075	 3.3746175496	-2.0384419688	 0.083636
H	 2.3191986133	 2.2214642964	 0.0231458711	 0.084026
140.4893	150.7872	388.4126	431.4065	494.4718	532.9766	592.5179	606.0988	666.8084	718.8285	752.3806	799.1357	818.9711	838.1013	865.636	872.3428	920.0607	940.832	982.1034	1002.949	1036.9876	1047.0201	1075.5308	1096.5351	1107.9202	1169.3554	1193.1182	1210.3464	1235.9587	1250.0329	1271.484	1280.4651	1394.8254	1482.2065	2233.0655	3053.4417	3113.3622	3137.1497	3145.1141	3165.6137	3197.988	3502.4724
C#CC12C3C4CC(C14)N23	C#C[C@@]12[C@H]3[C@@H]4C[C@@H]([C@H]14)N23	
InChI=1S/C8H7N/c1-2-8-6-4-3-5(6)9(8)7(4)8/h1,4-7H,3H2	InChI=1S/C8H7N/c1-2-8-6-4-3-5(6)9(8)7(4)8/h1,4-7H,3H2/t4-,5+,6-,7-,8+,9?/m1/s1
