17
gdb 105162	2.68692	1.18635	1.02151	2.6469	78.14	-0.245	-0.0326	0.2123	1220.6382	0.131867	-421.771923	-421.762365	-421.761421	-421.806335	34.439	
C	 0.0950514976	 1.2837093538	 0.233962021	-0.257646
O	-0.2715212426	-0.0340263414	-0.1637605182	-0.271558
C	 0.4716910434	-0.5511994217	-1.1989118446	 0.327374
C	 1.8620162801	-1.1001750563	-0.9097099378	-0.353062
C	 0.730288907	-2.0685094446	-1.149543211	-0.287243
C	 0.1751392676	-2.8384614528	-0.0785515047	 0.345536
C	-0.2883528148	-3.5132172381	 0.8012539422	-0.426728
C	 0.2389543002	 0.0047585288	-2.5621626593	 0.126228
O	-0.4971180531	 0.9246353925	-2.8114188043	-0.267035
H	 1.1523589269	 1.3294224483	 0.5300218418	 0.105539
H	-0.0930490565	 2.0068286651	-0.564996053	 0.143625
H	-0.5267459787	 1.5244383111	 1.0981722371	 0.13446
H	 2.6333016782	-1.0150848421	-1.6673004455	 0.130146
H	 2.1952273255	-0.9850696375	 0.1143856787	 0.147956
H	 0.7248830429	-2.5611507575	-2.1184865364	 0.128323
H	-0.7051392736	-4.0984322017	 1.5830110819	 0.200688
H	 0.8235722999	-0.5103238658	-3.3610012178	 0.073396
88.0388	109.6482	117.4942	175.641	194.3946	229.3062	282.2662	321.2961	355.091	410.7968	514.2012	560.2199	606.1222	647.634	657.7047	761.8718	815.1323	850.5545	910.8718	989.8452	1039.1971	1046.102	1068.1149	1096.0393	1140.5522	1177.4124	1217.2614	1228.5417	1330.3759	1388.303	1430.3055	1463.0346	1482.2204	1484.2933	1511.5228	1823.6282	2245.1876	2849.251	3006.4157	3091.7934	3136.7738	3139.3129	3141.8315	3241.9095	3505.3838
COC1(CC1C#C)C=O	CO[C@]1(C[C@H]1C#C)C=O	
InChI=1S/C7H8O2/c1-3-6-4-7(6,5-8)9-2/h1,5-6H,4H2,2H3	InChI=1S/C7H8O2/c1-3-6-4-7(6,5-8)9-2/h1,5-6H,4H2,2H3/t6-,7-/m1/s1
