21
gdb 92785	3.22877	0.93234	0.79673	0.616	90.42	-0.2333	0.0228	0.2561	1505.574	0.181602	-349.944042	-349.934594	-349.93365	-349.97873	35.67	
C	 0.1227473197	 1.5759432095	 0.0378754384	-0.403195
C	 0.1405824192	 0.0488008814	 0.0682997432	 0.047932
C	 0.6927471126	-0.617761002	-1.2227555727	-0.259292
C	 1.3646811127	-1.86656217	-0.7089751062	-0.176298
C	 1.5267401175	-1.8454962398	 0.6143879363	 0.345427
C	 2.1829909872	-2.9132147348	 1.4542589774	-0.461309
C	 3.3311027375	-2.4205851508	 2.2157157721	 0.317437
C	 4.2687870373	-1.9986732625	 2.8380088344	-0.468183
C	 0.9879509426	-0.5648390665	 1.2145474439	-0.310271
H	 1.134833929	 1.9769965035	-0.0908591748	 0.113833
H	-0.4917537668	 1.9516720828	-0.7875296733	 0.111076
H	-0.2826766727	 1.9892614404	 0.9677578415	 0.11195
H	-0.8886628448	-0.3081251804	 0.1994296357	 0.074826
H	-0.0958864828	-0.8194222691	-1.9571130301	 0.098749
H	 1.4219272679	 0.0335450345	-1.7287224224	 0.101747
H	 1.7100730918	-2.6623106395	-1.3614086086	 0.084672
H	 1.4485815137	-3.3269156273	 2.1616525957	 0.134092
H	 2.4961708621	-3.7468277774	 0.8143856454	 0.133196
H	 5.1001931282	-1.6338988272	 3.3882794434	 0.195322
H	 1.8182572624	 0.0948101327	 1.5053158909	 0.111989
H	 0.4012489757	-0.7336206975	 2.1260534298	 0.096301
57.207	70.6788	116.6302	234.2357	247.4689	263.9286	341.5252	358.1042	407.3233	429.2637	466.0022	601.2086	616.824	636.7313	690.5259	827.3937	836.9277	872.2154	905.6597	916.1388	937.4974	956.6275	972.0261	1006.6767	1063.3622	1106.2134	1143.5734	1147.5897	1196.9787	1208.4831	1236.558	1282.4991	1303.912	1325.5004	1332.5484	1360.9501	1373.1834	1411.9228	1458.6254	1485.6981	1492.1726	1497.7657	1500.805	1721.6967	2237.2055	2991.4964	2995.6748	3006.8076	3016.4571	3024.7883	3045.1982	3052.0119	3052.5288	3092.2622	3093.6045	3180.0704	3507.0775
CC1CC=C(CC#C)C1	C[C@H]1CC=C(CC#C)C1	
InChI=1S/C9H12/c1-3-4-9-6-5-8(2)7-9/h1,6,8H,4-5,7H2,2H3	InChI=1S/C9H12/c1-3-4-9-6-5-8(2)7-9/h1,6,8H,4-5,7H2,2H3/t8-/m0/s1
