16
gdb 33309	7.18504	0.6449	0.59965	5.9754	98.84	-0.2481	-0.0666	0.1815	1768.6989	0.125701	-363.627094	-363.618851	-363.617907	-363.660749	29.77	
N	 0.117966108	-3.7019510079	-0.2246558964	-0.339636
C	 0.0723597617	-2.5417828645	-0.155776151	 0.167152
C	 0.0195204847	-1.1835505262	-0.0748368587	 0.256633
C	-0.0456900724	 0.0258924102	-0.0043653648	-0.152011
C	-0.054336103	 1.4305255352	 0.0818194066	 0.186789
C	-1.1376290175	 2.2214910213	-0.0128074198	-0.156551
C	-0.7967288858	 3.6740533926	 0.1736406303	-0.250693
C	 0.7500190099	 3.6956318392	 0.0709575331	-0.217964
C	 1.206447743	 2.2431729614	 0.3549705107	-0.324288
H	-2.1472708474	 1.8594971667	-0.1672084169	 0.114203
H	-1.2820026796	 4.3193521309	-0.5666778101	 0.118613
H	-1.1514529833	 4.0189687788	 1.1559068009	 0.123643
H	 1.0411255834	 3.975372424	-0.9457661128	 0.117211
H	 1.2080655707	 4.4175485548	 0.7503840542	 0.109782
H	 1.5203118547	 2.1018739001	 1.3968927462	 0.123902
H	 2.0466464227	 1.9302831932	-0.2714054614	 0.123214
74.2863	76.3975	138.3816	212.8885	223.2482	374.2143	402.7528	507.9233	527.2822	585.8663	591.7587	647.0117	811.6156	821.4086	863.0201	910.2983	912.7229	958.4285	964.8584	1041.3057	1064.5157	1152.1759	1206.54	1228.9271	1276.9108	1287.0909	1322.8803	1326.947	1350.1807	1476.8244	1486.9812	1504.9044	1658.5891	2249.5805	2372.1581	3005.8795	3031.2555	3054.9623	3066.9532	3085.236	3113.0068	3208.1841
N#CC#CC1=CCCC1	N#CC#CC1=CCCC1	
InChI=1S/C8H7N/c9-7-3-6-8-4-1-2-5-8/h4H,1-2,5H2	InChI=1S/C8H7N/c9-7-3-6-8-4-1-2-5-8/h4H,1-2,5H2
