13
gdb 16379	3.11091	2.51771	1.75636	5.1609	58.14	-0.2283	-0.0811	0.1472	737.6557	0.096672	-398.577915	-398.571804	-398.57086	-398.60817	23.395	
O	-0.0383791954	 0.028741147	-0.0090746075	-0.295073
C	-0.0689926346	 1.2227766167	 0.0202797876	 0.378319
C	-1.2375614182	 2.2096052265	 0.0396836892	-0.130099
C	-0.8046433785	 3.2391925955	-1.0445270627	-0.256839
C	 0.2822970742	 3.5461605832	 0.0265954242	-0.130096
N	-0.6918040857	 3.1320739633	 1.1208777762	-0.341459
C	 1.1114938899	 2.2608916462	 0.0100804327	 0.378317
O	 2.2914919065	 2.0776148978	-0.029085677	-0.295073
H	-2.2421251141	 1.8055342049	 0.1402863328	 0.104303
H	-0.5019898193	 2.8853191752	-2.03639622	 0.124726
H	-1.5246793256	 4.0570814349	-1.1363753037	 0.123659
H	 0.8123670838	 4.4916399315	 0.1139866604	 0.104304
H	-1.361348573	 3.8945609772	 1.2354772178	 0.23501
130.0816	215.4707	288.0522	453.7112	486.0282	519.7004	600.6498	679.5333	782.4656	783.7273	839.6836	883.4252	901.5518	955.1342	958.8754	985.7617	1041.8104	1081.0871	1125.3879	1178.6877	1198.7308	1238.3431	1261.6227	1307.0687	1355.6031	1489.9861	1885.5141	1907.3181	3038.8875	3106.4045	3153.9642	3155.3142	3444.5532
O=C1C2CC(N2)C1=O	O=C1[C@@H]2C[C@@H](N2)C1=O	
InChI=1S/C5H5NO2/c7-4-2-1-3(6-2)5(4)8/h2-3,6H,1H2	InChI=1S/C5H5NO2/c7-4-2-1-3(6-2)5(4)8/h2-3,6H,1H2/t2-,3+
