16
gdb 96801	2.4536	1.47502	0.92689	3.583	79.42	-0.2237	-0.0511	0.1726	1206.6091	0.124614	-434.133825	-434.124765	-434.123821	-434.168321	32.527	
C	-0.0762187354	 1.3360718656	 0.0999420555	-0.34122
N	-0.0127626966	-0.113348395	 0.0128161275	-0.334033
C	 0.5932751207	-0.6316008943	-0.9771703895	 0.398309
N	 1.2443969619	-0.0783824136	-2.0577831238	-0.433165
C	 1.7153585592	-1.0886386011	-2.9432601912	 0.428676
O	 2.2806849633	-0.8492577456	-3.9848218374	-0.36877
C	 1.3638521127	-2.3667971527	-2.3175105221	-0.387236
C	 0.7087207298	-2.1144987768	-1.1566099608	 0.344451
N	 0.2003624209	-2.9009289414	-0.1882096519	-0.596573
H	 0.9084626874	 1.809768409	-0.027941684	 0.118463
H	-0.7494715016	 1.7540961136	-0.6624013523	 0.126345
H	-0.4651919971	 1.6255181263	 1.0787022865	 0.131536
H	 1.2763748664	 0.8975607476	-2.2963671445	 0.26283
H	 1.6200592308	-3.3179926463	-2.7565390398	 0.109411
H	 0.0865185739	-3.8892386289	-0.3248965778	 0.266622
H	-0.3495593162	-2.4375864364	 0.5196503956	 0.274353
36.9794	104.3682	177.8185	182.8547	203.067	252.3155	301.1793	403.4389	443.1362	521.3309	565.8593	582.9334	607.7325	636.6747	736.4629	772.887	808.1579	840.5365	931.9726	1038.1074	1070.8936	1104.9083	1131.875	1167.1543	1263.2473	1320.2421	1350.4418	1419.0686	1435.3656	1490.234	1505.0185	1605.4512	1701.3796	1768.4608	1831.6751	2984.4882	3035.9033	3108.9888	3258.3009	3586.2512	3683.2161	3729.0348
CN=C1NC(=O)C=C1N	CN=C1NC(=O)C=C1N	
InChI=1S/C5H7N3O/c1-7-5-3(6)2-4(9)8-5/h2H,1H3,(H3,6,7,8,9)	InChI=1S/C5H7N3O/c1-7-5-3(6)2-4(9)8-5/h2H,1H3,(H3,6,7,8,9)
