18
gdb 129869	2.95505	1.50778	1.06248	3.2544	78.78	-0.1983	0.0411	0.2393	1126.6448	0.149942	-398.129581	-398.121432	-398.120488	-398.162766	31.116	
N	 0.2152198434	 1.308357632	-0.2677095077	-0.606842
C	 0.0287123456	-0.0610232907	-0.091625162	 0.392934
C	-1.1134453449	-0.8385578014	-0.0289832017	-0.320383
C	-0.6316104991	-2.1322041614	 0.2659387623	 0.010224
N	 0.6874426013	-2.174338851	 0.3804881541	-0.280661
N	 1.0843249872	-0.8844235571	 0.1557322743	-0.00809
C	 2.4533391661	-0.4864820276	 0.2470609748	 0.028749
C	 3.50495091	-1.4717441877	-0.1521244749	-0.26653
C	 3.2491312405	-0.2721657658	-1.0285004794	-0.28131
H	 1.0494534959	 1.5340254745	-0.7957271759	 0.254289
H	-0.5919886243	 1.756835659	-0.6780915177	 0.254228
H	-2.1310881187	-0.5161124347	-0.1782915638	 0.089421
H	-1.2039364963	-3.0402460475	 0.3932661641	 0.10435
H	 2.6632147592	 0.1759283778	 1.0826061095	 0.113506
H	 4.4120471302	-1.4991491731	 0.4396578354	 0.121893
H	 3.1476992142	-2.4348802737	-0.4920115626	 0.151313
H	 2.7339809789	-0.4430291218	-1.9671817001	 0.125573
H	 3.9778235607	 0.5308936202	-1.0433849687	 0.117336
46.883	122.0026	186.3463	239.2942	280.3154	328.2745	389.3758	514.7532	615.4888	653.341	672.1991	715.5642	735.061	763.8097	793.674	830.7497	882.5943	905.458	937.6023	960.4884	1056.0173	1063.5914	1073.4083	1078.2248	1090.7545	1127.3831	1182.1684	1199.3125	1224.5597	1248.1523	1315.7102	1369.3526	1410.5605	1454.5664	1464.8525	1501.2641	1550.5838	1597.4019	1652.4992	3135.099	3138.45	3157.4281	3224.1567	3234.835	3252.4682	3264.1244	3537.7663	3639.162
NC1=CC=NN1C1CC1	Nc1ccnn1C1CC1	
InChI=1S/C6H9N3/c7-6-3-4-8-9(6)5-1-2-5/h3-5H,1-2,7H2	InChI=1S/C6H9N3/c7-6-3-4-8-9(6)5-1-2-5/h3-5H,1-2,7H2
