23
gdb 60411	4.21491	0.685	0.66878	2.1823	82.93	-0.2462	0.0722	0.3184	1804.1611	0.203781	-425.400965	-425.390552	-425.389608	-425.437734	37.026	
C	 0.2021673063	 1.4167927222	 0.3082161281	-0.380867
C	-0.0299148831	-0.0560193888	-0.0509933621	 0.019798
C	-1.5210954443	-0.3686961124	-0.2246199033	-0.393396
C	 0.7402152211	-0.446609982	-1.3112473325	-0.052882
O	 2.128621676	-0.2752807343	-1.0798930207	-0.25426
C	 2.9290812374	-0.6125471296	-2.1746603458	 0.094935
C	 3.1077547577	 0.4365969771	-3.3021955085	-0.094707
O	 4.5361841758	 0.4501887552	-3.1007563465	-0.273054
C	 4.4280934049	-0.3848894494	-1.9288191636	-0.100529
H	 1.2688105782	 1.6296385499	 0.4086008982	 0.130285
H	-0.2030912607	 2.0749045056	-0.4704204841	 0.106856
H	-0.2928827076	 1.6735298891	 1.2502057006	 0.109041
H	 0.3651749733	-0.6768876661	 0.7641655896	 0.083953
H	-1.9542325126	 0.2159895012	-1.0450415883	 0.114001
H	-1.6900111211	-1.4285161023	-0.4434641719	 0.111767
H	-2.0782127134	-0.1219380892	 0.6842791468	 0.116591
H	 0.5335573114	-1.496718364	-1.5782499172	 0.084988
H	 0.4121722615	 0.1767571683	-2.1611673276	 0.086426
H	 2.6786816677	-1.6158799412	-2.5478333934	 0.074123
H	 2.8405459025	 0.1375321471	-4.3221564635	 0.101165
H	 2.6441147984	 1.4040157537	-3.066188999	 0.101666
H	 4.6200851168	 0.1672362898	-1.0001575219	 0.109891
H	 5.0852366537	-1.2596640398	-1.9818551034	 0.104205
45.4933	50.9838	82.9159	126.1413	158.3007	223.358	249.916	274.572	305.4346	394.3498	407.5602	463.0636	501.4253	740.4026	837.8556	872.3762	889.0321	924.0886	933.4371	960.3295	976.4496	988.0519	1026.6878	1046.3779	1064.4243	1127.5904	1155.12	1159.8003	1164.8127	1189.176	1199.8495	1216.2907	1275.4564	1279.1194	1301.6245	1327.4045	1347.7213	1372.8766	1394.7722	1398.6743	1416.9396	1447.2923	1489.791	1490.8336	1498.7101	1504.3721	1512.48	1518.5924	1526.5943	2948.8944	2979.6005	2998.0163	3006.3495	3021.6683	3023.4088	3025.9796	3031.4106	3064.5168	3074.8446	3089.6854	3094.92	3104.5243	3126.6822
CC(C)COC1COC1	CC(C)COC1COC1	
InChI=1S/C7H14O2/c1-6(2)3-9-7-4-8-5-7/h6-7H,3-5H2,1-2H3	InChI=1S/C7H14O2/c1-6(2)3-9-7-4-8-5-7/h6-7H,3-5H2,1-2H3
