23
gdb 63979	2.84677	1.4279	1.23815	1.3775	84.51	-0.2367	0.0766	0.3133	1147.8212	0.206705	-388.298886	-388.290137	-388.289193	-388.331766	34.797	
C	 0.2035204227	 1.5135930741	 0.0405773669	-0.443942
C	 0.0502826683	-0.0019437405	 0.0010810377	 0.316899
C	-1.4139743516	-0.4046814106	-0.1889935972	-0.439484
C	 0.9974442779	-0.7793330316	-0.9732374785	-0.296468
C	 1.4389718719	-1.7158650693	 0.1894659712	-0.023218
C	 2.9016084665	-1.645749459	 0.6311301994	-0.238729
C	 2.9603096172	-0.2922247005	 1.3552430956	-0.085095
O	 1.6791145672	-0.1101432866	 1.9534484782	-0.260107
C	 0.6913437723	-0.79317588	 1.1967057108	 0.07818
H	 1.2365009783	 1.811859725	 0.2358385773	 0.119093
H	-0.1050595072	 1.9570091707	-0.9135571018	 0.105672
H	-0.4172168089	 1.9517086147	 0.8299702444	 0.114208
H	-1.8052795448	-0.0222212681	-1.1385869662	 0.111652
H	-1.5352690847	-1.4939607201	-0.1965377169	 0.108887
H	-2.0386223104	-0.006128003	 0.6187365937	 0.113292
H	 0.5028770345	-1.2705620852	-1.8154336326	 0.09344
H	 1.815527154	-0.1691675704	-1.3693842184	 0.090235
H	 1.0645661416	-2.7369425851	 0.1078627164	 0.06968
H	 3.1255548924	-2.4586385147	 1.3296688622	 0.104682
H	 3.609583571	-1.7057897023	-0.2007167205	 0.100892
H	 3.7096558355	-0.2516400825	 2.1511685621	 0.106499
H	 3.1778403633	 0.5218376144	 0.6463128422	 0.089521
H	-0.021931877	-1.2287125196	 1.9036364242	 0.064212
88.1989	184.6915	192.0952	242.9238	255.0474	287.5555	321.2418	357.6496	395.4662	500.2179	561.6493	649.707	732.0804	770.4785	846.7598	857.7046	876.7164	907.3878	924.3865	955.5171	959.7907	968.6158	986.3865	1003.5566	1041.0784	1063.7152	1115.5025	1154.7629	1176.6812	1206.0983	1219.9797	1228.878	1236.3634	1271.4755	1277.3781	1295.7547	1314.1658	1334.0067	1357.4548	1393.3777	1402.6293	1421.1257	1480.2479	1482.1095	1484.6155	1486.3677	1500.9455	1504.9457	1528.4696	2980.8384	3018.7407	3027.9904	3044.6311	3046.8081	3053.2328	3080.343	3085.772	3086.8203	3090.7196	3091.843	3097.1277	3107.2883	3117.0091
CC1(C)CC2CCOC12	CC1(C)C[C@H]2CCO[C@@H]12	
InChI=1S/C8H14O/c1-8(2)5-6-3-4-9-7(6)8/h6-7H,3-5H2,1-2H3	InChI=1S/C8H14O/c1-8(2)5-6-3-4-9-7(6)8/h6-7H,3-5H2,1-2H3/t6-,7-/m1/s1
