24
gdb 9959	2.32039	1.58773	1.41553	0.0863	85.47	-0.2494	0.0801	0.3295	1121.7953	0.221668	-314.272917	-314.26264	-314.261696	-314.30716	38.317	
C	 2.7500045149	 0.5960953517	 0.8652323622	-0.382681
C	 1.5677586132	-0.3060318033	 0.4816207697	-0.24314
C	 1.5501169437	-0.72753854	-0.9832971767	 0.34036
C	 1.3697782353	 0.4298890638	-1.9534901106	-0.456707
C	 2.4088684257	-1.8866490511	-1.4668214152	-0.048493
C	 3.3610708072	-2.6669829079	-0.583186074	-0.414262
C	 0.8999224121	-2.0418127246	-1.3895646891	-0.068341
C	 0.2134310328	-2.9903946524	-0.4277670196	-0.413785
H	 3.7055740601	 0.1015755233	 0.6636495505	 0.118117
H	 2.7413900475	 1.5387703582	 0.30983562	 0.117012
H	 2.7189670613	 0.8437504734	 1.9311393576	 0.108032
H	 1.573069732	-1.1838037922	 1.1334308195	 0.091414
H	 0.6282636802	 0.2194403284	 0.7029886667	 0.090586
H	 2.2042341701	 1.1384002785	-1.9069461043	 0.11346
H	 1.3044241868	 0.0711348456	-2.9854009128	 0.108878
H	 0.4495144844	 0.9867706761	-1.7368145681	 0.108004
H	 2.7957975157	-1.7602452156	-2.476435899	 0.071825
H	 3.0010129899	-2.7742349586	 0.4423821183	 0.114568
H	 3.5184412788	-3.6766970118	-0.9798492956	 0.113564
H	 4.3408517288	-2.1786324987	-0.5351693717	 0.115581
H	 0.3952029344	-2.0012409656	-2.3532470832	 0.072518
H	 0.7301234989	-3.0808425242	 0.5300938382	 0.114929
H	-0.8112301793	-2.6634097786	-0.2170371341	 0.114664
H	 0.1541557655	-3.9965376241	-0.858473149	 0.113899
87.7515	136.3868	170.8969	181.814	198.658	213.724	231.7144	269.6345	294.7499	302.5375	373.9001	459.2118	504.9035	547.8628	672.3672	762.76	783.8478	792.6971	906.5518	956.1708	993.1612	1008.9271	1028.0481	1039.6557	1050.8251	1082.5826	1118.6773	1139.5104	1144.0829	1178.8751	1183.1493	1254.4905	1308.0253	1323.5683	1373.9424	1375.7881	1407.396	1415.7142	1417.782	1425.9317	1454.8616	1479.9676	1489.3704	1493.1355	1497.6731	1498.7862	1504.4883	1506.6939	1510.451	1520.2428	3012.6364	3019.4161	3028.694	3031.9308	3038.3025	3076.1699	3080.1955	3080.8482	3082.4465	3095.1579	3100.5026	3103.7499	3111.2016	3113.9472	3119.9513	3131.8316
CCC1(C)C(C)C1C	CC[C@@]1(C)[C@@H](C)[C@H]1C	
InChI=1S/C8H16/c1-5-8(4)6(2)7(8)3/h6-7H,5H2,1-4H3	InChI=1S/C8H16/c1-5-8(4)6(2)7(8)3/h6-7H,5H2,1-4H3/t6-,7+,8-
