20
gdb 88547	3.42396	1.15571	1.10923	1.423	79.81	-0.2267	0.0741	0.3008	1205.8396	0.171031	-403.078655	-403.070167	-403.069223	-403.112059	32.529	
C	 0.2601440726	 1.5217174415	-0.3514715126	-0.402146
C	 0.0398892699	 0.0760346248	 0.0192044161	 0.020812
N	 1.212758675	-0.8119947424	 0.0405907099	-0.342089
C	 0.4957532441	-0.5440235161	 1.3005225739	-0.181292
C	 1.2403737787	 0.1850785287	 2.3529982932	 0.538162
C	 2.5715023758	 0.8550346355	 2.2449768377	-0.331799
C	 2.359453692	-0.2118805981	 3.3009989362	-0.205518
C	 1.4527135559	 0.3416853967	 4.3911392522	-0.089979
O	 0.4650796135	 0.7707729743	 3.4138121956	-0.333053
H	 1.1923469258	 1.9011231517	 0.0695154818	 0.138263
H	 0.307642406	 1.634154496	-1.4400206305	 0.115988
H	-0.5636424388	 2.1413715464	 0.0179403502	 0.12297
H	-0.8797065914	-0.3517439569	-0.379795818	 0.083382
H	 0.973715742	-1.7370220698	-0.3046505095	 0.233498
H	-0.1453720029	-1.3319346572	 1.6940960883	 0.082217
H	 3.1694711816	 0.5362935436	 1.3984651382	 0.136307
H	 2.6690896346	 1.8998375756	 2.5301467498	 0.106777
H	 2.9463149705	-1.1188236686	 3.3523445357	 0.100548
H	 1.0312416066	-0.4263809314	 5.0499864979	 0.105437
H	 1.8295873986	 1.1770931158	 4.9939990138	 0.101515
55.774	130.5573	165.4756	203.1877	232.2668	370.9078	382.5855	402.9389	462.6292	514.1404	703.605	757.5493	786.874	822.5129	872.4553	883.6485	947.0962	955.9164	974.957	979.9688	1001.0775	1005.2049	1017.2305	1032.9111	1077.268	1082.713	1128.1034	1143.8414	1148.8093	1177.3632	1201.9299	1246.6121	1257.2796	1280.7879	1337.3148	1381.613	1407.5522	1438.2013	1465.16	1489.2382	1493.3563	1504.3277	1522.2442	3018.6868	3039.7775	3065.5125	3098.8505	3100.7443	3111.551	3113.2441	3145.2428	3203.5212	3220.0842	3511.5556
CC1NC1C12CC1CO2	C[C@H]1N[C@H]1[C@]12C[C@H]1CO2	
InChI=1S/C7H11NO/c1-4-6(8-4)7-2-5(7)3-9-7/h4-6,8H,2-3H2,1H3	InChI=1S/C7H11NO/c1-4-6(8-4)7-2-5(7)3-9-7/h4-6,8H,2-3H2,1H3/t4-,5+,6-,7+/m1/s1
