13
gdb 130626	5.12854	1.28208	1.03227	1.6748	64.99	-0.2277	-0.0302	0.1975	1040.7819	0.091113	-452.761615	-452.754918	-452.753974	-452.792965	25.308	
O	-0.018564006	-0.0007337147	 0.004241944	-0.346679
C	-0.0265476772	 1.2026322557	 0.0096693303	 0.407959
C	-1.288808796	 2.1336927319	 0.0328886774	-0.495992
C	-0.6391066794	 3.4711224338	 0.0307406984	 0.374028
C	 0.7115376779	 3.3728941931	 0.0114122428	 0.221849
N	 1.0968137041	 2.0270785055	-0.0009229154	-0.459445
C	 1.1584588729	 4.7110254258	 0.0124253961	-0.092288
N	 0.1290306818	 5.5414651583	 0.0310161957	-0.140847
O	-1.0257833513	 4.7472384525	 0.0429843764	-0.215466
H	-1.9103929774	 1.9226317908	-0.8428854385	 0.168185
H	-1.8851208547	 1.9131960919	 0.9237885349	 0.168258
H	 2.031966064	 1.6571516622	-0.0159167517	 0.270122
H	 2.1560244711	 5.123980613	 0.0008308895	 0.140316
92.4845	175.9624	283.4187	345.4425	414.0175	537.5888	540.8272	559.1468	624.2254	686.1601	730.1833	817.7335	841.4472	883.757	884.4456	956.8249	977.4997	1120.7836	1142.1418	1197.0844	1215.3057	1253.7635	1308.4456	1370.1528	1439.0443	1444.064	1551.0089	1651.5023	1853.6065	3062.9518	3102.2879	3256.0216	3674.8241
O=C1CC2=C(N1)C=NO2	O=C1Cc2c(N1)cno2	
InChI=1S/C5H4N2O2/c8-5-1-4-3(7-5)2-6-9-4/h2H,1H2,(H,7,8)	InChI=1S/C5H4N2O2/c8-5-1-4-3(7-5)2-6-9-4/h2H,1H2,(H,7,8)
