20
gdb 32205	2.55934	1.44632	1.00446	2.0391	89.01	-0.2412	-0.0136	0.2275	1233.0446	0.172226	-366.088517	-366.079744	-366.0788	-366.122135	32.943	
C	 0.0480396088	 1.6023193706	-0.0765834824	-0.370492
C	 0.020976097	 0.0643970774	-0.008490785	-0.296203
C	 0.7162935869	-0.4856246891	 1.2168938754	 0.233164
C	 2.0755831306	-0.7907229132	 1.1734782056	-0.143966
C	 2.7224004463	-1.2690555509	 2.3067599159	-0.127985
C	 1.9688106214	-1.4322456581	 3.4618450486	-0.009199
N	 0.6652854495	-1.1554395508	 3.5321766312	-0.312259
C	 0.0450675119	-0.6914876473	 2.4392245869	 0.254229
C	-1.4312222692	-0.4148273662	 2.5950647532	-0.491225
H	 1.0777027961	 1.9729225013	-0.0998922471	 0.121325
H	-0.4630823979	 1.9614890118	-0.9753017842	 0.115267
H	-0.4429709441	 2.0498984749	 0.7929811545	 0.124928
H	-1.0172603827	-0.2809759292	-0.041591389	 0.106684
H	 0.5081051552	-0.3382845575	-0.9040189378	 0.102741
H	 2.6243437555	-0.6548380284	 0.2451523781	 0.095387
H	 3.7787198256	-1.5136145752	 2.2939158576	 0.096708
H	 2.4277109791	-1.8055451376	 4.3746852042	 0.103254
H	-1.6852928481	 0.6204557326	 2.3436107642	 0.128028
H	-2.0330617937	-1.058751671	 1.9426520012	 0.129762
H	-1.7193857782	-0.6052676442	 3.6294433489	 0.139853
73.109	120.0239	132.4457	201.5455	214.2053	319.0026	337.7091	418.4256	471.7106	516.3913	574.5007	600.5941	723.8494	768.6227	787.1329	832.5516	855.3569	967.2429	972.6099	986.2653	989.9595	1055.0416	1057.7581	1081.7474	1096.97	1148.6911	1196.2837	1255.2135	1276.8889	1300.5104	1312.8433	1351.3947	1400.2183	1406.9498	1465.8731	1472.8757	1487.1766	1489.304	1495.7824	1497.7349	1509.345	1609.1468	1630.9488	3031.7315	3036.2541	3037.3497	3074.9446	3084.1981	3108.4722	3111.3227	3145.7663	3149.7255	3160.7387	3195.9102
CCC1=CC=CN=C1C	CCc1cccnc1C	
InChI=1S/C8H11N/c1-3-8-5-4-6-9-7(8)2/h4-6H,3H2,1-2H3	InChI=1S/C8H11N/c1-3-8-5-4-6-9-7(8)2/h4-6H,3H2,1-2H3
