15
gdb 77153	2.89293	1.14046	0.99887	4.4806	62.66	-0.2505	-0.0095	0.241	1198.1946	0.112422	-491.125299	-491.116262	-491.115318	-491.160846	31.744	
N	 0.6220826989	 1.2482840929	 0.2432458532	-0.521514
C	 0.2947030789	-0.0809800286	-0.1979562588	-0.175964
C	-1.0990202573	-0.661723773	 0.1375302896	 0.032375
O	-1.3063640675	-0.9986183334	-1.2750379044	-0.26082
C	-0.1314719515	-0.376461923	-1.6518045783	 0.42772
O	 0.2523660799	-0.1665020941	-2.7549594875	-0.316979
C	-1.1045783541	-1.9286250293	 0.9943431359	 0.420539
N	-2.2394372935	-2.1244047633	 1.7176352835	-0.52982
O	-0.1538574152	-2.6841540315	 1.0165461359	-0.353863
H	 1.6165566919	 1.421328135	 0.1564677871	 0.251044
H	 0.1465643084	 1.9544193792	-0.3092282231	 0.241845
H	 1.0617770973	-0.7922151156	 0.1185898024	 0.153801
H	-1.8327716185	 0.0843860219	 0.4556223402	 0.093464
H	-3.058388923	-1.556631054	 1.5858663053	 0.268056
H	-2.3332759046	-2.9880281332	 2.228585009	 0.270115
14.1643	83.888	166.4579	178.7692	241.7483	264.5173	287.4638	350.6983	397.0186	513.3811	586.5149	618.4641	703.6162	712.405	782.3739	800.9044	891.2539	921.6433	948.6482	1023.617	1091.0256	1110.932	1172.6979	1195.2396	1218.278	1278.8572	1295.1525	1408.8101	1432.7261	1623.128	1672.4995	1805.8386	1941.6244	3071.9496	3100.3196	3514.2421	3597.0665	3597.9178	3731.6087
NC1C(OC1=O)C(N)=O	N[C@H]1[C@@H](OC1=O)C(=O)N	
InChI=1S/C4H6N2O3/c5-1-2(3(6)7)9-4(1)8/h1-2H,5H2,(H2,6,7)	InChI=1S/C4H6N2O3/c5-1-2(3(6)7)9-4(1)8/h1-2H,5H2,(H2,6,7)/t1-,2+/m0/s1
