16
gdb 93598	4.87891	0.98434	0.84274	4.5874	72.84	-0.2451	-0.037	0.208	1289.5328	0.125518	-434.083692	-434.075045	-434.074101	-434.117308	31.203	
O	-0.086204948	 1.4242185062	-0.0042381736	-0.426466
C	 0.0378173962	 0.0135548193	 0.0097351455	 0.091233
C	-1.3844227711	-0.5430275784	 0.0847010935	-0.166631
N	-1.3268578349	-1.9843246355	-0.0877348809	-0.361557
C	-0.3490177572	-2.5497346415	-0.8657625529	 0.294158
N	 0.6412784455	-1.9689636801	-1.4288098004	-0.309733
C	 0.735729126	-0.5233613528	-1.2490586057	-0.197028
C	-0.4842378726	-3.9864705725	-1.0276147258	 0.26327
N	-0.6290865352	-5.1275668058	-1.1373838115	-0.320709
H	 0.7972662125	 1.8057343128	 0.0083616225	 0.291628
H	 0.589601869	-0.327441757	 0.8991422905	 0.088091
H	-1.8320981355	-0.3093333543	 1.0544018361	 0.127769
H	-1.9924787006	-0.0592679504	-0.6922287787	 0.127546
H	-2.1019532726	-2.5546519817	 0.2052236561	 0.266097
H	 0.3030455467	-0.0208619617	-2.1256784768	 0.125595
H	 1.7988519516	-0.2536977766	-1.2327324478	 0.106737
55.8878	139.4662	156.1399	208.7968	254.0805	286.5868	339.617	395.357	449.8075	460.7413	501.6691	601.909	645.4764	721.2459	823.9816	896.7848	958.2571	1036.585	1059.6124	1109.1492	1117.4529	1156.9741	1202.3169	1237.7771	1261.8817	1285.7854	1322.068	1349.1167	1386.2895	1442.5222	1484.8635	1509.8343	1538.5209	1703.638	2362.1969	2984.2955	3009.2371	3018.3	3050.2324	3091.24	3656.4283	3824.0323
OC1CNC(=NC1)C#N	O[C@H]1CNC(=NC1)C#N	
InChI=1S/C5H7N3O/c6-1-5-7-2-4(9)3-8-5/h4,9H,2-3H2,(H,7,8)	InChI=1S/C5H7N3O/c6-1-5-7-2-4(9)3-8-5/h4,9H,2-3H2,(H,7,8)
