16
gdb 128182	3.95465	1.15011	0.90271	7.1226	80.8	-0.2006	-0.0452	0.1555	1247.1906	0.125505	-430.215956	-430.207388	-430.206444	-430.249793	31.055	
C	 0.1315293824	 1.4525141657	 0.1208564216	-0.348621
N	-0.2092996449	 0.0622500811	-0.1438496094	-0.368122
C	 0.4741443344	-0.703477571	-1.0621866201	 0.529512
C	 0.5793504114	-2.0562176668	-1.0379095555	-0.323101
C	 1.2664024212	-2.7326225369	-2.1086629463	 0.389035
N	 1.4224111782	-4.0029244783	-2.1624799363	-0.541764
N	 1.8016978373	-1.9060636222	-3.1636675806	-0.247488
N	 1.6995535022	-0.6586698297	-3.1559952376	-0.043698
N	 1.0648697251	-0.0397161732	-2.1153236466	-0.320755
H	 1.1934892607	 1.6060252121	 0.3592979851	 0.137275
H	-0.1341218375	 2.0933821394	-0.7277124996	 0.138722
H	-0.4645277357	 1.7947654902	 0.9683328173	 0.149066
H	-0.4862761597	-0.466353674	 0.6691841591	 0.256884
H	 0.1546809186	-2.6391597737	-0.2309523566	 0.104373
H	 1.940990867	-4.2305822282	-3.0131195593	 0.214651
H	 0.988640259	 0.9542698354	-2.2433801852	 0.274032
55.3411	87.6751	144.2809	207.0943	228.4877	358.4543	370.3208	471.7785	486.1017	505.2703	556.7383	625.4827	675.1929	743.289	752.1503	832.3553	885.7214	907.9827	1019.5578	1047.6476	1070.7664	1135.318	1149.281	1175.6589	1265.5851	1347.589	1367.9497	1445.2938	1473.0099	1493.3736	1502.8937	1521.8925	1614.5795	1680.7437	1712.3686	3001.9882	3063.5708	3134.1352	3213.8573	3461.103	3619.2415	3679.2049
CNC1=CC(=N)N=NN1	CNc1cc([NH])nn[nH]1	
InChI=1S/C4H7N5/c1-6-4-2-3(5)7-9-8-4/h2H,1H3,(H3,5,6,7,8)	InChI=1S/C4H12N5/c1-6-4-2-3(5)7-9-8-4/h3-9H,2H2,1H3
