17
gdb 72507	2.31418	1.89411	1.70516	2.372	71.71	-0.2472	-0.0114	0.2358	908.6772	0.137089	-421.849191	-421.841801	-421.840857	-421.880577	29.636	
O	 0.0296467525	 1.4012298354	-0.0941096445	-0.508482
C	 0.0171393628	 0.0094153307	-0.103756024	 0.302126
C	-1.3837760597	-0.6651329335	 0.0411557819	-0.253282
C	-1.0476431255	-2.1183130391	 0.5107362716	-0.221925
C	 0.5178820113	-2.1333280904	 0.6005297323	-0.181893
C	 1.0713029766	-1.9390713337	-0.7993184373	-0.091122
C	 0.7766648861	-0.6947919655	-1.2108646004	-0.131216
C	 0.7386730634	-0.684594995	 1.0733342976	 0.370146
O	 1.2880876154	-0.1719347339	 2.0044963773	-0.339423
H	 0.5465840863	 1.6656645438	 0.6803636813	 0.291269
H	-1.9610850779	-0.1186545213	 0.7925584164	 0.113534
H	-1.9378053612	-0.6390720917	-0.8989075432	 0.112931
H	-1.4872152555	-2.3320847511	 1.4892910888	 0.113091
H	-1.4013970702	-2.8769263248	-0.1901852715	 0.111981
H	 0.9485921776	-2.9322984567	 1.200275517	 0.088465
H	 1.5931663699	-2.7080376206	-1.3546044635	 0.109884
H	 1.0121239983	-0.2264515928	-2.1579019199	 0.113915
144.9111	200.4287	236.4389	288.257	348.4361	368.9226	453.402	514.3195	630.0403	668.9091	670.7327	721.8265	761.7727	783.2931	833.0107	866.5385	936.9692	938.586	949.7802	979.5311	1022.0701	1053.2633	1100.9323	1109.4833	1152.4571	1186.6471	1228.1763	1237.9658	1264.0535	1293.8846	1326.1626	1363.744	1391.7835	1486.0732	1501.6072	1618.3488	1883.7948	3056.7666	3067.6511	3104.8397	3122.7422	3142.1164	3203.6991	3227.3881	3733.5374
OC12CCC(C=C1)C2=O	O[C@@]12CC[C@@H](C=C1)C2=O	
InChI=1S/C7H8O2/c8-6-5-1-3-7(6,9)4-2-5/h1,3,5,9H,2,4H2	InChI=1S/C7H8O2/c8-6-5-1-3-7(6,9)4-2-5/h1,3,5,9H,2,4H2/t5-,7-/m1/s1
