21
gdb 94892	2.81952	1.44256	1.0335	1.7848	85.	-0.2189	0.0303	0.2492	1209.2908	0.184247	-387.11472	-387.106279	-387.105335	-387.147921	32.095	
C	 0.1764484549	 1.5973786316	-0.0463063711	-0.389532
C	-0.0012691677	 0.084077475	 0.070963399	 0.01573
O	 0.6151875664	-0.5604568973	-1.0626836375	-0.289617
C	 1.5105103116	-1.5976072573	-0.6453828947	-0.192948
C	 1.5229199727	-1.4954923506	 0.8463882338	 0.229082
C	 0.6712445114	-0.557125605	 1.2474270415	 0.2569
C	 0.5643164946	-0.460830322	 2.7421852497	-0.349513
C	 1.7582739077	-1.3539195143	 3.2097152739	-0.196777
C	 2.1747789846	-2.2276899427	 1.982983626	-0.342729
H	 1.2374515554	 1.8616157632	-0.0107409563	 0.115754
H	-0.2391999923	 1.9524651097	-0.9933923845	 0.124409
H	-0.342047739	 2.1105184543	 0.7708239453	 0.109771
H	-1.0819799156	-0.1431615946	 0.0581636031	 0.074406
H	 1.1476266649	-2.5769505089	-1.000321354	 0.098467
H	 2.4960557079	-1.4345208451	-1.1076617063	 0.102596
H	 0.641727996	 0.5624360342	 3.127392018	 0.105977
H	-0.4015238577	-0.848470041	 3.0962323424	 0.106477
H	 2.5970036265	-0.7114008012	 3.4935121519	 0.109256
H	 1.5090558117	-1.9576807538	 4.085945467	 0.100203
H	 1.7947238239	-3.256061515	 2.0624799744	 0.107016
H	 3.2637139318	-2.3117639892	 1.8883673683	 0.105071
92.3498	109.7076	163.3116	199.8384	227.4522	280.7758	397.9743	423.3114	530.662	561.1318	668.5363	687.1821	780.2574	832.7244	861.4116	899.3581	903.7948	966.7651	988.881	1008.4935	1021.1999	1063.091	1085.9554	1090.8509	1113.3575	1159.9107	1190.1423	1206.5633	1213.6967	1225.6745	1255.322	1304.0216	1327.0495	1333.2709	1365.8981	1385.77	1395.4383	1404.5969	1483.4795	1485.7696	1492.4878	1495.4161	1507.6089	1522.5876	1740.4145	2938.0102	2959.2276	2990.1963	3005.6573	3006.6919	3035.1248	3043.2862	3048.3638	3063.2705	3103.613	3108.2301	3119.931
CC1OCC2=C1CCC2	C[C@H]1OCC2=C1CCC2	
InChI=1S/C8H12O/c1-6-8-4-2-3-7(8)5-9-6/h6H,2-5H2,1H3	InChI=1S/C8H12O/c1-6-8-4-2-3-7(8)5-9-6/h6H,2-5H2,1H3/t6-/m1/s1
