20
gdb 112520	2.28656	1.20776	1.05799	4.1359	78.92	-0.2739	0.0038	0.2777	1276.4157	0.169824	-403.152391	-403.142692	-403.141748	-403.187656	34.9	
C	-0.399440572	 1.4147046903	 0.3936171085	-0.386862
C	-0.214594165	-0.0931214213	 0.1945844459	-0.19063
C	 0.9139744892	-0.6415197288	 1.0521067579	 0.14034
O	 0.6238040843	-0.5201453044	 2.478573714	-0.291875
C	 0.6199726191	-1.9431309589	 2.6609659667	-0.019659
C	-0.7089356455	-2.4611073137	 3.0122851916	 0.285411
N	-1.7528692579	-2.8808994641	 3.2772673012	-0.329078
C	 1.0889526416	-2.1815006393	 1.1931131629	-0.078031
C	 0.3195362597	-3.1399065967	 0.2986502258	-0.421798
H	 0.5003501331	 1.9672551187	 0.1010680364	 0.114191
H	-1.2336196617	 1.7905643924	-0.2052395162	 0.117247
H	-0.6053896401	 1.637813107	 1.4440723396	 0.141639
H	-1.1464356621	-0.6151134544	 0.4382379539	 0.114499
H	 0.0111825926	-0.313928988	-0.8569213824	 0.099892
H	 1.8467548873	-0.1111067764	 0.821054134	 0.082134
H	 1.3274803618	-2.2571981498	 3.4371687389	 0.125026
H	 2.1483095857	-2.4489880094	 1.1947284123	 0.097987
H	-0.7542277455	-2.9387591384	 0.3006797186	 0.144659
H	 0.6793239651	-3.0722078481	-0.7328607381	 0.124439
H	 0.4624819703	-4.1728247666	 0.6315208486	 0.13047
34.8843	99.561	142.1863	168.3306	213.3095	220.2896	240.9228	281.5135	357.2901	447.6488	484.5635	536.0664	585.6479	735.9115	767.8413	831.8716	858.0858	923.4929	952.3332	970.3341	1017.1385	1040.3105	1057.7549	1095.1639	1111.1863	1172.8244	1177.0399	1224.3282	1269.4337	1285.7637	1309.1097	1342.224	1358.7619	1375.7133	1408.4036	1413.2221	1422.6803	1472.5294	1495.5319	1497.9364	1500.5096	1509.0445	2351.0313	3018.4427	3026.1646	3038.2866	3039.7924	3043.7748	3073.487	3078.9908	3106.3634	3107.4196	3122.5684	3129.3197
CCC1OC(C#N)C1C	CC[C@H]1O[C@@H](C#N)[C@H]1C	
InChI=1S/C7H11NO/c1-3-6-5(2)7(4-8)9-6/h5-7H,3H2,1-2H3	InChI=1S/C7H11NO/c1-3-6-5(2)7(4-8)9-6/h5-7H,3H2,1-2H3/t5-,6+,7-/m0/s1
