20
gdb 92205	2.84464	1.80671	1.4853	0.6287	77.05	-0.2129	0.0666	0.2794	969.2638	0.173517	-403.111052	-403.103802	-403.102858	-403.142846	29.274	
C	-0.2593294432	 1.5486519447	 0.0544367855	-0.402195
C	-0.0017956241	 0.0402716478	 0.0271365305	-0.002272
C	 0.7856362494	-0.4624986099	-1.2293682992	-0.195997
N	 1.926405003	-1.2813674737	-0.7787848869	-0.103309
C	 3.1821731726	-0.5205642276	-0.4622456445	-0.191154
C	 2.9125452883	-0.6690475075	 1.039703754	 0.107274
O	 2.0027317472	 0.3498670717	 1.5114719565	-0.315611
C	 0.8327742695	-0.4682782366	 1.2088551759	 0.114283
C	 1.731990375	-1.5914435889	 0.6716640168	-0.084709
H	 0.6871557704	 2.0941321637	 0.0962220494	 0.13321
H	-0.8068097829	 1.8681265767	-0.8380076405	 0.112143
H	-0.8515415408	 1.838001021	 0.9290796275	 0.113647
H	-0.9655674354	-0.4838947207	 0.0714267337	 0.072063
H	 0.1306212383	-1.0635739317	-1.8706305667	 0.100241
H	 1.1539533862	 0.3680069555	-1.8404579831	 0.103279
H	 4.0672359276	-1.0595588649	-0.8197493466	 0.103176
H	 3.2132131592	 0.5122002203	-0.8257332982	 0.105942
H	 3.7215916679	-0.8674000352	 1.744931851	 0.079514
H	 0.2474533637	-0.6452569698	 2.117730092	 0.074446
H	 1.582381958	-2.636728855	 0.9412805829	 0.076029
62.3645	221.1207	222.1728	330.5599	351.1046	415.7942	480.8555	604.0609	672.4209	690.5704	812.5748	826.155	828.2699	869.9642	908.5575	925.0197	939.3062	971.419	978.7241	995.1456	1018.4345	1047.347	1062.3284	1096.4623	1126.2989	1174.8225	1200.7971	1204.8904	1225.8094	1245.5234	1267.9601	1278.0161	1290.4673	1308.2666	1317.3616	1339.5627	1356.5629	1369.6894	1406.9228	1485.8778	1493.1435	1502.753	1509.6599	3012.6302	3023.3155	3031.0173	3036.0157	3049.259	3073.0617	3079.765	3092.981	3098.4038	3111.9383	3121.8513
CC1CN2CC3OC1C23	C[C@H]1CN2C[C@H]3O[C@@H]1[C@@H]23	
InChI=1S/C7H11NO/c1-4-2-8-3-5-6(8)7(4)9-5/h4-7H,2-3H2,1H3	InChI=1S/C7H11NO/c1-4-2-8-3-5-6(8)7(4)9-5/h4-7H,2-3H2,1H3/t4-,5+,6-,7-/m0/s1
