14
gdb 77230	3.85475	1.06248	0.89993	2.4043	63.02	-0.2712	-0.0526	0.2186	1212.3264	0.098295	-473.803671	-473.794863	-473.793919	-473.838454	30.036	
O	 0.1310659142	 1.2150732075	 0.1042291985	-0.403388
C	-0.023330788	-0.1559166726	-0.0768477489	 0.045735
C	-1.4910208648	-0.5910161737	 0.0272680449	 0.042214
O	-1.5028655091	-1.1069790722	-1.3284699213	-0.296387
C	-0.1383114228	-0.6937248198	-1.5507494913	-0.067645
C	-0.0003000516	 0.3185571403	-2.5954291558	 0.293004
N	 0.1456277253	 1.1162859967	-3.4181431066	-0.309945
C	-1.8330391445	-1.6802698436	 1.0240375469	 0.128869
O	-1.2712764384	-1.8158233277	 2.0787946023	-0.228462
H	 1.0661741218	 1.4423817742	 0.0675047642	 0.303742
H	 0.6557059704	-0.7490520938	 0.5437857457	 0.116077
H	-2.1761684148	 0.2595516425	 0.1474684265	 0.136733
H	 0.5022969588	-1.5504026936	-1.7895031417	 0.133851
H	-2.6481077363	-2.3576432141	 0.6887384664	 0.105603
37.8701	80.0561	123.3542	159.2715	226.4382	262.6188	304.8409	361.6138	431.352	550.619	589.8412	626.5953	795.9822	806.2734	865.9027	973.9699	1021.5824	1032.2253	1061.8998	1082.1635	1153.9365	1191.4378	1232.9349	1260.8382	1303.9692	1328.8782	1358.287	1403.4606	1455.4277	1834.6955	2361.1028	2908.1559	3025.1812	3047.2256	3066.4049	3820.2862
OC1C(OC1C#N)C=O	O[C@H]1[C@@H](O[C@H]1C#N)C=O	
InChI=1S/C5H5NO3/c6-1-3-5(8)4(2-7)9-3/h2-5,8H	InChI=1S/C5H5NO3/c6-1-3-5(8)4(2-7)9-3/h2-5,8H/t3-,4-,5+/m0/s1
