19
gdb 6098	4.70682	0.87119	0.82607	2.2424	68.71	-0.244	0.0362	0.2802	1426.1213	0.163489	-402.241446	-402.231525	-402.230581	-402.277093	35.127	
C	 0.044583593	 1.5493096186	 0.0068944923	-0.401864
C	 0.0167565805	 0.0222126239	 0.0651097016	 0.132242
O	 0.6176630386	-0.4594477491	 1.2682941622	-0.42899
C	-1.4000599559	-0.5366925066	-0.1113794137	-0.185826
C	-1.4419089637	-2.0653215307	-0.100315818	-0.315029
C	-2.8510626361	-2.6111972306	 0.112617217	 0.40479
N	-3.0675068138	-3.8579542049	-0.4057281192	-0.521953
O	-3.7198489867	-1.9976267127	 0.7029721502	-0.361232
H	 1.0619659459	 1.9175776037	 0.1636690796	 0.122412
H	-0.3144709034	 1.9159795791	-0.9602052384	 0.116228
H	-0.6004477398	 1.9779828122	 0.7841557748	 0.109901
H	 0.6623899819	-0.3749419908	-0.7293195237	 0.083162
H	 0.109544445	-0.1030091045	 2.0063282097	 0.278078
H	-2.0453438877	-0.169521284	 0.6959399294	 0.116904
H	-1.8301578809	-0.1522266929	-1.0440511376	 0.098524
H	-1.006497087	-2.4805936569	-1.0171325885	 0.096653
H	-0.8191268033	-2.423680928	 0.7293617447	 0.141826
H	-2.3185462725	-4.4114438347	-0.7834893439	 0.256151
H	-3.9350740743	-4.316811271	-0.1794013587	 0.258025
34.5377	62.2838	113.3563	154.3605	218.6969	242.3934	265.3653	318.5042	326.2127	432.6292	469.0695	495.745	524.5875	614.2863	664.7992	777.4439	838.4101	882.1462	940.0664	968.3554	1053.0452	1066.3034	1095.6263	1104.7039	1156.9966	1175.5193	1247.9497	1287.6693	1324.6077	1343.4128	1379.6284	1403.1275	1410.526	1423.1994	1467.9738	1484.7138	1494.6911	1497.1317	1617.3734	1795.0649	3021.9471	3025.9231	3028.3345	3036.1137	3061.1683	3080.6013	3096.0954	3118.7601	3598.1205	3733.8617	3789.7503
CC(O)CCC(N)=O	C[C@@H](O)CCC(=O)N	
InChI=1S/C5H11NO2/c1-4(7)2-3-5(6)8/h4,7H,2-3H2,1H3,(H2,6,8)	InChI=1S/C5H11NO2/c1-4(7)2-3-5(6)8/h4,7H,2-3H2,1H3,(H2,6,8)/t4-/m1/s1
