15
gdb 29988	3.43267	1.74133	1.16373	0.3665	73.34	-0.1988	0.0115	0.2102	989.8143	0.116839	-413.034302	-413.027182	-413.026238	-413.066123	26.608	
C	 0.0004836989	 1.4515394772	 0.0299084744	-0.342453
N	-0.0268705335	 0.0048957943	 0.0376482352	-0.134109
C	-0.1398921724	-0.8338367867	-1.0536513171	-0.020836
N	-0.1390885366	-2.1276453414	-0.7617062215	-0.377822
C	-0.0184283024	-2.1104871146	 0.5942713543	 0.34127
C	 0.052991221	-0.842404706	 1.1218566459	 0.326296
N	 0.1737310881	-0.8210423604	 2.4797799697	-0.369203
C	 0.1754681618	-2.1103851179	 2.7822410017	-0.005303
N	 0.0619968863	-2.9455310686	 1.6875975166	-0.387227
H	 0.9373920476	 1.8238257502	 0.4551917376	 0.15036
H	-0.0844537919	 1.8027023603	-1.000294833	 0.140445
H	-0.831481578	 1.8580923184	 0.6128168742	 0.150379
H	-0.22058062	-0.428314789	-2.051642422	 0.126728
H	 0.2563760635	-2.5077475305	 3.7826335982	 0.129763
H	 0.0454596976	-3.9506206052	 1.7056024456	 0.271714
80.0676	153.4868	237.3603	248.5105	368.656	461.2903	546.0035	622.1387	627.0572	651.7625	722.6437	760.4109	767.1059	807.0905	824.212	956.3235	1062.7163	1081.946	1128.1956	1154.8014	1242.9007	1252.6852	1293.7638	1347.5754	1379.9145	1445.0749	1458.6107	1478.2811	1482.4034	1501.9588	1517.5874	1555.6646	1602.4115	3042.0548	3103.4498	3137.2521	3247.4313	3257.2665	3678.1799
CN1C=NC2=C1N=CN2	Cn1cnc2c1nc[nH]2	
InChI=1S/C5H6N4/c1-9-3-8-4-5(9)7-2-6-4/h2-3H,1H3,(H,6,7)	InChI=1S/C5H6N4/c1-9-3-8-4-5(9)7-2-6-4/h2-3H,1H3,(H,6,7)
