18
gdb 56766	2.69451	1.30518	1.079	2.1935	75.48	-0.2665	0.0295	0.2959	1170.7999	0.146778	-401.930819	-401.922116	-401.921172	-401.964584	32.139	
C	 0.1531391874	 1.4556009501	 0.1762037296	-0.400846
C	-0.1084609244	-0.0509827809	-0.0355873173	-0.266921
C	-1.5444127096	-0.3514128419	 0.0120141341	 0.271644
N	-2.6766014998	-0.5816186005	 0.0360428798	-0.324399
C	 0.486183449	-0.5411150836	-1.3341703968	 0.454083
C	 0.0409962027	-0.2574125259	-2.7812431477	-0.303013
C	 0.6854863577	-1.6302618817	-3.1900098879	-0.235843
C	 1.0879781682	-1.8273574129	-1.7233858434	-0.049675
O	 1.9069731669	-0.7009606892	-1.356511758	-0.300513
H	 1.2302676549	 1.63661649	 0.1562921138	 0.147604
H	-0.317455138	 2.0470668121	-0.6135464961	 0.140937
H	-0.2456518735	 1.7870999951	 1.1375256277	 0.138486
H	 0.3758724008	-0.6110961771	 0.7732681182	 0.137752
H	-1.0439763312	-0.2530895868	-2.903869316	 0.131105
H	 0.4691002639	 0.6426454223	-3.2273571045	 0.1134
H	-0.0565082183	-2.3541794301	-3.5329931316	 0.117713
H	 1.5189803033	-1.5936419546	-3.8944375628	 0.117707
H	 1.2355477899	-2.7421908644	-1.160946071	 0.11078
57.6551	106.9458	172.0054	200.6109	222.9638	259.5489	344.9596	410.4862	481.2981	512.6069	573.6754	672.0894	744.225	776.3149	854.1331	891.5632	921.4266	926.3415	946.5607	998.7086	1007.932	1054.8035	1090.495	1100.6413	1155.1466	1203.8766	1215.1772	1222.1376	1262.2779	1280.3284	1305.8269	1318.4925	1406.5883	1446.961	1463.4364	1490.4938	1495.1131	1499.1591	2359.2293	3046.0158	3054.0906	3071.6487	3077.994	3125.3961	3132.0701	3139.2026	3141.0007	3188.4116
CC(C#N)C12CCC1O2	C[C@@H](C#N)[C@]12CC[C@H]1O2	
InChI=1S/C7H9NO/c1-5(4-8)7-3-2-6(7)9-7/h5-6H,2-3H2,1H3	InChI=1S/C7H9NO/c1-5(4-8)7-3-2-6(7)9-7/h5-6H,2-3H2,1H3/t5-,6+,7+/m0/s1
