17
gdb 89675	2.97161	1.27892	1.0719	5.351	75.09	-0.2435	0.021	0.2645	1137.0553	0.136132	-417.98792	-417.97923	-417.978285	-418.02099	32.993	
N	-0.0724967611	 1.4101431972	-0.2065698564	-0.593039
C	-0.0251626989	 0.0079825157	-0.0394683567	 0.286209
C	-0.3807202948	-0.881507467	-1.1868232182	-0.344967
C	-1.2294043519	-0.9901100413	 0.0619030417	 0.163766
C	-0.4722368534	-1.8263974108	 1.1015981671	-0.332236
C	 0.7003383151	-0.7849192399	 1.0494446003	 0.060273
O	 1.984300997	-1.2155384575	 0.6644105517	-0.433089
C	-2.6220793454	-0.7041860573	 0.0853986598	 0.195755
N	-3.7560406516	-0.4729260599	 0.1333855205	-0.355887
H	-0.026822319	 1.9053990482	 0.6769029962	 0.236961
H	 0.6764923229	 1.7443658356	-0.8033296594	 0.24545
H	-0.8521676847	-0.360126713	-2.0121642249	 0.143035
H	 0.254864552	-1.717849595	-1.4622140686	 0.131599
H	-0.9659028847	-1.8770606308	 2.0733120481	 0.121237
H	-0.204699035	-2.83365507	 0.7703712171	 0.110969
H	 0.7356511837	-0.2044813179	 1.9827189259	 0.074213
H	 2.3953485897	-1.6672535862	 1.4084679859	 0.28975
100.293	123.7614	176.5128	263.3868	267.3246	285.7484	334.304	386.1295	453.0579	472.7562	561.0425	568.918	643.1415	692.7245	727.8173	761.2705	838.7481	861.0609	963.7457	980.8745	1002.034	1087.7525	1105.4209	1112.3376	1156.2743	1182.1443	1191.0617	1238.3509	1282.5933	1307.5518	1351.1526	1393.1039	1436.205	1476.5337	1507.4126	1659.9433	2341.7588	2996.6005	3062.6827	3128.1289	3128.9151	3227.6754	3509.4075	3591.3376	3816.0916
NC12CC1(CC2O)C#N	N[C@]12C[C@]1(C[C@H]2O)C#N	
InChI=1S/C6H8N2O/c7-3-5-1-4(9)6(5,8)2-5/h4,9H,1-2,8H2	InChI=1S/C6H8N2O/c7-3-5-1-4(9)6(5,8)2-5/h4,9H,1-2,8H2/t4-,5-,6+/m1/s1
