27
gdb 118468	1.72153	0.96496	0.74314	1.318	92.64	-0.2604	0.0773	0.3377	1747.3062	0.249682	-390.700018	-390.687849	-390.686905	-390.737791	44.026	
C	 0.2993842567	 1.4314217276	-0.4176854608	-0.380967
C	 0.1361301874	-0.0895512273	-0.348495872	-0.172053
C	-1.2778541001	-0.5196914278	 0.0671566648	-0.188794
C	-1.4818688411	-2.0461350539	 0.1567302819	 0.041302
C	-0.8678053785	-2.6028057581	 1.4449993864	-0.099382
O	-0.8616329547	-4.0229180095	 1.3640644906	-0.421995
C	-2.9597260132	-2.4980925835	-0.004872197	 0.032834
C	-3.9358876055	-1.7597168316	 0.924226744	-0.393458
C	-3.4244855998	-2.3986865063	-1.4648524996	-0.403582
H	 1.310834623	 1.7119079379	-0.7282260775	 0.11022
H	-0.4030349553	 1.8727006406	-1.1338243079	 0.113201
H	 0.1096987795	 1.8954874798	 0.5567517802	 0.112111
H	 0.3682812614	-0.5279578606	-1.32789125	 0.097133
H	 0.8770655532	-0.5004770439	 0.3482729218	 0.096757
H	-1.5286560192	-0.0551821083	 1.0311174809	 0.089386
H	-1.9872744145	-0.099275432	-0.6557419771	 0.094923
H	-0.9207736281	-2.5119981261	-0.6659192496	 0.073398
H	 0.1561323176	-2.2186553771	 1.5672795322	 0.08317
H	-1.4474793497	-2.2593793486	 2.3170515377	 0.083984
H	-0.5427707055	-4.3709757468	 2.2014077932	 0.285261
H	-2.9747615097	-3.5585936507	 0.2707953444	 0.092524
H	-4.9395211072	-2.1899463588	 0.8420813297	 0.108371
H	-3.6387421468	-1.8265106202	 1.9757082469	 0.107665
H	-4.0144709302	-0.6976894093	 0.6670823927	 0.110717
H	-2.7691047291	-2.9713475041	-2.1295922984	 0.110384
H	-4.4405143433	-2.7919426917	-1.5774394378	 0.107186
H	-3.4379810472	-1.3620940396	-1.8210656497	 0.109705
63.1538	67.5605	88.0062	104.0809	162.8268	217.3877	230.5782	241.2749	248.1345	261.3505	278.8567	287.3224	331.5834	391.3517	467.5892	515.7858	562.1254	738.9745	765.7888	850.402	900.7518	914.6556	927.3434	962.7091	990.4135	1007.6067	1028.4587	1058.615	1074.5544	1081.0314	1135.8125	1157.9664	1178.9786	1201.837	1238.1118	1261.5875	1281.8913	1293.8561	1328.7292	1336.0004	1353.3344	1381.1918	1383.2196	1396.9494	1403.1674	1412.0993	1420.937	1453.7705	1481.45	1487.0348	1491.5585	1499.5432	1499.8826	1505.5955	1509.7891	1511.444	1523.1231	2968.4121	2992.6943	3005.4796	3011.4471	3023.6428	3024.4385	3028.3277	3032.5175	3041.1966	3044.6762	3063.0721	3088.2784	3095.107	3096.2122	3097.6324	3099.9885	3100.4531	3835.068
CCCC(CO)C(C)C	CCC[C@@H](CO)C(C)C	
InChI=1S/C8H18O/c1-4-5-8(6-9)7(2)3/h7-9H,4-6H2,1-3H3	InChI=1S/C8H18O/c1-4-5-8(6-9)7(2)3/h7-9H,4-6H2,1-3H3/t8-/m0/s1
