17
gdb 50551	2.25043	1.30392	0.86485	6.0406	74.57	-0.2538	0.0077	0.2616	1287.8444	0.136167	-418.032168	-418.023323	-418.022378	-418.066891	30.844	
O	 0.1232206714	 0.0068096598	 0.6286822407	-0.320215
C	 0.1304199059	 1.2169418803	 0.5596497998	 0.118967
N	 1.0857152608	 1.9266756356	-0.102310419	-0.050924
C	 2.3941660879	 1.4395500154	-0.5545057948	-0.161982
C	 2.8958088902	 2.9117008542	-0.5481158854	-0.279471
C	 1.4999749635	 3.3322345938	 0.0009650064	 0.035361
C	 0.710858418	 4.3175519132	-0.8787070972	-0.344371
C	-0.6468913579	 4.5416952243	-0.3883287594	 0.264858
N	-1.7135219371	 4.7016686741	 0.0264788657	-0.301056
H	-0.6445791387	 1.8668394968	 1.0097444776	 0.099875
H	 2.8728241958	 0.7744242836	 0.1702040728	 0.134558
H	 2.3713098902	 0.9406651732	-1.5273331058	 0.128671
H	 3.7291341123	 3.11696728	 0.1232856825	 0.12863
H	 3.1245255506	 3.3180617296	-1.5351557682	 0.119715
H	 1.5175345094	 3.7029882099	 1.0321160225	 0.110972
H	 1.2393429976	 5.277839688	-0.9061540991	 0.15843
H	 0.66268622	 3.9375485982	-1.9048774392	 0.157981
60.2912	73.9528	107.4067	149.203	201.5398	305.2705	319.7657	387.2724	397.2217	512.5139	586.4388	744.5814	793.2777	853.2169	895.5234	940.4052	956.617	983.5003	1039.2465	1057.1374	1113.7496	1154.753	1178.3407	1206.4966	1233.1144	1269.0267	1272.0588	1306.2731	1334.921	1379.0753	1383.756	1433.056	1454.6336	1490.6438	1524.3626	1790.659	2362.4859	2957.5016	3039.0082	3044.5863	3055.0112	3087.205	3090.3815	3098.5067	3146.6253
O=CN1CCC1CC#N	O=CN1CC[C@H]1CC#N	
InChI=1S/C6H8N2O/c7-3-1-6-2-4-8(6)5-9/h5-6H,1-2,4H2	InChI=1S/C6H8N2O/c7-3-1-6-2-4-8(6)5-9/h5-6H,1-2,4H2/t6-/m1/s1
