17
gdb 70220	3.60841	1.31169	1.11632	3.976	68.69	-0.2328	0.054	0.2868	1080.4797	0.138129	-455.173629	-455.165786	-455.164842	-455.205644	31.013	
O	-0.0295858283	 1.376015653	-0.0474822744	-0.463361
C	 0.016205652	-0.0206490272	-0.0039143639	 0.378687
C	-0.4321863382	-0.8032302246	-1.2177585084	-0.368185
C	-1.29848678	-0.7188622118	 0.03734089	-0.018117
N	-1.4281530632	-1.8257905004	 0.9400217792	-0.34149
C	-0.3506201475	-2.5783700574	 1.3712417294	 0.420728
O	-0.4767689715	-3.678236651	 1.8779694557	-0.41086
N	 0.8840553273	-1.9948703982	 1.1540975564	-0.350043
C	 1.084649643	-0.5743243756	 0.924056432	-0.230908
H	 0.6732926494	 1.6785559896	-0.6338783056	 0.285306
H	-0.7554329349	-0.2262531181	-2.0771823488	 0.117828
H	 0.0574804924	-1.7457692525	-1.4355999714	 0.132053
H	-2.1824356854	-0.0935764039	-0.0113544987	 0.118257
H	-2.2716290439	-2.3768212774	 0.8819860636	 0.251621
H	 1.6279106351	-2.5051647057	 1.6041827957	 0.253048
H	 2.0837718137	-0.4297318573	 0.4936265447	 0.105249
H	 1.0383557699	 0.0154574886	 1.8523173943	 0.120186
110.5988	175.9282	243.2665	302.5253	353.3027	372.4225	397.8352	462.7524	503.7227	541.1397	567.4459	606.3817	681.4084	768.4479	782.856	815.5753	916.1449	926.5589	942.8016	995.879	1036.7925	1063.3366	1104.1299	1110.3009	1183.5328	1219.7025	1259.6339	1291.727	1325.3405	1348.682	1416.4438	1421.8855	1446.2544	1479.7664	1501.0722	1528.8798	1809.4933	2986.9099	3036.001	3135.9674	3181.2662	3233.5855	3618.5955	3635.3091	3790.177
OC12CC1NC(=O)NC2	O[C@]12C[C@H]1NC(=O)NC2	
InChI=1S/C5H8N2O2/c8-4-6-2-5(9)1-3(5)7-4/h3,9H,1-2H2,(H2,6,7,8)	InChI=1S/C5H8N2O2/c8-4-6-2-5(9)1-3(5)7-4/h3,9H,1-2H2,(H2,6,7,8)/t3-,5+/m1/s1
