14
gdb 19463	5.30569	1.52122	1.49725	2.7196	61.9	-0.2422	-0.0437	0.1984	850.3597	0.107117	-382.48936	-382.483051	-382.482107	-382.520033	24.154	
O	-0.0136308316	-0.0575722942	-0.1800560082	-0.256985
C	 0.0255842611	 1.1248027369	 0.0559269196	 0.143706
C	 1.3009799573	 1.9288363211	 0.0375151509	-0.079978
C	 1.1818258341	 3.3360610397	-0.6535218601	-0.002734
O	 0.4745216234	 3.8009064981	 0.5425061906	-0.280767
C	 1.4519923202	 2.948829157	 1.2245245356	-0.002643
C	 2.7822701646	 3.6382704653	 0.8642474222	-0.075786
C	 2.5959250758	 3.9054942036	-0.4286550103	-0.075595
H	-0.8877310523	 1.7031855827	 0.30537968	 0.098717
H	 2.154815317	 1.2988691953	-0.2151807541	 0.096496
H	 0.655031524	 3.5054420125	-1.5913029043	 0.095693
H	 1.2092190826	 2.7114080756	 2.2590988659	 0.09576
H	 3.6144873911	 3.8328055928	 1.5234426657	 0.12205
H	 3.2278006128	 4.3872807337	-1.1591291336	 0.122067
89.1632	198.0858	271.4197	409.0294	505.7072	520.5765	614.3649	718.7615	746.7721	807.5364	863.7037	868.0786	900.7785	911.1725	941.2896	951.5038	1025.4583	1053.7652	1098.7587	1152.6482	1154.1271	1189.2293	1214.7096	1237.2304	1292.484	1293.6246	1309.6855	1411.8582	1617.7187	1819.5611	2925.6864	3115.0082	3139.5964	3142.2827	3240.2028	3267.165
O=CC1C2OC1C=C2	O=C[C@H]1[C@H]2O[C@@H]1C=C2	
InChI=1S/C6H6O2/c7-3-4-5-1-2-6(4)8-5/h1-6H	InChI=1S/C6H6O2/c7-3-4-5-1-2-6(4)8-5/h1-6H/t4-,5-,6+
