16
gdb 15899	2.50452	2.14859	1.27621	1.2468	61.58	-0.2364	-0.0395	0.1969	943.8954	0.128125	-420.860586	-420.85216	-420.851216	-420.894003	29.898	
C	 0.2215224141	 1.0301640725	-0.4092001191	-0.246131
O	-0.0676623236	-0.2707137573	 0.08046827	-0.26231
C	 0.5541430382	-0.571982771	 1.3112389931	-0.042862
C	 0.2462673539	-2.0709656951	 1.6492053584	 0.13356
O	-0.8609975792	-2.6247390988	 1.0055577105	-0.437184
C	 1.6767158442	-2.4826315864	 1.163490884	-0.388056
C	 2.0378616606	-0.9930367196	 1.1105625692	 0.387474
O	 3.0545524473	-0.3742214831	 0.9772730141	-0.291972
H	 1.2965455656	 1.1669908104	-0.5748354243	 0.142172
H	-0.3107973098	 1.136969257	-1.3565472196	 0.134928
H	-0.1296137732	 1.7993219233	 0.293337256	 0.118259
H	 0.3415585977	 0.1934990104	 2.0705728867	 0.08312
H	 0.1296473213	-2.2229674995	 2.7259262944	 0.098628
H	-1.013549642	-2.0863023901	 0.2172037032	 0.295824
H	 2.2876592584	-3.1124588624	 1.8140909145	 0.132865
H	 1.6519203965	-2.9268109904	 0.1620923189	 0.141685
53.2358	98.6777	151.3795	201.0121	234.0924	333.5519	383.217	390.2913	445.8107	517.2263	553.9495	685.783	740.5606	847.6713	908.3154	977.723	1033.8219	1061.8289	1100.7237	1143.2368	1160.9385	1162.9185	1186.8746	1217.2548	1248.2123	1266.5208	1340.0339	1345.3834	1422.2841	1444.1461	1479.9387	1487.03	1511.6849	1884.9798	3001.2975	3011.3016	3055.0854	3071.2838	3073.2325	3120.5344	3130.2486	3757.1155
COC1C(O)CC1=O	CO[C@H]1[C@@H](O)CC1=O	
InChI=1S/C5H8O3/c1-8-5-3(6)2-4(5)7/h3,5-6H,2H2,1H3	InChI=1S/C5H8O3/c1-8-5-3(6)2-4(5)7/h3,5-6H,2H2,1H3/t3-,5-/m0/s1
