16
gdb 123895	3.65442	1.62574	1.17031	2.7946	69.51	-0.2563	0.0094	0.2657	994.5431	0.129114	-434.094775	-434.088164	-434.08722	-434.125956	25.395	
C	 0.0096156457	 1.4175716647	 0.0037883978	-0.097479
C	 1.4493720728	 1.9420912076	-0.0114526363	-0.154108
N	 2.1490538982	 1.2349468293	-1.0665479365	 0.008874
N	 3.332831253	 1.6279580593	-1.5986854889	-0.263403
C	 3.5685212426	 0.6622851492	-2.4743040914	 0.022267
N	 2.6261763533	-0.3197950144	-2.5340786033	-0.344217
C	 1.7504270069	 0.0755605888	-1.6258682434	 0.360549
C	 0.4582068108	-0.5574790997	-1.2046990863	-0.202641
O	-0.0111439904	 0.0008304838	 0.0132502723	-0.243484
H	-0.501948338	 1.7477066706	 0.9106700732	 0.127956
H	-0.5402165474	 1.8072657707	-0.8676383178	 0.108249
H	 1.480345761	 3.015813028	-0.214821138	 0.138488
H	 1.9423694023	 1.7545264581	 0.9485049795	 0.138183
H	 4.4535674768	 0.6658074817	-3.0929324739	 0.126653
H	-0.2928984005	-0.4378516662	-2.0028172959	 0.123705
H	 0.595971043	-1.6280809515	-1.0351888009	 0.150407
109.6771	193.5148	274.7688	338.6353	385.9238	472.1542	533.9007	671.7815	696.3697	722.0251	756.9429	875.1183	906.7274	962.0753	984.1455	994.3546	1031.2543	1120.4673	1126.6655	1167.8889	1208.5772	1234.4727	1243.3116	1294.7611	1302.2722	1317.5774	1354.9614	1376.4669	1411.0247	1441.5212	1482.7548	1492.7008	1498.5539	1534.7444	1565.4626	2974.8598	2986.2378	3050.0284	3102.847	3105.5394	3110.8636	3260.4347
C1CN2N=CN=C2CO1	C1Cn2ncnc2CO1	
InChI=1S/C5H7N3O/c1-2-9-3-5-6-4-7-8(1)5/h4H,1-3H2	InChI=1S/C5H7N3O/c1-2-9-3-5-6-4-7-8(1)5/h4H,1-3H2
