21
gdb 86367	2.49233	1.13654	0.89258	2.438	79.33	-0.2474	-0.0266	0.2208	1358.8099	0.179837	-424.2262	-424.216149	-424.215205	-424.262568	35.802	
C	-0.7245887373	 1.2464719082	-1.097663955	-0.40946
C	 0.0824596727	-0.0103203206	-0.8399934662	 0.159689
O	 1.4364016061	 0.0953236002	-1.3392311455	-0.308441
C	 1.9964369791	-0.406591976	-0.1065987068	 0.146211
C	 3.1430615659	 0.4466287667	 0.3979085577	-0.403755
C	 0.6032065143	-0.3641769543	 0.58524871	-0.10454
C	 0.3919211991	 0.6470521016	 1.7176206353	-0.298244
C	-1.0008066511	 0.5388169463	 2.2989415769	 0.161709
O	-1.8071096424	 1.4313267278	 2.3431253483	-0.237992
H	-0.2356913114	 2.1313957421	-0.6828235539	 0.123906
H	-0.8292786042	 1.3952048716	-2.176968608	 0.127636
H	-1.7259036705	 1.166933354	-0.6631370791	 0.130671
H	-0.4255993748	-0.8702925048	-1.3011786533	 0.073135
H	 2.3449998239	-1.4419610094	-0.2396447816	 0.072632
H	 2.8360278279	 1.4839445356	 0.5549429263	 0.122172
H	 3.5414361139	 0.0487009778	 1.3377070166	 0.114827
H	 3.9520282964	 0.4416827389	-0.3392726821	 0.130841
H	 0.2713957618	-1.3494908323	 0.9272848958	 0.076938
H	 1.0983244136	 0.4133686711	 2.5275936481	 0.120696
H	 0.5640633134	 1.679204463	 1.4063490408	 0.128548
H	-1.2476266064	-0.4747200174	 2.6970446158	 0.072819
31.2421	56.3202	81.2495	167.2408	207.9267	222.6675	258.7418	285.0523	369.5788	387.7646	460.223	501.1361	533.0619	735.1124	755.5204	810.3023	872.4407	895.054	930.9512	989.1729	1007.8232	1042.7719	1053.5839	1079.7197	1118.47	1143.6743	1164.3009	1185.3743	1204.4828	1243.2953	1284.4776	1293.4188	1337.3022	1372.8885	1390.9567	1401.1878	1405.7817	1424.1097	1429.9633	1463.2818	1477.0465	1484.6209	1496.1237	1500.5058	1834.7906	2845.566	2979.9592	2986.4373	3014.4391	3037.7434	3043.3735	3055.1891	3106.1484	3113.2307	3115.6693	3122.8016	3128.168
CC1OC(C)C1CC=O	C[C@H]1O[C@@H](C)[C@H]1CC=O	
InChI=1S/C7H12O2/c1-5-7(3-4-8)6(2)9-5/h4-7H,3H2,1-2H3	InChI=1S/C7H12O2/c1-5-7(3-4-8)6(2)9-5/h4-7H,3H2,1-2H3/t5-,6+,7+
