23
gdb 103561	2.21552	1.19687	1.10265	2.8987	85.85	-0.234	-0.0121	0.2219	1306.4016	0.202974	-388.314672	-388.304269	-388.303324	-388.349714	38.925	
C	-0.0103044	 1.6625812164	 0.0716029477	-0.397143
C	-0.1045421925	 0.1387815702	-0.0693291364	-0.220628
C	 0.7042076265	-0.4606315611	-1.2327586504	 0.311871
C	 0.294268228	 0.1106322534	-2.5882297494	-0.466757
C	 2.245133747	-0.4466834148	-0.9279285337	-0.387626
C	 2.1151615728	-1.9168378626	-0.5121868157	 0.392058
O	 2.7680460087	-2.6490423844	 0.1761611092	-0.305358
C	 0.7401993624	-2.0435332836	-1.175792935	-0.12639
C	-0.3372239151	-2.8868183035	-0.5086196666	-0.419581
H	 1.0290717456	 1.9973776561	 0.1581127395	 0.118638
H	-0.4552087879	 2.1802436115	-0.7833004335	 0.120687
H	-0.5393761788	 1.997759168	 0.9688365601	 0.116801
H	 0.2306448648	-0.3219268881	 0.8691833349	 0.10142
H	-1.157811713	-0.1470440011	-0.1850387508	 0.09842
H	 0.4803992376	 1.1872435919	-2.6503303519	 0.12125
H	 0.8555151909	-0.3667698782	-3.3986406524	 0.110555
H	-0.7727714715	-0.0532393025	-2.7801713043	 0.115437
H	 2.8594986093	-0.3356167915	-1.8280891692	 0.121421
H	 2.6174080516	 0.2419476339	-0.1652662185	 0.12322
H	 0.9113658049	-2.409954447	-2.1982759899	 0.095925
H	-0.5326439692	-2.5626194793	 0.516895655	 0.12482
H	-1.2796351093	-2.8474804826	-1.06445261	 0.11723
H	-0.014944073	-3.9315575111	-0.4659642286	 0.13373
61.7724	119.3193	160.5354	172.4723	190.3354	219.53	237.8305	294.0143	310.7607	344.4147	392.7876	426.9619	500.7873	575.5511	625.9967	720.7547	744.2475	791.2804	835.2772	859.2009	910.7486	994.9411	1017.5742	1021.5607	1028.6587	1045.3492	1082.242	1118.9886	1138.8757	1161.504	1191.6018	1218.3278	1248.0726	1281.5721	1331.0036	1353.0907	1369.546	1404.2639	1412.2094	1414.5902	1442.623	1479.7822	1493.0169	1494.0865	1495.9033	1498.7064	1505.4624	1512.2429	1883.6455	3007.9644	3013.8596	3025.1532	3037.8147	3040.2477	3048.4241	3051.0637	3088.9844	3098.9856	3102.4117	3106.4492	3110.1051	3112.2278	3117.5641
CCC1(C)CC(=O)C1C	CC[C@@]1(C)CC(=O)[C@H]1C	
InChI=1S/C8H14O/c1-4-8(3)5-7(9)6(8)2/h6H,4-5H2,1-3H3	InChI=1S/C8H14O/c1-4-8(3)5-7(9)6(8)2/h6H,4-5H2,1-3H3/t6-,8+/m1/s1
