20
gdb 71300	2.60413	1.92089	1.42616	1.6647	77.57	-0.2292	0.0804	0.3096	981.1624	0.173065	-403.105853	-403.098413	-403.097469	-403.137155	30.488	
C	 0.0017754556	 1.467706719	 0.0792827588	-0.481652
C	 0.0143742612	-0.0493420569	-0.0053298817	 0.275473
C	 0.2289701796	-0.6668838768	-1.4182547099	-0.195141
N	-1.0822256844	-1.4087982247	-1.3749387311	-0.162454
C	-1.1503476581	-2.1890674203	-0.1153816132	-0.023878
C	 0.0034193098	-2.8503203286	 0.6136799332	-0.114507
O	 1.1648239331	-2.0537635167	 0.7690471966	-0.248976
C	 0.9129289662	-0.6890111504	 1.0575818769	-0.121936
C	-1.3656742705	-0.7349509473	-0.0451086986	-0.096263
H	 0.9963016946	 1.8817705841	-0.121112715	 0.119327
H	-0.6950814854	 1.8959379456	-0.6485006481	 0.123711
H	-0.3069393831	 1.807995603	 1.0749616613	 0.117268
H	 0.1705400006	 0.0801066636	-2.2139034619	 0.104469
H	 1.1085090167	-1.2964161614	-1.5677104764	 0.115891
H	-2.045379256	-2.808160966	-0.1110050787	 0.099528
H	-0.3821528029	-3.1626185126	 1.6008769024	 0.095589
H	 0.3314532845	-3.7543328025	 0.0890044463	 0.117157
H	 1.8989489353	-0.2125096732	 1.0787910156	 0.105217
H	 0.4543310787	-0.570281981	 2.0548544668	 0.085842
H	-2.3176857255	-0.2608585969	 0.1760452868	 0.085334
173.93	229.4332	254.8188	279.8587	332.8033	374.512	382.9096	483.4615	544.2644	617.3905	701.2118	766.6077	800.3925	842.561	888.6022	897.6793	927.5364	961.3994	968.7551	990.8868	1043.816	1053.7167	1059.4926	1085.2789	1144.8223	1183.1816	1190.9854	1209.3169	1246.7025	1263.476	1276.187	1296.2995	1318.4499	1334.5147	1384.7001	1412.9458	1421.6685	1439.4128	1489.2687	1493.0387	1494.6179	1496.8459	1501.7312	2946.5282	2956.3426	3023.2102	3061.6253	3062.7675	3067.5786	3087.0171	3099.4079	3120.9236	3131.4762	3150.3064
CC12CN3C(COC1)C23	C[C@@]12CN3[C@@H](COC1)[C@@H]23	
InChI=1S/C7H11NO/c1-7-3-8-5(6(7)8)2-9-4-7/h5-6H,2-4H2,1H3	InChI=1S/C7H11NO/c1-7-3-8-5(6(7)8)2-9-4-7/h5-6H,2-4H2,1H3/t5-,6-,7+,8?/m0/s1
