18
gdb 113910	4.16089	0.7577	0.72835	2.0848	69.08	-0.2458	0.0239	0.2697	1557.3466	0.146435	-476.22826	-476.218568	-476.217624	-476.264208	34.593	
N	-0.3529177699	 0.2655538896	 1.1129936566	-0.507463
C	-0.0279771159	 0.0444482407	-0.1925728502	 0.375961
O	 0.861549934	 0.634074801	-0.7715346418	-0.355607
C	-0.9273315807	-0.9861009018	-0.8938471954	-0.334889
C	-1.0114621537	-2.3039383105	-0.1544516777	 0.045353
O	-1.7153308957	-2.3170559183	 1.10179264	-0.277202
C	-2.2300294968	-3.1137944476	 0.0154393352	 0.02945
C	-3.6075841842	-2.7470520548	-0.4773930881	-0.087058
O	-4.6036571812	-3.2026887026	 0.4219836248	-0.414436
H	 0.2390809724	 0.8803055656	 1.6473976645	 0.259269
H	-1.0029690954	-0.3371704621	 1.592050617	 0.274872
H	-1.9204529523	-0.5443564554	-1.0141904548	 0.126121
H	-0.5042661275	-1.1467988545	-1.8879967019	 0.13708
H	-0.0648675479	-2.8453063366	-0.1113551735	 0.109544
H	-2.0981094626	-4.1850126104	 0.1757932542	 0.107366
H	-3.6843557406	-1.6647587122	-0.6459906793	 0.096957
H	-3.8023130222	-3.2509895301	-1.4304082307	 0.121961
H	-4.4306092798	-2.7848755701	 1.273000321	 0.292721
39.9927	54.0919	84.3387	151.9251	197.5204	261.1086	349.9036	377.2835	387.5192	444.8251	481.3525	529.0427	565.3941	598.2834	715.3138	770.9249	854.7981	872.7558	903.4493	958.2344	1018.1074	1070.5712	1084.2999	1121.9404	1147.526	1165.6858	1224.8793	1232.3861	1289.8814	1310.9489	1355.8284	1359.0928	1398.7563	1430.1273	1459.0346	1485.8607	1491.9239	1621.8976	1809.2847	3014.9887	3070.3699	3076.922	3094.936	3109.7836	3128.1955	3581.1972	3719.6002	3805.538
NC(=O)CC1OC1CO	NC(=O)C[C@H]1O[C@H]1CO	
InChI=1S/C5H9NO3/c6-5(8)1-3-4(2-7)9-3/h3-4,7H,1-2H2,(H2,6,8)	InChI=1S/C5H9NO3/c6-5(8)1-3-4(2-7)9-3/h3-4,7H,1-2H2,(H2,6,8)/t3-,4+/m1/s1
