18
gdb 22161	5.39267	0.51935	0.47797	1.6754	87.39	-0.2276	-0.0248	0.2028	2256.5964	0.143432	-439.001744	-438.990785	-438.989841	-439.040272	36.559	
C	 0.0033052261	 1.4164730575	-0.0453043316	-0.219204
O	-0.0139184307	 0.0102411258	 0.0423345858	-0.224276
C	 0.5888541707	-0.5978972334	-1.0806921042	-0.20708
C	 0.5506107082	-2.0477031635	-0.9513849381	 0.103477
C	 0.526361424	-3.2499387218	-0.858445398	 0.057412
C	 0.5354122367	-4.6727338936	-0.8202376444	 0.192732
C	 1.1547207864	-5.4338621718	-1.968077903	-0.47627
N	 0.0043560536	-5.2328750585	 0.2111843988	-0.156878
O	 0.0836180685	-6.6233580417	 0.114566768	-0.393216
H	 1.0305208516	 1.8114928542	-0.0971169554	 0.105717
H	-0.5485973139	 1.7790995808	-0.9272348671	 0.105717
H	-0.4784796562	 1.8006067715	 0.8561965164	 0.134046
H	 0.0717432774	-0.2954706206	-2.0092778902	 0.117442
H	 1.6367078825	-0.263375132	-1.1866797174	 0.117439
H	 1.9677723753	-6.0683583621	-1.6018417664	 0.150737
H	 0.4129785752	-6.0998184081	-2.419853714	 0.150734
H	 1.5397539426	-4.7521900883	-2.7261788999	 0.129426
H	-0.340328088	-6.9072784041	 0.9316366906	 0.312044
20.4888	60.5464	64.7856	72.8834	137.1215	173.4378	234.4135	279.7562	295.5429	339.4297	399.6762	419.8776	479.9566	537.819	572.2311	610.8302	767.3075	946.6346	981.5987	1022.4986	1043.6462	1045.3964	1058.2975	1151.5526	1182.76	1221.2447	1253.7072	1294.4201	1396.8669	1399.1153	1418.1447	1475.7323	1478.0205	1483.0089	1485.514	1493.4009	1515.7354	1669.0208	2353.9447	2937.61	2952.4808	2969.7819	3013.3151	3048.4557	3107.0554	3123.635	3154.0462	3816.7549
COCC#CC(C)=NO	COCC#CC(=NO)C	
InChI=1S/C6H9NO2/c1-6(7-8)4-3-5-9-2/h8H,5H2,1-2H3	InChI=1S/C6H9NO2/c1-6(7-8)4-3-5-9-2/h8H,5H2,1-2H3
