21
gdb 122548	2.82778	0.8087	0.69074	1.3108	76.48	-0.2527	0.0697	0.3224	1668.4951	0.180483	-461.321171	-461.310728	-461.309784	-461.358213	36.94	
O	 0.1628461948	 1.1081270179	-0.8281345334	-0.42182
C	-0.1818997769	 0.1720100073	 0.1740623905	-0.063105
C	-1.6681900896	-0.1450867512	 0.1579488323	-0.069545
O	-1.9581336319	-0.6960031481	-1.1208020497	-0.268004
C	-3.310544148	-0.9825641731	-1.3120081448	 0.112888
C	-4.2586731663	 0.1160380607	-1.721198202	-0.314744
C	-3.841831066	-0.953517983	-2.7131325098	-0.030238
C	-2.9526167905	-0.5918118828	-3.8731801047	-0.090516
O	-3.7751181399	-0.0528270228	-4.9003678051	-0.420643
H	-0.2003363631	 0.7584084635	-1.6495682179	 0.289908
H	 0.386669561	-0.7651065398	 0.063261449	 0.093342
H	 0.0878446879	 0.6165691019	 1.1376082644	 0.109261
H	-1.920624687	-0.8629672887	 0.9547400094	 0.088511
H	-2.2564447655	 0.770097571	 0.3172884972	 0.102743
H	-3.6876487787	-1.7584038884	-0.6443151682	 0.087656
H	-5.2712842784	 0.1143188607	-1.3337281627	 0.11418
H	-3.8285700272	 1.1013044317	-1.8682669462	 0.124077
H	-4.5844989847	-1.7088157726	-2.953356037	 0.095296
H	-2.19236518	 0.1312972558	-3.5455436309	 0.086252
H	-2.4195189915	-1.4898674485	-4.2238640569	 0.089192
H	-3.2186804685	 0.1186122784	-5.6659711438	 0.28531
39.6467	50.1979	80.7556	119.2633	159.8072	226.0553	259.0946	289.3042	305.8219	380.5877	414.0176	468.8704	543.0562	597.6337	779.4408	824.9019	861.5726	902.0517	922.1447	933.5913	1013.9173	1042.8227	1057.7748	1073.4134	1083.2163	1105.9299	1134.1333	1139.1569	1170.062	1186.9036	1236.8699	1245.6709	1256.1659	1263.5958	1275.4562	1363.5243	1387.1134	1390.7146	1427.5735	1438.7821	1466.7751	1488.0528	1497.8011	1508.9855	1522.8516	2973.859	2976.6418	2982.5359	3014.1159	3029.0212	3080.498	3089.5515	3134.3349	3152.8515	3223.0679	3805.1339	3825.9771
OCCOC1CC1CO	OCCO[C@H]1C[C@H]1CO	
InChI=1S/C6H12O3/c7-1-2-9-6-3-5(6)4-8/h5-8H,1-4H2	InChI=1S/C6H12O3/c7-1-2-9-6-3-5(6)4-8/h5-8H,1-4H2/t5-,6-/m0/s1
