16
gdb 30045	2.52333	1.84534	1.07293	2.0799	77.4	-0.1934	-0.0309	0.1625	1065.7241	0.126695	-434.111361	-434.103554	-434.10261	-434.143598	29.899	
C	-0.4360217387	 1.3561512905	 0.0320043521	-0.326389
N	 0.0118686656	-0.0286653553	-0.0021314137	-0.099605
C	 0.2203532786	-0.6891179696	-1.1892613268	-0.011802
C	 0.6363432291	-1.9750474106	-1.2018256156	-0.10192
N	 0.8662337918	-2.6697385308	-0.0326666849	-0.357442
C	 0.6699521795	-2.0480061228	 1.0768396936	 0.358643
O	 0.8782352398	-2.6757812796	 2.2511363573	-0.40825
C	 0.2193831187	-0.6533815273	 1.2256062356	 0.310239
N	 0.0157259534	-0.0088545401	 2.3175117956	-0.576648
H	 0.2922128345	 1.972431189	 0.5662877379	 0.156118
H	-0.5572798841	 1.7163648187	-0.9900433506	 0.125002
H	-1.3827416302	 1.4304786662	 0.5740133702	 0.156133
H	 0.0321001673	-0.1194424507	-2.0893036112	 0.126847
H	 0.8036139378	-2.5046327287	-2.1298180045	 0.113715
H	 1.1673502494	-3.5723872976	 2.0300049141	 0.302944
H	 0.2152811774	-0.6147803814	 3.109771871	 0.232415
100.1073	149.4318	203.1941	283.1308	330.2858	354.739	476.2581	494.3877	555.0361	560.6785	568.041	586.2433	722.4189	772.7018	780.9431	825.6481	876.8004	886.4088	978.9939	1061.0318	1123.9952	1154.5379	1181.0627	1227.699	1289.2382	1341.6811	1387.0639	1436.9029	1446.9724	1463.7976	1471.0676	1515.4047	1612.6833	1651.5784	1687.7808	3050.9534	3112.8492	3151.7886	3213.2191	3231.3821	3528.3154	3766.2746
CN1C=CN=C(O)C1=N	Cn1ccnc(O)c1[NH]	
InChI=1S/C5H7N3O/c1-8-3-2-7-5(9)4(8)6/h2-3,6H,1H3,(H,7,9)	InChI=1S/C5H12N3O/c1-8-3-2-7-5(9)4(8)6/h4-7,9H,2-3H2,1H3
