15
gdb 125614	6.02734	0.92242	0.80797	1.6675	71.35	-0.2644	-0.0004	0.264	1350.0422	0.113967	-413.041267	-413.032875	-413.031931	-413.075652	29.175	
C	-0.6110093063	 1.3840357212	-0.5361355568	-0.48217
C	-0.1072718789	 0.0667628962	-0.0530491462	 0.337165
N	 0.8189900985	-0.626080753	-0.7009697552	-0.256741
N	 0.9613387667	-1.7245941554	 0.0806880522	-0.238927
C	 0.1353117823	-1.6503600909	 1.1414257574	 0.389127
C	 0.0247827306	-2.6930825617	 2.2186003053	-0.461845
C	 0.9237615182	-3.8234518653	 1.9955429318	 0.267603
N	 1.648424645	-4.6973982142	 1.7827091843	-0.3012
N	-0.5583312237	-0.5316739078	 1.0937426971	-0.356663
H	-0.4318862634	 2.1635344552	 0.210787787	 0.141915
H	-0.1095199863	 1.6595334353	-1.465082479	 0.143827
H	-1.6904389831	 1.3439481334	-0.7116910438	 0.141917
H	 1.6157555096	-2.450496235	-0.1672534048	 0.295332
H	 0.24626822	-2.2407270332	 3.1917829002	 0.190325
H	-1.0075140491	-3.0565639447	 2.2733481503	 0.190333
27.6349	98.6432	111.1963	182.7906	262.6419	330.0819	374.6404	403.917	493.7979	575.5502	689.8383	699.8067	718.3579	764.7599	950.3063	951.5889	1006.8814	1024.0755	1070.9757	1072.023	1164.0852	1211.1567	1284.0551	1303.1222	1374.2962	1410.8664	1452.1255	1477.4438	1477.4615	1482.6234	1541.4828	1583.3739	2368.9034	3048.8622	3050.9379	3083.914	3105.5853	3147.9172	3648.1671
CC1=NNC(CC#N)=N1	Cc1n[nH]c(CC#N)n1	
InChI=1S/C5H6N4/c1-4-7-5(2-3-6)9-8-4/h2H2,1H3,(H,7,8,9)	InChI=1S/C5H6N4/c1-4-7-5(2-3-6)9-8-4/h2H2,1H3,(H,7,8,9)
