18
gdb 13018	2.65122	2.43798	1.58566	1.7644	66.5	-0.2487	0.0812	0.3299	862.8278	0.154004	-384.943454	-384.935768	-384.934824	-384.975088	29.689	
C	-0.0460937808	 1.5008165136	 0.0387164383	-0.492992
C	 0.1527345361	 0.0143201943	-0.0285223376	 0.380348
O	-0.7756832706	-0.8018257893	 0.7254976694	-0.314196
C	 0.6247892836	-0.8516094147	 1.056426636	-0.007429
C	 1.3357985601	-2.0649992738	 0.4885828481	-0.247924
C	 0.8509124608	-2.1166549892	-0.9769216426	-0.250944
C	 0.4799126156	-0.6591344166	-1.3592237676	 0.095652
O	-0.5697782254	-0.5564022723	-2.3046434468	-0.440916
H	 0.8745004486	 2.0277983307	-0.234643834	 0.12182
H	-0.8261080718	 1.8064891576	-0.665970741	 0.136661
H	-0.3425334364	 1.8082096146	 1.0443710659	 0.127672
H	 0.8769366492	-0.4640971741	 2.0410899554	 0.090228
H	 2.4186331001	-1.9013971026	 0.5507914284	 0.105152
H	 1.1133550429	-2.9829245991	 1.0416986793	 0.110889
H	 1.589821497	-2.5450669925	-1.6571850726	 0.103846
H	-0.0528550846	-2.7274763235	-1.0514798124	 0.109534
H	 1.3326201973	-0.1458969146	-1.8201264635	 0.086516
H	-1.3530028817	-0.9326626685	-1.8846457728	 0.286082
102.1719	190.3269	220.1643	243.5709	283.7963	390.5091	418.6538	454.73	563.2423	567.8246	661.5091	701.1927	820.1113	841.1541	881.2285	921.607	957.7923	1007.1733	1009.7119	1037.813	1092.7584	1096.3635	1118.7354	1165.69	1231.5773	1239.6498	1272.0275	1306.5477	1328.1449	1332.9632	1346.0291	1405.9275	1430.9007	1463.9734	1477.4931	1486.3242	1492.1947	1502.0734	3036.7782	3037.0014	3042.7761	3067.2937	3082.9087	3101.8957	3117.5246	3126.0863	3139.9331	3784.1605
CC12OC1CCC2O	C[C@]12O[C@H]1CC[C@H]2O	
InChI=1S/C6H10O2/c1-6-4(7)2-3-5(6)8-6/h4-5,7H,2-3H2,1H3	InChI=1S/C6H10O2/c1-6-4(7)2-3-5(6)8-6/h4-5,7H,2-3H2,1H3/t4-,5+,6-/m1/s1
