19
gdb 83592	2.65577	1.65361	1.56448	0.7418	69.45	-0.2485	0.0784	0.3269	955.3218	0.162273	-460.164083	-460.156819	-460.155875	-460.195369	29.496	
O	 0.022158022	 1.4144136472	 0.0314806083	-0.462223
C	 0.0061082099	 0.0017115692	 0.0254171973	 0.157368
C	-1.3892323066	-0.6094561328	-0.2163184099	-0.093774
C	-1.5650689572	-0.3284736981	-1.7227730525	-0.090716
O	-0.2262038438	-0.234027973	-2.2584662548	-0.289835
C	 0.6857696394	-0.5897177322	-1.2118707577	 0.041425
C	 0.8157786144	-2.1145387417	-1.0790435354	-0.094099
O	-0.4470708601	-2.7418760277	-0.9304847469	-0.245552
C	-1.2874142679	-2.1244618745	 0.0326868634	-0.095179
H	-0.0764347309	 1.700717506	-0.8844807145	 0.290883
H	 0.4496776059	-0.323485138	 0.9702101168	 0.084261
H	-2.1633548129	-0.1542401881	 0.4049504522	 0.082212
H	-2.1071791031	-1.1291122297	-2.2353401519	 0.115554
H	-2.0799679059	 0.6208930192	-1.9083574171	 0.100504
H	 1.6549547235	-0.1355540807	-1.4380623606	 0.084984
H	 1.2565114374	-2.5378928407	-1.985695827	 0.119896
H	 1.4802786266	-2.347008338	-0.2288637949	 0.088238
H	-0.9207064124	-2.3156594198	 1.0551661415	 0.092422
H	-2.2623113484	-2.6102786665	-0.0709948963	 0.113631
190.2957	199.0974	258.5814	313.8151	335.5131	386.2225	408.7245	440.452	550.0242	697.564	754.0881	827.642	841.1812	862.9018	870.5477	920.0219	963.1657	971.2167	984.9013	1033.0257	1063.0191	1081.1058	1090.4342	1126.0646	1151.1356	1194.3441	1216.964	1250.9354	1272.6156	1286.4637	1287.997	1325.9767	1331.7296	1344.5249	1372.1812	1395.4185	1412.9237	1440.2532	1488.7148	1505.3489	1518.4487	2960.3117	2969.0147	3033.7705	3074.8031	3077.2241	3081.482	3083.9662	3093.4384	3099.414	3790.4998
OC1C2COC1COC2	O[C@H]1[C@H]2CO[C@@H]1COC2	
InChI=1S/C6H10O3/c7-6-4-1-8-3-5(6)9-2-4/h4-7H,1-3H2	InChI=1S/C6H10O3/c7-6-4-1-8-3-5(6)9-2-4/h4-7H,1-3H2/t4-,5-,6+/m1/s1
