14
gdb 42635	2.78342	1.76035	1.29813	4.1408	73.04	-0.2308	-0.0073	0.2235	951.9922	0.100252	-399.451226	-399.444086	-399.443142	-399.482718	28.066	
O	-0.033005174	 0.0608244536	 0.0127167117	-0.324375
C	-0.0403092259	 1.2518312246	 0.0778078169	 0.479467
C	-1.0874026568	 2.3142662285	 0.0517599898	-0.220535
C	-0.4131205824	 3.5600443117	 0.6222818089	-0.017162
N	 0.8830641437	 3.121428194	 1.1934723268	-0.349486
C	 1.0608877044	 2.3519081977	-0.1063014688	 0.09362
C	 2.3688324997	 2.090038429	-0.6044581182	 0.007252
C	 3.4695815994	 1.8659846713	-1.0333018837	-0.309933
C	-0.10987559	 3.1976511869	-0.7850048661	-0.151944
H	-2.1582008886	 2.2207568366	-0.0584363312	 0.123861
H	-1.0019448539	 4.3683091645	 1.0358660914	 0.119837
H	 1.5173168616	 3.9195817311	 1.1434984934	 0.228213
H	 4.4406503059	 1.6552691222	-1.4087873788	 0.19238
H	-0.2617304629	 3.6154418882	-1.7699865521	 0.128806
123.0177	150.0507	191.4372	361.9815	450.7661	479.3956	507.365	624.4363	628.5416	655.2216	671.1887	726.061	746.1182	800.6897	820.7041	848.074	882.2641	932.3713	937.9443	987.3686	1022.0096	1047.1938	1093.3666	1133.6412	1178.6471	1237.1723	1282.526	1353.7399	1379.8043	1901.0235	2240.3072	3204.7957	3221.4351	3233.4989	3451.2383	3499.9652
O=C1C2C3NC1(C#C)C23	O=C1[C@H]2[C@H]3N[C@]1(C#C)[C@@H]23	
InChI=1S/C7H5NO/c1-2-7-4-3(6(7)9)5(4)8-7/h1,3-5,8H	InChI=1S/C7H5NO/c1-2-7-4-3(6(7)9)5(4)8-7/h1,3-5,8H/t3-,4+,5-,7-/m1/s1
