21
gdb 70612	2.32332	1.82014	1.3005	1.4481	81.44	-0.2221	0.0824	0.3045	1064.0635	0.183108	-387.065665	-387.057464	-387.056519	-387.097882	33.154	
C	-0.4314615858	 1.4325094759	 0.0712557121	-0.496313
C	-0.0219599585	-0.0180629111	 0.0026555485	 0.233928
C	-0.3061879147	-0.9483242083	 1.1815534448	-0.38097
C	 1.1118874953	-0.5967580094	 0.8032354375	 0.082313
O	 1.8575875138	-1.5097031564	 0.0409158552	-0.259593
C	 1.0729180308	-1.8741413232	-1.0928840461	-0.171434
C	 0.0845115076	-0.7274285628	-1.3314223663	 0.298657
C	-1.0620719978	-0.9059839215	-2.2871906552	-0.316815
C	 0.0781492116	 0.0224269882	-2.6398637195	-0.321071
H	 0.2425274452	 2.0709505203	-0.5093851627	 0.123331
H	-1.4499473158	 1.583772625	-0.3076405694	 0.117352
H	-0.4170357836	 1.7888796233	 1.1057076364	 0.116327
H	-0.7055536297	-0.490080978	 2.0807679583	 0.107826
H	-0.6709488702	-1.9525891587	 0.9942545321	 0.114814
H	 1.7406525388	-0.0146959065	 1.467463709	 0.098548
H	 1.750812669	-2.0459612525	-1.9349385854	 0.108811
H	 0.5367711669	-2.8143436591	-0.8942567007	 0.096303
H	-1.1432412776	-1.8487891864	-2.8201657383	 0.109781
H	-2.0179156414	-0.4611958651	-2.0295913111	 0.113803
H	-0.1182297836	 1.0888200173	-2.634996194	 0.113561
H	 0.7790398095	-0.2942556109	-3.4057738151	 0.110842
106.6495	207.1741	225.8652	233.749	286.2256	333.2199	360.977	433.2846	475.1393	531.8201	608.5349	697.3289	777.4815	802.746	836.9804	869.4466	899.0556	919.311	944.6295	972.6122	979.386	1008.4729	1027.1467	1038.3549	1056.2402	1077.9113	1088.32	1095.9375	1125.4998	1160.0435	1188.6994	1197.7334	1229.405	1273.6921	1310.103	1350.7661	1386.0048	1413.373	1421.6519	1465.7986	1481.7846	1492.6999	1504.4797	1505.1165	1527.321	2985.1869	3021.8953	3068.926	3082.3208	3101.7947	3120.1141	3128.153	3129.5152	3177.8939	3199.2354	3214.7191	3217.0199
CC12CC1OCC21CC1	C[C@]12C[C@H]1OCC12CC1	
InChI=1S/C8H12O/c1-7-4-6(7)9-5-8(7)2-3-8/h6H,2-5H2,1H3	InChI=1S/C8H12O/c1-7-4-6(7)9-5-8(7)2-3-8/h6H,2-5H2,1H3/t6-,7+/m1/s1
