25
gdb 117842	2.49228	0.9472	0.85059	2.3215	85.52	-0.2418	0.0663	0.3081	1551.9239	0.225454	-426.617928	-426.606099	-426.605155	-426.654739	42.877	
C	-0.0214373564	 1.647906275	 0.0401145616	-0.383063
C	 0.0627387291	 0.1212594647	-0.0426560242	-0.172603
C	 0.8036948063	-0.4936530468	 1.1501160285	-0.202838
C	 0.7735634106	-2.0391576224	 1.2067000921	 0.357709
C	 1.3929515092	-2.6784146304	-0.0408233847	-0.41755
C	 1.5483724515	-2.489564315	 2.4584592637	-0.12372
O	 1.43611954	-3.8965030106	 2.5987230022	-0.417038
O	-0.5763862755	-2.5181756566	 1.2094642879	-0.273081
C	-1.3168012561	-2.4007146085	 2.4043547283	-0.243446
H	 0.975694893	 2.1022781514	 0.067348722	 0.110045
H	-0.5519085358	 2.064407556	-0.822026345	 0.110664
H	-0.5526131686	 1.968601852	 0.943589927	 0.110441
H	-0.9433794185	-0.3086998983	-0.0907787726	 0.11222
H	 0.5623227272	-0.161856278	-0.9762245233	 0.097154
H	 1.8509410634	-0.1629206848	 1.1464678547	 0.088934
H	 0.3702086699	-0.0973017678	 2.0782393023	 0.088062
H	 2.3893883651	-2.2690887241	-0.2361040029	 0.10036
H	 1.4762959302	-3.7564567308	 0.1067011973	 0.136487
H	 0.7620673064	-2.4952328152	-0.9128324562	 0.122674
H	 2.5971137487	-2.1785888552	 2.3371005129	 0.089962
H	 1.1567618141	-1.9717074877	 3.3473583648	 0.084111
H	 1.9953327786	-4.1698696017	 3.3313673277	 0.288538
H	-1.3542289131	-1.3708205506	 2.7892897591	 0.097011
H	-2.3382965742	-2.7073057729	 2.1629136548	 0.121379
H	-0.9312659253	-3.0625747517	 3.190203832	 0.117588
70.6947	74.4615	132.2888	141.3497	144.6781	228.8638	237.5494	244.9072	255.7774	261.2226	310.2601	332.6599	337.1989	376.2629	409.5977	505.2398	628.9732	745.1275	748.3284	852.3654	878.8278	912.7217	931.554	965.8711	1050.0899	1061.7601	1081.1575	1114.9796	1120.503	1163.583	1181.3246	1191.3541	1206.466	1237.628	1255.7438	1274.5146	1302.4407	1323.7562	1349.5862	1391.3674	1404.9161	1413.9639	1456.1722	1471.1704	1483.9454	1488.0331	1491.758	1496.7867	1501.0437	1503.1305	1509.6754	1514.0596	1523.9408	2977.9782	2988.4483	3007.89	3012.9241	3026.2988	3036.9139	3043.3763	3049.7132	3050.715	3072.7925	3097.7171	3099.4027	3103.6391	3123.9594	3144.9458	3834.512
CCCC(C)(CO)OC	CCC[C@@](C)(CO)OC	
InChI=1S/C7H16O2/c1-4-5-7(2,6-8)9-3/h8H,4-6H2,1-3H3	InChI=1S/C7H16O2/c1-4-5-7(2,6-8)9-3/h8H,4-6H2,1-3H3/t7-/m0/s1
