12
gdb 130753	3.48488	1.81921	1.20438	3.373	60.51	-0.2954	-0.0512	0.2442	909.3867	0.081198	-468.857214	-468.851177	-468.850233	-468.887931	22.369	
O	-0.0111766672	-0.051492705	 0.0025769416	-0.333304
C	 0.0156062592	 1.1335918747	 0.0085359334	 0.548138
O	-1.0742919046	 1.9565828411	 0.0289267524	-0.255853
C	-0.7109034796	 3.3586781211	 0.0312157695	-0.20084
C	 0.78034566	 3.3075365653	 0.0091860256	 0.376601
N	 1.8375590979	 4.0767990362	-0.0022158874	-0.35786
C	 2.8506125626	 3.137331761	-0.0220701003	 0.038013
N	 2.4766102255	 1.8670801026	-0.0232788001	-0.234264
N	 1.1284372926	 2.0047333939	-0.0028595626	-0.070217
H	-1.1450505073	 3.8366321644	-0.8514333447	 0.170352
H	-1.1190438479	 3.8269703777	 0.9312844002	 0.170351
H	 3.8941852688	 3.4145532369	-0.0358483276	 0.148885
145.928	203.2858	258.1749	328.256	576.7402	650.914	665.5445	680.5626	685.1584	757.6688	797.4927	922.5768	977.2177	1023.7338	1026.2105	1071.6697	1143.959	1175.6049	1189.923	1284.7115	1329.8631	1354.4166	1431.0419	1469.5046	1496.2431	1610.776	1940.455	3065.7131	3111.3497	3267.196
O=C1OCC2=NC=NN12	O=C1OCc2ncnn12	
InChI=1S/C4H3N3O2/c8-4-7-3(1-9-4)5-2-6-7/h2H,1H2	InChI=1S/C4H3N3O2/c8-4-7-3(1-9-4)5-2-6-7/h2H,1H2
