19
gdb 81249	2.9137	1.55384	1.41044	2.0463	75.22	-0.2422	0.0761	0.3183	998.5989	0.161306	-422.945448	-422.93808	-422.937136	-422.977039	29.769	
O	-0.1634110925	 1.4433435701	-0.0826895966	-0.450826
C	 0.0005359229	 0.050547902	 0.0311455445	 0.140589
C	-0.0155522739	-0.6184750232	 1.4307422843	-0.147819
C	-1.5308627031	-0.1944661329	 1.5267776381	-0.319504
C	-1.3274979025	-0.7573607179	 0.0838527239	 0.282387
C	-1.9780588829	-1.3499003729	-1.1342136449	-0.20322
O	-0.9924520971	-2.3095329003	-1.5742543425	-0.285405
C	-0.0593096726	-2.6721298981	-0.5207182524	-0.119791
C	-0.5352686578	-1.9185906617	 0.718767781	-0.02886
H	 0.703119335	 1.8548594329	-0.0133624386	 0.285008
H	 0.7601615766	-0.3100704952	-0.667969067	 0.074199
H	 0.7330041341	-0.5447173505	 2.221874357	 0.070822
H	-2.1559479928	-0.7929754627	 2.1937758184	 0.094675
H	-1.7279375576	 0.8717368184	 1.6169079236	 0.119399
H	-2.9290216747	-1.8483592707	-0.8954584646	 0.094612
H	-2.1420201976	-0.6483199011	-1.9577425044	 0.11361
H	-0.1081191136	-3.7567588042	-0.3733857752	 0.098292
H	 0.9533865007	-2.4258933711	-0.8589016255	 0.10323
H	-1.1324568206	-2.5543264608	 1.377469401	 0.078603
111.0131	225.8302	241.8711	259.6088	345.1621	383.8656	461.3151	526.1273	606.3723	669.0016	742.299	795.7412	828.0184	869.6885	878.6113	894.3509	938.4015	977.8681	1017.8715	1023.6314	1040.1756	1057.6338	1087.6043	1106.894	1144.7568	1155.0409	1167.8171	1178.3109	1204.3523	1205.7571	1222.1702	1249.2745	1278.2163	1316.7399	1345.9676	1374.3403	1399.2404	1453.6538	1513.2714	1513.3974	1531.9237	2995.0792	3028.5044	3052.3859	3068.9656	3072.5258	3077.2082	3079.1976	3095.8084	3165.2372	3827.0473
OC1C2CC11COCC21	O[C@H]1[C@H]2C[C@]31COC[C@@H]23	
InChI=1S/C7H10O2/c8-6-4-1-7(6)3-9-2-5(4)7/h4-6,8H,1-3H2	InChI=1S/C7H10O2/c8-6-4-1-7(6)3-9-2-5(4)7/h4-6,8H,1-3H2/t4-,5-,6-,7-/m0/s1
