15
gdb 24015	4.19261	1.24591	1.03051	3.0328	77.54	-0.2176	-0.0019	0.2158	1109.8316	0.114936	-379.679595	-379.67242	-379.671476	-379.711849	26.97	
N	-0.8178730483	-1.1841373793	-0.1859955997	-0.311194
C	-0.4336020312	-0.0987559056	-0.0918327523	 0.29513
C	 0.0305149073	 1.2820230551	 0.0298589091	-0.128167
C	-0.181899824	 2.0020115998	 1.4315455846	-0.394531
C	 1.3281155391	 2.1650424868	 1.4154194746	 0.332109
C	 2.5404976694	 2.7124458731	 1.754043478	-0.321138
C	 3.4388479075	 2.285704207	 0.7194618186	-0.120979
C	 2.7540243257	 1.5344826659	-0.2202859178	-0.155954
N	 1.4720781301	 1.4542897173	 0.2587864602	 0.030136
H	-0.3476844191	 1.8669366441	-0.8144058202	 0.148484
H	-0.777889916	 2.9147697403	 1.3626955681	 0.138839
H	-0.5989713349	 1.351938802	 2.2037049674	 0.145964
H	 2.7860921684	 3.3254506388	 2.6062343692	 0.10534
H	 4.4983500935	 2.4933354202	 0.6856487141	 0.103308
H	 3.0855252325	 1.0315858645	-1.1132193639	 0.132651
55.9857	135.6371	196.5262	273.0728	418.798	501.1801	563.8746	601.0209	651.924	700.0971	735.3433	760.4004	775.6962	840.0714	857.4124	928.0209	991.9962	1020.7983	1032.3446	1068.4499	1109.9429	1117.036	1196.4338	1221.5964	1255.236	1288.9046	1340.6595	1411.0815	1432.452	1472.7421	1496.3298	1591.4969	2362.7248	3065.6332	3072.1231	3123.4382	3240.515	3264.7824	3279.4533
N#CC1CC2=CC=CN12	N#C[C@H]1Cc2cccn12	
InChI=1S/C7H6N2/c8-5-7-4-6-2-1-3-9(6)7/h1-3,7H,4H2	InChI=1S/C7H6N2/c8-5-7-4-6-2-1-3-9(6)7/h1-3,7H,4H2/t7-/m1/s1
