19
gdb 113180	2.62904	1.13409	1.0568	2.6665	73.98	-0.2396	-0.0108	0.2288	1259.699	0.155184	-460.155587	-460.145488	-460.144544	-460.190838	36.396	
C	-0.4994860693	 0.9698268364	-0.3022252158	-0.250093
O	 0.3669493997	-0.1030434227	 0.0502899287	-0.248815
C	 0.972719375	-0.6885928967	-1.0576786302	 0.064067
C	 1.6344122973	-2.0032954849	-0.8457665739	-0.370295
C	 0.2900931701	-1.9675476667	-1.5657550513	 0.270196
O	-0.8527348347	-2.3805564936	-0.8820983247	-0.482744
C	 0.2760999638	-2.1870753978	-3.0411641597	 0.335951
C	-0.9959503693	-2.7419945461	-3.6420677413	-0.477086
O	 1.2547454096	-1.9088448985	-3.7067550809	-0.331846
H	 0.0547716216	 1.7717576407	-0.8076919301	 0.12636
H	-1.3116357757	 0.6326499407	-0.9596560142	 0.122647
H	-0.9205044883	 1.3562373593	 0.6279583595	 0.137127
H	 1.3801247018	-0.0031776457	-1.7985289093	 0.114926
H	 2.507486861	-2.2237454193	-1.4484313048	 0.144756
H	 1.6122845711	-2.4143969573	 0.1575342498	 0.128262
H	-0.9324899256	-1.8001337267	-0.1119306549	 0.290254
H	-1.8484208614	-2.1060756246	-3.383408135	 0.141305
H	-0.8851148728	-2.8134753678	-4.7243318216	 0.133715
H	-1.212751854	-3.7273688087	-3.2162784705	 0.151314
63.9317	101.934	113.4724	137.1073	172.875	218.1588	277.7592	316.6461	337.8426	413.0728	440.7037	485.576	518.8509	575.1943	626.916	712.9375	789.0828	839.2824	886.8782	956.7794	1011.5416	1040.4157	1062.0248	1069.5632	1104.8783	1140.7735	1175.4678	1183.7465	1244.6564	1249.5031	1290.9834	1366.272	1380.2539	1422.4063	1446.6429	1455.9047	1466.2614	1486.1036	1489.432	1507.8432	1781.2867	3003.177	3045.9999	3062.5301	3107.1892	3129.3662	3132.0382	3139.5447	3158.2757	3242.6421	3736.2551
COC1CC1(O)C(C)=O	CO[C@H]1C[C@]1(O)C(=O)C	
InChI=1S/C6H10O3/c1-4(7)6(8)3-5(6)9-2/h5,8H,3H2,1-2H3	InChI=1S/C6H10O3/c1-4(7)6(8)3-5(6)9-2/h5,8H,3H2,1-2H3/t5-,6-/m0/s1
