19
gdb 116598	5.91075	0.78615	0.7046	5.0055	87.5	-0.2052	0.0004	0.2056	1620.0557	0.159374	-419.235855	-419.226577	-419.225633	-419.27095	34.101	
C	-0.3756703259	 1.5350027426	-0.0286424238	-0.370081
C	 0.4739645812	 0.2775431622	 0.1378305574	-0.113687
N	 1.1779720292	-0.0256242226	-1.1018069553	-0.364186
C	 2.082113083	-0.907751625	-1.08926157	 0.475729
O	 2.4510597058	-1.6201378885	 0.0496577729	-0.266605
C	 3.5041703001	-2.5133404571	-0.2766241728	-0.155943
C	 3.7479342188	-2.3149669068	-1.7530300522	 0.337424
N	 4.7581860608	-2.9947219454	-2.387631504	-0.587655
C	 2.903579431	-1.3682052885	-2.1989036007	-0.344226
H	 0.2536263891	 2.3949869945	-0.2781703963	 0.113835
H	-1.0985929638	 1.4056875169	-0.8398136948	 0.115429
H	-0.9228877646	 1.7630410134	 0.892173485	 0.09718
H	 1.1777881054	 0.4055528797	 0.9733478327	 0.096435
H	-0.1710742737	-0.5690121322	 0.4186759937	 0.095255
H	 4.3958716044	-2.2773455314	 0.3205001235	 0.128716
H	 3.2013887205	-3.543562726	-0.0379521365	 0.116318
H	 4.9989114785	-3.8999461529	-2.0124039525	 0.256247
H	 4.7417478283	-2.9819961896	-3.3963284607	 0.262089
H	 2.8067392917	-0.9719399131	-3.1978714658	 0.107726
20.8039	106.3169	133.5855	208.3468	231.4809	308.0717	325.0307	349.5175	356.4797	482.8665	494.5443	563.0012	642.4323	711.0014	736.7627	790.2504	835.8597	862.9936	917.7417	925.8861	1034.4396	1065.139	1077.1237	1104.4553	1116.577	1137.2924	1191.38	1201.1226	1271.8671	1296.1039	1368.453	1381.245	1410.1505	1415.681	1478.3582	1487.8656	1505.7906	1506.3489	1648.6568	1711.005	1776.4248	2981.9728	2996.59	3009.8159	3028.7778	3035.1803	3105.8251	3111.2847	3254.8345	3571.2201	3672.993
CCN=C1OCC(N)=C1	CCN=C1OCC(=C1)N	
InChI=1S/C6H10N2O/c1-2-8-6-3-5(7)4-9-6/h3H,2,4,7H2,1H3	InChI=1S/C6H10N2O/c1-2-8-6-3-5(7)4-9-6/h3H,2,4,7H2,1H3
