16
gdb 13951	5.10889	1.34245	1.24418	2.0287	70.	-0.2523	0.0471	0.2994	999.3936	0.128948	-346.531813	-346.524217	-346.523273	-346.563946	28.633	
C	-0.0403063441	-1.1944048106	-0.2910838631	-0.448762
C	-0.0519189236	-0.0054948829	-0.1196340243	 0.306849
C	-0.0428190593	 1.4380576285	 0.1050743587	-0.466202
C	 1.3494235842	 2.0004209091	 0.2131814921	 0.438064
C	 2.4169309111	 1.7212995119	 1.2864844661	-0.284107
C	 2.9855278864	 3.1616662128	 1.0249651027	-0.236754
C	 1.8903023052	 3.3492400287	-0.0334814194	-0.050597
O	 2.0543946363	 2.2962007433	-0.9970665713	-0.281947
H	-0.0358178171	-2.2438270457	-0.4525588475	 0.198739
H	-0.5604878765	 1.9507267083	-0.7141115074	 0.144422
H	-0.5954805457	 1.6673094457	 1.0257772806	 0.135046
H	 2.0028302626	 1.6106437556	 2.2916160646	 0.106818
H	 3.0750657662	 0.8786073757	 1.0668979792	 0.117083
H	 2.8714205453	 3.8214931891	 1.888252878	 0.106004
H	 4.007488718	 3.2281278452	 0.6451969902	 0.114363
H	 1.4102547111	 4.2587569252	-0.3777225493	 0.100982
63.0616	108.7991	228.837	296.5298	341.2249	362.7943	440.686	498.0554	621.8994	645.7748	714.0157	732.1468	773.3744	866.4906	910.1407	917.1876	940.0265	957.5681	963.2263	1025.3023	1060.1143	1136.5266	1170.8948	1211.0923	1217.2767	1243.3382	1257.4383	1300.0611	1327.4208	1448.3978	1453.656	1465.6598	1493.2047	2242.4382	3021.2342	3064.8845	3066.4362	3074.0783	3118.9571	3135.1987	3179.6434	3506.6496
C#CCC12CCC1O2	C#CC[C@]12CC[C@H]1O2	
InChI=1S/C7H8O/c1-2-4-7-5-3-6(7)8-7/h1,6H,3-5H2	InChI=1S/C7H8O/c1-2-4-7-5-3-6(7)8-7/h1,6H,3-5H2/t6-,7+/m1/s1
