14
gdb 127783	3.6858	1.65904	1.15244	6.2139	71.09	-0.2286	-0.0365	0.1921	982.4856	0.104488	-429.02396	-429.017151	-429.016207	-429.055316	25.605	
C	-0.0129524126	 1.457031146	-0.0894729679	-0.346553
N	-0.0080143155	 0.0216717094	 0.0595473343	-0.152352
N	-0.0401909133	-0.7857234536	-1.0567138832	-0.124865
N	-0.0266302889	-2.0315728695	-0.7234735167	-0.27855
C	 0.016809914	-2.0805158174	 0.6492024208	 0.39141
N	 0.0488177888	-3.0198763859	 1.6004887661	-0.322026
N	 0.0813172337	-2.2710503976	 2.7173271825	-0.162502
C	 0.0720004692	-0.9121622603	 2.5400937692	-0.194446
C	 0.0294308015	-0.7672339929	 1.1663507657	 0.306727
H	 0.8964887135	 1.8978570817	 0.3319837092	 0.142363
H	-0.05569685	 1.6710315893	-1.1578683518	 0.17005
H	-0.885444206	 1.8981950367	 0.4034697702	 0.142297
H	 0.1103645275	-2.7484772336	 3.6041568847	 0.284144
H	 0.0962280482	-0.2319725621	 3.3737928368	 0.144304
117.7579	154.4438	267.5974	282.4857	368.1718	554.8886	559.5033	624.9465	629.1448	671.9228	701.0207	728.339	791.2108	841.5837	969.5972	982.6988	1057.9982	1134.5292	1153.5423	1214.0467	1230.9705	1312.4179	1339.0819	1395.431	1447.6906	1448.5977	1481.2021	1481.9581	1510.9649	1516.0253	1672.4004	3035.0772	3093.9717	3155.3762	3281.9759	3656.2807
CN1N=NC2=NNC=C12	Cn1nnc2n[nH]cc12	
InChI=1S/C4H5N5/c1-9-3-2-5-6-4(3)7-8-9/h2H,1H3,(H,5,6)	InChI=1S/C4H5N5/c1-9-3-2-5-6-4(3)7-8-9/h2H,1H3,(H,5,6)
