15
gdb 84201	3.41326	1.1478	0.89699	1.8682	69.35	-0.2586	-0.0924	0.1663	1232.2277	0.111695	-453.999101	-453.990631	-453.989687	-454.032711	29.974	
C	-0.073347254	 1.5678966323	 0.0143553497	-0.386102
C	 0.0397164543	 0.0408965779	-0.0107100471	-0.108786
N	 0.8083208322	-0.447907538	-1.1616119539	-0.257995
C	 1.75769682	-1.1610616108	-0.6833599039	 0.277888
N	 1.7867418797	-1.2694596589	 0.707758576	-0.391262
C	 0.738781958	-0.5203954903	 1.2407951853	 0.415211
O	 0.4821998556	-0.3676803691	 2.4074093387	-0.35857
C	 2.8007494591	-1.8624485676	-1.4987428504	 0.109065
O	 2.8515497363	-1.8269834751	-2.6968948523	-0.209155
H	 0.918367149	 2.0286109254	 0.0193490483	 0.130652
H	-0.6125635053	 1.9188639374	-0.8677459056	 0.139848
H	-0.6068535419	 1.8777251339	 0.9163619852	 0.1449
H	-0.9687982441	-0.3906392935	-0.0635579293	 0.13753
H	 2.4696998359	-1.758218941	 1.2649648869	 0.271664
H	 3.5422304252	-2.4322576527	-0.8941838277	 0.085111
80.3139	108.4781	164.5287	183.072	214.3033	237.1625	376.4524	420.9829	489.7027	513.9025	632.7776	675.0144	724.6773	758.4652	814.799	933.389	987.2159	1019.8843	1045.6407	1101.7142	1123.3113	1158.6415	1220.0558	1278.1903	1295.0218	1399.1321	1404.095	1454.6303	1486.7496	1496.3231	1657.8533	1839.1506	1856.6621	2878.6603	3030.0243	3052.3632	3128.7999	3142.2823	3644.2032
CC1N=C(NC1=O)C=O	C[C@H]1N=C(NC1=O)C=O	
InChI=1S/C5H6N2O2/c1-3-5(9)7-4(2-8)6-3/h2-3H,1H3,(H,6,7,9)	InChI=1S/C5H6N2O2/c1-3-5(9)7-4(2-8)6-3/h2-3H,1H3,(H,6,7,9)/t3-/m1/s1
