20
gdb 8144	4.0948	1.5974	1.34458	0.2877	81.12	-0.2139	0.0291	0.2431	1007.174	0.177264	-311.88323	-311.875302	-311.874357	-311.91484	31.262	
C	 0.0338147854	 1.4877733513	 0.0166872071	-0.487528
C	-0.018867525	-0.0064321466	-0.0297260618	 0.314892
C	-0.0383521538	-0.787602021	-1.116131478	-0.174969
C	-0.010513291	-2.2366158923	-0.7714758218	-0.106136
C	 1.2334379068	-2.6981956045	-0.0290771736	-0.320193
C	 0.0054787969	-2.2964651642	 0.7504059669	 0.35933
C	-0.752586035	-3.343238965	 1.5312599329	-0.481179
C	-0.04590045	-0.8439810394	 1.2384161185	-0.374418
H	 0.9444976365	 1.8430632448	 0.5163988311	 0.122119
H	 0.0100839528	 1.9222923485	-0.9866392059	 0.121202
H	-0.8105927198	 1.8985585015	 0.5859156609	 0.120581
H	-0.0310994678	-0.4246488295	-2.1387542209	 0.08288
H	-0.5593193534	-2.9571702518	-1.3695491911	 0.078476
H	 1.4690547822	-3.7581949682	-0.0526890345	 0.101925
H	 2.0982402877	-2.0416181201	-0.041840453	 0.103691
H	-0.7142415101	-4.3169884232	 1.0323540127	 0.112155
H	-0.3343188718	-3.4725516687	 2.5371196513	 0.11451
H	-1.8077374358	-3.0679358801	 1.6453973289	 0.113592
H	 0.7886113458	-0.5987641158	 1.9097441506	 0.102346
H	-0.9633491307	-0.6512356557	 1.8151194897	 0.096722
140.6225	180.9588	207.16	241.2958	284.6693	364.5336	387.3387	406.9244	486.8621	550.4231	647.1366	742.3833	821.5422	845.6623	867.5487	881.3583	930.6951	949.7199	980.8619	1010.1844	1021.314	1053.2377	1061.0441	1070.4053	1099.931	1112.6997	1184.6414	1197.7815	1251.0765	1271.4365	1319.6113	1341.9281	1395.2343	1413.7068	1420.3336	1472.9585	1478.5976	1485.5395	1490.2701	1493.4943	1502.1296	1708.0348	2991.5825	3011.9726	3018.1346	3026.8006	3055.0127	3074.6475	3095.2596	3106.2975	3114.6083	3156.1258	3183.4281	3202.7081
CC1=CC2CC2(C)C1	CC1=C[C@H]2C[C@@]2(C)C1	
InChI=1S/C8H12/c1-6-3-7-5-8(7,2)4-6/h3,7H,4-5H2,1-2H3	InChI=1S/C8H12/c1-6-3-7-5-8(7,2)4-6/h3,7H,4-5H2,1-2H3/t7-,8+/m0/s1
