20
gdb 86594	3.28357	1.04001	0.86888	2.4751	81.03	-0.2368	-0.0219	0.2149	1392.9411	0.170064	-403.13226	-403.123084	-403.12214	-403.166863	33.921	
C	 0.0866941288	 1.5545284216	-0.5614272211	-0.387259
C	 0.0086605983	 0.15060024	 0.0183246964	-0.065941
N	 0.931863014	-0.860809629	-0.5697261018	-0.343784
C	 1.3793130341	-1.3654054854	 0.761111426	-0.098257
C	 2.8582424281	-1.5503177041	 0.9470116858	 0.039788
C	 3.369127797	-2.3338128239	 2.1300946811	-0.261398
C	 3.4913832503	-2.9069824145	 0.7426194326	-0.276894
C	 0.6922747218	-0.122473991	 1.3706534814	 0.371786
O	 0.73006588	 0.4358997361	 2.4253927206	-0.29271
H	 1.1257974143	 1.8908960534	-0.6082939738	 0.126286
H	-0.3281716021	 1.5826218561	-1.5738293893	 0.119426
H	-0.4811262203	 2.2516371129	 0.062771882	 0.129683
H	-1.0407526597	-0.183296876	 0.067806827	 0.090402
H	 0.4827423266	-1.5559101291	-1.1543805416	 0.22006
H	 0.8466414558	-2.2717803153	 1.0962553605	 0.082868
H	 3.4464970017	-0.6919922404	 0.6375689182	 0.089169
H	 4.2642947622	-1.9778421741	 2.6265640299	 0.11782
H	 2.6382506513	-2.7728924656	 2.8009339086	 0.115857
H	 2.8430970178	-3.7353217689	 0.4750434034	 0.107254
H	 4.4723615599	-2.9461951728	 0.2827701041	 0.115845
60.4886	72.0554	129.4333	186.8013	199.3071	257.2792	296.739	378.7068	409.112	551.4775	564.9333	648.6183	755.4525	773.7427	829.4949	841.9211	870.8884	930.2467	939.3697	964.646	1004.3315	1031.3744	1060.4838	1063.8767	1077.3402	1080.9678	1130.7857	1136.007	1171.0491	1196.5845	1203.3988	1228.8026	1277.3607	1299.1026	1355.3763	1362.6996	1402.3533	1429.0927	1471.7912	1483.9984	1495.3498	1505.6906	1910.8752	2958.4411	2971.3731	3039.8263	3110.7708	3123.4265	3130.5208	3138.3982	3157.0044	3210.1888	3225.9513	3544.1033
CC1NC(C2CC2)C1=O	C[C@H]1N[C@@H](C2CC2)C1=O	
InChI=1S/C7H11NO/c1-4-7(9)6(8-4)5-2-3-5/h4-6,8H,2-3H2,1H3	InChI=1S/C7H11NO/c1-4-7(9)6(8-4)5-2-3-5/h4-6,8H,2-3H2,1H3/t4-,6+/m1/s1
