17
gdb 98456	3.33875	1.08841	0.93789	2.9535	65.03	-0.2684	-0.0403	0.2281	1247.0574	0.132862	-496.078084	-496.068689	-496.067745	-496.114147	33.247	
O	 0.2193748328	 1.3980161987	-0.1522681542	-0.424428
C	 0.1206542216	 0.0058211495	-0.1755083625	-0.132005
C	-1.3005415709	-0.4456693996	 0.1027180073	 0.313929
O	-2.1684256723	 0.3779242674	 0.3070142651	-0.333355
C	-1.621669988	-1.9293812929	 0.1223257069	 0.231571
O	-0.437877	-2.6373217111	-0.1433494838	-0.478947
C	-2.4726374492	-2.3937942244	 1.3406522414	-0.112416
O	-3.5642802247	-2.7926520358	 0.4949167266	-0.26285
C	-2.889773411	-2.3303250611	-0.6871850956	-0.112412
H	-0.6758193546	 1.7176485792	 0.0419260453	 0.294199
H	 0.4286383163	-0.4113480359	-1.1472385417	 0.130213
H	 0.7817079436	-0.4650356034	 0.569098883	 0.13021
H	-0.6280192234	-3.5809914712	-0.1336612819	 0.29458
H	-2.028782852	-3.235500389	 1.8882570437	 0.103654
H	-2.7569364843	-1.5991041507	 2.0378773221	 0.127199
H	-3.4161472064	-1.4987925347	-1.1667327993	 0.127199
H	-2.7082679275	-3.1321158048	-1.4148672826	 0.10366
14.4215	59.158	121.6616	204.5495	228.9411	286.6197	321.6898	347.8398	382.8612	417.5207	428.0257	557.5596	567.4858	771.839	829.4859	879.7675	902.612	979.5907	988.4918	1028.6574	1052.6722	1067.4863	1126.905	1156.9432	1158.7361	1161.1869	1235.7723	1239.2462	1299.6029	1305.3832	1361.7317	1401.6872	1448.8996	1477.2937	1491.114	1517.6192	1790.6961	2991.8696	3006.2256	3009.4719	3020.0812	3082.3306	3083.2524	3693.3563	3821.1967
OCC(=O)C1(O)COC1	OCC(=O)C1(O)COC1	
InChI=1S/C5H8O4/c6-1-4(7)5(8)2-9-3-5/h6,8H,1-3H2	InChI=1S/C5H8O4/c6-1-4(7)5(8)2-9-3-5/h6,8H,1-3H2
