15
gdb 17047	5.47348	1.34224	1.27443	2.7955	62.64	-0.2328	-0.0191	0.2137	970.6898	0.118062	-399.718077	-399.710777	-399.709833	-399.749771	26.902	
C	 0.1719787755	 1.4126349353	 0.1599838697	-0.323764
N	-0.2578822266	 0.0797890716	-0.2515385941	-0.298988
C	 0.5073133189	-0.4764754021	-1.3228625889	 0.072198
C	 1.911555639	-1.1551931576	-1.0260741482	-0.118478
O	 1.1623124956	-2.2519961392	-0.3458165437	-0.313787
C	 0.3314121228	-1.9986120348	-1.5597219586	-0.12081
C	 1.6955160214	-1.9973000579	-2.3002555906	 0.48679
O	 2.2633503198	-2.4775553932	-3.2238324365	-0.306251
H	 1.2224967088	 1.4699507409	 0.4914908224	 0.102382
H	 0.0468417116	 2.1108134071	-0.6749506642	 0.127481
H	-0.4638484647	 1.7578614443	 0.9795767102	 0.128059
H	-0.2318070992	-0.5626227254	 0.5342036401	 0.234463
H	 0.4705166836	 0.1678328554	-2.2077994028	 0.097848
H	 2.8074856431	-0.7791230156	-0.5374800824	 0.114618
H	-0.5770826096	-2.5843756786	-1.6816850924	 0.11824
111.7497	134.4482	179.8863	228.8219	325.7963	384.2321	508.2856	558.4509	680.6043	728.738	768.7631	781.6469	809.2521	864.7949	952.3315	981.1196	1017.068	1055.7391	1119.6917	1128.0665	1146.3061	1157.8064	1169.807	1196.8976	1237.7852	1269.0954	1368.6013	1460.1812	1490.2299	1502.9454	1523.186	1940.7067	2962.8684	3061.1295	3064.2645	3112.1898	3154.5248	3158.8432	3526.5435
CNC1C2OC1C2=O	CN[C@H]1[C@H]2O[C@@H]1C2=O	
InChI=1S/C5H7NO2/c1-6-2-4-3(7)5(2)8-4/h2,4-6H,1H3	InChI=1S/C5H7NO2/c1-6-2-4-3(7)5(2)8-4/h2,4-6H,1H3/t2-,4+,5-
