19
gdb 66937	2.53746	1.94336	1.41139	1.7437	78.94	-0.2349	0.0722	0.3071	979.7755	0.16028	-381.976482	-381.968896	-381.967952	-382.008091	30.51	
C	-0.0188877286	 1.5217161326	 0.1239138776	-0.517596
C	-0.0869482812	 0.0293160294	 0.0596273031	 0.254337
C	 0.1176094693	-1.0100935761	 1.1049060544	-0.101076
C	-0.4728062375	-2.0557286686	 0.080259969	-0.188758
C	 0.9374783869	-2.0620416161	-0.5287364433	-0.150547
N	 1.2170485161	-0.7390330996	 0.1355668208	-0.19975
C	-1.0948099828	-0.8556271646	-0.6425401118	 0.385958
C	-2.5109991923	-0.5491087767	-0.9033190027	-0.33931
N	-1.5733429217	-0.8544742307	-2.0156913765	-0.382925
H	 0.7827090004	 1.8338079609	 0.7979540764	 0.141494
H	 0.1932182172	 1.9518474755	-0.8618127018	 0.122779
H	-0.9614914973	 1.9458620809	 0.486017428	 0.121222
H	 0.2130034551	-0.9613185827	 2.1817271677	 0.09857
H	-1.0496546739	-2.9548543706	 0.2858827895	 0.077156
H	 1.6060459798	-2.8077443165	-0.0917458773	 0.106067
H	 1.0181669642	-2.0706924254	-1.6213198984	 0.107863
H	-3.2779284942	-1.3011686427	-0.7374014251	 0.120594
H	-2.8519017607	 0.4760273476	-0.7768491703	 0.112987
H	-1.3055687086	 0.0031612832	-2.4936886392	 0.230936
157.6568	184.3716	213.0025	229.273	292.7726	363.0808	485.0563	509.0684	613.7305	629.1572	742.275	774.3881	820.5891	833.1427	889.1064	912.399	936.6999	941.6845	968.9477	974.4766	997.1216	1020.7991	1041.8902	1069.2235	1087.2571	1119.8562	1147.6685	1157.428	1170.8841	1217.1463	1227.6166	1258.5839	1282.2969	1304.5831	1391.0498	1425.9044	1449.3133	1485.9324	1491.9118	1506.1401	1523.4937	3030.3495	3043.3113	3089.4581	3100.6944	3108.547	3121.1569	3140.2568	3183.5671	3200.6546	3489.991
CC12C3C(CN13)C21CN1	C[C@]12[C@H]3[C@H](CN13)[C@]12CN1	
InChI=1S/C7H10N2/c1-6-5-4(2-9(5)6)7(6)3-8-7/h4-5,8H,2-3H2,1H3	InChI=1S/C7H10N2/c1-6-5-4(2-9(5)6)7(6)3-8-7/h4-5,8H,2-3H2,1H3/t4-,5+,6+,7-,9?/m0/s1
