17
gdb 13257	6.59551	0.98206	0.90126	3.574	66.61	-0.2472	0.0315	0.2787	1254.3238	0.142694	-401.004887	-400.996667	-400.995723	-401.039248	28.316	
O	-0.0992470489	 0.2448718431	 0.6110510779	-0.325076
C	 0.0364552711	 1.2748979916	-0.0157673564	 0.155342
N	 1.1956737409	 1.7047945013	-0.5791511673	-0.272667
C	 2.4556806748	 0.9981834429	-0.451639104	-0.17133
C	 3.5204080707	 1.9190143683	 0.1227699424	 0.151582
C	 4.9970631758	 1.5186611258	-0.0791868021	-0.300486
C	 5.0867477026	 2.8093277962	-0.9186812312	-0.058609
O	 3.6857340935	 3.097969616	-0.7085076586	-0.304647
H	-0.7948808093	 1.9836342514	-0.2006014856	 0.074916
H	 1.2167890958	 2.5972692764	-1.0483012031	 0.259935
H	 2.2821627566	 0.1392121262	 0.2018536902	 0.147968
H	 2.7851912247	 0.6266008459	-1.4313714757	 0.104481
H	 3.2511491787	 2.2066557081	 1.1471371454	 0.088179
H	 5.6064824381	 1.4966855349	 0.8244467149	 0.118915
H	 5.1446373301	 0.5903853391	-0.6351142862	 0.115188
H	 5.7279089993	 3.5973523485	-0.506413938	 0.10846
H	 5.3232879754	 2.6804411544	-1.9812243026	 0.107849
35.6618	69.8594	81.0765	177.616	240.3955	304.5627	405.3484	476.843	586.0293	730.4906	781.3193	814.1027	884.024	904.0969	973.612	974.6148	1023.3155	1033.0042	1071.1548	1099.8718	1144.232	1169.5672	1212.7837	1217.2107	1255.2062	1261.5155	1296.413	1336.449	1366.9146	1412.4152	1428.8871	1483.8686	1491.4442	1527.0473	1533.2335	1803.9669	2938.7075	3010.4107	3022.2274	3030.2618	3063.1547	3080.4053	3112.6135	3138.8413	3630.6695
O=CNCC1CCO1	O=CNC[C@H]1CCO1	
InChI=1S/C5H9NO2/c7-4-6-3-5-1-2-8-5/h4-5H,1-3H2,(H,6,7)	InChI=1S/C5H9NO2/c7-4-6-3-5-1-2-8-5/h4-5H,1-3H2,(H,6,7)/t5-/m1/s1
