20
gdb 96394	2.0442	1.63631	1.17577	3.1455	78.18	-0.2585	0.0303	0.2888	1134.7536	0.172626	-403.179874	-403.171272	-403.170327	-403.2129	32.804	
C	-0.0305412036	 1.5555977845	-0.0482953	-0.421478
C	 0.0447716575	 0.028899281	-0.0044609443	 0.004186
C	 0.690253223	-0.5511728764	-1.2701658054	-0.083705
O	 0.7088934888	-1.9677205213	-1.2605623742	-0.246844
C	 1.4665258789	-2.4858734453	-0.1809547526	-0.079185
C	 0.8858533502	-2.0577293729	 1.1680274464	-0.227518
C	 0.7841729279	-0.5148420026	 1.2510653212	-0.161812
C	 2.1171626835	 0.0841558491	 1.3953374019	 0.283505
N	 3.169184043	 0.550928828	 1.5076162754	-0.340145
H	 0.9661840263	 2.0029680102	-0.1164939038	 0.144936
H	-0.6109652621	 1.8884706939	-0.9144962266	 0.121215
H	-0.5136659884	 1.953067071	 0.8501480583	 0.12003
H	-0.9719915232	-0.3799867793	 0.0536692679	 0.090421
H	 0.1175265853	-0.2576989536	-2.1548635745	 0.111397
H	 1.7137769996	-0.1540110936	-1.3823126169	 0.106769
H	 1.4448968641	-3.5743021222	-0.2826581469	 0.113521
H	 2.5162253087	-2.1574959601	-0.2589224696	 0.111136
H	-0.1236383644	-2.4692449394	 1.2732223504	 0.114169
H	 1.4963862414	-2.4495458087	 1.9874070815	 0.117889
H	 0.2158199436	-0.2340757124	 2.1460182419	 0.121512
101.4618	145.2171	172.6012	217.3731	268.0008	295.0635	355.607	392.1009	431.7369	445.2566	555.2318	619.406	635.7897	792.9997	843.8978	870.5485	908.2062	936.0592	978.4946	1004.7261	1040.2378	1074.8886	1110.7708	1125.5707	1144.4135	1170.1828	1228.2186	1244.6776	1286.7478	1314.3692	1329.2389	1341.0036	1360.44	1387.9607	1396.4058	1415.1269	1430.8393	1476.1907	1490.9892	1497.436	1501.0292	1505.375	2348.959	2965.2949	2977.9392	3028.1428	3035.3272	3037.157	3050.0254	3083.988	3092.0623	3097.8852	3104.3259	3111.0282
CC1COCCC1C#N	C[C@H]1COCC[C@H]1C#N	
InChI=1S/C7H11NO/c1-6-5-9-3-2-7(6)4-8/h6-7H,2-3,5H2,1H3	InChI=1S/C7H11NO/c1-6-5-9-3-2-7(6)4-8/h6-7H,2-3,5H2,1H3/t6-,7-/m0/s1
