19
gdb 68030	2.56218	1.77634	1.32643	1.8926	74.	-0.2419	0.073	0.3149	999.7825	0.159704	-422.982557	-422.974961	-422.974017	-423.013786	32.275	
O	-0.111301286	 1.3839429322	 0.0488647398	-0.486747
C	 0.046662093	 0.0013273221	 0.0598538863	 0.411056
C	 0.9192280541	-0.790760617	-0.9848407841	-0.347716
C	 0.7464614208	-1.9093454687	 0.1101929578	 0.411058
O	 1.518479756	-3.0658755011	 0.1660876364	-0.486747
C	 0.84787418	-0.7605232375	 1.1551321496	-0.380041
C	-0.7609222714	-2.1880040963	-0.0138385302	-0.060049
C	-1.715965116	-1.7023803169	 1.0476049429	-0.318725
C	-1.2821173356	-0.7649783126	-0.0513283264	-0.060048
H	 0.7605074791	 1.7908287551	 0.0765268912	 0.278047
H	 0.4913937119	-0.9735075597	-1.9736196924	 0.095799
H	 1.9466831441	-0.4165655957	-1.0651696824	 0.072821
H	 2.4463370021	-2.8120459575	 0.1980786901	 0.278047
H	 1.8735998342	-0.3831124809	 1.2206943222	 0.077213
H	 0.4387869315	-0.8839502328	 2.1574194623	 0.102558
H	-1.0669997976	-2.9472508519	-0.7240185389	 0.093073
H	-2.7309985428	-2.0765922172	 0.954699125	 0.111239
H	-1.4073879511	-1.5622657252	 2.0760497736	 0.116091
H	-1.9938360562	-0.4166945485	-0.7906859028	 0.093072
242.5206	250.8765	275.0369	278.5674	327.9743	393.3101	410.7507	483.4656	546.4364	562.8463	578.7684	600.4598	661.2462	799.8799	817.6016	828.2025	842.7633	941.4891	944.5666	974.6218	992.7412	1003.5072	1027.7665	1069.1428	1082.9598	1104.7423	1105.3318	1130.7152	1134.9072	1151.3233	1154.747	1195.018	1261.2059	1282.5936	1304.3443	1364.9069	1394.1441	1401.4125	1471.0226	1495.0416	1535.9962	3032.643	3056.9415	3110.7203	3127.1093	3138.5828	3176.5597	3184.6045	3214.1309	3817.2684	3818.2632
OC12CC(O)(C1)C1CC21	O[C@@]12C[C@@](O)(C1)[C@H]1C[C@@H]21	
InChI=1S/C7H10O2/c8-6-2-7(9,3-6)5-1-4(5)6/h4-5,8-9H,1-3H2	InChI=1S/C7H10O2/c8-6-2-7(9,3-6)5-1-4(5)6/h4-5,8-9H,1-3H2/t4-,5+,6-,7+
