23
gdb 94694	2.94897	1.41291	1.27577	1.5851	84.49	-0.2329	0.0799	0.3128	1140.5864	0.207071	-388.302447	-388.293884	-388.29294	-388.334859	34.761	
C	-0.2579779826	 1.5328082466	 0.1235529574	-0.394111
C	 0.0124971117	 0.029050415	 0.0000811161	 0.031834
C	 0.8197642536	-0.344178439	-1.2772161613	-0.23973
C	 2.3453974166	-0.4516713512	-1.0197993078	-0.226156
C	 2.6170660856	-0.873491171	 0.430696863	 0.415454
C	 4.0660847972	-1.1681807944	 0.7421593308	-0.468862
C	 1.5054474487	-1.8165923903	 0.9569886301	-0.3065
C	 0.7842234463	-0.482488699	 1.2239684573	 0.096894
O	 2.071580754	 0.1957313343	 1.2739688571	-0.327223
H	 0.6824035534	 2.0850937208	 0.2002567048	 0.132851
H	-0.8110831589	 1.904113336	-0.744986088	 0.10568
H	-0.8501131288	 1.7562731714	 1.0182420543	 0.106325
H	-0.9518884651	-0.495683434	-0.0358067617	 0.064345
H	 0.4622129075	-1.3106166896	-1.6472289891	 0.098287
H	 0.6181919439	 0.374082236	-2.0781583938	 0.094485
H	 2.7952529347	-1.1607082464	-1.725036033	 0.089067
H	 2.8427349668	 0.5127230249	-1.1718467986	 0.105943
H	 4.699852162	-0.3158117689	 0.4743971066	 0.123004
H	 4.1953003745	-1.3686092831	 1.8094101534	 0.120004
H	 4.4122245986	-2.0400782781	 0.1769257511	 0.115624
H	 1.0525356463	-2.5382952596	 0.273802616	 0.094949
H	 1.8073460539	-2.3114245084	 1.8820679991	 0.101151
H	 0.2254945203	-0.3612247321	 2.1573281962	 0.066685
129.9982	188.194	202.216	232.2223	280.6709	316.7704	371.6537	393.1288	430.8713	462.9517	515.1182	639.0716	698.7866	749.5995	796.6318	850.6283	869.8833	906.4296	923.5566	924.9546	963.2541	994.9099	1005.7551	1010.5522	1049.3658	1064.6986	1088.3577	1144.8049	1156.8923	1207.4994	1227.0716	1237.4482	1256.2571	1272.7517	1299.4627	1320.8195	1352.4292	1358.6404	1367.214	1386.6435	1405.1864	1407.075	1473.8361	1482.0926	1485.0104	1493.0884	1495.5603	1507.4932	1509.5764	3008.1394	3027.6767	3032.0588	3034.3924	3044.4889	3056.6661	3065.4354	3071.8052	3083.8735	3095.0008	3102.245	3115.1162	3121.3774	3128.2465
CC1CCC2(C)CC1O2	C[C@H]1CC[C@]2(C)C[C@H]1O2	
InChI=1S/C8H14O/c1-6-3-4-8(2)5-7(6)9-8/h6-7H,3-5H2,1-2H3	InChI=1S/C8H14O/c1-6-3-4-8(2)5-7(6)9-8/h6-7H,3-5H2,1-2H3/t6-,7+,8+/m0/s1
