18
gdb 67785	2.72037	2.36383	1.6298	1.7689	77.25	-0.2386	0.0044	0.243	866.9424	0.149893	-364.757331	-364.75088	-364.749936	-364.78759	27.612	
C	 0.002084883	 1.4731358104	 0.0343115263	-0.502807
C	 0.0058967479	-0.0399333305	-0.0624695722	 0.309385
C	 0.3480810945	-0.6773478173	-1.3917431473	-0.143448
C	-0.1437099624	-1.9223122018	-1.424403798	-0.098546
C	-0.8337990666	-2.1980288335	-0.1117947938	-0.098007
C	 0.1072744475	-2.156804616	 1.1261200832	-0.055925
C	 0.6519589624	-0.7759569808	 1.152426457	-0.090267
N	-0.6517703141	-1.0727231829	 1.8306029555	-0.182978
C	-1.2555513706	-0.8089728952	 0.4304785507	-0.039983
H	 1.0030963328	 1.8836350125	-0.1401684068	 0.116478
H	-0.6725497074	 1.9118304117	-0.7086881398	 0.118329
H	-0.3241565097	 1.7990663982	 1.0271282755	 0.1318
H	 0.9525416791	-0.2007326732	-2.1552400931	 0.096942
H	-0.0123128685	-2.6480783733	-2.2178688949	 0.100861
H	-1.5748327447	-2.9956639086	-0.0777851969	 0.075868
H	 0.5477379374	-2.988378236	 1.6637713522	 0.095162
H	 1.5338673247	-0.4850983241	 1.7126240081	 0.090318
H	-2.2639545456	-0.4072141295	 0.3278496143	 0.076819
229.0105	257.9455	266.8987	379.326	435.411	537.3378	618.243	679.1439	734.3465	746.0616	794.6415	802.6854	841.7137	850.5048	884.3988	916.9446	931.711	942.0989	953.91	961.4457	993.3011	1025.86	1040.4296	1086.8108	1133.3689	1138.6342	1167.6582	1188.3645	1219.7598	1223.9965	1234.8566	1287.6729	1295.5975	1357.7862	1375.0876	1413.3766	1494.5769	1495.8364	1637.8963	3027.8528	3091.5732	3104.0305	3113.0899	3125.3494	3171.4755	3186.5891	3187.0218	3213.6545
CC12C=CC3C4C1N4C23	C[C@@]12C=C[C@H]3[C@H]4[C@@H]1N4[C@@H]23	
InChI=1S/C8H9N/c1-8-3-2-4-5-7(8)9(5)6(4)8/h2-7H,1H3	InChI=1S/C8H9N/c1-8-3-2-4-5-7(8)9(5)6(4)8/h2-7H,1H3/t4-,5-,6+,7-,8-,9?/m0/s1
