16
gdb 46758	2.92776	1.80617	1.4254	5.5905	66.86	-0.2388	0.0172	0.256	916.8082	0.126971	-437.873095	-437.866435	-437.865491	-437.904317	26.241	
O	-0.0216978465	 0.0397250379	 0.3570767519	-0.350741
C	 0.001181469	 1.1933204188	 0.0381041483	 0.458555
O	-1.1155717158	 1.8611292004	-0.3550198686	-0.222702
C	-0.8764285359	 3.2447057101	-0.6756654014	-0.08908
C	 0.6272494607	 3.5027500371	-0.4805511645	-0.061596
C	 1.0981797404	 4.1023215875	 0.8638780984	-0.063793
N	 0.4008101119	 3.3348851895	 1.9203710112	-0.327754
C	 1.6305002949	 2.7859188984	 1.3055664579	-0.043878
C	 1.1955786213	 2.1312037506	-0.0247277945	-0.189693
H	-1.1989578565	 3.4023125007	-1.7090347765	 0.114204
H	-1.4920737242	 3.8528943555	-0.0085144709	 0.128855
H	 1.1125876139	 3.9443765875	-1.3503883547	 0.090511
H	 1.4644916456	 5.1046726921	 1.0460018674	 0.102391
H	 0.661059958	 3.7355708667	 2.8200547748	 0.238588
H	 2.4936178802	 2.5314979192	 1.9060750206	 0.106827
H	 2.0133373431	 1.7086827579	-0.6072921793	 0.109308
113.3101	157.6465	233.5959	346.4761	479.5799	540.0149	628.5596	677.8723	722.0985	731.6741	810.6522	833.5951	847.1506	902.2831	924.662	948.1833	974.8475	1011.7028	1021.1833	1063.3907	1080.9636	1098.8924	1115.5459	1175.0915	1180.2965	1218.8112	1228.79	1249.6097	1296.6382	1310.033	1344.025	1373.2353	1407.593	1509.362	1876.1972	3055.1142	3104.3726	3117.8977	3129.2997	3192.561	3209.9096	3491.0328
O=C1OCC2C3NC3C12	O=C1OC[C@H]2[C@H]3N[C@H]3[C@@H]12	
InChI=1S/C6H7NO2/c8-6-3-2(1-9-6)4-5(3)7-4/h2-5,7H,1H2	InChI=1S/C6H7NO2/c8-6-3-2(1-9-6)4-5(3)7-4/h2-5,7H,1H2/t2-,3+,4-,5+/m1/s1
