16
gdb 84213	4.07895	1.6639	1.49278	1.9053	73.94	-0.2209	-0.0579	0.163	879.4498	0.124942	-400.592554	-400.586002	-400.585058	-400.623148	27.089	
O	 0.1156380317	 1.476218725	-0.2096892979	-0.425435
C	 0.0910389156	 0.074998445	-0.0138455116	 0.100203
C	 0.6710684486	-0.5765173616	 1.2610785516	-0.192167
C	-0.4021961323	-1.0261539521	 1.9385713468	 0.088615
C	-1.1011176319	-2.3320499411	 1.7164571732	-0.085958
C	-2.4206249899	-1.7092561748	 1.5166882009	-0.044085
C	-1.7421497847	-0.3207219418	 1.5460435241	-0.145577
C	-1.3757161231	-0.4699467458	 0.0750479728	 0.010243
N	-1.6422363809	-2.0033845267	 0.2698071271	-0.184664
H	-0.2042203584	 1.8922872537	 0.5974632564	 0.28318
H	 0.6498349965	-0.343911803	-0.8591247049	 0.109735
H	 1.6237729202	-1.0942703773	 1.223932416	 0.106234
H	-0.8036566835	-3.3628195974	 1.8546862503	 0.113631
H	-3.4324642943	-2.0523420299	 1.6865014116	 0.102167
H	-2.0751668292	 0.5841234837	 2.0520973287	 0.076999
H	-2.0445342445	-0.1286447958	-0.7178779453	 0.086878
137.3742	236.3674	309.4641	361.6026	441.89	553.0083	580.3798	633.4067	727.8004	750.7714	788.7458	810.4133	835.6178	851.4851	872.6537	912.5665	925.9121	947.3356	976.1864	1012.2329	1043.4938	1048.3145	1077.1119	1128.2701	1140.1003	1198.7663	1204.6878	1219.3274	1250.2281	1264.4587	1273.4037	1310.1376	1330.1796	1410.8954	1593.0966	3050.4648	3098.6419	3121.3682	3180.2991	3200.8006	3217.0736	3816.7507
OC1C=C2C3C4C2C1N34	O[C@H]1[CH][C]2[C@H]3[C@H]4[C@@H]2[C@@H]1N34	
InChI=1S/C7H7NO/c9-3-1-2-4-6(3)8-5(2)7(4)8/h1,3-7,9H	InChI=1S/C7H7NO/c9-3-1-2-4-6(3)8-5(2)7(4)8/h1,3-7,9H/t3-,4-,5-,6+,7+,8?/m0/s1
