20
gdb 63233	2.5325	1.65244	1.36913	1.8564	78.93	-0.2426	0.0278	0.2703	1044.0546	0.171266	-403.153201	-403.144859	-403.143914	-403.185721	33.068	
C	 0.1760063677	 1.454206826	-0.0721909049	-0.390153
C	-0.0530512943	-0.0632458901	-0.0009219593	 0.240278
C	-1.5641488842	-0.3552546751	 0.1001287911	-0.396395
N	 0.3989205637	-0.6366990158	-1.2765190712	-0.287786
C	 1.0980189867	-1.6866144456	-1.3078629944	 0.1099
O	 1.6092207887	-2.4293974496	-0.2933626743	-0.225862
C	 1.4504974009	-1.9185730851	 1.0123273806	 0.104254
C	 2.1529186552	-0.6380066499	 1.3647597473	-0.342448
C	 0.644344093	-0.6726240475	 1.2164466716	-0.068311
H	 1.2392683515	 1.6837461671	-0.1840677333	 0.11304
H	-0.3537536633	 1.8720860276	-0.932655519	 0.121682
H	-0.1857524368	 1.9438146155	 0.8382356454	 0.104731
H	-2.0723689325	-0.0067522184	-0.8024314782	 0.125745
H	-1.7465106539	-1.4295965238	 0.2010213793	 0.114929
H	-2.0007554395	 0.1531260649	 0.9662464747	 0.107875
H	 1.3867618622	-2.1329720767	-2.257917301	 0.122747
H	 1.4098533416	-2.7365984614	 1.7212746585	 0.108775
H	 2.5779853649	-0.5344591326	 2.3567549214	 0.118062
H	 2.7292980918	-0.1690006826	 0.5737545742	 0.130339
H	 0.0734898665	-0.6165179269	 2.1388011912	 0.088599
74.4379	203.7071	222.3606	263.6616	300.8859	319.2299	364.731	374.4509	447.0833	540.0276	579.6109	600.2265	688.7167	782.8863	825.3687	846.6243	871.8449	934.1497	957.2671	963.8116	984.3187	1004.802	1040.4306	1054.5063	1062.2647	1115.2372	1124.0002	1171.3508	1198.2843	1220.9515	1236.7665	1272.1012	1364.8916	1392.7302	1393.4024	1414.5032	1425.6368	1474.8276	1480.2633	1484.7987	1495.4979	1506.0949	1730.4555	3033.8202	3038.5212	3104.8197	3109.6886	3118.8517	3124.0084	3133.7155	3144.3106	3154.8941	3183.0203	3222.3402
CC1(C)N=COC2CC12	CC1(C)N=CO[C@H]2C[C@@H]12	
InChI=1S/C7H11NO/c1-7(2)5-3-6(5)9-4-8-7/h4-6H,3H2,1-2H3	InChI=1S/C7H11NO/c1-7(2)5-3-6(5)9-4-8-7/h4-6H,3H2,1-2H3/t5-,6+/m1/s1
