21
gdb 63591	2.94495	1.24811	1.08785	2.7832	78.75	-0.2435	0.0699	0.3134	1206.6222	0.182076	-424.216018	-424.206962	-424.206018	-424.249652	34.896	
C	-0.1268294813	 1.53558609	 0.0422201574	-0.447761
C	 0.003119758	 0.0294177589	 0.0494168028	 0.352339
O	-1.1640699033	-0.640469187	-0.359793086	-0.460945
C	 1.3242304377	-0.6315308006	-0.2764107093	-0.417078
C	 0.7662289335	-0.6853916491	 1.1315572023	 0.291562
C	 1.4127399008	 0.043700364	 2.3135257313	-0.312381
C	 1.4766393105	-1.0664566622	 3.3759916115	-0.079443
O	 0.343339169	-1.8798264202	 3.1225814467	-0.243951
C	 0.2498401603	-2.0111884762	 1.7107985864	-0.148093
H	 0.789736811	 2.0226221251	 0.3854153197	 0.119839
H	-0.3343478985	 1.8984953024	-0.9720191087	 0.107502
H	-0.9519724147	 1.854363227	 0.6876383216	 0.1283
H	-1.2814035365	-0.483044714	-1.3031184947	 0.281656
H	 1.283782411	-1.5476608497	-0.8590780033	 0.108869
H	 2.1907938559	-0.0054150147	-0.4693115013	 0.105341
H	 2.3972153354	 0.4582209341	 2.0788472317	 0.099321
H	 0.7756271625	 0.8616039157	 2.6656937425	 0.110133
H	 2.4080213329	-1.6487178721	 3.2712663278	 0.085725
H	 1.4107481141	-0.7025238416	 4.4044322978	 0.106638
H	-0.7901033131	-2.2153060975	 1.4514490897	 0.129854
H	 0.872350815	-2.8513034124	 1.360785384	 0.082572
57.9627	155.4825	184.0314	222.9895	259.8948	271.1084	295.6217	389.3502	411.9723	449.9566	458.044	560.8142	638.6968	714.6873	774.5233	869.1329	898.6747	906.6397	922.4154	955.9719	969.5727	981.0225	1040.8124	1058.833	1082.1941	1099.2262	1131.992	1161.6009	1192.8104	1219.3539	1234.6327	1271.4428	1282.604	1296.5744	1315.4998	1355.9215	1394.6785	1408.0235	1421.2537	1479.5096	1484.2055	1491.4928	1504.26	1511.5754	1525.4324	2957.3494	2964.0353	3025.4907	3045.1878	3087.4314	3089.6744	3098.6584	3110.7479	3116.7482	3117.8331	3200.4718	3795.8815
CC1(O)CC11CCOC1	C[C@@]1(O)C[C@]21CCOC2	
InChI=1S/C7H12O2/c1-6(8)4-7(6)2-3-9-5-7/h8H,2-5H2,1H3	InChI=1S/C7H12O2/c1-6(8)4-7(6)2-3-9-5-7/h8H,2-5H2,1H3/t6-,7-/m1/s1
