13
gdb 20351	5.30559	2.29776	1.61939	3.2853	64.51	-0.2371	-0.0284	0.2087	729.7763	0.099499	-357.672327	-357.666914	-357.66597	-357.701719	21.142	
C	-0.0545131239	 1.5031443711	 0.010648081	-0.415725
C	 1.4328258204	 1.8388844999	-0.0017665418	-0.122658
C	 2.1623253609	 0.7145211709	-0.0149035836	-0.017218
N	 1.2816110802	-0.3819751247	-0.0124920626	 0.060904
N	 1.3911743342	-1.7255127276	-0.0208885363	-0.276364
C	 0.1065278932	-2.077645681	-0.0107111396	 0.01949
N	-0.8033881693	-1.0523159484	 0.003794253	-0.365111
C	-0.0150651505	 0.0037759173	 0.002028671	 0.398271
H	-0.5620509058	 1.9005572414	 0.8972912565	 0.156966
H	-0.578912568	 1.9102198224	-0.8616841524	 0.156964
H	 1.8249958115	 2.8443038507	 3.324*^-6	 0.124303
H	 3.229198421	 0.5563836207	-0.0259689969	 0.15293
H	-0.1874845738	-3.1165491827	-0.0136202723	 0.127247
183.8909	269.4111	443.5153	462.0626	671.118	680.348	687.9221	727.9551	744.4129	887.5919	893.3451	913.203	935.1518	942.2598	989.262	1083.2461	1140.8822	1170.2338	1192.699	1251.7497	1275.1279	1295.8958	1392.3398	1418.1559	1437.8249	1447.8968	1575.4379	1641.8641	3047.6636	3078.1116	3253.0155	3262.6459	3278.6108
C1C=CN2N=CN=C12	C1C=Cn2ncnc12	
InChI=1S/C5H5N3/c1-2-5-6-4-7-8(5)3-1/h1,3-4H,2H2	InChI=1S/C5H5N3/c1-2-5-6-4-7-8(5)3-1/h1,3-4H,2H2
