22
gdb 96521	2.31081	1.5424	1.02799	3.722	82.86	-0.2295	0.0363	0.2658	1224.7855	0.196667	-404.399821	-404.390852	-404.389908	-404.4335	34.097	
C	-0.0258540809	 1.4658488894	 0.0351359943	-0.350426
N	 0.0144925575	 0.0110667152	 0.0167945578	-0.069543
C	-1.2630952347	-0.6929176748	-0.0698158091	-0.173922
C	-1.5125086306	-1.4137255228	-1.4049142981	-0.183749
C	-0.790530514	-2.7608403985	-1.5294227143	-0.186853
C	 0.7352233656	-2.6996255009	-1.3860243912	-0.192115
C	 1.2301044726	-2.1419794176	-0.0352121628	-0.304908
C	 1.234078838	-0.6178899273	 0.0471129195	 0.388281
O	 2.2861589751	-0.0005753895	 0.1150691727	-0.383703
H	 0.999960356	 1.8296260586	 0.0629195089	 0.169422
H	-0.5263638821	 1.8559708374	-0.8598262571	 0.117044
H	-0.5649700563	 1.8320708417	 0.9176700211	 0.11891
H	-1.3646290093	-1.4052566396	 0.7603384988	 0.110084
H	-2.0393832056	 0.0611745926	 0.0826792514	 0.110316
H	-2.5914010646	-1.5832955688	-1.5066902272	 0.096996
H	-1.220538211	-0.7441437368	-2.2238392151	 0.103578
H	-1.1869258317	-3.4400719085	-0.7611336409	 0.094754
H	-1.0425640447	-3.2144131609	-2.4950912829	 0.097344
H	 1.133228013	-3.7136215004	-1.5045022899	 0.101568
H	 1.1687456186	-2.1044251936	-2.1996975317	 0.108387
H	 0.6384525953	-2.5729550603	 0.7830095413	 0.104431
H	 2.2696298838	-2.4301762146	 0.1285941743	 0.124104
88.3845	98.9256	149.34	200.8749	251.0317	315.8129	331.4181	385.2378	406.4302	473.5473	491.4115	576.1989	686.077	722.9346	815.2792	849.3528	859.2293	890.5876	957.184	988.5741	1018.791	1027.929	1092.896	1103.7398	1124.2906	1156.4172	1178.5452	1225.0929	1244.7432	1281.3142	1286.4998	1318.2603	1349.4156	1369.6006	1386.6188	1390.6907	1396.8752	1421.6696	1453.4679	1476.312	1476.8351	1485.814	1495.642	1502.5079	1505.9824	1525.1994	1753.9632	3006.5835	3009.8212	3014.5937	3022.936	3024.6768	3029.988	3058.3656	3060.4531	3065.0022	3071.0925	3090.1851	3118.075	3168.0439
CN1CCCCCC1=O	CN1CCCCCC1=O	
InChI=1S/C7H13NO/c1-8-6-4-2-3-5-7(8)9/h2-6H2,1H3	InChI=1S/C7H13NO/c1-8-6-4-2-3-5-7(8)9/h2-6H2,1H3
