14
gdb 49364	1.7134	1.4638	0.97903	3.3624	69.16	-0.2743	-0.0643	0.21	1200.0614	0.098547	-436.694632	-436.685934	-436.68499	-436.728968	29.923	
O	 0.0180196609	-0.0555885132	 0.3883447363	-0.243494
C	-0.0207626497	 1.0982836641	 0.0490375222	 0.157746
C	 1.2100044623	 1.9418179261	-0.0387602996	-0.1396
C	 1.4598544547	 2.8958066192	-1.214286406	-0.139605
C	 0.4870718869	 3.0371511923	-2.3402480909	 0.157719
O	 0.8420597036	 3.0898465258	-3.4888394798	-0.243492
C	 1.147755127	 3.446385165	 0.1675831602	-0.202856
C	-0.1149354686	 4.091521809	 0.4227930724	 0.296226
N	-1.1218306436	 4.6186244908	 0.6362434989	-0.319668
H	-0.9773105109	 1.5999926537	-0.2020963508	 0.111856
H	 2.0933588343	 1.4429781006	 0.344388461	 0.144421
H	 2.492966569	 2.9686695196	-1.5357372101	 0.144426
H	-0.5829616689	 3.1059475359	-2.0572954493	 0.111871
H	 1.9794980232	 3.890035941	 0.7044105253	 0.164449
68.0135	87.9171	136.4698	137.4733	222.5578	289.2266	334.8493	373.2652	456.7719	466.8926	573.1568	632.5192	788.534	849.959	911.4989	934.5111	951.669	1039.0695	1047.3678	1124.4394	1127.2814	1149.6655	1221.4181	1324.1621	1333.4323	1369.4198	1429.1796	1460.3459	1820.0711	1828.9095	2357.2448	2921.1142	2940.1443	3173.6339	3182.6998	3192.2806
O=CC1C(C=O)C1C#N	O=C[C@H]1[C@@H](C=O)[C@H]1C#N	
InChI=1S/C6H5NO2/c7-1-4-5(2-8)6(4)3-9/h2-6H	InChI=1S/C6H5NO2/c7-1-4-5(2-8)6(4)3-9/h2-6H/t4-,5+,6-
