17
gdb 37612	3.11754	2.57809	2.33285	0.4472	72.43	-0.1989	0.0624	0.2613	719.1234	0.140953	-380.781242	-380.776324	-380.77538	-380.810166	22.549	
C	-0.0240353573	 1.5688455462	-0.0316974752	-0.236465
C	 1.4878953815	 1.7326322576	-0.005314579	-0.00197
C	 2.0467915261	 0.7240432131	-1.0273315046	-0.030479
C	 2.8548395923	 0.0664021827	 0.1127888141	-0.010064
C	 1.8446631655	-1.0856109672	 0.1354174416	-0.010065
C	 1.0053613237	-0.3008441085	 1.1674163194	-0.030481
C	 0.0115108612	 0.0501177843	 0.0434844768	-0.00197
N	 1.0346632072	-0.4274163311	-0.9857237743	-0.174306
N	 2.0161421949	 0.8517952592	 1.1257153144	-0.174305
H	-0.5220506143	 2.0236657906	 0.8305152723	 0.113885
H	-0.4742774197	 1.9443002014	-0.9561471188	 0.113885
H	 1.9018367615	 2.7414920513	 0.0176278712	 0.07669
H	 2.3922331816	 0.9999504898	-2.0254793276	 0.070618
H	 3.9367862184	 0.0310981428	 0.2383635039	 0.073859
H	 2.0288077979	-2.1588818279	 0.0929419634	 0.073859
H	 0.7032327297	-0.6146706257	 2.1684084463	 0.070618
H	-0.9308386406	-0.4960775586	-0.0141390538	 0.076691
377.2606	547.3894	558.1128	639.7331	716.455	753.0248	787.331	820.3625	833.7493	850.3544	859.9401	883.0591	884.9577	921.8223	926.1515	944.564	973.8819	996.2534	997.1725	1025.6939	1026.1143	1046.9734	1124.7754	1168.0948	1180.3412	1184.9566	1210.0995	1230.7117	1236.5127	1243.7834	1261.1271	1262.2206	1271.97	1280.9174	1304.1186	1319.3376	1466.2704	3052.2009	3078.9467	3081.2421	3102.0139	3106.0257	3107.5832	3108.5501	3119.2134
C1C2C3C4C5C(C1N35)N24	C1[C@@H]2[C@H]3[C@@H]4[C@H]5[C@H]([C@@H]1N35)N24	
InChI=1S/C7H8N2/c1-2-4-6-7-5(8(2)6)3(1)9(4)7/h2-7H,1H2	InChI=1S/C7H8N2/c1-2-4-6-7-5(8(2)6)3(1)9(4)7/h2-7H,1H2/t2-,3-,4+,5+,6-,7-/m1/s1
