21
gdb 86201	2.42767	1.45313	1.21451	1.3963	73.22	-0.2582	0.059	0.3172	1130.9181	0.183967	-461.378538	-461.369694	-461.36875	-461.411734	34.998	
C	-0.0829366984	 1.5431479004	 0.0154037558	-0.400412
C	 0.0096756757	 0.0220619667	 0.1233973265	 0.005112
C	 0.4065354575	-0.7006540178	-1.2011684721	-0.245048
C	 1.4104001459	-1.8034817548	-0.8213499384	 0.084387
O	 2.7290000008	-1.3417355576	-1.1370469679	-0.445808
C	 1.2958644345	-1.9382858591	 0.7197074163	 0.091194
O	 2.4725270409	-2.4791768265	 1.2922610807	-0.458726
C	 1.0233892166	-0.4878141943	 1.1679023334	 0.074641
O	 2.2576227094	 0.2288979263	 1.1992852212	-0.455048
H	 0.8868607341	 1.9760311702	-0.2452614992	 0.123394
H	-0.8049400589	 1.8340516893	-0.7544088658	 0.112115
H	-0.4012829075	 1.9907712202	 0.9624593358	 0.115366
H	-0.9686683438	-0.36196008	 0.4404323921	 0.07651
H	-0.4710825784	-1.1143653917	-1.7042200845	 0.104514
H	 0.8891484903	-0.0195420701	-1.9084722192	 0.118687
H	 1.2207916651	-2.7525138998	-1.3383786817	 0.071816
H	 3.3178903629	-1.9286696341	-0.6398309023	 0.285424
H	 0.4477416626	-2.5840322891	 0.978298483	 0.081992
H	 2.9398300395	-1.71698571	 1.666329721	 0.291151
H	 0.629549425	-0.4281263393	 2.1866450874	 0.082624
H	 2.6567298261	 0.1260557712	 0.319710438	 0.286116
67.2921	169.6589	216.1494	234.3408	284.8878	296.0315	327.9966	392.6151	453.3966	490.6267	503.609	562.2979	594.8398	656.8211	769.941	808.283	821.7008	852.4589	886.2326	915.0161	967.4688	992.7689	1010.0746	1045.991	1071.1515	1119.4996	1154.8905	1163.7096	1193.5936	1237.6544	1260.7867	1272.8027	1293.3471	1318.2902	1350.6638	1353.8357	1357.9503	1378.918	1411.844	1413.9873	1437.7352	1471.8225	1487.5726	1493.3798	1498.9542	3014.3695	3018.1683	3036.6739	3039.3157	3062.2903	3075.0769	3101.7624	3105.5817	3115.7817	3673.0728	3715.4692	3731.6375
CC1CC(O)C(O)C1O	C[C@H]1C[C@@H](O)[C@@H](O)[C@H]1O	
InChI=1S/C6H12O3/c1-3-2-4(7)6(9)5(3)8/h3-9H,2H2,1H3	InChI=1S/C6H12O3/c1-3-2-4(7)6(9)5(3)8/h3-9H,2H2,1H3/t3-,4+,5-,6+/m0/s1
