19
gdb 58547	2.13565	1.45316	1.40736	1.1628	71.93	-0.2482	0.0177	0.266	1082.8058	0.158947	-456.334249	-456.324842	-456.323898	-456.368088	35.418	
C	 0.009877965	 1.6099759402	 0.0017659263	-0.442471
C	 0.0013237609	 0.080906129	-0.0195977298	 0.095658
O	 0.7743017376	-0.4581363496	 1.0460898688	-0.436093
C	-1.4191292978	-0.5181136462	 0.0042556174	 0.156412
N	-2.2196032115	-0.0063508009	-1.0965595896	-0.568592
C	-1.4713300978	-2.0578721029	 0.152681813	-0.118027
O	-2.0980078173	-1.9212042722	 1.471535444	-0.253373
C	-2.0454859381	-0.5520058683	 1.4049787755	 0.374242
N	-2.3936746936	 0.3263471736	 2.2342541054	-0.55964
H	 1.0425795258	 1.962210731	 0.0691200206	 0.128015
H	-0.4282139136	 2.0262657411	-0.909823836	 0.124711
H	-0.5488681217	 1.9889860561	 0.8645796775	 0.145978
H	 0.4850445623	-0.2742552675	-0.9366005682	 0.100326
H	 0.4620240605	-0.0527457242	 1.8643267738	 0.290557
H	-3.1315960913	-0.4550783761	-1.1035350193	 0.234997
H	-2.397973125	 0.9840260939	-0.9572402671	 0.244711
H	-2.1322548846	-2.5770958314	-0.5455567853	 0.114631
H	-0.5061317592	-2.5576303487	 0.2372841375	 0.139889
H	-2.7887950805	-0.0886481169	 3.0808185755	 0.228069
80.629	122.0171	146.8294	233.7103	239.9951	268.5342	300.6552	354.0335	386.5709	398.2173	455.8416	465.642	544.197	674.7749	724.7059	761.8749	854.3138	874.4698	903.4261	934.6451	969.6766	986.4976	1018.9131	1037.1918	1081.6091	1111.2812	1155.4352	1164.1068	1244.6229	1254.1056	1301.9359	1316.1626	1370.6311	1383.3474	1402.3388	1419.8746	1500.3665	1502.0656	1504.463	1662.8268	1804.7909	3039.0994	3052.2154	3072.3868	3115.925	3121.7151	3147.1723	3462.4656	3490.9864	3565.984	3784.4263
CC(O)C1(N)COC1=N	C[C@@H](O)[C@@]1(N)CO[C]1[NH]	
InChI=1S/C5H10N2O2/c1-3(8)5(7)2-9-4(5)6/h3,6,8H,2,7H2,1H3	InChI=1S/C5H10N2O2/c1-3(8)5(7)2-9-4(5)6/h3,6,8H,2,7H2,1H3/t3-,5+/m1/s1
