17
gdb 61786	2.12193	1.27741	0.83828	6.4928	70.22	-0.2748	-0.0021	0.2728	1328.1578	0.13381	-455.16838	-455.158361	-455.157417	-455.204159	34.726	
C	-0.0167132583	 1.6821125548	-0.115999457	-0.410969
C	 0.0467805203	 0.1628586677	-0.0355783566	 0.089753
O	 0.7647197198	-0.1853902641	 1.1533176911	-0.189906
C	 1.8118350023	-1.0415951356	 1.0640137996	 0.17734
O	 2.4618715898	-1.351255837	 2.0124615608	-0.262719
C	-1.3620431887	-0.4973838201	 0.0508701303	-0.128578
N	-2.3041375176	-0.1624729252	-1.010171666	-0.503655
C	-1.1977392037	-1.9600905536	 0.0984932355	 0.302811
N	-1.0228930982	-3.1018347337	 0.1019352295	-0.313974
H	 0.9951785369	 2.0940202994	-0.1234201336	 0.143492
H	-0.5230290473	 2.0077866717	-1.0280337015	 0.1216
H	-0.5446907412	 2.092663727	 0.7503793857	 0.140717
H	 0.5695044208	-0.2425326459	-0.9134014146	 0.099447
H	 1.9873204408	-1.3974358098	 0.0315962196	 0.091783
H	-1.8007896102	-0.1839351281	 1.0061588348	 0.150763
H	-2.529337327	 0.8252468456	-0.9878121461	 0.247023
H	-1.9216872585	-0.3806541131	-1.9248978416	 0.245072
50.3207	59.2041	141.7298	157.7719	203.1919	214.7303	249.4405	288.4318	329.9825	361.3744	385.571	484.0434	550.4338	595.8663	666.0928	801.0814	845.473	928.8865	962.4413	1036.1818	1089.9401	1096.9774	1127.2763	1135.2302	1171.7091	1209.3293	1289.122	1360.312	1365.1069	1399.5154	1413.3383	1434.7771	1490.4162	1493.8634	1657.5633	1874.7772	2364.4207	2965.7136	3011.4715	3048.5479	3051.2424	3124.5383	3132.2987	3510.6452	3605.3207
CC(OC=O)C(N)C#N	C[C@@H](OC=O)[C@@H](N)C#N	
InChI=1S/C5H8N2O2/c1-4(9-3-8)5(7)2-6/h3-5H,7H2,1H3	InChI=1S/C5H8N2O2/c1-4(9-3-8)5(7)2-6/h3-5H,7H2,1H3/t4-,5+/m1/s1
