14
gdb 130925	4.2909	1.21406	1.07391	4.5865	68.78	-0.2607	-0.0519	0.2088	1074.8644	0.101997	-432.826872	-432.819723	-432.818779	-432.859356	25.511	
O	-0.5243513961	 0.6491216964	-0.6380990148	-0.223253
C	 0.1936564349	 0.9213276613	 0.2866769355	 0.159677
C	 1.3787719197	 1.8624111046	 0.1967835351	-0.272091
C	 1.505835501	 2.6834576568	-1.1386459344	-0.185141
N	 1.2619406804	 3.8735335195	-0.2870694257	 0.093691
N	 1.1619742244	 5.203802001	-0.1689258946	-0.170856
N	 0.9789420559	 5.4013853481	 1.1185473798	-0.17536
C	 0.9757133489	 4.218833808	 1.8126750335	-0.216523
C	 1.1648817662	 3.2228963797	 0.8811099395	 0.306471
H	 0.025124758	 0.4988605713	 1.3009887847	 0.099425
H	 2.2889306806	 1.3413232249	 0.5115441797	 0.131061
H	 2.4910295121	 2.6810797555	-1.6062046619	 0.150137
H	 0.7170418038	 2.4897262857	-1.865050489	 0.171317
H	 0.8409847401	 4.1979179272	 2.8803537727	 0.131445
61.264	133.6723	151.4565	229.5724	332.0486	437.0993	621.5158	690.1856	695.0929	741.214	748.3755	830.1829	867.1544	951.8703	1000.17	1042.1881	1064.4509	1084.75	1107.863	1142.5734	1174.6278	1200.8315	1248.0357	1281.2081	1302.2443	1348.725	1415.1262	1471.7217	1511.2332	1531.3575	1833.8099	2902.4504	3066.3286	3095.9387	3166.4519	3288.5234
O=CC1CN2N=NC=C12	O=C[C@H]1Cn2nncc12	
InChI=1S/C5H5N3O/c9-3-4-2-8-5(4)1-6-7-8/h1,3-4H,2H2	InChI=1S/C5H5N3O/c9-3-4-2-8-5(4)1-6-7-8/h1,3-4H,2H2/t4-/m1/s1
