19
gdb 17675	4.20654	1.34582	1.29975	1.684	72.02	-0.2326	0.0554	0.288	1042.4224	0.164818	-365.018716	-365.010172	-365.009228	-365.051515	32.207	
C	 0.074602957	 1.5281559124	-0.0553919654	-0.429881
C	 0.0756118568	 0.0169490337	 0.0136971128	-0.056376
C	 1.3588265285	-0.7646478345	-0.189303517	-0.325448
C	 0.718379724	-0.7166550554	 1.1721754811	 0.364807
O	 1.4078677018	 0.0396173618	 2.139207675	-0.466805
C	 0.0720865388	-1.9605526054	 1.7152488855	-0.026243
C	 0.7309102665	-2.7479526791	 2.7832887528	-0.245191
N	-0.4996450592	-1.9793677094	 3.0706188249	-0.332354
H	 0.9832338991	 1.9450279428	 0.3883510276	 0.125383
H	 0.0255249261	 1.8712114691	-1.0940908642	 0.125297
H	-0.7879032267	 1.9542076489	 0.4709787085	 0.11548
H	-0.8248268348	-0.451826621	-0.3764393149	 0.090066
H	 1.3282491144	-1.6954091988	-0.7455702519	 0.113571
H	 2.2742307685	-0.1938153865	-0.3020603598	 0.120289
H	 0.8068243769	 0.7093251448	 2.4826609967	 0.28978
H	-0.5326073416	-2.4909211229	 0.9818930209	 0.085664
H	 0.6160356107	-3.8275301562	 2.8160282846	 0.113057
H	 1.6695422717	-2.3667349079	 3.1736936128	 0.123203
H	-0.2223854085	-1.1240358163	 3.5486503398	 0.215701
72.725	155.3144	179.337	195.6606	267.2542	291.801	336.8872	355.3031	453.9701	507.5885	563.819	705.6933	789.755	843.5739	858.1827	887.4111	924.4896	939.0926	973.5462	1013.4103	1016.4104	1049.104	1091.1983	1103.837	1131.7518	1151.5947	1179.8242	1190.0573	1239.4909	1271.0867	1283.9706	1300.4369	1346.8923	1388.7247	1413.6138	1437.4156	1484.0794	1499.5703	1501.5486	1507.0553	3027.6622	3086.7006	3107.8415	3114.8716	3122.8663	3132.3173	3136.339	3205.8806	3222.5191	3484.7764	3802.3391
CC1CC1(O)C1CN1	C[C@H]1C[C@]1(O)[C@H]1CN1	
InChI=1S/C6H11NO/c1-4-2-6(4,8)5-3-7-5/h4-5,7-8H,2-3H2,1H3	InChI=1S/C6H11NO/c1-4-2-6(4,8)5-3-7-5/h4-5,7-8H,2-3H2,1H3/t4-,5+,6+/m0/s1
