18
gdb 41251	2.99127	2.14437	1.76424	1.7516	74.36	-0.2336	0.0661	0.2997	838.2661	0.150935	-401.847001	-401.841032	-401.840088	-401.876907	25.987	
C	-0.0724672951	 1.4571481827	-0.0729774045	-0.179127
C	 1.4593149917	 1.4226966436	-0.0150088694	-0.122642
C	 1.2382512595	 0.076060894	 0.8620910482	-0.00984
C	 1.7427019274	-1.2226015277	 0.1701101303	-0.334093
C	 0.9660264614	-0.5689773491	-0.975956527	 0.28224
C	 0.5569123026	-0.5533989793	-2.446931724	-0.207961
O	 1.0341641568	 0.8253676941	-2.5535699067	-0.316175
C	 1.7824172858	 0.6761039233	-1.3098603139	 0.137756
N	-0.0438791143	-0.0419790847	 0.0503107461	-0.157227
H	-0.5427971634	 1.8634232979	 0.8262977823	 0.104551
H	-0.5420088595	 1.8612865465	-0.9713048527	 0.122013
H	 2.0743209836	 2.2648274693	 0.3034735297	 0.065938
H	 1.1528930809	 0.1809922704	 1.9445232852	 0.087411
H	 2.8083697987	-1.4048334669	 0.0240091464	 0.105696
H	 1.2509762801	-2.0814049972	 0.6315685919	 0.119798
H	 1.1217405949	-1.2249569542	-3.1054041923	 0.10866
H	-0.5152113626	-0.6356328355	-2.6506416445	 0.118799
H	 2.8505126915	 0.5508582628	-1.5134003051	 0.074204
242.764	289.4406	402.7145	425.9314	473.8035	570.2802	648.3541	712.6183	749.0439	784.6329	847.2438	876.4403	885.3047	918.8027	937.6634	950.8564	957.0562	982.5106	1009.8037	1027.3288	1035.2753	1045.2713	1077.3279	1139.7701	1155.2138	1172.2327	1173.729	1202.2095	1214.4404	1238.5407	1250.3376	1274.8758	1287.6392	1302.5128	1342.3272	1359.1328	1485.0616	1496.3834	1503.5409	3022.7331	3055.606	3066.703	3075.2615	3088.4999	3106.8617	3116.7953	3131.5712	3140.3578
C1C2C3CC4(COC24)N13	C1[C@H]2[C@@H]3C[C@@]4(CO[C@@H]24)N13	
InChI=1S/C7H9NO/c1-5-4-2-8(5)7(1)3-9-6(4)7/h4-6H,1-3H2	InChI=1S/C7H9NO/c1-5-4-2-8(5)7(1)3-9-6(4)7/h4-6H,1-3H2/t4-,5-,6-,7-/m0/s1
