15
gdb 133826	2.633	1.70035	1.32425	4.8989	80.15	-0.2137	-0.088	0.1257	986.3125	0.109664	-379.531889	-379.523751	-379.522807	-379.564437	30.408	
C	 10.3817962605	-1.3506437928	-0.1677994006	-0.488837
C	 9.1487821744	-0.5304784232	 0.1405700096	 0.212623
C	 7.7695012815	-1.2567384813	 0.1114267369	-0.259559
N	 8.2920901153	-0.721216166	 1.3537313635	-0.056576
C	 7.7596613084	 0.5142340376	 1.6826383725	-0.072431
N	 8.5660157284	 1.5029880844	 1.1206849873	-0.189768
C	 9.2018813813	 0.9318319493	 0.1222581802	-0.030575
C	 6.6094004396	-0.716269368	-0.5362814996	 0.381251
C	 5.6285827524	-0.3352320666	-1.1165137404	-0.415046
H	 10.2497671429	-2.3811123312	 0.1708238135	 0.145006
H	 11.263066908	-0.9424050141	 0.3341604301	 0.146474
H	 10.5764189382	-1.3696659094	-1.2451925796	 0.141191
H	 7.8642897755	-2.3384431564	 0.0118020027	 0.136226
H	 9.7790277441	 1.5117557758	-0.5934802796	 0.134144
H	 4.7609009595	 0.0272321019	-1.6112934166	 0.215877
115.6888	123.1072	143.4848	237.0453	269.612	324.3769	379.6295	495.1963	584.9318	588.2216	636.03	657.1302	668.2583	680.3989	810.5769	842.7672	909.791	954.9196	980.9803	1005.2485	1053.2471	1065.2459	1089.9395	1153.0609	1241.5473	1253.9099	1325.1526	1380.9376	1413.2629	1470.7777	1484.0312	1497.3489	2239.654	3043.3123	3104.2009	3111.9832	3127.2538	3175.3581	3499.3935
CC12C3N1C1=NC2C3=C1	C[C@@]12[C@@H](N1[C][N][CH]2)C#C	
InChI=1S/C7H6N2/c1-7-5-3-2-4(8-5)9(7)6(3)7/h2,5-6H,1H3	InChI=1S/C7H6N2/c1-3-6-7(2)4-8-5-9(6)7/h1,4,6H,2H3/t6-,7+,9?/m0/s1
