20
gdb 107644	3.35333	1.29481	1.0853	1.9045	79.91	-0.2304	0.0199	0.2503	1178.9504	0.171994	-403.154937	-403.146498	-403.145554	-403.187961	32.283	
C	 0.0844868356	 1.4948693076	 0.2782386163	-0.373965
C	 0.0384023524	-0.000948719	-0.0489223822	-0.246266
C	-1.3751198579	-0.5413531383	-0.1465802033	 0.358514
C	-2.1171199222	-0.9106278733	 1.1284657742	-0.3243
C	-1.670836382	-1.9872116182	 0.1725784848	-0.11133
C	-2.6626699854	-2.6856280326	-0.7262474863	-0.098821
O	-3.5879293695	-1.7871007233	-1.3631961158	-0.231361
C	-3.1360991606	-0.5458615219	-1.6685783314	 0.106208
N	-2.1516093674	 0.0833053863	-1.1853007554	-0.305248
H	 1.1155340428	 1.8609692403	 0.2974768499	 0.104345
H	-0.4719618951	 2.0641203062	-0.4703939224	 0.139647
H	-0.3643337463	 1.6986091398	 1.2563858502	 0.109865
H	 0.5501056217	-0.1857766865	-1.0018412271	 0.098765
H	 0.5818257955	-0.5718764166	 0.7141667948	 0.08672
H	-1.5852683377	-0.8160132351	 2.0694854141	 0.114263
H	-3.1735432917	-0.6683413504	 1.1793605532	 0.124712
H	-0.8416645766	-2.6189666646	 0.4804295583	 0.090798
H	-2.1246125702	-3.22928849	-1.5144019381	 0.114405
H	-3.2848884447	-3.4038204395	-0.1830533387	 0.119612
H	-3.7761282608	-0.089274551	-2.4211019951	 0.123436
96.9555	116.5261	164.1798	200.1546	266.3602	331.0704	355.2707	370.84	531.4033	562.0171	644.3194	678.259	775.7026	800.9018	858.5235	888.4046	905.3956	922.4273	943.968	978.0007	994.3122	1031.4279	1053.3623	1094.8705	1103.0707	1110.2056	1136.9943	1164.661	1247.818	1269.5926	1282.7133	1326.8795	1368.4382	1397.3307	1406.198	1415.4763	1420.3298	1478.0339	1488.0481	1493.0244	1510.8833	1513.9564	1720.7529	3015.2356	3021.3989	3038.5751	3057.1888	3071.8236	3102.7973	3126.5947	3127.3991	3141.0463	3159.0069	3216.5634
CCC12CC1COC=N2	CC[C@]12C[C@H]1COC=N2	
InChI=1S/C7H11NO/c1-2-7-3-6(7)4-9-5-8-7/h5-6H,2-4H2,1H3	InChI=1S/C7H11NO/c1-2-7-3-6(7)4-9-5-8-7/h5-6H,2-4H2,1H3/t6-,7-/m0/s1
