19
gdb 47093	2.80171	1.5925	1.25625	4.0247	74.19	-0.2281	-0.0204	0.2078	1042.1692	0.161643	-423.061493	-423.053845	-423.052901	-423.094307	29.306	
O	-0.0366300222	 0.2375640172	-0.7948141292	-0.308303
C	 0.0511294803	 1.2884010172	-0.2178252619	 0.402195
C	-1.0083863343	 1.9554025594	 0.6548381026	-0.32487
C	-0.8061591456	 3.4623821475	 0.3961597032	-0.233414
C	 0.6798203808	 3.6598170675	-0.0610525678	-0.052054
C	 1.6086187889	 4.2563105845	 1.0121405966	-0.231931
C	 1.9905082814	 3.0221744871	 1.8287950674	-0.074882
O	 2.0760479936	 1.9551120721	 0.8865433106	-0.273772
C	 1.258932866	 2.241698549	-0.2599281515	 0.018375
H	-2.0066522737	 1.5801931766	 0.4237622064	 0.124729
H	-0.791683031	 1.6983439668	 1.6996781647	 0.136213
H	-1.4794572864	 3.7909879098	-0.4007075027	 0.114227
H	-1.0376614953	 4.0702351621	 1.2750087213	 0.105022
H	 0.7157976934	 4.2445642153	-0.9817766135	 0.08476
H	 2.499292533	 4.6863320235	 0.5432403542	 0.111065
H	 1.1274679979	 5.0357366414	 1.6089861007	 0.104892
H	 2.9596719847	 3.1035577373	 2.3296792824	 0.114421
H	 1.2310405616	 2.8025631638	 2.5958625117	 0.092502
H	 1.8577035568	 2.0911895518	-1.1622535152	 0.090825
50.2258	119.093	178.836	222.4822	356.9173	430.6134	516.5988	537.2195	645.2429	679.3267	736.5724	783.1335	819.406	872.5895	888.5938	919.0949	927.5567	958.0497	982.2	1013.5049	1061.6759	1078.7912	1113.1642	1159.5134	1172.459	1201.9612	1214.789	1225.4336	1256.8062	1283.1421	1301.7745	1311.3516	1329.6492	1344.77	1354.0532	1387.361	1458.7389	1489.0718	1499.5192	1523.4574	1854.8561	2974.3453	3037.4662	3052.4654	3055.313	3073.4807	3080.8837	3090.4106	3099.1093	3106.8756	3122.9193
O=C1CCC2CCOC12	O=C1CC[C@H]2CCO[C@@H]12	
InChI=1S/C7H10O2/c8-6-2-1-5-3-4-9-7(5)6/h5,7H,1-4H2	InChI=1S/C7H10O2/c8-6-2-1-5-3-4-9-7(5)6/h5,7H,1-4H2/t5-,7+/m0/s1
