18
gdb 9529	2.74978	1.8863	1.58592	2.7185	68.92	-0.2273	0.0287	0.256	917.6691	0.153466	-381.106872	-381.098338	-381.097394	-381.139625	31.294	
C	-0.1195984442	 1.5048348393	-0.011139282	-0.335441
N	 0.0800647138	 0.0546316014	-0.004902362	-0.329527
C	 0.7441021201	-0.4959006461	-1.1822666905	 0.160058
C	 2.1696391934	-0.0020715515	-1.4474046071	-0.456127
C	 0.5401721998	-2.0305833066	-1.2850579872	-0.11419
O	-0.3100250672	-1.8510682974	-2.4613382295	-0.255205
C	-0.1662083373	-0.4853863133	-2.4097212879	 0.450336
N	-0.6313977254	 0.4157098637	-3.148234672	-0.553193
H	 0.8084466171	 2.0987324471	-0.0055890861	 0.097023
H	-0.6909318644	 1.7807135584	-0.9004350393	 0.164365
H	-0.7023034107	 1.7805905919	 0.8726540324	 0.117298
H	 0.608031228	-0.2143942505	 0.8205733767	 0.21471
H	 2.812750656	-0.2148878828	-0.5855694767	 0.110738
H	 2.6032014072	-0.4887255508	-2.3265138772	 0.124884
H	 2.1780264222	 1.0756181758	-1.6280378023	 0.143314
H	 1.4226535774	-2.6260375872	-1.5317678134	 0.112975
H	-0.0230058779	-2.4724362007	-0.4610136576	 0.12081
H	-1.2220817779	 0.0265303594	-3.8857043782	 0.227172
105.9415	115.9459	174.4155	217.4919	225.2262	265.982	318.7993	361.9863	415.3526	523.1449	670.4704	687.6157	753.6946	780.5574	864.9398	905.6439	915.5818	956.2268	977.512	1024.7115	1082.1453	1116.2844	1150.9122	1163.4058	1201.8271	1227.2141	1247.8789	1276.9324	1370.4808	1405.1993	1455.3802	1468.9403	1484.0496	1496.9296	1500.1768	1508.5584	1524.8607	1819.6683	2973.4283	3031.6881	3063.1894	3077.549	3100.8438	3124.6282	3131.2835	3132.1621	3468.9657	3497.9501
CNC1(C)COC1=N	CN[C@@]1(C)CO[C]1[NH]	
InChI=1S/C5H10N2O/c1-5(7-2)3-8-4(5)6/h6-7H,3H2,1-2H3	InChI=1S/C5H10N2O/c1-5(7-2)3-8-4(5)6/h6-7H,3H2,1-2H3/t5-/m0/s1
