13
gdb 24949	4.98287	1.34252	1.06454	3.5798	63.87	-0.2173	-0.017	0.2003	1022.9908	0.090822	-456.61287	-456.606452	-456.605508	-456.643826	24.802	
O	 0.0925320443	 0.0624644649	 0.0022434399	-0.286897
C	-0.0291662945	 1.2416618777	 0.0104508274	 0.417721
C	-1.3183890911	 2.1047018729	 0.0334764529	-0.5102
C	-0.7490455586	 3.4878327456	 0.0329607383	 0.149269
C	 0.5881987746	 3.3422550893	 0.0131183744	 0.441932
O	 1.2771030724	 4.4772619435	 0.0092876723	-0.196689
C	 0.2916843293	 5.4606400612	 0.0287819281	-0.019159
C	-0.9542085571	 4.9087292892	 0.043334065	-0.344234
O	 1.1072550122	 2.0902293986	-0.0011266402	-0.245898
H	-1.9245154207	 1.8393806174	-0.8399630799	 0.160903
H	-1.8995075268	 1.8296984079	 0.9208077984	 0.160896
H	 0.6630840955	 6.46989443	 0.0290845354	 0.147237
H	-1.8824721495	 5.4578638016	 0.0594442881	 0.125118
110.6256	210.1285	307.5602	351.8191	547.8677	552.1557	570.6511	600.3977	656.398	719.5384	719.7606	774.2987	826.0054	842.1815	925.0328	967.0861	996.046	1022.192	1129.1073	1160.196	1186.1473	1234.2107	1283.3183	1398.8574	1454.6792	1497.464	1524.5642	1676.0128	1930.7875	3046.2641	3078.5426	3259.8069	3306.723
O=C1CC2=C(OC=C2)O1	O=C1Cc2c(occ2)O1	
InChI=1S/C6H4O3/c7-5-3-4-1-2-8-6(4)9-5/h1-2H,3H2	InChI=1S/C6H4O3/c7-5-3-4-1-2-8-6(4)9-5/h1-2H,3H2
