17
gdb 35670	3.66936	1.01386	0.91532	1.2179	80.3	-0.2586	0.0319	0.2906	1289.2208	0.134454	-384.62152	-384.612646	-384.611702	-384.655873	32.801	
C	-0.32966582	-0.9573288955	-0.7076592198	-0.437551
C	-0.1468525591	 0.1485702393	-0.2735374058	 0.299415
C	 0.0755026394	 1.4778256	 0.267754662	-0.201187
C	-0.4204951686	 1.6573525164	 1.723128374	-0.070015
O	 0.3968487177	 2.6673080469	 2.3129418503	-0.260073
C	 1.4525609399	 3.0437499815	 1.4214480601	-0.073472
C	 1.5572847615	 1.8906839019	 0.4062357162	-0.240411
C	 1.1674708815	 4.3325911701	 0.7800152804	 0.357144
C	 0.9342077298	 5.3839365794	 0.2460263335	-0.485508
H	-0.4941424207	-1.9315565804	-1.0966943294	 0.196826
H	-0.4264722	 2.2177468145	-0.367055524	 0.123408
H	-1.469743866	 1.966065902	 1.7654726111	 0.117236
H	-0.3082570313	 0.7220206188	 2.2857106537	 0.110754
H	 2.3665288538	 3.1365235886	 2.0188384383	 0.112331
H	 2.1362753781	 1.0692332621	 0.8370163264	 0.12018
H	 2.0113078545	 2.1902488433	-0.538561028	 0.128514
H	 0.7293117594	 6.318551391	-0.2152564691	 0.202409
41.5344	78.1339	141.1377	190.9599	220.0812	285.5804	438.2972	494.4121	512.7676	534.2749	576.9604	631.8762	634.8322	636.6125	664.8515	753.3062	832.8865	880.4198	920.2117	940.8563	999.979	1047.8615	1071.9578	1086.1622	1110.2178	1179.9793	1239.3942	1258.1536	1299.7927	1319.1293	1343.0887	1365.5375	1396.1529	1486.7667	1527.0413	2232.5407	2239.9141	3022.99	3037.4914	3043.7259	3074.1618	3079.053	3140.9481	3501.6796	3504.6147
C#CC1COC(C1)C#C	C#C[C@H]1CO[C@@H](C1)C#C	
InChI=1S/C8H8O/c1-3-7-5-8(4-2)9-6-7/h1-2,7-8H,5-6H2	InChI=1S/C8H8O/c1-3-7-5-8(4-2)9-6-7/h1-2,7-8H,5-6H2/t7-,8-/m1/s1
