17
gdb 24297	4.01542	1.5831	1.2457	4.3037	77.67	-0.2079	0.0314	0.2393	984.5901	0.140886	-380.901992	-380.895618	-380.894674	-380.932658	25.99	
C	-0.0094789314	 1.490790914	 0.0831893406	-0.285513
C	 1.3079389376	 0.7640161555	 0.0192275759	-0.039952
C	 2.0223934231	 0.432291954	 1.332502184	-0.204465
N	 1.0604911725	-0.4349410112	 2.0080110196	-0.02087
C	 0.9524772691	-1.0964698769	 3.193419734	-0.0172
N	-0.1500528644	-1.8159169054	 3.2372742153	-0.273556
C	-0.78788611	-1.6054808841	 2.0312248712	-0.232177
C	-0.0505731902	-0.7509003912	 1.2538336964	 0.332131
C	 0.000371091	-0.0225402255	-0.0311399876	-0.192846
H	-0.3283378082	 1.9231075998	 1.0264264773	 0.125153
H	-0.2987971716	 2.0574213996	-0.7954399375	 0.118684
H	 1.9217970263	 0.8810860542	-0.865159182	 0.100674
H	 2.9635485545	-0.0988302458	 1.1506571972	 0.126632
H	 2.2426710379	 1.3205709639	 1.9342843949	 0.128417
H	 1.6923797801	-1.0237043719	 3.9762673437	 0.124493
H	-1.7308403825	-2.0789582752	 1.8059841253	 0.105294
H	-0.3486334938	-0.4924327935	-0.9418989383	 0.105101
146.1226	187.3924	321.8682	415.7213	425.9831	601.889	669.1333	700.7508	709.8488	778.5747	793.2163	802.5898	821.2095	830.5931	894.1755	951.3132	973.4751	1000.1337	1050.349	1071.3035	1096.9775	1111.2584	1127.0207	1175.0764	1194.1883	1221.907	1243.5838	1255.2097	1318.9217	1332.2038	1368.4916	1397.5587	1405.0259	1480.3366	1500.6372	1526.3533	1605.4043	3035.3141	3072.7572	3127.0783	3186.5672	3193.8536	3217.8282	3249.1999	3253.2568
C1C2CN3C=NC=C3C12	C1[C@H]2Cn3cncc3[C@@H]12	
InChI=1S/C7H8N2/c1-5-3-9-4-8-2-7(9)6(1)5/h2,4-6H,1,3H2	InChI=1S/C7H8N2/c1-5-3-9-4-8-2-7(9)6(1)5/h2,4-6H,1,3H2/t5-,6-/m0/s1
