19
gdb 80575	2.42624	1.56732	1.29918	2.2329	71.27	-0.2298	0.0759	0.3057	1080.0304	0.157463	-460.144895	-460.136068	-460.135124	-460.177992	33.731	
C	 0.2558957542	 1.4988326877	 0.0020094183	-0.411458
C	 0.1067421544	-0.0026370681	 0.0319988011	 0.213744
O	 0.6353016865	-0.5836043041	-1.1494436533	-0.261141
C	 1.0659716624	-1.8730045846	-0.7877501883	-0.038878
C	 2.4286207615	-1.9510574304	-0.0985256184	 0.056091
O	 3.302132603	-0.8785276107	-0.0852666466	-0.427616
C	 1.1533890454	-1.9045585062	 0.7195717312	 0.308643
C	 0.6639139415	-2.9756494564	 1.6492112202	-0.473474
O	 0.8586252303	-0.5669188982	 1.109410826	-0.320762
H	-0.098952824	 1.9299727621	 0.9412418999	 0.132276
H	 1.3047190618	 1.7664383258	-0.1490697541	 0.13267
H	-0.3335108986	 1.9111926104	-0.8205775664	 0.136376
H	-0.9493278135	-0.3040465663	 0.1479936808	 0.075137
H	 0.6763044975	-2.6854425088	-1.3934914922	 0.101303
H	 2.9425501219	-2.9069186271	-0.1661176543	 0.102525
H	 2.8792632122	-0.1976386609	 0.4560983583	 0.292438
H	 0.9249084461	-3.9641792793	 1.2596258622	 0.123469
H	 1.1216380732	-2.87060684	 2.6383617015	 0.133894
H	-0.4240635257	-2.9294850247	 1.766613114	 0.124763
90.5041	191.1131	198.7199	219.6995	227.9552	248.1177	282.1947	367.4166	406.185	499.2455	558.9636	607.2967	660.4059	718.5151	762.7028	829.8795	850.0382	879.2642	897.9337	971.7138	1011.9664	1061.044	1097.2099	1113.2725	1129.1737	1137.5707	1162.1461	1179.9736	1228.7549	1249.4517	1315.9415	1367.8967	1375.0047	1394.8864	1416.2836	1432.4397	1464.9083	1479.0418	1481.7894	1488.4104	1498.1244	2948.6788	3032.2632	3055.2591	3099.629	3111.2926	3136.3709	3138.5117	3140.9786	3155.2841	3746.7911
CC1OC2C(O)C2(C)O1	C[C@H]1O[C@H]2[C@@H](O)[C@@]2(C)O1	
InChI=1S/C6H10O3/c1-3-8-5-4(7)6(5,2)9-3/h3-5,7H,1-2H3	InChI=1S/C6H10O3/c1-3-8-5-4(7)6(5,2)9-3/h3-5,7H,1-2H3/t3-,4+,5-,6+/m0/s1
