21
gdb 102913	3.0171	0.74316	0.62544	2.4879	86.04	-0.2514	-0.0259	0.2254	1797.1986	0.178477	-387.074396	-387.063349	-387.062404	-387.112145	38.46	
C	-0.0256763607	 1.5807976258	 0.1334693656	-0.392763
C	-0.0087278764	 0.0544036972	 0.0055740232	-0.20254
C	 0.7102356066	-0.4530666278	-1.2613649558	-0.054602
C	 0.8378092811	-1.9901726184	-1.2531093405	-0.206861
C	 1.7155571523	-2.5370177563	-2.3988702842	-0.368906
C	 1.8345836804	-3.9890944594	-2.3645718842	 0.290675
C	 1.9147674337	-5.1871420229	-2.3101594707	-0.43133
C	-0.0653090478	-0.0242263745	-2.4921450069	 0.171549
O	 0.3668780627	 0.6260671695	-3.4083343334	-0.256522
H	 0.9917993798	 1.9839594274	 0.170818081	 0.124004
H	-0.5333264392	 2.053685277	-0.7137592763	 0.129304
H	-0.5426977313	 1.8903941535	 1.0464435659	 0.118673
H	 0.4846764175	-0.3854176132	 0.8800487718	 0.106047
H	-1.0368846234	-0.3326589668	 0.012024228	 0.103394
H	 1.7066193495	 0.0002432083	-1.3293267703	 0.091079
H	 1.26367712	-2.3059100885	-0.294991056	 0.117171
H	-0.158254622	-2.4464419101	-1.3117863957	 0.114517
H	 1.30647334	-2.2248661803	-3.3680533784	 0.144765
H	 2.7139190062	-2.0847642659	-2.3380786968	 0.136569
H	 1.994572798	-6.2452855379	-2.2759765539	 0.195369
H	-1.1247217469	-0.3830837466	-2.4938222424	 0.070406
36.884	57.2975	78.9834	98.9653	107.413	198.6091	217.9758	272.3872	326.4719	349.457	359.785	419.2968	492.6109	575.9594	620.2208	642.0178	754.2236	770.1593	883.7313	925.0212	957.299	976.2409	1012.8981	1021.8929	1044.7701	1110.1534	1126.604	1150.6689	1199.7372	1262.0225	1279.9939	1306.4137	1330.9888	1357.6483	1371.2843	1382.4519	1418.7563	1424.7645	1471.584	1482.9283	1495.278	1500.206	1504.0773	1832.0535	2239.9232	2825.7801	3016.5153	3022.0901	3033.809	3036.4212	3044.964	3050.7849	3058.5658	3084.0924	3103.9496	3110.0534	3507.2664
CCC(CCC#C)C=O	CC[C@@H](CCC#C)C=O	
InChI=1S/C8H12O/c1-3-5-6-8(4-2)7-9/h1,7-8H,4-6H2,2H3	InChI=1S/C8H12O/c1-3-5-6-8(4-2)7-9/h1,7-8H,4-6H2,2H3/t8-/m0/s1
