18
gdb 94962	3.46445	1.35754	1.17917	2.8371	71.97	-0.2626	0.0265	0.2891	1069.0442	0.149477	-439.09895	-439.091249	-439.090305	-439.131095	30.093	
O	 0.0250978548	 1.311412538	 0.3355116841	-0.442859
C	-0.0683555592	-0.0660527657	-0.0128463792	 0.102158
C	 0.5929388586	-0.9806007056	 1.0365541068	-0.260332
C	-0.4125419544	-1.0052826845	 2.2073645348	-0.21779
C	-1.7877972347	-0.9871010225	 1.5167551279	-0.153768
C	-1.5553145	-0.3959282525	 0.1020192361	 0.120129
O	-1.8796777054	-1.6923160924	-0.4968088074	-0.279613
C	-2.1345617524	-2.246558458	 0.7459157678	 0.431949
N	-2.5100775205	-3.4005249954	 1.0590521787	-0.550619
H	 0.9572502416	 1.5372262905	 0.4114435658	 0.28801
H	 0.3050657519	-0.2473826997	-1.029949243	 0.078868
H	 0.7179842542	-1.9833476606	 0.6142159191	 0.122769
H	 1.5866483833	-0.6243134104	 1.3258235901	 0.091993
H	-0.2901400558	-1.871823369	 2.8609184169	 0.122796
H	-0.3060441472	-0.1014107854	 2.8137308467	 0.113822
H	-2.5958347219	-0.5848382336	 2.1265949619	 0.10485
H	-2.2069286984	 0.3923093447	-0.2751066322	 0.100689
H	-2.6362862643	-3.988588348	 0.2331115151	 0.226944
100.7192	150.6307	247.0126	252.1565	276.6337	365.2509	433.7514	463.6847	569.9135	684.1399	713.2531	781.039	834.3492	860.3683	869.1592	882.3239	912.5479	951.9606	978.7982	1002.4402	1019.4072	1049.0336	1054.7304	1098.7771	1162.7811	1180.0792	1186.9092	1222.5263	1256.3347	1271.7358	1295.524	1315.9203	1343.7533	1348.2573	1375.2093	1423.8503	1479.3395	1489.438	1823.2212	3014.3524	3051.5897	3064.5653	3091.9523	3117.5401	3119.694	3129.3669	3472.3625	3824.3102
OC1CCC2C1OC2=N	O[C@H]1CC[C@H]2[C@@H]1O[C]2[NH]	
InChI=1S/C6H9NO2/c7-6-3-1-2-4(8)5(3)9-6/h3-5,7-8H,1-2H2	InChI=1S/C6H9NO2/c7-6-3-1-2-4(8)5(3)9-6/h3-5,7-8H,1-2H2/t3-,4-,5-/m0/s1
