20
gdb 30811	2.30909	1.27475	0.87433	0.7086	83.99	-0.1713	0.0627	0.234	1366.7181	0.170053	-403.196567	-403.186501	-403.185556	-403.23181	36.683	
C	-0.3353210273	 1.611360956	-0.1861445449	-0.361627
C	 0.0742449188	 0.1389147783	 0.0083783993	-0.302021
C	 0.8252309715	-0.4453793381	-1.145123383	 0.204403
C	 2.1518961046	-0.7692440682	-1.3193759275	 0.222126
C	 3.2599708226	-0.6275691785	-0.3194435781	-0.505845
C	 2.3083250572	-1.2730188795	-2.6569670682	-0.390768
C	 1.0690668539	-1.2331076721	-3.2413694753	 0.376599
O	 0.59879956	-1.5813097663	-4.4681864061	-0.437836
N	 0.1745633219	-0.7344355661	-2.3426079309	-0.348358
H	 0.5466497846	 2.242335484	-0.3310468972	 0.122289
H	-0.9750021812	 1.7340922176	-1.0667112433	 0.108077
H	-0.887784281	 1.984671901	 0.6826012206	 0.107883
H	 0.6956658117	 0.0538631287	 0.9052035355	 0.111581
H	-0.8261423344	-0.458498113	 0.2128703703	 0.096282
H	 3.7846936661	-1.5777538389	-0.1622972588	 0.119398
H	 4.0133578358	 0.1001380638	-0.6462150189	 0.120013
H	 2.8888216367	-0.2946764393	 0.6539594325	 0.115774
H	 3.2223801927	-1.6209466856	-3.1146020083	 0.078531
H	 1.3361772418	-1.9186573419	-4.9851526862	 0.305589
H	-0.8082688958	-0.6294180122	-2.5251428417	 0.257911
48.4099	96.7373	127.7272	193.6609	203.3757	229.1591	267.9668	284.9967	307.9378	397.871	424.7732	493.3502	590.9042	612.1487	657.5894	687.1015	726.8894	766.5088	798.3648	962.058	989.6901	1035.8193	1057.7097	1059.6057	1078.4525	1160.2993	1168.4411	1190.3527	1241.8586	1299.5231	1336.1778	1353.7428	1406.8889	1417.3773	1458.1344	1478.0004	1482.2945	1494.7425	1497.4527	1504.4882	1540.1999	1591.1501	1656.3387	2999.7193	3018.3986	3031.7781	3061.6124	3074.0934	3100.2088	3104.3022	3111.3393	3235.9408	3680.705	3850.0853
CCC1=C(C)C=C(O)N1	CCc1c(C)cc(O)[nH]1	
InChI=1S/C7H11NO/c1-3-6-5(2)4-7(9)8-6/h4,8-9H,3H2,1-2H3	InChI=1S/C7H11NO/c1-3-6-5(2)4-7(9)8-6/h4,8-9H,3H2,1-2H3
