19
gdb 96994	2.87511	1.35158	1.12096	2.9701	78.84	-0.2308	0.0288	0.2595	1173.8113	0.158622	-419.173066	-419.164028	-419.163084	-419.207007	33.033	
C	-0.240777572	 1.4302100025	-0.0810103345	-0.339255
N	-0.3300718668	-0.0081403424	-0.2917489632	-0.345091
C	 0.5498153228	-0.5876729943	-0.9596502814	 0.491808
O	 1.6703959837	-0.0818287114	-1.6259912346	-0.295373
C	 1.9905439027	-1.3873036193	-2.183505899	 0.058745
C	 2.9484987575	-2.2097775657	-1.3075654164	-0.194026
N	 1.8085370965	-2.6409268952	-0.4462989582	-0.345245
C	 0.8159940776	-2.023928522	-1.3844704034	 0.15373
C	-0.3167143374	-2.8796349804	-1.8842086046	-0.505915
H	 0.5723277964	 1.9138631847	-0.6346773775	 0.126131
H	-1.1907009242	 1.8927242411	-0.3694423091	 0.124518
H	-0.1009596473	 1.6266675864	 0.9879562019	 0.130056
H	 2.1110437369	-1.3452117606	-3.2653932754	 0.095601
H	 3.4224364329	-3.0241776574	-1.8690063257	 0.10365
H	 3.7196636672	-1.6400867061	-0.7804093467	 0.119571
H	 1.7080448092	-3.6481827276	-0.3913257725	 0.221244
H	-0.9723260638	-3.1489639066	-1.0493706089	 0.149133
H	-0.9214455115	-2.3416831428	-2.619717165	 0.135655
H	 0.0554235194	-3.801094413	-2.3445323863	 0.115062
78.3069	103.2527	154.862	172.5204	205.8927	231.2648	300.3139	345.989	393.9388	491.9731	635.0158	681.9129	712.2352	752.6158	829.7239	841.4285	871.7974	936.9783	998.6771	1003.2268	1031.7402	1065.6329	1084.3854	1127.2038	1140.0896	1148.5641	1160.5131	1192.9272	1230.5795	1261.605	1316.5556	1342.7181	1402.3547	1416.936	1439.5155	1484.8332	1488.2409	1493.2271	1495.5112	1497.2396	1852.3666	3017.7107	3025.4009	3034.0352	3083.2497	3085.7898	3089.1377	3103.2257	3115.0498	3121.8542	3536.7836
CN=C1OC2CNC12C	CN=C1O[C@H]2CN[C@@]12C	
InChI=1S/C6H10N2O/c1-6-4(3-8-6)9-5(6)7-2/h4,8H,3H2,1-2H3	InChI=1S/C6H10N2O/c1-6-4(3-8-6)9-5(6)7-2/h4,8H,3H2,1-2H3/t4-,6+/m0/s1
