17
gdb 7568	2.93966	2.11095	1.51908	5.3564	63.81	-0.2554	0.0211	0.2766	868.215	0.143192	-401.016597	-401.009017	-401.008073	-401.048256	28.724	
C	-0.3157074358	 1.6718940491	-0.2007847846	-0.463086
C	 0.0533013368	 0.2133089423	-0.0139870076	 0.131005
C	 1.3364331188	-0.332830892	-0.7223291857	-0.202572
N	 1.5926719683	-1.1566986498	 0.4870345637	-0.342882
H	 0.0328495111	-2.1495555205	 0.1200749527	 0.311904
H	 2.5606619785	-1.2897745796	 0.7590654431	 0.232521
C	 0.7841335734	-0.2132906502	 1.301422681	-0.202581
C	-1.1460177256	-0.7097927524	-0.2868145373	 0.421392
O	-2.2302504599	-0.2997778869	-0.6070613787	-0.338801
O	-0.9078328561	-2.0269061197	-0.1439312228	-0.390404
H	 0.5457314925	 2.3176683485	-0.0043078914	 0.103184
H	-0.6671736338	 1.8548801901	-1.2194732741	 0.138514
H	-1.128239818	 1.9550006176	 0.4733075372	 0.138481
H	 1.2179309107	-0.901774529	-1.6489554428	 0.124805
H	 2.0693555093	 0.4700691123	-0.8769163196	 0.106858
H	 1.3615192203	 0.6232761301	 1.7167563426	 0.106859
H	 0.1958004095	-0.68053963	 2.0963550342	 0.124803
101.0601	188.9846	244.0744	258.75	278.3138	330.817	371.7538	463.5232	555.4388	666.1992	733.2358	758.988	843.9784	866.352	883.5826	963.0575	975.1973	995.3908	1021.3272	1022.4029	1117.8779	1153.2094	1177.5296	1193.6872	1248.92	1256.837	1292.1406	1360.6751	1370.7587	1417.6178	1453.0823	1484.0585	1488.9215	1506.7137	1533.6259	1854.4664	3011.2414	3016.6209	3044.9042	3087.0555	3087.2104	3117.2195	3125.7759	3403.6315	3527.8955
CC1(C[NH2+]C1)C([O-])=O	CC1(CNC1)C(=O)O	
InChI=1S/C5H9NO2/c1-5(4(7)8)2-6-3-5/h6H,2-3H2,1H3,(H,7,8)	InChI=1S/C5H9NO2/c1-5(4(7)8)2-6-3-5/h6H,2-3H2,1H3,(H,7,8)
