20
gdb 95465	2.90626	1.15454	0.89972	3.6115	83.83	-0.2121	0.	0.2121	1328.7375	0.171902	-403.199012	-403.189994	-403.18905	-403.233158	33.452	
C	 0.3543795014	 1.5619303766	-0.0705729106	-0.389979
C	-0.0224955234	 0.0755835303	 0.0687090519	-0.091007
C	 0.3607942058	-0.7786225556	-1.1689425364	-0.221762
C	 1.6692513887	-1.5196928338	-0.7876602343	-0.244234
C	 1.680352737	-1.4635032475	 0.7193965206	-0.184021
C	 0.7547780656	-0.6123665076	 1.1760140341	 0.396356
N	 0.4667057785	-0.2596644441	 2.5009225623	-0.387711
C	 1.093574863	-0.7081668795	 3.6323003026	 0.146391
O	 2.0201954176	-1.4857681649	 3.6664968606	-0.30199
H	 1.4180079575	 1.671679395	-0.3060443556	 0.126622
H	-0.2245148764	 2.0348997699	-0.8702330168	 0.117528
H	 0.1619376118	 2.1202400725	 0.8525246986	 0.103536
H	-1.1035259586	 0.0162269535	 0.2593120626	 0.06846
H	-0.4282167519	-1.510743303	-1.3641255777	 0.104525
H	 0.4648567081	-0.1681647384	-2.0702931906	 0.09557
H	 1.6833309111	-2.5464509532	-1.1713564829	 0.102955
H	 2.5583603324	-1.0292263824	-1.2093784253	 0.104246
H	 2.3699234034	-2.0125848283	 1.3419669601	 0.127318
H	-0.3008646607	 0.379125167	 2.6423765066	 0.249641
H	 0.641385509	-0.2636449164	 4.5410851201	 0.077555
62.8175	88.174	178.0358	193.463	237.1145	244.0653	306.744	350.7311	387.7474	552.1882	569.8073	632.3276	690.169	762.0773	816.335	861.9714	885.805	909.1065	933.4223	976.678	1012.463	1023.2693	1053.367	1093.6496	1096.1336	1129.5855	1195.681	1221.3051	1246.7442	1280.6337	1302.2924	1327.5592	1352.132	1359.1155	1408.5387	1437.5223	1485.3468	1495.5853	1496.0191	1505.4989	1539.6939	1713.3372	1806.4534	2934.8188	2994.4377	3001.3657	3028.1359	3042.9841	3058.0522	3091.6184	3098.1659	3107.1209	3258.1056	3620.6862	62.8169	88.1733	178.0356	193.4627	237.1148	244.0653	306.7438	350.7311	387.7474	552.1879	569.8073	632.3276	690.169	762.0773	816.335	861.9713	885.8051	909.1065	933.4222	976.678	1012.463	1023.2692	1053.3671	1093.6496	1096.1336	1129.5856	1195.681	1221.3052	1246.7443	1280.6336	1302.2925	1327.5591	1352.1322	1359.1156	1408.5386	1437.5224	1485.347	1495.5853	1496.0191	1505.499	1539.6938	1713.3373	1806.453	2934.8187	2994.4377	3001.3656	3028.1359	3042.9841	3058.0522	3091.6184	3098.1659	3107.1209	3258.1056	3620.6861
CC1CCC=C1NC=O	C[C@H]1CCC=C1NC=O	
InChI=1S/C7H11NO/c1-6-3-2-4-7(6)8-5-9/h4-6H,2-3H2,1H3,(H,8,9)	InChI=1S/C7H11NO/c1-6-3-2-4-7(6)8-5-9/h4-6H,2-3H2,1H3,(H,8,9)/t6-/m0/s1
