18
gdb 37420	2.97728	2.14944	1.78938	0.6666	73.15	-0.2172	0.0673	0.2845	833.5307	0.151178	-401.883236	-401.877329	-401.876384	-401.913105	25.909	
C	 0.1735922878	 1.5806157787	 0.0173147013	-0.298456
C	 1.3803351623	 0.6808495616	 0.0935080202	-0.052842
C	-0.015190495	 0.0824875141	-0.0095740277	-0.021859
N	-0.129444084	-0.6479393451	-1.2646192504	-0.116779
C	-0.5387694372	 0.0918205523	-2.5090597853	-0.199807
C	 0.9213677197	 0.1120113987	-2.9891285479	 0.098371
O	 1.6899323185	 1.171978954	-2.368981631	-0.314755
C	 2.0590443405	 0.3330484535	-1.2264063007	 0.091244
C	 1.2489751649	-0.833697908	-1.8202146408	-0.062747
H	-0.1255437336	 2.0898849432	 0.9276092261	 0.110044
H	 0.0557970207	 2.1597892917	-0.8891287524	 0.135592
H	 1.9673668196	 0.6322358983	 1.003354327	 0.085316
H	-0.4833521674	-0.3850618983	 0.8510686373	 0.089714
H	-1.1908328889	-0.5340698919	-3.129121008	 0.105855
H	-1.0179745997	 1.0619792667	-2.3546830778	 0.113714
H	 1.1698866891	-0.0174063143	-4.0434720596	 0.081539
H	 3.1473733052	 0.2510338126	-1.1502062793	 0.078188
H	 1.6336233177	-1.8529770476	-1.863338161	 0.077667
234.539	280.3782	420.8719	459.8641	523.9702	601.7768	677.6905	700.8434	777.5053	799.6585	811.0736	825.4118	876.5109	916.4991	922.2968	950.6657	960.2355	983.3452	993.8274	1026.0972	1040.953	1072.1291	1080.9841	1091.5432	1109.2316	1140.0681	1182.7022	1198.6221	1223.3269	1239.3482	1242.9704	1270.5002	1294.3872	1311.3759	1331.9397	1344.3469	1364.0586	1470.5315	1500.0992	3033.9749	3062.0703	3096.4037	3099.3418	3110.973	3140.6192	3148.9087	3176.7511	3238.1447
C1C2C1N1CC3OC2C13	C1[C@H]2[C@@H]1N1C[C@H]3O[C@@H]2[C@@H]13	
InChI=1S/C7H9NO/c1-3-4(1)8-2-5-6(8)7(3)9-5/h3-7H,1-2H2	InChI=1S/C7H9NO/c1-3-4(1)8-2-5-6(8)7(3)9-5/h3-7H,1-2H2/t3-,4+,5+,6-,7-/m0/s1
