16
gdb 27231	3.27191	1.64182	1.10064	1.0854	79.7	-0.1813	0.0026	0.1838	1040.5433	0.126338	-400.784776	-400.777544	-400.7766	-400.816187	28.697	
O	 0.0880622289	 1.3917181198	-0.080075983	-0.447766
C	 0.0696129355	 0.0261389419	-0.0341091635	 0.139594
C	 0.0376588097	-0.7887308702	-1.1388240524	 0.289817
C	 0.0096886668	-0.816603198	-2.6395147639	-0.418022
C	-0.0164297594	-2.3156744616	-2.9079820596	-0.1393
C	-0.004802171	-2.9911682748	-1.7518709338	-0.012488
N	 0.0276439748	-2.0968443534	-0.673716166	-0.006223
C	 0.0523864515	-2.1281120105	 0.6904013554	-0.125629
C	 0.0790526296	-0.8150292289	 1.1227352631	-0.282835
H	 0.1101992889	 1.7244932743	 0.8214522994	 0.29491
H	-0.8692362389	-0.3123909754	-3.0643974842	 0.131258
H	 0.8863067009	-0.337188083	-3.0966390644	 0.131256
H	-0.0407710593	-2.7565835478	-3.8932329969	 0.107107
H	-0.0165387748	-4.0557775062	-1.5690935679	 0.129064
H	 0.0493619651	-3.0544605189	 1.240945243	 0.120121
H	 0.1026846217	-0.4871399374	 2.1520179148	 0.089134
139.1051	206.2995	226.5766	271.2569	340.9669	453.3475	529.3378	606.0604	624.3263	649.7052	679.1176	682.0844	719.3262	749.2137	789.0524	867.1722	902.9505	938.6648	957.2542	1049.0902	1072.005	1098.8582	1140.604	1164.2755	1243.0279	1261.1849	1311.0887	1339.0211	1341.4212	1442.5992	1461.6823	1469.7321	1514.4429	1646.3988	1687.1061	3009.7215	3026.5882	3231.6374	3237.3498	3260.3734	3270.2685	3845.5105
OC1=C2CC=CN2C=C1	Oc1c2CC=Cn2cc1	
InChI=1S/C7H7NO/c9-7-3-5-8-4-1-2-6(7)8/h1,3-5,9H,2H2	InChI=1S/C7H7NO/c9-7-3-5-8-4-1-2-6(7)8/h1,3-5,9H,2H2
