19
gdb 37710	3.49736	1.91643	1.47497	0.2514	84.1	-0.2236	0.0163	0.2399	919.0772	0.162303	-348.687675	-348.681489	-348.680545	-348.717698	27.236	
C	-0.0766438331	 1.6052898678	 0.0335807011	-0.352195
C	 1.4410250251	 1.264993531	-0.0077767396	-0.079585
C	 1.2603307343	 0.0480828806	 0.9499431506	-0.053578
C	 1.8895248485	-0.9952301353	-0.0019272087	-0.060079
C	 1.2075439039	-2.3770919045	 0.029503467	-0.290092
C	-0.3082629285	-2.2952544145	 0.072964389	-0.071169
C	-0.9290106539	-1.1114082071	 0.0811369014	-0.21202
C	-0.0268533202	 0.0664637524	 0.0450061933	 0.349868
C	 1.2054908815	 0.0323280138	-0.932877569	-0.053578
H	-0.4463686046	 2.0971085885	 0.9400892151	 0.091084
H	-0.4987427578	 2.0820670876	-0.8579658677	 0.091084
H	 2.2888502125	 1.9507694436	-0.0382092665	 0.066914
H	 1.2470569498	 0.0691650519	 2.0418584698	 0.064093
H	 2.9820654864	-1.0709919863	-0.0331152837	 0.053605
H	 1.516025376	-2.964460871	-0.8477969272	 0.107482
H	 1.5668441395	-2.9498497122	 0.8970698655	 0.107482
H	-0.8629302849	-3.2291531156	 0.0969299875	 0.087755
H	-2.0094232047	-1.0117034579	 0.1117631718	 0.088836
H	 1.1286804002	 0.0351536671	-2.0223689696	 0.064093
227.9559	283.9554	391.3828	416.1448	477.5152	537.7043	605.2347	671.7984	742.3951	762.9758	836.3546	841.3276	847.0528	885.9783	889.3905	922.642	927.7409	965.6792	981.5876	1005.9009	1020.3643	1033.6703	1063.3882	1106.256	1109.2681	1141.9384	1145.0951	1165.145	1178.2155	1186.4105	1210.469	1226.9507	1268.0654	1280.5901	1315.1325	1318.7814	1378.7004	1417.2919	1467.2547	1512.3178	1679.8754	2997.8239	3019.1741	3029.2058	3043.3868	3085.1359	3085.6658	3087.6004	3106.4989	3158.6032	3183.7724
C1C2C3C4CC=CC13C24	C1[C@H]2[C@@H]3[C@H]4CC=C[C@@]13[C@@H]24	
InChI=1S/C9H10/c1-2-5-7-6-4-9(7,3-1)8(5)6/h1,3,5-8H,2,4H2	InChI=1S/C9H10/c1-2-5-7-6-4-9(7,3-1)8(5)6/h1,3,5-8H,2,4H2/t5-,6+,7+,8-,9-
