19
gdb 39507	2.459	1.76118	1.22358	1.6896	70.99	-0.254	0.0824	0.3364	1042.7635	0.161228	-460.135462	-460.12786	-460.126916	-460.167497	29.791	
C	 0.0475687914	 0.8969417111	-0.4142817922	-0.080373
C	 1.2194288947	 1.8388473261	-0.0973701518	-0.2568
C	 2.5478344984	 1.1195942856	 0.0099471113	 0.066625
O	 3.4515973172	 1.5751158953	 1.0241117905	-0.26085
C	 2.9249417952	 0.2505483191	 1.1371347374	 0.072391
C	 2.0694658957	-0.0851649278	 2.3468554494	-0.121214
O	 0.8282626255	 0.5924051405	 2.4359075378	-0.230095
C	-0.2281116881	-0.0449413773	 1.7601603608	-0.000838
O	 0.0027582474	-0.2676326222	 0.400940255	-0.224464
H	-0.900672032	 1.4509961306	-0.3342623989	 0.09666
H	 0.1239494924	 0.5163642612	-1.4379265603	 0.110954
H	 1.2757054605	 2.5913015873	-0.8937480556	 0.097878
H	 1.040489837	 2.3641155528	 0.8409378052	 0.135574
H	 3.0347817471	 0.9046407294	-0.9442137655	 0.087225
H	 3.6665006996	-0.5276493575	 0.9352751851	 0.086524
H	 1.9119724131	-1.1745007546	 2.3604566601	 0.097869
H	 2.6306888305	 0.1825374623	 3.2494504889	 0.122628
H	-0.4094327161	-1.0433092583	 2.1837395756	 0.101595
H	-1.1010725296	 0.6031166264	 1.9238944972	 0.098711
94.016	203.4765	256.2154	277.0486	290.3085	346.0693	427.8333	443.9973	526.9442	622.3562	714.8736	765.7556	789.76	846.2908	890.8062	929.0295	972.1162	994.2907	1023.1918	1049.9182	1070.3636	1114.7933	1142.9023	1154.7309	1170.7387	1196.362	1261.0705	1276.296	1309.961	1315.17	1343.7403	1360.8935	1397.1714	1403.5842	1416.0503	1444.2962	1474.9314	1482.9519	1493.1092	1498.2972	1507.7342	2986.9521	2990.3015	2993.4158	3038.5315	3040.8017	3065.3035	3066.4592	3073.6315	3081.1836	3135.0411
C1CC2OC2COCO1	C1C[C@H]2O[C@H]2COCO1	
InChI=1S/C6H10O3/c1-2-7-4-8-3-6-5(1)9-6/h5-6H,1-4H2	InChI=1S/C6H10O3/c1-2-7-4-8-3-6-5(1)9-6/h5-6H,1-4H2/t5-,6+/m1/s1
