21
gdb 82904	2.95729	1.81796	1.57079	1.2943	80.05	-0.2541	0.0771	0.3313	942.4634	0.188173	-387.08518	-387.078713	-387.077769	-387.115509	28.84	
O	-0.0099738835	 1.4343246908	-0.110012931	-0.452097
C	 0.0136222709	 0.0246780638	 0.0242733234	 0.178319
C	 0.3767020891	-0.5402970208	 1.4289276173	-0.098603
C	-0.6631391642	 0.2600314154	 2.2430646535	-0.195747
C	-1.8617671916	-0.4619139396	 1.5811429854	-0.032582
C	-1.5767804587	-1.866962256	 2.1655427977	-0.195408
C	-0.2624817163	-2.0283359243	 1.3659752535	-0.033722
C	-0.9152336703	-2.0782636924	-0.0413228997	-0.210854
C	-1.3938584275	-0.6098500924	 0.0368817006	-0.055697
H	 0.8947583499	 1.7551527211	-0.0332434762	 0.277997
H	 0.6300710147	-0.3987941989	-0.7776938343	 0.056482
H	 1.4230073935	-0.4864095064	 1.7341121482	 0.048816
H	-0.6272029871	 0.0973925933	 3.3223966622	 0.080211
H	-0.5992209524	 1.327383498	 2.0388465993	 0.104695
H	-2.8541593903	-0.0392289794	 1.7328477682	 0.05847
H	-1.4670897518	-1.842390352	 3.2523538532	 0.086158
H	-2.3043365666	-2.6430795643	 1.9145885486	 0.085068
H	 0.4049304877	-2.8439983072	 1.6433798385	 0.056871
H	-0.2359428616	-2.2540692533	-0.8788023287	 0.087574
H	-1.7109583373	-2.824487575	-0.0925858248	 0.089675
H	-2.0950699267	-0.2523383505	-0.7158694849	 0.064375
219.8682	266.4252	336.6575	392.0341	493.1389	532.0948	595.9077	624.7936	683.2455	772.2086	784.4849	801.89	869.0402	886.0631	894.2447	908.9087	914.4398	926.941	943.6454	954.5696	974.5444	1000.6813	1032.8754	1066.4944	1087.7268	1106.6448	1133.0973	1157.158	1159.7338	1184.7737	1201.4417	1205.9295	1228.2389	1269.0166	1274.2343	1277.8229	1283.2183	1300.0665	1310.3586	1329.5418	1351.2785	1445.1525	1499.3083	1520.6589	1548.2284	3016.8442	3057.7186	3067.7155	3076.6432	3097.8781	3101.3872	3110.616	3116.8374	3118.9579	3130.8746	3145.4665	3808.6968
OC1C2CC3CC2CC13	O[C@H]1[C@H]2C[C@@H]3C[C@H]2C[C@H]13	
InChI=1S/C8H12O/c9-8-6-2-4-1-5(6)3-7(4)8/h4-9H,1-3H2	InChI=1S/C8H12O/c9-8-6-2-4-1-5(6)3-7(4)8/h4-9H,1-3H2/t4-,5-,6-,7-/m0/s1
