19
gdb 5805	3.50839	1.3516	1.24833	4.7178	68.08	-0.2473	0.0182	0.2655	1066.606	0.163285	-402.250478	-402.24094	-402.239996	-402.284466	35.41	
C	 0.090390703	 1.5172777108	 0.0576205106	-0.399777
C	 0.0445058217	-0.0125653436	 0.0644625827	 0.366818
C	 0.9312373624	-0.5700288578	 1.1928690715	-0.416793
O	-1.3134000779	-0.3645087261	 0.2820414788	-0.472321
C	 0.5022271442	-0.5482401375	-1.3175149563	-0.341169
C	 0.3905179884	-2.0629071337	-1.4432424059	 0.424499
N	 1.3126280009	-2.6576024283	-2.2445068488	-0.515741
O	-0.4792766768	-2.7156048009	-0.879308416	-0.380708
H	 1.1096290879	 1.88675319	-0.0932206662	 0.101818
H	-0.5502486504	 1.9149724621	-0.7348498047	 0.114824
H	-0.2793940127	 1.8985871637	 1.0135850704	 0.123344
H	 0.583048554	-0.181610513	 2.1537661885	 0.121462
H	 0.8741165157	-1.6614946915	 1.2297782729	 0.125359
H	 1.980514452	-0.2808937071	 1.0635950106	 0.09792
H	-1.3717004808	-1.3163219364	 0.0958734349	 0.29136
H	-0.1539488997	-0.1147327923	-2.0824391249	 0.13554
H	 1.523650836	-0.2197476801	-1.5403741804	 0.095771
H	 2.021507812	-2.1355344352	-2.7278014386	 0.263446
H	 1.2418355701	-3.6496867931	-2.4039941391	 0.264347
46.346	118.5357	200.8266	213.1541	217.0903	261.2193	314.7762	336.4432	352.0178	400.4526	454.0399	497.6665	533.4731	628.2173	646.8723	683.564	799.4705	857.4163	902.6373	928.1184	943.8246	995.7023	1020.9227	1088.7834	1145.4921	1176.0532	1235.1493	1284.1519	1287.6785	1392.9604	1398.5299	1414.1595	1446.2276	1450.6697	1477.3551	1490.6568	1504.3642	1511.1476	1618.4919	1760.2602	3029.8705	3033.0492	3040.8544	3076.5981	3104.5881	3113.8296	3117.2761	3122.1178	3601.7786	3657.613	3741.4914
CC(C)(O)CC(N)=O	CC(C)(O)CC(=O)N	
InChI=1S/C5H11NO2/c1-5(2,8)3-4(6)7/h8H,3H2,1-2H3,(H2,6,7)	InChI=1S/C5H11NO2/c1-5(2,8)3-4(6)7/h8H,3H2,1-2H3,(H2,6,7)
