20
gdb 56040	4.03249	0.92822	0.78818	6.3012	75.51	-0.2487	0.0275	0.2762	1436.6944	0.173723	-440.333873	-440.325394	-440.32445	-440.367795	31.634	
O	 0.0671694054	 0.0199487102	-0.7432746306	-0.374554
C	 0.0567317852	 1.162541223	-0.0403906683	 0.405116
O	 1.0457652327	 1.5856154961	 0.4970053736	-0.331831
C	-1.2852281721	 1.9106721688	 0.0122559431	-0.373203
C	-2.5232651056	 1.0225063443	-0.0612374749	 0.039823
C	-3.8938943575	 1.717686702	 0.0337894496	-0.223305
C	-4.862759759	 0.712193306	-0.6448990726	-0.227262
C	-3.928540822	-0.3041353523	-1.3719187465	-0.17812
N	-2.5697942147	 0.2719360482	-1.3381637216	-0.308356
H	-2.4951787021	 0.9524535194	-2.0942411089	 0.2257
H	-0.8365472142	-0.1629720479	-1.1028102277	 0.30762
H	-1.2826525087	 2.5018805036	 0.9302505105	 0.140679
H	-1.2969137691	 2.6295483865	-0.8201926955	 0.122842
H	-2.4610438971	 0.2643325085	 0.7326835641	 0.100805
H	-4.1759762357	 1.9529042569	 1.0631252224	 0.111725
H	-3.8633162275	 2.6636938539	-0.5195952892	 0.101035
H	-5.4947944973	 0.2034560882	 0.0874470382	 0.112797
H	-5.5308315743	 1.216913554	-1.3471649943	 0.110482
H	-3.9099935962	-1.2601163519	-0.8391409514	 0.123067
H	-4.2243595802	-0.5089877775	-2.4028384099	 0.114941
71.3411	86.437	134.0043	160.7088	243.0587	328.4725	372.336	465.6902	564.4317	626.3706	674.4978	698.2541	787.862	844.1089	858.15	874.456	898.797	911.6934	959.2827	989.2322	1008.0646	1045.0666	1074.2691	1090.9944	1123.6182	1167.6658	1211.8162	1244.0206	1268.674	1280.4652	1303.511	1309.3043	1320.8568	1352.7189	1376.8162	1395.1207	1450.3234	1471.3358	1477.6015	1491.6968	1499.8137	1515.2932	1858.3373	3002.1506	3019.7773	3040.5217	3054.9365	3067.2756	3092.8875	3106.261	3116.0322	3120.4149	3294.3021	3454.2412
[O-]C(=O)CC1CCC[NH2+]1	OC(=O)C[C@H]1CCCN1	
InChI=1S/C6H11NO2/c8-6(9)4-5-2-1-3-7-5/h5,7H,1-4H2,(H,8,9)	InChI=1S/C6H11NO2/c8-6(9)4-5-2-1-3-7-5/h5,7H,1-4H2,(H,8,9)/t5-/m1/s1
