19
gdb 114290	2.34495	1.41683	1.07663	3.2844	79.09	-0.2551	0.0089	0.264	1187.2623	0.159793	-382.038589	-382.029942	-382.028997	-382.072168	32.231	
C	-0.0011347948	 1.6322132305	 0.0335719463	-0.382258
C	 0.1492854712	 0.1148574831	-0.1227229138	-0.222457
C	 0.7069903648	-0.5420497023	 1.1364593918	 0.024057
C	-0.1273954613	-0.6623170466	 2.4468400616	-0.203942
N	 0.2138444161	-2.1305689149	 2.5921228743	-0.139155
C	-0.386375789	-2.8236646934	 1.425615405	-0.156006
C	-1.6713873998	-2.4594628989	 0.8847418042	 0.314533
N	-2.7202473573	-2.1986255621	 0.4714298443	-0.350017
C	 0.8760054205	-2.0584681183	 1.2319722304	-0.074175
H	 0.9610531632	 2.1082406402	 0.2540067022	 0.113627
H	-0.3964323314	 2.0848318819	-0.8802159665	 0.121129
H	-0.6891139052	 1.8808893268	 0.8490448664	 0.122779
H	-0.8181815096	-0.3242079601	-0.3829312768	 0.132769
H	 0.8255984225	-0.1042215217	-0.9593453159	 0.100037
H	 1.6705640083	-0.0812712676	 1.3798398071	 0.091848
H	 0.2764313956	-0.1123906481	 3.2970621964	 0.122486
H	-1.2015683513	-0.4715079991	 2.3706281617	 0.133721
H	-0.2589958915	-3.9002555393	 1.5043564591	 0.143546
H	 1.790102329	-2.6044760602	 1.0159164024	 0.107476
72.387	126.8929	141.687	188.0816	214.6482	281.9697	364.2091	422.7652	451.3312	569.5213	598.7766	728.1364	755.0104	766.2385	794.0423	868.8292	906.1149	956.5869	964.5458	988.4163	1004.9593	1058.2147	1070.6084	1096.2615	1142.9019	1164.1496	1204.3638	1224.8673	1260.0217	1286.7456	1300.2124	1338.9302	1360.9577	1396.7414	1408.0794	1413.269	1487.9604	1499.1972	1502.6272	1507.4939	2347.2933	3026.7535	3030.9592	3045.2774	3067.9855	3083.1098	3104.3383	3110.0471	3133.5205	3146.4752	3156.4578
CCC1CN2C(C#N)C12	CC[C@H]1CN2[C@@H](C#N)[C@@H]12	
InChI=1S/C7H10N2/c1-2-5-4-9-6(3-8)7(5)9/h5-7H,2,4H2,1H3	InChI=1S/C7H10N2/c1-2-5-4-9-6(3-8)7(5)9/h5-7H,2,4H2,1H3/t5-,6-,7+,9?/m0/s1
