21
gdb 58920	2.77281	1.55337	1.22206	1.633	81.72	-0.2274	0.0746	0.302	1108.1574	0.181547	-387.007646	-386.999185	-386.998241	-387.040566	33.352	
C	-0.0912195126	 1.5457559126	-0.052899127	-0.393096
C	-0.0487691745	 0.0118604597	 0.0203483444	-0.126618
C	 0.8269451876	-0.4813993813	 1.1798449039	-0.398499
C	-1.4451532811	-0.544612103	 0.0872622805	 0.514835
O	-2.3544373248	-0.2059902656	-1.0187508949	-0.368167
C	-3.1493329554	-1.0392951409	-0.134840116	 0.083266
C	-1.9887437279	-2.0124738645	 0.2287577205	-0.148338
C	-2.2574802795	-1.8553405793	 1.7415718342	-0.284271
C	-2.5703091841	-0.4488361099	 1.185065041	-0.13469
H	 0.9101429812	 1.9517899524	-0.2270447144	 0.108452
H	-0.7477454626	 1.8769139007	-0.8609137114	 0.139609
H	-0.4675373615	 1.9700612272	 0.8849112208	 0.112454
H	 0.3789065097	-0.3628337073	-0.9202684317	 0.089189
H	 0.43840178	-0.1353208627	 2.1438954671	 0.120527
H	 0.8863006038	-1.5737027535	 1.2089916416	 0.119829
H	 1.8447331309	-0.0930671128	 1.0757816071	 0.115613
H	-4.1821392857	-1.2579913601	-0.4049206009	 0.091751
H	-1.6666168941	-2.8831379579	-0.3431609279	 0.078439
H	-3.1110308489	-2.4143381515	 2.1359992221	 0.09653
H	-1.4021331335	-1.9479503919	 2.4136813008	 0.10352
H	-2.9101196769	 0.4513263096	 1.6975209403	 0.079666
64.9277	174.8174	184.1288	218.7257	264.4409	312.4535	347.1707	446.4116	474.742	545.4982	610.7087	748.508	772.4362	817.7671	853.1487	872.2248	886.168	898.999	920.1557	933.976	968.8591	993.4569	1012.1742	1048.2444	1062.7105	1095.4238	1127.2612	1139.6085	1146.7023	1166.5009	1179.7354	1189.203	1239.9708	1250.7207	1263.7963	1343.3564	1345.4261	1387.701	1398.1233	1422.7522	1488.2878	1489.8725	1502.3277	1512.0173	1522.2343	3009.861	3032.3444	3035.9777	3057.3258	3097.4797	3103.3163	3106.885	3111.82	3115.2978	3119.1514	3126.8855	3129.7312
CC(C)C12OC3C1CC23	CC(C)[C@@]12O[C@H]3[C@@H]1C[C@@H]23	
InChI=1S/C8H12O/c1-4(2)8-5-3-6(8)7(5)9-8/h4-7H,3H2,1-2H3	InChI=1S/C8H12O/c1-4(2)8-5-3-6(8)7(5)9-8/h4-7H,3H2,1-2H3/t5-,6+,7-,8+
