16
gdb 80036	3.15964	1.39813	1.1929	4.6894	73.61	-0.2623	-0.0299	0.2324	1037.8762	0.125857	-400.726494	-400.719353	-400.718409	-400.757902	28.642	
O	 0.0977792693	 1.5540239167	-0.0603776755	-0.433002
C	 0.044944926	 0.1739651125	-0.0182645577	 0.16997
C	 0.1557117481	-0.6083718603	 1.3515486137	-0.120663
C	-1.0551326622	-0.0365187266	 2.0934636859	-0.118207
C	-2.0218892566	-0.0278651101	 1.1655547839	-0.11821
C	-1.335516624	-0.5949640431	-0.0797938892	-0.120663
C	-0.5532615447	-1.7959525344	 0.5865117367	-0.141762
C	 0.2841146133	-2.5983158233	-0.2934196974	 0.271002
N	 0.9414673874	-3.2527897456	-0.9844066729	-0.32976
H	-0.5300867612	 1.8849906542	 0.5968009921	 0.278579
H	 0.7556493109	-0.1923902692	-0.7621302858	 0.122052
H	 1.0962262711	-0.7487123814	 1.8802848661	 0.089102
H	-1.082671589	 0.2710191481	 3.1288108905	 0.118173
H	-3.0523292042	 0.2886528397	 1.2382980734	 0.118172
H	-1.9035869251	-0.7217386624	-0.9990597697	 0.089102
H	-1.1625341392	-2.4468613348	 1.215174926	 0.126115
140.7043	160.1359	273.5641	317.1575	402.1361	484.2415	485.1847	512.6532	590.2729	594.41	737.1119	775.3705	802.2544	829.5444	876.7593	913.0271	926.0792	932.9144	938.4208	990.4415	1027.0115	1075.0062	1126.3232	1162.2224	1166.4135	1187.0447	1218.1633	1235.8541	1248.5719	1303.7002	1325.11	1336.549	1462.2399	1611.4039	2348.1686	3107.5428	3108.3465	3145.1095	3147.1246	3226.7413	3251.9016	3742.0236
OC1C2C=CC1C2C#N	O[C@H]1[C@H]2C=C[C@@H]1[C@H]2C#N	
InChI=1S/C7H7NO/c8-3-6-4-1-2-5(6)7(4)9/h1-2,4-7,9H	InChI=1S/C7H7NO/c8-3-6-4-1-2-5(6)7(4)9/h1-2,4-7,9H/t4-,5+,6-,7-
