18
gdb 91722	2.60439	1.67547	1.50679	4.2843	71.02	-0.2298	0.0202	0.25	968.9875	0.150096	-439.125492	-439.118174	-439.11723	-439.156995	29.461	
C	-0.1763196477	 1.5428388852	-0.0183437786	-0.415242
C	 0.0252581027	 0.0383631011	 0.0334385184	 0.154477
O	 0.8322274061	-0.3960287687	-1.0859194412	-0.299779
C	 1.893133847	-1.222097738	-0.5464209476	-0.018537
C	 1.2253070942	-1.8996183308	 0.6522649864	-0.238406
C	 0.8194364176	-0.5268941875	 1.2390937706	-0.05601
N	 2.1363383386	 0.1147903196	 1.2908230317	-0.300403
C	 2.8460771611	-0.2216174752	 0.1471271917	 0.426682
O	 3.90502491	 0.2261667949	-0.2184709348	-0.381601
H	 0.775016348	 2.0741120546	 0.0690426272	 0.125279
H	-0.6308792441	 1.823698772	-0.972080913	 0.136972
H	-0.8438679316	 1.8698680882	 0.7864507732	 0.112081
H	-0.9514546539	-0.4645045499	-0.0208810291	 0.080358
H	 2.3321544063	-1.814395801	-1.3446944451	 0.100106
H	 0.3772991994	-2.5256349134	 0.3685312909	 0.114868
H	 1.91355345	-2.4462762025	 1.2985838394	 0.11989
H	 0.3016577672	-0.5151929874	 2.1973351641	 0.087028
H	 2.308870369	 0.991332599	 1.7587261859	 0.252238
119.2734	207.7332	241.2143	280.6027	401.5324	443.274	473.823	498.2059	527.3574	610.894	729.0194	750.9263	790.4675	835.4436	867.5713	885.95	935.9378	957.6817	981.0719	1002.3294	1016.4586	1066.0217	1086.5049	1139.7016	1145.762	1190.0394	1221.8637	1265.9911	1283.7195	1294.6228	1322.8229	1357.9414	1388.2517	1392.3564	1412.4912	1485.2063	1491.5991	1499.1133	1854.2406	2994.6198	3040.6423	3081.9824	3112.6112	3126.0169	3130.3058	3144.8028	3167.5035	3630.8364
CC1OC2CC1NC2=O	C[C@H]1O[C@@H]2C[C@H]1NC2=O	
InChI=1S/C6H9NO2/c1-3-4-2-5(9-3)6(8)7-4/h3-5H,2H2,1H3,(H,7,8)	InChI=1S/C6H9NO2/c1-3-4-2-5(9-3)6(8)7-4/h3-5H,2H2,1H3,(H,7,8)/t3-,4-,5-/m1/s1
