14
gdb 5426	3.44362	1.87335	1.21626	5.925	68.78	-0.2008	-0.0169	0.1839	920.9895	0.108703	-378.770454	-378.763148	-378.762204	-378.801846	27.196	
N	 0.0910559253	 1.374568652	 0.1571531459	-0.601992
C	-0.0065804399	-0.0091584601	 0.0422406357	 0.251863
C	-1.1085380704	-0.866942083	 0.0213026786	 0.15213
C	-2.4972745708	-0.4754471163	-0.0082884085	 0.060131
O	-3.4477434827	-1.2330007654	-0.0303570339	-0.305215
C	-0.5882768881	-2.2085887278	-0.0078879431	-0.237766
C	 0.7685583177	-2.1276694365	-0.0169463918	-0.078937
N	 1.1156962888	-0.7776531229	 0.0141924262	-0.290887
H	 0.6958543352	 1.8030254916	-0.534045027	 0.25337
H	-0.8125526983	 1.8273920608	 0.1455351474	 0.262483
H	-2.6696081268	 0.630369934	-0.0169467023	 0.022713
H	-1.1898316464	-3.1025164231	-0.0363172553	 0.122835
H	 1.5339285135	-2.8853275401	-0.0487172507	 0.126672
H	 2.0502590828	-0.4194486932	 0.1147082988	 0.2626
149.1673	181.6018	205.202	227.6613	321.3553	351.2983	474.5486	553.2151	624.6725	651.5381	661.7516	711.2106	751.8486	808.7189	859.6716	915.5119	1023.2167	1048.1719	1077.212	1129.5274	1193.7254	1293.2713	1348.8119	1403.9391	1445.6642	1537.6889	1550.836	1607.252	1659.8423	1772.9236	2796.8525	3264.1432	3283.513	3528.8615	3631.3894	3669.159
NC1=C(C=O)C=CN1	Nc1c(C=O)cc[nH]1	
InChI=1S/C5H6N2O/c6-5-4(3-8)1-2-7-5/h1-3,7H,6H2	InChI=1S/C5H6N2O/c6-5-4(3-8)1-2-7-5/h1-3,7H,6H2
