18
gdb 53035	5.43337	0.88859	0.84528	1.7983	87.82	-0.2172	0.041	0.2581	1421.2636	0.147815	-364.712203	-364.703965	-364.70302	-364.746623	30.641	
C	-0.037016159	 1.4293538878	-0.0226506291	-0.513649
C	-0.0166917131	-0.025265739	 0.0032827843	 0.33318
C	-0.0017800542	-1.2312580949	 0.0225253233	-0.346643
C	 0.0552721499	-2.6502062032	 0.0695387726	 0.256903
C	 1.1400068661	-3.5637860059	 0.6372027691	-0.24049
N	 0.5514802683	-4.7183533311	-0.1417947514	-0.182295
C	-0.7866531933	-4.8936523894	 0.5540473367	-0.181499
C	-1.2165747345	-3.5497009094	-0.0026849486	-0.130962
C	-0.1430296022	-3.6685262066	-1.0354216369	-0.077431
H	 0.9783197975	 1.8410358394	-0.0457096111	 0.149127
H	-0.562562663	 1.8015708063	-0.9093406494	 0.149081
H	-0.5422292771	 1.8413788098	 0.858316759	 0.147595
H	 2.1275449299	-3.3180167861	 0.2399905644	 0.115694
H	 1.2009352774	-3.7228437612	 1.7196220721	 0.100498
H	-1.324888759	-5.7276069377	 0.0955825985	 0.113248
H	-0.7221067656	-5.044158212	 1.6372714745	 0.101755
H	-2.1950783395	-3.0965923594	-0.0960433324	 0.099085
H	-0.0991100486	-3.6094805574	-2.1133257355	 0.106803
19.1312	94.871	102.4767	270.0807	299.6648	392.9693	442.1127	474.4857	509.6443	531.4035	704.619	777.5144	829.3766	839.2236	856.2797	916.4335	929.7174	969.7165	998.1862	1002.4558	1040.2624	1052.6973	1055.0727	1083.855	1096.2349	1131.5689	1157.255	1187.5612	1206.0997	1257.5404	1278.1364	1310.7529	1403.7115	1422.8603	1476.1053	1478.8467	1499.9904	1521.1328	2360.5716	3023.6178	3034.816	3043.6957	3082.86	3084.9486	3099.4316	3108.4175	3199.6735	3225.4102
CC#CC12CN3CC1C23	CC#C[C@@]12CN3C[C@@H]1[C@@H]23	
InChI=1S/C8H9N/c1-2-3-8-5-9-4-6(8)7(8)9/h6-7H,4-5H2,1H3	InChI=1S/C8H9N/c1-2-3-8-5-9-4-6(8)7(8)9/h6-7H,4-5H2,1H3/t6-,7+,8-/m1/s1
