16
gdb 55657	2.50896	1.16344	0.95057	1.7107	73.88	-0.252	-0.0306	0.2214	1277.8826	0.119828	-437.859851	-437.849969	-437.849025	-437.895595	34.182	
C	-0.0632971388	 1.4480907392	-0.0994314942	-0.467081
C	 0.0409035579	-0.041022058	 0.0821715207	 0.426866
N	 0.0916634215	-0.7191183892	 1.1510300559	-0.527952
O	 0.0854897839	-0.6460847381	-1.1341284706	-0.236432
C	 0.0615483018	-2.0668428246	-1.1285173959	-0.148866
C	-1.383086089	-2.5871825254	-0.988458974	 0.159647
O	-2.3367455341	-1.876719709	-0.8540465577	-0.228578
C	 0.6440610887	-2.5769533184	-2.3616899989	 0.287938
C	 1.0750842824	-3.0536354975	-3.3763051783	-0.398512
H	-0.0269245816	 1.9618630733	 0.862171845	 0.128796
H	 0.749947564	 1.8091574511	-0.7355660441	 0.150083
H	-1.0040274191	 1.6905950172	-0.6026590566	 0.16089
H	 0.0618124514	-0.116884082	 1.969061519	 0.226733
H	 0.6118092274	-2.4423741696	-0.254412009	 0.158711
H	-1.4537598721	-3.695085467	-1.0284368378	 0.099902
H	 1.4760080356	-3.4623184019	-4.2712000833	 0.207855
55.435	74.001	103.7059	123.9358	138.9327	188.9367	285.2942	304.3991	383.168	469.2035	524.4335	566.051	599.9621	615.8541	690.1294	706.1496	812.8091	843.6903	930.6466	1005.8922	1010.6319	1048.3453	1069.0698	1085.882	1119.2031	1262.7801	1318.2042	1372.8835	1403.172	1420.0445	1470.3499	1481.0208	1734.311	1854.3131	2242.0535	2910.0542	3021.2783	3052.2064	3118.3758	3147.6139	3501.8161	3532.02
CC(=N)OC(C=O)C#C	C[C]([NH])O[C@@H](C=O)C#C	
InChI=1S/C6H7NO2/c1-3-6(4-8)9-5(2)7/h1,4,6-7H,2H3	InChI=1S/C6H7NO2/c1-3-6(4-8)9-5(2)7/h1,4,6-7H,2H3/t6-/m1/s1
