21
gdb 68109	4.43006	1.00061	0.99288	1.7877	83.79	-0.2594	0.0928	0.3521	1303.6441	0.182354	-387.025927	-387.017468	-387.016524	-387.059165	32.943	
C	-0.0509472711	 1.4563241372	-0.0736457153	-0.507729
C	 0.0003098703	-0.0452841772	 0.0088543024	 0.328914
C	 0.5061862354	-1.0388407801	-1.0824011871	-0.294881
C	 0.0602769027	-1.9310650049	 0.1167593865	 0.374161
C	 0.7886521882	-0.9105892426	 1.0430377865	-0.299101
C	-1.1981000853	-1.0227150091	 0.2268452807	-0.298041
C	 0.1200995385	-3.4159835556	 0.1933634592	-0.087237
C	-0.8924412395	-4.211030245	 0.9018090731	-0.17942
O	-0.8910855525	-4.136350949	-0.5237825583	-0.235384
H	 0.9481457749	 1.8766372027	-0.2336757952	 0.117765
H	-0.6886615929	 1.7833566574	-0.9023025817	 0.119497
H	-0.4525404222	 1.8889609323	 0.849404588	 0.117532
H	-0.0924769707	-1.1174164238	-1.9942118817	 0.095595
H	 1.5775628636	-1.0171250611	-1.3050701449	 0.084345
H	 1.8806666138	-0.8786451855	 0.9770402584	 0.086268
H	 0.4494853791	-0.8656540344	 2.0826482238	 0.086452
H	-1.6888628382	-0.9781075573	 1.2042694918	 0.083414
H	-1.9256637275	-1.0998683386	-0.5853001457	 0.097936
H	 1.1191920184	-3.8457582344	 0.093338141	 0.085773
H	-0.6210262744	-5.1788862786	 1.3217761592	 0.112371
H	-1.7218612104	-3.7059574424	 1.3942571992	 0.11177
61.6056	134.5906	155.0519	209.4224	290.3532	297.9599	397.1487	457.2972	540.9963	556.0938	610.727	646.3235	780.5537	788.1537	851.6587	896.5854	931.2584	944.776	962.4239	963.1292	991.7715	1007.5129	1073.3806	1077.1589	1096.1074	1110.8961	1137.2926	1144.212	1157.2549	1160.9729	1169.4672	1173.4274	1207.7424	1209.459	1279.0455	1310.3664	1344.4257	1412.4174	1444.9903	1489.8024	1489.9877	1496.9424	1497.7631	1526.6663	1562.688	3025.2097	3036.1679	3039.5279	3048.7791	3081.1393	3086.9181	3092.5367	3093.7175	3101.3151	3108.6357	3112.3328	3169.9522
CC12CC(C1)(C2)C1CO1	C[C@@]12C[C@@](C1)(C2)[C@H]1CO1	
InChI=1S/C8H12O/c1-7-3-8(4-7,5-7)6-2-9-6/h6H,2-5H2,1H3	InChI=1S/C8H12O/c1-7-3-8(4-7,5-7)6-2-9-6/h6H,2-5H2,1H3/t6-,7-,8-/m1/s1
