17
gdb 68559	2.53577	1.63793	1.36771	3.0059	76.58	-0.2503	-0.0145	0.2358	1002.2609	0.136782	-380.834684	-380.827002	-380.826058	-380.866601	30.176	
C	-0.0148175969	 1.5268321503	-0.0182509816	-0.518726
C	-0.0154966892	 0.0227315658	 0.0126589033	 0.275028
N	 0.4071487809	-0.7552343063	-1.2310855546	-0.333332
C	-0.287124847	-1.8898820956	-0.4997602356	-0.077538
C	 0.6418879549	-2.0125404709	 0.714421446	-0.057148
C	 0.8229249664	-0.738418975	 1.0572395945	-0.086932
C	-1.3434319853	-0.847013518	 0.020603161	-0.194861
C	-2.0871673697	-1.0703755017	 1.2524180797	 0.268163
N	-2.6854069439	-1.2368416426	 2.2279108105	-0.326952
H	 0.9989123668	 1.899710393	-0.1949650713	 0.142002
H	-0.6627207977	 1.9114698928	-0.8121588012	 0.121236
H	-0.3693362603	 1.9322353009	 0.9345975039	 0.141001
H	-0.2056147958	-0.4601132883	-1.9989111788	 0.207573
H	-0.5740908563	-2.7769058965	-1.0610723778	 0.087088
H	 1.026835132	-2.9259466877	 1.1410152765	 0.121657
H	 1.4029247063	-0.2894996503	 1.8497461258	 0.11792
H	-2.0317950051	-0.5321915098	-0.7710585002	 0.11382
123.6477	149.3453	200.9427	284.8351	296.0504	401.8731	459.4796	528.1476	564.0514	593.6562	622.5922	734.7889	781.1827	813.0034	837.7962	856.6125	893.2289	914.9565	925.1359	951.8469	1045.2882	1062.4421	1083.9887	1100.4245	1134.3999	1172.3932	1220.1662	1254.6268	1272.6154	1289.9672	1366.138	1379.6266	1416.4059	1487.2515	1490.4717	1631.988	2349.935	3037.7712	3058.9519	3108.1137	3113.4507	3144.7226	3237.5057	3264.9347	3383.4793
CC12NC(C=C1)C2C#N	C[C@@]12N[C@@H](C=C1)[C@H]2C#N	
InChI=1S/C7H8N2/c1-7-3-2-6(9-7)5(7)4-8/h2-3,5-6,9H,1H3	InChI=1S/C7H8N2/c1-7-3-2-6(9-7)5(7)4-8/h2-3,5-6,9H,1H3/t5-,6+,7-/m1/s1
