16
gdb 49689	2.92125	1.32237	1.12806	2.9609	75.85	-0.2603	-0.0523	0.208	1095.1825	0.124275	-400.743392	-400.735318	-400.734374	-400.776364	29.592	
O	-0.9525664429	 1.2205458624	 0.5504273981	-0.258616
C	 0.1911968696	 0.9062391468	 0.3230334802	 0.138194
C	 1.3582322939	 1.8327145968	 0.2664644312	-0.151889
C	 1.3387811034	 3.2691308779	-0.2105361417	-0.119318
C	 0.0375759214	 4.0010333411	 0.1410170606	-0.224463
C	 0.2837598257	 3.6941465232	 1.6514740942	-0.28493
C	 1.592580561	 2.9728692323	 1.2697308769	 0.187481
C	 2.8106158373	 3.02231474	 2.0105852317	 0.197961
N	 3.7933340967	 3.0749693869	 2.6205508655	-0.34474
H	 0.4585840886	-0.1565393868	 0.1324955334	 0.095359
H	 2.2873168441	 1.3275915589	 0.0166684802	 0.12124
H	 2.0650940501	 3.5805657509	-0.9512951274	 0.121028
H	 0.1070006117	 5.0677934413	-0.0786936405	 0.118075
H	-0.8742851171	 3.5947816953	-0.2946600455	 0.137708
H	 0.4873460544	 4.5932129327	 2.2345991906	 0.128509
H	-0.4628464778	 3.0848749204	 2.1591150323	 0.1384
80.6333	123.9284	164.9398	216.613	221.2028	336.6629	368.6577	524.6632	548.6039	572.2003	700.0013	718.8021	802.6317	823.3499	877.8699	922.4046	952.0003	962.3336	1026.9206	1049.0706	1071.0454	1092.7673	1147.2998	1209.3294	1212.1299	1236.1631	1248.4298	1285.1533	1335.2296	1432.1365	1442.4933	1472.0156	1492.8932	1809.1553	2343.8156	2888.6535	3087.042	3094.7178	3146.021	3157.2072	3159.4281	3193.908
O=CC1C2CCC12C#N	O=C[C@H]1[C@H]2CC[C@@]12C#N	
InChI=1S/C7H7NO/c8-4-7-2-1-5(7)6(7)3-9/h3,5-6H,1-2H2	InChI=1S/C7H7NO/c8-4-7-2-1-5(7)6(7)3-9/h3,5-6H,1-2H2/t5-,6+,7+/m1/s1
