16
gdb 51507	3.13443	1.16822	0.94256	3.9499	73.05	-0.2463	-0.0306	0.2156	1223.4226	0.124217	-437.935987	-437.927688	-437.926744	-437.970399	29.84	
O	 0.0146284689	-0.0777359868	 0.6089157403	-0.316358
C	-0.034564266	 1.0883604613	 0.2832989194	 0.160837
N	 1.0023666576	 1.7935561251	-0.252958387	-0.279855
C	 2.3371998525	 1.243890071	-0.3374970924	-0.105792
C	 2.9511464509	 1.1513097352	-1.7136268364	-0.085501
C	 4.2159096435	 1.5764143122	-1.734496102	-0.083855
C	 4.6862723583	 2.0674078678	-0.3893277214	-0.367063
C	 3.3872561355	 2.0919214486	 0.4257912635	 0.367782
O	 3.1761140105	 2.7169520498	 1.4284736999	-0.293269
H	-0.9494069579	 1.7047933682	 0.3715856489	 0.084089
H	 0.8849083956	 2.7871998234	-0.3790009228	 0.253115
H	 2.2690575035	 0.2525502687	 0.1328334303	 0.156283
H	 2.4016083379	 0.7490188901	-2.5559966325	 0.115945
H	 4.8584889737	 1.5696210476	-2.607103964	 0.110946
H	 5.4004892462	 1.3810438259	 0.0873216988	 0.144837
H	 5.1629549893	 3.0537168819	-0.3982541526	 0.137859
27.9723	73.2316	161.793	175.7266	275.7912	346.696	446.891	489.668	509.211	561.8715	660.1624	702.7937	734.6549	760.3447	859.1662	944.7654	971.8084	984.6352	1018.6231	1032.6455	1075.6358	1126.6565	1133.6035	1161.9518	1217.8985	1245.9983	1280.5597	1323.7892	1377.6877	1426.7642	1449.1268	1518.8218	1675.3757	1804.2744	1861.1394	2953.6714	3019.7234	3023.7304	3071.2577	3194.545	3218.2474	3626.121
O=CNC1C=CCC1=O	O=CN[C@H]1C=CCC1=O	
InChI=1S/C6H7NO2/c8-4-7-5-2-1-3-6(5)9/h1-2,4-5H,3H2,(H,7,8)	InChI=1S/C6H7NO2/c8-4-7-5-2-1-3-6(5)9/h1-2,4-5H,3H2,(H,7,8)/t5-/m0/s1
