12
gdb 21555	2.25359	1.37394	0.90455	3.3081	59.62	-0.2449	-0.0175	0.2274	1184.4161	0.078175	-410.897537	-410.887073	-410.886129	-410.937138	31.704	
N	-0.0697845764	 1.4585275046	 0.1117035647	-0.537692
C	-0.1776985136	 0.1280243606	-0.2210126419	 0.432983
C	-1.5053720085	-0.4617808351	 0.0694046554	-0.39804
C	-1.756957247	-1.7115175636	-0.2702400986	 0.452095
N	-2.0268215642	-2.8158065465	-0.6921095212	-0.490909
N	 1.1211852688	-3.4572135774	 0.5719085362	-0.012836
N	 2.1807794875	-3.1697830472	 0.6022896138	 0.010053
O	 0.7575909897	-0.5043389898	-0.6789392312	-0.382125
H	 0.7640659279	 1.9231454994	-0.2116917967	 0.261119
H	-0.8924481235	 2.0261610094	 0.228034033	 0.255129
H	-2.2742716333	 0.1000764488	 0.5869495548	 0.125054
H	-1.8039327374	-3.6232435131	-0.112122128	 0.285168
16.8575	34.3195	47.5475	56.2995	79.4015	99.5268	144.8497	334.6044	397.9745	443.3519	480.0048	506.1731	577.2093	674.2398	776.8263	850.3107	899.8557	959.4602	1090.1049	1145.1607	1280.8292	1444.0785	1618.9173	1766.6913	2146.7021	2435.2099	3191.1242	3506.3988	3591.3104	3719.6583
NC1=CC(=N)N=NO1	NC(=O)[CH][C][NH].N#N	
InChI=1S/C3H4N4O/c4-2-1-3(5)8-7-6-2/h1,4H,5H2	InChI=1S/C3H4N2O.N2/c4-2-1-3(5)6;1-2/h1,4H,(H2,5,6);
