18
gdb 28435	3.08784	1.31167	0.92676	1.1855	85.16	-0.1906	0.0177	0.2083	1241.4618	0.148678	-402.02561	-402.016993	-402.016049	-402.058202	33.782	
C	 0.0004978341	 1.5218028018	 0.0501190845	-0.538517
C	 0.0298131914	 0.0142629903	 0.0153269026	 0.160653
C	-0.0222300566	-0.7020084824	-1.180431847	-0.164072
C	 0.0027370547	-2.090146526	-1.2181941257	-0.203953
C	 0.0842534605	-2.8192967327	-0.0242087866	 0.328255
N	 0.1737756828	-4.2139076696	-0.0426855232	-0.59304
C	 0.1357302402	-2.1223553834	 1.1866438346	-0.277367
C	 0.1098638488	-0.7320436141	 1.2020315253	 0.321043
O	 0.1623106572	-0.1330871032	 2.4289269669	-0.443359
H	 0.9039524972	 1.9487944627	 0.5082467059	 0.125584
H	-0.0645519117	 1.9295570978	-0.9616233501	 0.131309
H	-0.8627832575	 1.9126223098	 0.6074021168	 0.124576
H	-0.0871491329	-0.1508125979	-2.1146173153	 0.08431
H	-0.0354069809	-2.6121883759	-2.16896885	 0.075144
H	-0.2340675116	-4.6471591002	-0.8585419693	 0.243863
H	-0.1380971861	-4.6660478428	 0.8047043232	 0.244622
H	 0.20137679	-2.6505775007	 2.1321543956	 0.085651
H	 0.1386590404	 0.8217435764	 2.3135313619	 0.295298
136.3077	153.6561	227.7415	293.1952	297.6157	302.6555	325.0243	345.7078	450.518	461.8436	509.214	573.7045	601.5788	663.3353	721.3632	751.3683	764.7786	802.6115	859.7177	916.4561	963.2584	1008.068	1057.1243	1107.3468	1146.8393	1191.7285	1205.4142	1269.1106	1313.8556	1348.5839	1375.23	1411.3438	1485.3415	1487.1381	1516.5761	1547.3454	1621.6337	1654.264	1677.6622	2995.9751	3036.1195	3110.7015	3158.5177	3179.0943	3182.3694	3561.1384	3659.1139	3832.6968
CC1=CC=C(N)C=C1O	Cc1ccc(N)cc1O	
InChI=1S/C7H9NO/c1-5-2-3-6(8)4-7(5)9/h2-4,9H,8H2,1H3	InChI=1S/C7H9NO/c1-5-2-3-6(8)4-7(5)9/h2-4,9H,8H2,1H3
