20
gdb 106715	2.45837	1.56631	1.25064	2.3106	79.85	-0.225	0.0889	0.314	1109.968	0.170027	-403.073211	-403.06436	-403.063416	-403.106607	33.603	
C	 0.173254623	 1.2700622029	 0.2216318897	-0.254607
O	-0.1718189276	-0.055565106	-0.1398873704	-0.283419
C	 0.5114897803	-0.5241223807	-1.2384385499	 0.449466
C	 1.9349112904	-1.0336845738	-1.1359851616	-0.406174
C	 0.8278801143	-1.9987460017	-1.5208275046	 0.24892
C	 0.4365159366	-3.2037028251	-0.7161625395	-0.492166
C	 0.4621228844	-1.7484190379	-2.9697752182	-0.108907
N	-0.9518745793	-1.3040230833	-3.0022211872	-0.335265
C	 0.1237628864	-0.3225104788	-2.6849059427	-0.156474
H	 1.2448534516	 1.3595020995	 0.4498792222	 0.108893
H	-0.0755963783	 1.9862202406	-0.5744703704	 0.109851
H	-0.4066791916	 1.5192354304	 1.1130716827	 0.127659
H	 2.700499276	-0.7416629858	-1.8503617289	 0.100572
H	 2.2905081307	-1.1406397426	-0.1151121026	 0.114989
H	 0.4930445752	-2.9905372268	 0.3557371728	 0.124515
H	-0.5927396167	-3.4939279779	-0.9477634727	 0.137421
H	 1.0913663918	-4.0578689264	-0.9241420528	 0.112977
H	 0.9483619761	-2.1467722984	-3.8531195441	 0.089839
H	-1.1987163036	-1.1625514857	-3.9837094797	 0.221711
H	 0.2869085503	 0.5437774374	-3.3157199922	 0.090199
79.2656	140.4388	171.9812	196.6134	210.419	251.864	297.7862	407.1591	442.0208	543.3871	581.7358	619.0391	744.7898	774.3966	822.5825	848.9055	864.475	928.4886	941.5341	965.8119	986.0115	1042.5224	1057.0249	1076.386	1086.4315	1126.493	1137.3051	1151.7858	1180.8004	1206.9795	1219.244	1263.7008	1293.5373	1338.2254	1362.1189	1400.4324	1419.6798	1476.3757	1486.2176	1488.5079	1497.4236	1503.5352	1507.6211	2989.5936	3029.0132	3042.1079	3092.4528	3107.8932	3111.0227	3120.5927	3171.0923	3183.752	3197.4624	3447.1363
COC12CC1(C)C1NC21	CO[C@@]12C[C@]1(C)[C@H]1N[C@@H]21	
InChI=1S/C7H11NO/c1-6-3-7(6,9-2)5-4(6)8-5/h4-5,8H,3H2,1-2H3	InChI=1S/C7H11NO/c1-6-3-7(6,9-2)5-4(6)8-5/h4-5,8H,3H2,1-2H3/t4-,5+,6+,7+/m0/s1
