13
gdb 47967	3.11295	0.83858	0.69386	2.7751	78.56	-0.2753	-0.0754	0.2	1528.9018	0.08498	-419.330274	-419.321203	-419.320259	-419.365493	31.042	
O	-0.0926145014	-0.0232293927	 0.2218118974	-0.222505
C	 0.0019496382	 1.1754371459	 0.0984368927	 0.014835
C	 1.2528971804	 1.8911196009	 0.0496827232	 0.054096
C	 2.2783403151	 2.5273448847	 0.0076374333	 0.059006
C	 3.5175581471	 3.2608715426	-0.0438095719	 0.109277
C	 3.7718700755	 4.1472578746	-1.2166178441	-0.199961
O	 3.3915102439	 4.7001087668	 0.0264980227	-0.245129
C	 4.6307585569	 2.6866703794	 0.6714947757	 0.266694
C	 5.5525410457	 2.1969464403	 1.2647371468	-0.434729
H	-0.8915667559	 1.8256702686	 0.0116310964	 0.108284
H	 4.8065491266	 4.3048577021	-1.515023468	 0.140886
H	 3.0255344895	 4.1891235582	-2.0077490571	 0.136676
H	 6.3659400684	 1.7647079385	 1.7943901929	 0.21257
44.0644	67.119	116.1803	170.4123	209.8924	223.0987	284.7465	429.9247	483.7837	505.6707	577.6134	597.9829	638.8676	677.5371	700.6861	820.9214	863.8956	945.1351	1018.9796	1038.9551	1137.3327	1167.892	1274.6985	1319.6188	1420.1901	1511.1042	1769.0155	2248.7892	2328.1538	2927.3416	3091.1011	3191.2894	3499.8592
O=CC#CC1(CO1)C#C	O=CC#C[C@]1(CO1)C#C	
InChI=1S/C7H4O2/c1-2-7(6-9-7)4-3-5-8/h1,5H,6H2	InChI=1S/C7H4O2/c1-2-7(6-9-7)4-3-5-8/h1,5H,6H2/t7-/m0/s1
