12
gdb 128948	7.76368	0.66999	0.61913	2.5319	69.	-0.2633	-0.0831	0.1802	1609.8526	0.075041	-468.811025	-468.802217	-468.801272	-468.846441	29.053	
N	 0.4117175076	-1.2265461893	-0.0101770481	-0.287416
C	 0.2199726177	-0.0883626366	-0.0029167461	 0.268391
C	-0.0709515589	 1.3439727063	 0.0066128355	-0.199951
O	 1.1747252574	 2.044572441	 0.0024800665	-0.251186
C	 1.0372828278	 3.4018200141	 0.0086582504	 0.478636
C	 2.35021848	 4.0166307673	 0.0042898416	-0.261493
N	 2.4075574396	 5.321935114	 0.0084422034	 0.309528
N	 2.4412448989	 6.449797555	 0.0137182101	-0.190896
O	-0.0307132879	 3.9667420534	 0.0166762164	-0.392058
H	-0.6679132338	 1.6138714665	-0.8705606503	 0.174883
H	-0.6566698031	 1.6042963191	 0.8942175692	 0.17481
H	 3.2845023447	 3.4782547993	-0.0032399786	 0.176751
22.4221	91.024	92.8613	165.87	173.6537	281.7438	358.0159	375.7307	469.1687	501.2514	559.3554	569.2061	747.5562	768.8233	949.3095	996.3283	1016.4765	1050.2314	1178.2597	1206.5052	1246.9431	1376.4743	1429.7059	1485.9243	1790.668	2246.4465	2377.5256	3057.185	3096.211	3258.4998
N#CCOC1=CN=NO1	N#CCOC(=O)[CH][N][N]	
InChI=1S/C4H3N3O2/c5-1-2-8-4-3-6-7-9-4/h3H,2H2	InChI=1S/C4H3N3O2/c5-1-2-9-4(8)3-7-6/h3H,2H2
