15
gdb 55570	5.34645	0.77856	0.68713	3.7877	70.16	-0.243	-0.0292	0.2138	1527.1207	0.11241	-450.180709	-450.171397	-450.170452	-450.216686	32.8	
N	 1.2711333352	-0.4338663813	-0.2235839339	-0.522003
C	 0.0470042533	 0.1071544439	 0.0162386234	 0.445634
N	-0.1223754418	 1.3530175359	 0.2366524917	-0.550135
N	-1.0354608072	-0.8230347426	-0.0473661358	-0.398014
C	-0.9932518904	-2.1908967913	-0.131617805	 0.468647
O	 0.0164567869	-2.8618204484	-0.155738311	-0.343502
C	-2.3978548526	-2.8201602675	-0.222877472	-0.489216
C	-2.3804555049	-4.2637267729	-0.0254186051	 0.298598
N	-2.4064889874	-5.4064608915	 0.1330852741	-0.28777
H	 2.0490980997	 0.1700477354	-0.0182510875	 0.267217
H	 1.3786021173	-1.4347794496	-0.150315296	 0.287586
H	-1.1009053776	 1.6005013017	 0.356284859	 0.204536
H	-1.9433968467	-0.3890205471	 0.0129721871	 0.256677
H	-3.071012723	-2.3637440731	 0.5118499807	 0.172494
H	-2.8132450509	-2.5970921616	-1.2135957396	 0.189251
15.0385	79.6955	105.7568	123.3171	249.4183	337.4493	370.0098	416.6304	437.2824	453.976	476.063	520.7057	569.3282	624.8199	721.521	756.1973	761.3784	893.9662	948.4589	958.472	1009.6266	1127.6412	1159.584	1200.7144	1228.3699	1338.8634	1405.31	1446.4315	1501.6709	1605.5879	1762.4494	1802.1008	2381.0496	3040.6335	3080.901	3522.8524	3564.0245	3631.1601	3713.8435
NC(=N)NC(=O)CC#N	NC(=N)NC(=O)CC#N	
InChI=1S/C4H6N4O/c5-2-1-3(9)8-4(6)7/h1H2,(H4,6,7,8,9)	InChI=1S/C4H6N4O/c5-2-1-3(9)8-4(6)7/h1H2,(H4,6,7,8,9)
