23
gdb 68222	2.9993	1.56162	1.33609	0.1519	88.06	-0.2505	0.0836	0.3341	1079.5061	0.208733	-351.149432	-351.141789	-351.140844	-351.180727	32.871	
C	-0.0657342508	 1.567986691	-0.0072271943	-0.476351
C	 0.0373848523	 0.052490666	 0.0231432447	 0.342202
C	 1.1125323272	-0.6432277803	-0.8741798738	-0.248968
C	 1.2023077831	-1.731008994	 0.2396321969	-0.037366
C	 0.7562047185	-0.6198452764	 1.2291795724	-0.264349
C	 0.1084570301	-2.7552961001	-0.0291792788	-0.007687
C	-1.0106587824	-3.0124252413	 0.946207569	-0.311115
C	-1.2559515311	-2.1478840939	-0.2716607367	-0.02562
C	-1.3361448705	-0.6204152809	-0.1997114332	-0.257093
H	 0.9106376992	 2.0337836207	 0.1652248819	 0.106019
H	-0.439445406	 1.9230265768	-0.9752047127	 0.110283
H	-0.7523306596	 1.9352860789	 0.7652586677	 0.110164
H	 0.8184723353	-0.9674112299	-1.8771711132	 0.084863
H	 2.021357129	-0.0370461931	-0.9358141549	 0.086773
H	 2.1681716511	-2.2067684582	 0.4250126195	 0.056748
H	 1.6170164614	-0.0250893748	 1.5504246839	 0.089312
H	 0.169577149	-0.8826724791	 2.1127811218	 0.088443
H	 0.4140121369	-3.5838398243	-0.6624679638	 0.077105
H	-1.4573440716	-4.0013477622	 0.9470976951	 0.102751
H	-0.9809069189	-2.549296852	 1.9259108783	 0.110499
H	-1.8740222313	-2.599245631	-1.0411808659	 0.079006
H	-2.0326425337	-0.2956516089	 0.5857879644	 0.091671
H	-1.7486149672	-0.2486072128	-1.1462291284	 0.09271
185.8222	230.0964	254.8198	295.6722	358.3732	394.4873	433.9132	442.5863	491.9942	599.3968	647.291	753.7649	809.6817	835.6134	842.0961	847.297	871.3795	901.4656	927.4102	946.7812	964.592	981.9395	1013.826	1045.3447	1062.6677	1077.0021	1085.1243	1106.2551	1123.42	1138.569	1157.189	1198.2473	1206.8282	1228.5734	1247.2826	1266.7304	1282.0996	1289.6226	1342.5933	1365.3426	1371.0046	1404.5079	1412.2197	1471.0291	1481.9451	1493.306	1494.7377	1498.131	1515.9027	3004.7835	3017.4926	3040.92	3042.5093	3049.5455	3073.5139	3080.094	3089.12	3098.4758	3100.6008	3130.6138	3136.3714	3151.0108	3212.1689
CC12CC(C1)C1CC1C2	C[C@@]12C[C@@H](C1)[C@H]1C[C@H]1C2	
InChI=1S/C9H14/c1-9-3-6-2-8(6)7(4-9)5-9/h6-8H,2-5H2,1H3	InChI=1S/C9H14/c1-9-3-6-2-8(6)7(4-9)5-9/h6-8H,2-5H2,1H3/t6-,7-,8-,9+/m0/s1
