19
gdb 65218	3.48005	1.19371	1.15589	2.2956	74.68	-0.2454	0.0242	0.2696	1143.1634	0.160632	-419.19654	-419.188184	-419.18724	-419.230026	31.323	
C	-0.0818288213	 1.4191809772	-0.5723187069	-0.484899
C	-0.0076513416	-0.0372440519	-0.1658778852	 0.310741
C	 1.2441111565	-0.7923666508	-0.4298257679	-0.282334
N	 0.8663075034	-0.4404019544	 0.952304244	-0.351246
C	-1.3192781951	-0.8006608577	-0.1377927284	 0.067984
C	-2.3899263046	-0.2612168932	 0.8520284306	-0.203894
N	-3.5287095095	 0.1458197262	 0.0103648954	-0.262181
C	-3.1929078064	-0.1365621864	-1.1767915482	 0.117584
O	-1.9824024474	-0.6920106634	-1.4316814605	-0.236549
H	 0.9135789736	 1.8739320493	-0.5576938055	 0.11366
H	-0.4836440347	 1.5159140383	-1.5849513505	 0.139747
H	-0.7258639585	 1.9962884814	 0.1001197531	 0.131424
H	 1.2073535208	-1.8543675648	-0.6575783236	 0.12045
H	 2.0678042305	-0.2592121741	-0.8970545227	 0.11331
H	 1.4116434843	 0.3572728094	 1.2695983785	 0.231093
H	-1.1071002799	-1.8587192407	 0.0325983749	 0.095873
H	-2.7114949673	-1.0257626193	 1.5651247045	 0.123384
H	-2.0277057031	 0.5902135189	 1.4371011205	 0.117485
H	-3.8020348697	 0.0267400161	-2.0593063721	 0.138368
65.2882	70.7615	202.1124	215.401	267.6202	319.8676	355.3045	437.8543	491.7334	520.8533	722.7379	752.2886	845.6471	857.4075	889.9871	934.0789	955.6845	966.5397	969.2868	981.2176	992.8574	1046.2123	1048.3356	1063.9727	1118.4379	1123.4773	1156.1747	1200.8315	1263.2159	1301.0619	1310.3438	1322.9755	1343.4394	1360.4878	1408.9108	1428.8601	1481.9196	1504.0396	1506.359	1518.3115	1710.4308	3035.8698	3051.4717	3073.8338	3089.962	3100.3543	3107.5059	3114.8158	3191.8928	3212.7146	3498.697
CC1(CN1)C1CN=CO1	C[C@]1(CN1)[C@H]1CN=CO1	
InChI=1S/C6H10N2O/c1-6(3-8-6)5-2-7-4-9-5/h4-5,8H,2-3H2,1H3	InChI=1S/C6H10N2O/c1-6(3-8-6)5-2-7-4-9-5/h4-5,8H,2-3H2,1H3/t5-,6+/m1/s1
