23
gdb 109299	2.51745	1.1075	0.83526	1.2527	88.6	-0.2286	0.0307	0.2593	1463.568	0.206505	-388.318213	-388.308659	-388.307715	-388.352557	36.601	
C	 0.0861918334	 1.5679520867	-0.13517999	-0.371113
C	-0.0304321455	 0.0423431576	 0.0318426109	-0.273277
C	 0.6646472984	-0.4899763763	 1.2638221411	 0.313599
C	-0.0178936293	-0.9101324069	 2.3327642771	-0.146064
C	 0.6107047066	-1.4557915983	 3.588847685	-0.26214
C	 2.0912268456	-1.8077030945	 3.3844830847	-0.225803
C	 2.8063455256	-0.7026061518	 2.6053337012	 0.125387
O	 4.1851270341	-0.9872148911	 2.3987282726	-0.441546
C	 2.1770710876	-0.5328618062	 1.2243485188	-0.287031
H	 1.1296698738	 1.890565762	-0.2048215936	 0.119561
H	-0.4226566061	 1.8988478259	-1.0460873092	 0.111798
H	-0.367117855	 2.086596069	 0.7154440027	 0.117748
H	-1.0900552503	-0.2337360981	 0.0669516433	 0.097658
H	 0.3896576781	-0.4437384529	-0.860028	 0.097701
H	-1.1054663137	-0.8620946232	 2.3162529456	 0.072266
H	 0.5060515212	-0.7209172671	 4.4016494202	 0.105002
H	 0.0581311637	-2.3407541579	 3.9286987459	 0.102753
H	 2.5831713413	-1.9681635486	 4.3524503503	 0.077703
H	 2.1838665903	-2.7421895113	 2.8177328078	 0.10498
H	 2.694372752	 0.2454306934	 3.1595973456	 0.062526
H	 4.5959355728	-1.0994159171	 3.2619726077	 0.276742
H	 2.510218111	-1.3680066158	 0.5907984611	 0.114792
H	 2.5789018846	 0.3713448928	 0.7528178511	 0.106756
74.1959	92.9099	180.7265	202.8364	212.9079	286.7247	297.5965	324.0956	394.3785	431.7803	455.8502	495.6641	533.6358	630.1575	787.8226	803.8231	852.0416	863.0774	904.0581	941.3491	948.7098	974.7752	1049.6563	1064.3166	1072.4626	1082.2445	1097.6656	1126.0087	1151.4013	1177.9614	1223.9534	1238.2972	1279.8243	1293.8212	1318.2755	1338.7022	1353.8922	1368.8788	1387.0605	1403.11	1408.5114	1437.9432	1474.2954	1481.2903	1483.332	1497.617	1500.2525	1507.8	1735.4436	2947.6791	2991.6636	3006.1959	3010.4651	3019.3333	3036.5451	3037.9055	3057.4508	3061.2478	3066.3863	3105.6317	3110.7835	3136.6639	3814.139
CCC1=CCCC(O)C1	CCC1=CCC[C@@H](O)C1	
InChI=1S/C8H14O/c1-2-7-4-3-5-8(9)6-7/h4,8-9H,2-3,5-6H2,1H3	InChI=1S/C8H14O/c1-2-7-4-3-5-8(9)6-7/h4,8-9H,2-3,5-6H2,1H3/t8-/m1/s1
