21
gdb 100794	2.63002	1.15592	0.93729	2.1943	75.35	-0.251	0.0753	0.3263	1341.3155	0.179439	-461.326552	-461.316099	-461.315154	-461.362769	37.169	
C	 0.0234284121	 1.3089634812	 0.1799332214	-0.232966
O	-0.0517289108	-0.0838689757	-0.0101386772	-0.254901
C	 0.6483698238	-0.5841614326	-1.1404479136	 0.123605
C	 2.1562429603	-0.6652912487	-0.8987918685	-0.411712
C	 0.040863684	-1.97229696	-1.4187872366	 0.080876
O	 0.2022884955	-2.833095673	-0.3109134126	-0.437463
C	-1.4288626965	-1.8787018002	-1.8119737977	 0.070212
C	-2.3236590663	-3.0315675196	-1.6677795781	-0.187104
O	-2.3632778527	-1.9427284759	-0.7350399614	-0.235053
H	 1.0421532134	 1.6508279623	 0.4132172786	 0.107915
H	-0.3302161887	 1.8583812665	-0.7066386494	 0.103591
H	-0.6253539833	 1.5524147347	 1.0248382216	 0.131411
H	 0.4478600728	 0.0630153108	-2.012641583	 0.058001
H	 2.5722657979	 0.3109797279	-0.6361039202	 0.113305
H	 2.3609240239	-1.3694540321	-0.0890854143	 0.140692
H	 2.6698479835	-1.0124370117	-1.8014111065	 0.112529
H	 0.5944223802	-2.4243801729	-2.2518578046	 0.090042
H	-0.3815894819	-2.4744231339	 0.3716831679	 0.299337
H	-1.664618868	-1.1300003258	-2.5702813793	 0.087817
H	-3.1963761676	-3.1219934542	-2.3122373102	 0.112711
H	-1.9217272616	-3.9596138771	-1.2690088163	 0.127155
45.8083	59.8533	98.8563	167.0928	201.449	212.0344	234.0349	263.892	314.6133	349.9619	360.3963	429.4187	487.4031	636.818	727.0868	779.4658	821.6386	890.963	912.4068	980.2217	1001.6414	1032.3954	1057.2859	1099.6072	1128.6334	1137.5494	1162.1165	1167.129	1174.1174	1182.3375	1218.4054	1272.2384	1300.2665	1320.0592	1370.9614	1374.826	1401.6919	1422.6584	1442.0087	1478.2396	1482.4146	1496.0474	1500.2705	1511.3664	1513.509	2947.3808	2977.6436	3026.797	3034.9095	3046.4282	3092.4094	3099.9086	3110.4523	3114.1423	3136.5398	3191.0969	3765.8482
COC(C)C(O)C1CO1	CO[C@@H](C)[C@@H](O)[C@H]1CO1	
InChI=1S/C6H12O3/c1-4(8-2)6(7)5-3-9-5/h4-7H,3H2,1-2H3	InChI=1S/C6H12O3/c1-4(8-2)6(7)5-3-9-5/h4-7H,3H2,1-2H3/t4-,5+,6+/m0/s1
