23
gdb 111842	2.15111	1.37588	1.09149	1.8972	85.01	-0.249	0.0674	0.3165	1256.5568	0.20692	-388.291197	-388.281767	-388.280823	-388.325357	36.039	
C	 0.1190068448	 1.45435403	-0.0132992841	-0.477711
C	-0.0096599162	-0.0458498128	 0.1334372394	 0.317274
C	-1.4244379058	-0.6250767885	 0.0612709026	-0.267244
C	-1.4328802754	-1.9306789229	 0.8967423295	-0.224756
C	-0.1649473016	-1.8849838937	 1.7909906839	-0.222597
C	 0.7550002789	-0.8341567345	 1.1808725608	-0.10248
C	 1.1584687712	-0.9172784105	-0.2829848382	-0.08142
C	 1.1164059212	-2.1652195423	-1.1354881769	-0.097644
O	 2.2792919591	-2.9669847228	-0.9505235753	-0.420305
H	 1.1500193849	 1.7849332505	 0.1466233188	 0.113819
H	-0.1810331962	 1.7854184363	-1.0149283445	 0.116367
H	-0.5176685368	 1.9779624532	 0.7102019488	 0.111695
H	-2.1104245846	 0.1102422664	 0.4985167122	 0.096925
H	-1.7661704988	-0.7922269392	-0.9665273943	 0.097257
H	-2.3428890515	-2.0141916843	 1.4975827359	 0.097866
H	-1.4188845121	-2.8099724382	 0.2485113225	 0.111216
H	-0.4229204526	-1.5721608215	 2.8090429753	 0.102328
H	 0.3016347152	-2.8731836287	 1.8831585422	 0.089783
H	 1.4445411052	-0.3284382271	 1.8503933312	 0.076885
H	 2.0557073719	-0.3399717974	-0.5011807648	 0.085669
H	 0.2067446686	-2.7542265941	-0.9658278257	 0.087793
H	 1.1224526672	-1.8889462345	-2.1960335579	 0.108444
H	 2.3640359035	-3.1254785034	-0.0046339514	 0.280836
66.6236	122.0386	154.7283	199.7574	224.4323	244.2108	281.8314	316.4304	358.8021	466.488	522.0041	563.6537	688.7947	699.7902	779.6851	834.8533	844.3307	889.7623	908.4132	940.3886	968.7905	1009.699	1032.029	1042.2096	1054.7345	1085.4998	1095.3551	1122.9801	1135.4233	1192.3196	1201.5469	1223.8896	1257.9495	1260.1127	1291.284	1321.663	1329.4916	1339.3695	1347.8824	1385.3953	1419.9227	1422.3758	1463.6266	1488.1248	1492.797	1496.579	1503.0003	1507.8702	1526.0513	3017.8085	3027.0775	3028.3764	3029.8218	3055.4153	3060.2975	3063.2009	3065.8238	3075.0635	3097.0578	3102.7314	3118.6137	3149.0122	3812.1927
CC12CCCC1C2CO	C[C@]12CCC[C@H]1[C@H]2CO	
InChI=1S/C8H14O/c1-8-4-2-3-6(8)7(8)5-9/h6-7,9H,2-5H2,1H3	InChI=1S/C8H14O/c1-8-4-2-3-6(8)7(8)5-9/h6-7,9H,2-5H2,1H3/t6-,7+,8-/m0/s1
