14
gdb 128527	2.41481	1.54552	0.94813	5.9041	74.56	-0.2208	0.0014	0.2222	1164.6163	0.100268	-432.814622	-432.806329	-432.805384	-432.847946	29.876	
C	 0.0003607761	 1.4541594606	-0.0158058172	-0.273935
O	-0.0052072593	 0.0308355587	 0.0049038237	-0.24954
C	 0.5786190267	-0.5985136735	-1.0147040094	 0.342379
C	 0.7118648164	-1.962848797	-1.2307171329	 0.082632
N	 1.3864507494	-2.126493448	-2.4176489636	-0.257619
N	 1.6697272457	-0.9770304409	-2.9326762065	-0.133126
N	 1.1794786968	-0.024643746	-2.0812080837	-0.276857
C	 0.2601684464	-3.0242574509	-0.4199976538	 0.284385
C	-0.1297172141	-3.922717696	 0.2793603422	-0.429939
H	 1.025185849	 1.8460379511	-0.0052848631	 0.136362
H	-0.5371106438	 1.8393022381	-0.8914681307	 0.136271
H	-0.5149539337	 1.7722574605	 0.8900555918	 0.162516
H	 1.300056844	 0.948408883	-2.3072178767	 0.284477
H	-0.4717044197	-4.7190224096	 0.8923821601	 0.191994
66.681	121.909	169.9721	208.0514	244.8862	320.7899	407.4655	489.8579	492.3556	552.2453	554.5775	627.2265	678.5654	695.5643	726.0425	761.8269	993.4092	1009.2375	1057.8014	1174.4433	1201.1546	1236.7542	1258.3404	1292.252	1394.8426	1473.5405	1494.2224	1502.0967	1509.1914	1639.1749	2241.2992	3009.9813	3074.9444	3156.2212	3504.2101	3671.5264
COC1=C(N=NN1)C#C	COc1c(nn[nH]1)C#C	
InChI=1S/C5H5N3O/c1-3-4-5(9-2)7-8-6-4/h1H,2H3,(H,6,7,8)	InChI=1S/C5H5N3O/c1-3-4-5(9-2)7-8-6-4/h1H,2H3,(H,6,7,8)
