14
gdb 130139	3.27355	1.46143	1.01114	2.0077	69.66	-0.2145	-0.0378	0.1766	1077.8779	0.104071	-466.236846	-466.229211	-466.228266	-466.268858	29.486	
N	 0.0152669536	 1.3377880331	 0.1585975723	-0.551321
C	-0.0133237283	-0.0233621885	 0.0553394671	 0.394551
N	-1.1328680367	-0.666020393	 0.0245227347	-0.290823
N	-1.0636634282	-2.0372934672	-0.0130347124	-0.316537
C	 0.0570852199	-2.8189431393	-0.0192810015	 0.487053
O	 0.0562685204	-4.0321721226	-0.0419277208	-0.397911
N	 1.2323065763	-2.0642088417	-0.00271985	-0.439952
C	 1.3168510805	-0.6836575334	 0.0114531113	 0.35858
N	 2.3733962365	 0.0335266148	-0.0206962268	-0.544588
H	 0.898691141	 1.7593339105	-0.0867671477	 0.277591
H	-0.8288873176	 1.831081994	-0.081647917	 0.26174
H	-1.9523001411	-2.5097034442	-0.023240837	 0.27991
H	 2.0783867639	-2.6156712301	-0.0260425354	 0.26417
H	 3.2270831598	-0.5230783725	-0.0628603467	 0.217536
102.6426	142.8176	302.3445	333.3444	381.8017	391.9714	475.5631	488.8578	497.1547	530.9859	534.1364	609.1213	618.6486	725.1361	741.8378	789.629	836.2041	843.298	986.5908	1064.2743	1128.5315	1246.3059	1311.4476	1355.5713	1402.077	1441.5557	1503.6116	1602.3138	1693.5406	1721.9859	1825.9843	3480.134	3579.4649	3616.6263	3666.0219	3710.181
NC1=NNC(=O)NC1=N	Nc1n[nH]c(=O)[nH]c1[NH]	
InChI=1S/C3H5N5O/c4-1-2(5)7-8-3(9)6-1/h(H2,5,7)(H3,4,6,8,9)	InChI=1S/C3H8N5O/c4-1-2(5)7-8-3(9)6-1/h1-2,4,7H,5H2,(H2,6,8,9)
