20
gdb 63041	2.58287	2.01846	1.54001	1.2009	77.14	-0.2268	0.0686	0.2954	945.26	0.172114	-403.088084	-403.080577	-403.079633	-403.119391	31.188	
C	 0.0117790132	 1.5058531255	 0.014080619	-0.448449
C	 0.0372437379	-0.0249597671	-0.0047824552	 0.34836
C	-1.3850054076	-0.5786799486	-0.1329194272	-0.450689
C	 1.0248302548	-0.6477493553	-1.030748321	-0.119577
N	 2.2973491377	 0.0884477566	-0.699907245	-0.332117
C	 2.278056875	-0.753226727	 0.524432643	-0.058172
C	 1.5146255053	-1.9019769478	-0.1367350774	 0.087212
O	 0.6411927697	-2.0792782023	 0.9792630278	-0.288534
C	 0.8314192494	-0.6448207877	 1.1814532236	 0.031346
H	 1.0094171364	 1.9297012656	 0.1273740897	 0.138514
H	-0.4148591455	 1.8964794764	-0.9164181281	 0.109507
H	-0.6209582109	 1.857045087	 0.8374008774	 0.104169
H	-1.8508112252	-0.2028479407	-1.0508082445	 0.106622
H	-1.3977787313	-1.6688641837	-0.1542680496	 0.131521
H	-2.0062715599	-0.2513450295	 0.7081932525	 0.110211
H	 0.7304113644	-0.7131306945	-2.0776673276	 0.066815
H	 3.0426023512	-0.2771335857	-1.293324692	 0.217119
H	 3.1584001669	-0.8331019177	 1.1602807689	 0.082605
H	 1.910512016	-2.8100240051	-0.5922024565	 0.085126
H	 0.6410570625	-0.3147878182	 2.2020922921	 0.078411
181.2187	207.7602	219.5539	258.9699	354.137	371.9839	484.0953	529.8154	545.3683	599.3281	731.0593	763.3964	788.968	825.1391	852.6769	859.0639	920.2873	945.9234	952.0613	958.5876	970.3335	1006.3666	1020.4325	1043.4427	1057.9698	1108.8223	1141.5604	1155.5355	1188.7414	1205.0148	1222.9413	1228.5051	1247.5868	1289.7538	1311.2656	1345.1939	1354.4011	1396.0206	1418.2564	1482.9901	1488.6972	1504.2667	1515.602	3029.9106	3034.9255	3085.6061	3090.7211	3115.7364	3127.2729	3128.3059	3139.6677	3142.0252	3149.6783	3452.4813
CC1(C)C2NC3C2OC13	CC1(C)[C@H]2N[C@@H]3[C@H]2O[C@H]13	
InChI=1S/C7H11NO/c1-7(2)5-4-3(8-5)6(7)9-4/h3-6,8H,1-2H3	InChI=1S/C7H11NO/c1-7(2)5-4-3(8-5)6(7)9-4/h3-6,8H,1-2H3/t3-,4-,5+,6+/m1/s1
