17
gdb 53608	4.64173	0.71375	0.64183	1.2941	79.06	-0.245	-0.0367	0.2083	1718.7041	0.132795	-421.796023	-421.786283	-421.785339	-421.833066	32.916	
C	-0.0500560975	 1.4756844433	-0.0964729309	-0.497376
C	-0.0252289815	 0.029326966	 0.065776838	 0.105408
C	 0.003319688	-1.1665555402	 0.1986113177	 0.037979
C	 0.006479287	-2.6155157633	 0.3522279697	-0.367847
C	-1.3390689141	-3.2546898149	-0.0079045373	 0.01812
O	-1.6492638557	-3.2369618795	-1.4217906179	-0.283586
C	-1.760150484	-4.6708341726	-1.5258413962	-0.189291
C	-1.3855020281	-4.7911235656	-0.0440268745	 0.336031
O	-1.1803644678	-5.6724102132	 0.7321240979	-0.272386
H	 0.8454300789	 1.8322315356	-0.6172402646	 0.149306
H	-0.9206809649	 1.7936207065	-0.6805837945	 0.150876
H	-0.0958296506	 1.9859480909	 0.8719446945	 0.14748
H	 0.7890423816	-3.0657977152	-0.2710233983	 0.13293
H	 0.2313420167	-2.8940894975	 1.3906005609	 0.144469
H	-2.1446124399	-2.8019120074	 0.5857530154	 0.11682
H	-2.7746162934	-5.0078833246	-1.775378464	 0.13459
H	-1.0469817649	-5.1087848783	-2.2353516258	 0.136476
22.6677	45.1947	74.65	115.8326	168.2887	209.0882	270.3018	367.6809	381.6239	416.2193	523.8537	544.8038	689.9789	765.0936	811.6943	854.4659	957.334	1010.05	1034.1389	1052.7821	1055.6721	1081.8461	1092.6003	1137.5113	1170.6917	1219.5119	1236.1529	1287.0544	1330.051	1366.4559	1414.9778	1456.4078	1478.1859	1478.5366	1481.9401	1922.9931	2377.1636	3014.6215	3019.1345	3025.0839	3027.7772	3057.9208	3064.6744	3088.5111	3089.2612
CC#CCC1OCC1=O	CC#CC[C@H]1OCC1=O	
InChI=1S/C7H8O2/c1-2-3-4-7-6(8)5-9-7/h7H,4-5H2,1H3	InChI=1S/C7H8O2/c1-2-3-4-7-6(8)5-9-7/h7H,4-5H2,1H3/t7-/m1/s1
