16
gdb 28052	6.6852	0.8145	0.74107	2.9664	76.19	-0.2201	0.0061	0.2262	1490.5675	0.12362	-437.90896	-437.900422	-437.899478	-437.942952	30.482	
C	 0.0070702728	 1.4438980557	 0.1504323314	-0.488603
C	-0.0629466895	-0.0293726757	-0.0307783432	 0.399299
C	-1.0900824943	-0.8936313165	-0.2538527215	-0.407226
C	-0.4974516404	-2.1931557956	-0.3323631438	 0.330908
O	-1.2081851193	-3.3340847395	-0.5778400477	-0.210853
C	-0.833644898	-4.466673942	 0.0743111349	 0.10672
N	-1.3035604437	-5.5749475321	-0.2931050758	-0.427563
C	 0.8435788322	-2.0353518599	-0.1580448921	-0.150282
O	 1.1148306479	-0.7116202042	 0.0347568179	-0.178432
H	 0.6379213544	 1.9109545918	-0.6140343175	 0.143348
H	-0.9937650046	 1.8746293278	 0.0797222024	 0.139886
H	 0.4270613961	 1.7069874528	 1.1276463442	 0.142188
H	-2.1370448105	-0.6566485121	-0.3514522472	 0.123856
H	-0.1416451844	-4.2674560453	 0.9015783297	 0.100922
H	-0.9621772391	-6.3158941502	 0.3157701815	 0.235228
H	 1.6855484305	-2.7050788249	-0.1682600631	 0.140605
54.8457	107.4334	113.4832	165.5881	221.3762	297.1511	392.8734	428.3018	491.0481	625.661	657.5834	682.188	710.8144	789.5666	808.7777	833.5984	939.7809	996.7942	1017.3943	1053.3748	1058.4153	1064.1981	1163.3902	1179.9591	1234.9454	1273.0702	1321.5304	1402.5257	1414.9285	1422.0618	1472.4589	1489.2862	1590.3532	1657.5182	1747.3611	3034.2304	3050.6195	3086.1083	3134.018	3269.2741	3288.7468	3520.4247
CC1=CC(OC=N)=CO1	Cc1cc(O[CH][NH])co1	
InChI=1S/C6H7NO2/c1-5-2-6(3-8-5)9-4-7/h2-4,7H,1H3	InChI=1S/C6H7NO2/c1-5-2-6(3-8-5)9-4-7/h2-4,7H,1H3
