16
gdb 5749	4.89414	1.77734	1.40936	4.1007	71.34	-0.2146	0.0407	0.2553	882.708	0.133301	-342.789618	-342.782898	-342.781954	-342.820609	25.311	
C	-0.2451256415	 1.5584828284	 0.0735624407	-0.395875
C	-0.0220987231	 0.0519229654	 0.0087115115	-0.153735
C	 0.7007426058	-0.5032590397	-1.2837434733	-0.188999
N	 1.7667067987	-0.9886271277	-0.3794594296	-0.003562
C	 2.9301934116	-1.6091570472	-0.0452020301	-0.031544
N	 3.0966392778	-1.5479455818	 1.2650454545	-0.263154
C	 2.0117440393	-0.8746194464	 1.7941336564	-0.233321
C	 1.1780758945	-0.5248272541	 0.7608743604	 0.30065
H	 0.6782101163	 2.1032383881	-0.1467600431	 0.126428
H	-1.0123286076	 1.8730403154	-0.6419231498	 0.118568
H	-0.5778406239	 1.8546190774	 1.0731408535	 0.130431
H	-0.9581616448	-0.4787292681	 0.2099729124	 0.09861
H	 0.1818984966	-1.3026429884	-1.818182893	 0.13039
H	 1.0422786898	 0.259449099	-1.9885980991	 0.128958
H	 3.6027447388	-2.0726099513	-0.749438409	 0.130278
H	 1.9253825317	-0.7017919689	 2.8548942176	 0.105878
109.4515	140.9894	234.6445	280.9119	424.0212	477.564	660.2901	669.2614	714.3872	751.1398	782.0466	825.5474	849.5624	914.5589	947.0105	1033.451	1088.0649	1095.3532	1122.4896	1137.3653	1176.6833	1216.5864	1239.0233	1245.3961	1292.3752	1347.5934	1376.938	1410.1748	1417.0051	1460.4829	1493.8901	1496.7997	1513.5291	1559.5283	3034.4121	3054.6406	3061.1151	3104.6692	3111.4796	3119.3914	3259.1221	3263.3953
CC1CN2C=NC=C12	C[C@H]1Cn2cncc12	
InChI=1S/C6H8N2/c1-5-3-8-4-7-2-6(5)8/h2,4-5H,3H2,1H3	InChI=1S/C6H8N2/c1-5-3-8-4-7-2-6(5)8/h2,4-5H,3H2,1H3/t5-/m0/s1
