16
gdb 6202	3.88531	1.55488	1.46531	4.5536	60.27	-0.2661	0.0123	0.2784	903.4955	0.129806	-420.925833	-420.91813	-420.917185	-420.957659	29.022	
C	 0.1238942625	 1.5184096248	 0.0680479105	-0.446368
C	-0.0583765929	 0.0020712565	-0.0157895065	 0.363822
O	-1.4304572186	-0.3479307601	-0.1056943158	-0.47073
C	 0.7708059172	-0.6096157767	-1.1753690278	-0.127612
O	 2.0582072215	-0.9220677095	-0.6268684093	-0.215997
C	 1.9861578673	-1.0367078818	 0.7324402482	 0.43098
O	 2.9325909173	-1.3382245213	 1.3962334772	-0.332602
C	 0.5658137504	-0.7224007477	 1.1808450176	-0.393951
H	 1.1826151595	 1.7849085834	 0.1471929804	 0.140034
H	-0.2723027099	 2.006331328	-0.8307816771	 0.112911
H	-0.4019121126	 1.9172096157	 0.9399973669	 0.133971
H	-1.8519232234	 0.2341529523	-0.7469022309	 0.281653
H	 0.2861459725	-1.5268121423	-1.528043305	 0.121083
H	 0.9212187712	 0.070063576	-2.0184897812	 0.114203
H	 0.5692074079	-0.1572370397	 2.1135357976	 0.137421
H	 0.0343838901	-1.6645168777	 1.3537800953	 0.151183
90.621	168.7183	260.9421	271.2157	307.1721	341.5212	377.3131	436.8766	523.3058	552.3352	596.7235	682.9892	799.6707	850.2395	925.3022	942.3758	981.1354	985.9602	1069.253	1101.7752	1134.078	1158.4398	1199.2229	1224.2009	1279.1705	1293.2839	1355.2881	1405.8213	1411.2548	1457.3972	1492.1797	1495.6016	1520.9415	1891.1483	3027.1714	3042.0646	3064.924	3095.9642	3101.4992	3120.7818	3132.8306	3809.7336
CC1(O)COC(=O)C1	C[C@@]1(O)COC(=O)C1	
InChI=1S/C5H8O3/c1-5(7)2-4(6)8-3-5/h7H,2-3H2,1H3	InChI=1S/C5H8O3/c1-5(7)2-4(6)8-3-5/h7H,2-3H2,1H3/t5-/m0/s1
