21
gdb 92225	2.79726	1.68438	1.35157	1.6157	80.87	-0.24	0.0806	0.3206	1036.8779	0.184774	-387.076949	-387.069348	-387.068403	-387.108606	31.149	
C	-0.1449612661	 1.5432326059	-0.2039902939	-0.420998
C	 0.0170261429	 0.061841433	 0.0612785389	 0.157577
O	 0.9216575657	-0.6244270028	-0.8495602508	-0.319512
C	 1.3530186395	-1.5043681963	 0.2250474115	 0.122851
C	 2.8667179869	-1.6449854993	 0.4116741871	-0.252313
C	 3.2813709424	-0.4959629769	 1.3257543231	-0.042332
C	 2.9905280024	 0.89041198	 0.8303347578	-0.286703
C	 2.0240769388	 0.2269294596	 1.7941997302	-0.046553
C	 0.7964205517	-0.5101833419	 1.2729111546	-0.094109
H	 0.7782611027	 2.1006610287	-0.0438084148	 0.13192
H	-0.4727551328	 1.6994872908	-1.2371564424	 0.12619
H	-0.9161592432	 1.9532408387	 0.4573916333	 0.114428
H	-0.9732130063	-0.4188589939	 0.0039625192	 0.066499
H	 0.8404270527	-2.4716719548	 0.1466778429	 0.069374
H	 3.0810902539	-2.607114312	 0.8910154974	 0.098429
H	 3.3815257745	-1.6389472796	-0.5553951953	 0.113888
H	 4.1195179433	-0.648012438	 1.9970240062	 0.079313
H	 3.5857656568	 1.7054244152	 1.2294527134	 0.104279
H	 2.7111053714	 1.0010735477	-0.2097672902	 0.132407
H	 1.9729604109	 0.6381002563	 2.7961220193	 0.08027
H	 0.1908798318	-0.9031067104	 2.0925699625	 0.065095
151.1108	176.4211	198.8483	266.865	345.2544	374.3497	404.9987	542.3231	606.9916	677.6942	748.0154	783.6904	797.7279	824.0954	859.1809	889.2408	899.0495	917.2383	964.0291	972.1812	1024.3607	1030.0914	1061.6584	1094.9971	1101.1844	1109.9664	1112.4121	1130.1678	1161.2756	1193.8699	1213.0407	1223.618	1260.9257	1298.5289	1316.1251	1330.1641	1355.8097	1365.8311	1388.9025	1400.8217	1425.7962	1470.0028	1483.2555	1486.7496	1497.3416	2962.1785	3015.907	3040.903	3041.9192	3079.5039	3083.1169	3101.6278	3133.6197	3149.5439	3161.778	3171.4504	3228.4649
CC1OC2CC3CC3C12	C[C@H]1O[C@H]2C[C@H]3C[C@H]3[C@@H]12	
InChI=1S/C8H12O/c1-4-8-6-2-5(6)3-7(8)9-4/h4-8H,2-3H2,1H3	InChI=1S/C8H12O/c1-4-8-6-2-5(6)3-7(8)9-4/h4-8H,2-3H2,1H3/t4-,5-,6-,7+,8-/m1/s1
