19
gdb 86248	2.00021	1.59121	1.01024	2.4644	72.65	-0.2487	-0.029	0.2197	1220.8182	0.156826	-460.181208	-460.171813	-460.170868	-460.216417	33.474	
C	-0.000232705	 1.4876396852	-0.0469318049	-0.408093
C	 0.1212403288	-0.0122951606	 0.0685533641	 0.219154
O	 0.644504329	-0.5640952958	-1.1222490933	-0.263516
C	 1.2286010814	-1.8114015106	-0.7789470779	 0.09905
C	 2.4458443048	-2.0669899186	-1.65088005	-0.410893
C	 1.5355941431	-1.6407061916	 0.7567296664	-0.026416
O	 1.0570651146	-0.3589087095	 1.078143938	-0.241954
C	 0.8680775351	-2.7446218119	 1.5624722637	 0.146035
O	-0.1062318148	-2.5992021712	 2.2500452948	-0.239624
H	 0.9765705885	 1.9191770473	-0.2775350182	 0.131277
H	-0.7051050828	 1.7439246186	-0.8415706575	 0.130662
H	-0.365377934	 1.9025544231	 0.8954923249	 0.135673
H	-0.8495493328	-0.4824184432	 0.3021008454	 0.080961
H	 0.4905083489	-2.616650162	-0.923021448	 0.084417
H	 3.1945751293	-1.2844991621	-1.4970382955	 0.132072
H	 2.8936031014	-3.0370530629	-1.4125635609	 0.119241
H	 2.1605810292	-2.0721767044	-2.7063498873	 0.135352
H	 2.6165196781	-1.6768144553	 0.9468071853	 0.102127
H	 1.3577766575	-3.7413619545	 1.4427526607	 0.074474
33.581	89.4228	113.3592	204.6495	223.2667	231.2287	273.6788	293.503	353.77	461.1255	499.8231	647.521	693.5092	782.513	791.5344	871.3585	878.82	926.9696	947.1241	979.7978	1094.2454	1103.3691	1127.8365	1131.4569	1150.6803	1162.3556	1181.2386	1257.7147	1332.2457	1345.1129	1383.1966	1387.3774	1399.5037	1408.5302	1418.8964	1446.618	1482.5105	1486.1172	1486.6074	1497.1943	1843.4914	2841.4904	2959.6342	2970.7448	3024.9955	3041.6077	3057.1194	3115.7831	3124.4752	3138.1758	3141.9938
CC1OC(C)C(O1)C=O	C[C@H]1O[C@@H](C)[C@@H](O1)C=O	
InChI=1S/C6H10O3/c1-4-6(3-7)9-5(2)8-4/h3-6H,1-2H3	InChI=1S/C6H10O3/c1-4-6(3-7)9-5(2)8-4/h3-6H,1-2H3/t4-,5-,6-/m0/s1
