21
gdb 106458	2.37135	1.65428	1.2193	1.5612	83.97	-0.2091	0.0285	0.2376	1109.4266	0.182728	-387.059695	-387.05101	-387.050066	-387.092603	34.11	
C	 0.0645247652	 1.4709482851	-0.0038067997	-0.519992
C	 0.0233670663	-0.0179414442	-0.0252942652	 0.31961
C	-0.0169828888	-0.8927988238	-1.0357075064	-0.202802
C	-0.042401879	-2.2593187353	-0.3368982906	-0.072224
C	 1.0477453596	-2.029871821	 0.7638534037	-0.264918
C	 0.0165256564	-0.9393791068	 1.2234384472	 0.277725
C	 0.0536606979	-0.3286113921	 2.6002449784	-0.216643
O	-1.1418216122	 0.4242019048	 2.7829451854	-0.421021
C	-1.0849140255	-1.9735162554	 0.7954551327	-0.233448
H	 0.9916000454	 1.841787381	 0.4545947126	 0.116987
H	 0.0069884939	 1.8817219475	-1.0160128179	 0.116736
H	-0.7590348439	 1.8752704748	 0.5940167847	 0.142758
H	-0.0330487235	-0.7119468037	-2.101867986	 0.089401
H	-0.0723344211	-3.1615151362	-0.9469222802	 0.055863
H	 1.1394444993	-2.8613837755	 1.471962858	 0.085503
H	 2.03197118	-1.6866016761	 0.4350405158	 0.088321
H	 0.1351492542	-1.126910105	 3.3550265817	 0.084506
H	 0.945819456	 0.3112570753	 2.7039343619	 0.084351
H	-1.1126818044	 0.8276091771	 3.6554456191	 0.288066
H	-2.0570091742	-1.5749430346	 0.4998713116	 0.097966
H	-1.1982803916	-2.7969551358	 1.509626573	 0.083255
102.7984	153.4603	181.5683	201.8828	239.5242	277.2344	368.631	410.6151	496.1676	508.1629	576.1031	611.8533	664.8368	773.6378	781.9654	839.3274	879.7947	898.0967	923.7085	958.2081	996.2075	1014.1702	1040.0095	1062.3568	1063.0059	1077.2544	1086.4264	1158.5923	1172.7364	1175.4521	1225.0996	1226.8934	1242.3741	1255.8882	1278.6803	1288.6503	1340.3093	1409.4534	1461.6004	1473.7132	1476.949	1490.8109	1514.265	1519.6042	1692.3178	2959.7144	2988.8028	3012.9814	3031.2133	3043.7538	3071.5661	3106.3	3111.3914	3119.9108	3122.9268	3221.1948	3828.3392
CC1=CC2CC1(CO)C2	CC1=C[C@H]2C[C@]1(CO)C2	
InChI=1S/C8H12O/c1-6-2-7-3-8(6,4-7)5-9/h2,7,9H,3-5H2,1H3	InChI=1S/C8H12O/c1-6-2-7-3-8(6,4-7)5-9/h2,7,9H,3-5H2,1H3/t7-,8+
