18
gdb 70548	2.79504	1.55059	1.17401	5.0595	72.36	-0.2413	0.048	0.2893	1074.2199	0.149042	-439.125765	-439.117807	-439.116863	-439.158041	30.968	
C	 0.0308883325	 1.5018210804	-0.0140124208	-0.466178
C	 0.0091600411	-0.0057701595	 0.0470883606	 0.352773
C	-0.8864922249	-0.7286000512	 1.0381046669	-0.340898
C	 0.6206139055	-0.7563848284	 1.1873197552	-0.08065
C	 1.4049880174	-1.9863448853	 0.7979002723	-0.097331
O	 0.8520335924	-2.6668005367	-0.3347220386	-0.243975
C	 0.4687269055	-1.9629150828	-1.4363967757	 0.4424
O	 0.3310805009	-2.5172238953	-2.496733145	-0.384181
N	 0.2438775737	-0.619689135	-1.2401774938	-0.410316
H	 0.9893674989	 1.864377637	-0.3994311421	 0.131833
H	-0.7644332082	 1.8812471908	-0.6670390579	 0.123721
H	-0.1268412592	 1.9283660055	 0.9798375901	 0.126573
H	-1.4538192979	-0.1351747483	 1.746747112	 0.116275
H	-1.3797321474	-1.6349848424	 0.7043814046	 0.135849
H	 1.0638340544	-0.1817182223	 1.9954766367	 0.097381
H	 2.444195166	-1.7077198317	 0.575597345	 0.117701
H	 1.4180519561	-2.7337717424	 1.5959963716	 0.127201
H	-0.2107764267	-0.1967844223	-2.0367886712	 0.251822
114.998	153.1098	214.6941	236.5497	291.5967	363.9092	408.2709	479.9449	520.9195	536.8941	600.3992	697.5184	772.7288	775.3329	791.6224	858.2602	892.8112	946.195	971.1145	1011.0673	1043.0594	1060.0909	1108.0938	1122.2941	1125.8377	1149.1729	1249.6083	1278.353	1293.8171	1324.9048	1402.0496	1420.9427	1432.3598	1454.8047	1485.3806	1496.9324	1508.741	1517.5381	1847.9453	3014.9746	3028.4391	3087.6768	3091.271	3120.4252	3134.5114	3152.111	3225.3822	3607.0405
CC12CC1COC(=O)N2	C[C@]12C[C@H]1COC(=O)N2	
InChI=1S/C6H9NO2/c1-6-2-4(6)3-9-5(8)7-6/h4H,2-3H2,1H3,(H,7,8)	InChI=1S/C6H9NO2/c1-6-2-4(6)3-9-5(8)7-6/h4H,2-3H2,1H3,(H,7,8)/t4-,6-/m0/s1
