20
gdb 85231	2.68978	1.48889	1.09052	3.2159	79.25	-0.2282	-0.0128	0.2154	1164.1152	0.170839	-403.168772	-403.159938	-403.158994	-403.201937	33.854	
C	 0.1014006891	 1.5916790071	 0.0265606861	-0.401435
C	 0.0049434765	 0.065809888	 0.0297813126	 0.022905
C	 0.6387572506	-0.6192674734	-1.206769205	-0.351165
C	 1.1628643021	-1.9665419115	-0.7019444338	 0.399515
O	 1.2784749332	-2.9833556514	-1.339554647	-0.326999
C	 1.4180791209	-1.8366767433	 0.779925055	 0.200675
C	 1.6323965811	-3.0700300603	 1.6094891355	-0.496549
N	 2.1848007092	-0.5755975098	 1.0452642207	-0.367383
C	 0.7242657745	-0.5881913703	 1.2091851956	-0.094411
H	 1.150281614	 1.9042284141	 0.0236175821	 0.133616
H	-0.3854725996	 2.0170847667	-0.8568161909	 0.115799
H	-0.3797408679	 2.0219219433	 0.9117500084	 0.109341
H	-1.0511136238	-0.2290850222	 0.0872822619	 0.07994
H	-0.0506296508	-0.7613621908	-2.0408989369	 0.121747
H	 1.4940238506	-0.0398745744	-1.5724720089	 0.140771
H	 2.5507063537	-3.5834138933	 1.3076785857	 0.141586
H	 1.7057746005	-2.8226960508	 2.6734555047	 0.11102
H	 0.8068069052	-3.7755302079	 1.4765092752	 0.138139
H	 2.6266388984	-0.6777919449	 1.9573346343	 0.233758
H	 0.3062072924	-0.5044045647	 2.2085709744	 0.089129
100.9898	135.1866	176.6102	223.6581	241.5835	274.4683	296.8636	374.6661	476.3384	497.1582	521.5953	587.4565	670.5842	683.9358	808.4951	830.5789	853.8152	906.983	935.3488	970.473	1018.6557	1026.9662	1044.5212	1080.8838	1114.8333	1126.4065	1145.4757	1162.5214	1222.2837	1266.4753	1299.5008	1336.7323	1354.8909	1373.9897	1406.3038	1413.5974	1441.1246	1451.5312	1478.7544	1496.5319	1497.4401	1501.6904	1838.0486	3020.2888	3031.8652	3036.6577	3054.7114	3097.2693	3106.7272	3109.9757	3111.2601	3121.7166	3149.8975	3483.4128
CC1CC(=O)C2(C)NC12	C[C@H]1CC(=O)[C@@]2(C)N[C@@H]12	
InChI=1S/C7H11NO/c1-4-3-5(9)7(2)6(4)8-7/h4,6,8H,3H2,1-2H3	InChI=1S/C7H11NO/c1-4-3-5(9)7(2)6(4)8-7/h4,6,8H,3H2,1-2H3/t4-,6-,7+/m0/s1
