21
gdb 89852	2.78801	1.32712	1.02443	1.7971	83.86	-0.2446	0.0217	0.2663	1230.9028	0.183364	-387.093895	-387.085528	-387.084584	-387.126635	33.151	
C	-0.0333988989	 1.5724659192	-0.0140822297	-0.401003
C	 0.0176203259	 0.0381932466	 0.038676494	-0.018871
C	 0.6387684038	-0.5507319444	-1.2427283271	-0.287396
C	 0.9233690306	-2.0277421068	-1.0766729614	 0.446165
C	-0.0622706108	-3.0247435656	-1.5194399714	-0.239261
O	 1.1258262978	-2.7763043549	-2.2792546504	-0.298432
C	 1.8831068642	-2.3391425216	 0.0560161307	-0.333759
C	 1.5954397676	-1.4886016972	 1.2676903936	-0.076807
C	 0.7622394477	-0.4486488474	 1.2607032896	-0.039174
H	 0.9755047923	 1.9953177617	-0.0733350775	 0.119107
H	-0.595879216	 1.9162182004	-0.8883086075	 0.11337
H	-0.5163890086	 1.9822879138	 0.8791005215	 0.112186
H	-1.0214515441	-0.3209184579	 0.110329241	 0.08369
H	-0.0148261388	-0.3897067391	-2.1057848679	 0.10121
H	 1.5839119462	-0.0314251053	-1.451918526	 0.102218
H	-0.1092736671	-3.9969039225	-1.029947638	 0.109334
H	-0.9912924995	-2.6996242096	-1.9876940422	 0.107314
H	 1.8369066876	-3.4038908852	 0.3133827622	 0.109258
H	 2.9120880295	-2.1627398901	-0.2915371157	 0.120317
H	 2.1059600919	-1.7649255567	 2.187112193	 0.088395
H	 0.5933728589	 0.1070251827	 2.1812148793	 0.08214
98.337	119.7849	240.1918	262.8215	300.8469	344.7392	374.3562	411.6272	451.0748	477.3639	517.595	675.5373	723.7939	794.6405	836.9529	881.992	906.6752	929.4452	944.5951	963.0036	989.5029	1004.9235	1012.4439	1067.2472	1110.1037	1126.0991	1149.3565	1157.298	1163.8013	1206.4652	1236.6106	1280.1868	1313.4481	1339.6774	1342.6487	1364.8119	1403.0688	1419.0845	1435.0176	1473.7332	1492.1643	1498.0701	1500.9923	1532.2746	1721.0859	2973.1291	3001.3414	3020.7611	3029.2282	3050.9101	3074.8552	3081.2144	3099.3218	3101.5895	3136.8038	3159.9115	3162.8294
CC1CC2(CO2)CC=C1	C[C@H]1C[C@]2(CO2)CC=C1	
InChI=1S/C8H12O/c1-7-3-2-4-8(5-7)6-9-8/h2-3,7H,4-6H2,1H3	InChI=1S/C8H12O/c1-7-3-2-4-8(5-7)6-9-8/h2-3,7H,4-6H2,1H3/t7-,8+/m1/s1
