21
gdb 120507	4.56601	0.75166	0.70175	1.9816	81.74	-0.2459	0.0135	0.2594	1658.4196	0.182	-424.22214	-424.212545	-424.211601	-424.257428	34.975	
C	-0.0426446829	 1.4076593168	 0.0956405622	-0.226657
O	-0.0176804093	 0.0017659804	 0.0486136663	-0.23435
C	 0.6704667478	-0.5768211085	 1.1360998331	-0.062443
C	 0.6106673469	-2.0959086072	 0.9959995045	-0.04599
C	 1.3744114764	-2.8531166135	 2.1107925243	-0.274868
C	 0.5068850687	-4.0916606493	 2.4684111463	 0.110856
O	 0.476483893	-4.4006863844	 3.8566514857	-0.433375
C	-0.8406211221	-3.7422580929	 1.8795836535	-0.134205
C	-0.7870713116	-2.6660975097	 1.0975907246	-0.059317
H	 0.9722755132	 1.8357338103	 0.073154082	 0.10366
H	-0.5913594328	 1.7559523883	-0.7828735473	 0.127167
H	-0.5490340024	 1.778539035	 1.0011115852	 0.103554
H	 1.7205538164	-0.2361124613	 1.153972711	 0.085387
H	 0.2113848188	-0.2677702816	 2.0921106475	 0.079678
H	 1.0302601802	-2.3381434164	 0.0094948682	 0.091697
H	 2.3958827168	-3.1183893236	 1.8289676225	 0.104651
H	 1.4420256115	-2.2259071257	 3.0089585798	 0.094053
H	 0.91032313	-5.0022321375	 2.0072492637	 0.093699
H	 0.0244363163	-3.6738818449	 4.3000924799	 0.271511
H	-1.7192676933	-4.3454358783	 2.0815044711	 0.09699
H	-1.6154175015	-2.2322330162	 0.5495795158	 0.108301
44.068	88.1564	101.2752	165.9573	218.6722	235.248	316.3516	328.821	356.3547	428.2636	459.0399	580.0683	634.3051	750.5934	792.6594	858.5912	866.4805	929.437	974.4878	989.3252	1026.047	1029.5056	1067.7018	1110.0221	1124.3342	1144.1669	1156.8483	1180.4955	1189.3379	1229.7479	1245.2877	1258.3735	1282.8772	1307.6125	1323.7084	1337.5409	1382.2208	1415.2326	1429.4003	1481.0652	1484.844	1485.325	1502.9318	1526.5731	1681.5943	2939.3152	2968.4265	2970.2281	3010.0234	3012.1782	3025.1763	3032.7982	3103.0216	3113.0512	3186.1673	3213.8444	3793.4827
COCC1CC(O)C=C1	COC[C@H]1C[C@@H](O)C=C1	
InChI=1S/C7H12O2/c1-9-5-6-2-3-7(8)4-6/h2-3,6-8H,4-5H2,1H3	InChI=1S/C7H12O2/c1-9-5-6-2-3-7(8)4-6/h2-3,6-8H,4-5H2,1H3/t6-,7+/m1/s1
