18
gdb 127434	3.11733	1.42193	0.98847	2.6507	86.68	-0.1994	-0.0473	0.1522	1193.945	0.148706	-398.153649	-398.14513	-398.144186	-398.186647	32.025	
C	-0.0277446186	 1.3934421685	-0.0348226345	-0.302791
N	 0.0009985992	-0.0613118733	 0.0037761507	-0.03267
N	-0.0146523657	-0.6791073994	-1.1864592022	-0.263578
C	 0.0093200977	-1.9821779926	-1.2271624099	 0.322538
C	-0.0092345743	-2.6353583774	-2.5808382441	-0.474422
C	 0.0519449765	-2.7607756211	-0.021202803	-0.151699
C	 0.0676147194	-2.1350778038	 1.1747259819	-0.151441
C	 0.0420071389	-0.6858412549	 1.2583334927	 0.368348
N	 0.0520444142	 0.0624517492	 2.3078624093	-0.575556
H	 0.8574649748	 1.7986153758	 0.4633866944	 0.147528
H	-0.0580905323	 1.6910483379	-1.0813148636	 0.137417
H	-0.9033536713	 1.7648712701	 0.5049056606	 0.147557
H	-0.0436486129	-1.8730331945	-3.3605110729	 0.142626
H	 0.8820438501	-3.2550374842	-2.7351324727	 0.130122
H	-0.8801500732	-3.2918860151	-2.6931888541	 0.130066
H	 0.0709906132	-3.8441980507	-0.088182794	 0.108083
H	 0.0995850337	-2.6847072129	 2.1095401731	 0.112075
H	 0.0823958407	-0.5177373717	 3.1443627584	 0.205798
96.8195	142.9599	162.1224	196.1497	288.6543	291.6938	353.5345	398.2279	478.9044	521.3887	563.1274	592.2845	704.0494	738.9439	771.0722	807.6929	856.9593	924.0615	998.6047	1018.858	1050.6825	1061.6993	1104.6786	1151.4238	1184.9035	1225.7763	1281.7374	1325.5453	1395.0993	1413.7461	1434.4373	1455.1388	1466.9629	1482.3099	1483.22	1504.5534	1570.8635	1628.094	1699.5002	3027.9625	3051.6724	3077.0889	3109.8345	3142.7569	3173.1479	3175.8335	3194.6322	3495.1665
CN1N=C(C)C=CC1=N	CN1N=C(C)CC=C1[NH]	
InChI=1S/C6H9N3/c1-5-3-4-6(7)9(2)8-5/h3-4,7H,1-2H3	InChI=1S/C6H10N3/c1-5-3-4-6(7)9(2)8-5/h4,7H,3H2,1-2H3
