21
gdb 99261	4.60028	0.5914	0.56455	2.6428	76.45	-0.2642	-0.0222	0.2421	1990.5783	0.179011	-461.382993	-461.372123	-461.371179	-461.420375	38.506	
C	 0.0320195904	 1.5338150676	 0.0142743582	-0.405724
C	-0.0101909472	 0.0083776751	 0.0883666048	 0.132783
O	 0.5542533271	-0.4681129331	 1.3103660022	-0.4279
C	-1.4269183653	-0.5432647757	-0.117793398	-0.193814
C	-1.4683789371	-2.0720391272	-0.0877325132	-0.30793
C	-2.859493329	-2.651394053	 0.0337450169	 0.350385
O	-3.8100503413	-2.0247651466	 0.4569429427	-0.326328
C	-3.0647154062	-4.1038800419	-0.3790795685	-0.12877
O	-4.3646141034	-4.5329725614	-0.108947809	-0.420461
H	 1.0492770386	 1.8947317507	 0.1874087988	 0.126398
H	-0.3037401062	 1.8929459368	-0.9637928564	 0.119472
H	-0.6247547782	 1.9774001891	 0.7733270994	 0.11069
H	 0.6494326204	-0.4036067586	-0.6865899609	 0.087954
H	 0.0699636193	-0.054458325	 2.0343521558	 0.278897
H	-2.0881224339	-0.1549550752	 0.6664322226	 0.113137
H	-1.8301553234	-0.1726589644	-1.0676424114	 0.103744
H	-0.968779689	-2.5093857089	-0.9615326045	 0.114401
H	-0.8954571078	-2.4235532827	 0.7822774238	 0.15178
H	-2.8264763505	-4.1799873409	-1.4548257071	 0.112554
H	-2.3202799179	-4.7274027566	 0.142472397	 0.115737
H	-4.8207520897	-3.742801598	 0.2240536367	 0.292992
29.9964	51.8414	95.1642	133.3124	140.6475	238.6639	248.7921	269.5777	321.152	347.7518	412.4049	429.182	468.6088	490.2961	507.8439	697.1633	738.3218	839.2911	862.3233	919.7883	940.8399	993.634	1031.3206	1065.8352	1097.0107	1109.5664	1144.0641	1165.3981	1176.5959	1246.0362	1269.9705	1299.3742	1315.5661	1342.2535	1370.5119	1396.5751	1408.5958	1422.1459	1453.3514	1455.9207	1482.3065	1492.2726	1494.2193	1497.1343	1790.5087	2958.8766	2988.9656	3021.2078	3023.8744	3026.8027	3037.854	3053.5357	3078.5119	3096.4994	3120.5734	3675.6758	3791.3946
CC(O)CCC(=O)CO	C[C@@H](O)CCC(=O)CO	
InChI=1S/C6H12O3/c1-5(8)2-3-6(9)4-7/h5,7-8H,2-4H2,1H3	InChI=1S/C6H12O3/c1-5(8)2-3-6(9)4-7/h5,7-8H,2-4H2,1H3/t5-/m1/s1
