22
gdb 110108	2.15759	1.21277	0.93679	1.1102	89.36	-0.2208	0.0354	0.2561	1393.8293	0.191484	-367.155959	-367.145383	-367.144439	-367.191841	38.674	
C	-0.6930957857	 1.4841591333	 0.5220726497	-0.383978
C	 0.437398044	 0.5930828286	-0.0069569519	-0.208409
C	 1.0034250281	-0.291420792	 1.0857486292	 0.005349
C	 0.4832364309	-1.6860881709	 1.3386047868	-0.2154
C	-0.5317481148	-2.249135335	 0.4914522922	 0.359275
C	-1.3826540984	-2.7522750931	-0.1959549814	-0.482389
N	 1.8571475473	-1.4446665392	 0.849102399	-0.116672
C	 2.2175282202	-1.8439681175	-0.5114353793	-0.117631
C	 2.7861390658	-3.2608070214	-0.50301902	-0.376094
H	-0.3521644784	 2.1046186303	 1.3582043944	 0.11548
H	-1.0639587917	 2.1534185704	-0.2597861098	 0.114122
H	-1.5335029264	 0.8783901481	 0.8750093674	 0.128944
H	 0.0641848911	-0.0128363452	-0.8363276387	 0.115223
H	 1.2455573678	 1.2190043206	-0.4070049384	 0.101334
H	 1.2946698052	 0.265408256	 1.9782638809	 0.09059
H	 0.4471743964	-2.0432829074	 2.3660059563	 0.111271
H	-2.1371840489	-3.1935628675	-0.7989365392	 0.199398
H	 1.3767083834	-1.79293774	-1.2170351901	 0.100993
H	 2.9778552578	-1.1343025894	-0.8582387433	 0.101103
H	 3.6338736725	-3.3320697622	 0.1840922484	 0.123166
H	 2.0251471337	-3.9790198444	-0.1825945951	 0.125709
H	 3.1207481205	-3.5466956821	-1.5051341771	 0.108618
59.3802	66.5621	125.5422	144.5001	164.4973	221.5167	232.9988	266.9198	317.6068	361.5314	379.8575	565.1237	586.9638	594.5956	606.421	657.8158	701.1065	779.8411	812.7478	836.4878	848.3733	949.8894	999.9674	1020.7372	1040.7919	1069.162	1102.6203	1132.669	1157.7297	1176.711	1188.18	1284.847	1314.8376	1328.7708	1340.9419	1364.5331	1391.0522	1409.1975	1409.5465	1429.1419	1480.4806	1488.527	1492.7841	1499.4994	1506.0465	1508.8728	2224.8143	3003.8389	3027.863	3034.6612	3040.264	3054.6395	3079.9284	3091.6585	3109.8339	3111.4758	3113.1565	3119.1423	3120.4464	3502.0753
CCC1C(C#C)N1CC	CC[C@H]1[C@@H](C#C)N1CC	
InChI=1S/C8H13N/c1-4-7-8(5-2)9(7)6-3/h1,7-8H,5-6H2,2-3H3	InChI=1S/C8H13N/c1-4-7-8(5-2)9(7)6-3/h1,7-8H,5-6H2,2-3H3/t7-,8+,9?/m1/s1
