16
gdb 52473	4.44275	0.55076	0.50273	4.3609	97.76	-0.2458	-0.0229	0.2229	2148.7234	0.121831	-363.587051	-363.57669	-363.575746	-363.626159	34.644	
C	-0.0160874598	 1.5023334892	 0.0303049876	-0.518648
C	 0.0028485263	 0.0514902962	 0.0089983235	 0.250925
C	 0.0201597328	-1.1582589475	-0.0114011733	-0.193394
C	 0.0398935846	-2.5174387319	-0.0343191048	-0.239503
C	 0.0570811209	-3.7264789931	-0.0609832481	 0.383305
C	 0.051971815	-5.1879978365	-0.0644110407	-0.355203
C	-1.3845432289	-5.7684993339	-0.0096958771	-0.38085
C	 0.7754486843	-5.7160091422	-1.2355776872	 0.294447
N	 1.3310600088	-6.1536566621	-2.1486746857	-0.318676
H	 1.0008370357	 1.9102451317	 0.0255441151	 0.161561
H	-0.5415571673	 1.9031930864	-0.8436142289	 0.161252
H	-0.5227487462	 1.8774231409	 0.9265372321	 0.159873
H	 0.596263423	-5.5416461004	 0.8229228885	 0.161197
H	-1.3471776427	-6.8600677173	 0.0159591588	 0.141036
H	-1.8866148412	-5.4036175883	 0.8886093614	 0.140825
H	-1.9551106253	-5.4530268015	-0.8851722712	 0.151854
3.526	54.179	71.8829	137.6017	177.8352	207.6077	230.7479	301.7086	326.441	385.5174	434.5341	482.1384	553.6948	554.4086	587.0883	669.4104	809.8713	932.3117	1016.7555	1047.1795	1047.4962	1071.123	1119.7853	1270.7935	1296.8758	1337.118	1406.8244	1412.6212	1470.1903	1470.6934	1488.5855	1496.5895	2283.8685	2363.7781	2391.3208	3010.8227	3026.6054	3058.165	3090.0781	3090.4484	3141.2618	3148.1203
CC#CC#CC(C)C#N	CC#CC#C[C@@H](C)C#N	
InChI=1S/C8H7N/c1-3-4-5-6-8(2)7-9/h8H,1-2H3	InChI=1S/C8H7N/c1-3-4-5-6-8(2)7-9/h8H,1-2H3/t8-/m1/s1
