18
gdb 100641	2.60447	1.10475	0.97749	5.2435	68.45	-0.2816	0.015	0.2966	1265.1322	0.144273	-476.220633	-476.210156	-476.209211	-476.255778	37.794	
C	-0.0909812837	 1.5831084675	 0.1289119189	-0.409394
C	-0.0089043739	 0.0575709828	 0.0207319897	 0.191365
O	 0.6587273516	-0.4067687629	 1.1892359461	-0.450852
C	-1.3794797902	-0.5093699799	-0.0179991833	 0.266915
N	-2.4301486057	-0.9896974261	-0.0029348077	-0.337652
C	 0.7444520708	-0.422039178	-1.2467020128	 0.120089
O	 0.0612083574	 0.0789055324	-2.3734268401	-0.439758
C	 2.2120779199	 0.0021079369	-1.2798979171	-0.118201
O	 2.7084365568	-0.5096948031	-2.5148086711	-0.434211
H	 0.9040405446	 1.9860813399	 0.3304195141	 0.130937
H	-0.4728300928	 2.0000653531	-0.8035844503	 0.15681
H	-0.7487019763	 1.8637470804	 0.9533670177	 0.142394
H	 0.5761447756	-1.3668952138	 1.2302612363	 0.294949
H	 0.7242328647	-1.5261789025	-1.2420089882	 0.079969
H	 0.6444115538	-0.0824816514	-3.1262846557	 0.298588
H	 2.2889518918	 1.0968801845	-1.2522007029	 0.10144
H	 2.7497952204	-0.4121301513	-0.4185376161	 0.108439
H	 3.5648643252	-0.1114781386	-2.6924274872	 0.298173
74.4461	108.5209	128.6911	186.0572	229.247	236.1664	252.4086	264.4751	317.5079	330.7478	371.9884	425.7225	443.4518	465.163	520.4852	602.146	629.7688	761.1213	891.4814	939.1137	971.651	1033.3011	1078.0698	1094.5151	1137.7575	1180.3945	1189.728	1234.8612	1250.2874	1272.0346	1371.6698	1378.3891	1401.3999	1428.5825	1455.249	1489.0327	1494.9254	1515.3626	2355.2794	2949.6056	3014.2214	3061.7991	3066.7645	3141.3792	3162.8756	3777.7793	3798.0831	3844.6205
CC(O)(C#N)C(O)CO	C[C@@](O)(C#N)[C@@H](O)CO	
InChI=1S/C5H9NO3/c1-5(9,3-6)4(8)2-7/h4,7-9H,2H2,1H3	InChI=1S/C5H9NO3/c1-5(9,3-6)4(8)2-7/h4,7-9H,2H2,1H3/t4-,5+/m0/s1
