14
gdb 5510	3.77618	1.95121	1.29696	3.5378	73.63	-0.2164	-0.0106	0.2057	888.6288	0.107917	-341.59346	-341.585994	-341.58505	-341.625483	26.883	
C	-0.0385566849	 1.4349002247	 0.0707360622	-0.339886
N	-0.0199940769	-0.0139445167	 0.0282785045	-0.064262
C	-0.057019311	-0.8051324678	-1.0754549202	 0.000647
N	-0.0260808713	-2.0893111678	-0.7811519842	-0.261115
C	 0.0341075226	-2.1403537302	 0.581219436	-0.182571
C	 0.0398730231	-0.8677275608	 1.1235384778	 0.145347
C	 0.0912722972	-0.4043182313	 2.4499918885	 0.274645
C	 0.1350974027	 0.0018350139	 3.5843103977	-0.470909
H	 0.8655642319	 1.8188859337	 0.5509805958	 0.154268
H	-0.0882881081	 1.8151293046	-0.9509155773	 0.144822
H	-0.9080514657	 1.7939384717	 0.628043141	 0.154261
H	-0.1063461394	-0.3851566117	-2.0697752658	 0.130654
H	 0.0707885681	-3.0749853688	 1.1194363655	 0.120051
H	 0.1740503818	 0.3468960164	 4.5876476485	 0.194049
68.8948	141.189	167.0359	210.364	334.2277	456.6172	520.4996	521.9739	603.4686	656.6828	681.5867	684.5618	720.9127	818.7834	861.9614	931.687	1078.1208	1154.1292	1156.8836	1200.7186	1257.0398	1309.1278	1375.0728	1400.2678	1452.6996	1478.9702	1498.1847	1525.9599	1565.3987	2225.6858	3049.6608	3115.1677	3144.2487	3244.1842	3256.035	3502.1004
CN1C=NC=C1C#C	Cn1cncc1C#C	
InChI=1S/C6H6N2/c1-3-6-4-7-5-8(6)2/h1,4-5H,2H3	InChI=1S/C6H6N2/c1-3-6-4-7-5-8(6)2/h1,4-5H,2H3
