19
gdb 87853	3.43011	1.41266	1.30363	2.9253	75.23	-0.231	0.0758	0.3068	1038.9303	0.16016	-422.97917	-422.971781	-422.970837	-423.010721	30.481	
O	-0.0863306329	 1.3398066537	-0.1021731902	-0.436944
C	 0.0300351054	-0.045255281	-0.0094448503	 0.040996
C	-0.404457638	-0.7633022111	 1.2672188107	-0.412775
C	-1.22899575	-0.8484863272	 0.0170537191	 0.448865
O	-2.4384345086	-0.0724100943	-0.0419491528	-0.332876
C	-3.26571685	-0.9212960232	-0.8700766057	 0.106141
C	-3.0465595632	-2.3239343275	-0.250931138	-0.234747
C	-1.60595281	-2.0628836563	-0.8065409543	-0.150766
C	-2.3111716684	-1.3531806008	-2.0098842085	-0.239114
H	-1.0243419607	 1.5180849326	-0.2586497441	 0.293004
H	 0.8976200223	-0.4316916559	-0.5394051436	 0.095111
H	 0.1524466704	-1.6382466115	 1.5889603237	 0.110052
H	-0.7917500994	-0.1373615409	 2.0643927318	 0.125318
H	-4.2360250323	-0.4502581674	-1.0155560007	 0.085604
H	-3.1749442917	-2.4170404006	 0.8292746628	 0.108364
H	-3.5688501199	-3.1194861462	-0.7847213732	 0.10334
H	-0.8595445228	-2.8459104252	-0.9271538638	 0.078909
H	-2.7663091629	-2.0558024627	-2.7094678774	 0.103543
H	-1.7683008472	-0.5648526346	-2.5360399454	 0.107975
121.5118	173.751	228.9077	347.7935	387.4844	445.539	486.5356	500.6181	541.989	626.9059	731.5633	816.7151	832.2319	838.1793	855.5846	872.6022	902.56	942.9367	961.224	994.8288	1009.7603	1023.9391	1038.3836	1056.4922	1070.9793	1093.2415	1099.7314	1128.9411	1159.1545	1195.0717	1211.0876	1237.1964	1251.6302	1265.4493	1315.2889	1331.1093	1389.5159	1421.8232	1472.0038	1491.009	1510.3465	3070.9315	3076.2406	3121.9246	3130.9746	3136.7877	3138.8066	3142.9686	3145.4403	3218.6457	3737.76
OC1CC11OC2CC1C2	O[C@H]1C[C@]21O[C@@H]1C[C@H]2C1	
InChI=1S/C7H10O2/c8-6-3-7(6)4-1-5(2-4)9-7/h4-6,8H,1-3H2	InChI=1S/C7H10O2/c8-6-3-7(6)4-1-5(2-4)9-7/h4-6,8H,1-3H2/t4-,5+,6-,7-/m0/s1
