17
gdb 83724	2.67302	1.70705	1.25241	3.2654	67.21	-0.2695	0.0011	0.2706	1005.7935	0.137354	-458.994475	-458.986983	-458.986039	-459.026682	28.897	
O	 0.0064790868	 1.4653295453	 0.0959555492	-0.43097
C	-0.0137320768	 0.062183962	 0.0411920087	-0.004461
C	-1.39984168	-0.5562536118	-0.0404132093	-0.055124
C	-2.4110112213	 0.0862506197	-1.036125124	-0.237856
C	-2.4451660056	-1.2466713303	-1.8410605073	-0.232518
C	-1.2311902502	-1.7477435037	-1.0316717393	 0.088244
O	 0.0105185524	-1.5162837605	-1.7337967462	-0.223256
C	 0.6586512187	-0.4394010163	-1.242702828	 0.394668
O	 1.6167805524	 0.0620990543	-1.7624051042	-0.353514
H	 0.8056579846	 1.7382392006	-0.3771478075	 0.297859
H	 0.5424974054	-0.3754365752	 0.8884281889	 0.099851
H	-1.8259475551	-0.8158932904	 0.9278674741	 0.086685
H	-3.3571616921	 0.411154819	-0.6020467094	 0.112716
H	-1.9777983487	 0.9276754547	-1.5798314673	 0.126676
H	-3.337940012	-1.8439324415	-1.6389096889	 0.112594
H	-2.2918959445	-1.1927779998	-2.9205076384	 0.122911
H	-1.222313924	-2.7773894561	-0.6713721809	 0.095494
87.8517	120.6861	217.383	264.951	375.6429	412.7357	499.771	505.2938	605.3359	626.7582	711.7414	760.5284	780.6014	853.4526	880.7007	893.452	945.5827	956.5279	1029.1944	1066.0274	1083.3947	1118.2906	1157.6977	1180.4326	1205.0045	1220.2771	1249.3543	1252.9188	1277.7585	1288.932	1339.3323	1354.83	1378.9842	1425.5949	1468.6011	1497.2451	1866.9093	2952.33	3069.0566	3085.5866	3100.0077	3116.941	3124.1042	3142.278	3741.4273
OC1C2CCC2OC1=O	O[C@H]1[C@H]2CC[C@H]2OC1=O	
InChI=1S/C6H8O3/c7-5-3-1-2-4(3)9-6(5)8/h3-5,7H,1-2H2	InChI=1S/C6H8O3/c7-5-3-1-2-4(3)9-6(5)8/h3-5,7H,1-2H2/t3-,4+,5-/m0/s1
