16
gdb 60754	4.68773	0.85111	0.72683	3.4533	73.57	-0.2618	-0.035	0.2268	1471.7877	0.121195	-437.89933	-437.88962	-437.888676	-437.934768	33.737	
C	-0.0148674833	 1.4815822947	-0.0139501891	-0.354626
N	-0.007038882	 0.0199201833	 0.010384282	-0.156191
C	-0.004556311	-0.6131219425	 1.2591996557	 0.174191
O	-0.0086751247	-0.0165805427	 2.3079302881	-0.313642
C	-0.0015961862	-0.7799986038	-1.1451151812	 0.447256
O	 0.0049031145	-1.9854878722	-1.0932487778	-0.316607
C	-0.0056041237	-0.0008873544	-2.4679444658	-0.536857
C	 0.0037149749	-0.8614667759	-3.6383053718	 0.329274
C	 0.0113844906	-1.5456899631	-4.6238467752	-0.404364
H	 0.8761441931	 1.8779733028	-0.5085338768	 0.140387
H	-0.9060454975	 1.8682183072	-0.5157892813	 0.140305
H	-0.0207552448	 1.8105894268	 1.0246761411	 0.178636
H	 0.0015306161	-1.7049855616	 1.1597487646	 0.145329
H	-0.8845066678	 0.6568501234	-2.4856911876	 0.161933
H	 0.8615654511	 0.6721930285	-2.482920726	 0.161745
H	 0.0184781307	-2.1640534605	-5.487138029	 0.203233
40.5215	72.4381	121.355	160.7586	190.2842	252.3354	317.1886	330.0923	340.3436	390.0492	416.4425	546.3818	558.4506	632.3308	657.8322	755.7507	841.7319	950.1034	953.1487	1014.5809	1059.9882	1104.2631	1152.3465	1224.8921	1267.4131	1305.8909	1360.7181	1414.6964	1439.1135	1452.2104	1504.6026	1510.1721	1797.6267	1819.0586	2255.8024	3022.7207	3048.1944	3052.8601	3083.2456	3111.4156	3162.1392	3506.8091
CN(C=O)C(=O)CC#C	CN(C=O)C(=O)CC#C	
InChI=1S/C6H7NO2/c1-3-4-6(9)7(2)5-8/h1,5H,4H2,2H3	InChI=1S/C6H7NO2/c1-3-4-6(9)7(2)5-8/h1,5H,4H2,2H3
