18
gdb 69408	3.23993	1.19046	1.1322	1.529	83.08	-0.2359	0.0076	0.2435	1169.4267	0.147119	-364.761605	-364.753297	-364.752353	-364.794219	32.608	
C	-0.1314685027	 1.5636574018	 0.0160779942	-0.495587
C	 0.0606797608	 0.0704554209	-0.0153319224	 0.3109
N	-0.7498989779	-0.8122144041	 0.8801700915	-0.37617
C	 0.7138312843	-0.7298108239	 1.0558714412	-0.109544
C	 1.4697240033	-1.9015309924	 0.4073465396	-0.202104
C	 1.14151128	-1.717190292	-1.0743582322	-0.087974
C	 0.3934522222	-0.6372214954	-1.2935032792	-0.107119
C	 2.9047711432	-1.8792931688	 0.6781010367	 0.313687
C	 4.0856167453	-1.8499441758	 0.9019160394	-0.467256
H	 0.7206780359	 2.0788329832	-0.4396128666	 0.131902
H	-1.0326186221	 1.8573759156	-0.5346026921	 0.126754
H	-0.2334060647	 1.9265556431	 1.044057939	 0.116143
H	-1.1861452389	-0.2343740544	 1.5986164747	 0.222209
H	 1.1201403577	-0.2758282868	 1.9529895945	 0.096903
H	 1.0523047778	-2.8514377003	 0.7685912342	 0.124722
H	 1.4820003879	-2.4253885164	-1.819764895	 0.108274
H	 0.0286188721	-0.308556251	-2.2598827402	 0.099869
H	 5.1288516459	-1.8299400233	 1.0984678825	 0.194392
90.2086	141.9121	200.7025	248.6853	284.4121	339.7199	425.5854	437.6781	498.0733	577.4759	607.3091	618.8386	645.1819	725.6309	773.8735	792.2918	836.7207	882.2635	926.5338	956.5826	974.2572	1010.1941	1021.2144	1059.3332	1064.4304	1117.6616	1132.9321	1168.6916	1238.5405	1279.6588	1288.8549	1319.0238	1370.4589	1413.8038	1432.0222	1484.6694	1499.8203	1672.5186	2234.5931	3016.4816	3026.7632	3090.0052	3101.3791	3174.1906	3191.8674	3219.1406	3460.8868	3504.6585
CC12NC1C(C=C2)C#C	C[C@]12N[C@H]1[C@@H](C=C2)C#C	
InChI=1S/C8H9N/c1-3-6-4-5-8(2)7(6)9-8/h1,4-7,9H,2H3	InChI=1S/C8H9N/c1-3-6-4-5-8(2)7(6)9-8/h1,4-7,9H,2H3/t6-,7+,8-/m1/s1
