18
gdb 127143	2.54677	1.52554	1.01575	3.505	75.85	-0.207	0.0117	0.2187	1171.5462	0.148286	-435.24114	-435.232232	-435.231287	-435.274553	33.175	
C	 0.0422292189	 1.4552309172	-0.0792477098	-0.319217
N	-0.0402321992	 0.0156134848	 0.1357592525	-0.162879
C	 0.8111170205	-0.4538709005	 1.2290510243	-0.35739
C	-1.3190223288	-0.5225532271	 0.0823760765	 0.415869
N	-2.3942591867	 0.2343050758	-0.0056191464	-0.23496
O	-3.4702630651	-0.6391694016	-0.1224298398	-0.189531
C	-3.0064931676	-1.9058808105	-0.1024541221	 0.019255
C	-1.6556982082	-1.921221517	 0.020545382	 0.043112
N	-0.7531879807	-2.9953230978	 0.1068393121	-0.616349
H	 1.0926041639	 1.726622511	-0.2212805875	 0.113143
H	-0.5257832664	 1.7259652423	-0.9706135547	 0.145098
H	-0.3596275799	 2.0333061321	 0.7668076814	 0.120264
H	 0.5607949791	 0.0334222291	 2.1853242286	 0.114728
H	 0.703912469	-1.5319775451	 1.356462375	 0.154118
H	 1.8555260632	-0.2265111721	 0.9932410529	 0.119544
H	-3.7465059965	-2.6854440445	-0.1959447835	 0.135002
H	-1.1923177543	-3.8821858833	-0.1072847777	 0.246842
H	 0.0367413688	-2.8652631727	-0.5166726738	 0.25335
74.3432	159.5631	196.0193	225.666	256.9409	267.0466	302.3531	324.912	377.8951	439.8912	536.0644	583.6328	604.4976	716.0204	743.6972	779.2844	833.0613	911.8529	949.3679	978.9705	1079.9813	1126.3103	1130.3805	1149.6757	1182.402	1203.8709	1244.9528	1304.9211	1361.9191	1447.159	1457.7578	1467.3164	1481.573	1495.8209	1501.5153	1512.8665	1573.097	1642.6647	1690.1149	2976.0032	2992.9796	3071.9935	3078.1167	3138.6472	3140.6314	3260.8589	3510.6008	3604.7406
CN(C)C1=NOC=C1N	CN(C)c1nocc1N	
InChI=1S/C5H9N3O/c1-8(2)5-4(6)3-9-7-5/h3H,6H2,1-2H3	InChI=1S/C5H9N3O/c1-8(2)5-4(6)3-9-7-5/h3H,6H2,1-2H3
