17
gdb 74585	4.1243	1.4034	1.25996	1.2086	71.89	-0.218	0.0002	0.2183	1017.7699	0.136319	-417.956803	-417.949277	-417.948333	-417.988348	29.824	
C	-0.0251006671	 1.4642467173	 0.0493775621	-0.482935
C	 0.0250722236	-0.019923197	-0.0488015081	 0.327057
N	-0.120592199	-0.7072897165	-1.1136994202	-0.247542
C	-0.0283440184	-2.0887872991	-0.6802277253	-0.098036
C	 0.5982291929	-2.1518752384	 0.6770523849	-0.099103
N	 0.1797613611	-0.7895381897	 1.1878730419	-0.209297
C	-1.2315085037	-1.3636004206	 1.4079670972	-0.25298
C	-0.843054584	-2.5580548345	 0.556993057	 0.355789
O	-1.3639847127	-3.82999864	 0.6407839939	-0.454408
H	 0.9062838567	 1.8415550897	 0.4847039777	 0.144899
H	-0.1809636089	 1.9063607821	-0.9351657767	 0.144848
H	-0.8329570308	 1.7799812591	 0.7198146175	 0.136717
H	 0.1618362015	-2.848793534	-1.4276948041	 0.10237
H	 1.5000412401	-2.6479764563	 1.0132223741	 0.106329
H	-1.3480481707	-1.6319914056	 2.4597264649	 0.126206
H	-2.0514637103	-0.7078145503	 1.0925942698	 0.106319
H	-2.0827075703	-3.9116549761	 0.0040777035	 0.293766
150.6197	173.6254	233.4907	277.0529	355.7792	368.4148	380.8734	484.1478	567.6923	626.4775	678.8496	738.6329	808.5833	831.6424	860.528	885.1519	930.7079	937.8118	990.3182	1009.6381	1037.8656	1064.2608	1082.7118	1093.6538	1146.4995	1170.8263	1218.1524	1237.1935	1268.7297	1294.6065	1311.2543	1408.2289	1439.5624	1471.0002	1473.1947	1506.9005	1701.8921	3033.9496	3038.4956	3090.9898	3113.0469	3152.3458	3189.9346	3204.1958	3797.6261
CC1=NC2C3N1CC23O	C[C]1[N][C@H]2[C@H]3N1C[C@@]23O	
InChI=1S/C6H8N2O/c1-3-7-4-5-6(4,9)2-8(3)5/h4-5,9H,2H2,1H3	InChI=1S/C6H8N2O/c1-3-7-4-5-6(4,9)2-8(3)5/h4-5,9H,2H2,1H3/t4-,5+,6+/m0/s1
