20
gdb 71807	3.27473	1.62392	1.49827	1.538	81.36	-0.2134	0.0823	0.2957	980.714	0.173418	-365.951565	-365.94456	-365.943616	-365.982458	29.659	
C	-0.2191888266	 1.584717126	-0.0423147185	-0.497315
C	-0.0384565926	 0.0925236653	-0.0442795865	 0.321098
C	 0.7156024964	-0.6816773962	-1.1316061747	-0.298365
C	-0.0611891302	-1.9618373424	-0.712003914	-0.063021
C	 0.6282418874	-2.7192132714	 0.4312107469	-0.022729
C	 1.803515265	-2.1254010688	 1.1344045699	-0.246826
N	 0.4482302849	-1.9301652789	 1.6659920122	-0.102611
C	-0.2835698148	-0.7414347472	 1.2313765016	-0.064251
C	-1.0921383425	-1.0208370093	 0.0130930174	-0.124032
H	 0.7201571423	 2.0982449148	 0.196261397	 0.120239
H	-0.5510825125	 1.9421065018	-1.0246152985	 0.115372
H	-0.9644405243	 1.89967354	 0.6953876179	 0.119146
H	 0.3715632359	-0.3382347428	-2.1137800396	 0.094674
H	 1.8096556982	-0.7050064535	-1.1439252745	 0.089181
H	-0.411232333	-2.6080186771	-1.5154206324	 0.068184
H	 0.4465899383	-3.7889235126	 0.5137640156	 0.08535
H	 2.4357129581	-2.7663421557	 1.7448536664	 0.109412
H	 2.3170036255	-1.2741472336	 0.7040209174	 0.120379
H	-0.7244135091	-0.1762018107	 2.0455812035	 0.090987
H	-2.1697223264	-0.9931963676	-0.0910755072	 0.085128
172.8405	198.0444	292.1671	316.4248	371.9144	484.8723	539.8533	581.2441	644.6192	699.8677	760.7514	771.104	822.5866	835.903	867.9274	896.7792	913.8437	942.2118	946.8864	1006.1163	1017.0442	1041.2707	1059.145	1084.5446	1089.286	1106.7182	1125.0705	1158.4124	1161.1686	1188.3176	1201.101	1233.518	1269.6194	1283.1493	1289.7515	1318.069	1374.8712	1405.2752	1418.5174	1485.8371	1496.3654	1500.72	1527.9596	3017.6228	3032.7914	3072.8799	3075.3238	3093.867	3111.1822	3116.9905	3130.0269	3169.9678	3189.0088	3210.4747
CC12CC3C4CN4C1C23	C[C@@]12C[C@H]3[C@H]4CN4[C@@H]1[C@@H]23	
InChI=1S/C8H11N/c1-8-2-4-5-3-9(5)7(8)6(4)8/h4-7H,2-3H2,1H3	InChI=1S/C8H11N/c1-8-2-4-5-3-9(5)7(8)6(4)8/h4-7H,2-3H2,1H3/t4-,5+,6-,7+,8-,9?/m0/s1
