21
gdb 63380	2.65853	1.32676	1.0432	1.598	84.91	-0.2485	0.0345	0.2829	1242.5086	0.178335	-387.059134	-387.048982	-387.048037	-387.093593	38.751	
C	-0.4254706858	 1.4303438847	 0.8957300254	-0.434613
C	 0.145801662	 0.0989822634	 0.4312762087	 0.437982
C	-0.6578575238	-1.0867493552	 0.9534201589	-0.430346
C	 0.5411606159	 0.0059077544	-1.0634360956	-0.378434
C	 1.985325458	-0.2418414152	-0.5413459874	 0.224876
C	 3.0454982981	 0.7768889551	-0.9505386956	-0.438854
O	 1.5483189448	-0.0230323917	 0.8286547856	-0.347649
C	 2.4686153443	-1.6090289207	-0.7388063217	 0.345946
C	 2.8703144404	-2.7289513354	-0.9131188572	-0.493294
H	 0.1768168826	 2.2646540416	 0.5257667776	 0.11553
H	-1.4529102146	 1.5571316059	 0.5372348158	 0.114853
H	-0.4375788645	 1.4780252821	 1.9896042532	 0.124943
H	-1.6923219187	-1.0426101383	 0.5950484173	 0.110775
H	-0.2138133099	-2.0291863541	 0.6225313604	 0.129008
H	-0.6727364466	-1.0812389129	 2.0480227246	 0.122137
H	 0.095310639	-0.8125465743	-1.6285195925	 0.115204
H	 0.43704928	 0.9389537943	-1.6208205076	 0.10531
H	 2.666113785	 1.7910331125	-0.7995810735	 0.11751
H	 3.9452529079	 0.6456494245	-0.3432322526	 0.136061
H	 3.3156807852	 0.6480066739	-2.003145552	 0.125429
H	 3.2238425707	-3.7197864846	-1.0586838416	 0.197626
56.3025	139.434	174.6987	203.4391	221.5985	240.2866	271.3209	321.5579	347.5004	355.8205	410.561	463.6155	514.1581	562.9894	607.7684	622.7539	658.641	720.5421	850.7515	875.9335	905.8542	917.5794	930.1302	950.2473	991.6285	1001.8227	1035.7104	1101.7946	1171.2322	1199.8973	1247.9459	1260.7434	1281.4588	1300.4802	1398.9214	1401.5913	1413.034	1472.9621	1478.6079	1482.247	1482.7839	1489.5099	1494.8588	1506.7795	2228.6916	3030.3901	3036.0314	3041.479	3076.768	3099.7964	3107.0418	3113.4268	3119.885	3120.9589	3125.2306	3141.6829	3501.3108
CC1(C)CC(C)(O1)C#C	CC1(C)C[C@@](C)(O1)C#C	
InChI=1S/C8H12O/c1-5-8(4)6-7(2,3)9-8/h1H,6H2,2-4H3	InChI=1S/C8H12O/c1-5-8(4)6-7(2,3)9-8/h1H,6H2,2-4H3/t8-/m0/s1
