22
gdb 118880	2.84184	1.14682	0.99492	1.9649	82.85	-0.2262	0.0872	0.3134	1325.2244	0.192702	-404.297459	-404.287945	-404.287001	-404.331932	36.104	
C	-0.2064576221	 1.5315059394	 0.1142708463	-0.380799
C	-0.0334839334	 0.0231032395	 0.0323247099	-0.050157
O	-1.3110037025	-0.550911511	-0.175268657	-0.292886
C	-1.3971159756	-1.9481036865	-0.0422003474	 0.458086
C	-0.6030901085	-2.6931316549	-1.116364374	-0.45521
C	-1.1821621936	-2.5670072147	 1.4036420386	-0.296112
C	-2.616828874	-3.0951280046	 1.3251884708	-0.041069
N	-3.4747092581	-1.8907965123	 1.2372200446	-0.329013
C	-2.8497430741	-2.4352657905	 0.0107216223	-0.110882
H	 0.7610676161	 2.0207210431	 0.2635178687	 0.108586
H	-0.650936439	 1.915032239	-0.8086623201	 0.124425
H	-0.8662975921	 1.7950247732	 0.9453339024	 0.130087
H	 0.6544197399	-0.2347617845	-0.7881951467	 0.085371
H	 0.4136114401	-0.361256359	 0.9627015281	 0.087698
H	 0.4745814657	-2.5508614977	-0.9923341352	 0.118541
H	-0.8046144092	-3.7673712999	-1.0679704297	 0.116816
H	-0.8871756141	-2.3317683616	-2.1102996562	 0.12016
H	-0.4086229853	-3.3374914849	 1.4273949521	 0.097226
H	-1.0210185862	-1.8437524434	 2.205655969	 0.108854
H	-3.0023928768	-4.0339277274	 1.70218709	 0.090081
H	-4.4437653463	-2.2100448918	 1.230100984	 0.226032
H	-3.4539853107	-2.7415874194	-0.8355938207	 0.084164
56.8676	95.6886	140.5584	204.9169	240.7543	256.388	283.6316	335.1845	379.9425	422.7299	464.4593	550.8874	654.4156	778.4849	810.8465	820.6188	839.5247	886.8645	893.922	910.0437	953.8195	971.6535	981.0744	1014.6836	1076.0544	1094.5272	1099.7734	1138.001	1149.4421	1175.2652	1184.8523	1193.3894	1229.7133	1247.9419	1299.1242	1301.1354	1333.5783	1384.4661	1399.2435	1400.7204	1427.0254	1467.1841	1482.6789	1488.5242	1495.8347	1500.5495	1528.2504	2970.6913	2998.5042	3035.675	3043.6729	3068.0957	3108.2088	3110.3851	3116.6997	3123.5385	3129.1148	3175.5269	3195.8074	3465.3151
CCOC1(C)CC2NC12	CCO[C@@]1(C)C[C@H]2N[C@@H]12	
InChI=1S/C7H13NO/c1-3-9-7(2)4-5-6(7)8-5/h5-6,8H,3-4H2,1-2H3	InChI=1S/C7H13NO/c1-3-9-7(2)4-5-6(7)8-5/h5-6,8H,3-4H2,1-2H3/t5-,6-,7+/m1/s1
