20
gdb 13400	5.71222	0.97525	0.87807	1.3171	77.05	-0.2362	0.0268	0.2631	1327.7143	0.177739	-349.012517	-349.003994	-349.00305	-349.046137	31.211	
O	-0.0727576926	 1.5021630736	 0.1480316155	-0.420758
C	 0.0582476989	 0.0922227	 0.0346301025	-0.080501
C	-1.3433052817	-0.5038190162	-0.0078641285	-0.177227
C	-1.3686444986	-2.0378782374	-0.0743352947	-0.017419
C	-2.7998482421	-2.6294152282	 0.0557938276	-0.226227
C	-2.8312890901	-3.8791061303	-0.8585362884	-0.25536
C	-1.6779374169	-3.6308742643	-1.8020803635	-0.068706
C	-0.8893881149	-2.6447730061	-1.3793617162	-0.060494
H	 0.8086982237	 1.8861972116	 0.1536999208	 0.284158
H	 0.6171125153	-0.1793425627	-0.8751400291	 0.084807
H	 0.6119463116	-0.3261608019	 0.8919500316	 0.082224
H	-1.8775833967	-0.1685385887	 0.8897385043	 0.102902
H	-1.8804793155	-0.0860744801	-0.8681151552	 0.102971
H	-0.7359996175	-2.4178495274	 0.7449500473	 0.071665
H	-3.0700640345	-2.8492923432	 1.0919872823	 0.094556
H	-3.5191091563	-1.8909904536	-0.3162048583	 0.102732
H	-2.6709268921	-4.8065905075	-0.2900830621	 0.103582
H	-3.7906438102	-4.000215716	-1.3742994463	 0.10127
H	-1.5106778277	-4.227726914	-2.6924043002	 0.088463
H	 0.0188715279	-2.3212784275	-1.8766162293	 0.08736
73.0871	83.1543	113.4672	177.1263	267.7317	283.1376	351.6841	379.8136	517.1627	633.1519	742.2751	761.5313	800.815	849.8574	874.3526	925.1292	961.9601	973.0299	983.94	1022.1843	1063.4597	1072.6156	1098.9908	1114.6276	1147.1933	1172.503	1220.2883	1228.7573	1241.5793	1291.5469	1305.1841	1314.333	1324.6739	1339.781	1364.6404	1391.1803	1461.6956	1482.7353	1491.8086	1500.008	1526.739	1685.3308	2954.6823	2962.5988	2984.9695	3004.1184	3026.8556	3040.4408	3056.6378	3070.8962	3096.2806	3175.4598	3201.4757	3829.9321
OCCC1CCC=C1	OCC[C@H]1CCC=C1	
InChI=1S/C7H12O/c8-6-5-7-3-1-2-4-7/h1,3,7-8H,2,4-6H2	InChI=1S/C7H12O/c8-6-5-7-3-1-2-4-7/h1,3,7-8H,2,4-6H2/t7-/m1/s1
