17
gdb 124676	3.74247	1.04217	1.01641	1.3742	75.29	-0.2473	-0.0391	0.2082	1225.6282	0.136011	-418.035912	-418.027399	-418.026454	-418.070422	30.305	
C	 0.0944833253	 1.4833789333	-0.1719126017	-0.397962
C	 0.032091449	-0.0202338582	 0.0855056544	-0.046438
C	 0.4670878351	-0.8500739663	-1.1264061	 0.144944
O	 0.5789300947	-0.4107064283	-2.2392176557	-0.232466
N	 0.7875934645	-0.4469653328	 1.2530066033	 0.036519
C	 2.1176497334	-0.2944363878	 1.4920765043	-0.03416
C	 2.3791180553	-0.9063267769	 2.6994175836	-0.229844
C	 1.1302380666	-1.4117899977	 3.1135898436	-0.003143
N	 0.1688379967	-1.1373864411	 2.2357275225	-0.259611
H	 1.1193646713	 1.8107786878	-0.3657653722	 0.13186
H	-0.4990811519	 1.7257209719	-1.0554526159	 0.146206
H	-0.2949484785	 2.0322484686	 0.6881115522	 0.134684
H	-0.997946267	-0.3245872555	 0.3087523584	 0.140108
H	 0.6684860491	-1.9172407883	-0.8870418695	 0.103557
H	 2.7583611836	 0.2326683711	 0.8027764374	 0.139611
H	 3.3295543165	-0.9741376838	 3.2030448112	 0.109339
H	 0.8899092566	-1.9596310061	 4.0129240639	 0.116796
36.378	66.7852	121.6105	199.8041	246.8624	253.6624	385.8398	416.9317	586.6494	638.7526	677.8805	720.3896	768.3764	835.0031	853.2275	893.5881	926.8351	935.8993	973.144	1051.9183	1073.6956	1101.6227	1117.3638	1145.0474	1216.2225	1253.4692	1315.6733	1337.9843	1379.4035	1401.7479	1418.171	1426.62	1475.3324	1488.9754	1492.8048	1557.3329	1837.5485	2902.3869	3050.7792	3059.075	3132.3194	3146.7597	3245.2954	3257.7847	3279.0068
CC(C=O)N1C=CC=N1	C[C@@H](C=O)n1cccn1	
InChI=1S/C6H8N2O/c1-6(5-9)8-4-2-3-7-8/h2-6H,1H3	InChI=1S/C6H8N2O/c1-6(5-9)8-4-2-3-7-8/h2-6H,1H3/t6-/m0/s1
