18
gdb 68755	2.41931	1.74297	1.24489	1.9206	72.87	-0.2132	-0.0234	0.1898	1039.4118	0.14701	-439.08874	-439.080151	-439.079206	-439.121533	33.066	
C	-0.0470967899	 1.514996505	-0.0195786357	-0.485429
C	 0.0265667261	 0.01547169	 0.0201022806	 0.257047
C	 1.3015165001	-0.7147198279	-0.2746805576	-0.375344
C	 0.7289494544	-0.7691743335	 1.1383160444	 0.293022
O	 1.4357099042	-0.2432641432	 2.2032861532	-0.478419
C	-0.1704592413	-1.9084515961	 1.4273205091	 0.335972
O	-0.1395788788	-2.5467733534	 2.4565340842	-0.352158
C	-1.1821969045	-2.0129995708	 0.2813634771	-0.302388
N	-1.1782820551	-0.7041132582	-0.4045177943	-0.339398
H	 0.8747419331	 1.9542825964	 0.3684386386	 0.14232
H	-0.1982662997	 1.8680221612	-1.0451158572	 0.133928
H	-0.8760570617	 1.8841397208	 0.5956876037	 0.119552
H	 1.3000103335	-1.5952897893	-0.9097711257	 0.119824
H	 2.1954645242	-0.1035546537	-0.3401515519	 0.134695
H	 1.2918403758	-0.8658606742	 2.9330250108	 0.294897
H	-0.8834187384	-2.8217538964	-0.3987026423	 0.139611
H	-2.1710767424	-2.2681796924	 0.6672638313	 0.138959
H	-1.9835390098	-0.1743151342	-0.0849282385	 0.223309
95.989	180.1699	189.0737	192.1971	280.1641	321.3453	352.2201	386.0832	472.4402	482.4639	546.4481	584.3552	643.5842	696.4724	721.4822	814.8892	847.3509	911.264	940.5304	964.1088	1012.9298	1045.7266	1062.0145	1080.9534	1100.6664	1123.8838	1201.4378	1258.4604	1294.0102	1333.0841	1380.8962	1408.3841	1424.238	1455.8403	1473.3602	1482.7932	1495.0429	1514.3845	1812.1834	3025.3178	3030.934	3091.9504	3113.4737	3123.2371	3127.319	3218.7007	3508.7488	3707.2824
CC12CC1(O)C(=O)CN2	C[C@@]12C[C@]1(O)C(=O)CN2	
InChI=1S/C6H9NO2/c1-5-3-6(5,9)4(8)2-7-5/h7,9H,2-3H2,1H3	InChI=1S/C6H9NO2/c1-5-3-6(5,9)4(8)2-7-5/h7,9H,2-3H2,1H3/t5-,6+/m1/s1
