15
gdb 5395	5.22569	1.60365	1.2379	2.4235	72.88	-0.212	-0.0327	0.1793	945.5625	0.121441	-358.892629	-358.885473	-358.884529	-358.924301	26.017	
C	 0.0010833589	 1.4448732161	-0.0914172491	-0.32506
N	-0.0428539624	 0.0123801381	 0.088397663	-0.346782
C	 0.6142957873	-0.6592841492	 1.0787376054	 0.397122
N	 0.621026415	-1.9982784654	 0.9882401452	-0.326278
C	 1.2378600821	-2.6589503529	 1.9658085694	-0.01243
C	 1.8542781863	-2.0165885255	 3.0335469628	-0.041385
N	 1.858956529	-0.68165145	 3.1242153573	-0.225048
C	 1.2494127555	-0.0060358808	 2.1605615133	-0.085436
H	 1.0234998812	 1.8261805692	-0.2276827385	 0.127988
H	-0.5803506339	 1.7048218279	-0.9777294139	 0.13444
H	-0.4443596136	 1.9684946768	 0.7630710359	 0.137294
H	-0.3363729787	-0.5679304834	-0.6805409872	 0.249495
H	 1.2418133647	-3.7441907311	 1.8913652092	 0.108508
H	 2.3521449812	-2.5744471171	 3.8203155474	 0.105241
H	 1.2570177475	 1.0771534373	 2.2358267397	 0.102331
73.704	143.9277	217.5427	226.3972	390.1292	442.7187	485.7968	553.5933	584.4386	649.9617	785.3133	845.6549	854.3447	921.8961	978.9307	1013.4653	1071.4484	1103.1074	1158.9519	1169.3989	1218.8601	1261.4624	1312.005	1357.0891	1448.6907	1458.0696	1484.0674	1485.9443	1522.9437	1554.0178	1587.7896	1623.3466	2996.869	3052.8102	3129.7206	3150.2854	3168.6654	3181.5936	3641.65
CNC1=NC=CN=C1	CNc1nccnc1	
InChI=1S/C5H7N3/c1-6-5-4-7-2-3-8-5/h2-4H,1H3,(H,6,8)	InChI=1S/C5H7N3/c1-6-5-4-7-2-3-8-5/h2-4H,1H3,(H,6,8)
