14
gdb 27460	2.4171	1.66809	0.9976	5.2259	77.45	-0.2352	-0.0879	0.1473	1094.9272	0.101831	-436.716074	-436.708627	-436.707683	-436.748454	27.944	
O	-0.0281353632	 1.3588683872	 0.158080678	-0.417891
C	-0.0052909299	 0.0062138987	 0.0395051553	 0.385278
C	-1.2240012526	-0.6043366673	-0.00998341	-0.26467
C	-1.5275941955	-2.01474696	-0.1444620308	 0.319465
O	-2.6608606485	-2.4137402663	-0.3882233653	-0.363144
C	-0.4863867781	-3.05346276	 0.1358714069	-0.035785
N	 0.7988851933	-3.0350812993	 0.1214709509	-0.23819
C	 1.588877837	-1.9364415941	-0.0924396083	 0.007744
C	 1.2853477285	-0.6139426398	-0.0784383088	-0.189069
H	 0.8699936154	 1.7031944614	 0.2008255565	 0.306116
H	-2.096282567	 0.0403871825	 0.0345452991	 0.129455
H	-0.954239841	-4.015909557	 0.3582746677	 0.138328
H	 2.6366529203	-2.1939314957	-0.2314141276	 0.123979
H	 2.1298308111	 0.0671949498	-0.1754827836	 0.098386
56.1187	174.118	260.732	328.523	363.4814	376.1438	440.8712	472.5011	508.1332	573.148	633.2491	713.6259	796.4533	828.1845	872.6099	914.3028	960.2766	977.5997	997.9241	1075.0481	1208.4733	1244.5709	1299.9154	1307.3044	1392.3017	1407.8265	1488.1035	1575.0465	1668.7942	1670.0295	1710.7788	3106.0843	3128.361	3156.562	3187.3871	3823.8623
OC1=CC(=O)C=NC=C1	Oc1cc(=O)cncc1	
InChI=1S/C6H5NO2/c8-5-1-2-7-4-6(9)3-5/h1-4,8H	InChI=1S/C6H5NO2/c8-5-1-2-7-4-6(9)3-5/h1-4,8H
