14
gdb 132152	3.26705	1.38555	0.97875	2.7419	67.6	-0.2464	-0.0326	0.2138	1109.3061	0.101266	-478.011016	-478.003501	-478.002557	-478.043232	27.872	
C	 0.1160489962	 1.490057401	 0.0199771717	-0.473112
C	-0.0072445635	-0.0023315477	 0.0079911732	 0.210761
C	-0.1511812595	-0.7033291522	-1.1196184186	-0.045584
O	-0.2655005022	-2.0816223034	-1.1366321889	-0.200324
C	-0.2214687221	-2.6668027297	 0.0639939433	 0.398848
F	-0.3392863831	-3.9610596879	-0.0898496513	-0.038388
N	-0.0913481722	-2.1467485299	 1.204412402	-0.41328
C	 0.0302058528	-0.7392134344	 1.2837383401	 0.281813
N	 0.1658958278	-0.1159423102	 2.3882865768	-0.517733
H	 1.0576760168	 1.7870775858	 0.4913640338	 0.15357
H	 0.0721340403	 1.9064277409	-0.9897682766	 0.115749
H	-0.6818733872	 1.9296780389	 0.6258827302	 0.153603
H	-0.1954492851	-0.3045107634	-2.1231337956	 0.147893
H	 0.1696260211	-0.7888315778	 3.1571398599	 0.226184
98.4803	167.8063	191.4084	283.5731	330.6144	378.6648	405.7486	474.5205	538.8637	587.6359	724.1546	750.4149	771.6461	779.4379	873.4491	923.3451	962.5601	1018.3754	1069.0341	1110.5408	1167.1504	1226.0646	1310.6086	1379.3859	1414.9541	1420.8557	1463.869	1482.4202	1679.2474	1718.7629	1754.8961	3044.6438	3108.489	3125.4034	3243.6769	3469.8733
CC1=COC(F)=NC1=N	CC1=C(N=C(OC1)F)[NH]	
InChI=1S/C5H5FN2O/c1-3-2-9-5(6)8-4(3)7/h2,7H,1H3	InChI=1S/C5H6FN2O/c1-3-2-9-5(6)8-4(3)7/h7H,2H2,1H3
