17
gdb 65361	4.23766	1.02467	0.93228	1.8866	76.24	-0.2606	0.021	0.2815	1266.777	0.132608	-421.745004	-421.735975	-421.73503	-421.778798	33.258	
C	 0.3560816827	 1.4065281975	-0.131539247	-0.487545
C	 0.0373166175	-0.0476270696	 0.1456790619	 0.179227
O	 1.1637571392	-0.9580887526	 0.1782905215	-0.270063
C	 0.4532325162	-0.7516306974	 1.3882812972	-0.016023
C	 1.1846250752	-0.1426553089	 2.5466487255	 0.034424
C	 2.6211587013	-0.3949889546	 2.7416569293	-0.170367
O	 2.1438371542	 0.880898882	 2.3104087613	-0.222119
C	-1.1246021728	-0.5620455767	-0.5473849163	 0.28731
C	-2.0990496357	-0.9575555908	-1.1294701598	-0.424982
H	 1.2713265249	 1.6978017719	 0.3804711649	 0.166808
H	 0.4751894482	 1.5552531353	-1.2087368869	 0.133523
H	-0.4689600103	 2.0415866047	 0.2056642149	 0.128872
H	-0.1708153024	-1.5948486903	 1.6953956678	 0.101258
H	 0.5602961368	 0.0148643751	 3.4275508498	 0.103863
H	 3.0335701373	-0.4239153585	 3.7483176704	 0.11947
H	 3.1557289889	-0.9635718307	 1.9842115002	 0.136572
H	-2.9564483111	-1.3152269765	-1.6442776045	 0.199771
78.2199	117.5476	139.3424	186.7327	223.6983	249.7071	305.0736	376.7285	421.7173	544.8733	581.643	628.8853	656.5773	663.3574	692.4637	781.6542	843.5013	898.1119	919.7854	962.7453	988.554	1079.8864	1089.8001	1118.8351	1130.4996	1164.945	1168.39	1243.5208	1285.2537	1321.3494	1409.4844	1421.3256	1452.1379	1494.0791	1497.4837	1518.9693	2237.3468	3050.8984	3077.8205	3095.6893	3105.5101	3112.7363	3176.0346	3193.2587	3501.8645
CC1(OC1C1CO1)C#C	C[C@]1(O[C@H]1[C@H]1CO1)C#C	
InChI=1S/C7H8O2/c1-3-7(2)6(9-7)5-4-8-5/h1,5-6H,4H2,2H3	InChI=1S/C7H8O2/c1-3-7(2)6(9-7)5-4-8-5/h1,5-6H,4H2,2H3/t5-,6+,7+/m1/s1
