20
gdb 22128	3.36573	0.89193	0.84152	1.9656	79.54	-0.2417	0.0074	0.249	1440.5461	0.168186	-440.231325	-440.221387	-440.220443	-440.266758	36.927	
C	-0.5194484946	 1.6929602805	-0.1013687154	-0.477105
C	 0.0209705608	 0.2726191168	 0.021060708	 0.325092
C	-1.0835459366	-0.7765832643	-0.1343541324	-0.115361
O	-1.676405107	-0.7872480328	-1.4228020625	-0.422027
C	 1.2633607082	-0.0547273388	-0.8846888411	-0.363991
C	 1.9992731127	-0.4658850162	 0.3709860351	 0.431976
C	 0.8905043415	-0.0123951807	 1.2967655671	-0.379113
N	 3.1233130787	-1.0307857824	 0.5127267939	-0.233347
O	 3.4049462516	-1.2490725025	 1.8764365808	-0.395702
H	 0.277540889	 2.4320942431	 0.0283391514	 0.121401
H	-0.9613031568	 1.867579658	-1.0896236345	 0.112257
H	-1.2864183002	 1.8939852712	 0.6564311384	 0.11549
H	-0.6585906734	-1.7776260975	 0.0007273014	 0.111529
H	-1.8391007971	-0.6338482262	 0.6558206066	 0.086933
H	-2.1984592917	 0.0147394276	-1.5193229235	 0.285849
H	 1.1049278415	-0.8290691175	-1.639515762	 0.132837
H	 1.6949553026	 0.8229601435	-1.3772848482	 0.114504
H	 1.1438157526	 0.8791873682	 1.8798250604	 0.120684
H	 0.5127426861	-0.7728953503	 1.9880470198	 0.122386
H	 4.2615687221	-1.6875063796	 1.8370239967	 0.305708
23.4083	105.3917	179.9231	206.6541	246.2221	259.263	292.4103	323.0784	336.8683	350.7701	395.3183	469.2472	485.3944	538.3469	674.4119	756.0563	822.3616	871.3219	887.0222	925.3191	955.5034	969.6865	983.6883	1048.9617	1078.3041	1122.2712	1134.6048	1142.3855	1196.0789	1218.7955	1237.9836	1290.0426	1320.8094	1378.9948	1401.4863	1409.0431	1421.7516	1450.192	1470.0384	1490.0512	1499.2766	1508.6038	1783.739	2970.5503	3018.6211	3043.4119	3050.0089	3063.7938	3081.7729	3089.0336	3095.6395	3104.9301	3818.2243	3828.0497
CC1(CO)CC(C1)=NO	C[C@@]1(CO)CC(=NO)C1	
InChI=1S/C6H11NO2/c1-6(4-8)2-5(3-6)7-9/h8-9H,2-4H2,1H3	InChI=1S/C6H11NO2/c1-6(4-8)2-5(3-6)7-9/h8-9H,2-4H2,1H3/t6-
