14
gdb 9582	4.11315	1.42894	1.23705	3.164	64.32	-0.2887	-0.0665	0.2222	959.4247	0.105869	-378.720645	-378.712638	-378.711694	-378.753121	28.087	
C	 0.3443338152	 1.6197142359	-0.3048779106	-0.475643
C	-0.0328960443	 0.1898324016	-0.0039915937	 0.21459
N	 1.0201303942	-0.8252003643	-0.0452217848	-0.332826
C	 0.4291948366	-0.5178189975	 1.2579102217	-0.218353
C	 1.2560214629	 0.1704840037	 2.2186562867	 0.340076
N	 1.889673689	 0.7376056992	 3.0017246728	-0.326362
C	-1.3905172617	-0.2721106397	-0.4548411201	 0.107539
O	-1.6783177765	-1.4387778352	-0.5702327697	-0.261022
H	 1.2972004884	 1.8754667877	 0.1608679616	 0.164309
H	 0.4410998336	 1.7691280468	-1.3848604898	 0.139787
H	-0.4192006975	 2.3087278069	 0.0709506011	 0.134543
H	 0.6049610988	-1.6979798554	-0.3772963274	 0.259853
H	-0.2632347793	-1.2361922639	 1.6880809241	 0.151139
H	-2.1181207493	 0.5334025641	-0.683158132	 0.10237
107.5462	136.5025	161.1001	171.7268	253.9333	325.8963	354.9877	373.295	525.2529	573.9782	660.4654	756.3917	799.1439	905.6738	951.5927	989.5997	1018.0131	1079.5565	1100.2897	1125.3587	1239.6557	1268.8414	1336.2637	1413.1343	1423.2699	1438.2546	1485.204	1492.8241	1806.315	2360.3813	2929.6336	3044.1188	3108.7802	3144.5367	3156.6767	3452.7069
CC1(NC1C#N)C=O	C[C@]1(N[C@H]1C#N)C=O	
InChI=1S/C5H6N2O/c1-5(3-8)4(2-6)7-5/h3-4,7H,1H3	InChI=1S/C5H6N2O/c1-5(3-8)4(2-6)7-5/h3-4,7H,1H3/t4-,5-/m0/s1
