22
gdb 117952	2.39047	0.96967	0.73087	3.4366	81.17	-0.2368	0.0386	0.2754	1626.6375	0.191529	-441.521371	-441.509956	-441.509011	-441.559296	39.217	
C	 0.2036209735	 0.7994139722	-1.0354661889	-0.388519
C	-0.032203367	-0.2837874912	 0.0034850077	-0.039765
O	-1.3075785197	-0.8575322526	-0.2288313151	-0.273315
C	-1.6391243969	-1.9590802913	 0.6065673982	 0.040152
C	-2.1131075324	-1.5301227606	 1.9965695298	-0.398966
C	-2.7187223948	-2.8159426113	-0.0794925658	 0.372847
O	-3.2151698536	-3.7656792623	 0.5047026255	-0.396578
N	-3.0318671935	-2.4344772559	-1.3401991949	-0.298967
C	-4.0225013474	-3.1200226749	-2.1417323181	-0.333781
H	 1.1794483427	 1.2686927205	-0.8796243634	 0.1204
H	 0.1796205391	 0.3789363673	-2.0451801977	 0.123133
H	-0.5670663193	 1.5723417469	-0.9659785962	 0.129358
H	 0.745018236	-1.0625405777	-0.0628647497	 0.092696
H	 0.019755925	 0.1429477216	 1.0159757913	 0.098459
H	-0.7599517019	-2.6156928382	 0.709658572	 0.095089
H	-2.4632985479	-2.4100954172	 2.5389766107	 0.151315
H	-1.3073192686	-1.0596437299	 2.5663285987	 0.11125
H	-2.9399829074	-0.8189308119	 1.9078795303	 0.123352
H	-2.5503603952	-1.6224853802	-1.6926795065	 0.257367
H	-4.4140585367	-3.9447214428	-1.5444514159	 0.167463
H	-4.8477592377	-2.45209601	-2.4138265762	 0.123879
H	-3.5835120363	-3.5221567805	-3.0619742258	 0.123128
49.0107	55.8556	78.1514	94.008	128.4946	152.8659	216.6502	246.8511	252.0577	299.4395	353.8707	373.0132	419.8812	523.8618	583.4777	640.3845	755.6846	821.4149	844.7947	879.0778	947.5098	1023.6906	1082.7423	1096.9467	1131.3197	1146.9966	1151.6313	1156.7892	1183.171	1188.5841	1256.9988	1298.5337	1333.9498	1349.5451	1391.161	1402.4485	1433.7333	1440.7015	1484.2863	1490.7179	1492.6277	1498.2001	1500.6505	1500.7928	1530.0796	1570.2665	1777.1614	2970.7469	2978.2657	3010.5321	3024.8414	3044.3883	3048.1613	3074.9821	3117.5137	3118.8808	3121.5223	3146.1856	3148.4624	3637.0068
CCOC(C)C(=O)NC	CCO[C@@H](C)C(=O)NC	
InChI=1S/C6H13NO2/c1-4-9-5(2)6(8)7-3/h5H,4H2,1-3H3,(H,7,8)	InChI=1S/C6H13NO2/c1-4-9-5(2)6(8)7-3/h5H,4H2,1-3H3,(H,7,8)/t5-/m0/s1
