14
gdb 62417	2.49643	1.54022	1.39266	4.9494	66.4	-0.2557	-0.0488	0.207	975.8647	0.10067	-432.835848	-432.827719	-432.826775	-432.868553	29.611	
N	-0.0838981446	 1.5271096793	 0.155571208	-0.553852
C	-0.0496178093	 0.0883671432	 0.0091758593	 0.007937
C	 0.8472180787	-0.4900147843	 1.0101984633	 0.278311
N	 1.5682383469	-0.9495419888	 1.7873082473	-0.314283
C	-1.3898033424	-0.6661629661	-0.0438715526	-0.011283
C	-2.1111088705	-0.4221632622	-1.2995397526	-0.269484
N	-1.0018703413	-1.4261011812	-1.3155802231	-0.162084
C	 0.2040626914	-0.6268942283	-1.3887371562	 0.354358
O	 1.0512667487	-0.5784734082	-2.2167011854	-0.273801
H	 0.8572707647	 1.9043523089	 0.2042523492	 0.260639
H	-0.5442217742	 1.9583025889	-0.6386746168	 0.245465
H	-1.8213355737	-1.1947437027	 0.7958920487	 0.142105
H	-3.0857756568	-0.8829039219	-1.4186115785	 0.158208
H	-1.9832203278	 0.5014482735	-1.8577064506	 0.137764
111.1439	136.8509	174.8567	196.601	227.1155	273.7754	412.8325	466.9197	511.94	579.4053	665.5067	695.9506	753.2429	770.995	817.3293	870.0343	911.0382	1001.9621	1013.4795	1038.4936	1065.146	1115.7774	1142.9409	1214.2562	1244.1681	1292.1399	1373.041	1508.7297	1657.4658	1927.8701	2359.7997	3122.3637	3209.748	3218.5655	3512.1073	3595.6396
NC1(C#N)C2CN2C1=O	N[C@@]1(C#N)[C@H]2CN2C1=O	
InChI=1S/C5H5N3O/c6-2-5(7)3-1-8(3)4(5)9/h3H,1,7H2	InChI=1S/C5H5N3O/c6-2-5(7)3-1-8(3)4(5)9/h3H,1,7H2/t3-,5+,8?/m1/s1
