20
gdb 122089	3.28411	0.73066	0.6282	3.9651	77.02	-0.2719	0.0289	0.3008	1798.4274	0.168662	-440.287909	-440.277114	-440.27617	-440.325101	36.87	
C	 0.0314711508	 1.5221374055	-0.111186052	-0.386556
C	-0.0352192367	 0.0055777443	-0.0810730829	-0.034857
O	 0.7256475498	-0.4981743825	-1.1660890832	-0.241649
C	 0.7309169932	-1.8984480779	-1.2445020446	-0.064044
C	 1.5025509122	-2.3028792146	-2.5066480687	-0.174797
C	 1.7001553536	-3.8358612592	-2.6045588515	-0.069994
O	 2.440819256	-4.2145983447	-3.7390318872	-0.415426
C	 0.8262702856	-1.8310412715	-3.7181764837	 0.27334
N	 0.2975628177	-1.537575252	-4.7035810403	-0.330262
H	 1.0660296355	 1.8632683125	-0.0156884472	 0.129348
H	-0.3706323334	 1.9035843768	-1.0536305394	 0.136445
H	-0.5513203597	 1.9435679938	 0.7130140941	 0.118645
H	 0.3629090819	-0.3841172282	 0.8707369379	 0.089356
H	-1.0785682695	-0.3407241697	-0.1625505542	 0.094507
H	 1.2265221689	-2.3455413887	-0.3659813935	 0.096929
H	-0.295536343	-2.298514651	-1.2838472307	 0.103835
H	 2.4908565658	-1.8309889214	-2.4712234272	 0.144903
H	 2.2755438003	-4.166160561	-1.7345308014	 0.123374
H	 0.7180105008	-4.3312104848	-2.5674539204	 0.106899
H	 1.92584963	-3.9904738255	-4.523103184	 0.300003
45.8027	68.2756	87.3307	120.4494	131.0735	173.2161	234.6865	249.7884	265.9673	322.9709	389.1843	426.2041	480.8642	567.1415	636.0827	794.0579	822.8709	895.0922	932.8895	1026.3827	1066.7721	1084.9593	1091.4955	1109.44	1158.939	1170.0261	1187.875	1208.8078	1253.1103	1273.8458	1298.3026	1369.8412	1384.1223	1395.8202	1408.1436	1425.0459	1450.3302	1483.5608	1499.0009	1503.9639	1514.0337	1535.8465	2353.7395	2953.8382	2965.475	2988.6017	2990.8996	2993.4697	3047.9291	3063.1413	3089.0028	3122.7302	3126.4125	3795.0502
CCOCC(CO)C#N	CCOC[C@@H](CO)C#N	
InChI=1S/C6H11NO2/c1-2-9-5-6(3-7)4-8/h6,8H,2,4-5H2,1H3	InChI=1S/C6H11NO2/c1-2-9-5-6(3-7)4-8/h6,8H,2,4-5H2,1H3/t6-/m1/s1
