24
gdb 7006	2.47218	1.77121	1.42831	0.0667	84.93	-0.2734	0.0773	0.3506	1071.1175	0.221765	-314.279853	-314.270115	-314.269171	-314.313148	37.573	
C	-0.1360888391	 1.5870454214	-0.0693170352	-0.419653
C	 0.0584900761	 0.0793460193	 0.0076701662	 0.027185
C	 1.1031683261	-0.6050294135	-0.9115092553	-0.261202
C	 1.4017889605	-1.6078619924	 0.2329403662	 0.027188
C	 2.8199699844	-2.125817778	 0.4264067909	-0.419653
C	 0.7588553498	-0.5910656415	 1.2462370626	 0.312305
C	 1.7895167025	 0.3195039313	 1.9202845815	-0.437954
C	-0.1740386702	-1.1939573181	 2.2937700592	-0.455581
H	 0.8096955548	 2.1275176578	 0.0400135455	 0.111676
H	-0.5657345545	 1.8711121344	-1.0367589677	 0.111565
H	-0.8180958127	 1.9466886082	 0.7098341918	 0.110948
H	-0.9125036154	-0.4111150741	-0.1344610517	 0.062952
H	 0.7581346819	-1.0074249362	-1.8678767179	 0.087981
H	 1.959617804	 0.0509722258	-1.1053097513	 0.091089
H	 0.7215418544	-2.4635068853	 0.1395699891	 0.062951
H	 3.5467869241	-1.3103237467	 0.499058572	 0.111676
H	 2.9078548242	-2.733217881	 1.3346439121	 0.110948
H	 3.1184893878	-2.7562891395	-0.4189485451	 0.111565
H	 2.4813017887	 0.7748174007	 1.2051668226	 0.111334
H	 1.2945943493	 1.1328512502	 2.4622228561	 0.110045
H	 2.3888415024	-0.2415297855	 2.6457019548	 0.110046
H	 0.3826276846	-1.7880774812	 3.0288685364	 0.108374
H	-0.7119759997	-0.4131933618	 2.8453639092	 0.108373
H	-0.919985824	-1.8495570843	 1.831359968	 0.105843
101.0536	189.2262	204.755	212.5507	233.6485	240.7643	245.2922	286.9381	314.8159	360.3352	421.3969	481.2002	485.859	571.0655	680.446	760.5422	862.3682	877.9619	912.5792	945.7241	951.4392	964.8168	995.8937	1039.3393	1048.7192	1093.3226	1146.1453	1161.1256	1176.7754	1194.594	1224.5198	1260.7307	1268.3858	1269.325	1325.1218	1360.1212	1388.0438	1402.3141	1405.2375	1411.9806	1421.1925	1480.3419	1483.0991	1493.7743	1495.1024	1495.1979	1495.9905	1499.306	1507.5183	1509.2093	3013.8327	3019.3729	3021.6995	3023.7393	3024.8161	3030.8563	3039.9843	3076.2319	3084.2668	3084.7545	3087.2944	3090.4335	3091.4673	3095.8179	3097.943	3103.9031
CC1CC(C)C1(C)C	C[C@H]1C[C@@H](C)C1(C)C	
InChI=1S/C8H16/c1-6-5-7(2)8(6,3)4/h6-7H,5H2,1-4H3	InChI=1S/C8H16/c1-6-5-7(2)8(6,3)4/h6-7H,5H2,1-4H3/t6-,7+
