16
gdb 5587	3.36573	1.86556	1.2187	1.4675	68.65	-0.1922	0.0243	0.2165	973.6386	0.129865	-383.759698	-383.751646	-383.750701	-383.792686	28.625	
C	 0.0097154778	 1.4321197045	 0.0514346564	-0.247517
O	 0.0169941156	 0.0185354093	 0.0236333274	-0.267688
C	 0.6067488245	-0.5560174396	-1.0580413353	 0.235501
C	 0.7009314751	-1.9077162172	-1.2325230663	 0.251359
C	 0.2545919761	-3.062076336	-0.4152372835	-0.498071
O	 1.3455791768	-2.1551617788	-2.4158430141	-0.17686
C	 1.6522480911	-0.9620114497	-2.9769409988	-0.007196
C	 1.2268631367	 0.0651980271	-2.1950700158	-0.315608
H	 1.0286306528	 1.842133891	 0.0533225004	 0.120339
H	-0.539736921	 1.8509029572	-0.8024096887	 0.120313
H	-0.4932052169	 1.7213950312	 0.9759372908	 0.133319
H	-0.4589919954	-3.6957583801	-0.9554660385	 0.132253
H	 1.0943498275	-3.6984935439	-0.1113389055	 0.132252
H	-0.2351410265	-2.6888606245	 0.487052412	 0.144491
H	 2.1675083699	-1.0032004447	-3.9222552488	 0.131155
H	 1.339419106	 1.1170128342	-2.4001149818	 0.111957
48.9946	116.3613	196.8897	204.892	228.6824	303.5791	336.3685	507.7416	608.1129	613.6489	677.4339	722.7826	730.6545	798.4045	908.1827	958.6229	1053.6889	1064.3223	1098.9726	1166.1846	1180.0461	1193.8128	1218.4431	1253.5803	1316.5589	1408.1277	1449.4351	1475.8167	1488.5632	1490.0009	1497.1118	1508.506	1543.2942	1686.1194	2998.514	3022.2235	3054.6213	3068.4676	3129.4811	3130.8032	3261.6669	3284.5875
COC1=C(C)OC=C1	COc1c(C)occ1	
InChI=1S/C6H8O2/c1-5-6(7-2)3-4-8-5/h3-4H,1-2H3	InChI=1S/C6H8O2/c1-5-6(7-2)3-4-8-5/h3-4H,1-2H3
