19
gdb 119624	4.2323	0.97215	0.87884	3.2984	72.53	-0.2527	0.0725	0.3252	1365.2547	0.158346	-460.12916	-460.120395	-460.119451	-460.16319	31.712	
C	 0.0131701458	 1.3412479758	 0.1925751449	-0.22177
O	 0.0093025915	-0.066468674	 0.15317507	-0.238028
C	-1.2731562965	-0.6054507473	-0.0836184107	-0.171093
C	-1.155316335	-2.0995375133	-0.114798216	 0.401871
C	-0.1649011212	-2.7838889405	-1.0382502724	-0.135295
O	-0.5614638649	-4.1510546175	-1.089359218	-0.256836
C	-1.940723287	-4.2642102698	-0.7649016074	-0.100908
C	-2.2634563352	-3.0415327252	 0.0666217854	-0.065568
O	-1.3205174311	-2.8169316347	 1.1187537727	-0.286207
H	 1.0423944796	 1.6591987606	 0.3732927521	 0.132617
H	-0.3336585867	 1.777078694	-0.7580910809	 0.104205
H	-0.6266703929	 1.7277733154	 1.0011127724	 0.108801
H	-1.9822550095	-0.3107546203	 0.7056616264	 0.101524
H	-1.6699761657	-0.2408364009	-1.0479151615	 0.090725
H	-0.2024729495	-2.3111264965	-2.0333492703	 0.091865
H	 0.8634613765	-2.7422570364	-0.6705095621	 0.131046
H	-2.5780971551	-4.2733763078	-1.6653223313	 0.092614
H	-2.0831566421	-5.2076343016	-0.2278076257	 0.120878
H	-3.2914306611	-2.74436906	 0.2591192724	 0.099559
69.0245	100.2983	121.7985	203.105	228.5427	268.4941	324.8144	351.354	418.5039	456.2186	679.125	718.9502	787.1081	878.4543	908.0644	931.5731	959.6122	983.2584	988.9478	1037.009	1086.0723	1111.9108	1122.4193	1157.5835	1183.5755	1214.9671	1221.3905	1235.4914	1248.2747	1273.5813	1292.7999	1359.6139	1377.0722	1408.4719	1474.3324	1485.9264	1492.4219	1497.0812	1499.7654	1511.3053	1518.6909	2946.5492	2965.6454	2971.6485	2977.866	3001.1362	3016.9578	3072.9734	3097.1127	3119.9459	3149.1536
COCC12COCC1O2	COC[C@]12COC[C@H]1O2	
InChI=1S/C6H10O3/c1-7-3-6-4-8-2-5(6)9-6/h5H,2-4H2,1H3	InChI=1S/C6H10O3/c1-7-3-6-4-8-2-5(6)9-6/h5H,2-4H2,1H3/t5-,6+/m1/s1
