19
gdb 50262	3.21435	1.39018	1.28097	2.1556	74.44	-0.2394	-0.0273	0.2121	1050.1589	0.160513	-423.020916	-423.013407	-423.012463	-423.053061	29.624	
O	-0.2244702613	 0.605444984	 1.3449900456	-0.243426
C	 0.5473741557	 0.7010585773	 0.4269502894	 0.139669
C	 1.1799103847	 2.0099695354	-0.0574045337	 0.018424
C	 1.3860479472	 3.0310580433	 1.0860572641	-0.250207
C	 2.8517677555	 3.0158656692	 1.5406861192	-0.017323
C	 3.7522691184	 3.3547159129	 0.3174355626	-0.2273
C	 3.5728419364	 1.8655838479	-0.0720734678	 0.13
C	 3.4086194867	 1.5637014138	 1.442826119	-0.264258
O	 2.3570513274	 1.6914875082	-0.7971863788	-0.286025
H	 0.8589815362	-0.1753754219	-0.1840422991	 0.092157
H	 0.4644152207	 2.4075417734	-0.7918801833	 0.11339
H	 1.1133146377	 4.0384074725	 0.7556090293	 0.103672
H	 0.7074159478	 2.7542425864	 1.8990642674	 0.131337
H	 2.9936393224	 3.5729169365	 2.468809143	 0.068842
H	 3.395862051	 4.0978770804	-0.400678958	 0.096291
H	 4.7816535921	 3.5784455247	 0.609391347	 0.099611
H	 4.34268281	 1.3539515699	-0.6518121626	 0.078637
H	 4.3841952259	 1.4685615111	 1.9256174714	 0.106658
H	 2.7768601756	 0.7262583451	 1.7505136153	 0.109851
85.7788	127.8808	198.5208	331.465	363.0459	436.7569	469.0726	472.6034	588.2922	641.9593	776.9124	807.5458	837.3223	864.2327	870.0923	904.7256	934.7388	947.7526	986.8183	999.887	1051.8452	1075.4495	1100.698	1106.0764	1130.0074	1140.1727	1198.5892	1223.9408	1245.7316	1261.2315	1287.0866	1294.0313	1334.7206	1340.0647	1356.8518	1382.9828	1394.892	1472.6688	1495.3679	1509.9653	1830.7061	2893.2349	3003.2096	3047.8669	3055.6813	3062.9664	3087.3338	3093.0792	3100.6323	3115.8903	3118.7292
O=CC1CC2CC(C2)O1	O=C[C@H]1C[C@@H]2C[C@@H](C2)O1	
InChI=1S/C7H10O2/c8-4-7-3-5-1-6(2-5)9-7/h4-7H,1-3H2	InChI=1S/C7H10O2/c8-4-7-3-5-1-6(2-5)9-7/h4-7H,1-3H2/t5-,6+,7-/m1/s1
