19
gdb 103560	2.46513	1.29573	1.04502	3.1471	71.31	-0.2715	0.0068	0.2783	1211.8999	0.157317	-460.199198	-460.189652	-460.188707	-460.233446	35.124	
C	-0.2976560504	 1.451286138	-0.107267178	-0.417629
C	-0.0017690391	-0.0401143034	-0.0032041119	-0.261471
C	 1.2575677104	-0.5476956346	-0.7081609842	 0.457113
O	 1.7177403931	-0.5282893246	-1.8044974658	-0.32679
O	 1.8087727717	-1.0987864839	 0.4205777326	-0.301513
C	 0.6628866915	-0.6492931423	 1.2630486357	 0.383005
C	 1.1489718334	 0.2860370167	 2.3523282667	-0.442952
C	-0.0179189939	-1.9021569604	 1.8087445456	-0.09846
O	 0.8510345118	-2.6587273213	 2.6249639017	-0.415833
H	 0.562780751	 2.0619146653	 0.1771757593	 0.132562
H	-0.5568865023	 1.702084186	-1.1396287061	 0.144981
H	-1.1417692531	 1.7292580895	 0.5309478709	 0.127264
H	-0.876621429	-0.618972658	-0.3194075416	 0.110589
H	 1.7968652904	 1.0665993661	 1.9480664002	 0.129119
H	 0.2977956204	 0.7617733528	 2.8501855179	 0.125271
H	 1.7063572007	-0.2831741983	 3.099558403	 0.146925
H	-0.8726436547	-1.6179560749	 2.4326086755	 0.117051
H	-0.3996127893	-2.498480472	 0.9653595652	 0.093652
H	 1.6105362573	-2.8924878707	 2.0776071532	 0.297116
73.5575	118.851	176.0191	197.9638	207.1879	232.9563	278.1523	325.6922	367.7055	379.617	446.9632	481.8687	586.5365	663.5789	699.367	796.0275	832.4523	849.7011	925.9736	962.9506	1037.1851	1053.3895	1072.6909	1075.8095	1132.9225	1176.612	1201.9172	1232.7422	1270.512	1288.447	1359.3983	1388.2222	1412.2213	1415.0712	1427.0496	1477.1798	1491.1723	1494.668	1500.7233	1506.5504	1932.1106	2983.7145	3046.2922	3049.7084	3054.4858	3073.373	3116.4891	3121.2165	3126.9632	3139.8229	3792.3129
CC1C(=O)OC1(C)CO	C[C@H]1C(=O)O[C@]1(C)CO	
InChI=1S/C6H10O3/c1-4-5(8)9-6(4,2)3-7/h4,7H,3H2,1-2H3	InChI=1S/C6H10O3/c1-4-5(8)9-6(4,2)3-7/h4,7H,3H2,1-2H3/t4-,6+/m0/s1
