15
gdb 17731	4.80649	2.51247	2.08783	1.599	63.99	-0.2327	0.0745	0.3071	667.907	0.121159	-362.529105	-362.523915	-362.52297	-362.558022	22.008	
C	-0.0552677481	 1.5442736493	-0.0068361031	-0.264875
N	 1.465408581	 1.303366724	-0.0468277854	-0.188748
C	 1.2912610966	 0.1884691706	 1.0139788506	-0.035582
C	 1.792912452	-0.9871537485	 0.182989215	 0.080074
O	 0.8204574292	-2.0524557277	 0.3384327629	-0.298005
C	-0.4859573875	-1.4039834857	 0.3257683948	-0.190445
C	 0.0048329835	 0.0185119113	 0.153062107	 0.226113
C	 1.2116258956	-0.0080079481	-0.8307558972	-0.035585
H	-0.381044594	 2.1396704157	 0.851189688	 0.110952
H	-0.4583683911	 1.9489227345	-0.9398982937	 0.110952
H	 1.3495553919	 0.399304705	 2.0816582773	 0.086771
H	 2.7912280794	-1.4202884881	 0.1860250062	 0.090258
H	-1.0798691594	-1.7916281927	-0.5084609524	 0.110675
H	-1.0030645066	-1.6021442225	 1.2703696817	 0.110674
H	 1.1768234975	-0.026885747	-1.9198935118	 0.086772
307.8244	375.5879	432.2481	461.5331	678.3921	725.2108	763.4109	820.0999	849.5516	855.3465	886.0129	886.8861	902.3853	937.998	959.7558	1024.1747	1026.0361	1040.3371	1094.8089	1120.4228	1129.1982	1179.9624	1185.454	1192.5544	1210.6486	1217.0665	1251.7263	1297.4082	1314.7897	1357.6849	1516.0148	1518.5923	3036.5834	3047.3805	3083.5959	3111.5382	3117.9304	3119.0126	3147.5746
C1N2C3C4OCC13C24	C1N2[C@@H]3[C@H]4OC[C@@]13[C@@H]24	
InChI=1S/C6H7NO/c1-6-2-8-3-4(6)7(1)5(3)6/h3-5H,1-2H2	InChI=1S/C6H7NO/c1-6-2-8-3-4(6)7(1)5(3)6/h3-5H,1-2H2/t3-,4-,5+,6+
