13
gdb 22033	3.99526	1.10217	0.86386	1.2662	68.1	-0.2039	-0.0267	0.1772	1196.081	0.088912	-497.827754	-497.820448	-497.819504	-497.859654	27.662	
O	-0.113199741	 1.3578770694	 0.1073421611	-0.402423
N	 0.0537111387	-0.0408254535	 0.0729032983	-0.25565
C	-1.0843295849	-0.6395917273	-0.0463442093	 0.371132
C	-2.3969574428	-0.006948237	-0.137657942	-0.226925
C	-3.4985868298	-0.7532676745	-0.2589240833	 0.057027
O	-3.4915354995	-2.1231770802	-0.3061935458	-0.215262
C	-2.2856757096	-2.7166181098	-0.2227196867	 0.399839
F	-2.430910707	-4.0211222655	-0.2808454953	-0.042472
C	-1.1119858543	-2.0918650385	-0.0994678487	-0.414727
H	 0.7946850253	 1.664292066	 0.1964936333	 0.306625
H	-2.4780041063	 1.0693991464	-0.1070464426	 0.140635
H	-4.509139187	-0.3761120312	-0.333051765	 0.149205
H	-0.1966452718	-2.6634524542	-0.040328044	 0.132994
123.0653	180.3011	230.9769	309.8853	386.7872	395.26	411.472	454.4344	542.314	632.629	652.328	700.0852	782.5737	829.5554	860.1571	915.8546	948.2758	953.5941	993.367	1074.7641	1231.3153	1259.3075	1286.9413	1362.4804	1416.7563	1436.417	1654.4028	1681.5326	1759.6177	3235.627	3238.6687	3257.6352	3829.6185
ON=C1C=COC(F)=C1	ON=c1ccoc(F)c1	
InChI=1S/C5H4FNO2/c6-5-3-4(7-8)1-2-9-5/h1-3,8H	InChI=1S/C5H4FNO2/c6-5-3-4(7-8)1-2-9-5/h1-3,8H
