14
gdb 20406	4.89314	2.10136	1.50193	0.5636	63.03	-0.2037	0.0204	0.2242	786.6256	0.110904	-378.727743	-378.721643	-378.720699	-378.75803	23.297	
C	 0.0414277578	 1.3980872245	-0.109210953	-0.092852
C	 1.539104144	 1.8195685792	 0.0658014601	-0.368857
C	 2.0847377396	 0.5619617286	 0.6723494791	 0.271407
N	 3.2152048492	 0.1306759133	 1.2112785945	-0.321548
N	 2.9479345723	-1.1683500384	 1.4749866274	-0.189776
C	 1.6788285771	-1.5713091853	 1.1235781303	-0.204704
C	 1.1127525863	-0.4392363152	 0.5934055777	 0.298661
O	-0.0592566216	-0.0518097953	 0.0287322524	-0.292464
H	-0.5823261296	 1.84890545	 0.6707770077	 0.117553
H	-0.3708094431	 1.6604421533	-1.0853959718	 0.121023
H	 2.0104648645	 2.0517224903	-0.8959152351	 0.12682
H	 1.6299730099	 2.7048138399	 0.7007079945	 0.127443
H	 3.6553304121	-1.7254756519	 1.9209348835	 0.272916
H	 1.3342878515	-2.5788455828	 1.2812582627	 0.134378
102.1847	235.0381	313.2806	404.1723	467.3908	629.65	637.5651	696.0852	721.5514	739.0311	772.3742	841.1934	938.3467	972.561	982.8361	1043.9012	1073.2071	1134.4612	1182.8194	1198.0754	1241.4098	1288.5206	1309.4396	1379.6695	1457.0781	1473.636	1489.935	1511.4999	1537.3843	1655.1823	3039.5891	3040.2336	3089.4358	3114.8356	3279.5366	3687.9746
C1CC2=NNC=C2O1	C1Cc2n[nH]cc2O1	
InChI=1S/C5H6N2O/c1-2-8-5-3-6-7-4(1)5/h3H,1-2H2,(H,6,7)	InChI=1S/C5H6N2O/c1-2-8-5-3-6-7-4(1)5/h3H,1-2H2,(H,6,7)
