18
gdb 132349	1.75584	1.74718	0.88536	1.5961	83.53	-0.2347	-0.005	0.2297	1287.1687	0.146617	-409.999873	-409.990961	-409.990016	-410.035389	32.321	
C	-0.0444887222	 1.5267221849	-0.0015751402	-0.489763
C	-0.0090918688	 0.0177682603	-0.0073447147	 0.345663
C	 0.0513618204	-0.6796645467	-1.2160830399	-0.3647
C	 0.0981899766	-2.0645818263	-1.1940498606	 0.336297
F	 0.1519790917	-2.7278129993	-2.3571264263	-0.083518
C	 0.0863447597	-2.7881835917	-0.0121152948	-0.364711
C	 0.0261201471	-2.1031968419	 1.2037155466	 0.345662
C	 0.0286142658	-2.865531167	 2.5064310604	-0.489761
C	-0.0235289219	-0.7070537704	 1.1869538471	-0.302615
H	 0.9294217515	 1.9466366218	-0.2800859644	 0.135334
H	-0.7764936605	 1.9121496885	-0.718696024	 0.130798
H	-0.3011526578	 1.9152319043	 0.9872641368	 0.124286
H	 0.0584497085	-0.1630186227	-2.169532654	 0.101085
H	 0.1199788947	-3.8713782815	-0.0520600269	 0.101085
H	 1.0172789003	-3.2922255618	 2.7135197473	 0.13535
H	-0.2344813758	-2.2183714839	 3.3470207688	 0.124298
H	-0.6814749776	-3.698523041	 2.4835058281	 0.130771
H	-0.0765309917	-0.1697585055	 2.1294712508	 0.084437
25.3391	31.3801	185.9782	222.9725	249.9622	268.8052	300.2968	493.6356	510.6291	517.9902	536.9485	577.7376	590.9897	704.9611	859.6058	868.0556	889.5783	962.7319	967.3619	1014.3655	1029.6761	1049.4163	1060.2702	1060.8013	1162.7949	1178.906	1282.8716	1343.6457	1343.7193	1411.9843	1414.1677	1457.5235	1477.5354	1486.1309	1486.7034	1508.5237	1512.6819	1636.9242	1654.1116	3030.8325	3031.2539	3086.2277	3086.398	3116.9584	3117.027	3166.9898	3191.9418	3192.1274
CC1=CC(F)=CC(C)=C1	Cc1cc(F)cc(C)c1	
InChI=1S/C8H9F/c1-6-3-7(2)5-8(9)4-6/h3-5H,1-2H3	InChI=1S/C8H9F/c1-6-3-7(2)5-8(9)4-6/h3-5H,1-2H3
