18
gdb 41549	3.352	1.92654	1.74403	0.9267	73.25	-0.1959	0.0732	0.2692	851.0777	0.150848	-401.877685	-401.871608	-401.870664	-401.907825	26.022	
C	-0.0179759554	 1.606942526	 0.0965889227	-0.247678
C	 1.4903649072	 1.5958882643	-0.2581156582	-0.160188
N	 1.4313876727	 0.1212691732	-0.4970839787	-0.096057
C	 2.2490655283	-0.7817950343	 0.2777418747	-0.058871
C	 2.2222992722	-0.6901079034	 1.8061070484	 0.074773
O	 1.1201568443	 0.1142233056	 2.2281754072	-0.303329
C	 0.2300989095	-0.6851125217	 1.3777482672	 0.05252
C	 1.3711677122	-1.7000229844	 1.0955645334	-0.165309
C	 0.0433351061	 0.0564387733	 0.0605743444	 0.029129
H	-0.2751955939	 2.0423696028	 1.0615455636	 0.117449
H	-0.657006205	 2.0315277452	-0.6794148128	 0.103101
H	 1.7799643302	 2.1581306483	-1.1517552561	 0.094778
H	 2.1418891473	 1.8780141064	 0.5745232684	 0.109653
H	 3.1464271565	-1.185628424	-0.1814405607	 0.094325
H	 3.0746664489	-0.7805740093	 2.4700747388	 0.104431
H	-0.6634499961	-1.0061623956	 1.9165045621	 0.080482
H	 1.3406503173	-2.7800779891	 1.0853890145	 0.10056
H	-0.6828264923	-0.4566629133	-0.5846269089	 0.070231
177.8466	245.874	331.7087	470.4181	568.2181	632.8583	680.6859	746.2117	771.1677	780.1831	802.031	826.3469	857.2864	891.4563	920.5379	940.2149	963.1336	993.7843	1029.3864	1030.0333	1041.681	1066.1966	1076.8512	1085.5975	1117.0779	1147.8409	1200.4801	1212.4809	1217.7378	1227.1241	1251.715	1263.3277	1276.2733	1309.7077	1337.9648	1354.6844	1377.0763	1477.3926	1509.5505	3006.8009	3036.2065	3081.7131	3088.2047	3097.8586	3146.8119	3155.3426	3176.4424	3214.9771
C1CN2C3C4OC(C34)C12	C1CN2[C@H]3[C@H]4O[C@H]([C@@H]34)[C@@H]12	
InChI=1S/C7H9NO/c1-2-8-3(1)6-4-5(8)7(4)9-6/h3-7H,1-2H2	InChI=1S/C7H9NO/c1-2-8-3(1)6-4-5(8)7(4)9-6/h3-7H,1-2H2/t3-,4-,5-,6+,7+/m1/s1
