18
gdb 13172	3.56144	1.41762	1.07141	4.6687	72.09	-0.2585	0.0231	0.2815	1096.5316	0.154846	-343.979985	-343.971611	-343.970667	-344.013131	30.539	
N	 0.0063207679	 1.4705302746	 0.1223042427	-0.507045
C	-0.0770616562	 0.0132229194	-0.0252140745	-0.157152
C	-1.4912149318	-0.396482501	 0.0152770959	 0.300443
N	-2.5948032303	-0.7383586412	 0.0030953532	-0.323166
C	 0.5964481343	-0.5698930483	-1.2775174591	 0.057358
C	 2.1420434085	-0.4361093957	-1.3895056668	-0.25093
C	 2.178945406	-1.8717050784	-1.9820376739	-0.213827
C	 0.7563870328	-2.1105245181	-1.4072274748	-0.231866
H	 0.9856761775	 1.7410991262	 0.1314826345	 0.239919
H	-0.4141072881	 1.9217117104	-0.6859533788	 0.238643
H	 0.4058994966	-0.4272266284	 0.8581048893	 0.125578
H	 0.1064636141	-0.1564721695	-2.1661672144	 0.082219
H	 2.5420698846	 0.3793853025	-1.9962445489	 0.102667
H	 2.6121643694	-0.3973736652	-0.4001492437	 0.100336
H	 2.1778787236	-1.8573872376	-3.0752248613	 0.109997
H	 2.9786807449	-2.5343821056	-1.645385194	 0.104491
H	 0.7915708165	-2.5910219034	-0.4237787203	 0.107187
H	 0.0317690195	-2.6429397506	-2.0254454153	 0.115148
73.2654	117.0881	129.7328	209.6581	240.9398	273.8345	375.8321	403.8612	499.436	594.6591	657.7504	773.4818	783.9611	861.1595	880.989	910.2959	935.2426	961.2984	980.4349	1039.2742	1087.2985	1122.698	1142.257	1198.4476	1206.5613	1234.373	1257.0384	1260.6108	1273.7781	1289.4948	1309.1887	1373.3895	1403.7756	1477.6175	1485.7453	1508.6203	1655.1722	2360.5422	3017.3802	3039.2069	3047.1931	3056.1835	3064.4493	3101.5742	3113.2598	3125.9596	3485.5447	3570.0828
NC(C#N)C1CCC1	N[C@@H](C#N)C1CCC1	
InChI=1S/C6H10N2/c7-4-6(8)5-2-1-3-5/h5-6H,1-3,8H2	InChI=1S/C6H10N2/c7-4-6(8)5-2-1-3-5/h5-6H,1-3,8H2/t6-/m0/s1
