21
gdb 112030	3.32302	1.1843	0.98573	1.5039	83.16	-0.2367	0.017	0.2537	1251.4573	0.184273	-387.082772	-387.074384	-387.07344	-387.115892	32.616	
O	-0.4382845072	 1.7108238157	 0.8228588835	-0.422604
C	-0.1396285741	 0.3358244524	 0.6179717187	-0.08262
C	-1.3161541362	-0.4377194148	 0.004728332	-0.046391
C	-1.6573898092	-0.0592059793	-1.4254744619	-0.080809
C	-1.905980688	-1.1165518051	-2.1995785381	-0.089612
C	-1.7704682799	-2.4209375044	-1.4586953322	-0.05839
C	-0.4986157239	-3.2585770652	-1.7807116075	-0.225867
C	 0.2438170502	-2.5242456615	-0.6303919498	-0.225277
C	-1.1217289236	-1.9669487135	-0.1082395147	-0.033307
H	-0.4885738767	 2.133776804	-0.0394482727	 0.282998
H	 0.7656739229	 0.2193329193	 0.005368666	 0.088258
H	 0.084581498	-0.0675612617	 1.6113949606	 0.108046
H	-2.1790786959	-0.2173892927	 0.6512856522	 0.084869
H	-1.7254239154	 0.9728345339	-1.7576912441	 0.079695
H	-2.1890345069	-1.0688140863	-3.2466395928	 0.08996
H	-2.7125939884	-2.9795523158	-1.4302622427	 0.07007
H	-0.6464224208	-4.3220564805	-1.5735350504	 0.098391
H	-0.0802997694	-3.1569471521	-2.785896454	 0.094568
H	 0.8054866795	-3.1515778007	 0.0653468469	 0.098369
H	 0.9123023299	-1.7448578327	-1.0008427655	 0.104101
H	-1.4713717049	-2.5024527691	 0.7765572567	 0.065552
89.9925	106.9207	168.2608	210.774	274.3281	306.2819	362.4762	421.0727	537.9803	663.5867	682.8286	759.5319	769.6321	779.1332	844.9125	866.4291	889.5872	922.5412	959.9832	971.5527	1006.8799	1014.8509	1046.6469	1074.7128	1084.7141	1089.4105	1130.8626	1147.3252	1186.643	1197.2418	1228.2621	1248.1699	1266.8694	1270.1474	1285.6067	1305.8127	1323.918	1343.5457	1385.8228	1393.4658	1413.5722	1477.7373	1494.3473	1503.294	1672.6287	2985.1338	3002.5486	3036.929	3053.5552	3069.4713	3071.4095	3085.8987	3099.1356	3125.1445	3160.6178	3188.5121	3828.0166
OCC1C=CC2CCC12	OC[C@H]1C=C[C@H]2CC[C@@H]12	
InChI=1S/C8H12O/c9-5-7-2-1-6-3-4-8(6)7/h1-2,6-9H,3-5H2	InChI=1S/C8H12O/c9-5-7-2-1-6-3-4-8(6)7/h1-2,6-9H,3-5H2/t6-,7+,8+/m0/s1
