16
gdb 18980	4.39802	2.32586	1.91677	1.5018	63.25	-0.2484	0.1025	0.3508	722.6149	0.133694	-383.687635	-383.682124	-383.68118	-383.716944	23.021	
C	-0.0408043489	 1.5907445857	 0.0098850377	-0.24862
C	 1.4701239939	 1.2541077397	-0.0057090073	-0.115487
C	 1.1557608886	 0.1508281764	 1.0479342122	 0.15708
O	 2.0704583482	-0.9164182407	 1.1448527257	-0.275139
C	 2.0535420454	-1.6947369542	-0.0268366152	 0.017983
O	 2.049143007	-0.9039064894	-1.19023112	-0.275138
C	 1.1364718927	 0.1621521685	-1.0652014689	 0.15708
C	-0.006846968	 0.0425444524	 0.0012791688	-0.154081
H	-0.426570098	 2.0590110952	 0.9186594209	 0.101105
H	-0.4430473309	 2.0686846006	-0.8866268746	 0.101105
H	 2.3168439715	 1.9399192032	-0.0097630553	 0.078851
H	 0.9037341753	 0.47475277	 2.0601115813	 0.083793
H	 2.959627381	-2.3040667953	-0.038371929	 0.120276
H	 1.1605464267	-2.3429050625	-0.0221573947	 0.086778
H	 0.8660456432	 0.4968800716	-2.0690811426	 0.083793
H	-0.8621827678	-0.6335488512	 0.005463651	 0.080624
268.5411	299.9227	407.9779	461.6383	546.7551	560.5685	724.8595	779.1118	810.914	866.5307	893.1689	912.2123	965.7572	991.2534	1006.6975	1019.0024	1029.7562	1087.1258	1094.1455	1099.633	1120.9794	1167.3835	1177.8056	1205.3437	1216.9108	1249.4099	1254.4281	1259.2986	1283.1624	1365.685	1407.0095	1451.233	1512.6704	1525.9735	2954.6095	3058.9097	3089.7417	3090.4591	3109.2664	3111.7738	3122.2828	3124.88
C1C2C3OCOC2C13	C1[C@H]2[C@@H]3OCO[C@H]2[C@H]13	
InChI=1S/C6H8O2/c1-3-5-4(1)6(3)8-2-7-5/h3-6H,1-2H2	InChI=1S/C6H8O2/c1-3-5-4(1)6(3)8-2-7-5/h3-6H,1-2H2/t3-,4+,5-,6+
