17
gdb 98070	3.33848	0.9458	0.79509	0.624	66.83	-0.2714	-0.1098	0.1616	1415.8019	0.131616	-496.119796	-496.109566	-496.108622	-496.155951	35.501	
C	-0.2664336786	 1.450302595	 0.0856097447	-0.414285
C	-0.0952589091	-0.0723017894	-0.0797210536	 0.068819
O	 0.5872731523	-0.3755092015	-1.2679922922	-0.435959
C	 0.6494177634	-0.663521701	 1.1051391507	 0.269812
O	 1.7526765346	-1.1505198549	 0.9797340166	-0.308205
C	-0.0213896282	-0.6581609145	 2.4866365337	 0.26657
O	-1.1695157448	-0.2970950963	 2.6286814327	-0.30295
C	 0.7982094063	-1.1443875941	 3.6613705698	-0.119437
O	 0.0676736947	-1.0974454995	 4.8492588544	-0.418925
H	 0.7082400492	 1.936286338	 0.1919601258	 0.125691
H	-0.7438695214	 1.8394033796	-0.8164385831	 0.143419
H	-0.8908929642	 1.687390507	 0.9493788655	 0.141389
H	-1.0953822973	-0.5307587364	-0.0988992244	 0.114433
H	 1.4374636464	-0.7598810085	-1.0076302262	 0.294644
H	 1.147227744	-2.1643039267	 3.4347623628	 0.141252
H	 1.7098502186	-0.527698948	 3.7194607172	 0.136492
H	-0.8115908461	-0.7649409387	 4.6145976656	 0.29724
38.0904	66.9965	103.954	145.061	197.9387	239.1854	290.3391	329.1428	338.5575	351.3466	357.679	415.7546	471.3002	514.8221	677.196	752.5189	814.1326	892.0862	929.3908	973.1449	1046.1336	1086.8683	1135.6368	1165.0183	1215.8232	1229.2853	1286.388	1321.2225	1336.7419	1392.1242	1426.5305	1444.1127	1471.5717	1494.383	1496.4	1783.5298	1789.2617	2988.3005	3002.467	3004.2418	3049.4226	3127.0803	3145.8485	3716.7919	3719.125
CC(O)C(=O)C(=O)CO	C[C@@H](O)C(=O)C(=O)CO	
InChI=1S/C5H8O4/c1-3(7)5(9)4(8)2-6/h3,6-7H,2H2,1H3	InChI=1S/C5H8O4/c1-3(7)5(9)4(8)2-6/h3,6-7H,2H2,1H3/t3-/m1/s1
