20
gdb 59146	3.11429	1.33255	1.2245	1.4723	78.62	-0.2138	0.0481	0.2618	1126.844	0.168704	-403.043522	-403.034886	-403.033942	-403.077033	33.509	
C	-0.0922292606	 1.530899033	 0.379883638	-0.377787
C	 0.2269069759	 0.05829187	 0.1027573541	 0.08044
C	 0.9879322752	-0.5876547148	 1.2584461073	-0.383202
N	-1.0585733163	-0.6427226446	-0.0773906636	-0.053213
C	-1.7278224028	-1.0477509205	-1.2694817319	-0.1069
C	-0.8415831382	-1.9007656087	-2.2706824118	-0.005588
O	 0.4911036362	-2.0155560536	-1.7537821181	-0.230784
C	-0.5306572889	-2.8585389844	-1.2177303131	-0.004187
C	-1.3859584429	-2.0327513827	-0.1763578169	-0.103951
H	 0.8306135369	 2.1120313682	 0.4802747474	 0.105044
H	-0.6751469805	 1.962892919	-0.4398716335	 0.109296
H	-0.6753973612	 1.6363464275	 1.3003737172	 0.113289
H	 0.838012142	-0.0060147217	-0.8002809043	 0.095801
H	 0.3826920591	-0.5828721852	 2.1715280721	 0.114402
H	 1.2519321395	-1.6222592567	 1.0223524068	 0.120704
H	 1.9128356731	-0.038805669	 1.4587981437	 0.112025
H	-2.6880284648	-0.6252135732	-1.5474936314	 0.097822
H	-0.9884481152	-2.029681084	-3.3360045331	 0.110336
H	-0.3794564602	-3.9310688992	-1.2438571117	 0.109836
H	-2.0316156963	-2.4963963992	 0.5622696529	 0.096616
38.6346	155.1854	186.8714	224.2303	251.5651	322.0908	339.5936	383.6583	449.3773	574.9464	662.6774	703.4072	728.5309	768.4893	836.8573	851.6041	868.3559	879.0509	910.0951	928.9769	950.7329	970.0519	989.8218	1014.8466	1040.5024	1043.4466	1131.3606	1157.7917	1190.4142	1214.2474	1222.6607	1239.7615	1264.1542	1343.3735	1359.7868	1366.2075	1395.3814	1409.9902	1424.1516	1483.496	1486.7044	1494.7714	1508.6016	3030.0497	3036.7295	3074.4111	3101.3448	3103.9679	3114.934	3116.3369	3155.7164	3166.4179	3184.6877	3201.2707
CC(C)N1C2C3OC3C12	CC(C)N1[C@H]2[C@H]3O[C@H]3[C@@H]12	
InChI=1S/C7H11NO/c1-3(2)8-4-5(8)7-6(4)9-7/h3-7H,1-2H3	InChI=1S/C7H11NO/c1-3(2)8-4-5(8)7-6(4)9-7/h3-7H,1-2H3/t4-,5+,6-,7+,8?
