18
gdb 115982	1.94758	1.74853	1.01666	5.1068	79.95	-0.2273	-0.0429	0.1844	1185.3463	0.148709	-398.15181	-398.142855	-398.141911	-398.186169	31.809	
C	-0.0263039065	 1.5211101312	-0.1084852538	-0.388337
C	 0.0618407622	-0.0074290273	-0.0118538376	-0.16938
N	 0.6802678106	-0.6600097782	-1.1560247652	-0.114807
C	 0.0533465736	-0.6887695167	-2.4827945727	-0.196939
C	 1.2273831341	-1.1917167978	-3.3663844184	-0.178949
N	 2.4517318258	-1.0295114757	-2.5591082285	-0.313646
C	 2.0400930181	-0.7444165638	-1.3785331272	 0.297426
C	 2.9514767112	-0.5502326645	-0.280006503	 0.267949
N	 3.6560851497	-0.3788742976	 0.6198194398	-0.335496
H	 0.970636957	 1.9664701887	-0.1785109685	 0.137193
H	-0.6081535663	 1.8408202183	-0.9781295156	 0.124903
H	-0.5147210701	 1.922748048	 0.7845493071	 0.128196
H	 0.6325407411	-0.2898912187	 0.8780156401	 0.142593
H	-0.9391117575	-0.4363579553	 0.1100163405	 0.116461
H	-0.8139734402	-1.3556315249	-2.4915252805	 0.119469
H	-0.2845277981	 0.3139602435	-2.7796191243	 0.112076
H	 1.1166935785	-2.253759896	-3.618065934	 0.126005
H	 1.3179368168	-0.643488793	-4.3075283183	 0.125283
61.3781	89.1002	150.4399	156.4417	173.6212	226.1645	346.625	384.9057	442.9905	534.5016	576.8441	658.0169	707.4396	769.6575	789.1116	856.575	940.6203	964.9702	1005.0497	1022.9869	1086.6489	1107.4212	1162.0804	1203.4073	1245.1096	1260.1929	1289.0518	1334.7968	1343.2433	1392.1181	1411.0464	1448.9813	1485.4398	1491.8608	1494.4945	1502.4434	1530.3108	1656.7876	2364.1687	3003.1768	3031.1558	3041.851	3044.1671	3072.0919	3087.1402	3092.944	3115.3488	3120.6324
CCN1CCN=C1C#N	CCN1CC[N][C]1C#N	
InChI=1S/C6H9N3/c1-2-9-4-3-8-6(9)5-7/h2-4H2,1H3	InChI=1S/C6H9N3/c1-2-9-4-3-8-6(9)5-7/h2-4H2,1H3
