21
gdb 82054	2.68077	1.49757	1.26638	1.5762	81.68	-0.2477	0.0699	0.3176	1098.6868	0.183277	-387.048032	-387.039746	-387.038802	-387.080714	32.99	
O	 0.1981958152	 1.3745381124	-0.1714866024	-0.430111
C	 0.0344389274	-0.0129842012	 0.0092296275	 0.065926
C	 0.3259644188	-0.6265834388	 1.3755815343	-0.087046
C	-0.7195888734	-0.2179505775	 2.3834681524	-0.308632
C	-1.0597480558	-1.2834697723	 1.3838013421	-0.13072
C	-1.4152887831	-0.6411883124	 0.0459458176	 0.345458
C	-2.6384407703	 0.2808405168	-0.1945871127	-0.280483
C	-2.7482327777	-0.3016459955	-1.6302950525	-0.207262
C	-1.8377784928	-1.4781926057	-1.1863655914	-0.303452
H	-0.0663549021	 1.8121126298	 0.6444952129	 0.281267
H	 0.6238337823	-0.4863555178	-0.7817590502	 0.087812
H	 1.2794852914	-1.03300037	 1.6914218918	 0.086473
H	-0.5294459308	-0.5567985419	 3.3966707308	 0.115037
H	-1.2125534245	 0.7517782769	 2.3374774123	 0.099673
H	-1.3207071788	-2.2928646341	 1.6793860285	 0.084153
H	-3.4884012169	 0.0076171863	 0.4384489408	 0.095938
H	-2.4630032365	 1.3567338308	-0.1119054119	 0.091006
H	-3.7459765204	-0.5509579317	-1.9980522805	 0.093582
H	-2.2563232257	 0.341121657	-2.3646619816	 0.111582
H	-1.0444901564	-1.8011940147	-1.8678661921	 0.094473
H	-2.4209062899	-2.3581439562	-0.8946004857	 0.095327
96.9232	113.0088	218.3035	235.8188	275.3905	292.1814	420.8439	437.3233	530.3999	585.2758	674.7686	732.8479	791.7703	797.0063	811.2164	869.5273	896.5144	937.0819	942.0484	966.1665	976.659	989.9158	1021.4921	1053.1747	1064.3169	1084.438	1113.8281	1122.4635	1156.7211	1178.0736	1201.7803	1213.7434	1247.3878	1253.1341	1264.797	1272.4508	1275.9207	1298.3373	1326.7221	1358.1464	1429.0671	1465.4596	1481.4939	1492.9484	1503.0998	3037.6001	3047.7708	3064.5439	3065.4259	3084.1105	3096.5455	3099.2626	3120.4705	3174.2594	3181.1398	3197.6719	3810.6839
OC1C2CC2C11CCC1	O[C@H]1[C@H]2C[C@H]2C21CCC2	
InChI=1S/C8H12O/c9-7-5-4-6(5)8(7)2-1-3-8/h5-7,9H,1-4H2	InChI=1S/C8H12O/c9-7-5-4-6(5)8(7)2-1-3-8/h5-7,9H,1-4H2/t5-,6+,7-/m0/s1
