20
gdb 111348	2.47519	1.41082	1.07074	2.5351	78.94	-0.2281	0.0693	0.2974	1183.6762	0.171146	-403.074501	-403.065893	-403.064949	-403.107845	33.253	
O	 0.0336310457	 1.4742590584	-0.1331382497	-0.425586
C	 0.0590297099	 0.0678384906	 0.0843172135	-0.084212
C	-1.3387726418	-0.5344501816	 0.079464919	-0.108399
C	-2.081560873	-0.5757099294	-1.2753460951	-0.070348
N	-1.2733021501	-1.4285122323	-2.1860500193	-0.341131
C	-2.2038502568	-2.0566968925	-1.2098204355	-0.153058
C	-1.4862684256	-2.0826638374	 0.1227461613	 0.399266
C	-0.5394399491	-3.1221924517	 0.642031804	-0.320118
C	-1.8793801859	-2.9055066102	 1.3119838034	-0.33993
H	-0.2199285198	 1.614008651	-1.0509026319	 0.284518
H	 0.679479366	-0.4447318115	-0.6616650226	 0.111817
H	 0.5265439173	-0.0741833537	 1.065215929	 0.100575
H	-1.9558389173	-0.0532047393	 0.8448500917	 0.080019
H	-2.7783894625	 0.1549953767	-1.6670873294	 0.093323
H	-1.7491843639	-1.4281747464	-3.088584956	 0.226793
H	-3.0052873982	-2.705262387	-1.5441182706	 0.092617
H	-0.3955288262	-4.0216660223	 0.0525782381	 0.114297
H	 0.3495284031	-2.7903159122	 1.1682839238	 0.115788
H	-1.8960432275	-2.4241524641	 2.2849110198	 0.113209
H	-2.6464143342	-3.6624013951	 1.1791875665	 0.110558
73.6317	135.2478	148.2911	242.289	252.8735	277.2916	309.4482	437.5494	487.3481	553.0885	606.0143	766.1642	777.0647	820.4587	836.6156	851.0765	893.9208	918.5602	932.596	956.8057	992.8939	1014.6707	1039.1973	1054.7891	1064.2521	1076.8095	1106.1982	1113.487	1119.761	1185.577	1185.9758	1216.7267	1226.7223	1276.0832	1302.4254	1349.5804	1352.0635	1397.5458	1409.4983	1415.3481	1465.041	1501.2026	1506.3881	3024.1486	3058.0201	3076.5638	3120.178	3129.3838	3176.917	3191.7874	3198.7568	3215.6626	3464.4407	3819.9133
OCC1C2NC2C11CC1	OC[C@H]1[C@H]2N[C@H]2C21CC2	
InChI=1S/C7H11NO/c9-3-4-5-6(8-5)7(4)1-2-7/h4-6,8-9H,1-3H2	InChI=1S/C7H11NO/c9-3-4-5-6(8-5)7(4)1-2-7/h4-6,8-9H,1-3H2/t4-,5+,6+/m0/s1
