21
gdb 114903	2.9645	1.22444	1.10081	0.8092	77.48	-0.25	0.0766	0.3266	1195.2325	0.184598	-424.212431	-424.204086	-424.203142	-424.245741	32.109	
O	-0.0359288732	 1.3433379645	-0.3691507516	-0.42706
C	 0.0357760299	-0.0662581075	-0.1910791432	-0.109338
C	-1.3732215463	-0.557284962	 0.0809935839	 0.048077
C	-2.3672345062	-0.5013997973	-1.112986472	-0.237405
C	-2.6623420418	-2.0188132243	-0.9554815219	-0.025667
C	-2.0704129301	-2.9271619151	-2.0355131862	-0.093525
O	-0.6690822934	-2.9691227999	-1.7770513183	-0.249431
C	-0.5364096552	-3.0347437191	-0.3604131906	-0.098416
C	-1.6080677369	-2.0967926885	 0.2069610868	-0.074181
H	 0.8244632146	 1.6510712436	-0.6681192821	 0.28528
H	 0.4326464344	-0.5599500379	-1.0906969424	 0.1023
H	 0.6966644023	-0.326247588	 0.6532782384	 0.079272
H	-1.7555798176	-0.0225801762	 0.9553440826	 0.076875
H	-3.2275674453	 0.1547005965	-0.9670211059	 0.099442
H	-1.895028608	-0.2384334696	-2.0642191356	 0.10233
H	-3.6938649983	-2.2747783454	-0.7086536036	 0.068598
H	-2.5012301349	-3.9402089469	-1.96965467	 0.084153
H	-2.2095640075	-2.5549498345	-3.0547069087	 0.107116
H	-0.7179359354	-4.0629173092	-0.0054736499	 0.085421
H	 0.4929851577	-2.7651049583	-0.1101377176	 0.107846
H	-1.960565939	-2.4264049849	 1.1858373081	 0.068313
59.4766	125.0413	169.6276	244.6515	259.0152	306.5866	376.3342	422.3437	475.0423	595.1759	698.4046	755.9565	809.7834	840.7494	875.5116	902.4524	925.0206	942.8496	981.2476	1005.6258	1024.8317	1049.582	1079.2539	1099.7364	1114.0852	1137.6664	1169.2111	1182.8909	1207.3304	1222.0997	1254.8374	1269.898	1271.7808	1289.3747	1292.1613	1323.9395	1335.9902	1353.1974	1365.9625	1399.7767	1459.4485	1480.5469	1502.2003	1515.058	1532.5352	2955.0889	2962.3457	2968.8872	3008.2819	3057.2982	3061.699	3084.7141	3088.7068	3093.0575	3098.0089	3115.8322	3830.8854
OCC1CC2COCC12	OC[C@H]1C[C@H]2COC[C@@H]12	
InChI=1S/C7H12O2/c8-2-5-1-6-3-9-4-7(5)6/h5-8H,1-4H2	InChI=1S/C7H12O2/c8-2-5-1-6-3-9-4-7(5)6/h5-8H,1-4H2/t5-,6+,7+/m1/s1
