18
gdb 22105	2.89745	0.86906	0.76844	2.5027	72.88	-0.2494	-0.0386	0.2108	1504.1595	0.143811	-476.199027	-476.188664	-476.18772	-476.235921	36.126	
C	 0.371567608	 1.5416596884	-0.330686402	-0.487173
C	 0.0466525884	 0.1323404146	 0.0730618746	 0.351432
C	-0.2185041164	-0.1628059875	 1.5365865165	-0.367083
C	 1.0924963229	-0.133372048	 2.3119364791	 0.350491
O	 1.6285813032	 0.8985992064	 2.6581408206	-0.322126
C	 1.7569012538	-1.4643300464	 2.61323756	-0.130763
O	 2.9946321021	-1.2959267809	 3.2332815861	-0.418903
N	-0.0215550565	-0.8806232627	-0.7043784983	-0.158036
O	 0.2304218929	-0.5476441796	-2.0401342327	-0.391339
H	 0.9355028851	 2.0396899396	 0.4618284003	 0.156483
H	 0.936256926	 1.5604186269	-1.2627988833	 0.154976
H	-0.5544797105	 2.1095956744	-0.484979167	 0.141958
H	-0.8793836997	 0.6024421177	 1.956816714	 0.135623
H	-0.6905385456	-1.1439975906	 1.6215421333	 0.131384
H	 1.0611291023	-2.0475854214	 3.242424078	 0.116528
H	 1.8476487742	-2.0199387354	 1.665517583	 0.133177
H	 3.0880740904	-0.3378168158	 3.356237336	 0.293945
H	 0.1645002293	-1.4029620097	-2.4778486681	 0.309427
35.6686	43.9524	96.5473	114.2467	161.7024	259.618	304.0886	311.9484	348.4528	393.9245	406.8634	415.5397	502.729	525.4243	637.1567	678.7565	814.7856	817.6958	937.0793	987.0412	1007.2722	1025.1107	1068.287	1106.9921	1143.3746	1217.3174	1240.8754	1270.2695	1297.2467	1322.6882	1396.6261	1403.158	1447.6376	1464.7735	1483.8784	1487.4649	1488.2736	1727.4886	1791.1953	2959.055	2994.0715	3037.1262	3053.9534	3107.0697	3123.1913	3158.4141	3688.9185	3820.9386
CC(CC(=O)CO)=NO	CC(=NO)CC(=O)CO	
InChI=1S/C5H9NO3/c1-4(6-9)2-5(8)3-7/h7,9H,2-3H2,1H3	InChI=1S/C5H9NO3/c1-4(6-9)2-5(8)3-7/h7,9H,2-3H2,1H3
