12
gdb 16787	3.82873	2.26456	1.55287	2.6253	56.42	-0.2896	-0.0305	0.2591	757.794	0.085371	-414.680097	-414.674134	-414.67319	-414.710303	22.447	
N	-0.0671560296	 1.2703832652	-0.0355136054	-0.528043
C	-0.050292302	 0.0183990449	 0.0445797593	 0.42797
O	 1.0871283273	-0.7718816368	 0.120625134	-0.225413
C	 0.749922743	-2.1184829462	 0.0200293702	 0.452982
O	 1.5637736274	-2.9803209689	 0.022611133	-0.310936
N	-0.6659665913	-2.2685655722	-0.0976349847	-0.165303
C	-1.3427439907	-1.8537064817	 1.1567219599	-0.253775
C	-1.2162665867	-0.9039300403	 0.0205191616	-0.102329
H	 0.8763636067	 1.6596522072	-0.0334719846	 0.245202
H	-2.2935892631	-2.3458339192	 1.3267325006	 0.155597
H	-0.7295154952	-1.6981124693	 2.0393025656	 0.157155
H	-2.0714949158	-0.6417291527	-0.5892464495	 0.146893
139.3468	202.3186	309.939	378.1272	527.8442	627.8069	657.4397	721.8085	788.9509	806.7582	837.359	868.0918	904.6418	960.4602	965.071	1069.648	1079.8722	1097.3133	1120.883	1163.3353	1258.184	1318.015	1363.8992	1506.0578	1804.584	1937.141	3130.3064	3206.3879	3229.5563	3492.5004
N=C1OC(=O)N2CC12	[NH][C]1OC(=O)N2C[C@@H]12	
InChI=1S/C4H4N2O2/c5-3-2-1-6(2)4(7)8-3/h2,5H,1H2	InChI=1S/C4H4N2O2/c5-3-2-1-6(2)4(7)8-3/h2,5H,1H2/t2-,6?/m0/s1
