14
gdb 5700	4.86809	2.14214	1.51979	4.7455	62.98	-0.1883	0.0258	0.2141	780.742	0.111059	-378.743335	-378.737249	-378.736305	-378.773628	23.039	
C	 0.0448473761	 1.3623724516	-0.1023316611	-0.08147
C	 1.5394807395	 1.8454387158	 0.0376398304	-0.371142
C	 2.0874603688	 0.6132812755	 0.6738744969	 0.1961
C	 1.1894016459	-0.403321444	 0.6084792166	 0.391421
O	-0.0126553879	-0.0817526597	 0.0594998011	-0.27855
N	 1.6722985962	-1.5899845077	 1.0461323472	-0.348679
C	 2.9203818359	-1.2933102173	 1.3843622654	-0.008424
N	 3.2345914903	 0.0227609409	 1.163445301	-0.367098
H	-0.5680329433	 1.8113654594	 0.686941581	 0.118229
H	-0.3918990054	 1.6043855808	-1.0728853455	 0.121546
H	 1.9924502576	 2.0700366355	-0.9380119625	 0.11645
H	 1.5898734778	 2.7596336788	 0.6388404703	 0.114968
H	 3.632407448	-1.9846931205	 1.8083021104	 0.130336
H	 4.1112444607	 0.463301471	 1.3837865888	 0.266313
121.9389	168.3886	309.8037	453.7779	472.3668	620.1351	652.4486	719.8774	736.0414	763.2955	776.1221	848.7743	919.3044	965.4074	998.6378	1075.8663	1096.1965	1143.2117	1194.0951	1235.431	1246.9591	1291.658	1353.3115	1380.4949	1410.0073	1462.0489	1494.0432	1516.2055	1534.3007	1646.1108	3000.6958	3038.4334	3056.4867	3116.3301	3257.7799	3673.1291
C1CC2=C(O1)N=CN2	C1Cc2c(O1)nc[nH]2	
InChI=1S/C5H6N2O/c1-2-8-5-4(1)6-3-7-5/h3H,1-2H2,(H,6,7)	InChI=1S/C5H6N2O/c1-2-8-5-4(1)6-3-7-5/h3H,1-2H2,(H,6,7)
