18
gdb 105191	2.08157	1.53699	1.01743	2.5347	68.88	-0.2419	0.0099	0.2519	1195.1166	0.14624	-476.234893	-476.225337	-476.224393	-476.269386	35.147	
C	-0.02786513	 1.5429834926	-0.0231050058	-0.43949
C	 0.0442132807	 0.0471416626	 0.1418248571	 0.057444
O	 1.3353359618	-0.5760616451	 0.0640874797	-0.302488
C	 0.5986205763	-0.6663391631	 1.3074733289	 0.218424
C	 1.2753205975	 0.0412955301	 2.4621716337	-0.174868
O	 2.4945137065	-0.6107838461	 2.8232205075	-0.41545
C	 0.0473078426	-2.0786630418	 1.5457546131	 0.365424
N	 0.6059886705	-2.731111699	 2.600543438	-0.542997
O	-0.8223298828	-2.5535893634	 0.841152267	-0.359566
H	 0.7911290518	 2.0617654227	 0.4784386956	 0.126422
H	 0.0175929768	 1.7959665789	-1.0872450255	 0.137002
H	-0.9785824915	 1.920928339	 0.3674878184	 0.132385
H	-0.722253787	-0.5169786512	-0.3874897244	 0.126875
H	 1.4654139417	 1.0890191464	 2.2082906066	 0.109073
H	 0.6413910451	 0.0147657952	 3.3532294286	 0.128781
H	 3.0344346318	-0.6390100069	 2.0233071101	 0.301365
H	 1.4634446112	-2.3799525464	 3.0054613924	 0.273262
H	 0.3499816469	-3.6971532946	 2.730206969	 0.258402
56.1972	120.5587	146.507	184.9956	216.0721	234.0164	303.9279	355.1365	389.8709	437.6422	470.1257	524.7391	544.2433	611.7321	681.4259	698.9836	760.5565	803.7657	910.9478	952.5786	995.2926	1020.6172	1052.078	1109.4176	1140.1826	1148.6319	1210.6594	1249.1277	1334.3731	1359.7431	1383.7269	1408.0941	1426.8538	1460.5239	1487.523	1492.2162	1509.2089	1620.215	1798.4907	3041.9919	3050.6941	3101.41	3104.8509	3125.4731	3144.9409	3535.6667	3689.9717	3785.7365
CC1OC1(CO)C(N)=O	C[C@H]1O[C@]1(CO)C(=O)N	
InChI=1S/C5H9NO3/c1-3-5(2-7,9-3)4(6)8/h3,7H,2H2,1H3,(H2,6,8)	InChI=1S/C5H9NO3/c1-3-5(2-7,9-3)4(6)8/h3,7H,2H2,1H3,(H2,6,8)/t3-,5+/m1/s1
