17
gdb 49791	2.65295	1.51655	1.01016	2.2886	79.	-0.2332	-0.0263	0.2069	1142.9073	0.138239	-418.055804	-418.048069	-418.047125	-418.08819	29.49	
N	-0.0965821119	 1.3131111022	 0.1277750471	-0.490986
C	-0.0241313089	 0.0500917163	 0.0186984507	 0.367342
C	-1.2734636435	-0.791884088	-0.0753068002	-0.270392
C	-1.2124845324	-1.7673846285	-1.2642917274	-0.272758
C	 0.1105302392	-2.4806115861	-1.2748045877	-0.138756
C	 1.184254236	-1.9732736987	-0.6725843934	 0.030801
N	 1.1768413267	-0.7165180359	-0.022640798	-0.145209
C	 2.3316459424	-0.2925878946	 0.6219581511	 0.141494
O	 3.3835125075	-0.8850598083	 0.5957298083	-0.308167
H	 0.818454984	 1.7640822992	 0.1324387935	 0.223056
H	-1.3595867776	-1.3754658635	 0.8504800114	 0.126795
H	-2.1275455094	-0.1173576854	-0.1363137568	 0.134276
H	-2.0369597397	-2.4842660453	-1.1906959821	 0.117557
H	-1.3644948479	-1.2265458488	-2.2091785838	 0.1263
H	 0.2004553343	-3.4344526597	-1.7816247448	 0.106939
H	 2.1541631119	-2.4499774283	-0.6407519681	 0.15058
H	 2.1738473191	 0.6387895632	 1.18918281	 0.101126
92.1856	160.7342	194.5351	244.4199	308.4046	381.9753	425.2601	504.566	518.202	589.9943	664.0455	738.5516	787.9346	815.0121	880.9912	908.7136	913.453	981.2921	1007.2583	1025.2849	1050.7207	1077.6088	1139.7948	1188.2129	1235.7895	1264.7321	1301.7805	1311.287	1340.2915	1380.1735	1416.42	1443.1455	1473.771	1483.8297	1723.3014	1736.8032	1801.1086	3002.9605	3009.4327	3032.6657	3068.4149	3135.9653	3196.9508	3242.9674	3479.0912
N=C1CCC=CN1C=O	[NH][C]1CCC=CN1C=O	
InChI=1S/C6H8N2O/c7-6-3-1-2-4-8(6)5-9/h2,4-5,7H,1,3H2	InChI=1S/C6H8N2O/c7-6-3-1-2-4-8(6)5-9/h2,4-5,7H,1,3H2
