18
gdb 128133	2.0973	1.7582	1.01692	4.9136	76.22	-0.1988	0.0095	0.2083	1173.3457	0.148447	-431.430947	-431.421438	-431.420494	-431.465377	33.937	
C	 0.2467903409	 1.1919067636	-0.6349879125	-0.33232
N	-0.2600361062	 0.1540495739	 0.2623597614	-0.395082
C	 0.6268358949	-0.4249184662	 1.1763963409	 0.193483
C	 1.0896660546	-1.7260995528	 1.2509652262	 0.315512
N	 0.7223784447	-2.8171957888	 0.476001681	-0.594786
N	 1.9531018453	-1.8347311657	 2.2911304119	-0.270526
N	 2.0512228344	-0.665453757	 2.8826792257	-0.165224
N	 1.2616000984	 0.1924117283	 2.2328830103	 0.032454
C	 1.1604432192	 1.5613296952	 2.6869281945	-0.331021
H	 1.1274049648	 0.8102521626	-1.1593436953	 0.135595
H	-0.5195223233	 1.4223243422	-1.3813223512	 0.125252
H	 0.5308981147	 2.1330533579	-0.139116507	 0.105203
H	-1.1573479408	 0.3985125117	 0.6633403929	 0.234678
H	 0.3864177629	-2.5524639607	-0.4396904466	 0.246782
H	 1.4502827595	-3.5168544571	 0.4248876597	 0.253228
H	 1.666593675	 2.2479334309	 2.001150576	 0.143403
H	 0.1113573867	 1.857811604	 2.7759967147	 0.135112
H	 1.6375219341	 1.6128780281	 3.6656197171	 0.168256
72.0335	115.5947	140.8872	168.343	190.9287	231.9235	272.6087	303.1718	335.8104	402.1869	545.2671	576.2243	617.891	680.3538	682.2273	735.0853	790.6011	835.5058	1046.3642	1052.7431	1088.8913	1108.0083	1146.6499	1149.7221	1171.8049	1259.8009	1308.6569	1349.7309	1407.6103	1444.394	1453.7059	1459.5996	1480.874	1489.7734	1500.9006	1515.3668	1523.2299	1619.9474	1670.5239	2982.6354	3042.7555	3071.2729	3103.9808	3115.5925	3159.8556	3534.7329	3551.3404	3653.7453
CNC1=C(N)N=NN1C	CNc1c(N)nnn1C	
InChI=1S/C4H9N5/c1-6-4-3(5)7-8-9(4)2/h6H,5H2,1-2H3	InChI=1S/C4H9N5/c1-6-4-3(5)7-8-9(4)2/h6H,5H2,1-2H3
