17
gdb 73388	2.90416	1.63555	1.32194	2.7894	71.92	-0.2341	-0.0002	0.234	980.638	0.136783	-421.825734	-421.81845	-421.817506	-421.857194	29.305	
O	-0.0871059314	 1.3144863281	 0.0084173054	-0.475109
C	-0.003365354	-0.0698306529	-0.0466183691	 0.430711
C	 1.0183047318	-0.7229042959	-0.9817213448	-0.307504
C	 0.3786850236	-2.0897318037	-1.3392389739	-0.218557
C	-0.7409079229	-2.2652000817	-0.2927713927	-0.183516
C	-1.2622540727	-0.8346812905	 0.0188174397	-0.127446
C	-0.3523421388	-0.7945584606	 1.2864422124	-0.270171
C	-0.1561671288	-2.2617056772	 1.1450742093	 0.433346
O	 0.1671589634	-3.1395153333	 1.898398787	-0.340695
H	 0.7302233309	 1.6526266247	 0.3909445009	 0.290014
H	 1.1510760349	-0.0890998553	-1.8631391996	 0.113467
H	 1.9956384978	-0.8322496263	-0.499886151	 0.108488
H	-0.0541716806	-2.0562710581	-2.343898469	 0.110015
H	 1.0910718574	-2.9183847489	-1.3107876811	 0.118551
H	-1.459340091	-3.0579502591	-0.4987316772	 0.095365
H	-2.2657240744	-0.4459475504	-0.0747878337	 0.115509
H	-0.4569391053	-0.204297219	 2.1890014274	 0.107533
123.06	197.412	246.7227	305.4749	371.2275	419.9604	481.3298	513.3456	571.8804	629.8252	729.4233	773.521	811.5325	857.3691	858.8591	868.167	909.9796	921.2112	967.1216	985.5386	1020.7147	1055.678	1119.0351	1121.2417	1130.6717	1190.3996	1211.0694	1233.9859	1251.5746	1266.0237	1284.0547	1311.6785	1345.0498	1448.3381	1488.6293	1506.5533	1867.7624	3046.1849	3053.3191	3089.4807	3106.999	3128.8679	3192.5511	3229.7318	3798.3644
OC12CCC3C1C2C3=O	O[C@]12CC[C@@H]3[C@H]1[C@H]2C3=O	
InChI=1S/C7H8O2/c8-6-3-1-2-7(9)4(3)5(6)7/h3-5,9H,1-2H2	InChI=1S/C7H8O2/c8-6-3-1-2-7(9)4(3)5(6)7/h3-5,9H,1-2H2/t3-,4+,5+,7-/m1/s1
