17
gdb 24221	3.88364	1.55909	1.21942	0.7784	77.71	-0.2026	0.022	0.2246	1004.115	0.139458	-384.707758	-384.701339	-384.700395	-384.73836	26.665	
C	-0.0208783533	 1.4730955394	 0.0865592645	-0.278799
C	 1.3053738862	 0.7552371803	 0.0493304903	-0.024891
C	 2.022458318	 0.4123973672	 1.3728447675	-0.37265
C	 1.0132677832	-0.5061063478	 1.9844067542	 0.305374
C	-0.0774105724	-0.7824685145	 1.2269485219	 0.266488
C	-0.9054134838	-1.6371571786	 2.0237551142	-0.370312
C	-0.2317024977	-1.7964336718	 3.1994240571	-0.014624
O	 0.9483016133	-1.0974168995	 3.1989919702	-0.198243
C	-0.0076761113	-0.0357358511	-0.0557641257	-0.190179
H	-0.3719768544	 1.8854893891	 1.0273418829	 0.114149
H	-0.2792207364	 2.0618975415	-0.7881753421	 0.109047
H	 1.9214144159	 0.8956058939	-0.8306503046	 0.088733
H	 2.9883485767	-0.0761696745	 1.1895271303	 0.115411
H	 2.2251813905	 1.3035969166	 1.9789556866	 0.1204
H	-1.8584771033	-2.0791370625	 1.7777649838	 0.110862
H	-0.4372984309	-2.3530463361	 4.0987377743	 0.130818
H	-0.3236250205	-0.4851973615	-0.9902409252	 0.088415
155.5514	219.0095	332.5371	410.5437	434.3256	584.7617	616.0309	685.2367	697.9179	725.1238	765.897	787.6576	811.0219	818.7359	876.8082	921.9418	959.7571	986.1133	1027.6217	1058.4559	1070.3633	1082.0797	1097.2496	1125.2875	1159.4479	1172.9783	1196.5063	1236.9988	1278.878	1302.3326	1345.6941	1392.493	1473.4872	1476.3365	1491.4702	1515.8142	1636.552	3018.1176	3051.295	3120.406	3171.0809	3181.5248	3209.2789	3250.9916	3283.404
C1C2CC3=C(C=CO3)C12	C1[C@H]2Cc3c(cco3)[C@@H]12	
InChI=1S/C8H8O/c1-2-9-8-4-5-3-7(5)6(1)8/h1-2,5,7H,3-4H2	InChI=1S/C8H8O/c1-2-9-8-4-5-3-7(5)6(1)8/h1-2,5,7H,3-4H2/t5-,7-/m0/s1
