23
gdb 104856	1.94464	1.51854	1.05254	2.4221	80.89	-0.2436	0.0712	0.3147	1266.7964	0.204526	-425.414094	-425.403844	-425.402899	-425.449322	38.117	
C	-0.1195911466	 0.4245635336	-0.6887514841	-0.404048
C	-0.6172074213	-0.0781950332	 0.6721371203	-0.2197
C	 0.4364933984	-0.7517200475	 1.5461392932	 0.374718
C	 1.620287705	 0.1638090808	 1.8772518418	-0.09068
O	 1.1901582785	 1.2930652796	 2.61021118	-0.42559
O	-0.16574795	-1.1406598532	 2.8249504351	-0.335839
C	 0.3512085571	-2.4827993102	 2.7098221812	-0.08305
C	 0.8665974068	-2.2300743572	 1.2762216076	-0.087608
C	 0.1731989878	-3.0308969819	 0.1807114954	-0.421825
H	 0.3687947882	-0.3661353978	-1.2674172087	 0.115004
H	-0.9581929341	 0.7968189948	-1.2846599973	 0.117704
H	 0.5922448719	 1.2475449598	-0.5782419648	 0.131824
H	-1.009032919	 0.7662792463	 1.2490638409	 0.114551
H	-1.4512485234	-0.7735376205	 0.5366768312	 0.095234
H	 2.3703041528	-0.4149222146	 2.4407207247	 0.077583
H	 2.1057454692	 0.5305045657	 0.9670248582	 0.107407
H	 0.669227821	 0.9352085247	 3.3413380745	 0.290318
H	 1.1222653481	-2.6948798709	 3.46110173	 0.099431
H	-0.4462539763	-3.2304631768	 2.801507172	 0.10149
H	 1.9513620491	-2.3340544241	 1.175303916	 0.074571
H	-0.9164620145	-2.967601002	 0.2576043512	 0.12602
H	 0.462786504	-2.6939601167	-0.8191082043	 0.123951
H	 0.4467797872	-4.0886717787	 0.2626237358	 0.118534
62.0688	79.2622	137.2352	169.0177	204.6374	230.7009	276.4425	296.9988	320.0218	365.2443	414.2998	433.7502	512.3373	563.592	685.0759	763.3283	789.2935	878.6376	901.4482	924.5191	949.5648	988.3821	1016.8344	1025.6392	1054.6226	1073.1112	1100.9826	1119.8785	1153.5156	1176.6128	1202.3522	1215.0955	1262.0534	1278.3463	1309.2526	1341.7928	1360.3897	1388.7793	1393.3811	1410.8323	1414.6163	1431.2237	1479.7274	1492.8215	1496.4101	1501.5126	1504.7112	1517.5111	1528.3496	2967.0605	3011.635	3034.8172	3041.7948	3047.7285	3052.2696	3061.0174	3077.203	3084.599	3097.5892	3106.5917	3113.8131	3118.3692	3765.6408
CCC1(CO)OCC1C	CC[C@@]1(CO)OC[C@H]1C	
InChI=1S/C7H14O2/c1-3-7(5-8)6(2)4-9-7/h6,8H,3-5H2,1-2H3	InChI=1S/C7H14O2/c1-3-7(5-8)6(2)4-9-7/h6,8H,3-5H2,1-2H3/t6-,7+/m1/s1
