19
gdb 38621	2.58663	2.26486	1.636	0.9689	76.82	-0.2215	0.0808	0.3022	883.1764	0.163604	-382.011324	-382.004971	-382.004027	-382.041566	27.485	
C	 0.0315162595	 1.6061657396	-0.0193130149	-0.240341
C	 1.5367830929	 2.0339937085	-0.0522645005	-0.283984
C	 2.075620153	 0.8727581412	 0.7603134788	 0.312389
N	 3.1537724828	 0.7616441608	 1.7344271972	-0.429541
C	 1.7504947355	 0.8744359771	 2.2093129355	-0.06129
C	 0.7754461901	-0.2754014017	 2.4497882706	-0.192891
N	 0.431640217	-0.8463394385	 1.1309476538	-0.113116
C	 0.0524487731	 0.0558097291	-0.0114797574	-0.018401
C	 1.449128549	-0.3919065226	 0.1847716365	-0.128392
H	-0.4694283298	 2.02344549	 0.8606679533	 0.108871
H	-0.5220705447	 1.9512461776	-0.8970511237	 0.104683
H	 1.9110823294	 2.050766877	-1.0820846203	 0.099366
H	 1.7251804001	 3.0114931959	 0.3984374594	 0.107841
H	 3.4878382947	-0.2008788632	 1.761892082	 0.232071
H	 1.564513024	 1.8126944274	 2.7237036752	 0.096436
H	 1.1887148538	-1.0920496256	 3.0551142037	 0.110157
H	-0.1186496465	 0.0903560411	 2.9664794224	 0.1115
H	-0.6251322114	-0.4516106679	-0.6897482984	 0.09947
H	 2.0080146774	-1.1066271856	-0.4132152731	 0.08517
226.086	244.8787	355.2705	386.7165	450.1309	525.4543	620.6865	673.164	684.3043	714.46	797.3147	810.97	857.7697	865.8975	891.5809	911.0705	957.7593	964.2642	1000.2862	1027.9527	1029.1229	1056.2927	1069.1446	1105.8812	1115.8618	1148.0497	1169.4821	1204.8447	1238.9943	1255.2585	1278.6206	1289.9175	1306.0444	1308.478	1334.9043	1343.0767	1373.1527	1428.2667	1484.0544	1492.8084	1500.2768	3026.5381	3040.8758	3049.2694	3071.6483	3092.1321	3106.4238	3142.0417	3150.5845	3167.1678	3468.6688
C1CC23NC2CN2C1C32	C1C[C@@]23N[C@@H]2CN2[C@@H]1[C@@H]32	
InChI=1S/C7H10N2/c1-2-7-5(8-7)3-9-4(1)6(7)9/h4-6,8H,1-3H2	InChI=1S/C7H10N2/c1-2-7-5(8-7)3-9-4(1)6(7)9/h4-6,8H,1-3H2/t4-,5+,6-,7+,9?/m0/s1
