19
gdb 84566	3.04749	1.65832	1.28058	2.0764	79.59	-0.2317	0.0063	0.238	1022.5199	0.160924	-385.835658	-385.828583	-385.827639	-385.866863	29.246	
C	-0.1659060238	 1.5803184783	-0.0348411289	-0.390168
C	 0.0011025418	 0.0488326834	-0.0450071249	-0.074961
C	 0.6943549336	-0.4286347468	-1.2964243982	-0.086653
C	 1.8118000271	-1.1479151971	-1.2057876225	-0.091741
C	 2.357072116	-1.487928067	 0.1484720417	-0.047689
C	 1.3354228422	-1.8783189405	 1.2583150279	 0.018925
O	 2.292193304	-1.4291284657	 2.287088131	-0.317361
C	 2.3094526883	-0.3843639761	 1.2461630136	 0.034353
C	 0.7520339721	-0.4370033437	 1.1966189086	 0.000024
H	 0.8084886366	 2.0796542216	-0.0411386784	 0.120046
H	-0.7218603753	 1.9206899769	-0.9143071358	 0.114961
H	-0.7109002386	 1.9081845432	 0.8563898868	 0.116543
H	-1.0097023817	-0.3879062282	-0.018889019	 0.086873
H	 0.2616104374	-0.1581052642	-2.2558669931	 0.09083
H	 2.3374912093	-1.502593659	-2.0869365558	 0.092642
H	 3.2703828026	-2.0831687471	 0.1573722792	 0.077346
H	 0.8259844012	-2.830076223	 1.416052103	 0.088862
H	 2.976546375	 0.466567986	 1.3901108171	 0.090231
H	 0.2862523024	-0.1247615011	 2.1346887978	 0.076937
130.9205	212.569	251.0249	333.5909	377.2808	461.4174	526.4998	545.4112	621.0684	711.5604	751.3808	752.7463	861.7601	865.8572	889.04	900.6656	910.641	978.074	989.4629	996.2504	1014.8185	1032.5817	1051.6836	1093.6171	1120.7593	1142.4788	1155.8583	1170.2298	1190.258	1214.9854	1254.929	1260.919	1301.8438	1324.1909	1348.8857	1391.6451	1399.1144	1419.7373	1496.4224	1500.1869	1708.2172	2979.4809	3031.2277	3085.0192	3102.7735	3103.5926	3105.7348	3108.0678	3120.4298	3157.5068	3182.8951
CC1C=CC2C3OC2C13	C[C@H]1C=C[C@@H]2[C@H]3O[C@@H]2[C@@H]13	
InChI=1S/C8H10O/c1-4-2-3-5-7-6(4)8(5)9-7/h2-8H,1H3	InChI=1S/C8H10O/c1-4-2-3-5-7-6(4)8(5)9-7/h2-8H,1H3/t4-,5-,6+,7-,8+/m0/s1
