19
gdb 66098	2.55299	1.49509	1.31892	3.4467	78.4	-0.2545	0.0373	0.2919	1061.9733	0.161164	-382.081332	-382.07315	-382.072206	-382.113755	31.938	
C	-0.0095176123	 1.5218051412	 0.0232167114	-0.43875
C	 0.005641285	-0.0163391796	-0.0007002147	 0.128256
C	 0.8203844009	-0.5934674727	-1.206716211	-0.252395
C	 1.3823313668	-1.951945946	-0.7334290471	-0.22215
C	 1.5439056493	-1.7782118442	 0.7652728544	-0.021613
N	 2.1777425002	-0.4892418004	 1.1306137166	-0.352007
C	 0.713432082	-0.6378776179	 1.2131431811	-0.05815
C	-1.3708493131	-0.5325130728	-0.0333941177	 0.256995
N	-2.452742192	-0.940089479	-0.0539408296	-0.346838
H	 1.0167776794	 1.8793119675	 0.1375485781	 0.141781
H	-0.4250733392	 1.9243515644	-0.9047056696	 0.131474
H	-0.6099498691	 1.8998033434	 0.8554740227	 0.128288
H	 0.2095902106	-0.673102526	-2.107764254	 0.116771
H	 1.6395534364	 0.0979733685	-1.410809456	 0.127103
H	 0.6683600103	-2.7614344137	-0.9222083858	 0.119345
H	 2.3185392918	-2.2054038237	-1.2394313688	 0.110326
H	 1.7098386022	-2.6409982685	 1.4016769915	 0.093856
H	 2.5719949293	-0.5560836138	 2.0652185272	 0.236931
H	 0.2201445714	-0.6117251666	 2.1789107013	 0.100776
110.4909	150.8089	202.3553	241.8913	265.606	325.6652	379.02	459.8558	482.8422	552.9703	619.9014	673.2718	728.9028	823.363	833.784	865.9648	903.8842	920.5882	929.2272	971.0618	1000.8846	1022.9515	1076.2971	1118.1807	1132.6858	1134.8827	1171.1931	1200.8755	1228.5093	1261.9182	1267.4246	1325.608	1342.6713	1374.2207	1403.569	1425.5534	1478.7989	1490.9314	1494.4587	1497.7487	2349.2729	3044.9709	3047.8054	3081.7013	3093.6226	3118.4289	3129.9334	3134.0304	3165.2733	3175.7443	3511.171
CC1(CCC2NC12)C#N	C[C@]1(CC[C@H]2N[C@@H]12)C#N	
InChI=1S/C7H10N2/c1-7(4-8)3-2-5-6(7)9-5/h5-6,9H,2-3H2,1H3	InChI=1S/C7H10N2/c1-7(4-8)3-2-5-6(7)9-5/h5-6,9H,2-3H2,1H3/t5-,6-,7+/m1/s1
