18
gdb 87653	2.9054	1.30189	1.06197	4.8274	74.71	-0.2258	0.0402	0.266	1160.7773	0.146152	-439.081582	-439.072489	-439.071545	-439.115412	33.41	
C	-0.0605486082	 1.3886398438	 0.0114207724	-0.351725
N	-0.0689005025	-0.0522701563	 0.010435627	-0.108451
C	-0.0616753571	-0.9614228036	-1.0219137542	 0.418612
O	-0.0825006248	-0.82250905	-2.2170177779	-0.376243
C	-0.0083637943	-2.1466030697	-0.0228097663	-0.489639
C	-0.0120210554	-1.0545396693	 1.0565093613	 0.38235
C	 0.7749758462	-0.9544824507	 2.3350419688	-0.407575
C	-0.7494020367	-1.0056462635	 2.3513380845	 0.029261
O	-1.4648209655	 0.1659028762	 2.6136420793	-0.421167
H	 0.8581697689	 1.783499646	 0.463105812	 0.12258
H	-0.102133363	 1.7110973354	-1.0316327502	 0.157797
H	-0.9194329004	 1.7888771563	 0.5558660666	 0.149102
H	-0.884495435	-2.7976852174	-0.0426880056	 0.1329
H	 0.9038300217	-2.7430729128	-0.0869590088	 0.132007
H	 1.3386788302	-1.8154601984	 2.6798733373	 0.121221
H	 1.2192333911	 0.0083227191	 2.5684573006	 0.121997
H	-1.2201679999	-1.9258709994	 2.7001435512	 0.095182
H	-1.3988189454	 0.3542973843	 3.5560840121	 0.291791
93.097	108.4105	145.8114	172.2947	224.9117	252.9374	298.2739	347.5318	432.148	503.5691	521.176	557.6859	608.5373	725.1974	793.9615	825.139	862.7839	926.0214	1000.2656	1018.6897	1035.014	1059.2541	1097.3659	1133.7514	1154.4898	1163.0482	1171.6357	1196.0617	1243.2065	1291.7884	1353.0278	1407.7438	1422.0597	1445.9615	1466.7953	1480.9578	1507.3431	1522.0963	1881.7823	3022.6758	3081.1823	3089.8385	3094.675	3123.3965	3137.2883	3139.1031	3214.219	3799.1528
CN1C(=O)CC11CC1O	CN1C(=O)C[C@]21C[C@H]2O	
InChI=1S/C6H9NO2/c1-7-5(9)3-6(7)2-4(6)8/h4,8H,2-3H2,1H3	InChI=1S/C6H9NO2/c1-7-5(9)3-6(7)2-4(6)8/h4,8H,2-3H2,1H3/t4-,6-/m1/s1
