15
gdb 125825	2.50207	1.75291	1.04399	0.9875	72.03	-0.2556	-0.0877	0.1679	1093.6519	0.110268	-453.909313	-453.90091	-453.899966	-453.942442	30.448	
C	 0.1754733482	 1.4527247864	-0.0071332832	-0.46455
C	 0.0027989376	-0.0337442262	 0.011627453	 0.283569
N	-0.0449180683	-0.6525386664	-1.1226304921	-0.115281
O	-0.2029311176	-2.0167294029	-1.1281367554	-0.217112
N	-0.3149200554	-2.7747171783	 0.011568959	-0.115282
C	-0.2708529052	-2.1845905481	 1.1611485274	 0.28357
C	-0.3949617447	-3.0309493184	 2.3891680491	-0.46455
C	-0.1054252886	-0.7324777508	 1.298013283	 0.222716
O	-0.0620898151	-0.1616563185	 2.3763828706	-0.334397
H	 1.0794285069	 1.7306193587	 0.5437361747	 0.155878
H	 0.239322519	 1.8157846566	-1.0332768697	 0.148903
H	-0.6632530695	 1.932595176	 0.5067558907	 0.155877
H	-0.510814625	-4.0806908847	 2.1180949089	 0.148903
H	 0.4897263227	-2.9043273424	 3.0209203517	 0.155878
H	-1.252967155	-2.7024588712	 2.983929342	 0.155877
80.6937	141.2516	146.8684	260.8835	262.2242	289.2478	296.3819	474.2429	484.1419	499.7351	515.5622	569.8601	668.9689	808.5666	839.3196	874.1757	913.0275	992.1611	1050.1608	1051.361	1058.3892	1090.3664	1307.8408	1396.5274	1410.507	1427.4787	1463.0658	1463.5396	1466.6764	1467.6036	1611.9468	1638.5868	1748.3381	3050.1128	3050.4275	3108.6711	3108.8832	3157.0783	3157.2486
CC1=NON=C(C)C1=O	Cc1nonc(C)c1=O	
InChI=1S/C5H6N2O2/c1-3-5(8)4(2)7-9-6-3/h1-2H3	InChI=1S/C5H6N2O2/c1-3-5(8)4(2)7-9-6-3/h1-2H3
