19
gdb 95922	2.39051	1.48608	1.19847	2.4429	77.33	-0.2425	0.0306	0.2731	1117.852	0.157064	-422.996722	-422.98722	-422.986276	-423.030811	35.551	
C	-0.079689575	 1.4825183666	-0.0813013538	-0.405166
C	 0.052325035	-0.0295006843	-0.0451997263	 0.147899
O	 0.8151597757	-0.4789136539	-1.1635730123	-0.287194
C	 1.6739836146	-1.5553844566	-0.7895942339	-0.07926
C	 1.2658978727	-1.9576095038	 0.6316272191	-0.269659
C	 0.7754486954	-0.607736748	 1.2013064146	 0.159771
O	 1.8860764833	 0.2435282603	 1.4862497627	-0.46429
C	-0.0978227177	-0.7378524811	 2.3654873399	 0.269742
C	-0.7912998922	-0.844696944	 3.3419530346	-0.433769
H	 0.9019372061	 1.9524123358	-0.0090659983	 0.139703
H	-0.5536802575	 1.7869628292	-1.0181177329	 0.12046
H	-0.7010371813	 1.8277513654	 0.7507245245	 0.119427
H	-0.9482052379	-0.4883324288	-0.0775293963	 0.072547
H	 1.5609132591	-2.3757315298	-1.5070034511	 0.100368
H	 2.7160626141	-1.2123881805	-0.8159785936	 0.105332
H	 0.4423205509	-2.677498499	 0.6229492358	 0.117186
H	 2.0854416502	-2.3762036729	 1.2206827188	 0.103215
H	 2.2669619491	-0.0457400097	 2.3219390256	 0.285737
H	-1.4106760045	-0.9341810147	 4.2002994028	 0.197951
68.6903	127.165	135.0391	197.907	220.7584	253.1365	274.6969	342.148	383.2567	470.6586	511.6059	560.4418	581.2993	632.146	669.6774	677.1477	754.0882	829.7289	876.2034	941.964	982.049	1016.0786	1042.3543	1062.3727	1105.3871	1144.1127	1150.5179	1172.1801	1218.767	1232.9547	1313.6249	1336.9717	1372.1039	1392.1899	1396.1878	1407.2641	1478.5235	1485.6533	1494.4406	1523.1959	2232.0954	2977.4625	3018.9542	3051.4586	3055.4376	3067.8194	3115.8701	3120.1192	3150.6316	3499.3232	3819.0618
CC1OCCC1(O)C#C	C[C@H]1OCC[C@]1(O)C#C	
InChI=1S/C7H10O2/c1-3-7(8)4-5-9-6(7)2/h1,6,8H,4-5H2,2H3	InChI=1S/C7H10O2/c1-3-7(8)4-5-9-6(7)2/h1,6,8H,4-5H2,2H3/t6-,7-/m1/s1
