22
gdb 22052	2.71063	1.05235	0.95383	1.1363	82.11	-0.2419	0.0139	0.2558	1376.2938	0.189148	-441.442088	-441.43058	-441.429636	-441.479013	41.369	
C	 0.0558287796	 1.3885255297	 0.1359540182	-0.241937
O	 0.0408833401	-0.0115827994	-0.028460228	-0.280452
C	 0.5928090265	-0.5549578337	-1.2397549553	 0.27925
C	-0.180669986	-0.0680227471	-2.4703304247	-0.419134
C	 2.0925986613	-0.2162978671	-1.3718248824	-0.42978
C	 0.45691857	-2.0645042021	-1.0338112261	 0.363523
C	 0.8959639596	-2.672130403	 0.2710461788	-0.471977
N	-0.0004567214	-2.7433372623	-2.0128186163	-0.190856
O	-0.0282940633	-4.1174519102	-1.7238584598	-0.401114
H	 1.0717895073	 1.807062973	 0.1408053955	 0.105647
H	-0.5321853913	 1.9125692883	-0.6295288427	 0.10941
H	-0.3989666285	 1.5851486494	 1.110428848	 0.127768
H	-0.0144201924	 1.0005900013	-2.6328230836	 0.102746
H	 0.1459692734	-0.604326079	-3.3620568623	 0.133915
H	-1.2505123408	-0.2462673274	-2.3411082941	 0.125057
H	 2.644302718	-0.5189842947	-0.4775775811	 0.12275
H	 2.5152897149	-0.7397433128	-2.2338484465	 0.128756
H	 2.2466450448	 0.8555626253	-1.5252413591	 0.117115
H	 0.0973181504	-3.3025503641	 0.6724426296	 0.145567
H	 1.7593827275	-3.3280234663	 0.1145700302	 0.136191
H	 1.1424837205	-1.9009961794	 0.9983126584	 0.133664
H	-0.4116467903	-4.4834005785	-2.5277864067	 0.303891
45.3938	52.5252	97.9487	175.4995	179.744	200.2846	252.3618	271.0139	291.4906	321.2745	355.7036	360.651	384.9133	407.2042	453.1378	492.8816	588.5362	626.2909	738.7096	823.4574	919.5876	934.1147	969.6074	999.4614	1036.8176	1049.5361	1111.7706	1163.6138	1177.3142	1181.3209	1206.8629	1217.1154	1311.8116	1389.8444	1394.2569	1397.5325	1410.9854	1470.603	1474.3405	1475.2437	1479.2642	1486.337	1499.5925	1501.4345	1507.4448	1515.39	1730.1584	2995.7672	3040.8971	3046.106	3048.7307	3056.1925	3101.4973	3106.8908	3115.1158	3122.5674	3125.7776	3147.5878	3168.6922	3819.9768
COC(C)(C)C(C)=NO	COC(C)(C)C(=NO)C	
InChI=1S/C6H13NO2/c1-5(7-8)6(2,3)9-4/h8H,1-4H3	InChI=1S/C6H13NO2/c1-5(7-8)6(2,3)9-4/h8H,1-4H3
