23
gdb 114921	3.11415	1.1116	0.90514	0.8449	88.49	-0.2279	0.0311	0.2589	1392.1124	0.204672	-388.304492	-388.294404	-388.293459	-388.339347	37.381	
C	-0.0696644595	 1.3980620301	-0.148600978	-0.233682
O	-0.033866964	 0.0460413061	 0.2412799089	-0.243701
C	-1.2667995801	-0.6240294741	 0.0975083859	 0.139622
C	-1.7202391145	-0.8859383045	-1.3648615838	-0.28691
C	-2.4596863165	-2.1929219365	-1.2303766818	-0.172216
C	-2.2075150126	-2.8121906438	-0.0741472895	 0.33645
C	-2.7575296462	-4.1268205356	 0.3822555378	-0.497054
C	-1.213998464	-2.0245531899	 0.7650762709	-0.129009
C	 0.1889289275	-2.657872713	 0.7609464703	-0.383484
H	 0.9109029756	 1.8266387472	 0.0737675939	 0.124059
H	-0.2692032953	 1.5178540888	-1.2237925646	 0.107066
H	-0.837264408	 1.9607627602	 0.4070022603	 0.101391
H	-2.0565033781	-0.0358437569	 0.5944337907	 0.063986
H	-2.3420810141	-0.0785872372	-1.7677492118	 0.096302
H	-0.8461823004	-0.9741418421	-2.0262716608	 0.109159
H	-3.1102780174	-2.5818503688	-2.0074951204	 0.081549
H	-3.4398044595	-4.5554878071	-0.3571682514	 0.121002
H	-1.958217055	-4.8553717596	 0.566570001	 0.127379
H	-3.303540264	-4.0202133119	 1.3286843047	 0.122763
H	-1.5467391703	-1.9548014272	 1.8090789626	 0.067379
H	 0.5694034909	-2.7728931619	-0.2586462977	 0.115756
H	 0.8927516774	-2.0327868442	 1.3144749092	 0.127939
H	 0.165044888	-3.6483250681	 1.2264353335	 0.104252
64.931	103.4622	173.2302	184.7966	203.2401	216.0473	245.1878	268.188	294.0403	336.3046	435.2998	478.4071	564.1396	634.14	675.2782	781.9629	833.6296	834.7059	938.2498	980.1911	994.641	1016.6186	1033.9791	1045.6695	1087.5897	1096.0477	1127.9732	1161.7764	1171.0794	1185.4442	1197.0011	1234.5537	1286.2061	1292.8505	1324.6134	1351.9142	1361.0388	1387.3382	1402.6729	1414.1609	1479.0813	1479.9781	1485.6192	1489.5398	1492.5664	1496.2774	1498.2349	1510.9926	1720.3396	2952.292	2972.0945	3005.2196	3013.2327	3017.6411	3021.6134	3040.5904	3054.8851	3062.9242	3105.559	3107.6741	3109.8161	3129.2315	3176.7242
COC1CC=C(C)C1C	CO[C@H]1CC=C(C)[C@H]1C	
InChI=1S/C8H14O/c1-6-4-5-8(9-3)7(6)2/h4,7-8H,5H2,1-3H3	InChI=1S/C8H14O/c1-6-4-5-8(9-3)7(6)2/h4,7-8H,5H2,1-3H3/t7-,8+/m1/s1
