21
gdb 91141	2.78111	1.38309	1.22369	1.5584	84.13	-0.2315	0.0232	0.2546	1141.0171	0.183759	-387.098912	-387.09058	-387.089636	-387.131625	33.154	
C	 0.257721976	 1.3830775656	 0.3683696256	-0.490711
C	 0.0484467175	-0.0867909221	 0.1761991532	 0.311123
C	 0.3393016088	-0.8085977187	-0.9137834812	-0.191331
C	-0.0322460334	-2.2620453035	-0.7897616617	-0.056892
C	 1.1519564197	-3.243121651	-0.5353825668	-0.265193
C	 0.9246379607	-3.0986947025	 0.9974760252	 0.130321
O	 1.9028361488	-2.3596825932	 1.6974954021	-0.429404
C	-0.4420633446	-2.3700997667	 0.7164845872	-0.047665
C	-0.587218672	-0.941787078	 1.2604082147	-0.318689
H	 0.8926196639	 1.5853703997	 1.240291968	 0.126123
H	 0.7205268729	 1.8470544775	-0.5068866055	 0.122448
H	-0.6961167821	 1.8918877614	 0.5591240101	 0.127567
H	 0.7873884046	-0.3981904458	-1.8145550152	 0.083139
H	-0.748615724	-2.5797495091	-1.5547301321	 0.067656
H	 0.955794978	-4.2558781275	-0.8991401786	 0.098732
H	 2.1392831021	-2.932357557	-0.8910618306	 0.093616
H	 0.8298149301	-4.0397026613	 1.5450225292	 0.083881
H	 2.0862077864	-1.5633114602	 1.1860819391	 0.278632
H	-1.2994973354	-3.0108684821	 0.9299786558	 0.062951
H	-0.0788725511	-0.8235888054	 2.2252589699	 0.114738
H	-1.6360132169	-0.6556041502	 1.4195500518	 0.098959
82.961	136.0392	188.0984	269.9467	298.2012	365.2058	398.6835	424.655	463.4833	505.832	607.8119	648.5798	752.7133	806.7356	846.0199	858.4804	868.0348	902.8438	928.5489	971.8428	992.2512	1028.2644	1033.9341	1039.5632	1062.6764	1098.1546	1128.3795	1151.049	1186.4457	1201.9562	1240.8467	1258.0925	1271.9448	1280.4149	1285.8207	1327.7815	1335.9986	1355.8739	1414.0667	1443.8243	1473.4319	1478.3464	1479.9384	1489.1102	1704.3575	3010.2619	3017.4027	3040.8766	3048.868	3052.5447	3062.1163	3073.0248	3093.1012	3102.6397	3109.7183	3168.8667	3794.1695
CC1=CC2CC(O)C2C1	CC1=C[C@H]2C[C@@H](O)[C@H]2C1	
InChI=1S/C8H12O/c1-5-2-6-4-8(9)7(6)3-5/h2,6-9H,3-4H2,1H3	InChI=1S/C8H12O/c1-5-2-6-4-8(9)7(6)3-5/h2,6-9H,3-4H2,1H3/t6-,7-,8+/m0/s1
