23
gdb 121978	5.6427	0.49554	0.47375	3.254	83.94	-0.248	-0.02	0.2281	2273.7099	0.202299	-425.437105	-425.425577	-425.424632	-425.475516	39.652	
C	 0.0226531298	 1.5618411154	 0.1139321997	-0.392999
C	-0.0393471247	 0.0327788542	-0.017701812	 0.011735
C	 0.6403817192	-0.4804059505	-1.3006712517	-0.186921
C	-0.0015998718	 0.006770001	-2.6037910612	-0.180768
C	 0.6275570018	-0.6279368948	-3.8377912158	-0.072243
O	-0.0250841357	-0.0984310371	-4.981561524	-0.421178
C	 0.5830409363	-0.6460041365	 1.2222105295	-0.277425
C	-0.2110630216	-0.3933371714	 2.4826800788	 0.158853
O	 0.2318576565	 0.0504234015	 3.510543347	-0.241839
H	 1.062787981	 1.9088406025	 0.117633953	 0.11932
H	-0.4951176216	 2.0598174341	-0.7097973343	 0.123879
H	-0.4382311988	 1.9017037271	 1.0469367552	 0.1254
H	-1.0980056293	-0.2649164084	-0.061382133	 0.077605
H	 1.7009123035	-0.1915511557	-1.2810764797	 0.096895
H	 0.6254169064	-1.5788766343	-1.2860782128	 0.090671
H	-1.0745894473	-0.2231064204	-2.6056175875	 0.104539
H	 0.085949378	 1.0940149648	-2.7017319931	 0.112324
H	 1.7082568903	-0.4095526762	-3.8578642427	 0.084397
H	 0.5199101925	-1.7242976733	-3.7884764245	 0.083241
H	 0.3698237811	-0.4935474632	-5.764138067	 0.285755
H	 0.5937378965	-1.7349083621	 1.0659040305	 0.113324
H	 1.6150010062	-0.3179845123	 1.384515332	 0.11714
H	-1.2922076081	-0.6611838144	 2.3965755836	 0.068294
45.9809	51.8036	65.8815	96.3731	115.4312	139.5359	231.3744	238.9909	264.1094	274.3885	306.1844	406.3239	447.9236	500.3904	539.8207	756.0172	777.5066	846.9369	883.4911	933.4348	969.1961	1010.0536	1015.7098	1030.1111	1059.9618	1078.5497	1129.4054	1156.0127	1176.6324	1207.551	1233.6716	1242.2523	1274.9193	1306.1938	1314.4345	1319.2217	1364.396	1375.5545	1394.0636	1419.3828	1430.8098	1459.6503	1463.3043	1483.1154	1499.0133	1500.4083	1504.9156	1528.7498	1834.8058	2838.7329	2955.9886	2981.0606	2990.4086	3001.6807	3007.7349	3031.5598	3033.3857	3037.7679	3083.735	3088.2484	3096.8797	3116.9798	3830.9874
CC(CCCO)CC=O	C[C@@H](CCCO)CC=O	
InChI=1S/C7H14O2/c1-7(4-6-9)3-2-5-8/h6-8H,2-5H2,1H3	InChI=1S/C7H14O2/c1-7(4-6-9)3-2-5-8/h6-8H,2-5H2,1H3/t7-/m0/s1
