12
gdb 129232	3.13661	1.51969	1.0237	4.0594	73.04	-0.262	-0.1137	0.1483	1038.8916	0.079613	-427.832616	-427.825558	-427.824614	-427.864454	25.85	
N	-0.0740118746	 1.3571235562	 0.0112024356	-0.525157
C	-0.0398933677	 0.0859424486	 0.003839953	 0.362224
N	 1.1177182384	-0.7197317723	-0.0080391251	-0.295411
N	 1.2127620898	-2.0563924501	-0.0161599328	-0.009957
N	 0.1497971671	-2.7558361878	-0.0133417928	-0.216867
C	-1.0733965868	-2.1112122251	-0.0019469724	-0.025415
C	-1.230344344	-0.7612442444	 0.0066395949	 0.087271
C	-2.5224814384	-0.1628461287	 0.0182107499	 0.272851
N	-3.5908110821	 0.2817161459	 0.0274956648	-0.315389
H	 0.8535876079	 1.7815037039	 0.0076968485	 0.219533
H	 2.0232998141	-0.2687193903	-0.0112548316	 0.283296
H	-1.9283382437	-2.7765946658	-0.0002573521	 0.163021
101.751	151.882	185.0135	336.652	373.5805	465.2841	487.0818	563.4446	610.6113	611.0478	701.6776	749.6854	777.1002	818.7779	929.2969	976.5516	1054.273	1075.2584	1160.6381	1211.7066	1265.06	1371.776	1438.4488	1533.265	1616.1819	1736.8296	2348.4528	3216.5036	3482.8559	3595.5914
N=C1NN=NC=C1C#N	[NH]c1[nH]nncc1C#N	
InChI=1S/C4H3N5/c5-1-3-2-7-9-8-4(3)6/h2H,(H2,6,7,8)	InChI=1S/C4H8N5/c5-1-3-2-7-9-8-4(3)6/h3-4,6-9H,2H2
