14
gdb 131530	3.7343	1.35754	1.06975	2.9052	65.56	-0.2348	-0.0164	0.2184	1059.2446	0.101653	-469.945213	-469.937847	-469.936902	-469.97734	27.511	
O	 0.3877020627	 1.285952019	 0.2338519648	-0.399703
C	 0.0601713026	-0.049229233	 0.0694735402	 0.026734
C	-1.4695165238	-0.4900576198	-0.0223691322	-0.212479
N	-1.0909302421	-1.2525033079	-1.2380653336	-0.105492
C	 0.14669241	-0.6810268223	-1.3237613234	 0.330353
N	 0.6741618404	-0.6446546039	-2.4922262648	-0.237743
O	-0.3468788452	-1.3051489618	-3.290786863	-0.26084
C	-1.4946380194	-1.5369176615	-2.5373802513	 0.467285
N	-2.6186256621	-1.9389909704	-2.9413263467	-0.582376
H	 0.0846006644	 1.7848397694	-0.5338130621	 0.30134
H	 0.599814107	-0.6130730284	 0.8327479131	 0.145286
H	-1.869384784	-1.1049631439	 0.7841671229	 0.146125
H	-2.1322339754	 0.3535062768	-0.2340962834	 0.142809
H	-2.6207118051	-2.0604610421	-3.9516505303	 0.238701
97.9557	129.9801	191.6374	290.8107	341.9078	394.819	456.9377	589.7934	630.6568	695.2437	701.3084	745.6674	759.9434	783.8668	840.9928	884.2416	983.6041	1004.0811	1049.0473	1134.008	1159.722	1185.15	1218.7397	1246.7895	1304.1854	1335.3385	1397.9662	1437.3726	1504.8315	1683.8856	1788.4318	3069.6819	3106.986	3144.5492	3531.134	3799.2242
OC1CN2C1=NOC2=N	O[C@H]1CN2[C]1[N]O[C]2[NH]	
InChI=1S/C4H5N3O2/c5-4-7-1-2(8)3(7)6-9-4/h2,5,8H,1H2	InChI=1S/C4H5N3O2/c5-4-7-1-2(8)3(7)6-9-4/h2,5,8H,1H2/t2-/m0/s1
