21
gdb 117359	4.82108	0.62283	0.59903	3.0676	80.16	-0.246	-0.0124	0.2336	1941.4465	0.179567	-424.228779	-424.218421	-424.217477	-424.266143	36.118	
C	-0.2324326974	 1.5265932121	-0.3666599538	-0.386848
C	-0.0479612775	 0.0337239791	-0.0850455576	-0.160558
C	-1.3733864773	-0.7248729003	-0.0293223042	-0.288568
C	-1.2286854791	-2.2163781326	 0.2189275702	 0.383322
O	-0.1541244361	-2.7709822373	 0.2484399368	-0.304565
C	-2.5272048352	-2.9920334385	 0.4614234016	-0.34226
C	-2.4425923339	-4.4263116607	-0.0005762232	 0.113921
C	-3.6437584067	-5.2109268359	-0.3035336753	-0.186492
O	-2.8374547351	-4.6737095123	-1.3533949715	-0.234809
H	 0.7314059441	 2.043440242	-0.4000866386	 0.116642
H	-0.7317273918	 1.6930204879	-1.327947174	 0.11436
H	-0.8405833921	 2.0083182888	 0.4075170739	 0.111847
H	 0.5873253331	-0.4219537808	-0.8513587028	 0.118297
H	 0.4845124142	-0.1085490938	 0.8619966988	 0.10887
H	-2.0398672337	-0.3115049648	 0.7421811698	 0.115207
H	-1.932120456	-0.6089742009	-0.9707446431	 0.128569
H	-2.7067660236	-2.961632707	 1.5464489148	 0.133585
H	-3.3767911806	-2.4916794734	-0.0139855635	 0.117016
H	-1.5361181829	-4.9473038543	 0.3015801335	 0.115906
H	-3.6230676533	-6.2951318877	-0.2020909064	 0.117096
H	-4.6273711492	-4.7554454397	-0.1903708453	 0.109464
26.1407	62.5855	77.7256	94.791	130.039	210.4592	244.413	303.4641	359.2537	373.4863	427.9923	475.389	681.105	723.1585	784.6871	828.9605	855.5822	873.6413	910.5043	939.8171	966.254	1035.2587	1052.6139	1073.1256	1109.8446	1134.9399	1142.9369	1159.092	1170.344	1223.5465	1259.4029	1294.0974	1302.1926	1324.3188	1337.142	1396.1505	1415.1919	1435.7485	1445.7243	1452.3477	1487.3409	1500.362	1508.161	1532.7653	1808.6598	3001.6098	3013.9798	3027.6963	3028.2536	3048.6342	3075.7774	3079.5708	3084.8598	3100.3492	3104.0803	3139.1242	3165.9152
CCCC(=O)CC1CO1	CCCC(=O)C[C@H]1CO1	
InChI=1S/C7H12O2/c1-2-3-6(8)4-7-5-9-7/h7H,2-5H2,1H3	InChI=1S/C7H12O2/c1-2-3-6(8)4-7-5-9-7/h7H,2-5H2,1H3/t7-/m0/s1
