21
gdb 94654	3.71238	0.70695	0.6366	1.367	80.11	-0.2485	-0.0242	0.2243	1751.3632	0.180462	-424.2197	-424.209713	-424.208769	-424.256328	34.933	
C	-0.3496005011	 1.5120608145	-0.1487201679	-0.405473
C	 0.1782221347	 0.0922504637	-0.1146808615	 0.140947
O	 1.5120027353	-0.0195788812	-0.6686415971	-0.28893
C	 1.9544447821	-0.8250275028	 0.4392269403	-0.07908
C	 0.6439609332	-0.5682417021	 1.2168554536	-0.051462
C	 0.7666142493	 0.3214236023	 2.4512764521	-0.217345
C	 1.3933981355	-0.4243688474	 3.644407048	-0.277625
C	 1.6068333821	 0.4902466469	 4.8285556654	 0.158818
O	 1.1544354544	 0.3136136358	 5.9297710228	-0.235053
H	 0.300778409	 2.200291578	 0.3968648824	 0.120878
H	-0.4081043819	 1.8542829973	-1.186743877	 0.130592
H	-1.3563304056	 1.5617283515	 0.2799917554	 0.117986
H	-0.5120304053	-0.5653833267	-0.6642186718	 0.07227
H	 2.1246886845	-1.8698685254	 0.147410009	 0.099274
H	 2.8755767764	-0.4309829689	 0.8887937932	 0.096209
H	 0.0856895738	-1.4734670608	 1.4718006927	 0.077358
H	 1.375452771	 1.2032090925	 2.2149985702	 0.110979
H	-0.2238103097	 0.6934371071	 2.7409537692	 0.114746
H	 0.7743039611	-1.2687310709	 3.9617108908	 0.122811
H	 2.3784857885	-0.8147418737	 3.3485062718	 0.121132
H	 2.2333985527	 1.3865624201	 4.6046092684	 0.070965
48.0779	52.1801	85.2694	115.6813	129.2179	218.7322	250.8579	307.9353	373.3566	413.8956	487.1175	537.2991	737.2302	772.634	830.0627	870.1969	877.2434	897.2421	971.598	990.8624	1029.0815	1032.2061	1071.3245	1094.4203	1119.3308	1156.0262	1164.4956	1177.4419	1222.1096	1237.6483	1275.0751	1294.2155	1318.6487	1349.7607	1367.4503	1387.3945	1398.113	1411.7746	1429.8996	1462.624	1481.8334	1493.4345	1502.8502	1526.647	1837.4138	2848.1471	2982.2431	3002.3142	3008.9015	3024.6425	3039.249	3040.4061	3057.2638	3072.6833	3098.1239	3107.2104	3124.772
CC1OCC1CCC=O	C[C@H]1OC[C@H]1CCC=O	
InChI=1S/C7H12O2/c1-6-7(5-9-6)3-2-4-8/h4,6-7H,2-3,5H2,1H3	InChI=1S/C7H12O2/c1-6-7(5-9-6)3-2-4-8/h4,6-7H,2-3,5H2,1H3/t6-,7-/m1/s1
