20
gdb 123219	5.57288	0.47276	0.4487	4.0973	77.81	-0.2697	0.0313	0.301	2342.1681	0.169351	-440.28823	-440.277641	-440.276697	-440.325873	35.974	
O	-0.0654580087	 1.4480970269	-0.1329324305	-0.419025
C	 0.0034993188	 0.0398515889	-0.0419423458	-0.059727
C	-1.3825287062	-0.5822012239	 0.0179617298	-0.073815
O	-2.0479660578	-0.2145414379	-1.1791457384	-0.260633
C	-3.4010885333	-0.6033295734	-1.2244088821	-0.052865
C	-3.9846449829	-0.1427902159	-2.5545077675	-0.198479
C	-5.4684528373	-0.5345793018	-2.6847094611	-0.342473
C	-6.0502760768	-0.1046705911	-3.9538787345	 0.25949
N	-6.4979516444	 0.2409243481	-4.9613740937	-0.299561
H	-0.6688656607	 1.6353289139	-0.8613655082	 0.288659
H	 0.5539871636	-0.3946522802	-0.8916012396	 0.095873
H	 0.5540664044	-0.2001793729	 0.8733719714	 0.11122
H	-1.3179401023	-1.6787973844	 0.1089047663	 0.090221
H	-1.9309844705	-0.194537858	 0.8911022947	 0.09814
H	-3.4895892587	-1.6991493588	-1.1255145274	 0.092547
H	-3.9592267234	-0.1582490083	-0.3824641763	 0.094117
H	-3.8794365123	 0.9431404764	-2.6390618955	 0.131236
H	-3.409970875	-0.5858129123	-3.3733370324	 0.134511
H	-5.5860989218	-1.6216871505	-2.6019043728	 0.155124
H	-6.0541801946	-0.0931928249	-1.8694842165	 0.155442
44.5332	47.8056	75.95	105.8831	127.883	168.4756	197.5083	266.7546	370.4445	389.6092	397.0147	436.1884	550.8524	569.0859	756.4168	862.9249	869.4746	907.7515	944.2678	1027.5328	1054.8374	1079.596	1094.4975	1121.2583	1139.6535	1162.6019	1221.3686	1236.3561	1265.0939	1278.7679	1300.8978	1313.4586	1367.1863	1386.933	1391.6329	1435.8568	1451.2708	1470.6157	1497.123	1499.0719	1505.1891	1532.5801	2365.3607	2948.0885	2970.4439	2975.8021	2980.4378	3012.4346	3036.7377	3061.9536	3071.0415	3082.183	3110.2228	3799.5492
OCCOCCCC#N	OCCOCCCC#N	
InChI=1S/C6H11NO2/c7-3-1-2-5-9-6-4-8/h8H,1-2,4-6H2	InChI=1S/C6H11NO2/c7-3-1-2-5-9-6-4-8/h8H,1-2,4-6H2
