16
gdb 9713	3.58652	1.61318	1.55665	4.697	70.49	-0.2524	-0.0075	0.2448	894.8554	0.131971	-342.801877	-342.794225	-342.793281	-342.833925	28.54	
N	-0.1769837047	 1.3838147367	-0.1326205656	-0.532746
C	 0.0360177594	-0.0658547671	 0.0683969738	 0.102682
C	-1.3326990735	-0.8251927241	 0.0958503861	-0.246358
C	-1.4453202577	-1.5608338455	-1.2625312059	-0.267808
C	-0.0409936369	-1.5137149828	-1.8086885183	-0.071138
C	 0.7690025932	-0.748751504	-1.0813517161	-0.103916
C	 0.7674965242	-0.2255893506	 1.3367489785	 0.277887
N	 1.3640090227	-0.3680312776	 2.3162159148	-0.342945
H	 0.7199646249	 1.8637287899	-0.1439328305	 0.238317
H	-0.5792582363	 1.5158933221	-1.0578996307	 0.23181
H	-1.332949801	-1.5473148911	 0.9142015328	 0.133975
H	-2.1392202251	-0.1141346102	 0.2819851698	 0.127082
H	-1.8082802072	-2.5871066206	-1.1404315349	 0.120247
H	-2.1488409066	-1.0708108626	-1.9486914277	 0.115079
H	 0.247973203	-2.0330367682	-2.7160359844	 0.108137
H	 1.8150302415	-0.5447711342	-1.2789796917	 0.109697
65.7127	165.1917	185.8724	246.4903	278.1247	382.3343	474.2914	511.4003	560.9338	607.7065	732.7421	764.6509	792.8327	832.3389	892.5269	925.6516	959.057	977.7892	1012.8554	1029.7935	1087.0409	1117.4848	1145.1889	1202.5314	1242.5335	1293.6732	1318.2602	1337.8451	1381.2322	1480.3859	1497.8401	1653.0136	1682.6245	2357.51	3022.398	3062.2992	3085.5575	3134.1426	3186.2159	3212.533	3473.7892	3556.2935
NC1(CCC=C1)C#N	N[C@]1(CCC=C1)C#N	
InChI=1S/C6H8N2/c7-5-6(8)3-1-2-4-6/h1,3H,2,4,8H2	InChI=1S/C6H8N2/c7-5-6(8)3-1-2-4-6/h1,3H,2,4,8H2/t6-/m1/s1
