18
gdb 50854	2.88835	0.93808	0.75929	2.6422	77.96	-0.2518	-0.0142	0.2375	1498.0915	0.148047	-435.270203	-435.261163	-435.260218	-435.305064	32.275	
N	-0.102663498	 1.5106509367	 0.9225414827	-0.461842
C	-0.5050446933	 0.6643056601	 0.0643706757	 0.09862
N	-1.7879947641	 0.150665792	 0.136086591	-0.295364
C	-2.2984068967	-0.7648432953	-0.7549366681	 0.404049
O	-1.67810764	-1.2177730605	-1.6942714575	-0.360015
C	-3.7281502465	-1.2085417739	-0.4383420999	-0.268288
N	-4.4231841971	-0.2807943707	 0.4420826135	-0.083584
C	-5.3016464906	 0.699367646	-0.1983822123	-0.223609
C	-5.8677717321	-0.4485031275	 0.5610897295	-0.217153
H	 0.8588939727	 1.7807767255	 0.7227483768	 0.230726
H	 0.0542946957	 0.2556645537	-0.7800103457	 0.135483
H	-2.3977424119	 0.4645470987	 0.8820532569	 0.274144
H	-4.2348681018	-1.3788817277	-1.4003670259	 0.121347
H	-3.6568039251	-2.1813935475	 0.0643758571	 0.142339
H	-5.2916341109	 1.6947323557	 0.2345885733	 0.129889
H	-5.3827900993	 0.6712546959	-1.2832179519	 0.124728
H	-6.3327868207	-1.2461388065	-0.014746312	 0.120208
H	-6.2774081804	-0.3039666649	 1.5561990869	 0.12832
62.7343	79.8228	115.599	141.0196	200.8183	241.2557	338.675	376.7334	437.1281	526.4357	590.7412	669.3776	755.3496	781.5729	835.8791	844.6383	906.6624	977.396	1001.4645	1038.3949	1056.0025	1092.7763	1103.7045	1118.3614	1125.9941	1173.4409	1173.7415	1221.7816	1263.2933	1303.8045	1323.6826	1357.7055	1395.5359	1465.8645	1492.1533	1503.6468	1520.7333	1726.7446	1803.266	2994.7506	3054.6156	3103.5713	3107.8594	3116.8918	3189.0622	3203.2735	3502.5608	3568.7887
N=CNC(=O)CN1CC1	N=CNC(=O)CN1CC1	
InChI=1S/C5H9N3O/c6-4-7-5(9)3-8-1-2-8/h4H,1-3H2,(H2,6,7,9)	InChI=1S/C5H9N3O/c6-4-7-5(9)3-8-1-2-8/h4H,1-3H2,(H2,6,7,9)
