18
gdb 60694	4.59132	0.84586	0.73911	2.903	77.4	-0.2426	-0.0578	0.1849	1489.7466	0.147853	-435.246723	-435.237666	-435.236722	-435.281159	33.047	
N	-0.2342502363	 0.5872788805	-1.2552899051	-0.567243
C	-0.2580991594	-0.1947972239	-0.139732875	 0.260813
C	 1.1128797832	-0.6511835587	 0.2875142912	 0.151993
O	 2.1166834138	-0.4059037	-0.3364695774	-0.270032
N	-1.2028207371	-0.594142952	 0.631570061	-0.29512
C	-2.6008987569	-0.2512892964	 0.4284507464	-0.175196
C	-3.1234990908	-0.2277515557	-0.995418164	-0.004005
C	-4.3959980972	 0.4449343005	-1.337480137	-0.250504
N	-3.1146394021	 1.023215395	-1.790688729	-0.325672
H	 0.6643620557	 0.6274611545	-1.7153223465	 0.266396
H	-1.0595539506	 0.7502362993	-1.8132406594	 0.287765
H	 1.099676243	-1.2384231504	 1.2240916012	 0.107057
H	-3.189111434	-0.9780163391	 1.0027957301	 0.118808
H	-2.8025048241	 0.7292451911	 0.8932129174	 0.102784
H	-2.8483345515	-1.0992066969	-1.5866615663	 0.109627
H	-5.0292909808	 0.0481060734	-2.1250716401	 0.127809
H	-4.9297980909	 0.9623320083	-0.544171062	 0.119625
H	-2.8796678639	 1.8020402206	-1.1765893752	 0.235095
54.102	96.4369	134.981	159.9226	224.5581	313.9537	320.6461	359.0619	415.3235	521.0723	562.678	597.2425	652.1648	688.1786	790.7074	832.1278	902.4854	935.1792	947.1245	1005.5064	1014.9528	1032.9255	1064.112	1128.1408	1155.9142	1176.7422	1203.462	1260.8864	1284.0232	1312.3048	1349.4461	1363.8506	1384.2633	1418.7396	1472.2157	1510.6894	1623.9133	1731.681	1810.1332	2963.9518	2979.2891	3036.3843	3111.7772	3130.0287	3199.0245	3470.1986	3538.6216	3658.6997
NC(C=O)=NCC1CN1	NC(=NC[C@H]1CN1)C=O	
InChI=1S/C5H9N3O/c6-5(3-9)8-2-4-1-7-4/h3-4,7H,1-2H2,(H2,6,8)	InChI=1S/C5H9N3O/c6-5(3-9)8-2-4-1-7-4/h3-4,7H,1-2H2,(H2,6,8)/t4-/m1/s1
