18
gdb 124575	4.12647	0.90481	0.867	2.9548	73.45	-0.3112	-0.068	0.2432	1392.4382	0.146046	-435.227862	-435.218913	-435.217969	-435.262798	31.961	
C	-0.087492699	 1.5342531873	 0.1604995887	-0.387444
C	-0.0190868939	 0.0105261807	 0.0009739812	 0.033259
C	-1.4199687527	-0.6125817519	 0.0065556734	-0.395422
C	 0.7308651747	-0.395371832	-1.2912406795	-0.293854
C	 2.1678853335	-0.0058329469	-1.2890721043	 0.410457
N	 2.7206006562	 0.8861844256	-2.0616840451	-0.15071
O	 4.0256480373	 0.9009657827	-1.698133132	-0.139085
N	 4.2164178512	-0.0232445156	-0.6752630372	 0.045848
N	 3.1089316277	-0.5625115408	-0.4323063958	-0.203296
H	 0.906663517	 1.9910309106	 0.1665853395	 0.124385
H	-0.6564071182	 1.9874211648	-0.6599036746	 0.118523
H	-0.5837307231	 1.8025762589	 1.0981287167	 0.119844
H	 0.5447364981	-0.4025293128	 0.8472575618	 0.100972
H	-2.0170676749	-0.2439106828	-0.8359258311	 0.117479
H	-1.3749635134	-1.7041347117	-0.0661297089	 0.116194
H	-1.9542531866	-0.3587769877	 0.9271677718	 0.119502
H	 0.6757873522	-1.4831460021	-1.412630403	 0.131331
H	 0.252166264	 0.0586815838	-2.1645208216	 0.132017
34.216	68.4604	110.9306	219.7185	244.4562	294.4559	317.9925	349.1311	412.9047	432.0069	672.2601	696.1974	712.8095	787.9399	834.1301	889.474	932.2377	950.7844	960.5885	968.7877	1062.144	1074.0121	1128.8938	1138.9804	1191.1504	1239.4128	1307.7079	1322.4318	1370.4174	1373.1029	1402.72	1424.5181	1466.8158	1485.7759	1487.6242	1493.5793	1505.0742	1507.7628	1596.094	3024.9609	3027.0462	3032.9022	3045.9026	3092.8564	3095.714	3102.4928	3106.4294	3110.7647
CC(C)CC1=NON=N1	CC(C)Cc1nonn1	
InChI=1S/C5H9N3O/c1-4(2)3-5-6-8-9-7-5/h4H,3H2,1-2H3	InChI=1S/C5H9N3O/c1-4(2)3-5-6-8-9-7-5/h4H,3H2,1-2H3
