21
gdb 78544	2.4214	1.56159	1.25879	2.2265	83.98	-0.1941	0.0721	0.2662	1134.5025	0.180428	-383.169343	-383.160047	-383.159102	-383.202628	35.89	
C	-0.2648718631	 1.5453382304	-0.025215364	-0.290698
N	 0.1425034208	 0.1445706927	 0.0865995132	-0.112867
C	 1.3643141993	-0.5019405185	-0.297063604	-0.166317
C	 2.6987492307	 0.175623439	 0.2051011246	 0.334684
C	 4.0529131204	-0.1217092376	-0.3540781443	-0.510295
N	 2.3415489682	 1.4635674775	 0.8431299266	-0.380394
C	 2.182379332	 0.182399291	 1.5875883681	-0.188175
C	 0.8544741908	-0.535319866	 1.1246725893	 0.328734
C	 0.2181565184	-1.6236818681	 1.9378446167	-0.486973
H	 0.3216102323	 2.0680954011	-0.7832188779	 0.12314
H	-1.3230741491	 1.5744928073	-0.3157651657	 0.097104
H	-0.1406901676	 2.0837244773	 0.91625874	 0.124902
H	 1.3527654365	-1.2710368088	-1.0653887932	 0.08505
H	 4.1951385923	 0.3568140677	-1.3309211915	 0.127412
H	 4.8444010413	 0.2350467696	 0.3145751288	 0.115732
H	 4.1929449878	-1.1998566386	-0.4909817159	 0.127286
H	 3.2131746224	 1.8827067243	 1.1706710147	 0.221917
H	 2.7004479608	 0.0046013037	 2.5221514171	 0.086504
H	-0.3018843066	-1.2101218595	 2.8110497454	 0.119116
H	-0.5126016517	-2.1669441356	 1.3334383801	 0.130198
H	 0.9680201641	-2.3333087888	 2.305937362	 0.113939
118.0482	156.2858	192.0415	206.4949	212.6316	258.6846	278.7043	310.6866	349.1886	425.2763	527.3316	565.1869	594.8746	690.2138	737.1285	784.5179	844.409	860.966	884.2416	925.9479	942.9426	968.7372	1000.9735	1047.7766	1085.0554	1107.3386	1116.0553	1127.0138	1144.6392	1187.8435	1201.4704	1230.8646	1270.7712	1324.0172	1398.0551	1409.1582	1434.5845	1439.6843	1464.8845	1481.8702	1482.4675	1487.6218	1496.6616	1500.4545	1502.9959	3012.2751	3017.8634	3021.6257	3077.8216	3078.4507	3091.0047	3094.5384	3119.5357	3133.9011	3136.2769	3187.7833	3450.8457
CN1C2C3(C)NC3C12C	CN1[C@H]2[C@@]3(C)N[C@H]3[C@@]12C	
InChI=1S/C7H12N2/c1-6-4(8-6)7(2)5(6)9(7)3/h4-5,8H,1-3H3	InChI=1S/C7H12N2/c1-6-4(8-6)7(2)5(6)9(7)3/h4-5,8H,1-3H3/t4-,5+,6+,7-,9?/m1/s1
