19
gdb 107951	2.92087	1.6386	1.38169	1.1423	79.76	-0.216	0.0097	0.2257	1011.202	0.159879	-385.827121	-385.819584	-385.81864	-385.859168	30.06	
C	-0.0555091293	 1.3817510631	 0.0249488556	-0.263254
O	-0.0031913095	-0.0325085936	 0.0686458473	-0.289818
C	 0.6670335477	-0.5409864367	 1.1507994099	 0.45331
C	 0.3685283127	-0.3301991987	 2.6604608609	-0.320784
C	 1.538537089	-1.3352650097	 2.5983213645	-0.05366
C	 0.8714824021	-2.077709295	 1.3798061439	-0.118895
C	 1.9996478854	-2.5259327436	 0.4690280805	-0.106946
C	 2.8772428935	-1.5197798574	 0.5193144265	-0.10694
C	 2.2355779265	-0.5149682771	 1.4538676938	-0.135706
H	 0.9497584003	 1.8205924767	-0.0425716709	 0.11304
H	-0.6215934178	 1.6523482368	-0.8686330143	 0.130252
H	-0.5606533254	 1.7955381064	 0.9085300737	 0.114938
H	 0.5929194063	 0.6526289608	 3.0840541329	 0.089377
H	-0.5888602933	-0.7115195236	 3.026524513	 0.092973
H	 2.0487327539	-1.8145310196	 3.4334300634	 0.078941
H	-0.0001093976	-2.7115486628	 1.5467880223	 0.064106
H	 2.0428626692	-3.4520718357	-0.0861482662	 0.100419
H	 3.8235821492	-1.4064659729	 0.0094615441	 0.099239
H	 2.733964917	 0.4242160225	 1.6969879491	 0.059409
72.352	167.8435	198.287	276.0453	348.4907	435.9687	476.5536	553.282	615.8928	704.7561	728.7459	774.052	808.3867	831.1287	901.155	908.0643	909.8969	951.7537	963.9344	990.4681	1014.5532	1033.3593	1066.4763	1076.6366	1122.8332	1127.9818	1137.8371	1181.2738	1189.1998	1197.1995	1211.4247	1226.5431	1255.8112	1285.756	1328.9308	1335.3028	1484.587	1488.6752	1504.9635	1516.4209	1630.4316	2994.9719	3046.9967	3051.2764	3108.7813	3110.9678	3113.9167	3124.8543	3126.4444	3220.3046	3247.1205
COC12CC3C1C=CC23	CO[C@@]12C[C@H]3[C@@H]1C=C[C@@H]23	
InChI=1S/C8H10O/c1-9-8-4-5-6(8)2-3-7(5)8/h2-3,5-7H,4H2,1H3	InChI=1S/C8H10O/c1-9-8-4-5-6(8)2-3-7(5)8/h2-3,5-7H,4H2,1H3/t5-,6-,7+,8-
