17
gdb 106090	3.01279	1.32326	1.1775	4.0193	72.41	-0.2273	-0.0029	0.2244	1109.4962	0.134952	-421.775787	-421.767859	-421.766915	-421.808726	29.909	
C	 0.1407490515	 1.5315929163	 0.2199927548	-0.375301
C	-0.0083359931	 0.0344883961	-0.0839077273	-0.330147
C	-1.4295104894	-0.429796234	-0.0461007237	 0.298282
C	-2.4438423203	-0.7825316062	 0.9715724047	 0.040944
O	-3.5168676809	-0.0441806902	 0.3833015286	-0.286933
C	-2.7465691986	-0.0658214183	-0.8490115525	-0.128001
C	-2.7488403261	-1.5602929621	-1.2602513085	 0.471019
O	-2.9882888299	-2.1441764698	-2.2783863126	-0.336694
C	-2.0233714101	-1.8938267749	 0.0031588281	-0.31143
H	 1.1922309973	 1.8303356604	 0.1813610791	 0.121041
H	-0.4080676116	 2.1379267725	-0.5073433351	 0.126313
H	-0.2460531206	 1.7721712933	 1.2147789627	 0.127398
H	 0.418947285	-0.1915460828	-1.0688919099	 0.121045
H	 0.5690371054	-0.5544393755	 0.639164708	 0.11459
H	-2.399921438	-0.8906796384	 2.0481527519	 0.124194
H	-2.9420151829	 0.7577488696	-1.5304120699	 0.106248
H	-1.5247936175	-2.8048208559	 0.3036168015	 0.117432
68.1816	108.193	164.5148	213.3949	315.6296	384.3818	428.6507	517.7318	593.6548	628.1348	727.1913	754.5218	770.037	815.8323	850.9941	886.9366	933.1923	955.6884	979.4101	997.6997	1019.6605	1078.8422	1084.5184	1109.6281	1130.1323	1169.501	1189.9376	1226.568	1295.7358	1304.1272	1356.2418	1411.9678	1452.3526	1477.9676	1497.2753	1505.7919	1883.91	3026.2116	3041.1931	3058.7923	3112.5229	3116.2789	3168.5537	3199.1944	3226.1847
CCC12C3OC1C(=O)C23	CC[C@@]12[C@H]3O[C@@H]1C(=O)[C@@H]23	
InChI=1S/C7H8O2/c1-2-7-3-4(8)6(7)9-5(3)7/h3,5-6H,2H2,1H3	InChI=1S/C7H8O2/c1-2-7-3-4(8)6(7)9-5(3)7/h3,5-6H,2H2,1H3/t3-,5+,6-,7-/m1/s1
