19
gdb 10885	2.68708	1.95883	1.67367	1.5344	72.23	-0.237	0.0737	0.3106	913.8118	0.164745	-364.989659	-364.981314	-364.98037	-365.021902	31.775	
C	-0.1127841843	 1.5974120702	 0.2291878032	-0.445338
C	 0.0435893883	 0.08881109	 0.1855427792	 0.060114
N	 1.1820794501	-0.5253941332	-0.6747430828	-0.169876
C	 2.11565044	-0.1538595574	 0.486419484	-0.246227
C	 0.8657789108	-0.7198446476	 1.206546412	 0.316715
O	 0.5630305487	-0.8040321302	 2.5573743339	-0.465635
C	 0.9337441338	-1.8330409748	 0.1160917149	 0.026766
C	-0.2208971625	-2.7367595763	-0.2724388062	-0.444392
H	-0.363422656	 1.9719228365	-0.7688514382	 0.128769
H	-0.9413185545	 1.8520407124	 0.898276492	 0.127238
H	 0.7695896767	 2.1352499178	 0.5800612254	 0.121045
H	-0.9196259297	-0.3465021673	-0.0840784471	 0.070617
H	 3.0324491648	-0.7500032562	 0.5068593189	 0.093291
H	 2.3406053617	 0.9085782485	 0.5588483061	 0.103658
H	 1.24069852	-1.331626525	 2.9945171575	 0.280072
H	 1.856698492	-2.4240270209	 0.1399614174	 0.064298
H	-0.081983373	-3.0989651336	-1.2964349952	 0.131586
H	-0.2321177606	-3.609098514	 0.3896096484	 0.120509
H	-1.2044199164	-2.2674441789	-0.2110588035	 0.126789
132.1146	140.7286	194.3328	200.8087	243.8493	272.3891	383.0269	418.91	438.6408	580.893	615.73	627.8823	743.8609	769.6543	816.1197	862.5061	887.734	988.3402	1003.9826	1059.6308	1062.4969	1098.7574	1100.699	1135.1821	1163.1046	1174.1423	1192.7547	1206.1561	1250.3073	1285.5638	1351.3369	1402.5649	1408.8593	1431.6891	1441.8972	1492.6747	1494.2078	1496.6812	1502.3881	1545.0965	3032.2838	3042.5154	3042.9551	3065.2242	3092.6182	3101.2354	3102.849	3126.3869	3132.9455	3155.3353	3802.6287
CC1N2CC1(O)C2C	C[C@H]1N2C[C@]1(O)[C@H]2C	
InChI=1S/C6H11NO/c1-4-6(8)3-7(4)5(6)2/h4-5,8H,3H2,1-2H3	InChI=1S/C6H11NO/c1-4-6(8)3-7(4)5(6)2/h4-5,8H,3H2,1-2H3/t4-,5-/m1/s1
