19
gdb 121339	2.9026	0.98554	0.80633	2.5632	72.	-0.2433	-0.0256	0.2177	1428.5354	0.158345	-460.178147	-460.168861	-460.167917	-460.213211	33.194	
O	 0.0176210565	 1.3427326433	 0.2729550325	-0.421914
C	 0.0539485244	-0.0460690476	-0.0160657851	-0.083655
C	-1.370080813	-0.5759932263	 0.0874783877	-0.181521
C	-1.4475879219	-2.0843448867	-0.1753729474	-0.008975
O	-0.7290088841	-2.8586840825	 0.7790148061	-0.265575
C	-1.6409476661	-3.3255179995	 1.779605854	-0.094465
C	-2.9510763079	-3.600799556	 1.0395847352	-0.33629
C	-2.8965019569	-2.5879956321	-0.1046432019	 0.379551
O	-3.8003006073	-2.2284567807	-0.8104796043	-0.308224
H	 0.9202443783	 1.6740240912	 0.2671187669	 0.286509
H	 0.4437117084	-0.234927483	-1.0305401965	 0.084381
H	 0.6966791325	-0.5913013666	 0.6900091946	 0.103487
H	-1.7623249933	-0.3449604704	 1.0850221784	 0.106724
H	-2.0135650754	-0.0658567207	-0.637290308	 0.129417
H	-1.0321344887	-2.3084795065	-1.1664548166	 0.107619
H	-1.1935580986	-4.2088480256	 2.2398619428	 0.119351
H	-1.7844464754	-2.5652232915	 2.5619225102	 0.104617
H	-2.9579084962	-4.6064158949	 0.6026967336	 0.142157
H	-3.8591819552	-3.4811002539	 1.6329456979	 0.136805
55.9481	95.9634	107.2079	132.2034	189.5998	255.7964	268.4121	350.8787	429.3957	526.4904	540.607	640.552	655.5231	791.1785	833.9157	836.9622	904.2264	949.3801	994.6299	1012.9757	1055.871	1083.	1097.0816	1131.117	1158.8033	1203.8496	1222.2049	1226.4546	1239.3847	1275.4339	1290.0041	1310.8282	1334.6082	1364.274	1392.0899	1448.8947	1460.2777	1482.6679	1523.2557	1530.3256	1856.4909	2961.2283	2993.9468	3014.6538	3027.2773	3042.9839	3050.7705	3093.2231	3105.0896	3126.2993	3831.1986
OCCC1OCCC1=O	OCC[C@H]1OCCC1=O	
InChI=1S/C6H10O3/c7-3-1-6-5(8)2-4-9-6/h6-7H,1-4H2	InChI=1S/C6H10O3/c7-3-1-6-5(8)2-4-9-6/h6-7H,1-4H2/t6-/m1/s1
