16
gdb 122775	3.47309	0.73347	0.63547	5.1235	68.94	-0.275	-0.0673	0.2077	1709.033	0.121707	-475.036956	-475.027136	-475.026191	-475.073772	32.401	
C	 0.1020050882	 1.3061883819	 0.052119619	-0.230376
O	 0.0182623478	-0.0966604427	-0.0614911159	-0.228005
C	-1.275603243	-0.5900540177	 0.1703610529	-0.067819
C	-1.2405274709	-2.098050756	 0.0860231286	-0.088122
O	-0.5224424206	-2.5878713462	 1.2446168334	-0.221075
C	-0.3177204599	-3.9008454111	 1.2804063121	 0.368468
O	-0.6693805255	-4.7117560161	 0.4674621213	-0.331819
C	 0.4237746379	-4.2604788847	 2.4969031495	 0.256912
N	 1.0009603904	-4.6015487733	 3.4370148946	-0.305167
H	 1.1397726716	 1.5851622067	-0.1417376348	 0.136796
H	-0.5466917235	 1.8137170979	-0.67896203	 0.108029
H	-0.1780659419	 1.6497442081	 1.0596915623	 0.112468
H	-1.6513915304	-0.2795579251	 1.1591503429	 0.106481
H	-1.9882199888	-0.2180705406	-0.5861515075	 0.098942
H	-2.2499609796	-2.5192195428	 0.0915566806	 0.134731
H	-0.7238948418	-2.4294121482	-0.8179753891	 0.149556
29.7602	56.467	87.095	134.7581	161.7219	226.833	251.7712	277.9167	326.8774	343.7672	517.3432	539.6682	613.6613	775.5545	851.5525	878.771	943.1477	1048.402	1056.4087	1126.4766	1171.5768	1186.8932	1228.0734	1261.2696	1272.4002	1299.654	1394.7253	1435.3927	1480.3319	1486.5528	1488.6955	1497.5658	1521.1713	1817.9049	2362.0905	2957.7568	2977.1738	2993.8703	3023.4636	3068.8252	3124.6978	3125.3611
COCCOC(=O)C#N	COCCOC(=O)C#N	
InChI=1S/C5H7NO3/c1-8-2-3-9-5(7)4-6/h2-3H2,1H3	InChI=1S/C5H7NO3/c1-8-2-3-9-5(7)4-6/h2-3H2,1H3
