15
gdb 26797	3.7752	1.12494	0.87214	2.843	83.63	-0.1866	-0.0057	0.1809	1260.3061	0.113711	-412.988692	-412.979927	-412.978983	-413.021825	32.72	
N	 0.1379122186	 1.4151783729	 0.0749334469	-0.616328
C	 0.0226166683	 0.0280245022	 0.0059078547	 0.307967
C	-1.0934872521	-0.78479854	 0.0048285361	 0.152358
N	-2.4237714731	-0.2952623594	-0.0035049584	-0.621686
N	-0.7264857232	-2.1041240959	 0.0104775125	-0.335807
C	 0.595068396	-2.1148748154	 0.0107761358	 0.168309
N	 1.0931325426	-0.8230179197	 0.0195448728	-0.351337
C	 1.4474838238	-3.2372806623	-0.0082397175	 0.254455
C	 2.2054506615	-4.1741561827	-0.0196074519	-0.409155
H	 0.7047577436	 1.8089593371	-0.6694365669	 0.246006
H	-0.7936066292	 1.8155551525	 0.0248533577	 0.261566
H	-2.8819281033	-0.4786147691	 0.885875425	 0.241663
H	-2.9706931473	-0.7854723167	-0.7058442265	 0.242762
H	 2.0645564657	-0.5664617518	 0.0781518631	 0.268292
H	 2.8583079881	-5.0112159918	-0.0309766533	 0.190934
112.0587	135.9135	141.8267	249.2937	261.4888	296.6776	320.8526	419.7229	465.0081	504.1886	527.1583	546.1622	601.6814	663.767	685.6247	696.6718	722.4677	813.0322	855.6024	891.4121	1021.7203	1111.1489	1199.9909	1215.6446	1245.8493	1322.4822	1401.5072	1496.8875	1527.6749	1625.2089	1652.4348	1684.5245	2226.1147	3479.7718	3496.1401	3503.3558	3543.6032	3585.7224	3663.0961
NC1=C(N)N=C(N1)C#C	Nc1c(N)nc([nH]1)C#C	
InChI=1S/C5H6N4/c1-2-3-8-4(6)5(7)9-3/h1H,6-7H2,(H,8,9)	InChI=1S/C5H6N4/c1-2-3-8-4(6)5(7)9-3/h1H,6-7H2,(H,8,9)
