14
gdb 129208	2.80098	1.53229	0.99046	3.402	75.96	-0.2288	-0.0969	0.1319	1095.6562	0.102898	-432.886922	-432.879549	-432.878605	-432.919125	27.316	
N	 0.2197872332	 1.3797990787	-0.4391527223	-0.550227
C	 0.129635363	 0.1215419305	-0.2151993731	 0.316316
N	 1.2181893878	-0.7718690313	-0.1881959493	-0.291353
N	 1.2097833336	-2.088482136	 0.0362871739	-0.168586
C	 0.0506169218	-2.6402146243	 0.2627164651	-0.000676
C	-1.1623103484	-1.8905393701	 0.2743742225	-0.176695
C	-1.1418093633	-0.5512351816	 0.0446514127	 0.158101
C	-2.405704034	 0.2352302083	 0.0558845788	 0.096833
O	-3.4866041195	-0.2680442825	 0.2657669553	-0.268307
H	 1.1816015726	 1.6798387564	-0.6002570591	 0.205385
H	 2.1410385842	-0.3959656058	-0.3577080824	 0.268978
H	 0.0642591449	-3.7083692867	 0.4424904794	 0.136531
H	-2.1153228081	-2.373396491	 0.4655041987	 0.145942
H	-2.2832207579	 1.3139780656	-0.14067923	 0.127759
101.0969	127.4426	214.3185	232.6755	363.6127	410.2484	503.8843	539.7883	578.1495	631.6517	670.3751	765.1599	787.5178	827.0913	878.3999	893.2469	985.5523	1044.9583	1061.7272	1074.5229	1168.036	1182.8891	1283.5956	1361.7647	1403.2135	1422.8312	1465.7822	1569.4951	1641.7121	1715.6706	1788.496	3000.882	3193.8097	3210.924	3471.0721	3595.4809
N=C1NN=CC=C1C=O	[NH]C1=C(CC=NN1)C=O	
InChI=1S/C5H5N3O/c6-5-4(3-9)1-2-7-8-5/h1-3H,(H2,6,8)	InChI=1S/C5H6N3O/c6-5-4(3-9)1-2-7-8-5/h2-3,6,8H,1H2
