21
gdb 108867	2.41355	1.21348	0.84916	1.6555	81.97	-0.2325	0.027	0.2595	1388.3498	0.182294	-424.228016	-424.218538	-424.217594	-424.262437	35.092	
C	-0.1017711468	 1.5584858775	-0.0514686196	-0.398143
C	-0.0145624033	 0.0261107491	-0.0234721282	-0.037926
C	 0.7610084164	-0.506978023	-1.2333032752	-0.085917
O	 1.0261801701	-1.8937705394	-1.1133727853	-0.248088
C	 1.8945072607	-2.1818421945	-0.0385416943	-0.154525
C	 1.5267896747	-1.468481885	 1.2414097155	 0.219292
C	 2.2257240892	-1.9607181093	 2.4778528885	-0.152973
O	 1.9307240735	-1.1239295636	 3.5797075312	-0.412057
C	 0.6387137949	-0.4761572266	 1.240206715	-0.129367
H	 0.8953199895	 2.0097279799	-0.0007914598	 0.11825
H	-0.5879474597	 1.91121082	-0.9676576534	 0.111235
H	-0.6797025685	 1.9322848063	 0.7995729509	 0.117564
H	-1.039244627	-0.3724104287	-0.0733861247	 0.086605
H	 0.1896348984	-0.3839118415	-2.1583277578	 0.102912
H	 1.7050862767	 0.0555558723	-1.3398462802	 0.08213
H	 1.8522370864	-3.2698410538	 0.1017845763	 0.109516
H	 2.940076203	-1.9395336401	-0.3105046135	 0.092215
H	 1.9153371139	-3.0027700815	 2.6742103462	 0.096003
H	 3.3137113757	-1.9983477862	 2.2851608493	 0.091979
H	 2.3102460624	-1.5233103133	 4.3670592073	 0.290011
H	 0.3800268599	 0.0085646016	 2.176769122	 0.101285
71.2021	118.4848	139.5915	194.2411	221.7234	236.7126	293.6182	316.8125	385.5643	408.3674	460.083	516.6659	543.1429	649.7004	853.5191	866.3798	896.2031	950.3954	967.0963	983.7778	1012.7715	1041.0964	1069.5118	1095.29	1122.1643	1148.18	1166.3431	1190.7225	1230.8027	1248.0472	1264.8135	1313.381	1315.6125	1339.3008	1358.4112	1394.9773	1408.8246	1424.6108	1462.8561	1486.3386	1494.2168	1498.6158	1500.1677	1511.3147	1746.7591	2916.2576	2933.86	2946.3937	2953.7297	2988.9009	3028.0074	3034.2285	3079.3837	3096.2842	3102.1664	3178.1548	3842.0133
CC1COCC(CO)=C1	C[C@H]1COCC(=C1)CO	
InChI=1S/C7H12O2/c1-6-2-7(3-8)5-9-4-6/h2,6,8H,3-5H2,1H3	InChI=1S/C7H12O2/c1-6-2-7(3-8)5-9-4-6/h2,6,8H,3-5H2,1H3/t6-/m1/s1
