13
gdb 43320	2.79595	1.70274	1.20789	3.348	70.51	-0.2503	-0.0805	0.1698	978.4973	0.087727	-419.383739	-419.376358	-419.375414	-419.415567	28.026	
O	 0.0032550815	-0.0045407012	-0.0580931115	-0.291648
C	-0.0362268311	 1.1957836115	-0.0112625433	 0.328502
C	-1.238402385	 2.0692819042	 0.1309051179	-0.189851
C	-0.8955059327	 3.3607670562	 0.0564665869	-0.069736
C	 0.5937385257	 3.5124730432	-0.0627933874	-0.077186
O	 1.29878274	 2.9693894195	 1.064787563	-0.280153
C	 1.1713921341	 2.1564474583	-0.1290231097	 0.127875
C	 2.3557568441	 1.7715385934	-0.8253713256	 0.222144
C	 3.3333556317	 1.4095559663	-1.4224191061	-0.368408
H	-2.2277930842	 1.6579790673	 0.2813182431	 0.136272
H	-1.5683198086	 4.2075442324	 0.1157028157	 0.13524
H	 1.0545826897	 4.3695034147	-0.5421801669	 0.125977
H	 4.2015090947	 1.0899247842	-1.9444801159	 0.200972
115.4966	134.323	201.0495	313.572	376.0619	411.8762	488.4454	556.4573	598.7043	627.1889	649.9897	676.8387	708.8821	762.5301	825.2513	863.545	913.8409	956.7183	982.4929	1036.1568	1078.1862	1125.9287	1223.7333	1266.7671	1352.8784	1410.6831	1638.1633	1838.5503	2246.8407	3181.6125	3208.7059	3235.5245	3500.7959
O=C1C=CC2OC12C#C	O=C1C=C[C@H]2O[C@@]12C#C	
InChI=1S/C7H4O2/c1-2-7-5(8)3-4-6(7)9-7/h1,3-4,6H	InChI=1S/C7H4O2/c1-2-7-5(8)3-4-6(7)9-7/h1,3-4,6H/t6-,7+/m1/s1
