20
gdb 22998	2.4059	1.28444	1.00252	2.1817	78.21	-0.2413	0.0018	0.2431	1256.1384	0.169521	-440.238262	-440.228665	-440.227721	-440.27326	35.614	
C	-0.072594437	 1.3743216156	 0.1313985807	-0.476683
C	 0.0022755733	-0.1283111833	 0.0532373052	 0.387574
N	 0.2267825761	-0.87064608	 1.0723654185	-0.191008
O	 0.3872629149	-0.1258100187	 2.2504712407	-0.400916
C	-0.1741224187	-0.7815675527	-1.2901638465	-0.157985
C	 1.1575664656	-0.8040762431	-2.1226829539	-0.231997
C	 1.3734540521	-2.277748024	-1.6907491487	-0.250894
C	-0.1426411898	-2.348872241	-1.3539299858	 0.16063
O	-0.6146350768	-3.1250691574	-0.2987023346	-0.434154
H	 0.7599637923	 1.772190108	 0.7170600489	 0.151885
H	-0.0643182653	 1.8189683383	-0.8654083246	 0.125345
H	-0.9921525544	 1.6806057943	 0.6429024338	 0.15036
H	 0.5594580917	-0.8093039892	 2.9066127599	 0.306834
H	-1.024386936	-0.303153648	-1.7884032229	 0.080114
H	 0.9563723831	-0.7044644595	-3.192123382	 0.106373
H	 1.9263868102	-0.0810842346	-1.8424328415	 0.104176
H	 1.766217888	-2.97979079	-2.4296297403	 0.095916
H	 1.9740561265	-2.3430670146	-0.7797364259	 0.108825
H	-0.6974725131	-2.6627886991	-2.2451781114	 0.084076
H	-0.2916115126	-2.6953838311	 0.5087889805	 0.281527
53.8421	64.5311	121.5969	174.7336	214.2517	297.052	317.4972	345.0917	398.0992	420.9104	512.5708	557.314	601.3195	625.6928	689.9175	755.2313	786.5983	897.8534	913.7943	956.1918	964.8085	1005.1417	1029.5442	1040.1746	1076.1262	1094.5873	1169.3386	1182.532	1218.6834	1232.8955	1251.2082	1256.1174	1276.1661	1356.294	1366.7355	1399.9061	1407.4392	1473.8157	1474.9757	1482.3232	1484.3641	1498.2484	1720.8353	3037.53	3044.3655	3049.8679	3063.3948	3068.4036	3107.1677	3111.4884	3126.7894	3140.1509	3672.6633	3822.7701
CC(=NO)C1CCC1O	CC(=NO)[C@H]1CC[C@H]1O	
InChI=1S/C6H11NO2/c1-4(7-9)5-2-3-6(5)8/h5-6,8-9H,2-3H2,1H3	InChI=1S/C6H11NO2/c1-4(7-9)5-2-3-6(5)8/h5-6,8-9H,2-3H2,1H3/t5-,6-/m1/s1
