22
gdb 81066	2.67834	1.46999	1.17584	1.0259	86.85	-0.2278	0.089	0.3167	1156.3712	0.195075	-367.133342	-367.12499	-367.124046	-367.166204	33.302	
C	-0.3388134118	 1.5229053823	-0.2337799652	-0.447282
C	-0.0319673315	 0.0436024809	-0.056685405	 0.023036
C	 1.2065153144	-0.6379698103	-0.7239613238	-0.059895
C	 2.124472774	 0.0427442107	 0.3291854404	-0.288919
C	 0.8602073069	-0.4894796046	 1.112058757	 0.385591
C	 1.0147804026	-1.7996605453	 0.2923211199	-0.26682
N	 0.5170784302	-0.425938904	 2.4960438006	-0.178414
C	 1.604224161	-0.5314258746	 3.4666841098	-0.235223
C	 0.9177914759	 0.7685397544	 3.2376978672	-0.232587
H	 0.538353111	 2.1672353893	-0.1336519827	 0.113027
H	-0.7696397009	 1.7062982333	-1.2245117605	 0.115722
H	-1.0765749358	 1.8502674901	 0.5068868655	 0.122225
H	-0.9530831257	-0.5393389113	-0.1738901163	 0.063626
H	 1.4075477805	-0.7313682371	-1.7901649262	 0.072285
H	 3.071645227	-0.464422374	 0.5329273868	 0.087994
H	 2.2706818767	 1.1208220038	 0.2511031936	 0.090853
H	 0.1152077512	-2.4108821508	 0.1819001044	 0.091349
H	 1.8965193433	-2.4092179307	 0.507863839	 0.084278
H	 1.3867012615	-1.1238297061	 4.3505937965	 0.116068
H	 2.6193533633	-0.6279254363	 3.0875886477	 0.113549
H	 1.476880214	 1.5350423825	 2.7056269391	 0.113663
H	 0.1899433922	 1.1434372278	 3.9513095323	 0.115873
73.668	155.8851	172.2625	208.2706	279.4537	330.4243	408.9158	457.5013	546.3911	565.2238	600.4725	765.4864	785.9716	809.5532	828.743	875.5379	893.831	924.6329	951.665	970.7497	997.4606	1003.5793	1039.1738	1049.2982	1092.8751	1108.732	1112.6626	1120.7927	1137.1297	1142.7252	1156.0422	1161.789	1179.9384	1191.8935	1214.4684	1223.2207	1244.5665	1257.4257	1362.689	1407.6334	1426.3973	1489.8039	1491.5277	1494.6074	1511.0792	1517.3352	1544.5358	3031.3564	3036.2341	3050.4323	3062.2763	3089.8258	3102.4759	3106.215	3111.7009	3117.8814	3124.7893	3130.2525	3183.1698	3197.5664
CC1C2CC1(C2)N1CC1	C[C@H]1[C@H]2C[C@@]1(C2)N1CC1	
InChI=1S/C8H13N/c1-6-7-4-8(6,5-7)9-2-3-9/h6-7H,2-5H2,1H3	InChI=1S/C8H13N/c1-6-7-4-8(6,5-7)9-2-3-9/h6-7H,2-5H2,1H3/t6-,7-,8-/m0/s1
