18
gdb 26483	3.60769	1.2727	1.0343	0.9557	79.2	-0.1995	0.0352	0.2347	1167.6376	0.148422	-401.971065	-401.962922	-401.961977	-402.003923	31.366	
C	-0.2735801099	 1.3855240676	-0.7530847843	-0.470939
C	-0.0773623056	 0.0520795291	-0.0698761713	 0.293436
C	 1.11413912	-0.7631252867	-0.3896979832	-0.217675
O	 1.0463249774	-0.0262911921	 0.8357536505	-0.292341
C	-1.2961121525	-0.6106986982	 0.4524617687	 0.294906
C	-2.6108875581	-0.6121626055	 0.0340670779	-0.260479
C	-3.3379498395	-1.4579820208	 0.917631687	-0.140741
C	-2.4489013534	-1.9393691321	 1.8511508516	-0.094186
N	-1.2136117399	-1.427627591	 1.5521407742	-0.294947
H	 0.6876245274	 1.797474245	-1.0692152603	 0.125113
H	-0.9115396951	 1.2733888052	-1.6354848234	 0.130005
H	-0.7558619632	 2.0959388456	-0.0756302461	 0.13584
H	 1.0628053867	-1.845916706	-0.2879907093	 0.113149
H	 1.8428537463	-0.3958968746	-1.1117986073	 0.114551
H	-3.0049377467	-0.0801960872	-0.8180834978	 0.088946
H	-4.392093106	-1.6843816854	 0.8716701771	 0.093037
H	-2.5913764613	-2.5900627616	 2.6988305176	 0.11527
H	-0.3717142367	-1.5092605313	 2.0977333483	 0.267054
64.1802	146.7532	186.0429	197.3933	320.4719	356.3069	420.2155	475.7195	556.9723	572.5601	641.0365	692.6697	722.9053	780.7303	796.4171	847.0671	861.4914	899.7924	921.2035	963.5233	1019.1685	1055.6529	1090.5325	1102.0351	1134.0822	1137.2566	1162.7715	1181.4646	1275.2048	1321.5737	1362.7885	1411.9582	1440.6272	1461.4043	1481.2261	1484.8695	1502.642	1522.4797	1609.246	3044.5271	3078.9826	3113.1959	3129.3359	3169.9518	3241.3407	3253.8145	3271.5286	3666.7155
CC1(CO1)C1=CC=CN1	C[C@]1(CO1)c1ccc[nH]1	
InChI=1S/C7H9NO/c1-7(5-9-7)6-3-2-4-8-6/h2-4,8H,5H2,1H3	InChI=1S/C7H9NO/c1-7(5-9-7)6-3-2-4-8-6/h2-4,8H,5H2,1H3/t7-/m0/s1
