16
gdb 29007	2.57159	1.57792	0.98385	1.4456	80.99	-0.2544	-0.0728	0.1816	1143.1828	0.125376	-400.827328	-400.81945	-400.818505	-400.859979	28.968	
C	-0.0316613064	 1.5165978778	-0.0499631014	-0.492481
C	-0.0080896856	 0.0076477771	 0.0123398011	 0.266525
N	-0.0271538021	-0.6194639953	-1.1710073255	-0.31681
C	-0.0080702494	-1.9540067063	-1.1869430735	 0.009847
C	 0.0306041061	-2.7471735886	-0.0421392683	-0.132336
C	 0.0503914191	-2.1050032177	 1.1841511647	-0.12525
C	 0.0312288172	-0.7077206876	 1.2267371233	 0.102849
C	 0.0531911433	-0.0404177703	 2.5497064429	 0.084697
O	 0.0849552811	-0.6351563734	 3.6039499993	-0.268097
H	 0.8560134841	 1.9579122544	 0.4153752313	 0.138886
H	-0.0630283978	 1.8190283244	-1.0970528847	 0.147358
H	-0.9063727243	 1.9324582063	 0.4610358136	 0.13884
H	-0.0246665601	-2.4145170907	-2.1724396304	 0.11801
H	 0.044489137	-3.8281916115	-0.119265191	 0.111127
H	 0.0804587536	-2.6479208766	 2.1226368388	 0.137881
H	 0.0385864442	 1.0679288079	 2.5308036899	 0.078954
113.2407	125.9745	152.1707	223.8156	265.3734	343.7508	459.2143	476.2379	506.7295	567.1922	637.7889	756.1874	804.9614	833.631	867.4289	988.6244	993.3016	1006.8545	1042.6553	1067.053	1086.5663	1119.0848	1195.7771	1249.2927	1301.1169	1302.4125	1403.0265	1430.9574	1468.0045	1470.3308	1489.4208	1496.7175	1605.3037	1623.6172	1787.8822	2929.6243	3040.7335	3095.5888	3148.8997	3153.3889	3194.914	3208.7884
CC1=NC=CC=C1C=O	Cc1ncccc1C=O	
InChI=1S/C7H7NO/c1-6-7(5-9)3-2-4-8-6/h2-5H,1H3	InChI=1S/C7H7NO/c1-6-7(5-9)3-2-4-8-6/h2-5H,1H3
