17
gdb 102791	2.34416	1.15971	0.97276	2.5499	65.98	-0.2575	0.0088	0.2663	1254.1589	0.13493	-492.335933	-492.326019	-492.325074	-492.37158	34.741	
N	 0.0520017586	 1.3092476342	-0.0299644099	-0.523179
C	 0.0862718982	-0.0425537337	-0.1284928783	 0.437308
O	 1.1234176024	-0.6727440489	-0.2367909956	-0.37389
C	-1.2817895439	-0.7446900423	-0.0618003389	-0.117482
C	-2.1875539307	-0.3651994711	-1.2510206371	-0.07801
O	-1.5628765236	-0.6110247459	-2.4922397279	-0.413048
N	-1.0116002747	-2.1706149569	-0.0568661593	-0.286771
C	-1.8951031384	-3.0655802101	 0.4588393808	 0.147053
O	-3.0289834033	-2.7978017813	 0.8015276474	-0.326566
H	 0.9135123337	 1.813643164	-0.1626512994	 0.27097
H	-0.8102133945	 1.8250264361	-0.0429928438	 0.267432
H	-1.7984334395	-0.4646784676	 0.8659870274	 0.120237
H	-3.131186212	-0.9145612734	-1.1389689694	 0.133764
H	-2.4208713032	 0.7048762556	-1.2277787936	 0.09981
H	-1.3451720759	-1.5499762528	-2.5159299755	 0.289118
H	-0.0282126186	-2.402620572	-0.1426973861	 0.267083
H	-1.4691637045	-4.0860138038	 0.517100279	 0.08617
52.3666	71.7416	94.9335	163.0102	190.7101	250.4368	272.4517	290.4152	340.2471	392.5319	439.3347	512.927	584.51	634.0975	674.511	720.702	813.2048	870.8609	897.3478	1026.975	1035.24	1067.5046	1093.9099	1125.3234	1195.9305	1225.3938	1259.043	1321.5482	1380.7205	1402.5522	1420.1246	1425.0821	1497.61	1507.5624	1622.4262	1784.5898	1800.1696	2948.2756	3021.8571	3032.775	3075.7401	3549.1376	3605.9653	3738.0862	3797.6435
NC(=O)C(CO)NC=O	NC(=O)[C@@H](CO)NC=O	
InChI=1S/C4H8N2O3/c5-4(9)3(1-7)6-2-8/h2-3,7H,1H2,(H2,5,9)(H,6,8)	InChI=1S/C4H8N2O3/c5-4(9)3(1-7)6-2-8/h2-3,7H,1H2,(H2,5,9)(H,6,8)/t3-/m1/s1
