20
gdb 60551	2.90259	1.26349	1.08486	2.7061	74.83	-0.2451	0.0734	0.3184	1192.9035	0.170097	-440.233046	-440.223959	-440.223014	-440.267134	34.469	
C	 0.0520192345	 1.5304165883	-0.0749173688	-0.492147
C	-0.0449636581	 0.0205451729	-0.0285323703	 0.322135
C	 1.1209280697	-0.7826255978	-0.4794909125	-0.278398
N	 0.768438483	-0.717262425	 0.9528190749	-0.356836
C	-1.4485058603	-0.5944754022	-0.1853118971	 0.027766
O	-1.4070894429	-1.9731151116	 0.0975294798	-0.438331
C	-2.4816629694	 0.1231043101	 0.6754617962	 0.066131
C	-3.5360151228	-0.6086174154	 1.3820888353	-0.176909
O	-2.3933835844	-0.1010575564	 2.0832711352	-0.246351
H	 1.0979037857	 1.8529036471	-0.0668544967	 0.115011
H	-0.4086805335	 1.9274805896	-0.9868883838	 0.125731
H	-0.4500656583	 1.9904408555	 0.782139467	 0.142157
H	 0.9651976075	-1.7565109488	-0.9321381533	 0.131655
H	 2.002848932	-0.2470088836	-0.8205241858	 0.110741
H	 1.3853500081	-0.0928873423	 1.4638366442	 0.234811
H	-1.7615145897	-0.4846058877	-1.2338523423	 0.088082
H	-0.8065184357	-2.0467024978	 0.8586227545	 0.299309
H	-2.6809906562	 1.1593706644	 0.3961639583	 0.087306
H	-4.47753757	-0.1090480576	 1.6061571156	 0.10776
H	-3.5717547994	-1.6899592417	 1.2864589096	 0.130374
50.4224	86.2375	186.289	235.6689	242.8136	304.859	333.7353	346.4207	389.4305	442.0511	522.7384	561.5886	672.7957	761.0361	786.6296	844.8136	886.8218	915.4541	941.2641	970.3182	972.5439	1001.0498	1012.1614	1053.4312	1100.5605	1120.3491	1129.9027	1153.6434	1164.5392	1173.5005	1252.8194	1267.3033	1291.6966	1334.236	1342.1534	1375.8332	1418.9654	1427.4872	1450.1479	1488.3853	1502.1705	1506.7788	1517.0582	3008.1735	3029.0743	3088.306	3094.0659	3097.416	3105.2339	3115.6382	3198.0557	3207.5359	3518.3561	3663.9046
CC1(CN1)C(O)C1CO1	C[C@]1(CN1)[C@@H](O)[C@H]1CO1	
InChI=1S/C6H11NO2/c1-6(3-7-6)5(8)4-2-9-4/h4-5,7-8H,2-3H2,1H3	InChI=1S/C6H11NO2/c1-6(3-7-6)5(8)4-2-9-4/h4-5,7-8H,2-3H2,1H3/t4-,5+,6+/m1/s1
