19
gdb 75134	2.54198	1.48587	1.18554	0.567	77.8	-0.2357	-0.0527	0.183	1121.652	0.159037	-419.259103	-419.249779	-419.248835	-419.293087	35.118	
C	-0.0475925318	 1.5414330315	 0.0306041621	-0.429901
C	 0.006636257	 0.0065575704	-0.0296081285	 0.165879
C	-1.4136396755	-0.5882202839	 0.0017864026	-0.428403
C	 0.8564689798	-0.5351287432	-1.2114817077	-0.216331
N	 1.9609463803	-1.3495065225	-0.6808438637	-0.286318
C	 1.9059317555	-1.3517638116	 0.6005950664	 0.283456
N	 2.7216106851	-2.0216774845	 1.4558690252	-0.56968
C	 0.7872836682	-0.527094889	 1.1707474827	 0.332608
O	 0.5865978187	-0.3304531339	 2.3458992855	-0.347591
H	 0.9553042981	 1.9783123173	-0.0157114447	 0.119779
H	-0.6278966699	 1.9383569971	-0.8085445192	 0.117333
H	-0.5164579811	 1.8685124523	 0.9635091201	 0.133878
H	-1.9998455184	-0.217951139	-0.8453419302	 0.118693
H	-1.3898415574	-1.6813228818	-0.0558635487	 0.123643
H	-1.9247091344	-0.3073352968	 0.9276141016	 0.133059
H	 0.2600286941	-1.1495585896	-1.8966799456	 0.109237
H	 1.2760332467	 0.2799769979	-1.8138508324	 0.109273
H	 3.599250952	-2.3719970061	 1.1089813451	 0.263001
H	 2.6816115732	-1.7315669446	 2.4204617294	 0.268385
36.7246	194.1054	209.7232	225.8067	245.259	274.7891	290.3658	328.7159	358.648	390.6534	458.949	534.0244	557.8277	575.8951	669.2633	721.0759	811.7694	886.3786	933.4071	936.0936	967.6941	987.5524	1037.1261	1061.4505	1155.7223	1158.0229	1228.5708	1239.9113	1253.5433	1344.6412	1394.3065	1416.7646	1420.585	1482.4606	1488.137	1495.0831	1501.1718	1510.0993	1608.3745	1724.342	1822.0097	3022.8175	3030.4356	3034.3656	3051.3172	3101.3185	3104.0597	3110.3373	3114.0538	3589.9454	3713.509
CC1(C)CN=C(N)C1=O	CC1(C)CN=C(N)C1=O	
InChI=1S/C6H10N2O/c1-6(2)3-8-5(7)4(6)9/h3H2,1-2H3,(H2,7,8)	InChI=1S/C6H10N2O/c1-6(2)3-8-5(7)4(6)9/h3H2,1-2H3,(H2,7,8)
