16
gdb 22432	4.81041	1.15347	1.09777	1.9741	74.96	-0.2415	-0.0003	0.2413	1107.6328	0.12294	-437.705426	-437.698158	-437.697214	-437.737011	29.044	
O	-0.1172441144	 1.3864011035	 0.1357828338	-0.387275
N	 0.0784524299	-0.0046130077	 0.1430595977	-0.251125
C	-1.0043210529	-0.6197489599	-0.0702702684	 0.420421
C	-2.4871952922	-0.2067960932	-0.2855574834	-0.410251
C	-2.65706673	-1.6802251676	-0.6964934766	 0.356399
C	-3.1333527309	-3.1510406531	-0.7978761696	-0.310531
C	-1.6188385547	-3.021606699	-1.2522684453	 0.030726
O	-1.9955493677	-1.8438621209	-2.0279912501	-0.324
C	-1.3334155448	-2.1140484357	-0.0231299809	-0.136847
H	 0.7730536818	 1.718654039	 0.2946757116	 0.309277
H	-2.9660405733	 0.0537409226	 0.6636388847	 0.133258
H	-2.7112414153	 0.5469552901	-1.0416937922	 0.144202
H	-3.3556780128	-3.6697900601	 0.1377053938	 0.107886
H	-3.8275023973	-3.3949077893	-1.6030617357	 0.119426
H	-1.0013105005	-3.7797293115	-1.7399630315	 0.102891
H	-1.3428447249	-2.5620757372	 0.9727817221	 0.095544
98.1367	188.8491	282.8787	338.9081	379.4009	402.5128	462.9207	491.9946	587.9491	663.5422	704.6714	722.0515	788.1093	835.9767	849.9087	888.4844	956.8285	977.2727	982.5838	997.6492	1031.3736	1072.5088	1104.6042	1116.1872	1140.3871	1174.6058	1189.1895	1199.2776	1243.4196	1260.7623	1307.2873	1401.2315	1449.4024	1483.5649	1779.539	3063.1776	3066.0815	3083.7305	3094.8148	3135.3041	3152.7953	3814.5649
ON=C1CC23CC(O2)C13	ON=C1C[C@@]23C[C@@H](O2)[C@@H]13	
InChI=1S/C6H7NO2/c8-7-3-1-6-2-4(9-6)5(3)6/h4-5,8H,1-2H2	InChI=1S/C6H7NO2/c8-7-3-1-6-2-4(9-6)5(3)6/h4-5,8H,1-2H2/t4-,5-,6+/m1/s1
