16
gdb 35586	3.11747	1.38516	1.16128	3.95	67.99	-0.2699	-0.0087	0.2612	1052.8226	0.126107	-437.871383	-437.864012	-437.863067	-437.903941	27.309	
N	-0.0772715531	-1.1448141545	 0.1027198512	-0.319575
C	-0.0267947132	 0.0077635387	 0.0349502381	 0.286112
C	 0.0453296724	 1.4665194917	-0.0753324168	-0.014128
O	-0.3467589183	 2.150944909	 1.1285873296	-0.294655
C	 0.8399582483	 2.9924776117	 1.0821305704	 0.105942
C	 1.8023953479	 2.8140240503	 2.2669520787	-0.099776
O	 2.9852889809	 2.25215015	 1.7152715372	-0.244022
C	 2.6028110285	 1.4097752301	 0.6366403303	-0.113934
C	 1.442087813	 2.1459460161	-0.0601845059	-0.11557
H	-0.5713675267	 1.7795245368	-0.9272947357	 0.128753
H	 0.5720102513	 4.0310663887	 0.8707203489	 0.097858
H	 2.0783516071	 3.7523696448	 2.7541955013	 0.116847
H	 1.3343591382	 2.1453201516	 3.0046721541	 0.115458
H	 3.476275287	 1.2743242205	-0.0043402222	 0.122647
H	 2.2810070501	 0.4228076861	 1.000876299	 0.124857
H	 1.7307325467	 2.6447288283	-0.983600438	 0.103187
57.9932	134.6998	192.1293	229.9906	353.9257	396.0296	522.0591	558.4399	657.9622	677.169	784.4452	814.6427	864.9105	917.8358	952.1098	989.4398	1026.5405	1031.4779	1067.7243	1073.4103	1101.8193	1122.0122	1203.5472	1219.5213	1237.9247	1271.7081	1284.7654	1315.7314	1332.8769	1354.6989	1379.6283	1401.6304	1501.3609	1519.7309	2356.0172	2999.3249	3004.334	3029.2394	3073.1173	3103.0568	3106.3142	3133.3164
N#CC1OC2COCC12	N#C[C@H]1O[C@H]2COC[C@@H]12	
InChI=1S/C6H7NO2/c7-1-5-4-2-8-3-6(4)9-5/h4-6H,2-3H2	InChI=1S/C6H7NO2/c7-1-5-4-2-8-3-6(4)9-5/h4-6H,2-3H2/t4-,5+,6-/m0/s1
