20
gdb 9856	4.45858	0.97054	0.93493	0.2312	83.6	-0.2409	0.0593	0.3002	1361.1646	0.174917	-311.841789	-311.832108	-311.831164	-311.877438	34.454	
C	 0.108938459	 1.4538410257	-0.3112900852	-0.496693
C	 0.0429551921	 0.0184933435	-0.0735179641	 0.058084
C	-0.0011177921	-1.1689885839	 0.1227620482	 0.082983
C	-0.0756924906	-2.6102997887	 0.3557843852	-0.430942
C	-1.4633761302	-3.2033716663	 0.1036427912	 0.39259
C	-2.5545135519	-2.6741107742	 1.0121559063	-0.45782
C	-1.8170278151	-3.5569409221	-1.3181758154	-0.286898
C	-1.5175679081	-4.6513890911	-0.3177423871	-0.316845
H	 1.0421092975	 1.7321533795	-0.8138774924	 0.145405
H	-0.7190839434	 1.7918218425	-0.944447009	 0.145544
H	 0.0586177014	 2.0182885112	 0.6266105445	 0.144732
H	 0.6550723538	-3.1207894561	-0.2846936104	 0.117914
H	 0.2261029915	-2.8291923944	 1.3901198313	 0.1209
H	-2.6522302013	-1.5881886752	 0.9122328885	 0.128057
H	-3.5215836426	-3.1263182326	 0.7718610806	 0.109166
H	-2.3347194605	-2.8950390047	 2.0637897366	 0.110651
H	-2.8451596861	-3.423773903	-1.6378311692	 0.107559
H	-1.0845878702	-3.3587624322	-2.0937055891	 0.1113
H	-0.5838296713	-5.1950903185	-0.4202875564	 0.106328
H	-2.3433395819	-5.2564345596	 0.0417643659	 0.107987
24.5215	57.4512	89.6724	205.4983	224.2818	250.2427	312.0755	337.8772	354.0654	384.7031	394.3881	498.9895	723.6554	765.947	785.2032	871.1915	900.7689	934.9081	956.9086	977.3742	1042.9945	1053.3903	1054.3861	1071.3164	1078.8086	1123.0149	1163.8338	1185.9555	1210.5343	1308.5519	1333.4139	1374.4726	1415.3844	1418.8867	1464.1845	1470.5833	1479.6453	1479.8424	1489.7198	1500.9206	1512.9982	2370.8387	3002.4005	3024.4882	3024.7735	3037.9457	3083.999	3084.4554	3087.3109	3105.5163	3124.8299	3130.7703	3202.4797	3217.2377
CC#CCC1(C)CC1	CC#CCC1(C)CC1	
InChI=1S/C8H12/c1-3-4-5-8(2)6-7-8/h5-7H2,1-2H3	InChI=1S/C8H12/c1-3-4-5-8(2)6-7-8/h5-7H2,1-2H3
