16
gdb 22292	3.23849	1.17467	0.91344	3.4612	75.94	-0.2385	-0.0557	0.1828	1223.368	0.124206	-437.882269	-437.874235	-437.873291	-437.915267	30.293	
O	-0.06568572	 1.4030463181	-0.1416848622	-0.396145
N	 0.0721366131	 0.0106368552	-0.0337364051	-0.185227
C	-1.0536171952	-0.5849240646	 0.0555024455	 0.359327
C	-2.3983477726	 0.0948659955	 0.105526092	-0.355984
C	-3.3743716096	-0.6326942228	 0.9875507803	-0.047113
C	-3.1671784359	-1.8446338198	 1.5160573286	-0.152943
C	-1.9523896396	-2.6375013754	 1.2353812986	 0.373606
O	-1.7219756965	-3.6910752988	 1.7892141157	-0.325251
C	-1.0280659545	-2.0848423236	 0.1469860746	-0.392446
H	 0.8517462748	 1.6955898573	-0.146689051	 0.310593
H	-2.2748416928	 1.1260360178	 0.4489189253	 0.155699
H	-2.8166234707	 0.1790891653	-0.9102906364	 0.142457
H	-4.2973671708	-0.1017861035	 1.2098711166	 0.1158
H	-3.8895069405	-2.3093842584	 2.1794140206	 0.111872
H	-1.3968207417	-2.511478322	-0.7994992594	 0.139141
H	-0.0133781472	-2.4550841703	 0.2982341465	 0.146615
71.9067	90.6121	247.6556	298.4813	309.6081	358.501	410.8175	440.5342	477.0735	523.2464	590.1993	639.8147	722.8972	740.8503	819.7842	912.9435	925.4938	960.8319	982.7143	1004.2216	1030.1088	1135.1285	1169.0401	1207.1481	1241.0971	1278.7918	1295.4156	1341.1074	1405.1093	1412.9315	1440.4204	1451.9707	1686.7963	1735.1324	1788.1839	2991.9692	2994.1971	3086.9278	3131.221	3154.7687	3192.5522	3822.0631
ON=C1CC=CC(=O)C1	ON=C1CC=CC(=O)C1	
InChI=1S/C6H7NO2/c8-6-3-1-2-5(4-6)7-9/h1,3,9H,2,4H2	InChI=1S/C6H7NO2/c8-6-3-1-2-5(4-6)7-9/h1,3,9H,2,4H2
