16
gdb 48177	6.33543	0.6284	0.59792	4.8542	73.4	-0.257	-0.0841	0.1729	1745.799	0.123186	-434.090842	-434.081126	-434.080182	-434.126708	32.949	
N	-0.4758286809	 0.8216127541	 0.9628247406	-0.513489
C	-0.201297908	-0.0663389668	 0.0849389121	 0.281319
N	-1.1316573221	-0.5530652454	-0.7895730876	-0.317046
C	-2.5054319294	-0.1006415638	-0.7801264624	-0.160741
C	-3.2988176181	-0.6382135956	 0.4375866213	-0.332403
C	-4.6961056355	-0.2213025826	 0.3938288806	 0.257945
N	-5.7996405648	 0.1154326875	 0.3282052122	-0.301733
C	 1.1839187333	-0.6542431855	-0.092560175	 0.11082
O	 2.1166812704	-0.3203061621	 0.5864291396	-0.227051
H	 0.380560513	 1.0526812974	 1.4691640095	 0.240859
H	-0.8821298524	-1.3322875647	-1.3745650947	 0.252925
H	-2.5122093497	 0.9925991927	-0.7453344904	 0.161164
H	-2.9827157643	-0.4180045785	-1.7100148728	 0.130473
H	-3.2541738746	-1.7324687285	 0.4631291671	 0.144389
H	-2.8307293411	-0.2607965119	 1.3513633629	 0.188589
H	 1.2921007342	-1.4195295461	-0.8949763832	 0.08398
46.9203	59.4481	101.4917	150.2521	173.1928	223.8931	248.4893	297.0853	364.3726	402.3852	475.5798	565.861	589.7185	703.4465	780.7413	870.9689	920.1864	959.0651	1009.2731	1023.2991	1037.326	1097.6612	1182.4028	1233.6538	1297.5378	1315.8343	1351.6884	1403.8132	1430.4168	1469.3721	1479.0628	1556.0901	1699.5136	1837.9638	2362.5006	2871.3995	3052.0964	3068.1607	3102.52	3125.8969	3475.4539	3656.5836
N=C(NCCC#N)C=O	N=C(NCCC#N)C=O	
InChI=1S/C5H7N3O/c6-2-1-3-8-5(7)4-9/h4H,1,3H2,(H2,7,8)	InChI=1S/C5H7N3O/c6-2-1-3-8-5(7)4-9/h4H,1,3H2,(H2,7,8)
