15
gdb 6263	4.18879	1.1899	1.05175	4.5539	63.98	-0.3125	-0.066	0.2465	1129.4682	0.116566	-399.843389	-399.834633	-399.833689	-399.877235	30.127	
C	-0.1755833682	 1.5209158576	 0.0549298987	-0.396332
C	 0.0140217249	 0.01423552	 0.0024379355	 0.130944
C	 0.7397835094	-0.5615310689	 1.2114384671	-0.399748
O	-1.3393843491	-0.5522630873	-0.061077045	-0.239338
C	-1.4665190169	-1.7440172507	-0.6322916779	 0.362675
O	-0.6006021179	-2.429596911	-1.1065595219	-0.337475
C	-2.8795564846	-2.1529607884	-0.6234884448	 0.252695
N	-3.9729259768	-2.5240435017	-0.6420931869	-0.306354
H	 0.8004523873	 2.0141208872	 0.0695495003	 0.130201
H	-0.7288321108	 1.8758376032	-0.8181687121	 0.134619
H	-0.7234315006	 1.8126021324	 0.9557962602	 0.135652
H	 0.5247785876	-0.2840679611	-0.9168914905	 0.122235
H	 0.1997705306	-0.3266579711	 2.1335814186	 0.132639
H	 0.8437289784	-1.6451640525	 1.1238987434	 0.147044
H	 1.7417274668	-0.1272663776	 1.2782979755	 0.130542
59.4558	88.1888	133.7761	212.3277	234.8715	258.6588	313.7954	337.9384	415.2293	460.3251	531.9591	610.429	777.5524	829.0925	889.8926	937.3054	946.457	955.5623	1129.115	1162.799	1204.9044	1272.7883	1363.0827	1383.9946	1404.7721	1421.254	1481.0589	1485.4074	1495.1559	1510.1319	1810.3459	2360.5086	3045.9269	3049.7727	3082.1393	3118.1039	3127.3921	3128.5603	3136.5975
CC(C)OC(=O)C#N	CC(C)OC(=O)C#N	
InChI=1S/C5H7NO2/c1-4(2)8-5(7)3-6/h4H,1-2H3	InChI=1S/C5H7NO2/c1-4(2)8-5(7)3-6/h4H,1-2H3
