18
gdb 126577	3.1934	1.0115	0.81713	4.7532	74.45	-0.2445	-0.0248	0.2198	1414.1499	0.1476	-435.239742	-435.230689	-435.229745	-435.274203	32.861	
C	 0.0065727335	 1.5734379391	 0.0030883506	-0.379669
C	 0.1119381886	 0.0476083718	-0.0351893585	-0.172949
C	 0.6494354461	-0.5387681231	 1.2856733395	-0.313139
C	 0.7772465995	-2.0279484164	 1.2638223485	 0.310155
N	-0.0710041183	-2.8275871013	 1.849030063	-0.146487
O	 0.360807499	-4.0976226524	 1.6127841689	-0.164288
N	 1.5088763761	-4.1005206678	 0.847084761	-0.165688
C	 1.7800177176	-2.839716035	 0.6327702643	 0.273177
N	 2.9153545201	-2.4053950473	-0.024999542	-0.592872
H	 0.9837125864	 2.0360688696	 0.1807095068	 0.117192
H	-0.3829805867	 1.9665552601	-0.9405035532	 0.11959
H	-0.664756363	 1.9009989518	 0.8040914929	 0.124542
H	-0.8698396338	-0.3934451217	-0.241241416	 0.121734
H	 0.7593391706	-0.2558549646	-0.8691292696	 0.089894
H	 1.6307443194	-0.1002652907	 1.50872545	 0.117338
H	-0.019227999	-0.2619426434	 2.1061924136	 0.134281
H	 3.3953471896	-3.1446933758	-0.5204507083	 0.266988
H	 2.7783497946	-1.5918682728	-0.6072818215	 0.2602
62.4233	81.383	115.9935	236.1769	248.2266	270.9356	287.7856	318.6576	427.3838	452.0739	616.2713	641.9173	708.6898	738.08	751.8851	800.731	877.0918	901.1588	922.6871	947.5434	1030.1565	1044.1911	1106.6818	1115.8355	1153.501	1248.2065	1281.0445	1318.2429	1327.9274	1385.2264	1415.0646	1467.2126	1476.925	1490.3317	1499.782	1508.8533	1555.1532	1627.6966	1665.3445	3015.2136	3028.5271	3033.6899	3062.163	3092.491	3103.3693	3109.4808	3560.2285	3659.0914
CCCC1=NON=C1N	CCCc1nonc1N	
InChI=1S/C5H9N3O/c1-2-3-4-5(6)8-9-7-4/h2-3H2,1H3,(H2,6,8)	InChI=1S/C5H9N3O/c1-2-3-4-5(6)8-9-7-4/h2-3H2,1H3,(H2,6,8)
