14
gdb 24509	4.076	1.66972	1.1845	2.3684	76.12	-0.2322	-0.028	0.2042	951.7044	0.105547	-399.630034	-399.624223	-399.623279	-399.660099	23.658	
O	-0.0628902703	 1.3301124751	 0.009925326	-0.212828
C	 1.2247986862	 1.8114339458	-0.0001387257	 0.003628
C	 2.1438301682	 0.820593453	-0.0142425251	-0.333769
C	 1.3918819395	-0.410992356	-0.0133552051	 0.195825
C	 0.0425410877	-0.0238428939	 0.0018232464	 0.378988
C	-0.9861954407	-0.9505247677	 0.0070124755	-0.283834
C	-0.5792751612	-2.2815402502	-0.0039178004	 0.017969
N	 0.6999647667	-2.6967837186	-0.0185522897	-0.282929
C	 1.6658912462	-1.7822858376	-0.0231833144	-0.096687
H	 1.3060645505	 2.8864570013	 0.0046724883	 0.14768
H	 3.2154312149	 0.9420190923	-0.024050174	 0.127792
H	-2.0308341202	-0.6663702018	 0.0186855382	 0.115221
H	-1.3292616068	-3.0679860491	-0.0007131901	 0.111817
H	 2.6892094694	-2.1504559826	-0.0350816498	 0.111129
223.4255	251.7196	407.9384	423.0712	556.0598	599.3756	620.9675	633.6414	769.8085	798.3678	811.2594	841.905	851.8903	878.5527	914.4121	950.4501	976.8565	1046.0226	1056.2247	1151.3917	1185.4275	1208.9992	1291.4367	1310.8368	1334.7298	1368.8513	1466.9823	1487.1903	1579.4523	1610.5738	1647.5637	3152.8163	3164.3239	3214.8938	3258.4666	3283.7489
O1C=CC2=C1C=CN=C2	o1ccc2c1ccnc2	
InChI=1S/C7H5NO/c1-3-8-5-6-2-4-9-7(1)6/h1-5H	InChI=1S/C7H5NO/c1-3-8-5-6-2-4-9-7(1)6/h1-5H
