23
gdb 113950	3.65714	0.76098	0.73144	1.0347	86.78	-0.2411	0.0891	0.3302	1692.4209	0.204686	-388.249434	-388.2395	-388.238556	-388.28528	36.58	
C	 0.3760339971	 0.9679927429	 0.4738124981	-0.228935
O	-0.3419359396	 0.1318524584	-0.4093725847	-0.234927
C	 0.4770963956	-0.516738625	-1.3307880662	 0.107773
C	 1.1917885943	-1.7832647777	-0.9198281489	-0.319374
C	-0.0002553421	-1.8348777843	-1.8597135183	-0.034792
C	-1.322930002	-2.4263419725	-1.4096553174	-0.230751
C	-1.3871967145	-3.9327069313	-1.5672381549	 0.045455
C	-0.9165128906	-4.8476444441	-0.4646068571	-0.25146
C	-2.3889747846	-4.7398489897	-0.7821917338	-0.278431
H	 1.108788009	 0.4008453411	 1.0659151219	 0.10766
H	 0.9118374715	 1.7631330838	-0.0671158711	 0.104419
H	-0.3517126402	 1.4278069533	 1.1468115468	 0.124984
H	 0.9918446226	 0.1595690758	-2.016181322	 0.079672
H	 2.1857835328	-1.982646858	-1.3053849192	 0.106573
H	 1.0230555998	-2.1215034399	 0.0971910027	 0.114746
H	 0.2358358781	-2.0195123392	-2.905485129	 0.081673
H	-1.5059967366	-2.1526212934	-0.3652526193	 0.102479
H	-2.134459157	-1.9643412502	-1.9885563595	 0.098146
H	-1.1941900487	-4.2830406101	-2.5790353848	 0.075654
H	-0.3962332805	-5.7609592487	-0.7317559899	 0.106617
H	-0.5648174587	-4.3928396745	 0.4556839458	 0.107217
H	-3.0209777935	-4.2108190324	-0.0758982874	 0.108568
H	-2.8753524922	-5.5788027145	-1.2678036018	 0.107038
42.5571	80.8079	104.9556	117.4134	198.5687	207.54	273.6097	314.2901	361.5657	421.0008	478.9325	587.4684	767.5235	773.2432	800.38	830.8472	840.711	879.6921	882.3118	934.8051	974.7923	1015.1976	1038.6836	1042.2008	1058.8961	1070.1126	1078.6463	1115.0657	1136.119	1141.8609	1170.8371	1184.4152	1198.045	1198.6998	1226.7603	1229.4157	1261.0023	1268.1289	1325.5965	1382.6033	1406.6555	1424.9509	1468.5331	1471.8378	1484.6314	1485.6318	1492.3221	1507.5395	1509.6581	2980.4752	3015.0919	3031.0015	3071.9024	3076.9704	3115.6597	3124.2824	3126.9633	3129.754	3131.3544	3134.0313	3204.1413	3218.0095	3219.9058
COC1CC1CC1CC1	CO[C@H]1C[C@H]1CC1CC1	
InChI=1S/C8H14O/c1-9-8-5-7(8)4-6-2-3-6/h6-8H,2-5H2,1H3	InChI=1S/C8H14O/c1-9-8-5-7(8)4-6-2-3-6/h6-8H,2-5H2,1H3/t7-,8+/m1/s1
