15
gdb 131386	3.1692	1.28651	0.97141	1.7426	67.82	-0.2218	0.0186	0.2404	1155.0001	0.114014	-453.938786	-453.93105	-453.930105	-453.97161	28.723	
O	 0.3678456446	 1.3386158514	-0.0688149343	-0.43018
C	 0.1681923763	 0.0047410465	-0.0115081525	 0.338743
N	 0.2008976583	-0.7597187807	-1.0914534395	-0.332678
N	-0.0416156547	-2.0050350996	-0.6075031854	-0.200185
C	-0.2182045254	-2.0262882298	 0.731224732	-0.110788
C	-0.095728824	-0.7226805479	 1.1745452799	 0.136186
C	-0.1951000261	-0.2144324071	 2.5545865465	-0.056122
C	-1.3892533018	-0.4185868108	 3.3964283504	-0.171307
O	-0.2115381215	-1.2015468494	 3.5930517144	-0.238675
H	 0.551393947	 1.5603717942	-0.9903354507	 0.30431
H	-0.0413459388	-2.7812311216	-1.2449120812	 0.277067
H	-0.3961098099	-2.9372858227	 1.2794559086	 0.150965
H	 0.4200149819	 0.658788928	 2.7715538319	 0.104809
H	-1.6195099395	 0.2880277307	 4.1931509221	 0.116358
H	-2.2415793763	-0.9518271812	 2.978378878	 0.111496
59.5158	146.2242	161.8488	302.7664	314.7133	391.0877	404.3428	477.8316	531.1151	626.5581	653.9193	739.6895	762.5961	816.0289	853.5334	908.1618	945.8701	1011.1967	1075.0684	1097.7733	1124.3928	1151.1344	1172.2289	1230.4891	1248.2501	1272.913	1334.749	1431.1684	1449.5548	1495.259	1520.7103	1568.8947	1641.3285	3080.0017	3112.0611	3172.2849	3271.225	3693.7634	3796.0308
OC1=NNC=C1C1CO1	Oc1n[nH]cc1[C@H]1CO1	
InChI=1S/C5H6N2O2/c8-5-3(1-6-7-5)4-2-9-4/h1,4H,2H2,(H2,6,7,8)	InChI=1S/C5H6N2O2/c8-5-3(1-6-7-5)4-2-9-4/h1,4H,2H2,(H2,6,7,8)/t4-/m1/s1
