23
gdb 113078	2.16207	1.15005	0.89791	0.4699	82.12	-0.2473	0.0549	0.3022	1446.3035	0.204056	-425.419231	-425.408696	-425.407752	-425.455446	38.255	
C	-0.1893044201	 1.372751012	-0.5435060413	-0.383492
C	-0.0696963746	-0.1072249314	-0.166553917	-0.191291
C	-1.4074055715	-0.6973999072	 0.248834659	 0.117438
O	-2.3836264162	-0.6896158838	-0.8235072429	-0.31779
C	-2.5789043298	-2.1247914959	-0.7519432734	 0.117438
C	-2.3001455944	-2.8248914841	-2.0719716402	-0.191288
C	-3.2670065319	-2.3772523129	-3.1726641918	-0.383495
C	-1.5333981914	-2.240122083	 0.3926827752	 0.029831
O	-0.3965190316	-3.0437699273	 0.2080861173	-0.421258
H	 0.7711293118	 1.7756138863	-0.8780690208	 0.111581
H	-0.9162723635	 1.5017446552	-1.3502146327	 0.137058
H	-0.5257141986	 1.9708106702	 0.3104468546	 0.115556
H	 0.3309989179	-0.6660066922	-1.0223155836	 0.078813
H	 0.6401406194	-0.2408530092	 0.6591073058	 0.107299
H	-1.7952048453	-0.1492332548	 1.1199442898	 0.07061
H	-3.6040138662	-2.353143029	-0.4252743772	 0.07061
H	-1.2702927771	-2.6170064237	-2.3902623583	 0.078815
H	-2.3694713643	-3.907958816	-1.9119704642	 0.1073
H	-3.031738621	-2.8579653743	-4.1267229109	 0.111581
H	-4.3013884645	-2.6296963116	-2.9149654172	 0.115556
H	-3.2107076752	-1.2938264109	-3.3102158087	 0.137058
H	-1.9585236255	-2.5595835412	 1.3459750451	 0.096209
H	 0.0231797736	-2.8046544353	-0.6242511066	 0.28586
40.071	84.5285	99.1825	171.8395	174.8868	218.2923	232.3483	267.4287	304.8335	308.644	432.9966	447.2955	512.6343	585.7545	751.6869	775.8043	802.2409	826.9541	878.1519	927.3936	968.4942	976.6082	984.5628	1049.6588	1060.2701	1098.4744	1121.0718	1144.3798	1151.104	1180.2385	1244.9022	1263.5325	1269.411	1289.5359	1296.5285	1321.6844	1329.0057	1357.8247	1392.2584	1406.5225	1406.7952	1423.5019	1451.8219	1467.3146	1473.9932	1496.8396	1497.5123	1508.3834	1509.5793	2990.2953	2995.0001	3017.1591	3020.4943	3037.2524	3037.5385	3059.6487	3061.6671	3096.2328	3104.0491	3104.5034	3119.9152	3120.222	3821.68
CCC1OC(CC)C1O	CC[C@H]1O[C@@H](CC)[C@H]1O	
InChI=1S/C7H14O2/c1-3-5-7(8)6(4-2)9-5/h5-8H,3-4H2,1-2H3	InChI=1S/C7H14O2/c1-3-5-7(8)6(4-2)9-5/h5-8H,3-4H2,1-2H3/t5-,6+,7+
