18
gdb 125922	3.76546	1.35877	1.14608	2.1433	78.1	-0.1888	0.0315	0.2203	1092.7145	0.151466	-398.150694	-398.143113	-398.142169	-398.182579	29.91	
C	 0.2646748225	 1.4749660606	 0.0841754843	-0.392182
C	-0.0493932612	-0.019741422	-0.0282526337	 0.040585
C	 0.6007236395	-0.6599546863	-1.3107841734	-0.379551
C	 1.8388012845	-1.2817655392	-0.7396620448	 0.228406
C	 3.0528137393	-1.8702262755	-0.9946665888	-0.216205
N	 3.5714179933	-2.1963134906	 0.2242603796	-0.197356
N	 2.7638168039	-1.8556687857	 1.278798375	-0.365512
C	 1.7291009245	-1.3129010257	 0.6632602319	 0.391878
N	 0.5153236194	-0.7962038351	 1.1124213431	-0.397818
H	 1.3466548827	 1.6445493115	 0.0638895259	 0.128488
H	-0.1865436646	 2.0309046568	-0.7446563328	 0.115804
H	-0.1303611652	 1.8913049142	 1.0174978045	 0.111608
H	-1.135178935	-0.1578391735	-0.0453501538	 0.080042
H	-0.0711051379	-1.4094412919	-1.7466526174	 0.11445
H	 0.7761034458	 0.1010309814	-2.0778166825	 0.107798
H	 3.5927085366	-2.0822196559	-1.9044615787	 0.127975
H	 4.4598270943	-2.6220413493	 0.4181418503	 0.268212
H	 0.5413143077	-0.2966916237	 1.9919019113	 0.233378
85.9013	216.1212	258.672	270.2741	345.9995	353.9159	402.1267	480.9166	598.1271	629.7142	661.7023	730.0352	739.2016	782.3435	811.7083	859.608	919.0347	946.1066	965.2661	1041.7148	1044.2238	1094.1011	1123.3216	1135.6846	1193.6821	1210.2065	1265.1888	1306.5792	1328.8925	1361.7657	1391.957	1404.9029	1467.0582	1472.513	1491.6699	1494.784	1498.9776	1550.926	1656.6217	3023.3655	3026.5656	3049.5631	3069.8201	3095.4275	3105.7379	3254.5718	3571.3554	3698.0773
CC1CC2=CNN=C2N1	C[C@H]1Cc2c[nH]nc2N1	
InChI=1S/C6H9N3/c1-4-2-5-3-7-9-6(5)8-4/h3-4H,2H2,1H3,(H2,7,8,9)	InChI=1S/C6H9N3/c1-4-2-5-3-7-9-6(5)8-4/h3-4H,2H2,1H3,(H2,7,8,9)/t4-/m0/s1
