18
gdb 82346	2.31886	1.6822	1.33359	2.534	74.59	-0.2441	0.0228	0.267	1020.307	0.150462	-398.116035	-398.108057	-398.107113	-398.148414	30.876	
N	-0.1939357888	 1.5181419936	 0.0119527937	-0.511528
C	-0.0573488573	 0.0805799068	-0.0960478349	 0.009037
C	-1.3963077832	-0.6424332538	-0.0623345741	-0.001908
C	-2.1950853301	-0.7241053848	-1.3138915061	-0.271253
N	-1.3676885459	-1.8616880509	-0.8829679884	-0.09464
C	-0.053568967	-1.9198731493	-1.5393646628	-0.173216
C	 0.653424501	-0.537272152	-1.3726708918	-0.232386
C	 0.539830548	 0.3299931251	-2.5382297501	 0.28756
N	 0.4434251798	 1.0370399092	-3.4493755833	-0.344038
H	 0.7126366302	 1.9707332818	 0.0696488956	 0.235772
H	-0.6648471611	 1.8990756749	-0.8036898907	 0.243766
H	 0.5258074098	-0.2546358897	 0.7694704281	 0.100001
H	-1.8928010892	-0.70666033	 0.9007920699	 0.103392
H	-3.2642772858	-0.9002691929	-1.247024566	 0.126177
H	-1.890058731	-0.1489438912	-2.1837729756	 0.141407
H	 0.5394743196	-2.6828574264	-1.0261963862	 0.121286
H	-0.1559034574	-2.2194079824	-2.5854024292	 0.132489
H	 1.7210290084	-0.6739378978	-1.1786655981	 0.128081
98.4087	146.6447	187.3038	258.1727	307.0691	346.3212	390.6126	478.0754	499.5441	574.96	671.0391	720.9732	750.6553	787.0958	855.5099	871.799	887.4362	938.3359	985.9203	1014.6158	1023.2986	1098.3396	1105.0361	1118.9799	1149.076	1168.4612	1176.5945	1233.5893	1247.5211	1280.1309	1306.2114	1337.8919	1358.843	1390.8269	1426.5492	1495.4227	1514.6105	1661.6097	2342.2193	3039.7291	3055.319	3075.1688	3108.685	3119.2784	3161.16	3204.078	3497.1757	3578.9383
NC1C2CN2CC1C#N	N[C@H]1[C@H]2CN2C[C@H]1C#N	
InChI=1S/C6H9N3/c7-1-4-2-9-3-5(9)6(4)8/h4-6H,2-3,8H2	InChI=1S/C6H9N3/c7-1-4-2-9-3-5(9)6(4)8/h4-6H,2-3,8H2/t4-,5-,6-,9?/m1/s1
