19
gdb 47743	2.5143	1.71495	1.15369	4.3601	75.77	-0.2586	0.0144	0.273	1085.0674	0.161158	-423.065042	-423.057181	-423.056237	-423.097629	30.605	
O	 0.0015522782	 0.1238654794	 0.6022312938	-0.34877
C	 0.0209322595	 1.2147636126	 0.0901573645	 0.393474
O	-1.1492221238	 1.7392424192	-0.349201963	-0.236689
C	-1.2265596813	 2.9866519176	-1.0587024866	-0.056898
C	-0.1506230024	 3.9798215279	-0.651348458	-0.231763
C	 1.213515673	 3.3185305122	-0.8423277063	-0.298599
C	 1.2725366574	 2.0391267008	-0.0253647312	 0.17466
C	 2.1266309189	 2.0020929757	 1.2426306891	-0.280868
C	 2.5650873505	 1.2495087621	 0.0295306707	-0.295302
H	-1.1578334959	 2.7721814375	-2.133723536	 0.112873
H	-2.2316874411	 3.3658132204	-0.8567298593	 0.122214
H	-0.2496774282	 4.882668388	-1.2630821539	 0.107156
H	-0.2905627187	 4.2724456625	 0.395966628	 0.115678
H	 1.3561133646	 3.0925291932	-1.9080504635	 0.106057
H	 2.0297288953	 3.9884236647	-0.5530957065	 0.10241
H	 2.6425355819	 2.9197137219	 1.5048521488	 0.114147
H	 1.7372014719	 1.4286433442	 2.0747072596	 0.142217
H	 2.4688135936	 0.1710744086	 0.0476773594	 0.145044
H	 3.3931683465	 1.6406235612	-0.5522445296	 0.11296
66.0068	126.9844	262.5682	278.1854	284.9201	383.3872	403.6689	455.3154	544.7815	593.8854	670.6431	750.5015	791.2401	832.997	877.8444	898.356	916.9204	950.6443	971.6852	1000.1008	1030.6005	1065.6487	1094.667	1096.2501	1129.3302	1164.6026	1203.2638	1211.6535	1227.6918	1291.7026	1312.6418	1340.0003	1377.725	1386.0666	1430.243	1450.8435	1479.4353	1484.5877	1497.1234	1518.0531	1815.8876	3012.7272	3018.701	3038.7056	3070.0964	3086.5221	3095.468	3136.73	3139.4787	3230.1755	3243.0603
O=C1OCCCC11CC1	O=C1OCCCC21CC2	
InChI=1S/C7H10O2/c8-6-7(3-4-7)2-1-5-9-6/h1-5H2	InChI=1S/C7H10O2/c8-6-7(3-4-7)2-1-5-9-6/h1-5H2
