16
gdb 117117	2.59729	1.02946	0.79998	4.5764	66.51	-0.3068	-0.0257	0.2811	1421.5403	0.12184	-475.06142	-475.051627	-475.050683	-475.097476	33.373	
C	 0.0899581153	 1.4808650308	-0.0972866845	-0.394658
C	 0.0154473803	-0.0294043973	-0.0179761632	-0.055683
O	 0.711929313	-0.5626441454	-1.177811027	-0.229124
C	 0.7330461994	-1.879360061	-1.2988854024	 0.433095
O	 0.2650369498	-2.6822578839	-0.5302843964	-0.364517
C	 1.4538526516	-2.3362173782	-2.5844235739	-0.094075
O	 1.6252353097	-3.7201802872	-2.5665623869	-0.401274
C	 0.6782025938	-1.8834627644	-3.7613590806	 0.266901
N	 0.0740393804	-1.5359234908	-4.6823141001	-0.3132
H	 1.1281597364	 1.8231718962	-0.0840663039	 0.137282
H	-0.3856705681	 1.8475017229	-1.0105907879	 0.144746
H	-0.428003293	 1.9168990657	 0.7617140713	 0.133414
H	 0.4966858335	-0.4251437153	 0.880870448	 0.13517
H	-1.0139527584	-0.3976641725	-0.0396392204	 0.138923
H	 2.431862754	-1.8388334985	-2.6228450416	 0.155584
H	 1.0246956623	-4.0492622113	-1.8779461706	 0.307417
37.9108	70.8532	92.0362	140.6525	183.666	246.7791	270.5558	311.8397	351.0857	412.4522	434.1276	463.3221	597.0695	659.4594	805.5402	813.8713	878.6235	918.1367	979.9941	1038.1468	1129.2179	1135.5086	1180.6903	1231.4557	1295.1178	1305.7013	1338.8607	1401.1067	1424.0303	1444.14	1485.8098	1495.6545	1516.3228	1820.3444	2359.5791	3035.4273	3051.5861	3063.2497	3105.7804	3127.1225	3136.1044	3692.6756
CCOC(=O)C(O)C#N	CCOC(=O)[C@@H](O)C#N	
InChI=1S/C5H7NO3/c1-2-9-5(8)4(7)3-6/h4,7H,2H2,1H3	InChI=1S/C5H7NO3/c1-2-9-5(8)4(7)3-6/h4,7H,2H2,1H3/t4-/m0/s1
