17
gdb 92932	3.42408	1.137	0.88158	3.6326	72.85	-0.2482	-0.0245	0.2237	1255.7131	0.13734	-455.177291	-455.169007	-455.168063	-455.210367	30.5	
O	-0.0982943238	 1.4384187048	 0.0358453351	-0.425113
C	 0.0395146681	 0.0292293848	 0.0063162399	 0.075124
C	 0.7118387795	-0.5269633645	 1.2677039208	-0.185049
N	 0.6012092984	-1.974182169	 1.4225382367	-0.275119
C	-0.3280449954	-2.578990936	 0.8043630613	 0.117571
N	-1.3072715285	-1.9953035186	-0.0111014601	-0.103344
C	-1.3732034477	-0.5385381707	-0.0935349337	-0.175004
C	-2.2154960024	-2.7887516884	-0.6882193708	 0.164212
O	-2.2534676829	-3.9944296029	-0.6469138109	-0.309764
H	 0.7807417091	 1.8272799813	 0.0850238723	 0.292123
H	 0.6086588577	-0.295572198	-0.8789375414	 0.086568
H	 1.7782934533	-0.2690956646	 1.2724994538	 0.105983
H	 0.2711988692	-0.034703108	 2.145384573	 0.123928
H	-0.4324323936	-3.6578682529	 0.8724083585	 0.156089
H	-1.9762045722	-0.1272749963	 0.7254903	 0.132915
H	-1.8424732946	-0.2484527978	-1.0372011727	 0.131277
H	-2.917132564	-2.1773593732	-1.2877568118	 0.087604
80.3514	148.5173	212.572	239.6039	254.7038	269.1426	348.861	408.2833	447.5168	481.2855	536.496	647.214	785.1396	887.0987	896.4882	959.9882	970.6458	999.6253	1031.4489	1079.6177	1107.1296	1116.2641	1198.7704	1241.5877	1259.2584	1270.8405	1331.6305	1333.7236	1362.0413	1385.3765	1417.2297	1445.371	1449.1066	1487.1826	1511.418	1729.4798	1812.0516	2949.1484	2979.4296	3016.4384	3033.24	3051.455	3098.7136	3190.3454	3823.3282
OC1CN=CN(C1)C=O	O[C@H]1CN=CN(C1)C=O	
InChI=1S/C5H8N2O2/c8-4-7-2-5(9)1-6-3-7/h3-5,9H,1-2H2	InChI=1S/C5H8N2O2/c8-4-7-2-5(9)1-6-3-7/h3-5,9H,1-2H2/t5-/m0/s1
