21
gdb 82235	2.37528	1.94741	1.40309	1.6891	80.43	-0.2434	0.0746	0.318	1013.5288	0.184989	-387.073202	-387.0656	-387.064656	-387.104914	30.968	
C	 0.0784986265	 1.5989567555	 0.0205506458	-0.392378
C	 0.0828528434	 0.0674782593	-0.0207781758	-0.012949
C	 0.7357648591	-0.5592904516	-1.2538502324	-0.043096
C	 2.2279878234	-0.4370788894	-1.4117965984	-0.29678
C	 1.6382407852	-1.6986844056	-0.8177483046	-0.057817
C	 1.5881834416	-1.8215474554	 0.7016168603	-0.071012
C	 2.747031078	-1.1842981522	 1.4932576488	-0.093958
O	 2.0170112524	 0.0584114396	 1.6219049246	-0.297197
C	 0.7888181551	-0.5836277318	 1.1825279588	 0.104473
H	 1.0985755944	 1.9878821388	 0.0600698217	 0.134192
H	-0.414427472	 2.0105411429	-0.8656307901	 0.109043
H	-0.4541005822	 1.9686114763	 0.9031493225	 0.111654
H	-0.9582345737	-0.2840504571	 0.0079356144	 0.070607
H	 0.1326239929	-0.6432036441	-2.1521859638	 0.077368
H	 2.6309447819	-0.5095533933	-2.4164658697	 0.105106
H	 2.7625130211	 0.2478335456	-0.7637499561	 0.132951
H	 1.7038799007	-2.6105562039	-1.4005277456	 0.079902
H	 1.2574945565	-2.8099577556	 1.0244774333	 0.070517
H	 2.927988005	-1.6425921023	 2.4746509252	 0.095606
H	 3.700924026	-1.0534910347	 0.9712498804	 0.10475
H	 0.1133025647	-0.7243718011	 2.0360586907	 0.069017
128.8363	203.9027	212.8994	236.419	283.2272	402.5801	468.3562	504.1626	626.6636	653.4258	752.5909	795.1124	814.1427	844.1322	876.0967	905.2733	935.5098	939.2868	981.6186	999.9136	1018.5855	1044.1406	1046.9796	1081.1418	1086.2166	1106.6405	1113.1674	1134.1492	1158.3586	1170.8409	1208.1498	1223.0346	1253.1066	1308.9692	1322.7771	1330.461	1341.4748	1362.8416	1380.4142	1391.1167	1411.4635	1479.6523	1494.9271	1502.3379	1521.2349	3000.0866	3009.6182	3023.1298	3039.4626	3069.0696	3096.008	3100.8686	3127.3277	3133.7495	3154.4818	3169.5436	3221.087
CC1C2CC2C2COC12	C[C@H]1[C@H]2C[C@H]2[C@H]2CO[C@@H]12	
InChI=1S/C8H12O/c1-4-5-2-6(5)7-3-9-8(4)7/h4-8H,2-3H2,1H3	InChI=1S/C8H12O/c1-4-5-2-6(5)7-3-9-8(4)7/h4-8H,2-3H2,1H3/t4-,5+,6+,7+,8-/m0/s1
