17
gdb 112995	3.56876	1.05404	0.86612	5.2879	73.85	-0.2574	-0.0299	0.2274	1310.5954	0.13615	-455.157162	-455.148254	-455.14731	-455.1915	31.523	
O	 0.041462339	 1.3949364998	 0.1650800939	-0.418238
C	 0.0702183809	 0.0175570952	-0.1356590504	-0.070618
C	-1.343406454	-0.5669684478	-0.0973132956	-0.171842
C	-1.5314925638	-2.1092988516	-0.0346806335	-0.213515
N	-2.1167317385	-1.9332993324	 1.3089696068	-0.101265
C	-2.5744173945	-2.881483474	 2.2100305031	 0.070216
N	-3.0351058431	-2.5745862416	 3.3505989972	-0.407952
C	-1.9351415037	-0.5444716539	 1.3206966358	 0.445903
O	-2.0990120992	 0.3051772469	 2.1516185686	-0.348438
H	-0.4333309629	 1.4975575155	 1.0010600938	 0.30245
H	 0.5046748288	-0.0809761263	-1.1361086824	 0.11419
H	 0.7167618223	-0.5437594449	 0.5604767148	 0.091791
H	-1.9789546187	-0.0664575507	-0.831493981	 0.119434
H	-2.2248963743	-2.5300606161	-0.7674925873	 0.127501
H	-0.6015315766	-2.6868428818	-0.0278379305	 0.125811
H	-2.4836268266	-3.8952834558	 1.7986180724	 0.10051
H	-3.3162408151	-3.4150809504	 3.8527475545	 0.234061
59.9026	110.5731	132.5091	166.9052	191.1125	214.6876	323.4854	382.1902	475.2676	483.9834	546.6463	687.982	759.6777	789.389	818.3232	878.7121	965.3037	1009.7213	1064.0369	1074.9958	1085.3644	1110.6161	1132.9972	1167.9672	1183.8147	1225.2715	1260.5873	1274.7732	1334.882	1383.8858	1399.6019	1424.9598	1450.8315	1514.5328	1518.2121	1717.8819	1873.6904	2959.3571	3033.1934	3048.6573	3067.0821	3093.6686	3105.4852	3503.5739	3756.6482
OCC1CN(C=N)C1=O	OC[C@H]1CN([CH][NH])C1=O	
InChI=1S/C5H8N2O2/c6-3-7-1-4(2-8)5(7)9/h3-4,6,8H,1-2H2	InChI=1S/C5H8N2O2/c6-3-7-1-4(2-8)5(7)9/h3-4,6,8H,1-2H2/t4-/m1/s1
