17
gdb 116554	4.63937	0.88311	0.7488	1.7521	83.32	-0.2577	-0.0767	0.181	1487.0802	0.136248	-418.06714	-418.05851	-418.057566	-418.101815	31.298	
C	 0.0505151839	 1.6002887651	 0.3777100057	-0.376752
C	-0.136549296	 0.3761971569	-0.5136396335	-0.138635
N	-1.5430452645	-0.0020241592	-0.5813515129	-0.314479
C	-1.868848985	-1.0086462926	-1.2857688645	 0.415441
N	-1.0726384706	-1.8641839261	-2.0491338233	-0.41213
C	-1.8346515968	-2.8558821765	-2.675512283	 0.409367
O	-1.4059792416	-3.726766781	-3.3940374732	-0.352196
C	-3.2422335828	-2.5802283583	-2.2528855556	-0.210761
C	-3.2507079653	-1.5102567891	-1.4496647641	-0.136748
H	 1.1053644642	 1.8866388659	 0.4310409769	 0.109809
H	-0.5206515687	 2.4476271175	-0.011922829	 0.126726
H	-0.3052370553	 1.3930384894	 1.3908933731	 0.126717
H	 0.2482537244	 0.5901083581	-1.5239512565	 0.10503
H	 0.4640581385	-0.4618718545	-0.124417801	 0.10493
H	-0.074818633	-1.8030061931	-2.1566797566	 0.268025
H	-4.0688076664	-3.1912018689	-2.5839258455	 0.136978
H	-4.0847849851	-1.0284054536	-0.960503347	 0.138677
21.6605	124.584	132.6445	162.9525	250.6341	334.6596	388.5083	422.9773	457.339	523.2518	660.7413	661.1466	728.6843	769.2132	793.1501	847.9802	892.4941	925.1122	948.6573	972.5458	1062.8034	1090.0348	1117.0649	1126.426	1163.0221	1302.4237	1318.4632	1344.2624	1360.8378	1383.6489	1413.7391	1474.0306	1487.6331	1502.7518	1631.2365	1747.9191	1834.9434	2963.3	2993.871	3043.42	3116.6745	3121.49	3241.8778	3263.8729	3681.0835
CCN=C1NC(=O)C=C1	CCN=C1NC(=O)C=C1	
InChI=1S/C6H8N2O/c1-2-7-5-3-4-6(9)8-5/h3-4H,2H2,1H3,(H,7,8,9)	InChI=1S/C6H8N2O/c1-2-7-5-3-4-6(9)8-5/h3-4H,2H2,1H3,(H,7,8,9)
