17
gdb 45804	2.74033	1.64685	1.20725	4.1703	73.88	-0.2374	-0.005	0.2324	1030.7201	0.137345	-421.837411	-421.829949	-421.829005	-421.869517	29.109	
O	 0.0627297889	 0.0211345304	 0.3162593901	-0.306228
C	-0.0573915382	 1.1975982362	 0.1141130676	 0.408549
C	-1.4215370203	 1.8509679178	-0.0794057416	-0.408651
C	-1.570247563	 2.6618157688	-1.3480309771	-0.101787
C	-0.7779546392	 3.6559421342	-1.7503495121	-0.031699
C	 0.4125702072	 4.1890797884	-1.0495738485	-0.099747
C	 0.3996210841	 4.4124844699	 0.468922698	-0.339221
C	 1.238886063	 3.3279209179	-0.1227973019	 0.133782
O	 1.0796201555	 1.9415870825	 0.0556568077	-0.224794
H	-2.1245134513	 1.0175745583	-0.0807851576	 0.143197
H	-1.6596566485	 2.4466625421	 0.8105818938	 0.139668
H	-2.4077636346	 2.3839378795	-1.9801470082	 0.10603
H	-1.0070290238	 4.138089322	-2.6967450106	 0.098761
H	 0.983841476	 4.9078952396	-1.6275365496	 0.099233
H	 0.9139181566	 5.2796070134	 0.8683560851	 0.126944
H	-0.5138264153	 4.1634464205	 0.9903841216	 0.133033
H	 2.3079650129	 3.5061554286	-0.1366420867	 0.122931
76.5102	145.5536	233.8996	297.4844	335.1715	448.301	480.5388	531.5892	592.4869	666.4496	678.7403	746.8743	778.0277	802.887	846.0945	890.3983	950.3776	980.6827	987.2603	1007.0438	1033.2776	1056.8782	1104.3181	1139.3295	1150.3999	1182.4801	1237.3335	1268.643	1286.6612	1335.5793	1395.9072	1425.3032	1432.3145	1466.163	1495.9839	1724.4869	1837.6697	3035.4619	3125.9326	3150.6186	3152.372	3164.4221	3177.6432	3183.5305	3248.4024
O=C1CC=CC2CC2O1	O=C1CC=C[C@H]2C[C@H]2O1	
InChI=1S/C7H8O2/c8-7-3-1-2-5-4-6(5)9-7/h1-2,5-6H,3-4H2	InChI=1S/C7H8O2/c8-7-3-1-2-5-4-6(5)9-7/h1-2,5-6H,3-4H2/t5-,6+/m0/s1
