16
gdb 76280	2.40803	1.63296	1.08585	0.5191	65.64	-0.2637	-0.0286	0.2351	1076.6036	0.124717	-475.104617	-475.096268	-475.095324	-475.137768	30.918	
C	 0.1258459687	 1.5702101301	 0.0616960207	-0.387507
C	-0.0355190498	 0.0452465427	-0.0435046975	-0.166051
C	 0.7370377666	-0.5826231137	-1.2240017283	 0.021959
O	 1.0037624506	 0.2932882556	-2.2852849731	-0.42725
C	 2.0304933149	-1.097583315	-0.5868649462	 0.390399
O	 3.0573782506	-1.3361135376	-1.1750176374	-0.360819
N	 1.7890062967	-1.2200552641	 0.7664561712	-0.358369
C	 0.5920106537	-0.6239899868	 1.1851049945	 0.418786
O	 0.191534788	-0.6198695201	 2.3186062721	-0.341813
H	 1.1802469525	 1.8573393547	 0.1128243896	 0.127553
H	-0.3071327821	 2.0537802832	-0.8153415408	 0.143954
H	-0.3772832455	 1.931686199	 0.9614716165	 0.13818
H	-1.098657896	-0.2049328102	-0.0676883132	 0.115737
H	 0.1914831269	-1.4743150886	-1.5783687275	 0.108801
H	 1.8554943204	 0.0189538247	-2.6535059154	 0.300316
H	 2.4559408338	-1.6092532839	 1.4191664349	 0.276125
64.4657	141.058	223.4991	244.6743	249.3758	259.1985	371.2694	403.0158	483.7384	544.3205	625.8957	650.5355	661.9904	735.6887	755.0055	806.0643	880.6431	909.5138	1041.6775	1072.2661	1108.1529	1152.1223	1194.0979	1235.0107	1282.5843	1327.6178	1340.7781	1352.3798	1378.1993	1402.3941	1421.9269	1492.8626	1495.3384	1832.469	1879.7189	2955.5779	3053.1973	3086.9429	3126.703	3146.2104	3608.2931	3747.8197
CC1C(O)C(=O)NC1=O	C[C@H]1[C@@H](O)C(=O)NC1=O	
InChI=1S/C5H7NO3/c1-2-3(7)5(9)6-4(2)8/h2-3,7H,1H3,(H,6,8,9)	InChI=1S/C5H7NO3/c1-2-3(7)5(9)6-4(2)8/h2-3,7H,1H3,(H,6,8,9)/t2-,3+/m0/s1
