17
gdb 38240	3.29457	1.79228	1.4543	1.2315	72.39	-0.2312	0.0142	0.2454	906.3461	0.139624	-417.928411	-417.922011	-417.921067	-417.959004	26.326	
C	-0.010302905	 1.6300061996	 0.1636523477	-0.237226
C	 1.4553795999	 1.1851751907	 0.0159798946	-0.063866
N	 1.1231186003	 0.0572469001	 1.0107484015	-0.382
C	 0.0015647406	 0.0811450658	-0.011596697	 0.290717
C	-1.1624312609	-0.8038740442	-0.3228675832	-0.206744
O	-1.5931691664	-0.4514491513	-1.6693416628	-0.24542
C	-0.7742229997	 0.212898168	-2.5316858762	 0.140424
N	 0.4305745622	 0.606613536	-2.4160781699	-0.295395
C	 1.0141199333	 0.2282292335	-1.1481726843	 0.022972
H	-0.2968451285	 1.9778897175	 1.1561545629	 0.10641
H	-0.4314840145	 2.2246455486	-0.6449248837	 0.118503
H	 2.3643418025	 1.7772709177	 0.1244667722	 0.088682
H	 1.7333402847	-0.7452770196	 0.8146763182	 0.205527
H	-0.8810761768	-1.8635359797	-0.3208245017	 0.122824
H	-2.0395091905	-0.6676167934	 0.3153890251	 0.130195
H	-1.331643523	 0.4009863682	-3.4477423109	 0.12899
H	 1.6992202117	-0.6184935075	-1.2830854524	 0.075406
139.6117	272.5951	308.2661	393.5736	454.7577	499.2311	571.9519	607.5357	682.9612	760.3279	808.8303	862.1376	897.0784	914.4446	944.1368	956.8983	980.151	986.1251	1037.1038	1062.2773	1071.5102	1120.3262	1143.1745	1152.2036	1185.6305	1206.1223	1212.9189	1223.9203	1286.6667	1307.9709	1323.2077	1377.2414	1391.035	1411.3815	1496.7177	1504.8708	1670.3854	3023.2448	3037.102	3094.3318	3095.5318	3116.6581	3159.774	3175.6487	3360.2163
C1C2NC11COC=NC21	C1[C@H]2N[C@]31CO[CH][N][C@@H]23	
InChI=1S/C6H8N2O/c1-4-5-6(1,8-4)2-9-3-7-5/h3-5,8H,1-2H2	InChI=1S/C6H8N2O/c1-4-5-6(1,8-4)2-9-3-7-5/h3-5,8H,1-2H2/t4-,5+,6-/m1/s1
