22
gdb 99019	3.2755	0.87629	0.82091	4.3171	79.6	-0.2533	0.0217	0.275	1523.5631	0.191232	-441.52859	-441.517659	-441.516715	-441.564548	40.225	
C	-0.0292013945	 1.5708401337	 0.0782941923	-0.400782
C	 0.0372752202	 0.0336793887	 0.0437033425	 0.278201
C	 0.7162181411	-0.5067734783	 1.3147152515	-0.400832
C	-1.3745196306	-0.5525780851	-0.0904471673	-0.429157
N	 0.7879087102	-0.4097104654	-1.1541813192	-0.341413
C	 2.0745601805	-0.1206103067	-1.4431056637	 0.396413
O	 2.8144867471	 0.5624380974	-0.743832193	-0.404377
C	 2.6227898861	-0.7063393402	-2.7542316917	-0.140229
O	 3.9553685148	-0.3271600097	-2.9183972921	-0.420322
H	 0.9743083797	 1.9960513505	 0.1277626965	 0.153791
H	-0.5284171348	 1.9562663505	-0.8163912796	 0.108258
H	-0.5945437985	 1.9021721646	 0.9549933802	 0.111366
H	 0.1570221918	-0.1921805144	 2.2014653144	 0.111395
H	 0.7477974237	-1.6008748636	 1.300585462	 0.10819
H	 1.7370493066	-0.1297708399	 1.3927975179	 0.15376
H	-1.8704537487	-0.1859105286	-0.995967271	 0.117427
H	-1.3463373571	-1.6472712441	-0.1261288089	 0.117326
H	-1.9856629747	-0.2612185617	 0.7674525363	 0.129727
H	 0.2894992388	-0.9857110108	-1.8148720723	 0.245761
H	 2.5214292963	-1.8035778539	-2.7243194743	 0.105805
H	 2.0006752123	-0.3496451387	-3.5914055542	 0.10591
H	 4.1467115597	 0.2119060457	-2.1305290062	 0.293781
61.7209	69.2416	111.4943	149.8638	220.404	274.994	277.4012	290.3228	311.3072	337.3292	368.5027	419.4378	419.5556	443.5343	483.9259	494.5011	616.4161	725.0944	765.9607	923.6278	925.6607	933.8538	945.8368	964.1394	1037.0288	1053.5238	1069.2209	1139.9053	1236.6317	1246.1709	1246.6268	1249.1585	1288.7101	1322.4914	1393.3539	1393.5932	1424.0029	1463.3644	1471.3254	1490.2815	1492.5837	1492.8511	1506.3155	1510.6736	1526.1712	1551.61	1756.8878	2968.9943	2987.2149	3029.0203	3038.6182	3044.3366	3095.4223	3105.1975	3108.2139	3122.2915	3143.6464	3146.7527	3619.676	3635.2041
CC(C)(C)NC(=O)CO	CC(C)(C)NC(=O)CO	
InChI=1S/C6H13NO2/c1-6(2,3)7-5(9)4-8/h8H,4H2,1-3H3,(H,7,9)	InChI=1S/C6H13NO2/c1-6(2,3)7-5(9)4-8/h8H,4H2,1-3H3,(H,7,9)
