16
gdb 126746	4.75933	0.93779	0.82696	6.3852	74.75	-0.253	-0.0529	0.2001	1369.0201	0.125192	-434.105194	-434.096871	-434.095927	-434.139117	29.13	
C	 0.1228858278	 1.5172910531	 0.1258548153	-0.377
C	-0.0936570341	 0.0169510836	-0.0635952196	-0.149783
N	 0.6517832786	-0.51135882	-1.1998858309	 0.05781
C	 1.7207473721	-1.3471526097	-1.2160352246	 0.011361
N	 2.1228085114	-1.5668488889	-2.4479191236	-0.29307
C	 1.2456546549	-0.8214415776	-3.1807333892	 0.245521
C	 1.2342643864	-0.7034802026	-4.6516131478	 0.098004
O	 2.0096514247	-1.2539258534	-5.3921106737	-0.25048
N	 0.3372297883	-0.1651672176	-2.4576661496	-0.277849
H	 1.1754293754	 1.7401272194	 0.3224753324	 0.133179
H	-0.1860574464	 2.0608832693	-0.7696785749	 0.155653
H	-0.4706046941	 1.8728648289	 0.9727371214	 0.130384
H	 0.2336191409	-0.545324583	 0.815262598	 0.130915
H	-1.1516325436	-0.2048279004	-0.2292390276	 0.144924
H	 2.1504904176	-1.7587409047	-0.3144402981	 0.150493
H	 0.4228933	-0.0419488363	-5.0216374476	 0.089937
54.2265	84.8456	159.5044	178.0091	229.5596	287.3701	346.1326	417.9744	496.4742	669.4807	700.0337	735.206	793.9596	799.5787	867.3482	973.8282	1023.3917	1037.7252	1063.7626	1097.3986	1118.579	1228.4003	1259.4362	1349.6113	1362.1612	1389.0756	1403.6941	1412.0291	1447.5962	1472.7074	1484.577	1489.3227	1508.0861	1532.5072	1819.0292	2915.9429	3050.8263	3064.9214	3107.5309	3126.3513	3141.7048	3252.9832
CCN1C=NC(C=O)=N1	CCn1cnc(C=O)n1	
InChI=1S/C5H7N3O/c1-2-8-4-6-5(3-9)7-8/h3-4H,2H2,1H3	InChI=1S/C5H7N3O/c1-2-8-4-6-5(3-9)7-8/h3-4H,2H2,1H3
