21
gdb 57045	2.45652	1.23415	0.95049	1.7126	84.6	-0.2499	0.0639	0.3138	1314.0286	0.180447	-387.045073	-387.035107	-387.034163	-387.079849	37.393	
C	 0.0622915578	 1.4779023438	 0.1324204041	-0.39837
C	-0.0928696986	-0.0526220204	 0.0274733045	-0.170977
C	-1.5039325498	-0.431613201	-0.043159163	 0.335825
C	-2.667051395	-0.7240873397	-0.1323295762	-0.484377
C	 0.6746386173	-0.6097378662	-1.179807359	 0.047355
C	 2.2152557642	-0.4128254117	-1.2727957533	-0.246462
C	 2.3107132693	-1.8423672618	-1.8723640206	-0.251819
C	 0.9037683099	-2.1426389669	-1.283498175	 0.105025
O	 0.9624342231	-2.6879197352	 0.0239463282	-0.434536
H	 1.1186464507	 1.7492181364	 0.2197279119	 0.116932
H	-0.3491288384	 1.9724447389	-0.75307606	 0.120959
H	-0.4659542402	 1.8617162485	 1.0090070327	 0.123844
H	 0.336674712	-0.5114330751	 0.9258581472	 0.119846
H	-3.6922060509	-0.992817256	-0.1940728184	 0.188982
H	 0.1990000456	-0.260494523	-2.102438585	 0.079081
H	 2.5847051008	 0.4183417824	-1.8768593865	 0.096964
H	 2.6739982448	-0.3626965269	-0.2816416198	 0.109699
H	 2.3013654548	-1.8344161525	-2.9661992943	 0.100716
H	 3.1247833418	-2.4857986609	-1.5279383836	 0.091811
H	 0.2024707655	-2.7063348137	-1.9114435442	 0.064909
H	 1.2777210655	-3.594224979	-0.0457687498	 0.284594
62.5262	106.3633	130.0441	193.3637	206.6544	235.5533	263.5877	285.8056	380.1008	396.5781	455.7842	521.8923	582.7438	618.564	629.626	694.7375	760.5604	847.1032	875.388	895.4179	937.0466	955.4229	984.4643	1014.7046	1069.3048	1078.3761	1108.3254	1133.8388	1174.3119	1197.6004	1221.0769	1255.081	1261.2273	1278.8873	1295.6791	1321.0898	1334.7266	1379.893	1407.6716	1415.2253	1469.4964	1491.3142	1493.6541	1499.8975	2231.6976	3015.8178	3038.1918	3040.1628	3052.5429	3059.1057	3064.5067	3103.9019	3111.8611	3119.497	3122.7304	3505.6332	3820.7417
CC(C#C)C1CCC1O	C[C@@H](C#C)[C@H]1CC[C@H]1O	
InChI=1S/C8H12O/c1-3-6(2)7-4-5-8(7)9/h1,6-9H,4-5H2,2H3	InChI=1S/C8H12O/c1-3-6(2)7-4-5-8(7)9/h1,6-9H,4-5H2,2H3/t6-,7+,8+/m0/s1
