21
gdb 83583	2.11724	1.86114	1.72206	0.8266	76.44	-0.2413	0.0801	0.3215	979.3093	0.18577	-424.23892	-424.231335	-424.230391	-424.270453	30.961	
C	-0.1905190767	 1.5355141311	 0.0657295893	-0.428551
C	 0.0676283064	 0.0331523984	 0.0049977233	 0.016656
C	 0.8673767305	-0.52266828	-1.1877068192	 0.090942
C	 2.2051547358	 0.2180246483	-1.3238964143	-0.235272
C	 3.0053480658	 0.0642041783	-0.0187295693	-0.069643
O	 2.2036633603	 0.1915913021	 1.1565541353	-0.276789
C	 0.9794216002	-0.5377254778	 1.109585296	 0.084839
C	 1.1520782489	-1.9767465923	 0.6081092844	-0.112721
O	 1.1064485919	-1.8944905423	-0.8243354531	-0.284406
H	 0.7314020252	 2.0968965932	 0.2301901275	 0.13307
H	-0.6573054684	 1.895949651	-0.8572332713	 0.112773
H	-0.8703701746	 1.7714676533	 0.8909886117	 0.11561
H	-0.8896010149	-0.5020059236	 0.03681912	 0.076713
H	 0.3112677484	-0.5280619658	-2.1291235217	 0.073164
H	 2.7847849575	-0.202969238	-2.1518333116	 0.104521
H	 2.0213140608	 1.272774893	-1.5542724718	 0.102535
H	 3.5087041804	-0.9125434193	-0.0224197568	 0.104807
H	 3.7792912248	 0.8316014691	 0.0681892365	 0.106582
H	 0.5611875224	-0.4839569835	 2.1173535617	 0.078976
H	 2.1011307388	-2.4194668846	 0.9307847292	 0.10787
H	 0.3340875766	-2.6149089407	 0.9676900241	 0.098323
182.497	192.7205	224.9804	261.6278	303.7077	387.3152	413.2459	487.1197	546.6297	568.6762	730.5358	761.0646	817.3838	825.3208	858.7499	904.0796	930.8749	960.2169	970.869	1005.0224	1026.0272	1061.6936	1069.7145	1104.2801	1113.2067	1142.5217	1154.217	1208.7347	1218.8836	1252.2777	1273.934	1304.6795	1314.4939	1345.9789	1356.1942	1371.0239	1381.2558	1394.895	1413.6879	1417.1069	1480.5833	1495.3969	1506.6768	1512.2237	1524.8913	3007.1135	3013.5814	3028.4643	3038.8776	3046.1011	3061.2864	3073.4031	3084.2093	3091.5495	3094.9635	3096.2237	3130.4473
CC1C2CCOC1CO2	C[C@H]1[C@H]2CCO[C@@H]1CO2	
InChI=1S/C7H12O2/c1-5-6-2-3-8-7(5)4-9-6/h5-7H,2-4H2,1H3	InChI=1S/C7H12O2/c1-5-6-2-3-8-7(5)4-9-6/h5-7H,2-4H2,1H3/t5-,6+,7+/m0/s1
