20
gdb 12511	3.29738	1.76181	1.2218	0.4496	84.87	-0.2067	-0.0138	0.1929	1042.0654	0.178888	-311.893215	-311.88532	-311.884376	-311.925542	30.473	
C	 0.0190597293	 1.5844290003	-0.1229082557	-0.480476
C	-0.0279078995	 0.0761373596	-0.002692908	 0.307334
C	-1.2108688461	-0.5593656663	-0.0268377474	-0.161059
C	-1.462504095	-2.0396213774	 0.0739738082	-0.249227
C	-0.4884355354	-2.9187644177	-0.7292452535	-0.202117
C	 0.8938004446	-3.081207776	-0.0935571299	-0.24944
C	 1.6828471359	-1.8295607943	 0.1615544286	-0.063939
C	 1.292054105	-0.5467589131	 0.1764107803	-0.106511
H	 0.6180613557	 1.8947458227	-0.9882703808	 0.122768
H	-0.9797844522	 2.0137989892	-0.2312944606	 0.116055
H	 0.4896410474	 2.0358210653	 0.7598836866	 0.12143
H	-2.1007294591	 0.0570803475	-0.1372810497	 0.074566
H	-1.4467878888	-2.3540908991	 1.1286546688	 0.108041
H	-2.4833594064	-2.2368891554	-0.2723727731	 0.097364
H	-0.9255030443	-3.916853922	-0.8502901238	 0.090954
H	-0.3814494381	-2.4995675161	-1.7361729841	 0.104827
H	 0.8011458638	-3.6332522749	 0.8546749058	 0.109296
H	 1.4995345462	-3.7370627491	-0.735128681	 0.103008
H	 2.7386083409	-2.0105073898	 0.3594034534	 0.083986
H	 2.0831002263	 0.1785936066	 0.3642476657	 0.073141
51.083	174.1304	218.7311	269.4831	329.4668	351.1734	373.0973	411.9131	552.7922	587.2341	684.3437	761.5894	785.8534	821.4994	869.0253	882.733	911.0768	968.7382	1015.9329	1020.3075	1068.5147	1070.1616	1080.5716	1113.3535	1168.5708	1176.8149	1251.7889	1284.8387	1298.9522	1362.687	1371.2489	1390.3249	1400.0486	1413.0285	1456.9595	1465.4928	1479.5856	1480.7972	1490.0333	1497.2874	1689.2383	1722.5832	2987.4235	2995.2611	3014.7904	3016.9665	3032.1298	3054.7664	3063.9586	3072.5094	3113.5348	3117.1197	3139.2922	3142.1325
CC1=CCCCC=C1	CC1=CCCCC=C1	
InChI=1S/C8H12/c1-8-6-4-2-3-5-7-8/h4,6-7H,2-3,5H2,1H3	InChI=1S/C8H12/c1-8-6-4-2-3-5-7-8/h4,6-7H,2-3,5H2,1H3
