16
gdb 51289	3.60001	1.24688	0.993	4.0712	74.55	-0.2231	-0.0162	0.2069	1157.1981	0.125256	-437.897291	-437.889696	-437.888752	-437.929999	28.594	
O	 1.9652778587	 4.1373305515	 0.1897490141	-0.304696
C	 1.0754072527	 3.3327683896	 0.0347904127	 0.150047
N	 1.222689889	 1.9791326088	-0.1275396852	-0.409947
C	 2.4095705503	 1.2431679928	-0.1609661156	 0.432193
C	 2.4952586404	-0.0936697929	-0.237330572	-0.213878
C	 3.932197496	-0.5662096505	-0.2566628405	-0.278679
C	 4.7228899759	 0.7373302845	-0.2650765886	 0.044884
O	 4.4833250518	 1.5646376091	-1.4039623296	-0.25214
C	 3.7773306729	 1.8623969038	-0.1800766238	-0.069341
H	 0.0046947252	 3.6136940186	 0.0091005286	 0.085066
H	 0.36696221	 1.4480050509	-0.2005603379	 0.25433
H	 1.6520090074	-0.7698893881	-0.3244730866	 0.088878
H	 4.1805792783	-1.1686227485	 0.6271587385	 0.112595
H	 4.161470923	-1.1803964296	-1.1362228727	 0.125198
H	 5.7295761331	 0.7804903293	 0.1412565559	 0.098695
H	 3.9746768352	 2.8287275508	 0.2608386628	 0.136795
49.3842	159.2457	190.9807	296.9056	327.9821	348.6827	411.8953	549.5782	600.8619	656.6454	741.3279	805.5105	823.2985	835.4608	876.2123	884.5773	924.902	968.254	1017.1257	1019.8425	1043.1107	1105.2205	1122.5375	1183.9781	1244.2955	1256.3861	1287.0942	1312.4558	1377.8347	1411.9769	1447.2392	1467.231	1514.1146	1699.7824	1811.7126	2947.1644	3020.9617	3055.7626	3153.3593	3189.0008	3235.6658	3605.5024
O=CNC1=CCC2OC12	O=CNC1=CC[C@H]2O[C@@H]12	
InChI=1S/C6H7NO2/c8-3-7-4-1-2-5-6(4)9-5/h1,3,5-6H,2H2,(H,7,8)	InChI=1S/C6H7NO2/c8-3-7-4-1-2-5-6(4)9-5/h1,3,5-6H,2H2,(H,7,8)/t5-,6+/m1/s1
