19
gdb 57640	3.34633	0.97437	0.92698	2.1962	76.14	-0.2516	0.0111	0.2627	1329.8137	0.158012	-419.188431	-419.178747	-419.177803	-419.223101	35.608	
C	 0.2300582028	 1.4192943528	 0.3118999725	-0.406827
C	-0.1160101077	-0.0273771749	-0.0558574179	 0.203975
O	 0.3973684039	-0.8385280517	 1.0039353912	-0.440194
C	-1.6412924865	-0.2622038911	-0.2379602938	-0.251762
C	-2.4919429844	 0.3169465765	 0.8742585105	 0.005808
C	-3.5348233485	-0.5109840187	 1.5328261944	-0.249629
N	-2.3235856395	-0.1229438596	 2.2684837731	-0.303826
C	 0.5656613749	-0.4014370346	-1.3182747092	 0.247405
N	 1.0830548169	-0.7315593492	-2.297727411	-0.331849
H	 1.3133004021	 1.5406923977	 0.3674328016	 0.144065
H	-0.1678620062	 2.1139225411	-0.4318521086	 0.132528
H	-0.2013302662	 1.6471650538	 1.288510748	 0.161193
H	 0.4030501316	-1.7567459127	 0.7094532617	 0.293679
H	-1.9556583492	 0.1674316376	-1.1961132899	 0.126884
H	-1.7970014631	-1.3452628172	-0.3170773287	 0.103
H	-2.6785393639	 1.385463465	 0.7880663493	 0.099087
H	-4.4532936113	-0.0505770996	 1.885550711	 0.122022
H	-3.6456931843	-1.5415483143	 1.2030771381	 0.110653
H	-1.6529561413	-0.885876191	 2.3010634276	 0.233788
58.3653	99.5865	133.9747	190.291	212.1283	254.4258	327.5831	334.0525	360.5396	382.6682	404.9709	493.8459	581.8454	599.0239	748.0798	800.398	830.3065	885.4528	929.54	939.7344	966.7648	979.7566	1030.9099	1081.8615	1127.1243	1133.159	1162.2146	1181.8781	1225.3636	1249.5375	1271.2225	1316.9165	1341.4815	1374.4472	1412.6043	1431.2964	1465.7272	1484.182	1499.7727	1514.5792	2350.2042	3027.4298	3060.4944	3072.0257	3104.3874	3125.3268	3141.695	3150.1576	3189.6779	3519.6431	3800.674
CC(O)(CC1CN1)C#N	C[C@@](O)(C[C@H]1CN1)C#N	
InChI=1S/C6H10N2O/c1-6(9,4-7)2-5-3-8-5/h5,8-9H,2-3H2,1H3	InChI=1S/C6H10N2O/c1-6(9,4-7)2-5-3-8-5/h5,8-9H,2-3H2,1H3/t5-,6+/m0/s1
