21
gdb 100055	3.08429	1.12208	1.00545	3.0747	74.13	-0.2518	0.0658	0.3176	1270.2473	0.181458	-461.344313	-461.334722	-461.333778	-461.378532	36.17	
C	-0.0672871241	 1.5976608078	 0.0755502702	-0.417539
C	-0.0595237544	 0.0774527153	-0.053790899	 0.297736
O	 0.5869021039	-0.4504390499	 1.1114063133	-0.483021
C	-1.4967839726	-0.4882118961	-0.0829226823	-0.084258
O	-2.1479772682	-0.2670178743	 1.1503804526	-0.428615
C	 0.7078816426	-0.3798429927	-1.2939616018	 0.118292
C	 2.2153694491	-0.0629992694	-1.4057273864	-0.293747
C	 2.3802809574	-1.5865550629	-1.5513228982	-0.072706
O	 0.9857019109	-1.8080865659	-1.2240613305	-0.314214
H	 0.9408618367	 1.9793409982	 0.2543043573	 0.120621
H	-0.4635569593	 2.0600530366	-0.8342034413	 0.113436
H	-0.7068228215	 1.8886528554	 0.9116716861	 0.139817
H	 0.8079875339	-1.3644629196	 0.8776297335	 0.285936
H	-2.0893747078	 0.0079159045	-0.8596278651	 0.100075
H	-1.4509969045	-1.561472836	-0.3287384258	 0.096219
H	-1.4890785006	-0.4903359153	 1.8219332559	 0.283728
H	 0.1359975922	-0.1401638133	-2.2011890655	 0.077623
H	 2.5269989745	 0.5519726236	-2.2501087432	 0.111941
H	 2.6338817352	 0.3332545839	-0.4797972507	 0.127476
H	 2.6068149871	-1.9293743588	-2.5682377379	 0.109443
H	 3.0494753895	-2.0893270311	-0.845605771	 0.111754
99.9456	103.9905	137.9438	170.821	211.2181	259.0653	298.6261	346.168	369.4092	384.0068	483.9568	501.5637	598.5767	653.4602	727.6375	794.3485	840.669	888.5837	926.702	956.7323	960.784	973.0807	1012.046	1033.8551	1074.1002	1105.5995	1138.2278	1168.6449	1189.4017	1194.4343	1222.1707	1253.2535	1264.407	1282.2162	1349.1559	1354.4348	1368.184	1400.2819	1433.0404	1439.5448	1480.9913	1486.5642	1499.8512	1511.7974	1529.2237	2977.6352	3008.1941	3025.9912	3046.7986	3066.0688	3074.8766	3090.3103	3118.7321	3135.9159	3149.7702	3722.7902	3754.9548
CC(O)(CO)C1CCO1	C[C@@](O)(CO)[C@H]1CCO1	
InChI=1S/C6H12O3/c1-6(8,4-7)5-2-3-9-5/h5,7-8H,2-4H2,1H3	InChI=1S/C6H12O3/c1-6(8,4-7)5-2-3-9-5/h5,7-8H,2-4H2,1H3/t5-,6-/m1/s1
