19
gdb 53469	2.60823	0.87129	0.74686	3.2707	80.39	-0.2495	-0.0283	0.2212	1589.0547	0.155169	-423.024781	-423.013873	-423.012928	-423.062628	37.502	
C	 1.0450490221	 0.2241871552	 1.3654419849	-0.497761
C	 0.2915706103	-0.6252065568	 0.4540966397	 0.06495
C	-0.3294918897	-1.3264594436	-0.3023719805	 0.066071
C	-1.069292159	-2.1750641843	-1.2268094856	-0.454405
C	-1.2635438022	-3.6309168446	-0.7866513568	 0.374935
O	-1.2819155976	-4.5213304447	-1.6078604209	-0.324353
C	-1.4809628587	-3.958479029	 0.6884675101	 0.061721
C	-2.7203249074	-3.237748544	 1.2450966223	-0.408761
O	-1.6007865366	-5.3470048	 0.8511615605	-0.441328
H	 2.053534723	 0.4177436579	 0.9843185612	 0.153577
H	 0.551218889	 1.1915506463	 1.5073679051	 0.152083
H	 1.1470355961	-0.2443489038	 2.3503243935	 0.15314
H	-2.0780689815	-1.766279251	-1.3884449522	 0.159668
H	-0.5935891978	-2.2078394633	-2.212438441	 0.158887
H	-0.5950546182	-3.5903043098	 1.2296944208	 0.103889
H	-2.5938927963	-2.1517428536	 1.2307157358	 0.126091
H	-3.6124511181	-3.5091693226	 0.6721414805	 0.123546
H	-2.8724384102	-3.555654101	 2.2792772958	 0.137269
H	-1.5525932972	-5.7168808572	-0.0448078432	 0.290781
29.9646	42.3378	71.4985	86.2542	196.4925	216.7033	230.2205	262.4409	333.2683	378.74	386.3604	413.2381	443.1894	467.1591	559.8682	666.0821	733.9794	818.3343	899.0174	925.8696	1037.8502	1053.0359	1054.1948	1093.0207	1122.1923	1168.6514	1194.44	1210.4088	1287.8344	1311.1349	1352.5831	1394.5149	1415.6141	1433.1115	1441.7877	1477.3275	1478.2507	1494.4618	1497.9956	1793.3393	2374.0004	2987.2898	3007.1579	3030.0917	3043.4088	3075.8154	3092.0342	3092.6962	3120.8331	3130.199	3684.8367
CC#CCC(=O)C(C)O	CC#CCC(=O)[C@@H](C)O	
InChI=1S/C7H10O2/c1-3-4-5-7(9)6(2)8/h6,8H,5H2,1-2H3	InChI=1S/C7H10O2/c1-3-4-5-7(9)6(2)8/h6,8H,5H2,1-2H3/t6-/m1/s1
