20
gdb 110473	4.02479	1.33838	1.31601	1.5068	80.7	-0.2155	0.0814	0.2969	1067.0176	0.172476	-365.920194	-365.91292	-365.911976	-365.951988	29.548	
C	 0.0717663029	 1.5482482272	-0.092927977	-0.375381
C	-0.1447797237	 0.0351051353	 0.0260684639	-0.207652
C	 0.6143737264	-0.5741706559	 1.1898362223	 0.067632
C	 0.7337311529	-2.0999159791	 1.3957109152	-0.112025
C	 1.5266156921	-2.6311001341	 0.1751202956	-0.084137
C	 2.86266121	-2.6212086936	 0.9014635599	-0.12304
C	 2.5039097832	-1.4609943569	 0.023567018	-0.021851
N	 2.1339459168	-0.5364825142	 1.1432033338	-0.170607
C	 2.1460435167	-1.8143810821	 2.0074710948	-0.006366
H	 1.1351738773	 1.7812968259	-0.2012043415	 0.13374
H	-0.4591233784	 1.9586041771	-0.957380081	 0.107295
H	-0.2895488869	 2.0701639541	 0.7999435632	 0.113147
H	-1.2133232101	-0.182183789	 0.1555593021	 0.09418
H	 0.1583976655	-0.4603377179	-0.9040895533	 0.099418
H	 0.3237287037	-0.0901685873	 2.1318630814	 0.072594
H	-0.0340793939	-2.7267068939	 1.8492382637	 0.062905
H	 1.1982009674	-3.2498753858	-0.6482156215	 0.089084
H	 3.7036193316	-3.3002730944	 0.8923561916	 0.093789
H	 2.9266975166	-1.1236944168	-0.9133117163	 0.090344
H	 2.38889866	-1.7268571388	 3.064541665	 0.07693
82.1581	162.4401	189.3189	268.0337	360.9328	526.2899	612.6067	720.576	737.1018	781.9432	801.6181	810.953	822.7512	834.7493	858.4616	868.84	886.045	929.9061	949.2278	971.7453	982.4632	1014.1907	1038.4267	1048.8482	1062.6531	1070.6834	1122.2661	1138.4742	1162.5001	1179.2904	1197.237	1224.7429	1227.5393	1249.5108	1281.7006	1303.636	1337.711	1352.3481	1407.2855	1415.5392	1483.5122	1497.4224	1508.0216	3021.2183	3022.11	3035.4455	3058.7897	3101.4317	3113.1529	3114.0696	3134.6673	3198.5698	3206.5969	3220.6355
CCC1C2C3C4C3N1C24	CC[C@H]1[C@H]2[C@@H]3[C@H]4[C@@H]3N1[C@@H]24	
InChI=1S/C8H11N/c1-2-3-4-5-6-7(4)9(3)8(5)6/h3-8H,2H2,1H3	InChI=1S/C8H11N/c1-2-3-4-5-6-7(4)9(3)8(5)6/h3-8H,2H2,1H3/t3-,4-,5+,6+,7-,8+/m0/s1
