21
gdb 86808	4.46344	0.81651	0.75458	1.8767	79.97	-0.2643	0.0188	0.2831	1588.8738	0.18052	-424.263896	-424.253871	-424.252927	-424.300391	35.619	
C	-0.3272876393	 1.4058665663	-0.0499683072	-0.391107
C	 0.0206858121	-0.0796230362	-0.0116317477	 0.016694
C	 1.2079788391	-0.4924489672	-0.9386511051	-0.27331
C	 2.1288147665	-0.4679662801	 0.2934248908	 0.176702
C	 0.8879797553	-0.5112688771	 1.2125866505	-0.25357
O	 3.0373090227	-1.5740600757	 0.3479513674	-0.25152
C	 3.9582580329	-1.5381775539	 1.3361671686	 0.420731
C	 4.8579082645	-2.7493844334	 1.2698074581	-0.479122
O	 4.035682985	-0.6505770656	 2.1479686448	-0.354954
H	 0.5608701299	 2.0326587275	 0.0897985656	 0.117535
H	-0.7781326643	 1.6802432021	-1.0099915193	 0.114531
H	-1.0398574714	 1.6631485089	 0.7411661909	 0.116626
H	-0.8874495838	-0.6711276931	-0.1538520628	 0.072607
H	 1.0991251762	-1.5127386439	-1.3151445872	 0.109852
H	 1.4597027045	 0.1705376436	-1.7704235059	 0.099155
H	 2.6972048777	 0.4566619295	 0.4062737687	 0.101872
H	 0.8962435948	 0.1384174977	 2.0900954618	 0.110566
H	 0.6745130016	-1.536843098	 1.5257535616	 0.103366
H	 5.3798191716	-2.7758903765	 0.3088946802	 0.148859
H	 5.5801947558	-2.7104933736	 2.0841960638	 0.146812
H	 4.2625377384	-3.6640392613	 1.3402360023	 0.147677
41.1146	54.5509	68.0211	99.7084	180.1065	240.3268	292.0537	298.828	389.4796	398.6164	463.2389	596.9172	611.7723	708.1779	800.418	819.402	889.3378	901.59	912.0066	949.05	970.883	1008.1996	1046.4348	1063.8987	1075.0991	1118.8295	1135.149	1173.651	1212.9214	1242.651	1262.8931	1268.8501	1276.0164	1292.9772	1366.6352	1387.2797	1405.3052	1413.6584	1468.2183	1469.4782	1476.0599	1492.8853	1497.113	1499.9186	1820.4887	3024.8923	3056.2082	3056.2658	3059.2746	3068.7123	3092.1367	3094.1667	3095.3456	3117.5443	3120.6966	3125.3376	3168.3141
CC1CC(C1)OC(C)=O	C[C@H]1C[C@@H](C1)OC(=O)C	
InChI=1S/C7H12O2/c1-5-3-7(4-5)9-6(2)8/h5,7H,3-4H2,1-2H3	InChI=1S/C7H12O2/c1-5-3-7(4-5)9-6(2)8/h5,7H,3-4H2,1-2H3/t5-,7-
