15
gdb 18064	5.55775	1.22776	1.20281	4.843	64.99	-0.2565	0.0368	0.2933	1005.7955	0.119507	-362.626266	-362.619237	-362.618293	-362.658151	25.799	
N	 0.0205468062	-1.0815414366	 0.3581696566	-0.306935
C	-0.0082203396	 0.0550760221	 0.1521603059	 0.259415
C	-0.0223305044	 1.4917923572	-0.1203242968	-0.369103
C	 1.3772064404	 2.0895452186	-0.0806578345	-0.032054
C	 1.6613275117	 3.5795997355	-0.1427217894	-0.168065
C	 0.6509484287	 4.3469000808	 0.7016197773	-0.095428
O	 0.8685873923	 3.4640094688	 1.8370170907	-0.278998
C	 1.91243846	 2.7912877784	 1.1290379204	 0.095373
H	-0.4932609561	 1.6549828964	-1.0965432322	 0.151023
H	-0.6465037122	 1.9802931714	 0.6349932857	 0.170319
H	 2.1317722676	 1.5115241088	-0.6076119269	 0.116266
H	 2.348520969	 4.0118662195	-0.8570806987	 0.109419
H	 0.9789796765	 5.3627691238	 0.9447349264	 0.121343
H	-0.3962156146	 4.3664017156	 0.3772741662	 0.110434
H	 2.8070787544	 2.5234917898	 1.6784801592	 0.11699
56.2329	137.7884	220.9046	260.3522	389.4568	431.5498	510.9849	600.7269	744.8311	787.6717	812.3802	891.0842	940.2325	961.5344	977.4279	981.6102	1021.711	1038.9317	1058.2555	1077.8055	1120.1152	1165.4657	1179.0997	1251.3294	1260.7853	1303.7188	1324.4983	1364.7178	1438.5603	1463.847	1522.69	2363.1346	3030.1696	3044.6307	3080.6626	3090.9875	3154.9298	3187.7083	3208.7889
N#CCC1C2COC12	N#CC[C@H]1[C@H]2CO[C@@H]12	
InChI=1S/C6H7NO/c7-2-1-4-5-3-8-6(4)5/h4-6H,1,3H2	InChI=1S/C6H7NO/c7-2-1-4-5-3-8-6(4)5/h4-6H,1,3H2/t4-,5+,6-/m0/s1
