19
gdb 31834	4.92239	0.98626	0.83164	1.7002	90.27	-0.1947	-0.0075	0.1872	1409.4742	0.160737	-382.141737	-382.132736	-382.131792	-382.175833	32.929	
C	 0.0321273426	 1.4337680695	-0.1539829983	-0.322045
N	-0.1152386547	 0.0240838226	 0.1201982962	-0.343682
C	 0.57298375	-0.6333411966	 1.1112036242	 0.402467
N	 0.5408298275	-1.9725527351	 1.0446617361	-0.353441
C	 1.162845813	-2.6623468145	 1.9998447931	-0.06684
C	 1.8569703418	-2.1043248702	 3.072406315	 0.256025
C	 2.5354885961	-2.9578345433	 4.1120592869	-0.499074
C	 1.8857064476	-0.7062190187	 3.1162712243	-0.141106
C	 1.2509303715	 0.0449371528	 2.1425543721	-0.203315
H	 1.0740229651	 1.7307225412	-0.3499734002	 0.118577
H	-0.5655978067	 1.6858269058	-1.0322976639	 0.128818
H	-0.3388972874	 2.0407847059	 0.6807121752	 0.131214
H	-0.3919775702	-0.58058166	-0.6366208648	 0.243497
H	 1.1086124157	-3.7464585596	 1.9041336353	 0.093031
H	 3.6126707017	-2.7596860822	 4.1620013932	 0.125722
H	 2.1300781665	-2.7773044361	 5.1146554213	 0.126407
H	 2.4061814432	-4.0214505549	 3.8915372342	 0.123034
H	 2.4133888396	-0.2007338873	 3.9210256395	 0.091984
H	 1.2743068069	 1.1270166408	 2.1770506705	 0.088729
67.3626	77.6848	140.1509	185.4166	203.9356	323.7307	329.7588	414.7855	437.1725	449.1704	541.3675	563.3701	663.4141	744.7833	777.4377	836.7364	853.0456	952.6092	976.4885	1004.0699	1037.1196	1067.9339	1092.7266	1156.3925	1157.9021	1192.1734	1250.4717	1287.9125	1333.7033	1351.9909	1415.4084	1421.7424	1467.2443	1472.3054	1483.9844	1484.8269	1501.9494	1524.0531	1561.7748	1606.6804	1657.5241	2983.6423	3023.1485	3047.4704	3072.7365	3105.0628	3123.1534	3129.1891	3161.0683	3204.9674	3636.526
CNC1=NC=C(C)C=C1	CNc1ncc(C)cc1	
InChI=1S/C7H10N2/c1-6-3-4-7(8-2)9-5-6/h3-5H,1-2H3,(H,8,9)	InChI=1S/C7H10N2/c1-6-3-4-7(8-2)9-5-6/h3-5H,1-2H3,(H,8,9)
