19
gdb 35967	3.13416	1.24564	0.95552	2.458	78.28	-0.2525	0.0398	0.2922	1240.7133	0.159115	-422.982771	-422.974183	-422.973239	-423.016077	32.686	
C	 0.0195480697	-1.2204238837	 0.0464523208	-0.381672
C	 0.0330190836	-0.0206565155	 0.0470578177	 0.306448
C	 0.0140164739	 1.4437397082	 0.0072046833	-0.004586
O	-0.6693218704	 1.9128223603	 1.144173648	-0.242163
C	-1.4405959273	 3.1004714639	 0.9919249519	-0.066039
C	-0.7354477163	 4.2497798043	 0.2501849216	-0.229574
C	 0.7891688024	 4.2792375145	 0.4366537525	-0.196569
C	 1.5223988322	 3.2392163688	-0.4199236172	-0.067381
O	 1.346946974	 1.8885408767	-0.0172360778	-0.236629
H	 0.0146838257	-2.2824253161	 0.0565393271	 0.195937
H	-0.5078495604	 1.7749953818	-0.9092599118	 0.080056
H	-2.3982576577	 2.8704087579	 0.5012003458	 0.098699
H	-1.6657969059	 3.3996831924	 2.0199533888	 0.116918
H	-0.9549058251	 4.2000048759	-0.8236862437	 0.10262
H	-1.1787378119	 5.1889797895	 0.6006338821	 0.103651
H	 1.1657400305	 5.2648812067	 0.1368479395	 0.099354
H	 1.0570047188	 4.1373025877	 1.4894529821	 0.11899
H	 1.2134985176	 3.3566798865	-1.4729783423	 0.0889
H	 2.6022000465	 3.4049982001	-0.3714452884	 0.113039
76.6488	123.9555	167.1266	197.6385	298.191	329.5122	340.282	404.8046	503.5823	541.9164	586.1257	599.4973	649.6334	657.982	786.0063	825.2408	889.5469	946.8641	970.6894	992.0002	1001.1565	1034.7259	1076.5571	1109.5968	1145.9539	1154.4634	1227.556	1255.9645	1297.6841	1309.0065	1363.8854	1372.2643	1388.2223	1399.1132	1413.5815	1419.1183	1470.7428	1488.1241	1497.9091	1509.4702	2254.1828	2931.5354	2960.9267	2992.7076	3027.0102	3032.9448	3059.1753	3081.8545	3085.5286	3090.6532	3504.5121
C#CC1OCCCCO1	C#CC1OCCCCO1	
InChI=1S/C7H10O2/c1-2-7-8-5-3-4-6-9-7/h1,7H,3-6H2	InChI=1S/C7H10O2/c1-2-7-8-5-3-4-6-9-7/h1,7H,3-6H2
