21
gdb 111313	2.30997	1.35137	1.14104	1.1066	77.95	-0.2454	0.0724	0.3178	1212.629	0.180037	-424.191748	-424.182186	-424.181241	-424.225749	36.412	
C	 0.0839926567	 1.6523485049	-0.0030799297	-0.385093
C	-0.0452508621	 0.1248378201	 0.0014733834	-0.202403
C	 0.6529211933	-0.5244357086	-1.1870876315	-0.033375
C	 2.1906378404	-0.5649490659	-1.1844307241	 0.016085
O	 2.5963510881	-1.4197713188	-0.100565706	-0.252024
C	 2.2161863942	-2.0224197143	-1.3425688111	-0.037366
C	 0.6684514706	-2.09748711	-1.3601335543	 0.345089
C	 0.0209192694	-2.9680428383	-0.2974108552	-0.458429
O	 0.1695854118	-2.3800411186	-2.6585452409	-0.477659
H	 1.1338933774	 1.9623321496	 0.0370648185	 0.118768
H	-0.3554784117	 2.0865556496	-0.9081068586	 0.114214
H	-0.4233796218	 2.0948114535	 0.8595446152	 0.113258
H	 0.377077588	-0.2769339907	 0.9288928502	 0.110685
H	-1.1067042999	-0.1524066069	-0.0081328258	 0.09755
H	 0.2859484869	-0.1107235255	-2.132001881	 0.090996
H	 2.9020758434	 0.1866828991	-1.5062781519	 0.101238
H	 2.9320385046	-2.6740714041	-1.8333927731	 0.097399
H	 0.4516119126	-2.7649853496	 0.6853333605	 0.140973
H	-1.0589541988	-2.7962128196	-0.25730924	 0.124243
H	 0.1863085293	-4.0296943099	-0.5227743073	 0.100346
H	 0.2211418575	-3.3330001062	-2.7940003573	 0.275503
80.3838	124.1344	163.6641	218.7299	242.7608	266.6142	288.8585	297.593	315.3207	376.2612	492.753	529.7558	569.3434	653.5594	762.4593	802.2856	849.8878	865.7373	882.6714	916.7891	956.1211	969.2048	991.0606	1046.8109	1053.8155	1090.6469	1098.9587	1141.8827	1160.6008	1194.5718	1237.3177	1242.9951	1274.2652	1297.5669	1340.6164	1354.4604	1389.8441	1392.2702	1407.059	1412.8494	1484.5704	1489.6418	1498.7867	1501.2278	1506.5247	3022.8404	3028.7478	3030.8086	3059.5784	3073.7984	3092.4175	3099.3921	3103.7464	3133.3415	3166.2756	3188.567	3794.3867
CCC1C2OC2C1(C)O	CC[C@H]1[C@H]2O[C@H]2[C@]1(C)O	
InChI=1S/C7H12O2/c1-3-4-5-6(9-5)7(4,2)8/h4-6,8H,3H2,1-2H3	InChI=1S/C7H12O2/c1-3-4-5-6(9-5)7(4,2)8/h4-6,8H,3H2,1-2H3/t4-,5+,6+,7+/m0/s1
