13
gdb 132680	3.24522	1.34829	0.95254	2.868	64.37	-0.224	-0.0254	0.1986	1101.4061	0.089514	-497.908938	-497.901716	-497.900771	-497.940454	28.002	
O	 0.046895022	 1.3625960712	-0.1381921093	-0.438738
C	 0.0536750134	 0.0064045495	-0.0355199794	 0.362947
C	-0.0060936039	-0.7378420196	-1.2134204445	-0.077491
N	-0.0042458998	-2.075832078	-1.2068373218	-0.300738
C	 0.0554784942	-2.6848479969	-0.0594637163	 0.211154
F	 0.0572020979	-4.0332453896	-0.0464823931	-0.098528
C	 0.1187786884	-2.0522000532	 1.1870700012	 0.251342
O	 0.1789838482	-2.7512549746	 2.3449689723	-0.434806
C	 0.1173456237	-0.6651328716	 1.1889319944	-0.322217
H	 0.0919366246	 1.7532330523	 0.7404539755	 0.302595
H	-0.055991592	-0.2356582472	-2.1732658582	 0.123987
H	 0.1684123962	-3.6901433059	 2.1191932519	 0.308502
H	 0.1652850372	-0.1323667165	 2.1334401272	 0.111991
151.0689	234.9774	297.3167	325.0754	346.8805	401.5599	457.5171	482.4912	492.0126	512.265	615.9322	645.3308	730.8265	749.7294	801.7096	880.1567	903.1369	1007.8237	1170.8012	1188.6928	1208.2936	1293.9278	1304.1539	1343.1217	1416.9014	1507.1029	1521.8635	1647.2734	1660.5172	3182.4938	3192.377	3791.4825	3827.1473
OC1=CN=C(F)C(O)=C1	Oc1cnc(F)c(O)c1	
InChI=1S/C5H4FNO2/c6-5-4(9)1-3(8)2-7-5/h1-2,8-9H	InChI=1S/C5H4FNO2/c6-5-4(9)1-3(8)2-7-5/h1-2,8-9H
