16
gdb 35884	2.22451	1.60061	1.12516	3.0296	73.49	-0.2772	0.02	0.2972	1089.9671	0.1244	-400.72701	-400.718528	-400.717584	-400.760785	30.617	
C	 0.0027360232	-1.2099519146	 0.5141008991	-0.463527
C	 0.0303330596	-0.0385907901	 0.2488775073	 0.35144
C	 0.0617125859	 1.3947673522	-0.0535034392	-0.095159
O	-0.6939705453	 2.1674226997	 0.8624964794	-0.240003
C	 0.0937066993	 2.3625927285	 2.0424652754	-0.085216
C	 1.5789490476	 2.231051488	 1.6207311537	-0.258086
C	 1.4853786209	 2.0168767399	 0.0885391309	-0.152151
C	 2.5748834973	 1.2405331261	-0.4851909882	 0.27347
N	 3.4467268223	 0.6386354303	-0.946568014	-0.322395
H	-0.0207823651	-2.2488434399	 0.735714761	 0.21116
H	-0.3559152425	 1.5754723472	-1.0480311638	 0.130977
H	-0.1568259936	 3.3526844866	 2.4313302028	 0.121216
H	-0.1654746633	 1.6135100505	 2.7999405538	 0.11879
H	 2.1707034335	 3.1145734298	 1.8644291368	 0.129606
H	 2.0491101215	 1.3667754318	 2.0928381526	 0.141639
H	 1.4516188788	 2.987125684	-0.4169443375	 0.13824
64.6939	96.9931	117.9605	175.7188	225.5679	299.4709	419.9149	479.3802	540.1879	570.0198	654.0953	677.8278	680.3624	717.0968	827.7151	869.4233	927.8951	936.4351	979.99	1054.41	1074.52	1084.3118	1096.8939	1208.3379	1241.6129	1273.0774	1290.8119	1298.9268	1349.4765	1368.8109	1387.0772	1495.6497	1523.7952	2236.4649	2362.7122	3034.2828	3064.0509	3079.0294	3087.2904	3094.7683	3138.3746	3500.008
C#CC1OCCC1C#N	C#C[C@H]1OCC[C@H]1C#N	
InChI=1S/C7H7NO/c1-2-7-6(5-8)3-4-9-7/h1,6-7H,3-4H2	InChI=1S/C7H7NO/c1-2-7-6(5-8)3-4-9-7/h1,6-7H,3-4H2/t6-,7+/m0/s1
