18
gdb 85693	2.18252	1.51085	1.14563	2.2084	77.99	-0.2471	0.0198	0.2669	1143.9063	0.145639	-401.864851	-401.855929	-401.854985	-401.898682	33.455	
C	-0.7536418783	 1.3253158088	-0.0208536939	-0.402014
C	-0.0324118299	-0.0071401617	-0.0415609804	 0.082345
O	 1.1886212562	 0.0344706933	-0.8267679806	-0.312799
C	 1.997825408	-0.4855706304	 0.2641198506	-0.093582
C	 3.1379864525	 0.3484484123	 0.5989063608	 0.331674
C	 4.0812038166	 1.0300473054	 0.9002940077	-0.448418
C	 0.7698856552	-0.4416498883	 1.1862269156	 0.247928
C	 0.6472898516	-0.02604255	 2.5933800005	-0.298825
N	 0.4634814724	-1.4396690273	 2.1912057318	-0.362191
H	-0.1008021808	 2.1120097609	 0.3664776323	 0.131289
H	-1.0661005651	 1.5991852699	-1.0333031097	 0.132507
H	-1.651354292	 1.2682138289	 0.6050876223	 0.113155
H	-0.6973767291	-0.8008951367	-0.4152105715	 0.078628
H	 2.3251935518	-1.5126435972	 0.0548307111	 0.112978
H	 4.9181120239	 1.632100926	 1.1558624308	 0.201966
H	 1.5431188779	 0.1695583223	 3.1755872994	 0.134271
H	-0.2240071232	 0.5566258364	 2.8821588989	 0.117083
H	-0.5257365678	-1.6790915925	 2.1656395944	 0.234005
50.2704	120.0794	191.2753	206.4504	219.4548	280.7264	320.1813	381.7555	493.3602	506.8375	527.1388	597.955	619.8805	674.0185	776.0079	847.7365	888.1689	918.3682	939.147	951.7018	985.6395	1009.6151	1041.8319	1088.5154	1103.1906	1122.5119	1147.9763	1217.0827	1258.6679	1285.8052	1296.0077	1344.6611	1388.4973	1407.2472	1430.9017	1483.257	1492.7782	1519.0961	2234.9314	2984.0235	3017.6021	3035.0848	3104.26	3109.8002	3124.4075	3197.3629	3485.6692	3501.2616
CC1OC(C#C)C11CN1	C[C@H]1O[C@@H](C#C)[C@]21CN2	
InChI=1S/C7H9NO/c1-3-6-7(4-8-7)5(2)9-6/h1,5-6,8H,4H2,2H3	InChI=1S/C7H9NO/c1-3-6-7(4-8-7)5(2)9-6/h1,5-6,8H,4H2,2H3/t5-,6+,7-/m1/s1
