21
gdb 73969	2.74317	1.57512	1.1563	0.2372	90.48	-0.2105	0.0253	0.2358	1136.1189	0.183952	-349.921665	-349.913736	-349.912792	-349.953798	31.945	
C	-0.0843672712	 1.4764443125	 0.019240027	-0.493758
C	-0.0521166413	-0.0177343215	 0.0358538359	 0.139587
C	-1.0457932893	-0.8969076836	 0.154985255	 0.239269
C	-2.4810203806	-1.241709183	-0.1426067419	-0.186824
C	-2.4892790281	-1.781097605	-1.5616642742	-0.266235
C	-2.0204099359	-2.6873983774	-0.4629817444	-0.090709
C	-0.6018028913	-2.3314115792	 0.0618005056	-0.018745
C	 0.7597439412	-2.2256590881	-0.6449868268	-0.257673
C	 1.2462993484	-0.8191121749	-0.1570778354	-0.282083
H	 0.483427851	 1.9004027421	 0.858337652	 0.123828
H	 0.3739344699	 1.8744035441	-0.8955684968	 0.120456
H	-1.1076334801	 1.8570062513	 0.0827861892	 0.121352
H	-3.3845472623	-0.8971065153	 0.3443620982	 0.091237
H	-3.4719694935	-2.0186413205	-1.9592952058	 0.109415
H	-1.7983390185	-1.3739727385	-2.2944864178	 0.11016
H	-2.5405981486	-3.6113415226	-0.2404975645	 0.083145
H	-0.4931837677	-2.773299592	 1.0625037318	 0.075842
H	 1.4648450273	-3.0276007769	-0.406896242	 0.088039
H	 0.6284297416	-2.2034035868	-1.7327860601	 0.099039
H	 1.9125024533	-0.3347474037	-0.8812896369	 0.096101
H	 1.8197537757	-0.9012210612	 0.7785373619	 0.098556
126.7371	166.6675	184.4326	226.8852	260.3195	381.6052	468.6756	519.0573	578.7466	613.6873	641.8461	711.4474	776.8895	814.8002	858.8458	911.3655	914.9701	925.9012	935.0533	989.2581	994.221	1026.8255	1052.8834	1072.0322	1086.2555	1090.9785	1099.2744	1127.6325	1160.6695	1163.482	1196.5135	1219.947	1236.9603	1275.1782	1295.2675	1321.3849	1333.6615	1361.495	1410.3235	1477.0163	1479.5898	1485.2117	1488.613	1493.8986	1765.0226	2994.4113	2999.4808	3010.576	3037.3356	3051.297	3053.4423	3091.8351	3106.0961	3113.167	3178.6767	3187.1338	3200.4101
CC1=C2C3CC3C2CC1	C[C]1[C]2[C@H]3C[C@H]3[C@H]2CC1	
InChI=1S/C9H12/c1-5-2-3-6-7-4-8(7)9(5)6/h6-8H,2-4H2,1H3	InChI=1S/C9H12/c1-5-2-3-6-7-4-8(7)9(5)6/h6-8H,2-4H2,1H3/t6-,7+,8+/m1/s1
