18
gdb 31976	4.69771	0.92208	0.81526	2.6436	77.56	-0.1934	0.0324	0.2258	1442.0615	0.148321	-435.287729	-435.278382	-435.277438	-435.322461	33.053	
C	 0.4168882871	 1.2771265622	-0.2560521215	-0.327264
N	-0.2528330191	 0.0671311711	 0.2322027704	-0.391522
C	 0.4736546717	-0.7435175969	 1.0834178675	 0.287485
C	 0.9780928856	-1.9920575237	 0.99861693	-0.137104
N	 1.6704178505	-2.3323917085	 2.1577658108	-0.361014
C	 1.5476874841	-1.2721935407	 2.9032977856	 0.499987
N	 1.9941260974	-1.099576039	 4.1818102384	-0.386898
C	 2.9625492373	-2.0437821429	 4.7153709434	-0.318255
O	 0.8549832927	-0.2529210763	 2.3584310571	-0.24066
H	 1.3313964698	 0.9871007066	-0.7808186678	 0.133847
H	-0.2402737928	 1.7845531542	-0.9682184317	 0.119703
H	 0.6866550319	 1.9875233361	 0.5389995104	 0.11331
H	-1.1756572844	 0.281827493	 0.5941099005	 0.23354
H	 0.8885403723	-2.6757144157	 0.1690807483	 0.117081
H	 2.1023812456	-0.1351744599	 4.4553778406	 0.249649
H	 2.5769695592	-3.0568003622	 4.586701122	 0.161425
H	 3.9387131137	-1.9892802719	 4.2141641861	 0.1235
H	 3.0948264773	-1.8474846655	 5.78158149	 0.12319
68.1334	86.7216	123.6244	152.2662	173.7608	206.5573	282.2907	351.8559	441.0786	473.9147	515.1863	617.6713	663.0733	739.0413	757.9933	771.9766	876.5587	913.369	990.1267	1034.1293	1099.5407	1142.0587	1148.7509	1156.425	1166.6154	1189.0046	1213.6993	1285.5847	1340.7515	1449.6032	1453.4638	1470.8446	1483.3548	1489.6209	1508.3382	1519.0608	1539.4967	1653.9973	1703.8066	2996.2962	3010.7974	3078.7122	3099.1844	3118.4805	3143.2467	3262.8059	3517.0404	3625.6863
CNC1=CN=C(NC)O1	CNc1cnc(NC)o1	
InChI=1S/C5H9N3O/c1-6-4-3-8-5(7-2)9-4/h3,6H,1-2H3,(H,7,8)	InChI=1S/C5H9N3O/c1-6-4-3-8-5(7-2)9-4/h3,6H,1-2H3,(H,7,8)
