13
gdb 129944	3.37351	1.87015	1.20468	4.4037	64.74	-0.219	0.0039	0.2228	925.7376	0.092862	-448.938324	-448.931714	-448.93077	-448.969236	25.345	
N	 0.1181004594	 1.394338837	 0.1647116636	-0.605348
C	-0.0003419615	 0.0251730991	 0.0420318255	 0.300732
C	-1.0516354611	-0.8348354708	-0.009148925	-0.139532
O	-0.6038509407	-2.1682392736	-0.0372662674	-0.224369
C	 0.7276780537	-2.0869902112	-0.0131428391	 0.515318
N	 1.7495999606	-2.9122511279	-0.0458597623	-0.395385
C	 2.7861200062	-2.0159207126	-0.0090497764	 0.037974
N	 2.4774745195	-0.7176108282	 0.0409426872	-0.296281
N	 1.1182662232	-0.798156999	 0.0418844647	-0.019759
H	 0.9803049439	 1.7519619127	-0.2261261264	 0.278205
H	-0.6845311741	 1.9121030398	-0.1627788248	 0.265057
H	-2.1158640405	-0.693283637	-0.0136884135	 0.150664
H	 3.8177656014	-2.3348124984	-0.019292116	 0.132724
171.4678	207.508	248.3423	276.3369	415.0102	572.5747	587.1216	617.1812	648.6016	664.0048	689.9408	734.1613	765.064	799.1949	899.6858	980.1164	1062.5297	1092.0212	1167.7608	1207.4827	1261.2864	1272.4034	1287.251	1413.0719	1460.2979	1504.7753	1612.9118	1640.7425	1707.4173	3262.4777	3320.2691	3554.6739	3658.0274
NC1=COC2=NC=NN12	Nc1coc2ncnn12	
InChI=1S/C4H4N4O/c5-3-1-9-4-6-2-7-8(3)4/h1-2H,5H2	InChI=1S/C4H4N4O/c5-3-1-9-4-6-2-7-8(3)4/h1-2H,5H2
