21
gdb 54824	2.55074	1.34956	1.09386	2.6723	84.48	-0.2274	-0.0088	0.2186	1224.9233	0.181154	-387.09121	-387.081853	-387.080908	-387.125653	35.147	
C	-0.1056341999	 1.4848202549	 0.0982883232	-0.480942
C	 0.1111529328	-0.0147729138	-0.0433605796	 0.377481
O	 1.2287570806	-0.4779473296	-0.1532301644	-0.326824
C	-1.1351452487	-0.8390109009	-0.0294489465	-0.157295
C	-1.3883501248	-2.0980316591	-0.8542831557	-0.122988
C	-0.1327570998	-2.9655392326	-1.00173465	-0.217602
C	-0.0409634175	-3.047893664	 0.5547036899	-0.273942
C	-1.3166634864	-2.1908256479	 0.6596892657	 0.32467
C	-2.3942960843	-2.3936550662	 1.6872034679	-0.492684
H	 0.8550744589	 2.0005809576	 0.0841077712	 0.137791
H	-0.7376263274	 1.8568610648	-0.7165228627	 0.137497
H	-0.6316811783	 1.7070087071	 1.0341084485	 0.136619
H	-2.0376353488	-0.2377318961	 0.0552052875	 0.079889
H	-2.2582709078	-2.1241807574	-1.5021651278	 0.084865
H	-0.3657279245	-3.9329551893	-1.4530874321	 0.096449
H	 0.7164038748	-2.5181575008	-1.5179766893	 0.122826
H	-0.2154436805	-4.0608358223	 0.9276064034	 0.094181
H	 0.8617411047	-2.6432517883	 1.0124532741	 0.120155
H	-2.0592698272	-2.0788457187	 2.6828796891	 0.123246
H	-3.2957119857	-1.8218314181	 1.4433466778	 0.116479
H	-2.6757647603	-3.4510103094	 1.7533220896	 0.120129
37.0835	138.1557	156.5964	194.0041	210.2451	237.0716	304.3372	337.7577	385.8952	410.1504	586.6668	606.7448	631.2622	733.3938	784.8495	796.0093	855.559	922.2185	935.439	952.68	958.4027	977.4881	1004.3906	1047.4623	1053.352	1092.16	1121.6189	1148.1084	1197.7882	1215.2558	1240.9292	1244.1733	1246.6114	1298.7888	1356.306	1375.5787	1414.3715	1455.9051	1466.1328	1470.199	1475.751	1484.9922	1494.8437	1499.0312	1785.8011	3020.2694	3031.6119	3063.6281	3075.058	3079.7648	3091.5493	3094.9857	3128.8241	3133.1475	3141.283	3151.7054	3164.1678
CC(=O)C1C2CCC12C	CC(=O)[C@H]1[C@H]2CC[C@@]12C	
InChI=1S/C8H12O/c1-5(9)7-6-3-4-8(6,7)2/h6-7H,3-4H2,1-2H3	InChI=1S/C8H12O/c1-5(9)7-6-3-4-8(6,7)2/h6-7H,3-4H2,1-2H3/t6-,7+,8-/m1/s1
