19
gdb 74599	3.7739	1.62498	1.4384	0.3065	82.73	-0.2211	0.0232	0.2443	969.014	0.161576	-348.713021	-348.706358	-348.705414	-348.743695	28.298	
C	-0.0177968539	 1.5280496599	 0.0398790221	-0.500769
C	-0.0588623794	 0.0356795751	-0.0361072397	 0.327589
C	-0.0781874839	-0.7456370778	-1.1279320825	-0.198611
C	 0.0062603538	-2.1874845967	-0.7033902884	-0.065388
C	 1.3436374568	-2.5678571709	 0.0132799132	-0.068249
C	 0.6525285833	-3.0169392172	 1.2730152173	-0.119474
C	 1.3597744721	-1.6871867396	 1.261613239	-0.069603
C	 0.0293183716	-0.8704978315	 1.1728157859	-0.127845
C	-0.5987769843	-2.2314672437	 0.7374154649	-0.059693
H	 0.9101695687	 1.8775168471	 0.5114635723	 0.125139
H	-0.0826682686	 1.9844875878	-0.9520361039	 0.12127
H	-0.8411144687	 1.9207552168	 0.6503946968	 0.121975
H	-0.056096758	-0.3995156992	-2.1556216055	 0.084117
H	-0.3445060102	-2.9456959737	-1.4042276264	 0.05936
H	 2.2568651901	-2.9401308613	-0.4326193442	 0.081338
H	 0.7660402354	-3.8939881209	 1.8924433157	 0.086079
H	 2.2838517406	-1.4035991528	 1.7484082913	 0.082114
H	-0.2965566673	-0.4608832424	 2.1306134015	 0.055841
H	-1.651494158	-2.4539750791	 0.9065520708	 0.064809
163.2445	177.5253	279.8408	401.4502	464.1039	553.171	583.9966	699.9321	762.1499	777.5504	790.1549	809.4545	834.1611	845.8906	877.5409	892.7327	917.8996	945.2269	963.4367	975.8792	1005.0449	1018.2659	1030.2722	1040.5771	1047.1413	1067.205	1119.1461	1163.3265	1176.6936	1196.9726	1213.7758	1236.7723	1246.6889	1282.8245	1296.5001	1337.8646	1361.457	1411.8414	1478.7411	1487.795	1682.0626	3012.7309	3057.0577	3095.1978	3104.3587	3106.1138	3125.1645	3186.8613	3192.2245	3199.5059	3228.0626
CC1=CC2C3C4C3C1C24	CC1=C[C@H]2[C@@H]3[C@H]4[C@@H]3[C@@H]1[C@@H]24	
InChI=1S/C9H10/c1-3-2-4-6-5(3)8-7(4)9(6)8/h2,4-9H,1H3	InChI=1S/C9H10/c1-3-2-4-6-5(3)8-7(4)9(6)8/h2,4-9H,1H3/t4-,5+,6-,7+,8-,9+/m1/s1
