18
gdb 5635	3.16471	1.9348	1.33721	1.6226	74.63	-0.1823	0.0546	0.2368	956.1662	0.155307	-344.018043	-344.009711	-344.008767	-344.051178	30.679	
C	-0.000473129	 1.5906605655	 0.0403990794	-0.371334
C	 0.0278811708	 0.0604507044	 0.0073507478	-0.142599
N	 0.693251321	-0.520940965	 1.1628345246	 0.001856
C	 2.0299821451	-0.8477972874	 1.227468417	-0.111218
C	 2.3216919539	-1.2343234699	 2.512660701	-0.16103
C	 1.1148814335	-1.1531035496	 3.2621183945	-0.21803
C	 0.1293274475	-0.7082727592	 2.4066318136	 0.252378
N	-1.2334256648	-0.383550513	 2.6095200381	-0.611465
H	 1.0139957183	 1.9962394207	 0.0951200694	 0.124141
H	-0.4808109821	 1.9807841736	-0.8628843357	 0.111123
H	-0.5626364369	 1.9384562432	 0.9103421431	 0.14172
H	-0.9927113037	-0.3281617723	-0.0403944514	 0.114421
H	 0.5520404563	-0.2961336139	-0.8847696234	 0.111877
H	 2.6483453194	-0.784527554	 0.3459540558	 0.10616
H	 3.285570581	-1.5611003046	 2.8717417269	 0.087576
H	 0.9744857332	-1.4062392736	 4.3024484013	 0.078559
H	-1.3980447691	-0.1634257271	 3.5843151756	 0.244976
H	-1.8525093643	-1.1529828079	 2.3671921426	 0.240889
53.3008	103.4338	128.1302	223.191	260.5463	306.5999	394.0689	452.6977	626.4518	634.5808	654.0474	697.984	722.3476	753.8027	787.9615	819.0366	839.7512	903.7286	965.4561	1037.1681	1080.1237	1106.1643	1123.183	1159.9953	1226.5355	1261.8108	1302.5228	1334.5758	1391.8016	1408.1258	1423.9701	1469.3653	1489.6179	1491.4243	1508.0945	1523.499	1595.1935	1655.3607	3041.941	3056.5163	3096.7047	3114.4357	3134.4439	3234.5398	3246.54	3264.3085	3479.4324	3587.4032
CCN1C=CC=C1N	CCn1cccc1N	
InChI=1S/C6H10N2/c1-2-8-5-3-4-6(8)7/h3-5H,2,7H2,1H3	InChI=1S/C6H10N2/c1-2-8-5-3-4-6(8)7/h3-5H,2,7H2,1H3
