16
gdb 131834	3.33489	1.05442	0.84917	1.1533	66.28	-0.2404	0.0232	0.2636	1306.4706	0.12582	-471.22375	-471.215202	-471.214257	-471.258151	30.316	
O	 0.1295828589	 1.4312057441	-0.0713414975	-0.406545
C	 0.1166978203	 0.0169077756	-0.0871890232	-0.072002
C	-1.2977515644	-0.5277706359	 0.1625957901	-0.186726
N	-1.3369804851	-1.9752255541	 0.1303999209	-0.02527
N	-1.2107192995	-2.6692451771	-1.047955686	-0.266157
C	-1.2639692381	-3.9215284632	-0.6417558228	 0.038526
N	-1.4115873757	-4.1026904117	 0.7043085116	-0.378793
C	-1.4478858346	-2.8608775212	 1.1377108697	 0.46071
O	-1.580734666	-2.4506212045	 2.4042938527	-0.42073
H	-0.2659615057	 1.7439821003	-0.8910588066	 0.289757
H	 0.5028013163	-0.397451734	-1.0278968404	 0.121341
H	 0.7816131393	-0.3099124438	 0.7187398461	 0.123614
H	-1.6589662149	-0.2008692844	 1.1398266194	 0.147819
H	-1.9843324933	-0.1519343189	-0.603219069	 0.124229
H	-1.1977576073	-4.7450289291	-1.337124888	 0.127956
H	-1.65777185	-3.245630802	 2.946965003	 0.322271
42.4442	89.8463	98.6143	264.1145	279.7565	303.422	338.4326	373.0135	415.3152	499.601	675.4451	711.0706	742.3561	787.6307	816.4074	903.0337	986.0388	1029.4399	1038.7409	1076.7506	1117.1037	1161.71	1232.4849	1267.4495	1290.8003	1320.9186	1339.4308	1351.5105	1400.8912	1420.1947	1471.911	1481.9184	1511.066	1592.3847	1618.6607	3022.5758	3055.3618	3085.75	3130.2902	3258.9374	3805.6554	3820.1886
OCCN1N=CN=C1O	OCCn1ncnc1O	
InChI=1S/C4H7N3O2/c8-2-1-7-4(9)5-3-6-7/h3,8H,1-2H2,(H,5,6,9)	InChI=1S/C4H7N3O2/c8-2-1-7-4(9)5-3-6-7/h3,8H,1-2H2,(H,5,6,9)
