19
gdb 115697	2.05437	1.64822	0.96516	5.5089	73.38	-0.2353	0.0444	0.2797	1211.1996	0.160383	-456.371747	-456.362652	-456.361708	-456.405971	33.531	
N	-0.0163788805	 1.2780292993	 0.0084202184	-0.555249
C	 0.040216994	-0.1023378224	 0.1002262398	 0.435508
O	 1.111542784	-0.7015053624	 0.1773138748	-0.424268
N	-1.1652050293	-0.7239591253	 0.0547301187	-0.103537
C	-2.4992558997	-0.2627467649	-0.3317981869	-0.181422
C	-2.9270115037	-1.7506148418	-0.4665581287	-0.271926
C	-1.4965546405	-2.1621954925	-0.0050499078	 0.024923
C	-0.6741053733	-3.015604024	-0.9678313894	-0.061324
O	 0.5915857635	-3.3459736387	-0.4642126856	-0.429479
H	 0.8600080024	 1.721247169	 0.2374539811	 0.265057
H	-0.8333094649	 1.7487201188	 0.3660573613	 0.254995
H	-3.0232288091	 0.2984765664	 0.4529283737	 0.107948
H	-2.516944278	 0.3248852511	-1.2566288941	 0.123545
H	-3.7387364576	-2.0655567203	 0.1886995637	 0.118834
H	-3.1550104545	-2.0501578683	-1.4913307433	 0.11989
H	-1.4601574716	-2.6280618031	 0.9868886295	 0.096251
H	-1.2188648122	-3.9556107178	-1.1288680128	 0.10086
H	-0.6227918501	-2.4987014664	-1.9434286414	 0.074523
H	 1.0136140311	-2.5002658567	-0.2213991213	 0.30487
77.0953	85.8477	133.7453	184.4448	212.2493	239.3772	379.4949	402.54	412.1155	497.2187	527.9709	575.2294	682.4796	698.9107	758.7174	770.4622	827.7925	904.5151	957.0239	998.9709	1044.0922	1091.0875	1111.5451	1136.2937	1160.3765	1186.9298	1215.8674	1221.0064	1238.0606	1268.243	1297.0264	1325.8657	1354.3212	1407.1408	1471.2888	1489.4157	1495.9467	1500.4404	1526.0123	1623.5782	1744.1367	2939.4656	3009.0036	3032.2423	3043.7136	3057.6436	3085.9078	3144.486	3574.326	3581.0665	3697.3354
NC(=O)N1CCC1CO	NC(=O)N1CC[C@H]1CO	
InChI=1S/C5H10N2O2/c6-5(9)7-2-1-4(7)3-8/h4,8H,1-3H2,(H2,6,9)	InChI=1S/C5H10N2O2/c6-5(9)7-2-1-4(7)3-8/h4,8H,1-3H2,(H2,6,9)/t4-/m0/s1
