21
gdb 59609	3.54455	0.97451	0.79556	4.6176	78.41	-0.2617	0.0168	0.2785	1451.1178	0.182503	-424.286562	-424.277303	-424.276359	-424.320777	34.557	
C	-0.052827973	 1.562518386	 0.0225823357	-0.399069
C	 0.0358092154	 0.0295594973	 0.0685747257	 0.014447
C	 0.7714922514	-0.4292455511	 1.3353993509	-0.3941
C	-1.3533411089	-0.6172443677	-0.0383465481	 0.017609
C	-2.1303950753	-0.2400964204	-1.316406763	-0.10192
O	-3.0359917583	-1.3233780255	-1.5744031455	-0.218615
C	-2.636846128	-2.4555678497	-0.929958082	 0.430473
O	-3.2257046911	-3.4910599055	-1.0336832808	-0.335686
C	-1.3805856265	-2.1492482189	-0.1221981002	-0.394575
H	 0.9427201483	 2.0111400183	 0.0955625225	 0.118544
H	-0.5081341889	 1.9228332237	-0.9053393196	 0.118479
H	-0.6499827635	 1.9446840852	 0.8591022379	 0.11756
H	 0.6186046358	-0.3042537791	-0.8032343552	 0.074259
H	 0.220964231	-0.1327149678	 2.2362145655	 0.116546
H	 0.8981266723	-1.5155892616	 1.3638357451	 0.120171
H	 1.7664780518	 0.0232810269	 1.3926378107	 0.116434
H	-1.9515029554	-0.3050587633	 0.8284185735	 0.08549
H	-2.7232569812	 0.671401138	-1.2210010377	 0.126368
H	-1.4577519945	-0.1314529096	-2.1780043306	 0.111654
H	-0.5189333832	-2.5372463905	-0.6812322487	 0.134755
H	-1.413563208	-2.6708924247	 0.8345467639	 0.141175
76.4197	95.3833	162.6602	192.5899	224.5319	243.6598	310.8803	341.8272	384.2926	451.2737	525.7911	540.6114	626.7101	693.9803	827.9578	861.9837	895.9473	914.8382	929.8602	965.9336	985.8831	1040.3248	1070.5462	1075.4473	1138.9511	1161.909	1176.4229	1194.3038	1209.1432	1254.5333	1270.6437	1317.1083	1339.1324	1352.5407	1384.5189	1402.0409	1408.4884	1424.2757	1464.4004	1486.4647	1493.0434	1506.5252	1510.5908	1522.3204	1886.0172	2989.6915	3012.8545	3022.9224	3027.211	3031.7345	3039.5971	3092.7778	3097.8081	3103.3404	3107.4119	3111.3026	3130.3628
CC(C)C1COC(=O)C1	CC(C)[C@H]1COC(=O)C1	
InChI=1S/C7H12O2/c1-5(2)6-3-7(8)9-4-6/h5-6H,3-4H2,1-2H3	InChI=1S/C7H12O2/c1-5(2)6-3-7(8)9-4-6/h5-6H,3-4H2,1-2H3/t6-/m1/s1
