17
gdb 43397	2.52878	1.86504	1.21412	3.1515	75.85	-0.235	-0.055	0.18	1018.013	0.136364	-421.83699	-421.82942	-421.828476	-421.869007	29.539	
O	 0.0171451745	 0.0229123527	-0.2747256697	-0.344878
C	 0.0037778177	 1.2124335399	-0.0174129153	 0.320613
C	-1.24699819	 1.9668359835	 0.2004512891	-0.144826
C	-1.2240945875	 3.3019770651	 0.2699094686	-0.076217
C	 0.0700820592	 4.0630883547	 0.2656431415	-0.145684
O	 1.1656176719	 3.2668797621	 0.671830341	-0.291561
C	 1.2556422702	 2.0411569673	-0.0017048483	 0.307632
C	 2.581197333	 1.3527408701	 0.0804509833	-0.310179
C	 2.1559358707	 1.9520238954	-1.2321904709	-0.314259
H	-2.1659645924	 1.3903430669	 0.2060790085	 0.115967
H	-2.1425042174	 3.8825925098	 0.3145085991	 0.116857
H	 0.2397870744	 4.4974552305	-0.7373957983	 0.112442
H	 0.0255420869	 4.8992828866	 0.9712916431	 0.127362
H	 3.3456832285	 1.8702190664	 0.6478465193	 0.127845
H	 2.5507224002	 0.2744206837	 0.1814357073	 0.142478
H	 1.8485655538	 1.2846561099	-2.0289713885	 0.133732
H	 2.626722426	 2.8788304955	-1.5398465399	 0.122675
85.5829	171.88	237.0555	272.8056	334.3607	398.0922	430.6611	504.6709	538.946	648.2399	657.3041	775.0365	800.3279	813.8251	855.793	903.7091	937.0518	960.9609	989.5136	1015.2662	1044.0617	1052.4679	1089.3861	1099.9746	1155.5122	1190.4208	1202.8482	1266.8749	1290.8077	1353.0894	1395.2517	1409.0124	1438.305	1471.8467	1482.6538	1683.5846	1769.3922	2935.6623	3070.5096	3139.5499	3146.4643	3159.9625	3197.5058	3232.852	3248.0021
O=C1C=CCOC11CC1	O=C1C=CCOC21CC2	
InChI=1S/C7H8O2/c8-6-2-1-5-9-7(6)3-4-7/h1-2H,3-5H2	InChI=1S/C7H8O2/c8-6-2-1-5-9-7(6)3-4-7/h1-2H,3-5H2
