23
gdb 87711	2.26151	1.30593	1.14622	1.458	85.62	-0.2305	0.0757	0.3062	1246.5224	0.203941	-388.265348	-388.255247	-388.254303	-388.30019	38.197	
C	 0.8533605624	 1.3977178012	-0.2945284369	-0.39846
C	 0.0440862814	 0.1312730343	-0.0317358463	 0.014026
C	 0.459836326	-1.0684809275	-0.9406996088	-0.324586
C	 1.198699411	-1.6669809495	 0.2609426289	 0.305632
C	 1.6428289021	-3.0998411983	 0.4565880285	-0.412956
C	 2.6607932837	-2.008072627	 0.2520864965	 0.08792
O	 3.4396827751	-1.9082459107	-0.9062636847	-0.425113
C	 0.4712101574	-0.7138731891	 1.2229326244	-0.040005
C	 1.2320890037	-0.0620407297	 2.3688652074	-0.420157
H	 1.9275125811	 1.1865844733	-0.3342920378	 0.127981
H	 0.5700722693	 1.8379755791	-1.2568651615	 0.111154
H	 0.6864061477	 2.1539765273	 0.4798077891	 0.112
H	-1.0236187562	 0.3681705649	-0.0575059585	 0.062292
H	-0.3879425557	-1.6736087069	-1.2765685172	 0.09732
H	 1.0732417185	-0.8087472111	-1.8114503644	 0.088651
H	 1.5544159733	-3.551584735	 1.4408663655	 0.110538
H	 1.4685571274	-3.7915852683	-0.3644888761	 0.102946
H	 3.261066333	-1.7142546522	 1.1076268444	 0.10401
H	 2.9079430359	-2.1919848614	-1.6567555317	 0.283383
H	-0.4162153739	-1.2182601937	 1.6265573363	 0.06789
H	 2.1250835139	 0.4653447589	 2.0209244839	 0.120569
H	 0.601235193	 0.6602176516	 2.8986498447	 0.113213
H	 1.5534645599	-0.81104756	 3.1020541343	 0.111749
53.7193	120.5955	140.3108	193.5614	206.645	226.0838	243.1305	271.2925	356.0065	406.7561	440.71	489.3987	505.033	586.4367	728.6831	781.7242	810.939	831.9828	877.1093	888.4301	928.259	985.9784	996.1492	1015.977	1034.016	1045.3955	1100.2279	1109.7911	1113.1885	1150.5177	1164.9659	1193.853	1207.79	1243.1308	1274.6586	1286.4885	1313.9013	1342.2763	1367.3912	1373.2092	1407.2761	1414.0457	1435.6573	1482.0952	1484.5704	1491.3731	1492.6178	1503.9194	1506.3454	3013.1907	3026.1523	3027.8325	3030.4531	3053.4312	3081.5689	3085.8865	3093.6148	3099.7523	3104.0474	3109.0362	3161.4806	3189.2777	3820.5267
CC1CC2(CC2O)C1C	C[C@H]1C[C@]2(C[C@H]2O)[C@H]1C	
InChI=1S/C8H14O/c1-5-3-8(6(5)2)4-7(8)9/h5-7,9H,3-4H2,1-2H3	InChI=1S/C8H14O/c1-5-3-8(6(5)2)4-7(8)9/h5-7,9H,3-4H2,1-2H3/t5-,6-,7+,8-/m0/s1
