19
gdb 42349	3.60585	1.15546	0.93338	3.2393	78.23	-0.2352	0.0386	0.2739	1276.5756	0.160175	-419.196752	-419.187976	-419.187032	-419.231286	31.214	
O	 0.1490183481	 0.129496655	 0.131016062	-0.388617
C	 0.0521651667	 1.325823567	-0.0686511441	 0.390523
N	 1.1254422413	 2.1500800683	-0.4892105604	-0.128389
C	 1.7943052163	 3.0212504688	 0.4812613154	-0.231247
C	 2.4600518412	 1.7954607202	-0.0476393305	-0.210323
N	-1.1182418586	 2.0112559366	 0.0485356562	-0.09285
C	-1.5572976868	 3.2659704966	-0.5793176864	-0.163174
C	-3.0239472627	 2.7620979227	-0.4579803474	-0.241207
C	-2.4583690651	 1.4174179908	 0.0845801476	-0.156773
H	 2.0740617485	 4.0055440791	 0.1161521062	 0.120859
H	 1.437379883	 2.9956412254	 1.5078713188	 0.13003
H	 2.5380061138	 0.933044984	 0.6075905774	 0.142504
H	 3.2378173655	 1.8840252063	-0.8002273995	 0.120722
H	-1.3104303818	 4.1656481719	-0.0059847603	 0.11019
H	-1.1872650164	 3.3897604152	-1.6024164604	 0.123095
H	-3.627993269	 3.3164022244	 0.2611649506	 0.115747
H	-3.568035594	 2.6905807092	-1.3998199197	 0.117804
H	-2.5604526758	 0.5576461996	-0.5856136308	 0.124162
H	-2.7889287341	 1.1221037786	 1.0849643755	 0.116945
55.1922	85.5972	119.2271	146.7935	158.6093	255.437	288.292	441.2123	527.2251	676.228	759.0456	782.4521	831.9018	842.2559	856.3216	913.189	934.307	937.7653	975.6476	1042.7654	1081.4182	1120.6658	1134.0321	1138.7381	1144.1089	1172.384	1178.8603	1189.552	1199.5986	1229.8338	1268.6264	1295.5806	1317.5722	1347.644	1418.0467	1492.1075	1495.2622	1512.1613	1521.7128	1534.7759	1771.9319	3034.8369	3045.0305	3077.1793	3085.6645	3092.264	3107.1192	3121.0349	3146.4086	3192.0431	3213.1886
O=C(N1CC1)N1CCC1	O=C(N1CC1)N1CCC1	
InChI=1S/C6H10N2O/c9-6(8-4-5-8)7-2-1-3-7/h1-5H2	InChI=1S/C6H10N2O/c9-6(8-4-5-8)7-2-1-3-7/h1-5H2
