18
gdb 125572	4.76491	1.01873	0.88337	2.8881	80.64	-0.2075	0.0357	0.2433	1329.9285	0.149019	-398.12437	-398.115916	-398.114972	-398.158109	31.168	
C	-0.5082169872	 1.4007362852	-0.1420773377	-0.49061
C	-0.1157437041	-0.0387217009	-0.0289477784	 0.361849
N	 1.1495785684	-0.4068321463	-0.2040974905	-0.289938
N	 1.1389492374	-1.7524054605	-0.0308334616	-0.267162
C	-0.095818545	-2.2405875074	 0.2499983411	 0.423341
C	-0.9464285877	-1.1520130682	 0.2618103995	-0.380706
N	-0.3057869984	-3.6156081928	 0.3862350374	-0.166389
C	 0.0727372076	-4.2707583491	 1.6483752369	-0.233754
C	-1.3565882713	-4.0668682397	 1.2889375487	-0.218284
H	-0.9404215095	 1.7747646662	 0.7928625362	 0.123461
H	 0.3690563812	 2.0053367336	-0.3818861566	 0.137678
H	-1.2572293793	 1.551041527	-0.9275465673	 0.125378
H	 1.9863877428	-2.2789657722	-0.1545886633	 0.268393
H	-2.0097183462	-1.1611837478	 0.4375074278	 0.09322
H	 0.5345062009	-5.2470372029	 1.5400131708	 0.126654
H	 0.4829822115	-3.6425396063	 2.4348927821	 0.130122
H	-1.9018490628	-3.3086553591	 1.8450343936	 0.129838
H	-1.9554694382	-4.8953367287	 0.9238265314	 0.126908
50.4942	107.1814	132.047	177.113	262.1268	334.8527	378.2779	474.9095	500.3251	542.4157	688.8259	706.633	713.15	779.5947	823.8074	887.035	922.4557	988.1395	1005.8084	1040.7642	1044.2542	1065.3492	1113.1386	1136.2424	1149.6674	1167.2621	1177.3457	1188.9102	1263.1388	1337.8228	1405.2552	1434.5238	1469.1141	1483.7596	1488.7928	1490.4829	1515.1044	1529.3424	1613.9421	3032.1864	3082.2556	3111.6475	3115.391	3130.296	3197.1757	3211.0465	3262.7597	3679.6433
CC1=NNC(=C1)N1CC1	Cc1n[nH]c(c1)N1CC1	
InChI=1S/C6H9N3/c1-5-4-6(8-7-5)9-2-3-9/h4H,2-3H2,1H3,(H,7,8)	InChI=1S/C6H9N3/c1-5-4-6(8-7-5)9-2-3-9/h4H,2-3H2,1H3,(H,7,8)
