20
gdb 103885	3.66108	0.8011	0.74174	4.6442	80.22	-0.269	0.036	0.305	1571.8268	0.168917	-403.153157	-403.143062	-403.142118	-403.188698	36.72	
C	-0.0177278053	 1.5305801872	-0.4793933396	-0.401662
C	 0.0058427128	 0.1257346454	 0.1364863065	-0.226685
C	-1.3671529513	-0.521281643	 0.1759589216	 0.391426
O	-2.3080162984	 0.1840829213	 0.9477687875	-0.47271
C	-1.8954031888	-1.279632987	-1.0224474654	-0.345939
C	-1.5616240279	-2.0089812314	 0.264924184	-0.040896
C	-0.4064437967	-2.9949365728	 0.3451320429	-0.379066
C	-0.7883488593	-4.3286349999	-0.125085387	 0.268676
N	-1.1000922177	-5.3774693106	-0.4963166906	-0.306475
H	 0.9867643734	 1.9617438574	-0.5084278213	 0.121878
H	-0.4036793871	 1.5078286109	-1.5043407677	 0.120774
H	-0.6452008013	 2.2091960367	 0.1076230238	 0.117645
H	 0.6959543729	-0.5029556429	-0.4360822194	 0.095202
H	 0.3971137395	 0.1812168958	 1.1598402872	 0.108835
H	-2.5688931394	 0.9695244729	 0.4549183634	 0.28601
H	-2.9435314992	-1.1689887414	-1.2756529197	 0.121629
H	-1.2332780023	-1.4186329479	-1.8717482244	 0.115911
H	-2.4207457179	-2.2922330999	 0.864247844	 0.119349
H	 0.4450569901	-2.6573533689	-0.2543700778	 0.149119
H	-0.0466676662	-3.0849075719	 1.377207282	 0.15698
46.2274	88.0349	106.1365	169.4328	212.5539	237.8864	274.2502	301.6714	382.7739	389.5412	395.1082	438.8279	489.7994	611.6371	691.2757	785.8555	844.1052	866.3333	911.264	925.3734	944.9695	993.6005	1026.8866	1031.358	1064.2371	1085.9012	1126.7351	1153.9577	1218.4424	1257.8359	1294.4321	1309.2989	1315.2351	1339.6309	1378.9484	1405.9883	1423.2923	1460.2617	1477.5992	1488.8068	1500.5479	1512.0477	2362.688	3030.7917	3035.283	3042.2684	3072.12	3085.6974	3104.9994	3111.6482	3128.8278	3168.7418	3221.3368	3803.5518
CCC1(O)CC1CC#N	CC[C@@]1(O)C[C@H]1CC#N	
InChI=1S/C7H11NO/c1-2-7(9)5-6(7)3-4-8/h6,9H,2-3,5H2,1H3	InChI=1S/C7H11NO/c1-2-7(9)5-6(7)3-4-8/h6,9H,2-3,5H2,1H3/t6-,7-/m1/s1
