16
gdb 123356	7.02955	0.76185	0.71902	2.611	76.56	-0.2646	0.0023	0.2669	1509.4325	0.125608	-396.919425	-396.911196	-396.910252	-396.95345	29.364	
C	-0.0117503416	-1.1850784127	-0.0413362633	-0.432107
C	-0.0379907153	 0.0139172643	 0.0328997031	 0.290499
C	-0.023381325	 1.4672475517	 0.1166307469	-0.347815
C	 1.395571278	 2.0329716605	-0.0964805434	-0.158472
N	 1.4117594184	 3.4807466739	-0.0190462754	 0.054921
C	 1.9843664824	 4.2903199298	 0.896439787	 0.011632
N	 1.7457815324	 5.5571368922	 0.6114536007	-0.275494
C	 0.9972297656	 5.4641366358	-0.5208354087	 0.040638
N	 0.7655854271	 4.2316986295	-0.9450251474	-0.255469
H	-0.0088271547	-2.2449943743	-0.1070022004	 0.202602
H	-0.6853282435	 1.9044494621	-0.6384931579	 0.166013
H	-0.398296737	 1.7958164916	 1.0935320116	 0.140699
H	 2.0779785542	 1.6518736198	 0.6667682407	 0.137568
H	 1.7735505641	 1.7279063612	-1.0754722132	 0.149821
H	 2.557881422	 3.9153922848	 1.7311830514	 0.144915
H	 0.6155273026	 6.3251260898	-1.0490028218	 0.13005
58.0661	67.8387	95.2092	178.029	317.1575	356.0039	379.8661	473.7954	628.9425	659.8661	665.416	696.363	767.3192	778.7278	854.3123	910.0645	973.056	975.117	1020.9424	1033.9455	1056.1232	1170.362	1174.6536	1236.1015	1282.8774	1306.8778	1311.3323	1348.6488	1381.2034	1400.9133	1472.1925	1478.9139	1491.1048	1549.4574	2242.8163	3037.3762	3074.0332	3080.1833	3128.1336	3254.7944	3261.4744	3505.9399
C#CCCN1C=NC=N1	C#CCCn1cncn1	
InChI=1S/C6H7N3/c1-2-3-4-9-6-7-5-8-9/h1,5-6H,3-4H2	InChI=1S/C6H7N3/c1-2-3-4-9-6-7-5-8-9/h1,5-6H,3-4H2
