12
gdb 47962	2.5127	0.81702	0.65343	2.0605	71.87	-0.2912	-0.0927	0.1985	1587.4892	0.073775	-435.463272	-435.453798	-435.452854	-435.500907	29.961	
O	-0.9754698941	 1.4331866849	 0.2581669098	-0.210167
C	 0.06371176	 1.097184789	-0.2552372782	 0.034736
C	 1.2816786517	 1.8776175457	-0.186505789	 0.028259
C	 2.3158985347	 2.4964270554	-0.1444462672	 0.129261
C	 3.5136916992	 3.3266852287	-0.0767847337	-0.394323
C	 3.1014804467	 4.7923446805	 0.285529977	 0.180999
O	 3.3202448037	 5.7111328596	-0.4433870047	-0.204731
C	 4.4618899189	 2.8346571019	 0.9291632035	 0.289233
N	 5.2113322931	 2.4905341518	 1.7376255279	-0.292821
H	 0.1605220813	 0.1525155022	-0.8245800905	 0.117779
H	 4.0133936442	 3.3730784583	-1.0516013421	 0.185129
H	 2.5828878306	 4.8814443621	 1.2589442772	 0.136647
12.693	52.4693	84.1629	90.1441	181.0145	215.0622	230.1993	381.9288	410.2658	445.1028	500.5493	535.2485	658.6372	848.0157	929.8135	975.1997	1019.5035	1035.4167	1153.6185	1207.4125	1302.1535	1398.6059	1419.5511	1775.5284	1855.5785	2338.5051	2365.8229	2943.7754	2962.6273	3055.0632
O=CC#CC(C=O)C#N	O=CC#C[C@@H](C=O)C#N	
InChI=1S/C6H3NO2/c7-4-6(5-9)2-1-3-8/h3,5-6H	InChI=1S/C6H3NO2/c7-4-6(5-9)2-1-3-8/h3,5-6H/t6-/m1/s1
