19
gdb 71622	2.90359	1.74625	1.60368	2.668	73.38	-0.2333	0.0746	0.3079	925.732	0.162143	-423.01734	-423.010502	-423.009558	-423.04808	28.919	
O	-0.0644199797	 1.4029894444	-0.0183818507	-0.490757
C	 0.0127635496	 0.0150713311	 0.0156034573	 0.387791
C	 0.3579360323	-0.7947944226	 1.3054187645	-0.317356
C	-0.4056943319	-1.9170548627	 0.5739564639	-0.068193
C	-1.3115627726	-0.8254036692	-0.0433963753	 0.10581
O	-1.7784301348	-1.2332128331	-1.3136465846	-0.281763
C	-0.9082384689	-2.3012079884	-1.7279282655	-0.078463
C	 0.3018064446	-2.1521293816	-0.799945959	-0.057956
C	 0.8684252989	-0.7188135119	-1.0384254274	-0.28763
H	 0.8260885214	 1.7602964487	-0.1039358291	 0.278658
H	 1.4129064483	-0.9482009269	 1.5482050475	 0.089279
H	-0.1840006445	-0.4291144152	 2.1807876205	 0.104944
H	-0.8099146472	-2.7887625871	 1.085518808	 0.070688
H	-2.1284430347	-0.4257893682	 0.5573935224	 0.087885
H	-1.4152533004	-3.2698122772	-1.6030402105	 0.08997
H	-0.6608542699	-2.1695889666	-2.7866377088	 0.104605
H	 1.0237792119	-2.9675810872	-0.8539298842	 0.068609
H	 0.68073896	-0.3572839689	-2.0531194431	 0.106993
H	 1.9387936274	-0.6324067475	-0.8238844159	 0.086886
213.5048	230.4046	262.7197	361.4762	390.6916	456.9834	482.1664	562.6985	636.8294	728.4389	767.1734	815.2791	839.1251	866.3473	883.2169	914.8809	937.1923	970.9274	976.8372	997.9555	1008.7884	1073.0345	1081.2359	1103.8957	1120.4725	1128.6933	1163.9234	1182.93	1206.9858	1224.8333	1231.9937	1256.6492	1273.3057	1312.7164	1319.3211	1339.4701	1384.014	1396.351	1489.1246	1512.3755	1523.6171	2990.6247	3042.3829	3058.0146	3067.1852	3096.73	3108.7706	3118.6652	3124.1902	3134.8037	3802.4266
OC12CC3C1OCC3C2	O[C@@]12C[C@H]3[C@@H]1OC[C@H]3C2	
InChI=1S/C7H10O2/c8-7-1-4-3-9-6(7)5(4)2-7/h4-6,8H,1-3H2	InChI=1S/C7H10O2/c8-7-1-4-3-9-6(7)5(4)2-7/h4-6,8H,1-3H2/t4-,5-,6+,7+/m1/s1
