14
gdb 27665	3.14738	1.28574	0.91475	3.0873	75.44	-0.1829	0.0234	0.2063	1190.0867	0.101125	-432.87256	-432.864053	-432.863109	-432.905264	32.091	
N	 0.0626189946	 1.3801168644	 0.2450377145	-0.608229
C	-0.0260511173	-0.0016096881	 0.0808712512	 0.364267
N	-1.108372329	-0.7230507118	 0.1142374519	-0.367233
C	-0.6764258335	-2.0540679364	 0.0111286488	 0.044589
C	-1.503392615	-3.1945812518	 0.0028387487	 0.173738
C	-2.151747959	-4.21254583	-0.0117875609	-0.432153
C	 0.6924114974	-2.0756656427	-0.0994502597	 0.307984
O	 1.5933299748	-3.0647480312	-0.2380619296	-0.428904
N	 1.1129702947	-0.7707684782	-0.0578877073	-0.337395
H	 0.5209072103	 1.8473811276	-0.5304172758	 0.248372
H	-0.870651484	 1.7585066576	 0.3570665145	 0.263134
H	-2.7436335911	-5.0934863371	-0.0228280252	 0.182712
H	 1.1022590203	-3.8966876539	-0.2550171799	 0.31459
H	 2.0694577167	-0.4632081282	-0.0018669613	 0.274527
121.3145	139.7222	220.5722	240.6296	299.5351	343.2401	380.6189	405.4118	431.1232	449.8131	501.3796	540.1806	613.6404	663.5808	683.8449	690.2418	712.5643	812.8814	832.4566	1018.9391	1130.2977	1153.9065	1203.9979	1272.1306	1322.5513	1470.3117	1529.1414	1612.8552	1637.2479	1664.3068	2216.1332	3502.9097	3511.1477	3610.8003	3665.8361	3783.5651
NC1=NC(C#C)=C(O)N1	Nc1nc(C#C)c(O)[nH]1	
InChI=1S/C5H5N3O/c1-2-3-4(9)8-5(6)7-3/h1,9H,(H3,6,7,8)	InChI=1S/C5H5N3O/c1-2-3-4(9)8-5(6)7-3/h1,9H,(H3,6,7,8)
