19
gdb 97789	3.24769	0.69694	0.60305	3.2214	88.28	-0.2374	-0.0189	0.2185	1868.321	0.15709	-385.868493	-385.858506	-385.857562	-385.905253	34.976	
C	 0.0094557522	 1.6630051933	 0.0054006728	-0.364664
C	 0.0198362093	 0.1235593391	-0.0311401723	-0.315695
C	-1.3195576035	-0.4559834479	-0.0303311959	 0.09821
C	-2.4336880777	-0.9165481806	-0.0290133349	 0.051414
C	-3.771554088	-1.4395109019	-0.0167467662	-0.189337
C	-4.3195369873	-2.1996480334	-1.1914319839	-0.296397
C	-4.0459562721	-2.9522272061	 0.09640283	-0.103261
C	-2.9099554695	-3.9025943489	 0.1359202618	 0.165843
O	-2.9112863424	-4.9324962365	 0.7640725182	-0.268906
H	 1.0326299852	 2.0500360615	 0.0032784668	 0.116625
H	-0.5154484498	 2.0690849818	-0.8634443894	 0.1285
H	-0.494691932	 2.0268978872	 0.9047088026	 0.129324
H	 0.561501373	-0.2176520698	-0.922699111	 0.13041
H	 0.5842251272	-0.2595862026	 0.8287751807	 0.132473
H	-4.4896301557	-0.8369481887	 0.5325197407	 0.124114
H	-5.3563473694	-2.0495507983	-1.4682394179	 0.132816
H	-3.6440161354	-2.3764602303	-2.0212614138	 0.135344
H	-4.8938017628	-3.2439711555	 0.7057460481	 0.112655
H	-2.0332987414	-3.5962164126	-0.4764208965	 0.080533
24.665	60.6693	108.5522	123.6239	162.4223	215.3879	279.0054	306.0077	343.2766	456.9633	487.6255	511.7808	568.2187	697.1106	786.7256	812.9833	852.2449	872.9335	938.8018	967.2975	1047.131	1057.8519	1079.5729	1084.7559	1104.8498	1124.2307	1160.2362	1185.5726	1230.1859	1286.1187	1338.6769	1348.6125	1389.9112	1409.4904	1441.565	1476.3667	1479.1554	1494.6073	1505.7299	1819.3236	2362.6135	2892.0188	3020.0996	3045.3669	3047.3327	3119.082	3124.3797	3141.0814	3143.8504	3185.1084	3233.3426
CCC#CC1CC1C=O	CCC#C[C@H]1C[C@H]1C=O	
InChI=1S/C8H10O/c1-2-3-4-7-5-8(7)6-9/h6-8H,2,5H2,1H3	InChI=1S/C8H10O/c1-2-3-4-7-5-8(7)6-9/h6-8H,2,5H2,1H3/t7-,8-/m0/s1
