18
gdb 124703	3.78703	0.98512	0.91573	3.2134	73.58	-0.2567	0.0011	0.2578	1308.9904	0.148299	-435.261302	-435.252486	-435.251542	-435.295829	31.775	
C	-0.1717698327	 1.5529335599	-0.0258929569	-0.400719
C	 0.0866881653	 0.0481032949	-0.0268681091	 0.016014
C	 0.8611666756	-0.4151930524	-1.2784559582	-0.073895
O	 0.1623064958	-0.1140018239	-2.4704265667	-0.405345
N	 0.7844121594	-0.3980122148	 1.1771294553	 0.06556
C	 1.8953445959	 0.0945662625	 1.7774113053	-0.102993
C	 2.1317445872	-0.7722078254	 2.8174579264	-0.068263
N	 1.1760594769	-1.7396175821	 2.8037180555	-0.193325
N	 0.364168006	-1.5151674227	 1.809680667	-0.146409
H	 0.7641852654	 2.1210125742	-0.0054745317	 0.121604
H	-0.6978215781	 1.8194411174	-0.9448101898	 0.145148
H	-0.7774702446	 1.8499336892	 0.833775618	 0.133745
H	-0.8661072017	-0.4903030576	 0.002690083	 0.112319
H	 1.8162192909	 0.1190406337	-1.338949299	 0.115615
H	 1.0825959761	-1.4870461574	-1.1857566354	 0.117579
H	-0.5695079776	-0.7338347419	-2.5542111112	 0.292632
H	 2.3986115387	 0.9829633597	 1.4373701632	 0.145289
H	 2.9126829115	-0.7535167332	 3.5602253543	 0.125444
35.5951	105.8635	108.5552	227.9042	241.1556	276.5646	315.6647	377.4897	391.2203	490.4115	666.7101	719.2042	735.0795	786.3933	860.1045	885.7609	917.8805	960.8381	1020.3185	1062.7581	1067.2209	1087.2094	1117.8945	1132.2792	1143.2485	1191.1815	1246.4497	1291.4544	1325.0902	1356.4274	1372.5709	1397.2522	1404.866	1419.7084	1487.483	1493.2319	1503.1606	1505.0076	1519.2175	3015.0198	3047.1602	3061.2863	3080.7334	3118.5272	3141.9832	3269.4667	3296.9343	3817.9949
CC(CO)N1C=CN=N1	C[C@@H](CO)n1ccnn1	
InChI=1S/C5H9N3O/c1-5(4-9)8-3-2-6-7-8/h2-3,5,9H,4H2,1H3	InChI=1S/C5H9N3O/c1-5(4-9)8-3-2-6-7-8/h2-3,5,9H,4H2,1H3/t5-/m0/s1
