25
gdb 100766	2.23964	1.02883	0.91359	2.2715	85.7	-0.2514	0.0731	0.3245	1505.0333	0.225586	-426.62768	-426.615889	-426.614945	-426.664861	42.775	
C	 0.206650475	 1.2662935691	-0.4934030785	-0.234882
O	 0.0726677562	-0.0970100458	-0.1664943298	-0.265416
C	-1.2659820847	-0.5599423272	 0.0226501635	 0.107264
C	-2.0214579052	-0.6949277974	-1.3007445823	-0.408054
C	-1.1110425023	-1.9199049675	 0.7315408788	 0.134986
O	-0.2960009686	-2.7627327983	-0.0768300045	-0.446175
C	-0.5638694243	-1.8220967707	 2.1744337664	 0.020523
C	-1.494998209	-1.0263135326	 3.1012848637	-0.400472
C	-0.31840143	-3.2256990718	 2.7452917593	-0.39015
H	 1.2759368248	 1.4929314692	-0.4965402653	 0.128281
H	-0.2023308567	 1.505793277	-1.484861243	 0.112129
H	-0.2888993431	 1.9096034748	 0.24976257	 0.106582
H	-1.7999705065	 0.1450533628	 0.6761407883	 0.067193
H	-1.5402306778	-1.4474051233	-1.9297381001	 0.135713
H	-3.0529717491	-1.009607259	-1.1121529486	 0.116199
H	-2.0608889738	 0.2534086861	-1.8436935265	 0.110536
H	-2.0967141146	-2.4034055451	 0.7658507627	 0.074187
H	 0.4749160813	-2.2289319003	-0.3087052989	 0.2869
H	 0.3983014856	-1.2967687113	 2.1143344295	 0.076201
H	-2.5026330326	-1.4604584762	 3.1144540881	 0.110361
H	-1.1181213146	-1.0478763768	 4.1289009411	 0.112867
H	-1.5863503737	 0.0243186055	 2.8116321878	 0.111346
H	 0.3190177225	-3.8122765643	 2.0817328692	 0.127491
H	 0.1561755374	-3.1665197593	 3.7302077545	 0.101663
H	-1.2646604361	-3.7681580274	 2.8658769545	 0.104727
41.2194	74.2738	92.6742	167.6786	199.4596	204.5622	219.3711	229.014	245.5452	290.331	328.2153	359.3306	396.2464	406.8758	448.8885	497.4085	502.3019	689.8774	796.9882	853.7012	899.3647	930.5458	961.7368	981.368	1002.7184	1035.2163	1090.9242	1123.8208	1135.3248	1155.2759	1174.3309	1184.197	1189.0094	1213.6008	1277.7824	1306.4572	1348.9113	1352.9637	1372.9487	1390.1013	1397.842	1403.3978	1419.5436	1437.0623	1478.8671	1482.9707	1488.6877	1490.0068	1495.963	1503.0877	1505.6283	1513.3525	1515.2122	2982.9121	3000.6904	3016.9686	3024.3467	3025.2577	3034.8383	3035.6094	3047.1317	3085.9716	3093.4205	3105.1271	3109.5956	3111.2786	3135.18	3135.6752	3774.4563
COC(C)C(O)C(C)C	CO[C@@H](C)[C@@H](O)C(C)C	
InChI=1S/C7H16O2/c1-5(2)7(8)6(3)9-4/h5-8H,1-4H3	InChI=1S/C7H16O2/c1-5(2)7(8)6(3)9-4/h5-8H,1-4H3/t6-,7-/m0/s1
