18
gdb 37497	3.38028	2.25156	1.96268	1.8638	81.29	-0.1892	-0.0672	0.122	784.581	0.150696	-364.665575	-364.659858	-364.658914	-364.695021	25.793	
C	-0.0446400606	 1.4787515546	-0.0682299859	-0.187416
C	 1.4835088919	 1.4009656163	 0.0936113206	-0.051899
C	 1.2404424958	 0.0509375298	 0.8331793426	-0.006526
N	-0.0486799583	-0.0158237712	-0.0456145261	-0.097956
C	 0.6465605261	-0.4322418817	-1.2504791679	-0.021806
C	 1.3179370441	-1.7903896186	-0.7358727362	-0.240831
C	 2.2096274938	-0.9901909479	 0.2554514378	-0.063132
C	 2.9424598086	-0.3186211403	-0.7132430147	-0.063205
C	 1.9870477917	 0.7085486527	-1.179525568	-0.093714
H	-0.560175019	 1.8671476749	 0.814195418	 0.109036
H	-0.4545147914	 1.9353913251	-0.9755531318	 0.099769
H	 2.0883658849	 2.2191036885	 0.4866100106	 0.073197
H	 1.0068301416	 0.0483735742	 1.8960082786	 0.077139
H	 0.0030814724	-0.4221741978	-2.1357562982	 0.071656
H	 0.5540396795	-2.4381986274	-0.2958557305	 0.11502
H	 1.8680071251	-2.3322298728	-1.5068481739	 0.106962
H	 3.583664995	-0.8528794856	-1.4119392593	 0.104972
H	 2.1977087388	 1.3161367871	-2.0595126158	 0.068736
333.0368	387.384	431.2746	443.1724	474.5787	626.5951	639.0591	693.8173	768.2483	816.1138	823.5086	859.5261	874.2727	896.937	906.8163	919.8986	952.4012	959.9422	1002.7437	1021.5253	1028.1493	1053.6281	1070.4479	1109.3435	1111.803	1155.6102	1173.6531	1189.407	1207.5197	1223.2233	1248.0427	1256.0173	1265.39	1281.6265	1297.1553	1309.2578	1440.1579	1486.4886	1511.9211	3041.6068	3057.2797	3070.9401	3103.0733	3107.7625	3117.0233	3127.0136	3133.0945	3140.3562
C1C2C3N1C1CC3=CC21	C1[C@H]2[C@H]3N1[C@@H]1C[C]3[CH][C@H]21	
InChI=1S/C8H9N/c1-4-2-7-5(1)6-3-9(7)8(4)6/h1,5-8H,2-3H2	InChI=1S/C8H9N/c1-4-2-7-5(1)6-3-9(7)8(4)6/h1,5-8H,2-3H2/t5-,6-,7-,8+/m1/s1
