19
gdb 87524	3.4672	1.344	1.26627	2.9525	75.18	-0.2335	0.0832	0.3166	1078.6884	0.159612	-422.982127	-422.974439	-422.973495	-423.014108	30.428	
C	 0.0260754842	 1.5250444196	-0.1220015098	-0.41668
C	-0.0008939476	 0.0295962793	 0.0552348589	-0.07782
O	 1.2707327858	-0.6605090274	-0.0497615419	-0.316997
C	 0.6074301214	-0.6552286406	 1.1884744335	 0.541315
C	 1.1485865321	-0.1482520071	 2.5416581697	-0.192195
C	-0.1192626681	-0.8393477573	 3.1444020122	-0.242923
C	 0.1903192162	-1.869412519	 2.0255574193	-0.013403
O	 1.45042955	-2.4258025004	 2.4326684636	-0.280476
C	 2.2025916625	-1.2386677836	 2.7927539763	-0.075783
H	 0.8551761652	 1.9698200445	 0.4334837784	 0.127559
H	 0.1434349494	 1.7824419026	-1.1796571591	 0.133183
H	-0.9116263664	 1.9697994381	 0.2289398277	 0.12309
H	-0.8081051877	-0.4852808974	-0.4695878181	 0.09518
H	 1.419567542	 0.8875875804	 2.7365511698	 0.07969
H	-0.0526865104	-1.2103687266	 4.1686322279	 0.107192
H	-1.0358133762	-0.2702668754	 2.982025398	 0.106097
H	-0.4822392916	-2.6583870946	 1.6959894556	 0.08697
H	 3.0789881206	-1.1400671143	 2.1428581497	 0.11581
H	 2.5259248584	-1.3045111008	 3.8375311383	 0.100191
131.7319	153.2176	196.4029	231.8628	321.0025	394.7519	452.3318	463.0059	567.3032	631.7103	707.935	797.0902	822.7261	848.0408	912.3169	914.1744	950.866	953.9093	963.3616	1019.066	1041.3524	1043.3427	1068.2546	1088.0725	1115.2369	1124.8896	1142.8557	1182.0249	1195.0983	1227.2883	1244.4521	1255.5555	1281.2895	1344.0559	1375.5811	1408.7152	1473.7361	1480.9222	1491.4711	1517.9426	1548.9056	3030.5219	3037.4074	3075.5265	3078.1136	3088.7539	3101.1187	3128.3407	3139.9212	3145.941	3152.2718
CC1OC11C2CC1OC2	C[C@H]1O[C@]21[C@H]1C[C@@H]2OC1	
InChI=1S/C7H10O2/c1-4-7(9-4)5-2-6(7)8-3-5/h4-6H,2-3H2,1H3	InChI=1S/C7H10O2/c1-4-7(9-4)5-2-6(7)8-3-5/h4-6H,2-3H2,1H3/t4-,5+,6+,7-/m1/s1
