18
gdb 98626	4.19047	1.08038	0.98911	1.4624	73.91	-0.2386	-0.0022	0.2364	1244.8558	0.147743	-439.063746	-439.055234	-439.05429	-439.097683	30.913	
C	-0.5178710631	 1.4436671973	 0.3225281678	-0.242212
O	-0.3803320408	 0.0184516329	 0.3741894194	-0.234814
C	 0.8582187719	-0.4315624084	 0.6694447669	 0.461589
O	 1.7929164567	 0.3036015525	 0.8884125729	-0.379836
C	 0.8524193471	-1.9241286476	 0.6661831451	-0.129469
C	 1.9744500103	-2.7722333432	 0.179071996	-0.040677
C	 3.3594518189	-2.197480617	 0.4669999877	-0.246454
C	 2.9202125787	-2.1580464244	 1.9511967538	-0.147129
N	 1.5797709745	-2.7898237413	 1.634401661	-0.15735
H	 0.1472419857	 1.8688934667	-0.4333459881	 0.141078
H	-1.5600299741	 1.6310804203	 0.0642507891	 0.135161
H	-0.277167671	 1.8889461675	 1.2911332367	 0.142492
H	-0.1362449309	-2.3290204988	 0.4787266194	 0.114854
H	 1.7608671708	-3.6084521235	-0.4807176766	 0.100424
H	 4.1535783069	-2.9211122097	 0.2743121063	 0.108844
H	 3.6052560097	-1.2469951369	-0.0072896253	 0.128194
H	 3.4704570253	-2.8487656182	 2.5924208718	 0.11128
H	 2.8573502033	-1.1790622082	 2.4241060163	 0.134026
44.2687	107.5666	147.7669	176.8844	239.535	298.8721	362.7014	367.9672	444.5338	719.071	739.7713	755.6626	777.1007	790.1366	832.462	898.3798	955.6764	964.3694	1011.7571	1020.5413	1055.6212	1074.9595	1130.5716	1173.8253	1178.8066	1201.7455	1220.2345	1222.0031	1236.6267	1270.0761	1294.6701	1362.5033	1427.0287	1474.6141	1477.3143	1480.5622	1496.9257	1498.91	1799.178	3052.0075	3080.2762	3086.8689	3126.3349	3134.9446	3149.7619	3155.2254	3160.1998	3174.9744
COC(=O)C1C2CCN12	COC(=O)[C@H]1[C@H]2CCN12	
InChI=1S/C6H9NO2/c1-9-6(8)5-4-2-3-7(4)5/h4-5H,2-3H2,1H3	InChI=1S/C6H9NO2/c1-9-6(8)5-4-2-3-7(4)5/h4-5H,2-3H2,1H3/t4-,5-,7?/m1/s1
