21
gdb 52415	8.38199	0.46609	0.4581	3.0142	81.07	-0.2556	-0.0266	0.229	2350.0747	0.179533	-424.208476	-424.198072	-424.197128	-424.246062	35.582	
O	-0.1680426011	 0.182277649	 0.5306920267	-0.238294
C	 0.0526403618	 1.153062144	-0.1429050245	 0.139022
C	 1.4108740887	 1.8268879007	-0.232576555	-0.144058
O	 1.3017682142	 2.9213470927	-1.1013468289	-0.24862
C	 2.5138516069	 3.6314586429	-1.2752740437	-0.042608
C	 2.2668964898	 4.790079502	-2.2341219896	-0.228039
C	 3.5129073419	 5.6150426344	-2.4726420755	 0.031226
C	 4.5254619337	 5.1891395531	-3.509077691	-0.255545
C	 3.6719904038	 6.4115131651	-3.7415967892	-0.27646
H	-0.7280225693	 1.6447682469	-0.7643758832	 0.0961
H	 1.7232275957	 2.1290235259	 0.7822001753	 0.120224
H	 2.1498096237	 1.0863548178	-0.5850455158	 0.120234
H	 2.8757938386	 4.006382901	-0.3025300276	 0.088317
H	 3.2943993328	 2.9625458537	-1.6735633454	 0.094264
H	 1.8978730478	 4.3855576931	-3.1843141295	 0.103653
H	 1.4637780075	 5.4162285749	-1.8266430294	 0.108514
H	 3.9238370502	 6.074863543	-1.5766173027	 0.082631
H	 5.5794209125	 5.3277806291	-3.2953003045	 0.112183
H	 4.3055946262	 4.302283019	-4.0950397195	 0.111267
H	 2.8824060784	 6.3444347294	-4.482923424	 0.113016
H	 4.1415431862	 7.3870689923	-3.6824171929	 0.112973
37.3483	56.5398	72.9288	87.8411	120.7572	138.4144	198.5099	281.0678	353.8411	396.9617	481.0169	566.545	740.0077	776.8974	788.223	828.4937	843.0164	918.6361	965.5335	1010.2298	1041.3809	1054.4037	1065.3732	1079.1815	1110.142	1116.2752	1141.7782	1174.2797	1195.6348	1199.1415	1228.8795	1235.7471	1256.0645	1301.5342	1316.2704	1348.0173	1400.0669	1415.8851	1437.4727	1469.743	1481.9172	1489.6397	1508.6377	1527.5394	1845.0617	2898.7099	2951.4823	2961.132	2981.4927	2987.9585	3029.5248	3070.3857	3128.4867	3130.0782	3134.8318	3206.8827	3222.1408
O=CCOCCC1CC1	O=CCOCCC1CC1	
InChI=1S/C7H12O2/c8-4-6-9-5-3-7-1-2-7/h4,7H,1-3,5-6H2	InChI=1S/C7H12O2/c8-4-6-9-5-3-7-1-2-7/h4,7H,1-3,5-6H2
