16
gdb 27805	2.02986	1.80827	0.96268	7.3584	77.27	-0.2155	-0.0263	0.1892	1172.9628	0.125503	-434.151277	-434.142847	-434.141902	-434.184511	31.548	
C	-0.0014957111	 1.4937810898	-0.0000937197	-0.474865
C	-0.0006743392	-0.013984529	-0.0005454569	 0.34033
N	-0.0004647446	-0.604154266	-1.1774367367	-0.393736
C	-0.0019810591	-1.9760520561	-1.2475699614	 0.430334
O	-0.0095299959	-2.6401946807	-2.2619160051	-0.393598
N	 0.0053930571	-2.6703681112	 0.0027452151	-0.403405
C	 0.0042439116	-2.0674605845	 1.2149306481	 0.46728
N	-0.0513543022	-2.8705791239	 2.3258547502	-0.579427
C	 0.005950019	-0.691310615	 1.2435070763	-0.280769
H	 0.879390982	 1.8807744798	 0.5244178881	 0.13142
H	-0.0019298289	 1.8631969658	-1.0253377587	 0.149396
H	-0.8828701852	 1.8789677873	 0.5248821824	 0.132831
H	-0.0361380434	-3.6763170748	-0.0831050068	 0.256293
H	 0.3270935204	-3.8023094706	 2.2457410579	 0.262531
H	 0.1661482941	-2.4212646132	 3.2014894327	 0.269868
H	 0.0128800255	-0.1557474879	 2.1830723044	 0.085518
67.7326	132.9146	172.3952	225.7412	296.9176	324.36	350.2183	494.803	518.1282	530.9816	577.6202	593.3543	627.1287	644.1533	711.0448	771.1127	805.4011	922.2321	991.5973	1013.242	1054.6571	1074.4859	1101.9387	1137.1233	1233.147	1323.1081	1392.705	1445.0904	1461.5248	1483.7785	1497.7221	1600.9803	1649.8119	1673.0941	1809.2894	3036.6956	3091.4084	3157.6234	3216.6531	3583.1133	3604.5493	3690.0452
CC1=NC(=O)NC(N)=C1	Cc1nc(=O)[nH]c(N)c1	
InChI=1S/C5H7N3O/c1-3-2-4(6)8-5(9)7-3/h2H,1H3,(H3,6,7,8,9)	InChI=1S/C5H7N3O/c1-3-2-4(6)8-5(9)7-3/h2H,1H3,(H3,6,7,8,9)
