21
gdb 64927	4.04926	0.70708	0.65981	0.1706	95.7	-0.2247	0.0535	0.2781	1802.1081	0.18153	-349.90879	-349.899069	-349.898125	-349.945044	36.004	
C	 0.1113821123	 1.3598848153	-0.4512365154	-0.454804
C	 0.0327241586	-0.0824038267	 0.0291071754	 0.186345
C	 1.3369373467	-0.8478649382	 0.2104435818	-0.286659
C	 0.5658670218	-0.4015711536	 1.4195969115	-0.285946
C	-1.1150453148	-0.8228319689	-0.4277084814	 0.001279
C	-2.0857051599	-1.419052091	-0.8278464208	 0.090671
C	-3.2396459967	-2.1335179153	-1.2914800355	-0.159907
C	-3.612746132	-2.1124026804	-2.7663316562	-0.250793
C	-3.0783337002	-3.3742419929	-2.1574828492	-0.251165
H	 1.0102128884	 1.8491804554	-0.062658935	 0.109342
H	 0.1436129291	 1.4064263834	-1.544392675	 0.123206
H	-0.7600535745	 1.9308442984	-0.1155380501	 0.12473
H	 1.3366782135	-1.9028096957	-0.0359626213	 0.120874
H	 2.2539541557	-0.3245320801	-0.0391272121	 0.112762
H	 0.9520421082	 0.4296534849	 2.0000664668	 0.112959
H	 0.0399284798	-1.1518606004	 1.9974547289	 0.122077
H	-4.078121806	-2.1544310802	-0.6004959445	 0.105439
H	-4.6677278085	-2.0595439709	-3.010805881	 0.115695
H	-2.9644089326	-1.5510668223	-3.428270817	 0.124473
H	-2.066423846	-3.6710505299	-2.4055684412	 0.123858
H	-3.7629720927	-4.1961641109	-1.9804416689	 0.115564
16.585	81.3652	88.0224	194.6884	197.4046	230.4139	302.9146	337.7306	446.0741	462.7211	540.1639	552.8998	593.1655	769.6723	787.7574	808.3801	821.2309	837.4727	895.1735	904.0439	941.5044	951.6422	1023.6393	1044.7111	1060.528	1074.4718	1076.4748	1077.5703	1116.162	1119.2314	1153.6387	1193.7256	1200.7248	1217.9927	1292.3678	1335.5259	1403.6909	1413.8146	1464.3455	1466.0215	1486.3755	1495.3423	1497.0348	1503.1012	2350.9223	3032.1995	3103.1429	3104.8352	3134.3419	3136.3417	3139.2066	3139.6221	3145.1228	3220.1642	3224.5048	3234.6878	3239.6451
CC1(CC1)C#CC1CC1	CC1(CC1)C#CC1CC1	
InChI=1S/C9H12/c1-9(6-7-9)5-4-8-2-3-8/h8H,2-3,6-7H2,1H3	InChI=1S/C9H12/c1-9(6-7-9)5-4-8-2-3-8/h8H,2-3,6-7H2,1H3
