21
gdb 99288	2.62307	0.97351	0.87074	1.6684	78.98	-0.232	-0.0163	0.2157	1461.8759	0.179482	-424.218256	-424.207938	-424.206994	-424.255901	36.365	
C	 0.6834384529	 1.2427839194	-1.0699157021	-0.380432
C	 0.9437935154	-0.2335239193	-0.7829082009	-0.274483
C	-0.0557392937	-1.1665104305	-1.4466506562	 0.358082
O	-1.0646289468	-0.7730208018	-1.9851537805	-0.295714
C	 0.2309087347	-2.6721175879	-1.3365250357	-0.170101
O	 1.5808274498	-3.0277189803	-1.584416213	-0.245216
C	 1.8579248832	-3.2553412714	-2.9366453371	 0.145574
C	 2.2366676493	-2.1185775584	-3.8527241391	-0.292161
C	 3.2792800103	-3.1072365783	-3.3640719996	-0.290249
H	 0.7770265957	 1.4568558594	-2.1385186778	 0.126466
H	-0.3292837279	 1.5243862186	-0.7720703594	 0.134728
H	 1.3951605988	 1.8739151337	-0.5306342594	 0.110574
H	 1.9542352574	-0.542876979	-1.0700384674	 0.130511
H	 0.8913949373	-0.439421641	 0.2971019813	 0.122983
H	 0.0160055514	-2.9780670443	-0.3038374216	 0.121841
H	-0.4631225437	-3.1996628409	-2.0020391294	 0.115987
H	 1.2730371321	-4.0689523184	-3.3663274827	 0.092992
H	 1.9133836467	-2.1640992564	-4.886817388	 0.119817
H	 2.2730555702	-1.1185531678	-3.4371046462	 0.123253
H	 3.9738919545	-2.7559385323	-2.6095746986	 0.126704
H	 3.6906250924	-3.8298520131	-4.0593864865	 0.118844
19.4151	51.1521	59.148	96.9364	179.2974	206.4599	252.8836	275.8003	400.1539	410.111	462.9788	557.9278	591.7731	738.5972	752.7728	771.3669	811.2538	825.166	925.8882	963.3908	981.001	997.3593	1050.4226	1073.1986	1077.8752	1097.203	1114.8385	1130.5622	1157.8803	1191.7612	1201.1073	1243.8604	1268.91	1301.584	1361.9657	1370.3576	1404.925	1413.4676	1450.1819	1459.6545	1470.0133	1492.9485	1498.1209	1499.9465	1811.146	3009.6657	3016.0014	3049.7078	3069.5289	3077.8225	3098.4499	3117.0652	3129.4103	3140.1359	3144.019	3222.618	3236.1933
CCC(=O)COC1CC1	CCC(=O)COC1CC1	
InChI=1S/C7H12O2/c1-2-6(8)5-9-7-3-4-7/h7H,2-5H2,1H3	InChI=1S/C7H12O2/c1-2-6(8)5-9-7-3-4-7/h7H,2-5H2,1H3
