17
gdb 24625	4.19084	1.38322	1.14367	3.9636	79.52	-0.2136	0.0421	0.2557	1066.2508	0.13812	-380.854999	-380.847858	-380.846913	-380.886966	27.944	
C	 0.1615839675	 1.6080654786	 0.2667843933	-0.321077
C	 1.3315006833	 0.7152196438	-0.1204965831	-0.321069
C	-0.0305852518	 0.1385595721	 0.0841931716	 0.379122
C	-0.5250127919	-0.9478882108	 1.0951095412	-0.466497
C	-1.3139281718	-1.464039343	-0.0983132147	 0.375746
N	-2.1439990241	-2.3096609297	-0.6580062246	-0.376285
C	-2.2147570469	-1.8363177063	-1.9610821929	-0.090065
C	-1.4279733277	-0.7163752586	-2.1682228203	-0.184277
N	-0.8593167036	-0.5057569645	-0.9340456785	-0.015843
H	 0.1235039231	 2.0029794048	 1.2763551921	 0.129208
H	-0.2414788539	 2.2704089117	-0.4914251035	 0.130393
H	 1.7056766569	 0.7843922633	-1.1360003444	 0.130393
H	 2.0897138668	 0.5024179793	 0.6254714238	 0.129206
H	 0.2580250028	-1.6090517374	 1.4750099101	 0.133132
H	-1.1153401921	-0.5610381109	 1.9296579613	 0.133123
H	-2.835496731	-2.3319864834	-2.6927833656	 0.106228
H	-1.2490076155	-0.1056722988	-3.0360745559	 0.128561
54.5165	175.1313	218.3676	289.312	436.7397	503.1691	511.6648	618.6319	694.3441	711.091	712.3479	765.5396	830.6759	852.9315	854.9769	923.1292	940.3751	981.211	1037.7652	1037.972	1054.7973	1077.0762	1103.1278	1129.3831	1141.6039	1184.9534	1185.5247	1224.3098	1263.202	1349.2904	1407.7384	1429.4296	1455.485	1467.8617	1487.1437	1501.4296	1585.5531	3064.8416	3114.7982	3134.4736	3136.9641	3215.9891	3229.5448	3245.1673	3288.2033
C1CC11CC2=NC=CN12	C1CC21Cc1nccn21	
InChI=1S/C7H8N2/c1-2-7(1)5-6-8-3-4-9(6)7/h3-4H,1-2,5H2	InChI=1S/C7H8N2/c1-2-7(1)5-6-8-3-4-9(6)7/h3-4H,1-2,5H2
