23
gdb 93667	2.40326	1.36081	1.17283	1.8906	80.47	-0.25	0.0675	0.3175	1198.5095	0.204726	-425.443854	-425.433788	-425.432844	-425.477997	39.101	
C	 0.5005981343	 1.7523568859	-0.1195008364	-0.4148
C	 0.1200352145	 0.2773048829	 0.0518671547	-0.019758
C	 0.5990373773	-0.5971807145	-1.1264847603	 0.124955
O	 0.4129936333	 0.0838078464	-2.3594248876	-0.441568
C	 2.0808143493	-0.9206349214	-0.8009865114	-0.246046
C	 2.2181627383	-0.7570573777	 0.7336387875	-0.242241
C	 0.7950037046	-0.4222456838	 1.2530242166	 0.390887
C	 0.7865170643	 0.3543418846	 2.5673729323	-0.456749
O	 0.042911023	-1.6383295784	 1.4147836488	-0.479737
H	 1.5854990203	 1.9005471	-0.1541796609	 0.109601
H	 0.0902406389	 2.1323121761	-1.0568540099	 0.137555
H	 0.1052743704	 2.358626396	 0.7003081884	 0.1088
H	-0.965898822	 0.2011224472	 0.1647696548	 0.078627
H	 0.0140730494	-1.5244506779	-1.1184879322	 0.081934
H	 0.621514096	-0.5291869592	-3.0702904401	 0.280715
H	 2.3626482297	-1.9201371	-1.1441555343	 0.090835
H	 2.715560427	-0.2050870758	-1.3322848535	 0.104062
H	 2.5978421242	-1.6567742362	 1.2292245045	 0.082326
H	 2.9125656959	 0.0520287544	 0.9804329294	 0.098863
H	 1.3262997441	 1.3016250925	 2.4888488989	 0.118818
H	-0.2405082444	 0.5600146647	 2.8836350879	 0.122007
H	 1.2700792175	-0.2342712508	 3.3571793156	 0.099815
H	 0.4720924739	-2.1572682751	 2.1032963272	 0.271099
76.1993	123.6544	221.0917	225.6027	242.2765	255.3276	302.1258	304.6741	315.3456	350.9268	375.0148	442.6847	470.8453	531.7277	609.1034	626.3914	760.3416	797.2567	829.7238	877.5678	929.4235	974.9106	984.2732	1000.0817	1044.0884	1058.2564	1076.9719	1097.369	1128.4639	1164.2315	1187.2181	1215.9145	1250.7949	1258.5865	1274.6294	1294.0969	1335.9622	1355.0579	1370.8654	1387.0275	1403.1563	1408.9425	1434.4094	1477.0101	1489.1567	1491.1772	1503.0175	1506.1123	1510.7433	3025.7321	3026.8169	3039.8808	3042.0244	3054.9783	3061.7878	3074.8679	3091.6189	3099.9773	3106.7719	3121.8833	3134.7796	3804.3754	3829.2117
CC1C(O)CCC1(C)O	C[C@H]1[C@@H](O)CC[C@]1(C)O	
InChI=1S/C7H14O2/c1-5-6(8)3-4-7(5,2)9/h5-6,8-9H,3-4H2,1-2H3	InChI=1S/C7H14O2/c1-5-6(8)3-4-7(5,2)9/h5-6,8-9H,3-4H2,1-2H3/t5-,6-,7-/m0/s1
