16
gdb 128056	4.37713	1.10446	0.8869	8.796	79.94	-0.2159	-0.0393	0.1765	1260.5978	0.126431	-430.274354	-430.265574	-430.26463	-430.308489	30.603	
C	-0.0544815803	 1.4111880675	 0.0789647514	-0.351339
N	 0.0331054802	-0.0260737571	-0.0571516594	-0.304669
C	 0.6125735572	-0.6763065426	-1.0666240283	 0.371394
N	 1.1855163676	-0.0355402696	-2.089170727	-0.547277
H	 1.5929657261	-0.6252299031	-2.8015293251	 0.299616
H	 1.2173104901	 0.963957368	-2.1734560395	 0.274087
C	 0.6236388766	-2.0961860847	-1.0583718322	 0.325291
N	 1.1857142911	-2.844133199	-2.0391546449	-0.366234
C	 0.931659145	-4.0655271425	-1.5664612845	 0.000689
N	 0.2641210264	-4.0846416824	-0.3817864416	-0.228073
N	 0.066318914	-2.8061373432	-0.0569109617	-0.317795
H	 0.9390984465	 1.8737741046	 0.132885793	 0.145729
H	-0.6109533351	 1.8625808239	-0.7520832321	 0.1455
H	-0.5841641493	 1.6435208375	 1.0029403084	 0.162222
H	-0.355585754	-0.644234748	 0.6449862279	 0.291369
H	 1.2261546778	-4.9758516394	-2.0704093144	 0.09949
80.8461	95.0058	111.1197	144.7298	193.0921	255.0519	276.1876	411.8143	496.4728	587.9301	670.9789	673.0156	704.0535	744.6531	786.3713	894.6544	965.9792	1002.6235	1040.3073	1107.9333	1152.2931	1152.9038	1170.0089	1196.7294	1275.8982	1305.9573	1367.4522	1435.4381	1459.1133	1488.1485	1488.3552	1514.7512	1564.1312	1667.0223	1668.1355	3014.1684	3065.0335	3148.9487	3238.0982	3567.2932	3577.4477	3736.5027
CNC(=[NH2+])C1=NC=N[N-]1	CNC(=[NH2])c1ncnn1	
InChI=1S/C4H6N5/c1-6-3(5)4-7-2-8-9-4/h2H,1H3,(H2-,5,6,7,8,9)/q-1/p+1	InChI=1S/C4H8N5/c1-6-3(5)4-7-2-8-9-4/h2,6H,5H2,1H3,(H,7,8,9)
