24
gdb 58230	2.5077	1.16414	1.05479	1.726	84.68	-0.2367	0.0513	0.288	1325.2245	0.215555	-405.529265	-405.518433	-405.517489	-405.564443	40.835	
C	-0.1091780357	 1.6573145203	-0.100186189	-0.417039
C	-0.0614971391	 0.1209776626	-0.0381717313	-0.002765
C	-1.4744233929	-0.479485002	-0.0002176136	-0.391886
C	 0.7695128801	-0.5027800522	-1.1826406296	 0.05129
O	 0.1838050594	-0.2519075656	-2.4607856592	-0.441624
C	 2.2557683254	-0.1063698368	-1.1778810759	 0.326282
C	 2.9898789488	-0.3050979597	 0.1329896801	-0.456608
C	 3.0095306237	-0.2747104084	-2.4453139581	-0.280981
N	 2.6806919904	 1.0790764145	-1.9457087037	-0.354571
H	 0.8905063486	 2.0991480093	-0.1254838192	 0.146172
H	-0.6571482114	 2.0195316135	-0.9810660199	 0.100226
H	-0.6382152114	 2.0562623861	 0.7705975149	 0.120884
H	 0.4408563462	-0.1561411425	 0.89562024	 0.087458
H	-2.0191172092	-0.2731616088	-0.9271251982	 0.114599
H	-1.4393301677	-1.5666779039	 0.1241959247	 0.115293
H	-2.0529583171	-0.0628345603	 0.8302631438	 0.110752
H	 0.7307249957	-1.5941433816	-1.0570346296	 0.084243
H	-0.2743621135	 0.5931309669	-2.4242963444	 0.285232
H	 2.8706744836	-1.3318325702	 0.4987349569	 0.112058
H	 4.056918034	-0.1132814566	-0.0022990383	 0.126233
H	 2.6305503493	 0.376316043	 0.9106120998	 0.120484
H	 4.064974803	-0.531388498	-2.4110582996	 0.105932
H	 2.4679623035	-0.6336723788	-3.3139506249	 0.123979
H	 1.8881392363	 1.4120411592	-2.4912542058	 0.214359
79.669	90.8065	173.9202	199.172	209.9632	223.0097	242.2106	271.0828	303.5349	326.8354	335.74	377.7756	390.0054	458.3853	520.3389	630.0311	751.1421	798.5519	847.2949	900.1325	931.2899	936.9831	966.4659	974.5191	994.4176	1014.8368	1040.4437	1079.7116	1093.9882	1120.5732	1138.6227	1170.8657	1202.846	1253.9943	1274.4114	1305.9033	1337.65	1357.7888	1371.6638	1381.4882	1404.5337	1411.7912	1422.1876	1427.3615	1484.0714	1487.7347	1494.1365	1499.3303	1502.6419	1508.8984	1510.3814	3003.6525	3014.2349	3030.1925	3034.9187	3045.1672	3083.0931	3093.4637	3103.3148	3107.1909	3113.8212	3119.2051	3119.8824	3209.228	3485.7057	3823.6869
CC(C)C(O)C1(C)CN1	CC(C)[C@@H](O)[C@@]1(C)CN1	
InChI=1S/C7H15NO/c1-5(2)6(9)7(3)4-8-7/h5-6,8-9H,4H2,1-3H3	InChI=1S/C7H15NO/c1-5(2)6(9)7(3)4-8-7/h5-6,8-9H,4H2,1-3H3/t6-,7-/m1/s1
