21
gdb 36878	4.49324	0.9637	0.93362	1.6606	83.92	-0.226	0.0886	0.3146	1347.9158	0.184268	-383.14632	-383.13835	-383.137405	-383.17978	30.994	
C	-0.0759317353	 1.6290176452	 0.019186669	-0.219242
C	-0.0039122803	 0.1264479962	-0.1970339251	 0.106248
C	-1.2186388839	-0.8295978279	-0.1009714818	-0.085946
C	-1.6351634021	-0.2662016543	-1.4751858483	-0.177468
N	-0.1102724869	-0.4276583971	-1.6467888352	-0.154757
C	-0.3350506217	-1.7782315257	-0.9406539461	-0.164796
N	 1.2436241522	 2.2158124261	-0.1968383989	-0.065385
C	 1.5721778099	 2.5652377374	-1.5764132101	-0.203453
C	 1.273934125	 3.6249278655	-0.5746412236	-0.227422
H	-0.8460595052	 2.1051595872	-0.6085856816	 0.083459
H	-0.3570099	 1.8147032003	 1.0645565978	 0.106564
H	 0.9094653995	-0.2344741054	 0.2876175042	 0.083347
H	-1.8437153047	-1.0608535181	 0.7697269955	 0.061552
H	-2.2086262634	-0.9192067968	-2.1390763658	 0.099347
H	-1.9956164693	 0.7601983082	-1.5469444876	 0.099864
H	 0.5691288649	-2.1872776862	-0.4817795258	 0.101753
H	-0.8343315491	-2.517603267	-1.5725124133	 0.098316
H	 2.5953446178	 2.3645931796	-1.8800944831	 0.116345
H	 0.8258956366	 2.3673400237	-2.3423535303	 0.121051
H	 0.324465828	 4.1500279251	-0.6711262417	 0.105602
H	 2.073724658	 4.2137152439	-0.1342878983	 0.115021
47.3332	77.5061	144.8039	289.1142	345.2826	350.6223	414.2532	603.0596	614.5487	739.2473	763.4597	779.9457	797.2346	830.3292	879.6	903.0276	918.4175	938.8978	1005.2681	1021.2168	1026.9205	1046.0201	1059.0326	1092.7947	1111.5502	1115.224	1125.5254	1152.6626	1163.4496	1173.0897	1182.775	1193.4352	1199.5855	1230.9165	1255.9001	1273.4389	1294.7501	1321.1058	1361.9425	1441.8423	1483.4959	1493.3765	1517.0222	1521.3511	1555.0558	2968.6897	3027.687	3032.8106	3050.6448	3057.5255	3067.5528	3091.6892	3108.605	3118.3515	3133.0467	3176.5157	3195.8187
C(C1C2CN1C2)N1CC1	C([C@H]1[C@H]2CN1C2)N1CC1	
InChI=1S/C7H12N2/c1-2-8(1)5-7-6-3-9(7)4-6/h6-7H,1-5H2	InChI=1S/C7H12N2/c1-2-8(1)5-7-6-3-9(7)4-6/h6-7H,1-5H2/t7-/m0/s1
