18
gdb 127581	3.26539	1.36045	0.97189	2.8043	86.15	-0.2015	-0.0441	0.1574	1212.6364	0.148803	-398.15322	-398.144675	-398.14373	-398.186311	31.951	
C	-0.0663330079	 1.416437943	-0.0216184511	-0.303841
N	-0.0286646475	-0.0385995747	 0.0082728946	-0.029067
N	-0.1157135459	-0.6556252386	-1.1720023328	-0.207307
C	-0.0864889249	-1.9555391559	-1.1969108941	-0.069303
C	 0.0348079822	-2.7702455964	-0.0200857081	 0.289081
C	 0.0592537888	-4.2671724291	-0.1537060538	-0.494675
C	 0.1218166535	-2.1236772665	 1.167381199	-0.270572
C	 0.0945674419	-0.6755983706	 1.2555014975	 0.387163
N	 0.1671215433	 0.0717526214	 2.3024689593	-0.575972
H	 0.8468795026	 1.8232128615	 0.4211670949	 0.14841
H	-0.1641161888	 1.7173937951	-1.0630718256	 0.138535
H	-0.9078782847	 1.7808526195	 0.5737489613	 0.148445
H	-0.1607657835	-2.4038367451	-2.1821231365	 0.115499
H	 0.895819204	-4.5898990636	-0.7839912801	 0.1411
H	 0.1558893567	-4.7540701738	 0.8192907632	 0.131523
H	-0.8574049551	-4.6321656751	-0.6309742751	 0.141125
H	 0.21566858	-2.6695383864	 2.1013087365	 0.103755
H	 0.2530591752	-0.5086461848	 3.1350418507	 0.206102
111.1733	118.3341	152.4012	194.2974	270.8589	287.8655	349.446	423.6439	466.3111	498.4993	608.3999	624.5452	735.4119	741.6156	769.8769	775.7651	867.6902	901.9222	968.4801	1040.6565	1045.669	1064.5524	1102.6793	1151.846	1189.2719	1245.248	1295.6301	1343.8245	1398.1928	1415.3168	1428.3119	1445.8301	1466.8155	1479.4301	1487.3295	1506.8882	1569.8451	1631.9398	1700.9971	3032.0553	3053.9969	3085.4155	3113.2335	3124.8729	3176.0684	3176.3334	3183.7841	3494.1911
CN1N=CC(C)=CC1=N	CN1N=C[C@H](C)C=C1[NH]	
InChI=1S/C6H9N3/c1-5-3-6(7)9(2)8-4-5/h3-4,7H,1-2H3	InChI=1S/C6H10N3/c1-5-3-6(7)9(2)8-4-5/h3-5,7H,1-2H3/t5-/m1/s1
