18
gdb 54395	3.28246	1.37107	1.25768	1.766	76.31	-0.2391	-0.0213	0.2178	1063.2209	0.147274	-401.90941	-401.901273	-401.900329	-401.943059	30.914	
C	-0.0684288128	 1.4934939546	-0.1335550005	-0.485128
C	 0.0568987265	-0.0060649033	 0.0417246203	 0.226567
O	 1.1181724687	-0.5671748303	 0.1967421267	-0.292277
C	-1.2355138034	-0.7842390013	 0.0235855642	 0.235436
C	-1.3690730096	-2.2461438264	 0.55116772	-0.259859
C	-2.8538474699	-1.75933091	 0.6203966727	-0.071325
N	-2.3522005288	-0.3626958911	 0.9918653829	-0.356071
C	-3.1544474367	-1.5250508445	-0.8641083877	-0.059638
C	-2.0716702229	-0.8644802229	-1.2728696339	-0.100485
H	 0.900772828	 1.9690893516	 0.0200983699	 0.139001
H	-0.4309866515	 1.7194304173	-1.1434444034	 0.144227
H	-0.8151845304	 1.8957606264	 0.5581436108	 0.156882
H	-1.1163652231	-3.0682622372	-0.1221474912	 0.10528
H	-0.9047485781	-2.3851038635	 1.5323299208	 0.103572
H	-3.6102226636	-2.2140173934	 1.2585968155	 0.075564
H	-1.9582690956	-0.441449056	 1.936493463	 0.209677
H	-4.0380382681	-1.8317246233	-1.4037512503	 0.11343
H	-1.7965271387	-0.4703474466	-2.2396923598	 0.115149
29.8025	103.7402	160.4725	178.2441	341.6924	423.8819	485.7222	532.3712	569.0185	605.6389	614.8411	705.7177	733.0496	831.8922	859.3494	891.1823	900.5242	906.8358	935.2734	944.4411	1015.8383	1032.7706	1047.9214	1057.0629	1091.522	1135.3345	1164.1264	1193.6895	1224.8492	1255.6973	1278.4443	1334.4279	1355.1637	1384.5485	1460.278	1465.7294	1499.9043	1622.9064	1806.6203	3039.2507	3052.1478	3101.815	3120.7201	3130.992	3156.0089	3231.798	3258.7044	3373.7495
CC(=O)C12CC(N1)C=C2	CC(=O)[C@@]12C[C@@H](N1)C=C2	
InChI=1S/C7H9NO/c1-5(9)7-3-2-6(4-7)8-7/h2-3,6,8H,4H2,1H3	InChI=1S/C7H9NO/c1-5(9)7-3-2-6(4-7)8-7/h2-3,6,8H,4H2,1H3/t6-,7+/m0/s1
