16
gdb 127101	3.76916	1.28608	0.97086	7.1549	77.02	-0.2382	-0.0683	0.1699	1167.7587	0.123502	-430.19307	-430.184299	-430.183355	-430.227751	30.068	
C	 0.0128722486	 1.4408535859	 0.0095171592	-0.34749
N	-0.0049621251	-0.0133235884	-0.0173855956	-0.125962
C	 1.2739851881	-0.7087655848	 0.0772643965	-0.35872
C	-1.1784125949	-0.6848025398	-0.0163354285	 0.474826
C	-2.4434643224	-0.0503617756	-0.0153965366	-0.058309
N	-3.5457633591	-0.7612744836	-0.0542153051	-0.167961
N	-3.4688889629	-2.0994682916	-0.0859762705	-0.095205
N	-2.300250602	-2.6935638257	-0.0511528816	-0.059861
N	-1.16054548	-2.0300605907	-0.0123961746	-0.2818
H	 1.0398362536	 1.7767966773	-0.1383772724	 0.145479
H	-0.5975963047	 1.8634114403	-0.7954476681	 0.14795
H	-0.3440632873	 1.8435253509	 0.9665181991	 0.142082
H	 1.7673674806	-0.4826199012	 1.03038529	 0.134268
H	 1.1015298268	-1.7805398487	 0.0104319737	 0.188761
H	 1.9319381253	-0.3934956579	-0.7395349486	 0.134432
H	-2.5660993545	 1.0269366136	 0.0246638332	 0.127511
46.2975	75.1077	97.6643	140.881	220.8704	251.5971	371.4066	377.006	491.9689	546.444	558.5431	675.2492	806.3438	826.6076	922.9224	931.5835	983.5534	1062.0436	1088.7708	1095.4877	1130.0106	1167.8754	1199.2832	1246.8921	1295.2259	1370.238	1441.3164	1452.0547	1485.8009	1490.2436	1493.3391	1503.0556	1513.0094	1536.2925	1615.3722	3014.9666	3025.801	3077.4551	3080.6707	3140.237	3180.0932	3181.6597
CN(C)C1=CN=NN=N1	CN(C)c1cnnnn1	
InChI=1S/C4H7N5/c1-9(2)4-3-5-7-8-6-4/h3H,1-2H3	InChI=1S/C4H7N5/c1-9(2)4-3-5-7-8-6-4/h3H,1-2H3
