18
gdb 75110	3.12921	1.2831	1.00492	3.0971	83.44	-0.2125	-0.0196	0.1929	1198.4494	0.149256	-402.009785	-402.001587	-402.000642	-402.04242	31.551	
C	-0.0015939199	 1.5549382651	-0.0844241077	-0.481574
C	-0.0223660283	 0.0476332991	 0.0046669373	 0.30725
C	-1.1735445196	-0.6386178504	 0.1197050588	-0.191102
C	-1.2474489162	-2.1415289461	 0.0824263677	-0.360137
C	-0.6003736994	-2.7677111852	 1.3109013751	 0.385599
O	-1.1805404929	-3.4411366209	 2.1339955214	-0.352716
N	 0.7668816434	-2.5394834657	 1.4134237652	-0.317603
C	 1.5969285965	-1.7549326158	 0.6241961986	-0.006068
C	 1.2708874224	-0.6193848455	-0.0255687631	-0.17012
H	 0.5523696226	 1.9991066478	 0.7507777681	 0.130178
H	 0.4984973094	 1.8827065655	-1.0044064487	 0.125574
H	-1.0125365913	 1.9695423332	-0.0842083409	 0.124141
H	-2.1098021171	-0.0991306037	 0.2298585773	 0.092996
H	-2.2784115664	-2.4936445882	 0.0525436439	 0.128092
H	-0.7199424478	-2.5208615147	-0.8037812598	 0.126118
H	 1.2029644246	-3.1057618605	 2.1276404788	 0.255574
H	 2.6222737161	-2.1117390587	 0.5940181288	 0.113688
H	 2.082495254	-0.1176957355	-0.5452931706	 0.09011
100.5247	159.2001	161.8986	251.8455	310.3372	337.5273	395.717	401.4661	499.4082	546.0579	624.2945	639.6416	715.9055	731.5859	783.2371	821.8022	894.8831	914.8092	953.6587	960.182	1001.7728	1067.0738	1082.9391	1100.4414	1172.7871	1214.9021	1258.6104	1308.3532	1318.3035	1365.8491	1410.5914	1459.4783	1463.0894	1477.7604	1483.2568	1494.2387	1654.755	1705.2387	1803.1531	3012.5354	3023.1136	3073.3118	3118.3045	3133.8992	3157.7207	3168.9482	3177.9867	3603.4945
CC1=CCC(=O)NC=C1	CC1=CCC(=O)NC=C1	
InChI=1S/C7H9NO/c1-6-2-3-7(9)8-5-4-6/h2,4-5H,3H2,1H3,(H,8,9)	InChI=1S/C7H9NO/c1-6-2-3-7(9)8-5-4-6/h2,4-5H,3H2,1H3,(H,8,9)
