25
gdb 104161	2.92127	0.99366	0.9543	1.2547	88.54	-0.2628	0.0733	0.336	1429.1529	0.228783	-389.513524	-389.503271	-389.502327	-389.54866	39.375	
C	 0.0948040043	 1.5814299072	 0.0296992771	-0.406965
C	 0.1150827535	 0.0559681397	-0.0397824047	 0.0609
C	 1.0311049627	-0.5374294115	-1.122637971	-0.210468
C	 1.1212038767	-2.0202281354	-0.7363088594	-0.251158
C	 1.1440899308	-2.045202014	 0.8242031708	 0.349041
C	 0.2677816456	-3.1748733783	 1.383520606	-0.444032
C	 2.5834363698	-2.2090179194	 1.3298265048	-0.115545
O	 3.0754974682	-3.4827247701	 0.9371718912	-0.424869
C	 0.6192159433	-0.6351324754	 1.24511902	-0.277515
H	 1.1002599452	 1.9772578982	 0.2167772919	 0.108596
H	-0.2657466056	 2.0190207571	-0.9075649937	 0.109738
H	-0.5570666615	 1.9385581684	 0.8344721446	 0.109938
H	-0.9068382406	-0.2963354191	-0.2413169278	 0.067657
H	 0.6573955155	-0.3773300299	-2.139105488	 0.087896
H	 2.0203332764	-0.0619655299	-1.0652403465	 0.087804
H	 0.230900635	-2.5473280219	-1.098762457	 0.087723
H	 1.9875988478	-2.5363910923	-1.1568264166	 0.10546
H	 0.6117904406	-4.1492566523	 1.0270776454	 0.129955
H	 0.2949935227	-3.1901923446	 2.4795365573	 0.10204
H	-0.775185335	-3.0434765772	 1.0760219502	 0.102822
H	 3.209796762	-1.4023761834	 0.9145066213	 0.078947
H	 2.5968764547	-2.1022234056	 2.4273936062	 0.081139
H	 3.9800127959	-3.567125761	 1.251097192	 0.286422
H	 1.4363322666	-0.0394057053	 1.6754163719	 0.083708
H	-0.1553512346	-0.700159474	 2.0156192741	 0.090768
33.6058	136.0861	162.1525	235.5961	240.2909	246.153	249.3878	278.0191	333.5002	356.9408	397.4092	419.6674	454.2911	554.24	612.3878	741.255	820.1746	860.2344	877.1318	917.9748	935.6801	955.2742	958.205	989.3486	999.6654	1051.2387	1068.5742	1086.8379	1111.9699	1139.3596	1168.5634	1203.1132	1217.0916	1254.6702	1265.9785	1275.0178	1295.761	1310.0021	1332.6031	1349.8811	1359.0529	1387.2685	1405.7048	1410.6532	1455.2234	1485.3165	1489.3149	1494.0405	1496.4777	1499.4581	1503.1987	1507.7604	1519.1679	2954.6185	2985.6823	2993.9157	3007.3327	3014.8816	3023.2989	3025.1615	3037.7238	3072.0571	3075.9044	3087.3327	3088.9184	3092.9253	3102.0012	3117.9209	3836.4548
CC1CCC(C)(CO)C1	C[C@H]1CC[C@@](C)(CO)C1	
InChI=1S/C8H16O/c1-7-3-4-8(2,5-7)6-9/h7,9H,3-6H2,1-2H3	InChI=1S/C8H16O/c1-7-3-4-8(2,5-7)6-9/h7,9H,3-6H2,1-2H3/t7-,8+/m0/s1
