16
gdb 84552	3.74264	1.32724	1.07315	1.9615	70.98	-0.2272	-0.0123	0.2149	1080.2116	0.125171	-437.898674	-437.891179	-437.890235	-437.930968	28.741	
O	 0.1430749587	 1.412024639	-0.1741074273	-0.426154
C	 0.1089013367	-0.0014210192	-0.026847434	 0.068034
C	 0.6498482102	-0.4961994933	 1.3028764798	-0.156301
C	-0.2444094063	-1.2488154011	 1.9516211761	-0.067323
N	-1.4597656305	-1.3746736667	 1.2332011869	-0.120675
C	-1.3394057046	-0.564359398	-0.0177683653	-0.000484
C	-1.7717777267	-1.8066273328	-0.839982229	-0.405028
C	-1.8040602473	-2.5559920067	 0.5054894671	 0.405516
O	-1.9782528422	-3.6771255571	 0.8746178246	-0.31097
H	-0.188309931	 1.7952706687	 0.6462163021	 0.277626
H	 0.6972578723	-0.3742191667	-0.874310646	 0.099641
H	 1.6407797269	-0.2495185052	 1.6596841603	 0.112811
H	-0.1354840204	-1.7608825878	 2.8983030603	 0.140973
H	-2.0484374712	 0.2670672944	-0.0483742068	 0.097678
H	-2.719714347	-1.7381344391	-1.3768592404	 0.140733
H	-1.0072601478	-2.2067292383	-1.5111286584	 0.143921
67.2978	131.604	253.9299	314.3866	336.9781	363.7978	469.2127	518.3408	567.099	643.9013	711.2175	751.3299	794.1296	833.7423	862.261	942.4779	955.7735	1013.1727	1021.2596	1035.1526	1060.7812	1100.7172	1135.0393	1151.4561	1204.4789	1227.9608	1235.2929	1258.8062	1276.9882	1341.625	1367.0691	1422.6616	1447.9933	1650.0176	1900.5345	3033.5372	3075.2118	3077.7776	3133.8288	3219.1528	3241.9277	3793.8289
OC1C=CN2C1CC2=O	O[C@H]1C=CN2[C@@H]1CC2=O	
InChI=1S/C6H7NO2/c8-5-1-2-7-4(5)3-6(7)9/h1-2,4-5,8H,3H2	InChI=1S/C6H7NO2/c8-5-1-2-7-4(5)3-6(7)9/h1-2,4-5,8H,3H2/t4-,5+/m1/s1
