16
gdb 61489	3.37894	0.85882	0.7114	5.4087	71.96	-0.2836	0.0016	0.2853	1494.2383	0.121634	-437.849451	-437.839831	-437.838887	-437.884342	34.691	
O	-0.0195573286	 1.4627671259	 0.0100142624	-0.422631
C	 0.0459218168	 0.0250434179	 0.0025724186	-0.075994
C	 0.7068454602	-0.5128317264	-1.282191375	-0.227811
C	-0.0268608028	-0.0330408553	-2.5534906888	-0.016667
O	 0.0820647713	 1.3564441162	-2.7634345364	-0.430314
C	 0.5276477754	-0.7172755766	-3.7349814874	 0.286682
N	 0.9588300544	-1.2906033761	-4.6398122129	-0.314362
C	 0.7187137476	-0.4787678314	 1.1970298724	 0.280393
C	 1.3140721551	-0.8692874872	 2.1649470879	-0.408534
H	 0.836545222	 1.7934237071	 0.3076154473	 0.299906
H	-1.0042577051	-0.2930994899	 0.0170579927	 0.133041
H	 1.7511080861	-0.1869634263	-1.3274862595	 0.131574
H	 0.7015169909	-1.6067001274	-1.2453560668	 0.139264
H	-1.0849894212	-0.3420345554	-2.478981898	 0.113583
H	-0.0883972372	 1.7651453479	-1.9003265319	 0.298548
H	 1.8236607451	-1.220958753	 3.0287029855	 0.213322
59.0624	99.5752	111.4082	183.2938	240.2588	259.7695	300.1373	311.6408	352.0158	453.6544	487.0661	570.0398	580.3925	604.7931	612.3244	647.2596	692.162	850.4241	872.4412	964.3097	1000.4095	1052.3145	1067.4257	1123.3537	1200.1002	1258.0828	1291.3724	1326.0066	1350.0754	1373.5852	1415.523	1461.3014	1482.4218	2238.8938	2368.1448	2945.4917	3034.7462	3056.6675	3108.0035	3498.8154	3687.3355	3799.239
OC(CC(O)C#N)C#C	O[C@@H](C[C@@H](O)C#N)C#C	
InChI=1S/C6H7NO2/c1-2-5(8)3-6(9)4-7/h1,5-6,8-9H,3H2	InChI=1S/C6H7NO2/c1-2-5(8)3-6(9)4-7/h1,5-6,8-9H,3H2/t5-,6-/m1/s1
