23
gdb 76886	2.22048	1.79893	1.4645	1.6064	83.5	-0.2352	0.0751	0.3103	1057.9524	0.208534	-388.309695	-388.301519	-388.300575	-388.34186	33.474	
C	-0.2255462362	 1.5780741391	-0.0435627333	-0.421483
C	 0.0442325119	 0.0725377781	-0.0186925974	 0.027268
C	 0.7709949791	-0.5035464062	-1.2670883766	-0.046654
C	 2.16993212	 0.1190218482	-1.3891405812	-0.07793
O	 2.8912107477	-0.4188609516	-0.263027382	-0.280961
C	 1.9826472962	-1.3152428947	 0.3994443161	 0.109703
C	 1.1723268164	-1.90538237	-0.7604851447	-0.243753
C	 0.9325921272	-0.4818686022	 1.1717451831	 0.006601
C	 1.5560488782	 0.5474378174	 2.1144374715	-0.404718
H	 0.6897726427	 2.1761002862	-0.0476873034	 0.122446
H	-0.8028328624	 1.8485532631	-0.9347940917	 0.108083
H	-0.8105137094	 1.8855415824	 0.8290314143	 0.115224
H	-0.9321767929	-0.4238611811	 0.0327955552	 0.068393
H	 0.1870456052	-0.4561000326	-2.1883965826	 0.060095
H	 2.6702205637	-0.1799406268	-2.3205877337	 0.092913
H	 2.1740109949	 1.2131072742	-1.3400623654	 0.097329
H	 2.5746930032	-1.9985976703	 1.0110848553	 0.065598
H	 0.3221852418	-2.5129750503	-0.4399289281	 0.094165
H	 1.78904083	-2.4725233102	-1.4625221709	 0.098613
H	 0.3247637643	-1.1696881822	 1.7723240541	 0.065147
H	 2.2570397065	 1.1975298661	 1.5860006813	 0.129853
H	 0.7947029804	 1.1702224427	 2.5937016599	 0.106883
H	 2.1152849817	 0.0417092007	 2.9093114604	 0.107183
100.998	213.191	250.697	265.5085	268.7227	298.7583	384.3779	463.0379	476.0417	517.1587	592.518	710.1853	773.2722	790.6019	819.6544	893.3074	909.2475	924.2159	947.3976	970.0473	990.8725	1004.4587	1020.9848	1036.0022	1043.1419	1088.9675	1093.4878	1149.7029	1160.995	1168.9425	1189.1353	1218.1672	1255.9585	1276.1515	1295.2911	1326.4972	1327.4105	1352.3744	1365.0696	1373.0029	1388.4754	1406.5822	1417.84	1486.7407	1492.5544	1494.2264	1506.4068	1512.305	1535.7608	3005.4904	3010.9819	3030.0824	3033.8081	3040.0036	3059.5117	3062.5278	3092.1524	3095.772	3098.0428	3103.9192	3111.3022	3117.5546	3128.4696
CC1C2COC(C2)C1C	C[C@H]1[C@H]2CO[C@H](C2)[C@H]1C	
InChI=1S/C8H14O/c1-5-6(2)8-3-7(5)4-9-8/h5-8H,3-4H2,1-2H3	InChI=1S/C8H14O/c1-5-6(2)8-3-7(5)4-9-8/h5-8H,3-4H2,1-2H3/t5-,6+,7-,8-/m1/s1
