21
gdb 78382	2.37461	1.73725	1.42442	1.5585	81.64	-0.2275	0.0708	0.2983	1036.231	0.183343	-387.025103	-387.016947	-387.016003	-387.057153	33.155	
C	-0.2160732249	 1.5892736636	-0.0784636253	-0.424388
C	 0.0046824548	 0.0856832397	-0.0045142348	 0.045397
C	 1.0031878779	-0.6354697284	-0.9822016338	-0.269388
C	 1.596257296	-1.4252867716	 0.2329643808	-0.016152
C	 2.8849044209	-0.9684860175	 0.9562781996	-0.138118
C	 3.0950872666	 0.5082339411	 1.04146323	 0.094121
O	 2.8911074172	 1.4490518888	 0.02135896	-0.407868
C	 2.0096576423	-0.0482156118	 1.8929689465	-0.111248
C	 0.7310722699	-0.5885044121	 1.2029404289	-0.039719
H	 0.7225860172	 2.1365825927	 0.0115787325	 0.147558
H	-0.679829788	 1.863463641	-1.0336923167	 0.102529
H	-0.8921822787	 1.9201828266	 0.7189938719	 0.100562
H	-0.9699284315	-0.4104427009	-0.0896467997	 0.0667
H	 0.5168509756	-1.2681369444	-1.7294772394	 0.085908
H	 1.7028389794	 0.0272952934	-1.4871562919	 0.093473
H	 1.4832471977	-2.5089903825	 0.2023232819	 0.066222
H	 3.6830416259	-1.6518620787	 1.2290268624	 0.080118
H	 3.9708014263	 0.7453726116	 1.6513674068	 0.091323
H	 3.5908793346	 1.3310895793	-0.6301722082	 0.285022
H	 2.0694172022	 0.0741807136	 2.9695381888	 0.08405
H	 0.0900172086	-1.0901321133	 1.9302126796	 0.063898
156.4103	180.2966	206.3721	230.2363	273.5319	316.0836	361.4432	450.7489	544.0569	611.226	625.0784	694.4147	717.0321	740.6327	835.5917	865.2717	891.6689	910.2602	925.0747	938.4923	972.7011	989.2477	1029.5346	1044.1533	1083.386	1104.6924	1123.1823	1131.3325	1146.3962	1205.4074	1220.23	1235.1452	1255.2407	1269.438	1281.237	1306.4752	1315.8591	1330.612	1362.0907	1377.7277	1407.8838	1466.5934	1479.0037	1493.7043	1513.8042	3017.0344	3027.2889	3065.5804	3066.7507	3077.2865	3083.2059	3104.5913	3150.28	3151.0103	3154.2376	3161.5182	3800.6533
CC1CC2C3C(O)C3C12	C[C@H]1C[C@H]2[C@H]3[C@@H](O)[C@H]3[C@@H]12	
InChI=1S/C8H12O/c1-3-2-4-5(3)7-6(4)8(7)9/h3-9H,2H2,1H3	InChI=1S/C8H12O/c1-3-2-4-5(3)7-6(4)8(7)9/h3-9H,2H2,1H3/t3-,4+,5-,6+,7-,8+/m0/s1
