16
gdb 13101	4.49626	1.29341	1.02389	4.6362	73.53	-0.2411	-0.017	0.2241	1137.5912	0.129911	-379.940889	-379.932749	-379.931805	-379.973995	28.338	
C	-0.1043804907	 1.4820182508	 0.0637403513	-0.309488
N	 0.0464559811	 0.0443746852	 0.1081322881	-0.181158
C	-0.9967865897	-0.6539982308	-0.0298481955	 0.087774
N	-0.9985247515	-2.0392334943	-0.0080234212	-0.125231
C	-2.1240840197	-2.9769118974	-0.1522404759	-0.174303
C	-1.1082926548	-4.1386408486	 0.0132168408	-0.37218
C	-0.028640147	-3.0443562427	 0.1487820571	 0.427756
O	 1.1529879224	-3.0131669264	 0.3176968068	-0.322412
H	 0.51558183	 1.8904262402	-0.7426986704	 0.132037
H	-1.1436023825	 1.8180203892	-0.0901983936	 0.093274
H	 0.2665988177	 1.9180964862	 0.9984842608	 0.132035
H	-2.0067147851	-0.2408312485	-0.1807245917	 0.083243
H	-2.8701459533	-2.8921439593	 0.6434230283	 0.123345
H	-2.6177730954	-2.9229829198	-1.1270073398	 0.123359
H	-1.2342297877	-4.752567125	 0.9064890079	 0.140973
H	-0.9816718837	-4.7832586086	-0.858080253	 0.140975
89.9245	97.5733	131.0954	182.3707	210.0118	328.0919	342.262	450.739	509.8539	552.6255	766.7325	813.4405	835.3855	956.5575	977.4305	1024.2456	1045.9912	1057.4964	1134.945	1138.3715	1155.6127	1171.9918	1194.0333	1232.0864	1289.938	1393.7757	1410.8807	1445.85	1461.5405	1475.6658	1501.2444	1525.5754	1752.4532	1900.0601	2961.32	2989.1228	3047.8866	3058.492	3077.4532	3091.1845	3095.096	3147.9323
CN=CN1CCC1=O	CN=CN1CCC1=O	
InChI=1S/C5H8N2O/c1-6-4-7-3-2-5(7)8/h4H,2-3H2,1H3	InChI=1S/C5H8N2O/c1-6-4-7-3-2-5(7)8/h4H,2-3H2,1H3
