15
gdb 32056	3.74839	1.16474	0.89737	3.77	73.21	-0.2319	-0.0658	0.1661	1220.0503	0.113374	-453.965797	-453.957852	-453.956908	-453.998967	29.002	
O	 0.586552084	 0.5491387752	-0.8210823165	-0.396746
C	-0.1218364871	 0.2748424067	 0.364140689	-0.160511
C	-1.4765476033	-0.337239753	 0.1189040274	 0.360157
C	-1.9538846785	-0.7655118399	-1.0691951129	-0.263463
C	-3.2798311316	-1.3068574587	-1.0534471304	 0.028192
N	-4.0126138451	-1.4134141449	 0.0088702936	-0.305782
C	-3.4922729909	-0.9868271276	 1.2231235495	 0.423846
N	-4.0561974895	-1.0398138901	 2.3529481593	-0.522802
O	-2.2008668945	-0.4214011241	 1.2402208593	-0.23123
H	 0.1687972294	 1.3009947919	-1.2538721796	 0.295014
H	 0.4831277829	-0.436220484	 0.9394685829	 0.155075
H	-0.2530431903	 1.1601185379	 1.0039525569	 0.132389
H	-1.3523069791	-0.708297194	-1.9633924136	 0.124476
H	-3.7218206093	-1.65742784	-1.9864426311	 0.125411
H	-4.9774801073	-1.4554298954	 2.2266387161	 0.235974
66.8657	101.3842	168.3649	197.577	318.8961	373.7135	424.1809	488.388	565.4073	585.4114	623.5346	767.549	787.6285	826.7483	853.5919	864.0116	974.5569	984.7638	1006.2741	1016.6212	1089.5588	1114.4059	1201.2316	1210.5359	1264.9914	1353.4344	1399.0436	1412.6026	1427.6381	1475.9106	1599.3546	1692.4432	1737.1219	3004.5511	3064.4589	3129.7762	3253.881	3521.3337	3817.6534
OCC1=CC=NC(=N)O1	OC[C@@H]1C=CN=C([NH])O1	
InChI=1S/C5H6N2O2/c6-5-7-2-1-4(3-8)9-5/h1-2,6,8H,3H2	InChI=1S/C5H7N2O2/c6-5-7-2-1-4(3-8)9-5/h1-2,4,6,8H,3H2/t4-/m0/s1
