16
gdb 16438	3.41927	2.21872	1.70345	1.3321	64.17	-0.2465	0.062	0.3085	789.9073	0.130384	-383.657954	-383.65108	-383.650136	-383.688528	27.378	
O	 0.193337229	 1.4305353637	-0.2027152945	-0.452259
C	 0.0716998042	 0.0325716747	-0.0890048712	 0.068489
C	 0.0452282304	-0.6408041232	 1.2986207141	-0.101762
C	-1.4619683392	-0.2792085471	 1.5531666864	-0.141586
C	-1.8309217945	-1.7403398528	 1.8769944744	-0.270818
C	-0.7824743653	-1.8578946802	 0.7512463808	-0.078307
C	-1.3272908839	-0.6055904982	 0.0018067661	 0.372137
O	-2.3315047691	-0.6587350098	-0.9402471455	-0.475605
H	-0.2816146903	 1.834460198	 0.5320743488	 0.282082
H	 0.7520378437	-0.3988865352	-0.8301931495	 0.086343
H	 0.8236480101	-0.6934896148	 2.0568848824	 0.080579
H	-1.8460458668	 0.6355374919	 2.0094986102	 0.064937
H	-1.5376647188	-2.1133408614	 2.8630418792	 0.09222
H	-2.8484675185	-2.0553747114	 1.6306360815	 0.106564
H	-0.3627262415	-2.7461019715	 0.2780314289	 0.076679
H	-2.4567809297	 0.2300738374	-1.2917404821	 0.290306
187.2283	210.3304	278.6009	305.5866	326.5343	370.3432	524.5862	559.8237	649.5386	737.9091	792.6891	852.2116	877.0861	892.8075	916.7441	942.2035	958.2769	1007.962	1045.2633	1074.3389	1078.5571	1106.5538	1143.2281	1150.9275	1167.0263	1208.7737	1225.9604	1245.1179	1272.3127	1284.9703	1317.9201	1391.0403	1452.4726	1507.9164	3047.187	3069.9209	3086.6361	3107.4444	3111.3856	3144.3653	3800.3353	3801.9835
OC1C2C3CC2C13O	O[C@H]1[C@H]2[C@@H]3C[C@H]2[C@]13O	
InChI=1S/C6H8O2/c7-5-4-2-1-3(4)6(2,5)8/h2-5,7-8H,1H2	InChI=1S/C6H8O2/c7-5-4-2-1-3(4)6(2,5)8/h2-5,7-8H,1H2/t2-,3+,4-,5-,6-/m0/s1
