19
gdb 65076	2.58337	1.44239	1.08485	3.5231	76.41	-0.2425	-0.0231	0.2195	1146.4243	0.156388	-423.001338	-422.991955	-422.99101	-423.035917	34.893	
O	-0.1179523272	 1.3638142285	-0.0864188646	-0.473043
C	 0.0544530181	-0.0306085926	-0.0088177621	 0.327108
C	 1.1716710243	-0.6623541258	-0.7979521832	-0.33354
C	 1.2594225793	-0.5670514015	 0.7194205245	-0.333469
C	-1.2956711983	-0.6909053245	 0.1107749583	 0.219315
C	-2.4052100747	 0.0354657525	 0.8758156084	-0.285221
C	-2.4909634854	-0.0576818064	-0.606369076	-0.285213
C	-1.355274061	-2.1738277892	 0.2074110525	 0.076684
O	-2.3815230419	-2.8062451454	 0.3066116314	-0.281969
H	 0.7462954093	 1.7782561874	-0.1635310851	 0.285291
H	 1.0217647418	-1.6366169353	-1.2511765654	 0.124147
H	 1.8020869063	-0.0009743442	-1.3848226121	 0.111422
H	 1.9482331481	 0.1578063303	 1.1429408775	 0.111445
H	 1.1695622816	-1.4761099261	 1.3047507901	 0.124137
H	-3.0564494845	-0.6018427576	 1.4623203903	 0.133493
H	-2.1318767512	 0.9872179595	 1.3126259065	 0.136604
H	-2.276483807	 0.8301321176	-1.1869987443	 0.136584
H	-3.2006441701	-0.758472974	-1.0300517996	 0.133488
H	-0.3793397875	-2.7051666932	 0.1842580929	 0.072736
48.2712	86.1537	112.6404	201.861	246.5307	282.3981	321.6886	337.7758	386.565	413.0631	515.7197	547.2811	716.9007	755.8839	805.528	812.6552	829.2647	881.2424	928.0273	934.2089	977.6616	987.9225	1017.7998	1052.2594	1054.097	1064.0594	1071.4222	1105.6284	1129.4579	1180.6916	1213.6917	1258.6094	1265.2351	1328.2445	1440.856	1440.9043	1457.2993	1462.1479	1475.2687	1504.3615	1801.4702	2891.7433	3122.1302	3124.5374	3150.7692	3151.3159	3200.2445	3213.2545	3245.465	3258.3199	3835.8081
OC1(CC1)C1(CC1)C=O	OC1(CC1)C1(CC1)C=O	
InChI=1S/C7H10O2/c8-5-6(1-2-6)7(9)3-4-7/h5,9H,1-4H2	InChI=1S/C7H10O2/c8-5-6(1-2-6)7(9)3-4-7/h5,9H,1-4H2
