19
gdb 22597	2.85515	1.22479	1.02937	0.5521	81.43	-0.2275	0.0263	0.2539	1232.8909	0.15797	-419.094943	-419.085802	-419.084858	-419.12838	34.585	
C	-0.0925835141	 1.5571148478	-0.0033431196	-0.439563
C	-0.0156561115	 0.039531767	-0.0101557937	 0.022813
C	 1.2341488264	-0.6633676238	-0.6341500517	-0.135631
N	 2.0248033247	-0.1474366856	 0.5742282059	-0.353973
C	 0.7140295972	-0.7028219151	 1.1720852142	 0.223254
C	 0.415031394	-0.6821813601	 2.6393380591	-0.522842
C	 0.878784789	-1.870825397	 0.2147881927	 0.454818
N	 0.8611339466	-3.1299437284	 0.2808783806	-0.331394
O	 1.2226769478	-3.7109682829	-0.9637919395	-0.403392
H	 0.8655449951	 1.9999199568	 0.2712236438	 0.144982
H	-0.3804511214	 1.9282882862	-0.9926879873	 0.116798
H	-0.8534849494	 1.8982172796	 0.7072523716	 0.11522
H	-0.966784741	-0.4204332427	-0.291954882	 0.082743
H	 1.6224024542	-0.6061120483	-1.6481445485	 0.099655
H	 2.7902638551	-0.7967595868	 0.7796959664	 0.218921
H	 0.4396082835	 0.342504308	 3.0215607847	 0.134751
H	-0.5772242088	-1.1021919796	 2.8301088033	 0.135613
H	 1.1453372762	-1.2775924746	 3.1961653818	 0.133369
H	 1.1540930865	-4.6510374806	-0.7666385517	 0.303857
118.5463	149.6077	176.1364	191.0068	210.6798	263.9365	311.2999	340.466	354.3518	406.4941	510.8579	606.7471	662.72	723.2301	744.08	752.2502	808.5581	845.1542	895.5983	941.1786	1024.0261	1047.7805	1055.1934	1079.9054	1111.1174	1133.4068	1179.1028	1194.1817	1207.0436	1262.9435	1273.5333	1339.8092	1393.9101	1404.1157	1409.8159	1431.323	1482.384	1486.4694	1494.3623	1506.9684	1812.9689	3037.6224	3040.962	3076.0814	3092.9905	3111.2549	3117.6446	3146.9677	3155.0088	3397.9808	3821.0061
CC1C2NC1(C)C2=NO	C[C@H]1[C@H]2N[C@]1(C)C2=NO	
InChI=1S/C6H10N2O/c1-3-4-5(8-9)6(3,2)7-4/h3-4,7,9H,1-2H3	InChI=1S/C6H10N2O/c1-3-4-5(8-9)6(3,2)7-4/h3-4,7,9H,1-2H3/t3-,4+,6-/m0/s1
