21
gdb 99999	2.7271	1.06245	0.92523	4.3756	74.99	-0.2387	-0.0151	0.2236	1339.9412	0.178122	-461.369491	-461.358352	-461.357407	-461.405854	40.042	
C	-0.0660881771	 1.5527508549	-0.0970906679	-0.426718
C	-0.0269644781	 0.0146465469	 0.0094482307	-0.075526
C	 0.6519395492	-0.5136087124	-1.2459928332	 0.151146
O	 0.0847704864	-1.1067217514	-2.1284070575	-0.261882
C	 0.7074193464	-0.5069270648	 1.2717644326	 0.348415
C	 0.7866142541	-2.0441715867	 1.2574693395	-0.43265
O	 2.0199344444	 0.0517026947	 1.2482891287	-0.478277
C	 0.0096033512	-0.0384884011	 2.5600416263	-0.122077
O	 0.8571826361	-0.4295734344	 3.6397825637	-0.433783
H	 0.9392191283	 1.9682275864	 0.0011466349	 0.144505
H	-0.4819098998	 1.8568751379	-1.062287053	 0.12742
H	-0.6963138093	 1.9921305163	 0.6804373559	 0.120435
H	-1.0459750956	-0.3869068287	 0.0042107676	 0.08772
H	 1.7359938329	-0.2776749174	-1.3115081481	 0.097538
H	 1.3967870993	-2.3873981105	 0.4182246417	 0.129626
H	 1.2396981529	-2.4046698351	 2.183983306	 0.130479
H	-0.2087373548	-2.4909249768	 1.1638831876	 0.1166
H	 2.366117642	-0.0622929542	 2.1428895416	 0.286724
H	-0.1086849429	 1.0508748693	 2.5462294802	 0.097117
H	-0.9848296749	-0.4999466174	 2.6471282075	 0.095938
H	 0.6028625194	 0.0621123545	 4.4249783753	 0.297251
53.4142	57.5199	128.235	164.2865	206.9703	227.1602	239.5933	261.6792	285.0211	320.2122	351.3061	368.4063	410.3788	436.0466	466.8748	503.5893	656.4771	768.7934	871.7888	916.144	934.235	957.1216	963.3767	1039.4312	1053.8098	1085.6791	1135.4941	1158.8277	1179.0345	1198.3833	1242.8353	1282.9	1301.5474	1337.6879	1388.1545	1399.4369	1408.0783	1423.1802	1445.8981	1484.8278	1498.1902	1501.2839	1506.6287	1513.5122	1827.3322	2905.2694	2998.3912	3042.1416	3047.3717	3058.0215	3060.7136	3112.851	3115.1502	3130.9606	3137.5005	3769.4609	3847.8213
CC(C=O)C(C)(O)CO	C[C@@H](C=O)[C@@](C)(O)CO	
InChI=1S/C6H12O3/c1-5(3-7)6(2,9)4-8/h3,5,8-9H,4H2,1-2H3	InChI=1S/C6H12O3/c1-5(3-7)6(2,9)4-8/h3,5,8-9H,4H2,1-2H3/t5-,6-/m0/s1
