19
gdb 109982	2.10639	1.41174	1.16246	3.6394	76.12	-0.2266	0.0179	0.2446	1172.0671	0.159207	-419.19437	-419.184906	-419.183962	-419.228909	34.445	
C	-0.0217173573	 1.4479528029	-0.2061220067	-0.325453
N	-0.010456656	 0.0347019197	 0.1669909527	-0.277712
C	-1.2790837268	-0.6131218777	 0.0375639379	 0.038388
C	-1.8377317347	-1.0946279906	-1.357034278	 0.111415
O	-0.8316108693	-1.3455648273	-2.3139351624	-0.435908
C	-2.3943892113	-2.3537234687	-0.6430571396	-0.269876
C	-1.4107528776	-2.0956708857	 0.5508674119	-0.215505
C	-0.1726194385	-2.8460417713	 0.4128862294	 0.273499
N	 0.8130985555	-3.427571363	 0.2371485367	-0.339582
H	 0.9858205042	 1.8564760386	-0.0903267193	 0.126603
H	-0.3541257334	 1.6410184055	-1.2382352893	 0.114464
H	-0.6835974637	 1.9973970704	 0.4726743625	 0.121738
H	 0.6800425954	-0.4564033543	-0.3922753492	 0.227712
H	-2.0403482387	-0.0127735081	 0.5474147877	 0.090848
H	-2.5634970875	-0.4432956731	-1.8485241988	 0.090358
H	-0.277627037	-2.0778520278	-2.018691484	 0.294849
H	-3.431823028	-2.2316214991	-0.3247275386	 0.121582
H	-2.2897060117	-3.3010634414	-1.1743762232	 0.127986
H	-1.8044409235	-2.2217859092	 1.5611372103	 0.124593
72.4672	92.3387	114.0008	173.9174	217.4852	245.7875	274.4612	337.6836	387.9343	411.9939	504.8804	585.2219	619.227	702.0469	777.9469	816.0707	860.6443	894.5685	900.8997	1005.7764	1010.5928	1039.0484	1098.258	1109.798	1152.7699	1157.8183	1173.259	1225.7152	1243.1585	1248.8522	1256.8708	1317.3855	1335.4682	1364.2519	1433.3373	1459.5434	1473.3696	1489.6049	1506.9406	1529.9415	2338.2464	2980.293	3053.8749	3063.0542	3075.7473	3091.6739	3098.8341	3109.5673	3138.6298	3522.5957	3789.7433
CNC1C(O)CC1C#N	CN[C@H]1[C@@H](O)C[C@H]1C#N	
InChI=1S/C6H10N2O/c1-8-6-4(3-7)2-5(6)9/h4-6,8-9H,2H2,1H3	InChI=1S/C6H10N2O/c1-8-6-4(3-7)2-5(6)9/h4-6,8-9H,2H2,1H3/t4-,5-,6+/m0/s1
