23
gdb 38307	2.70053	1.83036	1.78729	0.0712	86.58	-0.2749	0.0823	0.3572	950.0258	0.212817	-351.146929	-351.140677	-351.139733	-351.176935	29.029	
C	-0.0293811778	 1.5497913371	 0.1224283937	-0.215819
C	 1.5223571005	 1.4533184446	 0.0467052153	-0.016184
C	 1.3291066698	 0.1385560189	 0.8694496323	-0.227821
C	 0.0034364092	-0.0049410794	 0.0540621861	-0.016186
C	 0.3122603695	-0.4836745279	-1.4165380441	 0.002591
C	-0.1616550632	 0.5402376125	-2.4853180451	-0.212984
C	 0.9714610642	 1.6281997787	-2.4907656942	-0.212985
C	 1.9806636538	 1.1181510224	-1.4246272582	 0.002591
C	 1.8337470457	-0.3997778497	-1.6510366452	-0.209181
H	-0.3475332568	 1.8861822284	 1.1133134921	 0.085295
H	-0.5805574782	 2.1201468729	-0.6229773474	 0.090614
H	 2.1130000173	 2.2640562673	 0.4799066955	 0.053134
H	 2.0837113839	-0.6475411407	 0.8487878269	 0.088401
H	 1.1080418158	 0.3740835879	 1.9136476155	 0.089255
H	-0.828483244	-0.5599572393	 0.4941590118	 0.053135
H	-0.1056484891	-1.4796715743	-1.5839567744	 0.052966
H	-0.2251552483	 0.0482453855	-3.4609009035	 0.089659
H	-1.1511109634	 0.9535688804	-2.2745871346	 0.095729
H	 1.4607015452	 1.666989043	-3.469023629	 0.089654
H	 0.5997396643	 2.6346367201	-2.282958012	 0.095734
H	 2.9919772488	 1.4943548505	-1.5989917129	 0.052966
H	 2.4413248795	-1.0293343058	-1.0030113587	 0.090284
H	 2.0832788734	-0.6649010232	-2.6848974799	 0.07915
264.4802	349.311	383.6945	451.6835	487.6194	521.5055	550.4184	704.7886	735.7995	744.9608	790.659	823.2438	848.5345	873.8327	874.4865	895.0834	895.6432	921.9307	943.4733	960.5218	981.3201	1006.6546	1036.7853	1042.7796	1077.8779	1081.646	1105.3994	1113.0644	1128.7897	1149.8072	1180.5002	1204.3384	1217.9839	1237.8855	1251.5935	1263.8898	1269.6423	1296.8538	1308.6469	1310.7635	1338.4577	1339.8443	1352.3838	1365.7501	1487.0334	1495.7161	1513.8769	1533.7466	1560.9364	3041.3515	3044.2223	3053.2147	3060.3087	3062.8912	3063.2761	3072.7974	3078.3153	3085.165	3087.7945	3102.2427	3114.1636	3136.8435	3137.4339
C1C2CC1C1CCC2C1	C1[C@H]2C[C@@H]1[C@H]1CC[C@@H]2C1	
InChI=1S/C9H14/c1-2-7-3-6(1)8-4-9(7)5-8/h6-9H,1-5H2	InChI=1S/C9H14/c1-2-7-3-6(1)8-4-9(7)5-8/h6-9H,1-5H2/t6-,7+,8-,9+
