20
gdb 108980	3.82211	1.22732	1.09777	1.5176	79.35	-0.2414	0.0249	0.2663	1191.366	0.17268	-403.158142	-403.150164	-403.14922	-403.191162	31.098	
C	 0.1030885574	 1.5079053032	-0.014785621	-0.367457
C	-0.0795064706	-0.0081825143	 0.0067614093	-0.280057
C	-1.5160559557	-0.4477558061	 0.029362357	 0.403735
N	-2.5089045801	 0.346843429	 0.030821837	-0.309233
C	-3.810815682	-0.3258140886	 0.0547341214	 0.01158
C	-3.780013702	-1.4468525756	 1.1379751543	-0.243449
C	-3.0008091162	-2.2525962474	 0.0699033957	 0.115109
C	-3.8051410112	-1.4742469949	-0.9998548023	-0.243453
O	-1.6301188889	-1.8096134723	 0.0481236026	-0.276777
H	 1.1669837276	 1.7618019566	-0.0304874897	 0.105055
H	-0.3736152178	 1.9465533955	-0.8945629627	 0.1298
H	-0.3530418199	 1.9690622895	 0.8643869378	 0.129803
H	 0.3982751801	-0.4740487566	-0.8647052116	 0.121229
H	 0.4188623074	-0.4517632499	 0.8783235053	 0.121226
H	-4.6170359986	 0.4071800735	 0.0548149021	 0.073081
H	-3.2776854575	-1.2281807496	 2.0823006954	 0.107407
H	-4.7656783086	-1.8813701911	 1.3168120398	 0.105511
H	-2.9697852097	-3.3415660868	 0.0834926062	 0.083967
H	-4.7946048558	-1.9129073169	-1.1442911811	 0.105514
H	-3.325206338	-1.2799921573	-1.9610151555	 0.107407
40.9076	144.0706	195.2956	227.0673	339.6373	393.2081	465.3241	466.2528	495.3558	631.8436	649.6053	801.6992	818.5928	828.4567	865.0306	872.3287	890.3562	945.6124	963.2131	1002.6613	1009.8372	1062.4743	1066.2459	1096.1564	1109.0439	1129.302	1163.5297	1183.0683	1222.8245	1233.7909	1254.389	1276.1003	1279.4185	1331.3907	1368.2317	1398.4749	1412.3134	1465.5221	1468.9082	1489.8228	1494.4185	1501.1758	1720.7306	3028.103	3051.1638	3053.573	3067.5737	3072.4552	3109.6533	3119.6068	3122.1395	3131.2777	3132.6857	3135.77
CCC1=NC2CC(C2)O1	CC[C]1[N][C@@H]2C[C@@H](C2)O1	
InChI=1S/C7H11NO/c1-2-7-8-5-3-6(4-5)9-7/h5-6H,2-4H2,1H3	InChI=1S/C7H11NO/c1-2-7-8-5-3-6(4-5)9-7/h5-6H,2-4H2,1H3/t5-,6+
