21
gdb 39220	2.59075	1.90105	1.43213	1.2169	81.22	-0.2421	0.0817	0.3238	990.1807	0.185943	-387.063251	-387.056216	-387.055271	-387.094173	29.998	
C	-0.0203544704	 1.4980630188	 0.0282825729	-0.335154
C	 1.3154298175	 0.8053453174	 0.0439156181	 0.096531
O	 2.0421453851	 0.9104273915	 1.2331686437	-0.246888
C	 2.5309148181	-0.3087456094	 1.7782173945	-0.082028
C	 1.431550559	-1.2475449175	 2.3159604571	-0.012919
C	 0.6950605165	-2.0901244384	 1.2375277048	-0.222488
C	-0.3489755963	-0.937439219	 1.1269362789	-0.030944
C	 0.0894510397	-0.4992086016	 2.5565617545	-0.239182
C	 0.0459400876	-0.0122082826	-0.0072358491	-0.025502
H	-0.3104219229	 1.970902985	 0.9600537479	 0.123656
H	-0.3323346137	 2.0277372382	-0.8651495785	 0.109275
H	 1.9354509689	 0.8419451454	-0.8525331896	 0.081643
H	 3.1600246466	-0.839891827	 1.0456305006	 0.086772
H	 3.1772684133	 0.0078077302	 2.6030590356	 0.105335
H	 1.8413430818	-1.8143054824	 3.1573837946	 0.063536
H	 1.2473071343	-2.3519704375	 0.3290756734	 0.087073
H	 0.2649508778	-3.0005296924	 1.6656601235	 0.091539
H	-1.397388881	-1.2320541635	 1.0191124485	 0.062902
H	-0.5180511985	-1.0025673856	 3.3132545001	 0.093301
H	 0.1395720163	 0.5654049539	 2.7865574702	 0.108941
H	-0.1509898097	-0.4555750436	-0.9819111419	 0.0846
190.3515	213.7211	322.7018	328.3152	370.5949	395.901	477.1925	517.5496	679.3444	726.7057	765.6094	800.2252	810.4188	839.0216	870.8096	911.2987	926.4649	948.7692	975.8198	999.4701	1032.3347	1046.924	1072.6573	1092.7392	1110.3528	1124.2024	1132.9586	1137.5971	1160.8477	1175.9144	1197.2632	1239.6744	1257.5363	1268.6822	1285.338	1316.3094	1347.328	1354.2122	1380.2189	1399.4247	1415.4398	1468.8608	1484.3836	1494.1171	1499.7213	2975.0629	3037.9069	3050.2781	3052.6795	3070.1303	3076.7877	3089.3551	3094.3841	3118.0725	3129.871	3135.9666	3223.5129
C1C2OCC3CC(C3)C12	C1[C@H]2OC[C@@H]3C[C@@H](C3)[C@@H]12	
InChI=1S/C8H12O/c1-5-2-6(1)7-3-8(7)9-4-5/h5-8H,1-4H2	InChI=1S/C8H12O/c1-5-2-6(1)7-3-8(7)9-4-5/h5-8H,1-4H2/t5-,6+,7-,8-/m1/s1
