15
gdb 29816	2.50953	1.41782	0.91119	5.0662	75.16	-0.2185	-0.0581	0.1604	1200.2813	0.112669	-453.990982	-453.982535	-453.98159	-454.025039	29.957	
C	-0.0848018858	 1.4575895421	 0.0489820056	-0.348748
N	-0.0112007939	 0.0032918529	 0.0102823687	-0.023905
C	-0.0014453221	-0.7461377729	-1.1355632024	-0.209391
C	 0.0768642309	-2.0615932283	-0.7058149052	 0.349008
O	 0.113377577	-3.1511483383	-1.4956196333	-0.43307
N	 0.1138407387	-2.1351428453	 0.6344031975	-0.36468
C	 0.0592884396	-0.8719098896	 1.0665914277	 0.233188
C	 0.0712334223	-0.436497413	 2.4584085723	 0.078862
O	 0.1327092138	-1.1748038908	 3.4149790923	-0.264676
H	 0.7974213207	 1.8817276827	 0.5346338121	 0.15941
H	-0.1297412424	 1.8283884292	-0.9754305319	 0.152827
H	-0.9801889358	 1.7904564027	 0.5795748301	 0.15942
H	-0.0483828324	-0.3056120544	-2.1165080613	 0.144384
H	 0.1669688703	-3.9136630612	-0.9051870494	 0.307758
H	 0.0177563191	 0.6674936342	 2.590002717	 0.059615
33.3654	136.3717	184.9184	185.708	218.1503	293.3085	387.988	418.3368	436.5015	550.5825	621.7294	667.6899	695.7582	696.9898	744.8477	896.2694	1010.0492	1042.9418	1077.3657	1145.8001	1171.1218	1192.5585	1248.4936	1371.2014	1402.4842	1437.4266	1467.4263	1486.2174	1496.0142	1510.3469	1531.2569	1628.9815	1789.1701	2873.7619	3055.5685	3123.6511	3150.4372	3281.6919	3793.3438
CN1C=C(O)N=C1C=O	Cn1cc(O)nc1C=O	
InChI=1S/C5H6N2O2/c1-7-2-5(9)6-4(7)3-8/h2-3,9H,1H3	InChI=1S/C5H6N2O2/c1-7-2-5(9)6-4(7)3-8/h2-3,9H,1H3
