20
gdb 85428	2.2855	1.57525	1.24233	4.4904	76.1	-0.2475	0.0615	0.309	1120.1593	0.169892	-440.328242	-440.319117	-440.318173	-440.361633	35.038	
C	-0.018238278	 1.699250735	-0.1271532974	-0.417468
C	 0.0163112452	 0.1916067702	 0.0823394082	 0.078067
O	 0.7428064054	-0.4281119145	-0.9965936402	-0.265324
C	 2.0010144004	-0.7409555158	-0.5678127802	 0.472704
N	 2.9590767446	-1.1515526081	-1.2720689845	-0.584179
O	 2.1040432444	-0.5507762591	 0.7656490136	-0.257586
C	 0.7843956735	-0.3373859968	 1.3227779468	 0.338469
C	 0.9238407323	 0.6303956496	 2.4894175283	-0.440415
C	 0.2249520237	-1.6894305547	 1.7758247708	-0.423431
H	 0.9887705065	 2.1258859062	-0.1114225007	 0.138682
H	-0.4665870767	 1.9193690855	-1.0994347607	 0.134335
H	-0.6182060705	 2.1885821057	 0.645638306	 0.12374
H	-0.9983745965	-0.2162687333	 0.0564509825	 0.094779
H	 2.6817347405	-1.1775831434	-2.25055377	 0.227258
H	 1.4071429393	 1.5599535219	 2.1835631128	 0.132946
H	-0.0575748462	 0.8656174881	 2.9121604845	 0.122454
H	 1.5309577649	 0.1742650308	 3.2758793871	 0.136027
H	 0.9007584682	-2.1518817671	 2.4996377465	 0.134289
H	-0.7551837468	-1.561295097	 2.2461743786	 0.118317
H	 0.1131647558	-2.3674497732	 0.924791398	 0.136337
95.8184	109.4978	220.1963	244.0724	260.8893	271.7628	318.895	338.565	345.916	426.3594	511.7252	516.2217	614.8095	704.5007	725.7694	769.9597	805.9083	886.607	905.4404	939.4479	966.665	1001.5606	1013.6036	1039.1575	1075.5789	1095.9449	1131.9755	1198.4487	1218.5205	1260.6017	1309.8727	1374.6919	1388.699	1405.3443	1412.061	1423.7968	1474.3333	1483.157	1489.0823	1495.2189	1502.4335	1513.3185	1796.765	3041.4877	3045.5238	3052.4014	3067.3472	3114.5086	3119.5264	3123.2388	3125.2202	3128.4752	3140.1315	3533.0118
CC1OC(=N)OC1(C)C	C[C@H]1O[C]([NH])OC1(C)C	
InChI=1S/C6H11NO2/c1-4-6(2,3)9-5(7)8-4/h4,7H,1-3H3	InChI=1S/C6H11NO2/c1-4-6(2,3)9-5(7)8-4/h4,7H,1-3H3/t4-/m1/s1
