20
gdb 81181	3.13654	1.05522	0.94849	2.2273	80.76	-0.232	-0.0268	0.2052	1310.5876	0.169953	-403.079107	-403.070192	-403.069248	-403.113854	32.906	
C	-0.1418542556	 1.5457688941	-0.0997817798	-0.444715
C	 0.0997071242	 0.0526222551	 0.003605791	 0.044679
N	 1.2880030194	-0.5639016896	-0.7774115554	-0.153977
C	 2.1686661364	-0.0663467274	 0.382360959	-0.213262
C	 0.9333780982	-0.6199163083	 1.1335572518	 0.278416
C	 0.6458753642	-0.6467291572	 2.6301468912	-0.412657
C	 1.6692892968	-1.4674256397	 3.3826554947	 0.159625
O	 2.4557607687	-1.0235436917	 4.1787900208	-0.236185
C	 1.0541223436	-1.7873269769	 0.1220177533	-0.209613
H	-0.3861642058	 1.806743072	-1.1347247785	 0.136618
H	-0.9987760095	 1.8242160932	 0.5230169362	 0.122823
H	 0.7069395587	 2.1589843596	 0.2096094291	 0.123663
H	-0.8279609188	-0.4784144511	-0.2425653721	 0.07032
H	 3.1080505667	-0.618035856	 0.474731879	 0.106729
H	 2.3562094592	 1.0072927448	 0.3814535983	 0.106926
H	 0.6398815287	 0.3679240269	 3.0401566935	 0.124629
H	-0.3436726063	-1.0975263208	 2.7898231219	 0.116936
H	 1.6632923785	-2.5533193797	 3.129728357	 0.075583
H	 0.1495073164	-2.3496489507	-0.1280676916	 0.100064
H	 1.9260322962	-2.4431780367	 0.1903657106	 0.103398
47.2253	51.8471	144.5413	164.2639	233.7056	285.7817	365.4969	405.4309	475.0068	578.5679	605.3213	628.6293	752.3334	788.6017	816.4025	842.58	899.5218	936.6582	952.8109	997.9988	1030.5164	1039.7643	1058.5343	1110.4161	1122.8921	1158.0173	1162.2469	1176.9054	1197.2087	1201.6599	1251.7522	1252.5779	1295.8254	1314.0671	1405.8897	1427.9003	1431.5866	1457.0643	1489.9112	1494.5273	1521.4605	1556.3851	1832.8006	2859.9553	3017.4437	3027.8974	3041.7887	3047.3653	3068.6101	3093.5629	3101.8716	3113.8999	3124.1191	3141.6108
CC1N2CC1(CC=O)C2	C[C@H]1N2C[C@]1(CC=O)C2	
InChI=1S/C7H11NO/c1-6-7(2-3-9)4-8(6)5-7/h3,6H,2,4-5H2,1H3	InChI=1S/C7H11NO/c1-6-7(2-3-9)4-8(6)5-7/h3,6H,2,4-5H2,1H3/t6-/m1/s1
