16
gdb 36260	5.44266	0.95377	0.92348	3.0887	72.12	-0.2472	0.0269	0.2741	1239.0973	0.124433	-400.661946	-400.654731	-400.653787	-400.694302	27.539	
N	-0.0340343455	-1.1582296692	-0.3362409148	-0.305296
C	-0.049228835	-0.0317215573	-0.0790918258	 0.263438
C	-0.0370065111	 1.3952622135	 0.2410084099	-0.369863
C	 1.369533433	 1.9998155111	 0.1376716934	-0.034383
C	 1.9643444898	 2.2606969608	-1.2638644702	-0.094298
C	 1.1786180275	 3.6040127268	-1.4345706465	 0.085644
O	 2.3559505747	 4.3927613703	-1.7652330052	-0.32172
C	 2.8077767669	 3.463978542	-0.7382696069	 0.087767
C	 1.4919365405	 3.5393793312	 0.0981170211	-0.118052
H	-0.730516876	 1.9085595178	-0.4350938496	 0.150577
H	-0.4317766365	 1.5263811766	 1.2555038464	 0.154988
H	 2.047415572	 1.499237727	 0.8359553902	 0.095763
H	 2.2422759884	 1.5569128144	-2.0470982981	 0.103244
H	 0.2483212276	 3.8187282488	-1.9587415281	 0.104467
H	 3.8456565153	 3.4994452963	-0.4101500576	 0.106084
H	 1.2372922585	 4.2830856599	 0.8530857718	 0.091641
59.2562	118.9731	208.4672	290.3773	393.1053	448.8528	540.6691	586.6478	742.4954	759.3621	798.8879	823.1875	840.8283	881.7836	895.9825	930.5683	951.2019	982.1107	1008.0834	1031.8267	1071.6778	1105.9714	1133.8021	1149.5301	1164.1927	1174.0779	1183.7227	1214.8442	1248.775	1281.7113	1324.8282	1337.2437	1407.1502	1464.3107	2362.0137	3039.4593	3059.6989	3081.2114	3118.7481	3128.2495	3130.847	3144.8726
N#CCC1C2C3OC2C13	N#CC[C@H]1[C@H]2[C@@H]3O[C@H]2[C@H]13	
InChI=1S/C7H7NO/c8-2-1-3-4-6-5(3)7(4)9-6/h3-7H,1H2	InChI=1S/C7H7NO/c8-2-1-3-4-6-5(3)7(4)9-6/h3-7H,1H2/t3-,4-,5+,6-,7+
