21
gdb 106365	3.24625	1.21883	1.07621	1.6838	84.05	-0.222	0.0122	0.2341	1244.7764	0.181579	-387.060289	-387.051393	-387.050449	-387.093685	34.337	
C	 0.0667954973	 1.5229823441	 0.209548822	-0.379089
C	 0.0158611783	 0.0124088499	-0.0495864025	-0.309296
C	-1.3913820433	-0.5249154931	-0.0708834222	 0.405979
C	-1.7716121441	-2.0379318094	 0.0528398445	-0.270398
C	-3.0430753111	-1.3211671415	 0.5848093687	-0.038904
O	-2.1640900284	-0.3130829126	 1.1745178051	-0.322645
C	-3.5527833441	-0.59976492	-0.6871677066	 0.368481
C	-4.9508792027	-0.5887220288	-1.1950175587	-0.517071
C	-2.4161339321	-0.0555773337	-1.1299653039	-0.263022
H	 1.1007320499	 1.8776559445	 0.2511114869	 0.109523
H	-0.4495576728	 2.0806455699	-0.5783695493	 0.116446
H	-0.4191910383	 1.7632551249	 1.1588633467	 0.14079
H	 0.4914346215	-0.2290101964	-1.0089028699	 0.099632
H	 0.5817730387	-0.5169233752	 0.7252299753	 0.10429
H	-1.8434911802	-2.6380231038	-0.8570681074	 0.091725
H	-1.2118010084	-2.5482630825	 0.8415678049	 0.099509
H	-3.7543926931	-1.7684706426	 1.2794782584	 0.07341
H	-5.6379013315	-0.1525123975	-0.4585774896	 0.133281
H	-5.0364884574	-0.0136762225	-2.1212183107	 0.128052
H	-5.3131268593	-1.6057302814	-1.3938464723	 0.127857
H	-2.221136959	 0.5521560375	-2.0023570196	 0.10145
88.3531	129.3052	168.8385	183.4562	212.1693	263.9228	352.9989	386.0416	503.3202	554.6378	569.9184	611.1861	674.8443	760.8962	785.3674	799.0965	850.3376	874.7446	900.8924	953.8346	964.6931	994.6031	1012.3587	1045.5123	1062.3555	1084.137	1106.678	1118.1702	1175.9847	1202.9052	1229.6689	1248.1864	1288.4276	1296.5137	1329.7376	1390.6138	1410.0593	1412.9853	1476.6252	1478.3922	1484.6323	1487.908	1496.2001	1507.9557	1692.3806	3014.8459	3028.4081	3041.8092	3054.3602	3059.8744	3066.6221	3107.6143	3108.4719	3120.8968	3123.5921	3126.5478	3229.1712
CCC12CC(O1)C(C)=C2	CC[C@@]12C[C@@H](O1)C(=C2)C	
InChI=1S/C8H12O/c1-3-8-4-6(2)7(5-8)9-8/h4,7H,3,5H2,1-2H3	InChI=1S/C8H12O/c1-3-8-4-6(2)7(5-8)9-8/h4,7H,3,5H2,1-2H3/t7-,8-/m1/s1
