18
gdb 64887	1.98028	1.70653	1.09328	4.2925	83.42	-0.2577	0.0216	0.2794	1154.5961	0.144569	-364.788509	-364.778649	-364.777705	-364.822708	36.364	
C	-0.0489526699	 1.5249855507	-0.0674158484	-0.461696
C	 0.00668193	 0.0034275912	-0.0193249483	 0.094995
C	 1.3314015793	-0.7044252502	-0.2162076753	-0.342875
C	 0.714007107	-0.7004118276	 1.1699826074	 0.121129
C	 1.3539034548	 0.1020803521	 2.2946381825	-0.461557
C	 0.1343743231	-1.9416471113	 1.6252972404	 0.256285
N	-0.3065681137	-2.9298816983	 2.0337849214	-0.349183
C	-1.168710933	-0.6339276963	-0.55345729	 0.294164
C	-2.1645107825	-1.1298100638	-1.0087131871	-0.445383
H	 0.8855910918	 1.9821619567	 0.2629820187	 0.120619
H	-0.2344000984	 1.8477447862	-1.0958602768	 0.141342
H	-0.8631599534	 1.9057357768	 0.5557642962	 0.13905
H	 1.3332770497	-1.6338695871	-0.7714945302	 0.148302
H	 2.2107747006	-0.0833506359	-0.3509797901	 0.126906
H	 1.8610695243	 0.9894058084	 1.9131439781	 0.126994
H	 0.6066479299	 0.4177499287	 3.0283169638	 0.143549
H	 2.096929407	-0.5116280704	 2.8122819876	 0.145585
H	-3.0397493667	-1.5882967099	-1.39811631	 0.201772
106.6816	112.9198	153.8539	170.2645	189.207	197.7523	290.5804	306.6662	370.1818	399.6675	466.4325	538.4501	583.1708	610.609	619.9777	644.7313	662.5396	699.7509	836.0487	918.8966	945.756	951.5753	1011.4585	1076.1783	1089.4219	1108.7863	1159.5085	1223.9084	1306.976	1345.1812	1410.2993	1422.756	1478.8543	1479.7013	1490.0721	1494.7156	1508.0362	2239.9379	2351.9077	3047.4269	3051.9077	3114.8331	3116.3576	3129.876	3139.1962	3144.1236	3239.1816	3502.2613
CC1(CC1(C)C#N)C#C	C[C@]1(C[C@]1(C)C#N)C#C	
InChI=1S/C8H9N/c1-4-7(2)5-8(7,3)6-9/h1H,5H2,2-3H3	InChI=1S/C8H9N/c1-4-7(2)5-8(7,3)6-9/h1H,5H2,2-3H3/t7-,8-/m1/s1
