16
gdb 28095	4.62768	0.86587	0.77429	0.506	73.7	-0.1939	-0.0438	0.1502	1418.874	0.124605	-434.101625	-434.092992	-434.092048	-434.136107	30.883	
N	-0.1476747314	 1.4108268831	 0.0843147005	-0.593518
C	-0.0903138583	 0.0184107106	 0.0463788567	 0.296666
C	-1.1148805337	-0.895870635	-0.0489568286	-0.222668
N	-0.500156958	-2.1412549924	 0.0474217231	 0.024197
C	-1.1557061667	-3.4181953862	-0.0767705065	-0.263747
C	-1.6082743362	-3.7086813607	-1.5087897974	 0.148746
O	-2.5003714932	-4.4650738034	-1.7786824993	-0.222221
C	 0.8305958198	-1.9081500854	 0.181488769	-0.000877
N	 1.115173132	-0.6232546459	 0.1880709002	-0.318584
H	 0.7559253137	 1.8145968922	-0.1249626628	 0.250849
H	-0.8637827535	 1.8097202488	-0.5067228524	 0.24315
H	-2.1830669839	-0.7961001896	-0.1409565613	 0.123002
H	-0.4482567954	-4.2036100257	 0.2152342237	 0.152733
H	-2.0200450135	-3.4925287402	 0.5907600333	 0.152043
H	-1.0239540085	-3.1681023702	-2.2866481221	 0.101703
H	 1.5442321267	-2.71398673	 0.2743917639	 0.128523
43.3896	70.2662	107.1608	232.8364	262.7853	288.3435	385.1578	420.5327	440.8647	624.4053	628.4976	662.5005	685.7906	729.3097	765.3127	800.3958	814.6627	1004.8212	1027.792	1051.2305	1062.5588	1099.7297	1204.8993	1213.4332	1267.5754	1326.7699	1362.9147	1403.8204	1416.0928	1445.8977	1451.5145	1539.736	1615.1703	1649.7525	1843.873	2892.5695	3044.4671	3094.9403	3243.61	3274.3248	3549.0951	3646.6399
NC1=CN(CC=O)C=N1	Nc1cn(CC=O)cn1	
InChI=1S/C5H7N3O/c6-5-3-8(1-2-9)4-7-5/h2-4H,1,6H2	InChI=1S/C5H7N3O/c6-5-3-8(1-2-9)4-7-5/h2-4H,1,6H2
