19
gdb 75423	2.75594	1.31276	1.00173	4.3469	78.19	-0.2548	-0.0032	0.2516	1220.4451	0.159584	-423.065812	-423.057171	-423.056226	-423.099489	32.368	
C	 0.0739697842	 1.5248240642	-0.0655819801	-0.486753
C	-0.017947721	 0.0282386637	 0.0227726241	 0.31465
C	-1.1638319711	-0.655123062	 0.0534752537	-0.148656
C	-1.179228079	-2.1605037411	 0.0823110992	-0.288521
C	-0.5861411859	-2.7829095091	-1.1946738473	-0.302657
C	 0.8451822623	-2.4802143794	-1.6557147468	 0.382207
O	 1.3201328623	-3.1213155083	-2.5548675129	-0.313373
O	 1.5892710831	-1.4713692058	-1.1413323588	-0.221217
C	 1.2744298357	-0.7521028084	 0.0701020184	-0.168485
H	 0.622809382	 1.9421366039	 0.7884265565	 0.127938
H	 0.6191262686	 1.8314483845	-0.9672317934	 0.138239
H	-0.9161262632	 1.9872640107	-0.0907548863	 0.125578
H	-2.1146997551	-0.1299620024	 0.0070411124	 0.091561
H	-0.6360710047	-2.5335862982	 0.9609763993	 0.11641
H	-2.2042405941	-2.528531602	 0.1859571251	 0.108985
H	-0.6406387357	-3.8748770048	-1.149129596	 0.137591
H	-1.2065516562	-2.4935196965	-2.0517594931	 0.144488
H	 2.1303980934	-0.0859814809	 0.1953353694	 0.122252
H	 1.2791645143	-1.4556441383	 0.9112381264	 0.119762
50.9516	124.9748	168.721	197.5232	288.361	322.8307	357.4266	369.189	486.0163	507.5037	524.8634	632.738	673.649	732.4515	822.9548	862.1959	908.8739	916.2924	977.5059	1028.3586	1048.2452	1060.7483	1076.6823	1112.5856	1167.9424	1208.5069	1245.5632	1269.3451	1288.6118	1345.0106	1353.2827	1378.4173	1413.1841	1417.6983	1453.9471	1478.4999	1486.3959	1490.1809	1514.3403	1736.8046	1825.1112	3015.5648	3017.3404	3030.9529	3043.9114	3065.2376	3079.996	3091.034	3107.9641	3115.1928	3157.6751
CC1=CCCC(=O)OC1	CC1=CCCC(=O)OC1	
InChI=1S/C7H10O2/c1-6-3-2-4-7(8)9-5-6/h3H,2,4-5H2,1H3	InChI=1S/C7H10O2/c1-6-3-2-4-7(8)9-5-6/h3H,2,4-5H2,1H3
