15
gdb 25756	2.73857	1.54973	0.99582	2.2774	69.38	-0.2464	-0.0193	0.2271	1115.4614	0.113307	-454.027835	-454.019458	-454.018514	-454.061082	30.147	
C	 0.1597627669	 1.5119552938	 0.0270604426	-0.506398
C	-0.037588809	 0.0446422072	 0.0253938475	 0.284931
C	-1.1272865774	-0.7731673508	 0.0006594489	 0.095858
N	-0.7053966837	-2.1048730764	 0.0140978421	-0.329695
C	 0.5801089591	-2.0285743445	 0.0454601961	 0.055952
O	 1.0671457333	-0.7636311543	 0.0543961433	-0.174656
C	-2.5581667242	-0.3869565559	-0.0354577469	 0.323369
N	-3.4050740817	-1.449080687	-0.0546665473	-0.534198
O	-2.927828679	 0.7778245856	-0.0478838071	-0.379556
H	 0.7461938518	 1.8314699286	-0.8414462587	 0.142219
H	-0.8210809309	 1.9868116379	-0.0015130989	 0.186554
H	 0.6963603796	 1.8361965952	 0.9255671873	 0.142302
H	 1.3037799117	-2.8280777835	 0.0650491267	 0.156237
H	-3.0426047496	-2.387702388	-0.0429652279	 0.275634
H	-4.3955495668	-1.278860628	-0.0794395477	 0.261448
76.0351	138.9075	187.303	193.2915	225.4811	275.1001	310.8867	418.5205	504.623	597.0997	649.1924	668.7536	686.1642	699.3957	811.7927	836.892	957.2663	974.1486	1071.3252	1079.3978	1113.0024	1145.432	1216.7316	1256.9448	1349.8404	1395.0845	1417.9817	1476.8536	1487.8161	1569.4995	1598.777	1659.274	1775.1419	3036.0462	3089.4349	3160.9706	3277.4157	3602.4862	3745.7883
CC1=C(N=CO1)C(N)=O	Cc1c(nco1)C(=O)N	
InChI=1S/C5H6N2O2/c1-3-4(5(6)8)7-2-9-3/h2H,1H3,(H2,6,8)	InChI=1S/C5H6N2O2/c1-3-4(5(6)8)7-2-9-3/h2H,1H3,(H2,6,8)
