14
gdb 21110	3.48607	2.42749	1.44384	1.7415	68.83	-0.2313	-0.0691	0.1622	814.0941	0.109048	-374.883417	-374.876713	-374.875768	-374.914211	25.106	
C	-0.0311090935	 1.4257065015	 0.0141761242	-0.306891
N	-0.0077908131	-0.0305600957	 0.0428295628	-0.036846
N	-0.0438706542	-0.6256547794	-1.1566576009	-0.049803
N	-0.028167197	-1.8966218882	-1.2553142328	-0.23227
C	 0.026984841	-2.651854451	-0.0970518639	 0.047871
C	 0.0654731197	-2.1191858628	 1.1408929366	-0.201565
C	 0.049294693	-0.6811018111	 1.2933118309	 0.408334
N	 0.0780168599	 0.0468708283	 2.3482123911	-0.562551
H	 0.8643320306	 1.817753562	 0.5023087385	 0.157245
H	-0.0754609407	 1.7291127963	-1.0303195285	 0.15043
H	-0.8984161616	 1.7908011633	 0.5693853125	 0.157264
H	 0.0368597905	-3.7225048541	-0.2687656602	 0.133556
H	 0.108431354	-2.7352528311	 2.0320034027	 0.119147
H	 0.1183048714	-0.5426573681	 3.1782402571	 0.216079
127.4326	178.7465	235.5504	341.1725	366.8717	465.4019	547.8645	568.4961	632.9954	753.6632	755.7945	796.3609	867.7003	913.5741	994.2368	1006.5521	1053.8308	1107.8048	1152.0988	1206.0206	1246.6318	1279.8501	1354.3435	1428.2236	1430.6819	1466.2043	1500.5022	1506.2968	1615.3454	1707.9548	3061.174	3126.4333	3179.8109	3189.2136	3207.2504	3494.295
CN1N=NC=CC1=N	Cn1nnccc1[NH]	
InChI=1S/C4H6N4/c1-8-4(5)2-3-6-7-8/h2-3,5H,1H3	InChI=1S/C4H11N4/c1-8-4(5)2-3-6-7-8/h4-7H,2-3H2,1H3
