19
gdb 56765	2.62477	1.3196	1.08396	3.4153	79.02	-0.2673	0.037	0.3043	1182.8613	0.159812	-382.050953	-382.042219	-382.041275	-382.08468	32.611	
C	 0.0553913421	 1.4744507726	-0.213843419	-0.401707
C	 0.0235893475	-0.0357514356	 0.1007533438	-0.234615
C	 0.7569600685	-0.3294791003	 1.3385169173	 0.270136
N	 1.3211026603	-0.5530674939	 2.3222264905	-0.330643
C	-1.3936534262	-0.5614764163	 0.1844846953	 0.367985
C	-2.4068691539	-0.3154409248	 1.3180627469	-0.309837
C	-3.0030309996	-1.7378060698	 1.0427398431	-0.234965
C	-1.9688898187	-1.9246809429	-0.0756807063	-0.092971
N	-2.067456412	-0.8581863583	-1.0731192036	-0.368724
H	 1.0829873536	 1.8347649923	-0.3024064501	 0.136684
H	-0.4635851702	 1.6512445952	-1.1590884697	 0.139083
H	-0.4412266988	 2.0480335167	 0.5736664288	 0.13621
H	 0.5201008786	-0.5741758305	-0.7150002087	 0.136944
H	-1.9400749044	-0.2506102599	 2.3032496906	 0.133424
H	-3.0696366742	 0.5453960434	 1.1828845695	 0.099209
H	-2.8558519003	-2.4164253144	 1.8853843484	 0.120855
H	-4.050475934	-1.7890073518	 0.7283081977	 0.102666
H	-1.482479727	-2.8477241548	-0.3698944205	 0.103702
H	-3.0018908915	-0.4561186569	-1.1304530839	 0.226565
57.9192	108.6957	175.2653	201.8019	229.4919	261.224	349.9236	397.9533	462.5874	518.7465	575.5823	673.5018	758.6013	785.0504	844.9091	851.0343	920.8314	938.2027	949.3557	1000.8809	1023.0681	1051.8578	1079.4423	1102.3338	1102.7069	1145.1342	1188.6892	1212.6928	1228.6392	1250.4266	1275.662	1284.5665	1320.2203	1322.4063	1403.2227	1434.8672	1478.4146	1495.9024	1497.7383	1501.003	2356.7212	3046.6177	3048.4681	3051.6253	3055.2141	3107.4788	3123.2588	3127.5719	3134.3867	3180.5244	3456.9974
CC(C#N)C12CCC1N2	C[C@@H](C#N)[C@]12CC[C@H]1N2	
InChI=1S/C7H10N2/c1-5(4-8)7-3-2-6(7)9-7/h5-6,9H,2-3H2,1H3	InChI=1S/C7H10N2/c1-5(4-8)7-3-2-6(7)9-7/h5-6,9H,2-3H2,1H3/t5-,6+,7+/m0/s1
