14
gdb 14823	3.47803	1.54783	1.15129	4.1251	64.42	-0.2649	-0.0052	0.2597	985.9865	0.107637	-378.737569	-378.729925	-378.72898	-378.770702	26.02	
O	 0.0556338294	-0.0129443391	 0.4246829249	-0.311875
C	 0.059690131	 1.1944651593	 0.3368695369	 0.13476
N	 1.1170625624	 1.9135944038	-0.1220345776	-0.036705
C	 2.48547927	 1.4830270475	-0.4191505338	-0.163848
C	 2.8961159699	 2.9820711604	-0.4825414509	-0.260056
C	 1.4260877709	 3.3457439949	-0.0727231067	-0.129866
C	 0.677358074	 4.1865843514	-1.0094353572	 0.290707
N	 0.0942826664	 4.8578651254	-1.7474072141	-0.310444
H	-0.7991957381	 1.8408411687	 0.6077582996	 0.087045
H	 2.9382650868	 0.9037555636	 0.3909424603	 0.136484
H	 2.5783731365	 0.9220679871	-1.35270435	 0.140549
H	 3.6452806961	 3.2988485144	 0.2414230437	 0.136977
H	 3.1694924074	 3.3374559251	-1.4746964524	 0.147117
H	 1.3426657074	 3.7815298974	 0.9299317673	 0.139153
47.7075	85.9241	155.3883	222.4496	256.0165	306.3297	465.0386	519.3277	624.8066	738.1961	799.5264	851.6265	926.0679	950.8343	1031.5388	1038.7885	1085.9816	1153.4069	1180.4991	1211.0342	1244.6788	1267.6815	1317.1729	1357.9675	1386.4316	1436.4507	1488.8879	1523.3544	1798.5229	2358.6576	2937.8622	3037.6566	3057.5501	3103.4701	3109.5553	3170.9801
O=CN1CCC1C#N	O=CN1CC[C@H]1C#N	
InChI=1S/C5H6N2O/c6-3-5-1-2-7(5)4-8/h4-5H,1-2H2	InChI=1S/C5H6N2O/c6-3-5-1-2-7(5)4-8/h4-5H,1-2H2/t5-/m0/s1
