15
gdb 116990	4.70657	0.61329	0.54628	3.7901	85.5	-0.2867	-0.0835	0.2032	1919.957	0.111363	-416.799297	-416.789876	-416.788932	-416.834709	32.195	
C	 0.076634809	 1.5221520323	 0.1788836649	-0.393629
C	 0.0161680797	 0.0154125717	 0.0268762179	-0.044744
O	 0.6955108118	-0.5584671652	 1.1644453735	-0.227451
C	 0.7489063617	-1.8940206542	 1.2112761875	 0.205884
N	 0.2404006029	-2.6474499795	 0.3197410133	-0.529513
C	 1.4463455623	-2.3592333489	 2.3816124628	 0.004447
C	 2.0202442287	-2.8166145668	 3.3420936057	 0.208963
C	 2.6687529504	-3.3298623836	 4.4274424062	 0.195816
N	 3.2206021536	-3.7688787735	 5.3505704072	-0.322906
H	 1.112336008	 1.8718090654	 0.2017543706	 0.134802
H	-0.4294907929	 1.9962874071	-0.6669847033	 0.127941
H	-0.4169685079	 1.8425185738	 1.1003934724	 0.1348
H	-1.0117438297	-0.3604105121	 0.006373334	 0.13011
H	 0.508871894	-0.3313025456	-0.8870671404	 0.130133
H	 0.3888200282	-3.6298471412	 0.5387149178	 0.245346
63.1395	75.4125	88.9079	157.4526	186.4589	252.5805	267.7796	340.006	376.8749	414.2931	540.8028	580.6366	588.5341	729.0505	802.6562	808.8542	846.8513	879.4317	1025.5435	1102.6001	1134.3396	1138.3266	1180.3691	1291.1209	1360.1126	1408.4782	1433.3261	1485.7513	1495.7587	1517.2991	1676.892	2263.0571	2392.8233	3049.5022	3052.4191	3091.4683	3124.6011	3130.2113	3528.9046
CCOC(=N)C#CC#N	CCO[C]([NH])C#CC#N	
InChI=1S/C6H6N2O/c1-2-9-6(8)4-3-5-7/h8H,2H2,1H3	InChI=1S/C6H6N2O/c1-2-9-6(8)4-3-5-7/h8H,2H2,1H3
