13
gdb 129681	3.31608	1.42267	1.01272	2.6477	64.84	-0.2166	-0.0247	0.1919	1063.6638	0.089905	-486.07029	-486.062711	-486.061767	-486.102671	28.035	
N	-0.5800983883	 0.767774688	-0.9956856927	-0.597419
C	-0.2217577727	-0.3045538253	-0.253692009	 0.414381
C	-0.9508749364	-1.2338689551	 0.4679381522	 0.260409
N	-2.3279267018	-1.415557374	 0.6608933888	-0.397534
C	-3.3249154757	-0.9691038104	-0.1404495704	 0.143375
O	-3.1803302016	-0.3003611049	-1.1506702366	-0.337655
N	-0.0610711267	-2.0492737531	 1.0865534825	-0.172165
N	 1.1290594274	-1.7322115517	 0.8282610117	-0.04134
O	 1.0633965426	-0.5817365327	-0.0743789948	-0.216433
H	 0.1233523964	 1.1239553093	-1.6244457018	 0.270139
H	-1.5336931937	 0.7084028851	-1.3478182238	 0.296331
H	-2.5749671926	-1.9901835866	 1.4535478609	 0.275031
H	-4.3173354567	-1.2748881986	 0.232558263	 0.10288
62.9367	210.2529	225.88	268.7235	304.0156	392.7449	433.6673	456.0205	556.7236	596.7339	647.0905	658.8116	694.7589	737.4998	768.4079	874.2506	990.4064	1010.6734	1094.7044	1169.8441	1289.7242	1328.6122	1421.2874	1431.7701	1485.3081	1555.614	1608.2048	1692.6743	1775.0488	2992.506	3453.3077	3618.2632	3657.4297
NC1=C(NC=O)N=NO1	Nc1c(NC=O)nno1	
InChI=1S/C3H4N4O2/c4-2-3(5-1-8)6-7-9-2/h1H,4H2,(H,5,8)	InChI=1S/C3H4N4O2/c4-2-3(5-1-8)6-7-9-2/h1H,4H2,(H,5,8)
