25
gdb 97969	5.15825	0.45704	0.43427	0.1247	100.31	-0.2382	0.0604	0.2986	2652.6007	0.226357	-352.350134	-352.338173	-352.337229	-352.389543	42.024	
C	 0.0148518219	 1.5601121836	 0.1648684698	-0.361941
C	-0.1530641639	 0.0465924711	-0.0625944939	-0.312816
C	 0.5744130847	-0.441560023	-1.2303813986	 0.128757
C	 1.1828949149	-0.8125433609	-2.2020812783	 0.004526
C	 1.9116529641	-1.3050867256	-3.366771277	-0.370586
C	 2.0392924445	-2.8431491697	-3.3865352199	-0.154364
C	 2.7134950653	-3.4099612868	-4.6480892312	 0.046971
C	 4.1787932582	-2.9708473738	-4.7833563039	-0.383257
C	 2.6076731094	-4.941146195	-4.6644245421	-0.394499
H	 1.0673369751	 1.8157296632	 0.3152408138	 0.125996
H	-0.34785514	 2.1247345551	-0.6984141112	 0.126154
H	-0.5474862528	 1.8797440272	 1.0475542536	 0.111098
H	 0.1831612729	-0.4953070552	 0.8310686016	 0.124531
H	-1.2199184058	-0.1890307034	-0.1706487232	 0.124315
H	 1.4055089617	-0.9749284424	-4.2847139283	 0.120572
H	 2.9075509898	-0.8457729362	-3.3910690351	 0.1257
H	 2.5933368914	-3.1666673454	-2.4958182342	 0.100316
H	 1.0342012634	-3.2705837693	-3.2935750172	 0.101137
H	 2.1636605446	-3.0263826819	-5.5205808618	 0.069894
H	 4.7669575921	-3.3074631081	-3.9208197107	 0.112215
H	 4.6335956472	-3.4012646102	-5.6816832761	 0.110145
H	 4.2819782232	-1.8839153999	-4.8532566793	 0.11386
H	 1.5645505986	-5.2703756122	-4.6138021674	 0.110265
H	 3.0489650103	-5.3594497792	-5.5751782352	 0.108717
H	 3.1364476591	-5.3789018519	-3.8090939444	 0.112294
16.8555	45.2121	62.2306	100.192	149.8874	180.5443	213.5398	230.2838	249.1967	269.2146	341.1627	390.8189	399.8649	428.506	484.7694	526.7477	738.4212	764.9531	786.6149	834.8039	927.2317	936.4832	961.166	965.3825	979.1579	1029.2272	1079.4294	1104.5396	1133.7488	1142.0886	1167.1514	1193.3205	1233.5031	1283.5978	1286.5001	1314.958	1349.2392	1352.3467	1370.5379	1386.2488	1401.1064	1407.902	1422.4539	1472.4995	1477.7345	1487.1931	1490.5256	1494.3133	1497.6094	1505.4689	1506.0058	1511.555	2366.1553	2990.6776	3008.5606	3015.9168	3022.1788	3024.6233	3030.0918	3041.5959	3042.2471	3042.6668	3071.3391	3087.0982	3093.5508	3098.436	3102.5837	3115.1925	3122.1608
CCC#CCCC(C)C	CCC#CCCC(C)C	
InChI=1S/C9H16/c1-4-5-6-7-8-9(2)3/h9H,4,7-8H2,1-3H3	InChI=1S/C9H16/c1-4-5-6-7-8-9(2)3/h9H,4,7-8H2,1-3H3
