14
gdb 56483	3.72258	0.96858	0.79131	5.3906	64.99	-0.2721	-0.0446	0.2274	1334.1834	0.100397	-470.03141	-470.022486	-470.021542	-470.066009	31.044	
O	-0.3814059305	 1.0711562018	 0.0716662276	-0.420209
C	 0.1358051651	-0.2457309966	-0.0719971878	-0.073564
C	 0.9687864779	-0.368110591	-1.2759715553	 0.290806
N	 1.5903798856	-0.3748046942	-2.2487395165	-0.309373
C	 0.8816052682	-0.7364968705	 1.1831561288	 0.342716
N	 1.7667001174	-1.6309432898	 1.0798121725	-0.480349
N	 0.3895338851	-0.1162411755	 2.3399607005	-0.348854
C	 0.7727078979	-0.3939362794	 3.6314535586	 0.167323
O	 1.5857379005	-1.2277927416	 3.9556560715	-0.289714
H	 0.3330951566	 1.6987465016	-0.0931174807	 0.309122
H	-0.7454413428	-0.8870916061	-0.1972530512	 0.173154
H	 2.1270331799	-1.8997531947	 1.996356377	 0.263018
H	-0.2765568534	 0.6289059419	 2.1833853771	 0.270752
H	 0.2391706225	 0.245341134	 4.3591694181	 0.105172
40.9709	90.6777	135.2083	231.6521	239.5258	266.6974	276.8532	370.2097	405.9617	455.8891	521.732	586.2862	655.8572	700.2362	842.7246	916.2464	940.401	975.2896	1027.2176	1073.7124	1084.7499	1182.0859	1257.3833	1281.7964	1335.5249	1414.2114	1435.6468	1515.444	1740.9987	1815.5611	2371.0539	2965.2049	3048.0259	3487.8142	3585.7434	3794.5395
OC(C#N)C(=N)NC=O	O[C@@H](C#N)C(=N)NC=O	
InChI=1S/C4H5N3O2/c5-1-3(9)4(6)7-2-8/h2-3,9H,(H2,6,7,8)	InChI=1S/C4H5N3O2/c5-1-3(9)4(6)7-2-8/h2-3,9H,(H2,6,7,8)/t3-/m0/s1
