19
gdb 58694	3.12805	1.01065	0.85379	1.4992	71.85	-0.2528	-0.0305	0.2223	1362.7539	0.15591	-460.148619	-460.138884	-460.13794	-460.183795	35.358	
C	 0.0686452505	 1.528233946	 0.3437445469	-0.413622
C	-0.0212709882	 0.0585678656	-0.0832011344	 0.068289
O	 0.87086011	-0.738425157	 0.6750693579	-0.430939
C	-1.446093622	-0.505031101	 0.0231717725	 0.356694
C	-2.5475460864	 0.2871968204	-0.6654607905	-0.370605
C	-3.9342767494	-0.3078327685	-0.5150118299	 0.147704
O	-4.7125291247	-0.4430241131	-1.4238681425	-0.243056
C	-1.6111110496	-1.9415540116	 0.2796271839	-0.232771
O	-1.7558694762	-0.9807455533	 1.3454917846	-0.284672
H	 1.1191627227	 1.8272726862	 0.3612888875	 0.132617
H	-0.4637018481	 2.1930743849	-0.3428305604	 0.119614
H	-0.3450342556	 1.6663752716	 1.3491071959	 0.12357
H	 0.3060236931	-0.0371747154	-1.1260860859	 0.099284
H	 0.4656252983	-0.8296457664	 1.5485864935	 0.289411
H	-2.5885650462	 1.2921064092	-0.2224393212	 0.13704
H	-2.3297536797	 0.4049976851	-1.7317325409	 0.132525
H	-4.199129597	-0.5948001492	 0.5246938486	 0.103664
H	-2.5329468684	-2.4410276568	-0.0142623745	 0.127178
H	-0.7301955631	-2.5719441467	 0.351313419	 0.138075
61.1409	76.7367	85.6184	186.3462	231.2707	273.2114	286.3042	359.7458	362.7973	415.9726	455.9834	474.7929	509.8366	627.4667	689.1346	803.2915	840.3076	889.5708	922.9993	947.6605	1030.5549	1049.0457	1085.8044	1100.6421	1122.53	1134.7654	1175.1578	1180.298	1237.1054	1296.0949	1333.5491	1348.8881	1393.6796	1402.2682	1420.2114	1431.9362	1452.8958	1495.8731	1496.2414	1520.366	1831.6722	2913.6606	3021.2583	3035.7835	3039.1795	3092.2264	3100.99	3108.4357	3127.7275	3203.5146	3754.2043
CC(O)C1(CC=O)CO1	C[C@@H](O)[C@@]1(CC=O)CO1	
InChI=1S/C6H10O3/c1-5(8)6(2-3-7)4-9-6/h3,5,8H,2,4H2,1H3	InChI=1S/C6H10O3/c1-5(8)6(2-3-7)4-9-6/h3,5,8H,2,4H2,1H3/t5-,6-/m1/s1
