17
gdb 85102	1.9749	1.59669	1.2371	4.604	74.25	-0.2833	-0.0028	0.2805	1104.2313	0.134752	-418.027193	-418.018069	-418.017124	-418.061028	33.095	
C	-0.3656898267	 1.4671819273	-0.0293660888	-0.418238
C	 0.1260646312	 0.0398189526	-0.0445355383	 0.120916
O	 1.3981422476	-0.1065588968	-0.7638810971	-0.26792
C	 2.0139002951	-0.6941433279	 0.3116567439	 0.434608
N	 3.1725287929	-1.1298248511	 0.4808678902	-0.534978
C	 0.7960360605	-0.582905251	 1.234950206	-0.035992
C	 1.0154860079	 0.3071753599	 2.4650136818	-0.446016
C	 0.2155612082	-1.8656121483	 1.6175116688	 0.260789
N	-0.2736045472	-2.8674771713	 1.9217515438	-0.33387
H	 0.3830849885	 2.1519755382	 0.3745870054	 0.134963
H	-0.6015950003	 1.7823628796	-1.0499122726	 0.145694
H	-1.2783559325	 1.5463101957	 0.5695001323	 0.138712
H	-0.6141751466	-0.63070387	-0.4884043037	 0.120111
H	 3.7480079469	-1.028134397	-0.3562980978	 0.238722
H	 1.4701373387	 1.2575039	 2.1791218274	 0.136887
H	 0.0711299626	 0.5016900879	 2.9797666006	 0.140886
H	 1.6930718432	-0.197378378	 3.1571548678	 0.164725
79.0463	126.8636	163.5342	195.4344	209.6782	230.4566	283.6024	311.1422	422.2227	468.6474	547.9108	574.9804	624.8975	684.2878	735.6101	852.2713	865.9829	873.8265	959.0048	1012.1497	1033.7313	1069.2232	1110.3604	1162.2265	1183.3455	1224.8055	1236.9706	1338.3938	1384.9602	1411.4653	1416.8912	1475.8767	1486.0686	1492.429	1504.5121	1831.6936	2358.6425	3047.801	3057.3061	3080.95	3118.6421	3133.0467	3137.3627	3144.0925	3486.9393
CC1OC(=N)C1(C)C#N	C[C@H]1O[C]([NH])[C@]1(C)C#N	
InChI=1S/C6H8N2O/c1-4-6(2,3-7)5(8)9-4/h4,8H,1-2H3	InChI=1S/C6H8N2O/c1-4-6(2,3-7)5(8)9-4/h4,8H,1-2H3/t4-,6-/m1/s1
