16
gdb 10315	2.5141	1.66913	1.13424	1.9829	62.55	-0.2536	-0.0479	0.2057	1048.7719	0.126485	-420.897783	-420.888391	-420.887447	-420.932545	31.773	
C	-0.1723193363	 1.4598355345	-0.1671990224	-0.485524
C	-0.0348465351	-0.0364728227	-0.0151149817	 0.361105
O	-0.0382351183	-0.6024906844	 1.0526944722	-0.29262
C	 0.1152513573	-0.834964977	-1.3244108673	-0.166485
C	 0.6715385042	-2.2301932711	-1.0803046956	-0.102336
O	 0.8223489274	-2.8311646519	-2.3584430657	-0.42744
C	-1.2497033593	-0.90782054	-2.0162405994	 0.16306
O	-1.7877644962	 0.0255919265	-2.5515774472	-0.247936
H	 0.794994135	 1.8781215992	-0.4716133559	 0.145206
H	-0.8846576354	 1.696982114	-0.9630852895	 0.170673
H	-0.4746797061	 1.907444199	 0.7801950619	 0.142401
H	 0.7702393054	-0.2733281185	-2.0005768746	 0.124875
H	 1.6252550383	-2.1653312268	-0.5395414989	 0.107214
H	-0.0248074996	-2.7914973709	-0.4413737282	 0.1117
H	 1.0923287242	-3.7458934115	-2.2346584442	 0.293862
H	-1.7342783756	-1.9055069583	-1.9644866134	 0.102247
68.7471	70.2431	110.5528	165.2635	177.8375	211.449	266.6253	312.1061	351.903	398.2719	538.0926	591.4722	606.2896	794.046	886.2839	944.455	976.0265	1026.7366	1078.8441	1099.875	1123.0341	1168.5774	1224.4684	1243.8717	1266.7704	1328.2643	1388.2973	1419.9953	1453.9215	1467.1532	1473.5401	1518.5494	1798.8915	1829.5943	2912.9395	3002.8494	3034.9219	3037.3798	3059.4244	3104.9979	3157.5164	3830.4837
CC(=O)C(CO)C=O	CC(=O)[C@@H](CO)C=O	
InChI=1S/C5H8O3/c1-4(8)5(2-6)3-7/h2,5,7H,3H2,1H3	InChI=1S/C5H8O3/c1-4(8)5(2-6)3-7/h2,5,7H,3H2,1H3/t5-/m1/s1
