18
gdb 106203	3.23305	1.48259	1.47253	2.3094	73.69	-0.2293	0.0648	0.2941	978.8637	0.1496	-401.887582	-401.880476	-401.879532	-401.919345	28.531	
O	 0.0145365871	 1.4342079556	-0.1256065197	-0.41731
C	-0.0025986583	 0.0379380808	 0.1268850978	-0.197009
C	-1.3900390397	-0.5041831312	 0.0031414209	 0.374549
C	-2.1277844128	-0.9947407012	-1.2116163373	-0.121408
C	-3.482763121	-0.321491276	-1.2850288352	-0.244009
C	-3.7182040751	-0.1621912705	 0.2004992552	-0.048577
C	-3.0903531428	-1.2687436943	 0.9671251238	-0.047025
C	-2.0240623359	-1.8686212242	 0.039960514	-0.19262
N	-2.4384967518	 0.0845395121	 0.9368426541	-0.212782
H	-0.6372750326	 1.8199693145	 0.4725431635	 0.293863
H	 0.6589138373	-0.4304891132	-0.6093950634	 0.108627
H	 0.3983048021	-0.1870934201	 1.1277676832	 0.094242
H	-1.5648719402	-1.2756577416	-2.092959377	 0.095175
H	-3.4389118955	 0.6418604278	-1.8037536307	 0.115307
H	-4.2516603305	-0.942271364	-1.7573373889	 0.108279
H	-4.5749818243	 0.3727931988	 0.5945286462	 0.097679
H	-3.4706741859	-1.6978078569	 1.8864874531	 0.097232
H	-1.5861892602	-2.8558075963	 0.0773296704	 0.095788
73.3769	129.614	271.874	381.015	397.1764	423.5602	547.0287	639.7435	722.2694	741.1272	761.8285	804.0133	840.7366	854.0475	879.2691	921.4845	928.5285	971.1194	975.8924	1001.7523	1023.113	1032.7044	1059.449	1068.1675	1077.0412	1118.9363	1164.6251	1186.3828	1206.6454	1234.2383	1251.9527	1288.403	1319.6357	1369.7983	1377.4893	1410.156	1468.5941	1486.9186	1498.5253	2979.7124	3046.3242	3074.1274	3090.7775	3176.7386	3187.5797	3200.719	3218.2089	3784.3174
OCC12C3CC4C(C13)N24	OC[C@@]12[C@@H]3C[C@H]4[C@@H]([C@H]13)N24	
InChI=1S/C7H9NO/c9-2-7-3-1-4-6(5(3)7)8(4)7/h3-6,9H,1-2H2	InChI=1S/C7H9NO/c9-2-7-3-1-4-6(5(3)7)8(4)7/h3-6,9H,1-2H2/t3-,4+,5-,6+,7-,8?/m1/s1
