19
gdb 119935	2.40433	1.13273	0.99124	0.8001	78.93	-0.2311	0.0379	0.2691	1316.3345	0.155506	-422.960878	-422.950661	-422.949717	-422.996515	36.631	
C	-0.1506894803	 1.4328695307	 0.0526096443	-0.385432
C	-0.2505863851	-0.0450897439	 0.3841083814	-0.040522
O	-1.1793508325	-0.6380693649	-0.5251751573	-0.247241
C	-1.3510762865	-1.9923434397	-0.3153852169	 0.06994
C	-2.2849371801	-2.4391700088	 0.7805322329	 0.083383
O	-2.8938318908	-1.4997374475	 1.5995389153	-0.419111
C	-2.7183650601	-2.5645378222	-0.6874292317	-0.328941
C	-3.755523836	-1.686987075	-1.1329561415	 0.319207
C	-4.6538843398	-0.9435188492	-1.4334210499	-0.438188
H	 0.559866074	 1.9244923224	 0.7237181295	 0.115768
H	 0.1872615001	 1.5752926841	-0.9777162117	 0.126809
H	-1.1251436342	 1.9166704636	 0.1638120772	 0.1279
H	 0.7313689017	-0.5337337509	 0.2793425893	 0.086149
H	-0.595960279	-0.1991068263	 1.4140899013	 0.116424
H	-0.4853112172	-2.6178271394	-0.5447581437	 0.087771
H	-2.068548167	-3.3604124944	 1.3134129324	 0.110282
H	-3.4888262396	-0.9670158663	 1.0540734195	 0.294051
H	-2.7238548398	-3.5610433527	-1.1178399602	 0.120568
H	-5.4298455278	-0.2886713598	-1.7444157803	 0.201182
62.3272	83.2427	96.4911	132.8452	192.9269	223.6786	230.5705	268.3119	349.85	388.0537	404.5345	588.3545	621.2205	640.4639	665.0462	706.1966	751.5679	776.1584	824.0163	873.0826	936.0072	1012.3854	1058.8679	1075.5451	1108.2569	1114.459	1147.2127	1166.5132	1186.6818	1249.7621	1298.0349	1341.0642	1346.7632	1373.207	1402.8485	1431.611	1454.0399	1482.9277	1500.3433	1524.2274	2228.4742	2977.6357	3045.4265	3046.8521	3072.5702	3120.1218	3123.153	3150.6602	3159.6226	3503.072	3741.8177
CCOC1C(O)C1C#C	CCO[C@H]1[C@@H](O)[C@H]1C#C	
InChI=1S/C7H10O2/c1-3-5-6(8)7(5)9-4-2/h1,5-8H,4H2,2H3	InChI=1S/C7H10O2/c1-3-5-6(8)7(5)9-4-2/h1,5-8H,4H2,2H3/t5-,6+,7-/m1/s1
