15
gdb 53998	1.96766	1.64391	1.24204	3.8089	63.73	-0.2557	-0.0562	0.1996	1051.8639	0.109401	-491.086724	-491.077221	-491.076276	-491.121395	33.652	
N	 0.516766939	 0.417382937	 0.9980081071	-0.557966
C	 0.0074254662	 0.1296557133	-0.258725341	 0.299749
N	 0.3956441341	 0.5442669712	-1.3991898186	-0.499986
C	-1.2798498066	-0.6856521799	-0.2075242413	 0.14973
O	-2.3016768125	 0.0158854506	 0.5054889906	-0.463901
C	-1.7994451409	-0.8923976064	-1.6338778443	 0.157348
O	-1.7409589758	-1.9563420102	-2.1897025473	-0.249647
C	-1.1414362939	-2.0405681163	 0.5159854556	 0.148264
O	-0.3430526288	-2.2577549938	 1.3949282999	-0.270933
H	 1.3943670476	 0.9204130512	 0.9994082166	 0.249699
H	 0.507042111	-0.3835625408	 1.6244192916	 0.276254
H	 1.254249449	 1.0957852249	-1.3402001229	 0.212809
H	-1.8627877702	 0.5344490102	 1.1928202462	 0.304223
H	-2.2676528711	 0.00573561	-2.076782271	 0.113463
H	-1.9011204371	-2.787829931	 0.2245401288	 0.130893
64.4496	73.6312	117.6505	213.4358	237.0563	244.7511	298.8546	323.3584	365.035	405.5524	482.6024	513.3097	546.7362	654.9055	696.5477	724.6538	769.513	886.1617	941.9095	981.6046	1054.8948	1100.1268	1126.7636	1145.3239	1180.6488	1354.1834	1389.7102	1401.3789	1436.1236	1631.7661	1735.6918	1811.4939	1833.9323	2972.5704	2982.8371	3449.3552	3485.8533	3619.4835	3767.8139
NC(=N)C(O)(C=O)C=O	NC(=N)C(O)(C=O)C=O	
InChI=1S/C4H6N2O3/c5-3(6)4(9,1-7)2-8/h1-2,9H,(H3,5,6)	InChI=1S/C4H6N2O3/c5-3(6)4(9,1-7)2-8/h1-2,9H,(H3,5,6)
