15
gdb 11261	4.76785	1.41532	1.21929	5.1068	68.35	-0.2461	-0.0465	0.1996	983.1585	0.120435	-358.869698	-358.862288	-358.861344	-358.901486	27.114	
C	 0.095050369	 1.5147828024	 0.1188811794	-0.401676
C	-0.0458970021	-0.0001232054	-0.0378152603	 0.01749
C	 0.7829491269	-0.5817710825	-1.2226250329	-0.180976
N	 2.0077036136	-1.1542625681	-0.6366393991	-0.288825
C	 1.7923525375	-1.1872714303	 0.6241397765	 0.28364
N	 0.5611475267	-0.7434319606	 1.0863241122	-0.351342
C	 2.7470796938	-1.7007201328	 1.5705908722	 0.257595
N	 3.4913267366	-2.0896335983	 2.3643237773	-0.316097
H	 1.1496034002	 1.8048293456	 0.1730478911	 0.134603
H	-0.3563932086	 2.0270091211	-0.7368804995	 0.129801
H	-0.4089050575	 1.8710409902	 1.0237422887	 0.120383
H	-1.1027956136	-0.2682141726	-0.1226714383	 0.094901
H	 0.2393030112	-1.3816164649	-1.7399626292	 0.127045
H	 1.0383099502	 0.1767647022	-1.9688950979	 0.121303
H	 0.517887866	-0.338994176	 2.0119869697	 0.252156
90.2392	165.1379	173.845	248.5044	333.5443	381.9259	451.8791	540.1682	562.1311	592.7119	718.5234	750.0495	835.2101	924.6886	933.1011	979.5579	1014.5338	1061.3679	1120.6992	1130.9357	1229.8382	1242.8243	1289.7727	1331.2443	1381.0603	1407.5953	1444.7568	1487.1102	1494.0293	1496.2755	1671.8266	2366.1295	3031.0305	3033.2019	3062.2526	3081.6106	3103.2323	3111.6259	3590.4928
CC1CN=C(N1)C#N	C[C@H]1C[N][C](N1)C#N	
InChI=1S/C5H7N3/c1-4-3-7-5(2-6)8-4/h4H,3H2,1H3,(H,7,8)	InChI=1S/C5H7N3/c1-4-3-7-5(2-6)8-4/h4H,3H2,1H3,(H,7,8)/t4-/m0/s1
