22
gdb 22549	1.96536	1.08622	0.82274	1.472	81.72	-0.2419	0.0132	0.2552	1497.2551	0.190636	-441.447603	-441.436105	-441.435161	-441.485042	40.505	
C	-1.6256494263	 0.0377494318	-0.1912374127	-0.391121
C	-0.1165258547	-0.0503372863	 0.050151646	-0.17413
C	 0.6651116548	-0.6606488568	-1.1240512328	-0.037706
C	 2.1759206632	-0.4149411722	-0.9686473916	-0.095074
O	 2.4085826048	 0.9815182124	-1.0788093884	-0.419682
C	 0.4302900913	-2.1428179748	-1.3508678459	 0.333367
C	 0.7149802482	-2.7363702551	-2.7069082189	-0.470575
N	 0.0147556233	-2.8342773276	-0.3597532539	-0.167511
O	-0.1309643069	-4.1909872099	-0.6972086232	-0.401617
H	-1.8510012057	 0.6422353909	-1.0774493046	 0.107688
H	-2.0627350944	-0.9538146546	-0.3376282497	 0.122929
H	-2.1301365785	 0.5031398391	 0.6614473818	 0.107665
H	 0.2896579833	 0.9509859406	 0.2225978968	 0.106017
H	 0.0790641256	-0.6406949698	 0.9513493819	 0.10626
H	 0.3698508876	-0.1423182076	-2.0480419326	 0.085889
H	 2.4995976945	-0.8042700653	 0.0091765112	 0.096753
H	 2.731920416	-0.9655886364	-1.7435905183	 0.086479
H	 3.3297160674	 1.1514991529	-0.862401366	 0.287884
H	 1.4228720608	-3.5668729571	-2.6260962673	 0.145727
H	-0.203286414	-3.1547780088	-3.1330780275	 0.146498
H	 1.1130783462	-1.9887655932	-3.3955129811	 0.11984
H	-0.4556564267	-4.5687687923	 0.1267138868	 0.30442
39.0691	71.7341	96.9947	123.3646	144.4627	191.2834	219.1454	255.9446	261.7731	304.7037	319.49	370.7562	416.4287	464.3042	478.5681	571.2431	661.3682	761.9735	834.768	873.615	974.4915	988.8242	1001.8941	1026.3662	1038.2867	1064.9788	1083.4613	1133.2109	1154.7466	1219.7552	1233.2599	1266.3586	1293.0523	1324.1609	1365.5625	1390.9013	1398.5673	1402.856	1409.8609	1449.7893	1473.4101	1481.7218	1489.923	1498.7993	1509.7694	1518.9305	1725.5138	2971.0779	2996.3542	3012.8185	3032.6893	3042.1023	3051.5012	3086.4501	3099.3525	3099.6146	3117.7106	3133.4646	3822.059	3834.7328
CCC(CO)C(C)=NO	CC[C@@H](CO)C(=NO)C	
InChI=1S/C6H13NO2/c1-3-6(4-8)5(2)7-9/h6,8-9H,3-4H2,1-2H3	InChI=1S/C6H13NO2/c1-3-6(4-8)5(2)7-9/h6,8-9H,3-4H2,1-2H3/t6-/m0/s1
