17
gdb 83128	2.11922	1.82243	1.41724	2.6575	68.25	-0.2463	-0.0245	0.2218	994.1779	0.134337	-458.9616	-458.952973	-458.952029	-458.994888	31.799	
C	-0.1966970045	 1.5648667791	-0.0220967862	-0.482129
C	 0.0326138323	 0.0752238554	 0.0026667886	 0.109415
C	-0.7911440756	-0.828926997	 0.9467265622	 0.05942
O	-1.3388863242	-2.0339475043	 0.5253053981	-0.424155
C	 0.6853735019	-0.722213442	 1.1179088579	-0.022897
O	 1.3831547535	-1.8353898834	 0.5904947764	-0.278494
C	 1.3362136505	-1.812803896	-0.8357313198	-0.197595
C	 0.5170280232	-0.5873859518	-1.2478936931	 0.357149
O	 0.3688691916	-0.1918737738	-2.3757948926	-0.321343
H	 0.733902251	 2.1095354786	-0.2114149877	 0.129788
H	-0.8996227051	 1.8178700093	-0.8212567428	 0.149129
H	-0.6102943327	 1.9196639895	 0.9262829325	 0.118653
H	-1.4334343907	-0.2691049474	 1.6237949599	 0.109821
H	-0.7065093635	-2.7238981043	 0.7662066292	 0.300423
H	 1.1665068923	-0.2852841187	 1.9864570046	 0.114073
H	 2.3519961165	-1.7346944322	-1.2410138286	 0.141659
H	 0.8742418734	-2.7280426307	-1.2229610387	 0.137082
98.7251	116.7321	130.8627	204.7965	244.9048	256.5436	348.9101	403.7245	463.0773	577.5261	612.9325	622.9719	662.6466	698.0609	824.476	864.7364	909.7697	981.1671	996.9073	1021.3112	1054.2453	1080.16	1113.6064	1129.1403	1180.2222	1206.6996	1259.9559	1302.5371	1315.6433	1341.115	1370.9208	1413.4185	1434.9709	1479.3356	1483.9426	1496.9578	1838.872	3033.4793	3038.3902	3076.5362	3104.9754	3115.9224	3127.2055	3170.2435	3757.9194
CC12C(O)C1OCC2=O	C[C@]12[C@@H](O)[C@H]1OCC2=O	
InChI=1S/C6H8O3/c1-6-3(7)2-9-5(6)4(6)8/h4-5,8H,2H2,1H3	InChI=1S/C6H8O3/c1-6-3(7)2-9-5(6)4(6)8/h4-5,8H,2H2,1H3/t4-,5+,6-/m0/s1
