21
gdb 107428	2.77305	1.41147	1.27702	2.4147	81.4	-0.2188	0.0728	0.2915	1121.3055	0.184477	-383.226707	-383.218603	-383.217659	-383.259238	32.329	
C	-0.3228479006	 1.5233709092	 0.0369789306	-0.380504
C	 0.1532037457	 0.0643795117	 0.0249438102	-0.299106
C	 0.7848975557	-0.3673284757	-1.2798463947	 0.35214
N	 1.8044115517	-1.4447424081	-1.2942883384	-0.386716
C	 2.192099705	-0.0668227627	-1.6645494079	-0.092609
C	 2.2321103224	 0.1821380334	-3.1660447312	-0.169377
N	 0.8536598204	 0.0411923413	-3.6962155986	-0.111371
C	 0.2692357273	-1.3069923505	-3.6302290855	-0.249093
C	-0.0282051093	-0.3187515075	-2.5623541079	-0.080214
H	 0.5086726841	 2.2094857915	-0.1528335633	 0.120941
H	-1.0847654632	 1.707444895	-0.7262298926	 0.127955
H	-0.7583571196	 1.7797927859	 1.0073903733	 0.116011
H	 0.8855785959	-0.0818268916	 0.8293062242	 0.09169
H	-0.6889395884	-0.6010102269	 0.2563807241	 0.108381
H	 2.1032980305	-1.633081325	-0.3390899024	 0.223902
H	 2.8647325966	 0.4821242591	-1.0102482767	 0.084424
H	 2.5615259174	 1.2094198946	-3.3591669217	 0.105429
H	 2.9160517646	-0.4952389449	-3.6875639871	 0.113072
H	-0.47027403	-1.5068477225	-4.4019185009	 0.103857
H	 0.9064013851	-2.141997139	-3.3594829357	 0.138382
H	-0.9928528313	 0.1791968727	-2.5181787079	 0.082805
81.4404	143.9623	207.338	263.8865	288.8162	335.5567	415.4607	457.8465	545.0361	581.8596	698.0209	706.15	774.0875	796.6303	816.9495	865.1955	883.7478	918.0308	959.1476	970.8199	1005.7286	1035.973	1054.3882	1075.8546	1089.6336	1099.0159	1124.2163	1127.0153	1155.5327	1166.5267	1233.9735	1256.8757	1271.7719	1288.5252	1320.366	1353.0335	1361.4213	1394.6457	1413.1268	1440.9236	1483.6171	1485.3624	1498.5951	1500.5729	1507.0869	3015.5368	3037.6125	3040.3875	3048.2015	3081.5521	3107.4937	3109.2788	3112.8748	3139.2044	3143.3646	3208.4315	3478.3384
CCC12NC1CN1CC21	CC[C@]12N[C@H]1CN1C[C@@H]21	
InChI=1S/C7H12N2/c1-2-7-5(8-7)3-9-4-6(7)9/h5-6,8H,2-4H2,1H3	InChI=1S/C7H12N2/c1-2-7-5(8-7)3-9-4-6(7)9/h5-6,8H,2-4H2,1H3/t5-,6-,7-,9?/m0/s1
