21
gdb 114763	3.91029	1.08214	0.91915	1.0627	85.02	-0.2319	0.0187	0.2506	1327.3405	0.183651	-387.077894	-387.069376	-387.068432	-387.111168	32.926	
C	-0.192778855	 1.3225939634	 0.0771953795	-0.238729
O	 0.0585052254	-0.0616884513	 0.0375352286	-0.244814
C	 0.7264098862	-0.499093885	-1.1399478908	 0.092342
C	 1.4087833877	-1.8313202987	-0.8005587167	-0.249324
C	 1.973994572	-2.522809308	-2.0400251962	-0.040447
C	 1.2533665199	-3.7057744939	-2.6442541033	-0.287601
C	 1.218851125	-2.3573144204	-3.3378646618	-0.055882
C	-0.0073676929	-1.5216546588	-3.2958119438	-0.083667
C	-0.2337030838	-0.6653157538	-2.299218307	-0.076874
H	 0.7401562776	 1.906315035	 0.0224484713	 0.102823
H	-0.8509610816	 1.6591997681	-0.7382639074	 0.103693
H	-0.6864407109	 1.5352978206	 1.0289365265	 0.125836
H	 1.4977001446	 0.2456437208	-1.4072350807	 0.069731
H	 2.1971144372	-1.6561476162	-0.0624039234	 0.099852
H	 0.6548532585	-2.4576655132	-0.3126707008	 0.112277
H	 3.0566963882	-2.5362781292	-2.1128298081	 0.082778
H	 1.8422115377	-4.4976914156	-3.0952587481	 0.107674
H	 0.3450827655	-4.0400859862	-2.1532498918	 0.114771
H	 1.8041797921	-2.2845778366	-4.2512105826	 0.08845
H	-0.7245229102	-1.6278080531	-4.1070205975	 0.08637
H	-1.1379478731	-0.0635806076	-2.2775786257	 0.090739
77.3808	104.8842	181.8257	195.6731	279.7411	329.8918	385.7072	418.7204	483.0637	514.7805	584.275	719.9156	737.6764	797.5611	818.2102	861.087	905.7457	962.4515	987.0689	992.5752	1011.8213	1025.4888	1059.5129	1093.8882	1115.2978	1125.251	1134.3381	1149.5217	1183.2926	1199.101	1218.3621	1227.5855	1247.3963	1311.0787	1337.992	1363.5194	1379.6387	1403.3882	1423.3006	1478.2905	1481.8614	1489.504	1493.4888	1510.2251	1705.7941	2931.6419	2971.196	3016.1715	3047.9302	3089.7433	3109.6662	3124.8238	3129.4538	3142.8594	3154.4718	3173.887	3214.5109
COC1CC2CC2C=C1	CO[C@H]1C[C@H]2C[C@H]2C=C1	
InChI=1S/C8H12O/c1-9-8-3-2-6-4-7(6)5-8/h2-3,6-8H,4-5H2,1H3	InChI=1S/C8H12O/c1-9-8-3-2-6-4-7(6)5-8/h2-3,6-8H,4-5H2,1H3/t6-,7-,8-/m1/s1
