20
gdb 67655	2.98732	1.87185	1.5953	1.6425	80.82	-0.2194	0.0826	0.302	938.5	0.173926	-365.975384	-365.968534	-365.96759	-366.006117	28.976	
C	-0.1012212418	 1.4976199994	 0.0100240725	-0.499738
C	 0.0767842339	 0.0081536576	-0.0214547033	 0.338247
C	-0.1554849941	-0.8143349501	-1.2411771301	-0.077691
C	 0.6123791151	-2.0987630956	-1.4705738494	-0.23317
C	 0.8334204743	-2.6104813286	-0.0436826339	-0.050846
C	 1.8980195068	-1.741209353	 0.6912751187	-0.247924
C	 0.7540756992	-0.7985626016	 1.1113779536	-0.09667
C	-0.2978955624	-1.8805738639	 0.7850491247	 0.013947
N	-1.1044329226	-0.9538266963	-0.1071735059	-0.197889
H	 0.8489512752	 2.0072866123	-0.1907672293	 0.118817
H	-0.8260807269	 1.8197524811	-0.7434562957	 0.126648
H	-0.4615813928	 1.8300145681	 0.9897543514	 0.12173
H	-0.5752077483	-0.2955172697	-2.0993334177	 0.084887
H	-0.0091958726	-2.7876712072	-2.054654889	 0.104175
H	 1.5525478111	-1.9521993664	-2.0126014701	 0.101565
H	 0.9272627435	-3.6940116414	 0.0324803691	 0.068068
H	 2.3222662143	-2.25644444	 1.5579572656	 0.09788
H	 2.7134254695	-1.3342536319	 0.084341699	 0.089912
H	 0.7881398076	-0.2708380543	 2.0653576822	 0.066488
H	-0.8811755293	-2.4307349482	 1.5202069878	 0.071564
180.1529	217.0549	271.5156	312.7985	395.0494	488.3363	576.6854	624.5244	686.276	702.6749	766.3916	821.8551	836.2977	852.9304	884.7163	900.8329	924.9233	941.9123	982.474	991.7963	1026.5696	1050.8807	1068.1526	1070.9275	1111.991	1115.377	1136.4878	1193.5529	1213.0638	1226.0942	1239.3312	1256.3134	1259.893	1272.2398	1317.3502	1335.8676	1338.4059	1410.2008	1444.9123	1479.1674	1483.9986	1493.0565	1493.7823	3024.2451	3033.5626	3040.0874	3078.1979	3085.7192	3091.9913	3099.8496	3104.6542	3108.6157	3135.9306	3145.1873
CC12C3CC4CC1C4N23	C[C@@]12[C@H]3C[C@H]4C[C@@H]1[C@H]4N23	
InChI=1S/C8H11N/c1-8-5-2-4-3-6(8)9(8)7(4)5/h4-7H,2-3H2,1H3	InChI=1S/C8H11N/c1-8-5-2-4-3-6(8)9(8)7(4)5/h4-7H,2-3H2,1H3/t4-,5-,6-,7+,8+,9?/m1/s1
