19
gdb 61460	2.7882	1.08119	0.89425	1.1638	72.38	-0.2684	0.0126	0.281	1351.7072	0.156099	-460.180775	-460.170757	-460.169813	-460.21705	34.746	
C	-0.120483891	 1.435176659	 0.2521570077	-0.409316
C	 0.0215743156	-0.0658128591	 0.011705479	 0.092572
O	 0.7833378707	-0.6638425629	 1.0813903364	-0.250887
C	 2.1299497876	-0.6398468422	 0.9603477274	 0.432797
C	 2.7780620133	-1.3005683195	 2.1529350013	-0.479099
O	 2.7140693284	-0.1570742759	 0.023403388	-0.353052
C	-1.3245843247	-0.7542871869	-0.0479545279	 0.078359
C	-1.6180576404	-2.0404044963	 0.5908158579	-0.174
O	-2.0852357634	-0.8106271431	 1.1561382775	-0.236024
H	 0.862337885	 1.9105887696	 0.2602656509	 0.140274
H	-0.7157349037	 1.8902379687	-0.5457464687	 0.120542
H	-0.6236358934	 1.6137233558	 1.2059791114	 0.141123
H	 0.5552527407	-0.2436925514	-0.927533028	 0.111605
H	 2.4761452301	-2.3505656345	 2.2086741208	 0.149087
H	 3.861221833	-1.2321498703	 2.061113666	 0.149039
H	 2.4461182854	-0.81837505	 3.0763106669	 0.153266
H	-1.9033493823	-0.4728543191	-0.9301720989	 0.096986
H	-2.3892476696	-2.6843827471	 0.1704152861	 0.1139
H	-0.8387065512	-2.5404442148	 1.1589715961	 0.122828
50.0851	68.0322	76.1344	104.8991	162.8896	226.9566	232.1384	270.6559	359.753	431.7697	485.4592	607.7539	617.679	631.822	774.7314	862.7144	874.6383	937.5536	973.4574	997.5347	1022.6045	1053.3874	1064.1096	1089.0115	1134.4054	1147.2353	1171.9512	1177.4968	1264.2741	1295.112	1349.474	1377.4911	1398.6956	1402.2217	1438.1085	1468.6927	1476.2846	1490.1808	1499.1123	1523.2482	1821.1756	3048.3378	3057.6566	3066.328	3089.4542	3097.7524	3121.5736	3122.8616	3142.2337	3170.0354	3192.5369
CC(OC(C)=O)C1CO1	C[C@@H](OC(=O)C)[C@H]1CO1	
InChI=1S/C6H10O3/c1-4(6-3-8-6)9-5(2)7/h4,6H,3H2,1-2H3	InChI=1S/C6H10O3/c1-4(6-3-8-6)9-5(2)7/h4,6H,3H2,1-2H3/t4-,6-/m1/s1
