18
gdb 74340	4.31906	0.99286	0.85687	2.7021	73.97	-0.2251	0.0515	0.2766	1334.6027	0.149973	-435.258274	-435.249886	-435.248942	-435.29248	31.064	
N	 0.1967116583	 1.3544538332	 0.2289179395	-0.573571
C	-0.0084627124	 0.0099464159	 0.1006958931	 0.468503
N	-1.1217505937	-0.5746428773	-0.1164504558	-0.348066
C	-0.8488533604	-2.0151676917	-0.06195431	-0.019599
C	 0.6944295486	-2.1053626034	 0.1568181763	-0.129749
O	 1.1183442005	-0.7322275789	 0.2761395178	-0.251522
C	-1.6409597162	-2.6972095851	 1.0336305284	 0.036591
C	-2.9904479181	-3.2344789163	 0.7590970109	-0.240662
N	-1.8595167402	-4.1551480708	 0.9920321204	-0.331446
H	 1.128162846	 1.6755942735	 0.0170530906	 0.263906
H	-0.5495701985	 1.9248064765	-0.13558297	 0.269532
H	-1.1312492748	-2.4800791011	-1.018158859	 0.066257
H	 0.9656392448	-2.6318685396	 1.076433894	 0.126494
H	 1.2272889918	-2.5578226362	-0.6841738291	 0.11421
H	-1.4290349765	-2.3186561596	 2.0325585346	 0.091377
H	-3.7469726256	-3.2337548156	 1.5381220546	 0.119608
H	-3.3797607932	-3.1292653331	-0.2504171853	 0.114047
H	-1.5376585203	-4.5229228005	 0.098396279	 0.224091
32.838	73.4841	155.1582	219.7231	313.3717	357.6995	376.8723	419.1728	497.3713	527.5881	710.5925	731.9796	773.053	806.2114	861.5444	890.5484	938.7852	955.8358	970.103	1011.3254	1021.7485	1051.5381	1083.3796	1130.3037	1159.9514	1179.2121	1205.903	1245.4493	1256.8363	1278.3145	1290.5427	1329.2918	1350.8345	1428.2392	1440.2708	1512.6274	1524.4234	1617.8898	1752.5537	2983.8148	3053.3759	3100.8924	3110.2868	3119.8628	3195.9886	3476.7111	3595.942	3710.9384
NC1=NC(CO1)C1CN1	NC1=N[C@@H](CO1)[C@H]1CN1	
InChI=1S/C5H9N3O/c6-5-8-4(2-9-5)3-1-7-3/h3-4,7H,1-2H2,(H2,6,8)	InChI=1S/C5H9N3O/c6-5-8-4(2-9-5)3-1-7-3/h3-4,7H,1-2H2,(H2,6,8)/t3-,4+/m1/s1
