19
gdb 84719	2.6492	1.41857	1.16077	1.7969	87.83	-0.2207	-0.0371	0.1835	1144.2981	0.160132	-385.909132	-385.900571	-385.899626	-385.942128	33.	
C	-0.2321978731	 1.5773145774	 0.0029947294	-0.482867
C	 0.0442426276	 0.0914854967	-0.0365600075	 0.242232
C	-0.015717678	-0.5797129277	-1.222909331	-0.186271
C	 0.1027690607	-1.9977199258	-1.438368591	-0.053317
C	 0.7352624485	-2.9025509893	-0.661986325	-0.1218
C	 1.6211208652	-2.5440123698	 0.5016123191	 0.022335
O	 2.8328213606	-1.9014738399	 0.0889135557	-0.433138
C	 0.8480646458	-1.7279532634	 1.5043067957	-0.106021
C	 0.2430233348	-0.551053052	 1.2444661401	-0.09967
H	 0.6161832809	 2.1283720567	 0.4262440241	 0.131857
H	-0.4326759094	 1.9776606707	-0.9936554988	 0.122866
H	-1.098082146	 1.7988925103	 0.638897649	 0.130537
H	-0.2846704753	 0.0040762676	-2.10091749	 0.085173
H	-0.3784963992	-2.3664141245	-2.3425171371	 0.093313
H	 0.6716758905	-3.9534504669	-0.9305339542	 0.096639
H	 1.9633891063	-3.4626571699	 0.984954871	 0.088096
H	 2.5759983513	-1.1017969746	-0.3840380014	 0.284759
H	 0.8405402214	-2.0912409793	 2.528824941	 0.097132
H	-0.1505254128	 0.0000671735	 2.0977842909	 0.088144
74.44	143.7539	188.0597	257.1466	289.7732	310.5709	335.0599	388.6093	455.3785	481.4922	549.9295	646.667	700.5652	747.2074	792.5301	824.9074	875.4536	902.5018	928.7581	966.8856	982.1029	1000.9915	1037.5445	1047.339	1067.1951	1115.7134	1186.7284	1231.2278	1256.1824	1289.2365	1358.6537	1380.5209	1412.3503	1426.5239	1446.1491	1455.8702	1480.2595	1496.7772	1575.2564	1669.8993	1681.0185	3023.2117	3072.5357	3075.7983	3117.5168	3128.1567	3132.6604	3148.4982	3162.8962	3170.2682	3801.2311
CC1=CC=CC(O)C=C1	CC1=CC=C[C@@H](O)C=C1	
InChI=1S/C8H10O/c1-7-3-2-4-8(9)6-5-7/h2-6,8-9H,1H3	InChI=1S/C8H10O/c1-7-3-2-4-8(9)6-5-7/h2-6,8-9H,1H3/t8-/m1/s1
