19
gdb 41001	3.10056	1.9236	1.45419	1.72	79.24	-0.2465	0.0766	0.3231	930.3986	0.162	-385.797789	-385.791442	-385.790498	-385.828144	27.249	
C	-0.1417623442	 1.5351995684	 0.0668482386	-0.24858
C	 1.3815963042	 1.273553417	 0.0228892293	-0.065891
C	 1.2371653697	 0.128447439	 1.0489130083	-0.007323
C	 2.4137214586	-0.83774034	 0.7490126931	-0.311883
C	 2.1621628284	-0.9719935498	-0.7632358036	 0.122863
O	 2.948995053	-0.4322031121	-1.8786809246	-0.313333
C	 1.7279967528	 0.1749931034	-2.4151900265	-0.232727
C	 1.1431404108	 0.1026949441	-0.9974550395	 0.355697
C	-0.0078809199	-0.0055511432	 0.0293834399	-0.193145
H	-0.5322781042	 1.9784101353	 0.9876303747	 0.089431
H	-0.5945667564	 2.0016783092	-0.8120428128	 0.092781
H	 2.1941220099	 2.001558136	-0.0151801381	 0.07403
H	 1.0049670355	 0.3709742014	 2.0881628075	 0.069265
H	 3.3660322918	-0.3554112575	 0.9918599227	 0.116845
H	 2.3716058263	-1.7964404903	 1.2731280545	 0.098539
H	 1.8345742515	-1.9862695293	-1.0316602453	 0.068783
H	 1.9137147141	 1.1620406884	-2.8484785192	 0.111252
H	 1.2569506428	-0.4822097396	-3.1581480399	 0.101222
H	-0.8020603548	-0.7536517003	 0.0600172808	 0.072177
186.0138	300.2073	303.8857	352.3674	454.2177	557.7364	632.0776	674.8395	709.9964	785.4487	788.4418	867.9407	900.7182	908.1716	915.8906	931.1627	949.543	991.3364	1013.5804	1030.6932	1045.6922	1059.7595	1072.9605	1101.0003	1120.5872	1133.5557	1164.8048	1175.9521	1192.8771	1197.8782	1230.9339	1248.8794	1253.2509	1276.5608	1301.3154	1325.8413	1352.9262	1383.8708	1481.838	1512.884	1519.4535	2998.1646	3014.6256	3047.5119	3053.5422	3088.0779	3092.3545	3094.8762	3100.7609	3105.3896	3107.3745
C1C2C3CC4OCC24C13	C1[C@H]2[C@@H]3C[C@@H]4OC[C@]24[C@H]13	
InChI=1S/C8H10O/c1-4-5-2-6(4)8(5)3-9-7(1)8/h4-7H,1-3H2	InChI=1S/C8H10O/c1-4-5-2-6(4)8(5)3-9-7(1)8/h4-7H,1-3H2/t4-,5-,6+,7-,8+/m0/s1
