15
gdb 96755	3.40209	0.79954	0.65262	2.0575	71.43	-0.2748	-0.0604	0.2144	1609.633	0.108943	-453.951766	-453.941888	-453.940944	-453.988381	32.335	
C	 0.073322467	 1.5003515471	-0.018953394	-0.344916
N	 0.0567269489	 0.0531046636	-0.0847724317	-0.298845
C	-1.0189152892	-0.5989842735	 0.0058213922	 0.348964
O	-1.0817083402	-1.9429612176	-0.049785366	-0.252578
C	 0.1608013829	-2.6254855066	-0.2215611909	-0.156618
C	-0.1452259983	-4.1120946632	-0.2565271241	 0.13899
O	 0.7103078241	-4.9437283201	-0.3917758385	-0.229282
C	-2.3477776856	-0.0355900234	 0.1818943448	 0.256893
N	-3.3764811958	 0.4721607687	 0.3215290557	-0.323847
H	 0.7214365052	 1.8067289303	 0.808743395	 0.146848
H	 0.5246485673	 1.8884152918	-0.9380362353	 0.146847
H	-0.9138367953	 1.9603074779	 0.1137638434	 0.140969
H	 0.6511943326	-2.3144602167	-1.1509752691	 0.15937
H	 0.8483872927	-2.3962633799	 0.6004613255	 0.159369
H	-1.2217328561	-4.3650054686	-0.1469710368	 0.107836
42.7629	50.4096	105.4407	135.0382	138.7872	163.9065	258.8683	297.7669	340.2884	350.5487	463.0387	582.5105	661.0826	714.4145	734.9748	801.7758	1039.555	1050.1353	1106.4586	1116.2031	1134.5797	1164.5425	1229.9765	1287.9641	1348.3436	1410.2774	1445.511	1469.6038	1484.1389	1501.8727	1739.0914	1848.056	2354.3228	2911.7918	3016.4774	3045.6271	3087.6366	3091.3689	3095.202
CN=C(OCC=O)C#N	CN=C(OCC=O)C#N	
InChI=1S/C5H6N2O2/c1-7-5(4-6)9-3-2-8/h2H,3H2,1H3	InChI=1S/C5H6N2O2/c1-7-5(4-6)9-3-2-8/h2H,3H2,1H3
