19
gdb 35747	3.97798	0.99828	0.8892	5.0376	80.04	-0.2534	0.0347	0.2881	1317.5737	0.161538	-382.076176	-382.067976	-382.067032	-382.109986	31.241	
N	-0.1206399775	-1.1423512352	-0.1765515457	-0.325749
C	-0.0665963685	 0.0086927073	-0.0836996991	 0.263713
C	 0.0024130005	 1.4601357036	 0.0437550894	-0.140001
C	-0.5826540051	 2.0043166763	 1.3712140676	-0.217415
C	-0.0333721885	 3.4374447181	 1.4058709004	-0.300601
C	 1.39279957	 3.3016667623	 0.8654596991	 0.344322
C	 2.2522669459	 4.4846726821	 0.6279798157	-0.298354
N	 2.5625426035	 3.5478614111	 1.724631259	-0.34737
C	 1.4503960498	 2.0271024999	 0.0090501875	-0.279654
H	-0.5712951203	 1.8902952915	-0.7864216678	 0.124041
H	-1.6727150349	 1.9465930999	 1.4022180599	 0.117426
H	-0.1892305128	 1.4194158043	 2.2091218792	 0.127078
H	-0.6296404267	 4.0778152733	 0.7434816134	 0.111033
H	-0.0630394607	 3.8866631329	 2.4031782146	 0.103153
H	 2.9691188451	 4.4837987022	-0.1894107134	 0.120169
H	 1.8522184778	 5.4661565345	 0.8738535666	 0.110806
H	 2.270662039	 3.9485025548	 2.6133377793	 0.227931
H	 2.1517393883	 1.3220469188	 0.4617450836	 0.140792
H	 1.7815728951	 2.2124242022	-1.0154517494	 0.118679
25.0787	144.2155	147.2009	275.1153	306.9388	369.3982	408.3112	439.8186	528.8454	548.8396	563.3441	724.9595	811.776	831.8939	871.47	911.5733	934.8864	958.3233	978.3512	988.6529	1028.2674	1039.2269	1063.6554	1080.5493	1135.9568	1179.2634	1189.7695	1230.4854	1263.5529	1279.2809	1290.7152	1314.0001	1320.2749	1327.9702	1369.1891	1400.9873	1486.6168	1488.5635	1502.992	1515.0824	2357.2966	3026.6374	3033.4928	3058.3139	3070.451	3084.3157	3096.9761	3115.9624	3118.5299	3180.7224	3488.7287
N#CC1CCC2(CN2)C1	N#C[C@H]1CC[C@]2(CN2)C1	
InChI=1S/C7H10N2/c8-4-6-1-2-7(3-6)5-9-7/h6,9H,1-3,5H2	InChI=1S/C7H10N2/c8-4-6-1-2-7(3-6)5-9-7/h6,9H,1-3,5H2/t6-,7+/m0/s1
