22
gdb 13137	3.8129	1.08063	0.92578	1.8142	78.34	-0.2391	0.0834	0.3224	1343.3939	0.19946	-350.197599	-350.188188	-350.187244	-350.232365	33.867	
C	-0.1800135594	 1.5729961018	 0.0302800836	-0.381352
C	-0.0317384649	 0.0495961065	-0.0004040849	-0.168027
C	 0.6930646595	-0.4590676735	-1.2531751748	-0.184412
C	 0.8154467923	-1.9797552514	-1.2891827279	-0.052714
C	-0.4626847803	-2.7571315883	-1.6771518345	-0.07701
O	 0.1167802411	-3.1899647852	-2.9226142501	-0.292307
C	 1.4112729666	-2.6479760551	-2.5636746296	 0.14296
C	 2.0186774416	-1.8137061316	-3.6741724589	-0.402401
H	 0.7978840396	 2.0666832749	 0.0038598842	 0.114198
H	-0.7534117628	 1.9323448665	-0.8314423729	 0.115295
H	-0.6965388338	 1.9061395363	 0.9358136812	 0.11238
H	 0.5131507403	-0.2856430303	 0.8920913869	 0.095331
H	-1.0250153957	-0.4147844861	 0.0600122713	 0.098993
H	 0.1581652399	-0.1085052743	-2.1455289853	 0.099897
H	 1.6936886389	-0.0081043505	-1.2984463555	 0.094011
H	 1.2839458024	-2.3302060271	-0.3643837162	 0.069342
H	-0.7141424052	-3.6037904313	-1.0244385099	 0.093632
H	-1.3662547386	-2.1537509001	-1.8349932038	 0.095645
H	 2.1016386135	-3.465651467	-2.3063679939	 0.066589
H	 1.3710190659	-0.9790946812	-3.9538075612	 0.120512
H	 2.994120066	-1.4172448362	-3.3718450302	 0.113718
H	 2.1684468131	-2.4384379468	-4.5605703278	 0.125723
53.2926	95.8532	101.748	131.4611	226.804	240.7619	264.5519	321.952	382.581	425.6476	506.7348	735.1454	756.0851	835.6158	870.0786	880.1999	890.2202	917.6149	988.9592	1011.7089	1031.1071	1053.7389	1085.7767	1098.0752	1138.9187	1159.1199	1165.7662	1203.3824	1247.2758	1263.6514	1294.4487	1310.2728	1331.6818	1359.6353	1378.4027	1387.8436	1402.2956	1409.3297	1412.864	1479.8523	1485.5844	1493.375	1498.5164	1499.6555	1510.518	1525.8467	2978.0508	3000.7083	3008.4641	3016.4124	3029.6096	3033.4008	3038.0416	3038.8424	3051.5815	3067.0401	3095.7328	3102.2207	3104.7436	3124.1358
CCCC1COC1C	CCC[C@H]1CO[C@H]1C	
InChI=1S/C7H14O/c1-3-4-7-5-8-6(7)2/h6-7H,3-5H2,1-2H3	InChI=1S/C7H14O/c1-3-4-7-5-8-6(7)2/h6-7H,3-5H2,1-2H3/t6-,7-/m0/s1
