21
gdb 113565	3.91268	0.99931	0.91431	1.2922	87.26	-0.207	0.0176	0.2246	1381.5323	0.181928	-387.083871	-387.074888	-387.073944	-387.117961	33.946	
C	-0.284918625	 1.3842311451	 0.0116351059	-0.371937
C	 0.272741542	-0.0390719225	-0.102292526	-0.192677
C	 0.9264782604	-0.5200420543	 1.1765774589	-0.070301
C	 0.082952312	-1.0795974066	 2.3097649943	-0.358803
C	 0.9737266396	-1.9955119579	 1.5080038412	 0.421053
O	 0.3479524014	-2.9034046459	 0.6188319776	-0.310098
C	 1.1231970091	-4.1002692961	 0.535674361	-0.128178
C	 2.2692140377	-3.8914873697	 1.4881016426	-0.115275
C	 2.1684945467	-2.6850240875	 2.0382683772	-0.147628
H	 0.5056353933	 2.1033475977	 0.2538534271	 0.109755
H	-0.748865747	 1.7037155224	-0.9270512883	 0.109062
H	-1.0418073017	 1.4482789124	 0.800509207	 0.116221
H	-0.5244546895	-0.7364473028	-0.378492565	 0.113537
H	 1.0063942627	-0.0825822947	-0.917699423	 0.094802
H	 1.8019565468	 0.0513904677	 1.4807012396	 0.077896
H	 0.3459972665	-0.8532185765	 3.3379830975	 0.107491
H	-0.9816465247	-1.1846234673	 2.1249594856	 0.120728
H	 0.4955034136	-4.9633489113	 0.8068890361	 0.106996
H	 1.4599523501	-4.2574355619	-0.5016293083	 0.105291
H	 3.0384028048	-4.6313401022	 1.6661447457	 0.1052
H	 2.8368594111	-2.2330440883	 2.7594203233	 0.106865
68.6868	84.4506	142.3637	158.554	237.1866	282.5713	331.2716	390.4293	439.6005	536.9224	620.1317	722.1708	774.6596	783.2983	807.7104	842.2661	886.5623	902.281	944.3373	948.9944	955.19	967.842	1028.4918	1044.251	1047.5647	1066.7218	1100.3476	1121.5276	1130.849	1190.4816	1196.341	1232.7484	1275.6781	1297.796	1341.6963	1372.5342	1384.1738	1407.7205	1427.9141	1479.1737	1489.6363	1497.0443	1507.7747	1520.8327	1679.7997	2971.1534	2989.4595	3025.7138	3029.3407	3073.7597	3098.5809	3101.9973	3117.6001	3122.1124	3210.9792	3212.6951	3235.2496
CCC1CC11OCC=C1	CC[C@H]1C[C@]21OCC=C2	
InChI=1S/C8H12O/c1-2-7-6-8(7)4-3-5-9-8/h3-4,7H,2,5-6H2,1H3	InChI=1S/C8H12O/c1-2-7-6-8(7)4-3-5-9-8/h3-4,7H,2,5-6H2,1H3/t7-,8+/m0/s1
