17
gdb 53152	6.13071	0.78932	0.76944	3.4578	83.41	-0.2368	0.0084	0.2452	1499.7424	0.135004	-384.631278	-384.622648	-384.621704	-384.666135	31.08	
C	 0.0619468657	 1.5181563305	-0.0492742045	-0.50285
C	 0.0401460962	 0.0639220807	 0.0122567249	 0.143904
C	 0.0217173827	-1.1399678673	 0.0633370976	 0.025581
C	 0.0459622321	-2.5881292969	 0.0863935116	-0.207883
C	-0.0867188585	-3.3241906718	 1.4828529361	-0.169162
C	-1.5984627504	-2.9079007521	 1.4551803355	-0.245778
C	-1.3283328973	-3.3688739228	-0.0192620329	-0.169158
C	-0.559856232	-4.5219362256	 0.6447078128	 0.436412
O	-0.4307325842	-5.7034208258	 0.573121282	-0.318203
H	 0.8150804329	 1.8718597681	-0.7618890323	 0.15226
H	-0.907468321	 1.9183540536	-0.3661506364	 0.150515
H	 0.2987726493	 1.9552097345	 0.9270708628	 0.150555
H	 0.8395280553	-2.9761386139	-0.5580063855	 0.109988
H	 0.610770674	-3.2772439999	 2.3156956355	 0.099516
H	-2.2935289353	-3.5045440574	 2.0474486933	 0.115455
H	-1.7697498721	-1.8372195429	 1.5649494991	 0.12933
H	-2.0156778774	-3.3717917912	-0.8618007296	 0.099518
23.388	88.8463	90.4364	177.3518	279.0141	296.0387	434.0489	439.7663	467.8797	527.8854	697.5785	713.2569	752.0129	776.4349	873.6209	894.8503	913.174	968.2752	1022.3524	1031.3893	1051.6928	1053.2726	1061.2026	1117.6926	1141.7888	1175.6909	1176.6815	1194.7859	1224.7957	1229.0161	1376.135	1414.703	1477.0829	1477.9417	1507.5883	1923.8648	2364.5042	3027.6504	3069.0622	3082.7602	3088.3518	3090.0667	3152.5583	3155.3715	3158.2308
CC#CC1C2CC1C2=O	CC#C[C@H]1[C@H]2C[C@@H]1C2=O	
InChI=1S/C8H8O/c1-2-3-5-6-4-7(5)8(6)9/h5-7H,4H2,1H3	InChI=1S/C8H8O/c1-2-3-5-6-4-7(5)8(6)9/h5-7H,4H2,1H3/t5-,6+,7-
