12
gdb 33563	2.23096	1.68617	1.23504	4.6401	63.43	-0.3085	-0.0367	0.2718	987.717	0.078223	-431.680847	-431.673223	-431.672279	-431.713792	26.538	
N	 0.1234748267	-1.0880099145	 0.095888427	-0.313482
C	 0.0587842523	 0.0615214999	 0.0148835795	 0.306104
C	-0.034441605	 1.5317036024	-0.0258153268	-0.032347
C	-0.6220611859	 2.1101509113	 1.3205016852	-0.147023
O	 0.4437525441	 2.9382984692	 1.8186015426	-0.198525
C	 1.4443257395	 2.847178915	 0.926242175	 0.145579
N	 1.3243770993	 2.1258154507	-0.1138631752	-0.26471
C	-0.8423211807	 1.9443419102	-1.1872098964	 0.306092
N	-1.4981373212	 2.3004275509	-2.0677137844	-0.313488
H	-1.5049444286	 2.7279997058	 1.1544646162	 0.167249
H	-0.8345101744	 1.3272091134	 2.0489612605	 0.167244
H	 2.327221354	 3.4262623359	 1.1709895768	 0.177306
56.0652	129.6089	177.0799	187.6288	255.0959	439.0393	498.0235	507.8823	579.3188	585.2473	589.772	787.9502	876.2545	932.8388	969.8121	984.4072	1009.887	1088.5631	1163.4348	1166.6442	1246.4222	1314.834	1373.8633	1509.0434	1686.1486	2368.6582	2373.5624	3091.9097	3155.9452	3231.073
N#CC1(COC=N1)C#N	N#CC1(COC=N1)C#N	
InChI=1S/C5H3N3O/c6-1-5(2-7)3-9-4-8-5/h4H,3H2	InChI=1S/C5H3N3O/c6-1-5(2-7)3-9-4-8-5/h4H,3H2
