17
gdb 55192	3.48713	1.33293	1.13857	6.7698	68.	-0.234	0.0155	0.2495	1073.9229	0.138404	-455.12303	-455.11568	-455.114736	-455.1552	28.5	
O	 0.492690981	 0.7867093106	-1.033031388	-0.343597
C	-0.0680284591	 1.0840197602	-0.0092505031	 0.41561
O	 0.423960006	 0.7896723713	 1.1960174033	-0.376726
C	-1.4170430317	 1.8140454821	-0.0081669287	-0.110573
N	-2.5722584762	 0.9843562227	 0.4505409753	-0.324488
C	-3.1109493864	 2.0881003144	 1.2796095475	-0.009761
C	-2.7527977603	 1.9222576427	 2.7714557108	-0.158711
N	-1.3570105583	 2.375779344	 2.4668047731	-0.342559
H	-1.0044369751	 3.1071507701	 3.0723901688	 0.239551
H	-0.163085114	 1.2012949524	 1.8845143935	 0.31518
C	-1.7636426511	 2.8404201478	 1.1035202119	-0.040247
H	-1.552285511	 2.2480849145	-1.0043938467	 0.094806
H	-3.176027285	 0.6560312118	-0.2924519835	 0.233303
H	-4.0918028041	 2.4822523684	 1.0106170911	 0.084822
H	-3.2968200227	 2.6200851885	 3.4183613303	 0.105902
H	-2.8115588822	 0.9093000333	 3.1771961762	 0.126182
H	-1.6360410297	 3.9026879552	 0.8982089583	 0.091306
73.3842	147.197	218.4356	297.788	378.7986	387.0082	439.4609	620.2014	672.6288	721.1609	739.6441	788.2698	809.5652	822.7253	905.3488	934.6371	937.024	982.0701	1001.8577	1020.9389	1033.4474	1057.1526	1085.9445	1146.1082	1179.9959	1190.9547	1233.3817	1266.2245	1296.4257	1303.7769	1347.833	1353.4683	1377.1284	1391.7345	1494.6692	1502.3889	1851.9212	3034.4361	3054.0438	3097.554	3107.3979	3118.6067	3214.9109	3552.5737	3562.2159
[O-]C(=O)C1NC2C[NH2+]C12	O=C(O)[C@H]1N[C@H]2CN[C@@H]12	
InChI=1S/C5H8N2O2/c8-5(9)4-3-2(7-4)1-6-3/h2-4,6-7H,1H2,(H,8,9)	InChI=1S/C5H8N2O2/c8-5(9)4-3-2(7-4)1-6-3/h2-4,6-7H,1H2,(H,8,9)/t2-,3+,4-/m0/s1
