20
gdb 11536	5.91709	0.91926	0.8711	2.3649	75.62	-0.2392	-0.0054	0.2337	1400.6761	0.175077	-349.018612	-349.009269	-349.008325	-349.05402	33.036	
C	 0.2582423767	 1.5137369672	 0.1789346574	-0.374681
C	 0.3045211284	 0.0028951678	-0.0340687378	-0.277641
C	 0.9105808099	-0.4094925106	-1.3702041275	 0.384794
O	 1.4438273813	 0.3888840604	-2.1062895724	-0.299733
C	 0.7843319991	-1.8874616985	-1.7362436981	-0.329324
C	 1.6903213005	-2.3143030105	-2.8662148793	 0.052454
C	 3.0514925248	-2.8906706276	-2.573289425	-0.251867
C	 1.9555648534	-3.7759892064	-3.116677974	-0.285148
H	 1.2573485545	 1.9470105952	 0.0920632469	 0.13519
H	-0.3700754684	 1.9960349066	-0.5748730067	 0.127177
H	-0.1431572669	 1.7546481569	 1.1672508062	 0.10858
H	 0.8989205491	-0.4861629135	 0.7515866894	 0.122684
H	-0.6939574858	-0.4477532049	 0.0473211813	 0.115475
H	 0.9525040098	-2.4994143981	-0.8403581935	 0.107079
H	-0.2726464536	-2.0509393401	-2.0002348921	 0.124175
H	 1.6276021724	-1.6729503534	-3.7384465078	 0.101566
H	 3.8746822241	-2.6244974398	-3.2265069485	 0.115847
H	 3.3368417197	-3.0206461838	-1.5339574144	 0.105148
H	 1.5078678688	-4.4990057889	-2.4420040977	 0.105899
H	 2.028760382	-4.117931938	-4.1431870766	 0.112326
42.9192	46.2981	82.0487	135.1864	188.7259	261.8911	311.9433	357.9418	405.0174	470.3622	647.4114	729.8354	772.2733	808.1615	816.2916	851.7551	885.6745	946.4934	971.5682	1006.4795	1028.9365	1057.2867	1077.7095	1086.2736	1124.5476	1136.1744	1166.7678	1196.3921	1230.8194	1247.9985	1291.6708	1324.5662	1373.2136	1411.7967	1419.5679	1448.1748	1457.7987	1471.6485	1491.8964	1498.1794	1508.2439	1808.9833	2994.2773	3013.0524	3040.4754	3046.5993	3050.8728	3119.5826	3127.0248	3129.6099	3132.4181	3172.4482	3205.3465	3221.2665
CCC(=O)CC1CC1	CCC(=O)CC1CC1	
InChI=1S/C7H12O/c1-2-7(8)5-6-3-4-6/h6H,2-5H2,1H3	InChI=1S/C7H12O/c1-2-7(8)5-6-3-4-6/h6H,2-5H2,1H3
