21
gdb 115888	2.45114	1.51038	1.12998	1.2351	79.06	-0.2546	0.0901	0.3447	1175.7763	0.182096	-424.220055	-424.210929	-424.209985	-424.253844	34.121	
C	-0.165697492	 1.3303524244	 0.0525850628	-0.238894
O	-0.0320731719	-0.0795554148	 0.0156929195	-0.240297
C	 0.6712464739	-0.6087637072	 1.0902430304	 0.176343
O	-0.0752800727	-0.4334079682	 2.2928112674	-0.282711
C	 0.1860963372	-1.5249352178	 3.1692231398	-0.095459
C	 0.533449561	-2.697132457	 2.2702579168	-0.106904
C	-0.3842051154	-2.9081241659	 1.0925961084	-0.319998
C	 0.8819837251	-2.1049279444	 0.9250915643	 0.314773
C	 2.0111471121	-2.5674776729	 0.0407689039	-0.497102
H	 0.8165358849	 1.8225906742	 0.1204793708	 0.103346
H	-0.6482827696	 1.6291472068	-0.8805896842	 0.124639
H	-0.7804663859	 1.6533652213	 0.9003682186	 0.129701
H	 1.6443630098	-0.0865216734	 1.1871859815	 0.047642
H	 1.0263591441	-1.2970497639	 3.8442894839	 0.09217
H	-0.7108222919	-1.6765220561	 3.7801649413	 0.109075
H	 1.0889833352	-3.5305104661	 2.6850227256	 0.086359
H	-0.3973346306	-3.895277727	 0.6435170474	 0.106087
H	-1.3328672025	-2.3826489186	 1.0726993677	 0.128096
H	 1.8444651304	-2.2527847276	-0.9951381047	 0.13261
H	 2.9721708348	-2.1515912108	 0.3661504605	 0.114402
H	 2.0986978741	-3.6580577452	 0.0497004582	 0.116121
88.2291	114.1953	166.4713	198.1745	205.4095	230.3964	280.6525	337.7153	404.5889	470.348	545.7499	591.3302	693.3321	761.0768	837.4254	893.0245	921.3635	964.2106	978.9806	997.8536	1025.0639	1035.7758	1060.7432	1090.2645	1094.0877	1123.7067	1133.2302	1161.9196	1180.7632	1228.5795	1237.4653	1266.7621	1302.928	1351.5116	1374.9607	1398.6937	1416.6025	1427.0546	1479.2784	1485.0129	1488.0642	1490.6953	1503.778	1511.1931	1521.1414	2898.1764	2977.348	2989.6523	3025.3386	3058.354	3066.7815	3086.4167	3104.0888	3123.2907	3132.8323	3177.0913	3221.5909
COC1OCC2CC12C	CO[C@H]1OC[C@H]2C[C@@]12C	
InChI=1S/C7H12O2/c1-7-3-5(7)4-9-6(7)8-2/h5-6H,3-4H2,1-2H3	InChI=1S/C7H12O2/c1-7-3-5(7)4-9-6(7)8-2/h5-6H,3-4H2,1-2H3/t5-,6+,7-/m1/s1
