20
gdb 92557	2.47765	1.8412	1.75962	0.2788	76.89	-0.2279	0.0883	0.3162	934.8967	0.173918	-403.131327	-403.12405	-403.123106	-403.162935	29.462	
C	 0.0878209684	 1.5243508011	-0.1647279115	-0.406464
C	-0.0480619213	 0.0065782264	-0.0368192138	 0.05975
C	 0.3812091633	-0.8093464669	-1.290836033	-0.239572
C	 1.7359132533	-1.3998149127	-0.8801064424	 0.090083
O	 2.7417169536	-0.38125538	-1.0220330446	-0.279092
C	 3.0543434521	 0.1988686236	 0.2383892761	-0.106157
C	 2.1594119207	-0.4610205172	 1.2637214157	-0.04286
C	 1.5671358171	-1.6569174873	 0.6216380678	-0.08498
N	 0.6946963871	-0.5850821487	 1.1143259384	-0.120563
H	 1.047794518	 1.8195187021	-0.5928359833	 0.132317
H	-0.6968179537	 1.9111725629	-0.8228206071	 0.11572
H	-0.0264231037	 2.0046388715	 0.8117721424	 0.121943
H	-1.0992900818	-0.207933896	 0.1845473214	 0.083753
H	-0.3355692593	-1.6151210331	-1.484194082	 0.095537
H	 0.4687998713	-0.2055468595	-2.1974203961	 0.109302
H	 2.0418861508	-2.271274557	-1.4650241899	 0.077515
H	 4.1024680843	-0.012266156	 0.5005864233	 0.101183
H	 2.9416546108	 1.2876309193	 0.1822032286	 0.106197
H	 2.4900957977	-0.4484004196	 2.2988112545	 0.096252
H	 1.5014413813	-2.654407863	 1.0436826856	 0.090136
84.9644	183.1861	269.2227	283.4331	358.238	389.6157	514.6133	597.0606	679.7465	714.0861	773.5537	795.8973	820.7186	829.1661	873.5043	925.5459	931.3353	955.3517	986.744	995.1757	1021.9938	1052.6646	1077.2219	1089.937	1113.9121	1132.3419	1145.6837	1215.6337	1224.5481	1255.8064	1264.5722	1303.6206	1322.8435	1335.9392	1346.654	1364.5701	1385.2808	1407.5671	1415.6405	1480.0758	1493.7732	1501.5389	1534.0183	2989.0755	3029.4635	3042.8771	3048.4632	3050.4034	3078.2747	3105.9549	3108.8421	3134.275	3144.4346	3162.2791
CC1CC2OCC3C2N13	C[C@H]1C[C@H]2OC[C@@H]3[C@H]2N13	
InChI=1S/C7H11NO/c1-4-2-6-7-5(3-9-6)8(4)7/h4-7H,2-3H2,1H3	InChI=1S/C7H11NO/c1-4-2-6-7-5(3-9-6)8(4)7/h4-7H,2-3H2,1H3/t4-,5+,6+,7+,8?/m0/s1
