17
gdb 35420	2.59314	1.73443	1.39968	3.1475	76.39	-0.236	0.0068	0.2428	970.2664	0.138424	-380.864965	-380.857697	-380.856753	-380.896951	28.097	
N	 0.2512714222	-1.0408700727	 0.9184002998	-0.336011
C	 0.1496141824	 0.0449310636	 0.5328848671	 0.275184
C	 0.0238185251	 1.4118614368	 0.023060409	-0.104713
C	-0.5859276797	 2.4288524477	 1.0364168675	-0.268383
C	 0.8247421739	 3.0691766023	 1.1025064974	-0.011473
C	 1.7381627545	 2.6689967076	 2.2305924516	-0.088155
C	 2.6990065993	 1.8588619791	 1.7897687031	-0.056168
C	 2.5542815465	 1.5906643414	 0.3062289974	-0.236637
N	 1.2753883823	 2.2288662363	-0.0542453268	-0.104319
H	-0.488570108	 1.3570842567	-0.943303927	 0.128068
H	-1.3479383893	 3.0661319212	 0.5863665835	 0.121394
H	-0.9655161834	 1.9994204847	 1.9630917695	 0.130997
H	 0.8501654627	 4.1497544635	 0.9124321725	 0.087644
H	 1.6280215753	 3.0415665176	 3.2420064503	 0.105027
H	 3.5094801785	 1.4519931897	 2.3827420073	 0.108508
H	 3.3799253997	 2.0359694745	-0.2665985717	 0.114381
H	 2.540904368	 0.52182654	 0.0642880993	 0.134658
69.6132	152.3324	226.8442	255.5574	378.1973	451.3285	518.7221	583.8151	679.6024	695.975	739.4582	761.8885	817.7275	863.0571	921.5943	934.5594	961.2796	988.5797	1007.7353	1053.6089	1070.0443	1070.913	1117.7164	1137.5547	1149.2714	1220.4479	1241.3721	1264.4023	1271.201	1310.5143	1345.3152	1348.0501	1362.2266	1483.0893	1497.69	1672.4105	2343.7337	3004.732	3017.6808	3047.5532	3061.0762	3091.0896	3152.7531	3197.4134	3221.4401
N#CC1CC2C=CCN12	N#C[C@H]1C[C@H]2C=CCN12	
InChI=1S/C7H8N2/c8-5-7-4-6-2-1-3-9(6)7/h1-2,6-7H,3-4H2	InChI=1S/C7H8N2/c8-5-7-4-6-2-1-3-9(6)7/h1-2,6-7H,3-4H2/t6-,7-/m1/s1
