19
gdb 67571	2.9196	1.96312	1.48389	1.5317	77.85	-0.2493	0.0771	0.3264	927.6838	0.161421	-385.826947	-385.820222	-385.819278	-385.857437	29.148	
O	-0.0742596474	 1.3782753738	 0.0920093811	-0.493813
C	-0.0086234975	-0.0136818092	 0.0504434963	 0.462607
C	 0.9067512789	-0.7371448856	 1.0389922555	-0.141801
C	 0.2553061186	-1.6271291251	 2.0700370425	-0.29763
C	 0.5925489471	-2.1722326466	 0.7010512501	-0.059069
C	-0.4343682106	-1.9807859933	-0.4121933898	-0.021904
C	-1.3624973785	-0.767991358	-0.0670114979	-0.106884
C	-1.432680045	-0.4073628385	-1.5714447756	-0.265078
C	 0.0393506243	-0.8018493372	-1.3310870235	-0.124601
H	 0.821823645	 1.7262837133	 0.0396222069	 0.28028
H	 1.9186548687	-0.3744316414	 1.1894014191	 0.074133
H	 0.8823357907	-1.9582427681	 2.8921189318	 0.106514
H	-0.779866251	-1.4603949056	 2.3472499155	 0.114617
H	 1.3632744933	-2.9275151398	 0.5984820573	 0.08399
H	-0.8872269607	-2.8563421244	-0.8777021297	 0.06716
H	-2.1785147616	-0.7500750036	 0.657108162	 0.070788
H	-2.0228138482	-1.0770705724	-2.2029134614	 0.084746
H	-1.626919778	 0.6403185414	-1.8055244582	 0.106077
H	 0.8624675418	-0.8247281695	-2.0494458119	 0.059869
236.1818	268.2845	295.8846	341.1973	394.4778	450.1794	522.8879	635.8283	670.2638	675.5313	778.3126	812.2424	845.1647	851.9064	898.9468	902.1892	919.159	946.4249	973.9463	1002.9009	1027.1295	1044.1783	1067.5449	1070.3073	1077.7408	1096.5408	1101.9227	1130.7242	1142.6413	1183.2253	1187.4652	1211.2986	1231.0403	1241.2225	1272.3253	1310.5633	1328.0276	1343.9087	1399.7395	1488.6251	1510.8204	3059.1636	3081.9643	3096.1804	3116.1345	3128.8082	3130.2329	3155.1123	3175.5755	3210.9596	3812.4466
OC12C3CC3C3C1CC23	O[C@@]12[C@H]3C[C@H]3[C@H]3[C@@H]1C[C@@H]23	
InChI=1S/C8H10O/c9-8-4-1-3(4)7-5(8)2-6(7)8/h3-7,9H,1-2H2	InChI=1S/C8H10O/c9-8-4-1-3(4)7-5(8)2-6(7)8/h3-7,9H,1-2H2/t3-,4+,5-,6+,7-,8-/m1/s1
