16
gdb 45334	2.53372	1.88488	1.18278	6.043	71.68	-0.2421	-0.0017	0.2404	1006.892	0.127129	-434.094544	-434.087306	-434.086362	-434.126434	27.892	
N	-0.0333596195	 1.2606057114	 0.4118617929	-0.533324
C	 0.0404235038	 0.0763032477	-0.0298844935	 0.383721
N	 1.0675860785	-0.6023860086	-0.7008106149	-0.339475
C	 0.9072009895	-2.0577996957	-0.6097746672	-0.203129
C	-0.6259524257	-2.1649570524	-0.5260334959	 0.039395
C	-1.3156002812	-2.8863840565	 0.6596743753	-0.401382
C	-1.5446087743	-1.4699286463	 1.2395325731	 0.400466
O	-1.9560678728	-1.0093012829	 2.257280471	-0.299229
N	-1.011902984	-0.8665864787	 0.0663024469	-0.120885
H	 0.8526428576	 1.7525137773	 0.3018952174	 0.211019
H	 1.9932302184	-0.2091597281	-0.6233648506	 0.245925
H	 1.3187526633	-2.5561680164	-1.4911227499	 0.123017
H	 1.3903643295	-2.4789530384	 0.2853572064	 0.10822
H	-1.0748793198	-2.3358763356	-1.5074741188	 0.10319
H	-2.2254197477	-3.4399153331	 0.4203883981	 0.142544
H	-0.6665292057	-3.5060816537	 1.2819700398	 0.139925
95.9394	151.8424	183.7002	309.1048	440.8977	458.8023	485.7926	525.6446	600.5495	685.3637	719.6029	737.0175	776.5157	818.97	852.592	934.0709	1007.2848	1029.1322	1039.3738	1061.6751	1098.4112	1121.3706	1153.7219	1182.0174	1217.4278	1234.0007	1254.8657	1301.7745	1362.5176	1391.0526	1429.5507	1454.108	1524.8122	1758.3778	1915.7568	2983.8105	3073.7006	3083.9665	3092.8544	3141.0821	3491.7168	3622.5534
N=C1NCC2CC(=O)N12	[NH][C]1NC[C@H]2CC(=O)N12	
InChI=1S/C5H7N3O/c6-5-7-2-3-1-4(9)8(3)5/h3H,1-2H2,(H2,6,7)	InChI=1S/C5H7N3O/c6-5-7-2-3-1-4(9)8(3)5/h3H,1-2H2,(H2,6,7)/t3-/m1/s1
