14
gdb 27445	2.61828	1.78479	1.21158	5.109	73.21	-0.2467	-0.0902	0.1565	987.3719	0.103207	-429.05773	-429.050311	-429.049367	-429.089507	28.239	
N	 0.1082245978	 1.3063417849	-0.2674563353	-0.548565
C	-0.0922667027	-0.0313989617	-0.0502840288	 0.345273
N	-1.2213577968	-0.5737282739	-0.3339395132	-0.275423
C	-1.4408451607	-1.9175265323	-0.003207869	 0.320347
N	-2.4132520416	-2.2600993048	 0.734015554	-0.482094
N	-0.5951487689	-2.8439166681	-0.6707356798	-0.22474
C	 0.6611164493	-2.7916245488	-0.4590927472	 0.05935
N	 1.377112033	-1.9596907643	 0.4101094148	-0.201057
C	 1.043056796	-0.740393698	 0.5994630879	-0.026426
H	 1.0468967547	 1.64950097	-0.3870471101	 0.266043
H	-0.6077571492	 1.7734252865	-0.8037160314	 0.273179
H	-2.4527127561	-3.2794280841	 0.7867425885	 0.223471
H	 1.2993914161	-3.5236452484	-0.9536667475	 0.134681
H	 1.6660233389	-0.148056267	 1.2756870172	 0.135962
114.7332	150.925	257.8631	316.0356	361.9665	392.5087	448.8885	459.3464	526.7271	560.7657	675.6006	691.5962	710.1045	838.0042	864.6072	892.1695	917.7665	964.1873	1002.4595	1017.7617	1066.1387	1182.6441	1328.6375	1342.5088	1414.8542	1432.0848	1621.2545	1636.7073	1677.1345	1711.9466	1729.5685	3088.7455	3138.7197	3473.4455	3585.1493	3708.9701
NC1=NC(=N)N=CN=C1	NC1=N[C]([NH])N=CN=C1	
InChI=1S/C4H5N5/c5-3-1-7-2-8-4(6)9-3/h1-2H,(H3,5,6,9)	InChI=1S/C4H5N5/c5-3-1-7-2-8-4(6)9-3/h1-2H,(H3,5,6,9)
