16
gdb 76078	2.20135	1.57892	1.17496	2.0245	69.83	-0.2578	-0.0102	0.2476	1072.7811	0.123396	-434.072511	-434.06331	-434.062366	-434.107363	32.851	
C	 0.1589085211	 1.4990382801	-0.2392890384	-0.327492
N	 0.1911858945	 0.0460213731	-0.0685717967	-0.086542
C	 1.4712369809	-0.6640355668	-0.2075743651	-0.182065
C	 2.7029554713	 0.0399544254	-0.4667843451	 0.288183
N	 3.7050629163	 0.5790280342	-0.6795034604	-0.342368
C	 0.7873050185	-0.5100624799	 1.1279133924	-0.109415
C	 1.2729636307	 0.3856522454	 2.2621971528	 0.382609
N	 2.5748169106	 0.2390067813	 2.6307284995	-0.517986
O	 0.4866474843	 1.1102835853	 2.8380770604	-0.357246
H	 1.0804889017	 2.0126053949	 0.065098496	 0.133442
H	-0.0300972579	 1.714108958	-1.2939809012	 0.13336
H	-0.6639465832	 1.8881254574	 0.3626349878	 0.158396
H	 1.4090977347	-1.6182596677	-0.7250897746	 0.143082
H	 0.2720163959	-1.3912135705	 1.5092830138	 0.139542
H	 3.2517586424	-0.17418421	 2.0106247688	 0.275715
H	 2.9187674281	 0.8666999599	 3.34215995	 0.268785
24.4846	117.7993	147.3998	175.2816	199.1692	258.1482	359.7034	368.0029	410.8534	465.2678	496.0008	591.5693	618.9765	632.1572	721.3287	741.4567	839.5079	878.764	976.0085	1055.2846	1084.9852	1114.6731	1127.6213	1170.2616	1173.8889	1314.5599	1323.1042	1363.5049	1403.8018	1455.7145	1486.9186	1497.2869	1626.77	1795.4411	2341.8188	3015.7362	3099.9331	3113.8098	3140.5123	3144.8194	3581.2254	3711.0787
CN1C(C#N)C1C(N)=O	CN1[C@@H](C#N)[C@H]1C(=O)N	
InChI=1S/C5H7N3O/c1-8-3(2-6)4(8)5(7)9/h3-4H,1H3,(H2,7,9)	InChI=1S/C5H7N3O/c1-8-3(2-6)4(8)5(7)9/h3-4H,1H3,(H2,7,9)/t3-,4-,8?/m0/s1
