16
gdb 47476	2.87205	1.26725	1.01865	4.6025	70.29	-0.2565	0.0274	0.2839	1169.3358	0.124688	-437.895844	-437.887426	-437.886482	-437.929755	30.102	
O	-0.1148374567	-0.045135458	-0.2465117621	-0.399525
C	-0.0540397297	 1.1466646564	-0.1134529355	 0.498781
O	-1.1431294584	 1.9447916827	 0.0801009066	-0.24196
C	-0.7385932057	 3.3201953271	 0.0954005281	-0.09097
C	 0.7859040427	 3.2869095218	 0.3059865048	-0.193324
N	 1.0772641665	 1.9389034639	-0.1416951192	-0.134952
C	 2.3920708546	 1.3308851033	-0.0369575063	-0.316143
C	 2.9644275142	 1.4010795091	 1.3100170569	 0.309591
C	 3.4262422572	 1.4838512593	 2.4162084139	-0.457677
H	-1.005182385	 3.7753988505	-0.86451432	 0.1246
H	-1.2752432572	 3.8318239376	 0.8960168977	 0.131937
H	 1.3036606785	 4.0398652756	-0.2967009345	 0.120754
H	 1.0698288617	 3.430725693	 1.3571657732	 0.12623
H	 2.2665337386	 0.2872641076	-0.3425628732	 0.178528
H	 3.0752637318	 1.8070973176	-0.7515163878	 0.137444
H	 3.8386418969	 1.5352814425	 3.3937363474	 0.206686
51.1367	90.1788	151.2248	194.4882	241.3632	284.9386	334.1486	444.8257	573.4407	624.1532	670.4744	688.9921	707.4907	768.7769	803.2452	888.4914	936.0016	956.6318	986.6408	1073.5343	1100.7394	1145.5494	1209.782	1223.0483	1246.3145	1276.1968	1329.7223	1377.6302	1404.1825	1440.9664	1465.3588	1522.9536	1536.0115	1872.6395	2237.4002	3014.8252	3026.3735	3046.9085	3071.8531	3089.8228	3119.7751	3503.335
O=C1OCCN1CC#C	O=C1OCCN1CC#C	
InChI=1S/C6H7NO2/c1-2-3-7-4-5-9-6(7)8/h1H,3-5H2	InChI=1S/C6H7NO2/c1-2-3-7-4-5-9-6(7)8/h1H,3-5H2
