15
gdb 49590	2.22345	1.72746	1.17824	5.2262	66.13	-0.2432	-0.0393	0.2039	1029.132	0.110054	-457.726956	-457.718903	-457.717959	-457.760376	28.699	
O	-0.7139816212	 0.8965399242	 0.4141607367	-0.228006
C	 0.2421931604	 0.9685343837	-0.31321795	 0.153881
C	 1.3645818255	 1.9584952859	-0.1604520403	-0.148087
C	 1.4651778703	 3.0289894742	-1.2741713884	 0.002914
O	 0.288300342	 3.8315249975	-1.1866962731	-0.227028
C	 1.3651126231	 4.1105890295	-0.2855177489	 0.011582
C	 1.2517621321	 3.1251057987	 0.8997014823	-0.139075
C	 0.0070339552	 3.2574185077	 1.7563976824	 0.164671
O	 0.0385813014	 3.2185301422	 2.9603419858	-0.260055
H	 0.3549914504	 0.284568	-1.1852675426	 0.091616
H	 2.3095762953	 1.4140281425	-0.0523920369	 0.117731
H	 1.9698046735	 2.9730976095	-2.2306407984	 0.12266
H	 1.7730066035	 5.1137819434	-0.2910205194	 0.126776
H	 2.1263400937	 3.1438496276	 1.5528811596	 0.105066
H	-0.9284897451	 3.4461423332	 1.1979478713	 0.105355
66.5901	99.1578	133.4729	192.2702	236.9813	337.4057	422.6426	443.5148	574.0916	685.5157	718.3736	798.0339	839.8401	864.6241	928.2314	934.5878	965.8438	1014.4786	1036.995	1052.8917	1086.2425	1130.6214	1162.9244	1221.5964	1229.1837	1246.474	1284.969	1327.2399	1382.226	1416.4761	1425.4168	1817.6236	1830.3494	2874.88	2963.2971	3057.2883	3103.052	3193.9855	3208.7401
O=CC1C2OC2C1C=O	O=C[C@H]1[C@H]2O[C@H]2[C@H]1C=O	
InChI=1S/C6H6O3/c7-1-3-4(2-8)6-5(3)9-6/h1-6H	InChI=1S/C6H6O3/c7-1-3-4(2-8)6-5(3)9-6/h1-6H/t3-,4+,5-,6+
