16
gdb 44208	4.00088	1.1623	1.12164	1.1481	69.84	-0.2517	-0.0341	0.2176	1102.7807	0.123876	-437.822398	-437.814968	-437.814024	-437.854698	28.018	
O	 0.0880730177	 0.0309518665	-0.0395394371	-0.300608
C	 0.0546530148	 1.2252160874	-0.0850934394	 0.423435
C	-1.0650549602	 2.2815794358	 0.022154779	-0.303517
N	-0.0262530917	 3.3541660725	 0.2502246247	-0.167535
C	 1.0885228168	 2.30858973	 0.0111262391	-0.251713
C	 0.7665024514	 3.391474372	-0.9564387874	 0.290129
C	 0.3484340844	 3.3674476351	-2.4296699457	-0.149833
O	 1.2577181201	 4.4502405773	-2.7131956933	-0.272014
C	 1.6655285667	 4.5653167793	-1.3325449309	-0.156169
H	-1.7205701913	 2.4501321182	-0.83625758	 0.133398
H	-1.6694189425	 2.1321022859	 0.9202672925	 0.15026
H	 2.020106265	 2.2848043001	 0.5664524275	 0.126806
H	 0.5931788281	 2.4604152946	-2.9941210824	 0.124235
H	-0.695406986	 3.6472867025	-2.6226389334	 0.113694
H	 1.3699134216	 5.5205054694	-0.8828648616	 0.123702
H	 2.743554655	 4.4128436333	-1.2061787616	 0.115731
84.2029	120.7398	203.2944	239.9221	369.7419	423.5878	473.0606	511.7507	586.3197	661.0804	798.5663	826.2871	859.1167	888.4118	945.5694	983.5317	988.8104	1002.5883	1015.3749	1034.3542	1089.0759	1108.3854	1129.2502	1151.4794	1165.9691	1192.6158	1241.6533	1249.9667	1308.8732	1347.8062	1436.5436	1464.4955	1502.36	1527.0378	1895.0521	3011.3584	3026.6404	3063.4259	3066.8103	3073.8528	3126.1494	3180.3146
O=C1CN2C1C21COC1	O=C1CN2[C@@H]1C12COC1	
InChI=1S/C6H7NO2/c8-4-1-7-5(4)6(7)2-9-3-6/h5H,1-3H2	InChI=1S/C6H7NO2/c8-4-1-7-5(4)6(7)2-9-3-6/h5H,1-3H2/t5-,7?/m0/s1
