18
gdb 84345	2.77826	1.27643	1.01158	6.015	78.2	-0.2328	0.0049	0.2377	1208.3164	0.148127	-398.154212	-398.145215	-398.144271	-398.188335	32.314	
C	-0.107716475	 1.5655002794	-0.0742331356	-0.41224
C	 0.0946795761	 0.0642507964	 0.0883087941	 0.020171
C	 0.8590342431	-0.6147912782	-1.1004268595	-0.123248
N	 1.7949169265	-1.5896746583	-0.4989434472	-0.28132
C	 1.7799274816	-1.3281196295	 0.7541101686	 0.074709
N	 0.9781153309	-0.3057157291	 1.2044438722	-0.060702
C	 0.4968612591	-0.2364324226	 2.5684351067	-0.341246
C	-0.0470623658	-1.237128137	-2.0682269835	 0.29139
N	-0.7917710456	-1.697141219	-2.8222181618	-0.328058
H	 0.8529665565	 2.0741845998	-0.199283523	 0.128812
H	-0.7280249593	 1.766566218	-0.9531317079	 0.140877
H	-0.6157877563	 1.9967371185	 0.7935972719	 0.125626
H	-0.882566913	-0.4243507622	 0.227456681	 0.098109
H	 1.4462856363	 0.1426760317	-1.639465863	 0.129595
H	 2.4023571882	-1.8576843363	 1.470641913	 0.13287
H	 1.2549930915	-0.6457661426	 3.2407939461	 0.140464
H	 0.3156533185	 0.8022333112	 2.860386251	 0.138283
H	-0.4368085634	-0.8026418102	 2.7104001569	 0.125907
50.1003	127.6473	164.049	197.6362	209.188	234.7045	272.2145	364.6322	422.4082	503.289	520.7333	562.5658	638.0349	754.4418	847.9849	869.8785	955.0459	978.982	1039.8079	1065.8327	1078.9583	1116.0345	1120.1277	1155.8591	1237.1702	1248.3175	1294.3756	1322.7573	1352.1326	1383.7303	1407.4516	1413.4563	1463.5215	1480.8142	1491.3322	1499.3056	1521.8157	1676.8602	2363.7583	2977.2979	2986.5657	3002.9905	3039.2602	3077.0693	3110.659	3117.8971	3121.6671	3179.692
CC1C(N=CN1C)C#N	C[C@H]1[C@@H]([N][CH]N1C)C#N	
InChI=1S/C6H9N3/c1-5-6(3-7)8-4-9(5)2/h4-6H,1-2H3	InChI=1S/C6H9N3/c1-5-6(3-7)8-4-9(5)2/h4-6H,1-2H3/t5-,6-/m0/s1
