21
gdb 99145	3.64403	0.87912	0.81587	3.3942	80.83	-0.2354	0.0624	0.2978	1518.8823	0.181785	-420.433905	-420.42336	-420.422416	-420.47043	37.331	
C	 0.2082040046	 1.1572711093	-0.2981590811	-0.323008
N	-0.2404512057	 0.0204489235	 0.4843468024	-0.361602
C	 0.6848947573	-0.8544236036	 1.0207790044	 0.489916
O	 1.8840401443	-0.6428991522	 1.0287667925	-0.401789
N	 0.1168793457	-2.0024549159	 1.5584054268	-0.373513
C	 0.9256508075	-2.8661068488	 2.3694908433	 0.046988
C	 0.5226783989	-4.3173974194	 2.4575053847	-0.337117
C	 1.7770608189	-3.9248568274	 1.7130131839	 0.037365
C	 1.8629792405	-4.0495302024	 0.2099887585	-0.405736
H	 1.1971238114	 1.4382177433	 0.0645219181	 0.167568
H	 0.2886253292	 0.9310772341	-1.3700848442	 0.117823
H	-0.478421388	 1.9989760652	-0.167650794	 0.118248
H	-1.1480815969	-0.3548574582	 0.2582771035	 0.233364
H	-0.8540923996	-1.937642082	 1.8279940101	 0.232684
H	 1.3390089878	-2.4081014852	 3.2658910167	 0.094467
H	 0.6004345258	-4.8151016321	 3.41764698	 0.111731
H	-0.3277008294	-4.6273720713	 1.8578443209	 0.107756
H	 2.7108723203	-4.1189805151	 2.2332920035	 0.087571
H	 0.8951774426	-3.8478828891	-0.2566997973	 0.112316
H	 2.5843190384	-3.3331897829	-0.1948906523	 0.136801
H	 2.1751322864	-5.0581903099	-0.0813748104	 0.108165
46.2881	61.7173	89.3803	125.7139	151.9223	189.7165	247.1539	291.9086	318.0914	378.3833	406.7672	467.1523	502.4243	599.7265	743.107	771.7542	791.9295	818.5988	851.2197	921.9524	966.834	1019.1223	1050.5552	1079.6373	1102.1881	1134.1435	1148.8372	1152.0713	1171.3602	1193.2177	1194.7715	1239.9781	1274.8484	1383.4776	1413.7593	1420.2346	1440.139	1473.8607	1485.3692	1493.2076	1496.9565	1503.6814	1509.7729	1557.8776	1790.1152	3011.687	3036.954	3081.9704	3101.1451	3113.8824	3116.0923	3128.663	3149.3858	3156.4557	3215.1655	3589.4908	3622.4591
CNC(=O)NC1CC1C	CNC(=O)N[C@H]1C[C@H]1C	
InChI=1S/C6H12N2O/c1-4-3-5(4)8-6(9)7-2/h4-5H,3H2,1-2H3,(H2,7,8,9)	InChI=1S/C6H12N2O/c1-4-3-5(4)8-6(9)7-2/h4-5H,3H2,1-2H3,(H2,7,8,9)/t4-,5+/m1/s1
