18
gdb 14178	3.8185	1.66343	1.64074	0.4669	67.19	-0.2248	0.0743	0.2991	884.7699	0.153588	-384.923963	-384.916219	-384.915275	-384.955567	29.827	
C	-0.0726404675	 1.5855126492	 0.0421991894	-0.454175
C	 0.0235134869	 0.0819092211	-0.0277572797	 0.355896
O	-1.1163548991	-0.6048618315	 0.429710613	-0.466929
C	 0.6708235793	-0.6683832171	-1.1731440547	-0.111008
C	 1.6298538501	 0.0612447992	-2.1122221621	-0.267356
C	 2.9213702165	 0.1533792894	-1.2699422424	-0.062072
O	 2.5086060772	 0.1163307131	 0.1018804556	-0.257362
C	 1.3328419793	-0.6481085388	 0.1860703271	 0.00537
H	 0.8769427872	 2.0611509094	-0.2080076485	 0.132251
H	-0.8520765376	 1.9602028386	-0.629032524	 0.122122
H	-0.3301821816	 1.8946120071	 1.0627348044	 0.107445
H	-1.2078182358	-0.4238627632	 1.3724041076	 0.280022
H	 0.1452340968	-1.5499710194	-1.5185898187	 0.101426
H	 1.7882826498	-0.5055781849	-3.0333694483	 0.107916
H	 1.264387131	 1.0529863019	-2.3960750946	 0.10936
H	 3.585147261	-0.6976752034	-1.4842539459	 0.096026
H	 3.4855000816	 1.0778769096	-1.4212401954	 0.107898
H	 1.3773034949	-1.5144303403	 0.8405615073	 0.09317
132.231	175.8627	194.0836	261.6955	277.0832	337.8117	389.7059	456.8111	489.9547	634.1148	714.0463	738.8824	837.7202	855.0809	886.5809	940.7717	967.9319	976.5336	1016.6197	1038.581	1058.7832	1094.6387	1124.6548	1130.606	1184.6209	1225.9178	1242.5792	1273.7474	1291.3936	1313.3137	1320.0965	1384.2352	1413.4384	1430.2286	1483.2113	1498.0059	1499.3171	1518.5783	2990.934	3029.2935	3052.7482	3087.2622	3088.8129	3101.8193	3137.6138	3143.5197	3189.9181	3786.0561
CC1(O)C2CCOC12	C[C@@]1(O)[C@H]2CCO[C@@H]12	
InChI=1S/C6H10O2/c1-6(7)4-2-3-8-5(4)6/h4-5,7H,2-3H2,1H3	InChI=1S/C6H10O2/c1-6(7)4-2-3-8-5(4)6/h4-5,7H,2-3H2,1H3/t4-,5+,6+/m0/s1
