21
gdb 113049	5.50573	0.663	0.62634	1.3589	85.29	-0.2561	0.0557	0.3118	1779.8792	0.180847	-387.042488	-387.032541	-387.031597	-387.078044	36.636	
O	 0.0517649863	 1.332611264	-0.1801721144	-0.4224
C	 0.0350563473	-0.057654842	 0.1125153407	-0.096804
C	-1.3999531041	-0.5329474977	 0.0402881857	 0.055267
C	-2.1010675608	-0.5717612765	-1.3454917323	-0.251887
C	-2.7520583294	-1.920522621	-0.9338277127	 0.048656
C	-2.8636191421	-3.0256198573	-1.9897298483	-0.375979
C	-3.3563752861	-4.2858368527	-1.4447648672	 0.304387
C	-3.7644699779	-5.3103321124	-0.965832322	-0.451774
C	-1.6792884978	-2.0544059241	 0.1820826546	-0.256974
H	 0.963968789	 1.6356919449	-0.1549308804	 0.286251
H	 0.6460634856	-0.6243002546	-0.6105779791	 0.076636
H	 0.4446822023	-0.2614522207	 1.1162401919	 0.08399
H	-1.998754063	 0.0419850186	 0.7542312946	 0.080017
H	-2.7604239598	 0.2569549512	-1.6107853453	 0.103169
H	-1.3718224081	-0.708146415	-2.1526740551	 0.09342
H	-3.737235331	-1.7504874842	-0.4882524735	 0.082811
H	-3.5265664517	-2.6916304952	-2.7994453555	 0.128352
H	-1.878991248	-3.1861145965	-2.4498614554	 0.121453
H	-4.1242740543	-6.2206425556	-0.5549172723	 0.192814
H	-0.8255893418	-2.6517948856	-0.1593864047	 0.09539
H	-1.9974136546	-2.4322118975	 1.1558337608	 0.103203
49.7104	64.7255	111.5052	136.39	210.46	264.1167	303.5103	350.31	374.7518	388.2415	444.6792	485.2926	616.9883	630.4175	651.3013	779.4668	823.312	874.2226	919.7407	936.1617	955.3652	973.9237	1039.2555	1051.794	1074.5545	1090.0184	1124.8945	1144.0543	1183.7162	1227.033	1242.6398	1253.3118	1268.0466	1271.9539	1284.4206	1303.2156	1329.2667	1364.4319	1387.7951	1462.1947	1468.9415	1477.5145	1500.689	1520.7836	2236.3332	2951.0075	2977.9009	3008.9413	3036.762	3037.6917	3041.1783	3058.2971	3062.1894	3107.73	3112.9928	3507.8565	3828.8692
OCC1CC(CC#C)C1	OC[C@H]1C[C@@H](CC#C)C1	
InChI=1S/C8H12O/c1-2-3-7-4-8(5-7)6-9/h1,7-9H,3-6H2	InChI=1S/C8H12O/c1-2-3-7-4-8(5-7)6-9/h1,7-9H,3-6H2/t7-,8+
