18
gdb 14640	16.54761	0.54104	0.53079	0.0001	87.21	-0.2382	0.0521	0.2903	2087.858	0.15056	-310.630031	-310.619391	-310.618446	-310.669575	34.29	
C	-0.0097480586	 1.4978023841	 0.0093915528	-0.496854
C	-0.0059812969	 0.044703437	-0.0849051572	 0.096902
C	 0.0106705528	-1.1565662355	-0.1681690437	 0.032664
C	-0.0086720713	-2.6118567872	-0.2534525516	-0.340713
C	-1.3507312275	-3.2172883681	 0.239313238	-0.340712
C	-1.3700802838	-4.6725780122	 0.154007276	 0.032669
C	-1.3534499464	-5.8738441743	 0.0706896866	 0.096897
C	-1.3497746639	-7.326941536	-0.0236430895	-0.496853
H	 0.8089536784	 1.8591614569	 0.641678615	 0.146483
H	 0.1040265576	 1.9625123089	-0.9763743768	 0.146404
H	-0.9469595732	 1.8663087961	 0.4412696848	 0.146347
H	 0.1647186339	-2.9345322683	-1.2869132637	 0.134381
H	 0.8088557417	-3.0384388172	 0.339758238	 0.134386
H	-1.5241151499	-2.8946247198	 1.2727786859	 0.134379
H	-2.1682592265	-2.7906958701	-0.353889683	 0.134387
H	-2.1654596788	-7.6879778025	-0.6600001109	 0.146477
H	-0.4105716041	-7.695789712	-0.4508779413	 0.146346
H	-1.4686060036	-7.7916316496	 0.9615354707	 0.14641
13.0452	13.9627	43.9907	62.7233	130.3961	194.9031	237.168	289.1593	290.332	378.3682	396.7812	462.8827	498.8943	733.527	763.7238	816.3451	998.1115	1027.3882	1053.4073	1053.5297	1054.5193	1059.897	1166.7375	1169.6441	1193.1272	1284.8792	1304.5518	1366.521	1414.9534	1415.9791	1473.3263	1478.9623	1478.9737	1479.5392	1479.5938	1484.0661	2372.1244	2374.3074	3024.888	3025.163	3026.1404	3035.6007	3051.939	3074.2108	3084.9223	3084.9383	3084.9799	3084.9968
CC#CCCC#CC	CC#CCCC#CC	
InChI=1S/C8H10/c1-3-5-7-8-6-4-2/h7-8H2,1-2H3	InChI=1S/C8H10/c1-3-5-7-8-6-4-2/h7-8H2,1-2H3
