19
gdb 6878	2.69734	1.67215	1.42545	4.2762	76.69	-0.2758	0.0335	0.3093	1000.1125	0.1639	-327.947219	-327.938038	-327.937094	-327.980383	33.623	
C	-0.1083983478	 1.5463746828	-0.069206868	-0.42253
C	 0.0315623405	 0.0449459516	 0.0445051392	-0.045322
C	 1.3757750247	-0.6563585524	-0.1833362697	-0.238676
C	 2.558737688	 0.1198547805	-0.4134531098	 0.294947
N	 3.5124895625	 0.7514856989	-0.5932302715	-0.354188
C	 0.7007144108	-0.6578466467	 1.1961402016	 0.304239
C	 1.3279686615	 0.1357930009	 2.326232654	-0.457627
C	 0.1153335278	-1.9884645727	 1.633661491	-0.449723
H	 0.794654305	 2.073720544	 0.2444180618	 0.142519
H	-0.3090479545	 1.8328962954	-1.1064722365	 0.130032
H	-0.9423977601	 1.9036970761	 0.5440727572	 0.123065
H	-0.8013636185	-0.5031177652	-0.3898440087	 0.094775
H	 1.3569321608	-1.5902857519	-0.7359193407	 0.124312
H	 1.8380784021	 1.0361562332	 1.980387879	 0.141544
H	 0.5626325153	 0.4334606802	 3.0516134252	 0.119945
H	 2.0669595156	-0.4757152419	 2.8548762986	 0.126898
H	 0.880974489	-2.6232963724	 2.0932669435	 0.125495
H	-0.6778018182	-1.8343510639	 2.3742509234	 0.123649
H	-0.317344294	-2.5375063765	 0.7915529704	 0.116647
126.1644	140.6337	162.2815	173.8516	204.0366	238.9602	268.5789	351.1605	378.6813	402.5867	464.8135	560.6799	609.4059	700.6926	763.8888	825.1924	940.9411	969.773	978.9637	1002.0287	1029.1388	1058.1697	1124.8902	1140.148	1151.2745	1162.1033	1252.8043	1327.2053	1356.3676	1413.6437	1419.375	1428.92	1440.8075	1478.3187	1489.2278	1490.852	1499.097	1505.7153	1517.6897	2343.8503	3025.4022	3036.6428	3041.9444	3089.7305	3094.3904	3100.147	3100.71	3123.041	3135.3669	3142.818	3160.5612
CC1C(C#N)C1(C)C	C[C@H]1[C@@H](C#N)C1(C)C	
InChI=1S/C7H11N/c1-5-6(4-8)7(5,2)3/h5-6H,1-3H3	InChI=1S/C7H11N/c1-5-6(4-8)7(5,2)3/h5-6H,1-3H3/t5-,6+/m0/s1
