21
gdb 92336	2.20319	1.83195	1.29349	2.0082	77.76	-0.2437	0.0755	0.3192	1074.1367	0.183454	-424.222526	-424.214205	-424.21326	-424.255113	32.645	
C	-0.0494106951	 1.3641864118	-0.0079041434	-0.411996
C	-0.2521758351	-0.0809752284	 0.4049040961	 0.156243
O	 0.0590463631	-0.9887052719	-0.6835515704	-0.310273
C	 0.9606222796	-1.7542456367	 0.1327225559	 0.121004
C	 2.4328086676	-1.5257918103	-0.220291549	-0.111628
O	 2.8019918501	-0.3073946165	 0.4166978203	-0.261113
C	 2.1254145253	-0.300771206	 1.6752481875	 0.142473
C	 2.2824352808	 1.0525831103	 2.348541269	-0.423059
C	 0.7217015376	-0.8382914931	 1.3604224255	-0.147724
H	 0.9807423787	 1.5409651518	-0.3225964805	 0.141336
H	-0.7105231679	 1.5836476463	-0.852949669	 0.12266
H	-0.3068681951	 2.049283366	 0.8063849832	 0.112075
H	-1.295167036	-0.2277363973	 0.7203902961	 0.073364
H	 0.6805362212	-2.8117063581	 0.177867256	 0.075657
H	 3.0446976817	-2.3610133702	 0.1596819689	 0.085033
H	 2.593699464	-1.4205934586	-1.2957342413	 0.119517
H	 2.5965263497	-1.0587742358	 2.3303959248	 0.065189
H	 1.8661789015	 1.8632986565	 1.7506792376	 0.130996
H	 1.7824302924	 1.0450305876	 3.3221333796	 0.11566
H	 3.3433079571	 1.2606113204	 2.513697662	 0.128122
H	 0.2394057189	-1.2770737078	 2.234524761	 0.076463
95.0262	179.7432	210.6235	227.5628	270.1347	309.5738	360.4702	382.4969	445.1338	537.8919	609.7159	715.765	743.7008	845.1824	851.9664	865.432	893.7963	922.1069	949.9805	1002.8189	1048.5802	1051.0937	1078.8927	1086.4142	1103.1714	1128.1695	1169.1396	1174.6224	1206.1883	1240.0999	1267.2397	1300.341	1330.1132	1346.4558	1354.6779	1378.0918	1397.9969	1401.6822	1410.5154	1416.887	1482.1576	1485.4241	1489.0244	1505.1728	1512.8364	2910.3202	2968.3226	2991.6465	3038.7819	3052.4296	3055.0643	3102.5343	3105.9185	3107.7973	3114.9688	3139.8167	3155.4094
CC1OC2COC(C)C12	C[C@H]1O[C@H]2CO[C@@H](C)[C@@H]12	
InChI=1S/C7H12O2/c1-4-7-5(2)9-6(7)3-8-4/h4-7H,3H2,1-2H3	InChI=1S/C7H12O2/c1-4-7-5(2)9-6(7)3-8-4/h4-7H,3H2,1-2H3/t4-,5+,6-,7-/m0/s1
