20
gdb 114542	3.61186	1.20964	1.08296	1.6484	74.29	-0.2169	0.0787	0.2956	1167.0872	0.173263	-440.236537	-440.228731	-440.227787	-440.269027	31.002	
O	 0.1468928683	 1.3192681776	 0.2054248485	-0.424582
C	 0.0508656932	-0.0827446853	 0.0729529488	-0.071491
C	-1.390518576	-0.5375611107	-0.1160862743	 0.10632
C	-1.5325681003	-2.078037626	-0.2727151454	-0.212891
N	-2.7515905073	-2.6190181912	 0.3589641885	-0.12206
C	-3.8404236474	-1.5771377892	 0.2201133104	-0.205489
C	-3.2126131641	-0.8393229014	 1.4233262399	 0.119444
C	-2.6985412924	-2.2362957279	 1.8213681333	-0.185506
O	-2.1177690047	-0.0296396577	 1.0191418109	-0.306078
H	-0.4948744469	 1.5635224978	 0.8829784975	 0.292599
H	 0.6470692229	-0.3663237677	-0.8017349063	 0.107003
H	 0.4706557675	-0.6028903614	 0.9505595503	 0.084479
H	-1.7892016633	-0.0392998874	-1.0106114996	 0.084775
H	-1.5450475416	-2.3266626763	-1.3395419154	 0.110571
H	-0.6746269798	-2.5959160817	 0.1720000897	 0.108658
H	-3.8983667201	-1.0674261672	-0.7443615973	 0.112514
H	-4.8099786195	-2.0233072244	 0.4567125255	 0.111883
H	-3.8193999024	-0.2377524704	 2.105087873	 0.077831
H	-3.4194542375	-2.8330812688	 2.3880998484	 0.107293
H	-1.7119615388	-2.2918437908	 2.2889415336	 0.104727
71.3663	132.3845	211.8136	337.3904	362.7702	431.9148	448.8161	463.4946	475.1246	492.6721	635.2375	784.7457	806.2763	825.0433	885.7934	917.8873	932.916	936.5359	992.9636	1000.3132	1026.1709	1067.6563	1083.8365	1093.8065	1130.4075	1144.0105	1168.688	1236.0607	1241.2361	1252.9207	1259.0878	1288.481	1299.2672	1319.4214	1359.0046	1371.9669	1384.5345	1401.4118	1440.0029	1483.4302	1491.143	1496.8244	1514.5826	2962.7154	3003.3643	3030.0149	3047.7869	3060.9606	3068.2224	3075.6019	3078.9928	3111.9847	3119.8155	3794.8024
OCC1CN2CC(C2)O1	OC[C@H]1CN2C[C@@H](C2)O1	
InChI=1S/C6H11NO2/c8-4-6-3-7-1-5(2-7)9-6/h5-6,8H,1-4H2	InChI=1S/C6H11NO2/c8-4-6-3-7-1-5(2-7)9-6/h5-6,8H,1-4H2/t6-/m1/s1
