20
gdb 119514	3.78411	1.01043	0.92272	1.7084	78.23	-0.2181	0.073	0.2911	1325.189	0.17048	-403.051388	-403.042735	-403.041791	-403.085096	33.193	
O	-0.0172694727	 1.3764502778	 0.1124071123	-0.420395
C	 0.0297415818	-0.037038725	-0.0200517278	-0.07259
C	-1.4075776943	-0.5471379329	 0.055086905	-0.288771
C	-1.5267793504	-2.0428749408	-0.0438293026	 0.321867
C	-2.3961206183	-2.8571342039	 0.8319475749	-0.298743
N	-0.9278940506	-2.9607637853	 0.9979066062	-0.183744
C	-0.3309716235	-3.7695704979	-0.1389426492	 0.010959
C	-1.2540458227	-4.3025634377	-1.197099847	-0.311311
C	-0.8777441672	-2.844940938	-1.2001844247	-0.120249
H	 0.8857263045	 1.7061503173	 0.1256807912	 0.285435
H	 0.4916211438	-0.3274761754	-0.9769690106	 0.082785
H	 0.6168104971	-0.5021675771	 0.7850677153	 0.106742
H	-1.8384617981	-0.2064449756	 1.0023742065	 0.11308
H	-1.9936930615	-0.0793682066	-0.7471626363	 0.109411
H	-2.8554074737	-2.3426435357	 1.6715231114	 0.120649
H	-2.9763931071	-3.6969483566	 0.4690195974	 0.117264
H	 0.667594308	-4.1565438077	 0.0190529606	 0.10129
H	-0.729488686	-4.8820120582	-1.9517166632	 0.117342
H	-2.2600118742	-4.6614653144	-1.0126328784	 0.115782
H	-0.3724979648	-2.3725322163	-2.032074191	 0.093196
72.2116	88.1583	121.1023	253.7326	256.5223	322.1787	333.6818	452.717	478.3525	561.8323	636.8897	697.3896	723.9368	774.7386	809.3864	854.4993	907.9514	928.849	949.5081	971.2714	1018.8825	1022.5989	1045.7317	1056.8834	1065.3744	1082.795	1095.4187	1113.8359	1133.076	1182.6839	1209.1481	1231.0566	1245.933	1299.0248	1304.6454	1327.8175	1343.6262	1398.9061	1459.4894	1474.9412	1476.9225	1527.1377	1529.4779	2973.9723	3013.0571	3028.61	3081.9741	3122.8693	3135.2807	3187.6542	3197.0996	3205.2946	3214.1569	3831.9324
OCCC12CN1C1CC21	OCC[C@]12CN1[C@H]1C[C@@H]21	
InChI=1S/C7H11NO/c9-2-1-7-4-8(7)6-3-5(6)7/h5-6,9H,1-4H2	InChI=1S/C7H11NO/c9-2-1-7-4-8(7)6-3-5(6)7/h5-6,9H,1-4H2/t5-,6+,7-,8?/m1/s1
