15
gdb 42279	3.50066	1.23797	0.99435	5.6459	73.02	-0.2597	-0.049	0.2108	1146.6736	0.112933	-416.797322	-416.789408	-416.788464	-416.830685	28.506	
O	-0.0563361355	-0.0705315799	-0.0103465736	-0.346887
C	-0.1092598914	 1.1412645141	 0.0322931166	 0.312516
C	 1.1075136596	 1.9794639073	-0.0574074185	 0.221835
N	 2.070675592	 2.6120219447	-0.1452237113	-0.327985
N	-1.2294075221	 1.8741067244	 0.2038487495	-0.086609
C	-1.5571848231	 3.3105376091	 0.0661051215	-0.194875
C	-3.0375348978	 2.9062105002	-0.0416474884	-0.088315
C	-3.2335612632	 1.900963198	-1.1486228481	-0.279084
C	-2.6175405617	 1.4510600666	 0.1458946028	-0.00708
H	-1.3182662086	 3.8709869003	 0.9741415166	 0.141541
H	-1.1077972237	 3.8026761966	-0.8018622685	 0.140097
H	-3.8528089142	 3.438640843	 0.4254950723	 0.118098
H	-4.2606234284	 1.5841958919	-1.2985609237	 0.133854
H	-2.631051441	 1.9390177209	-2.0517445234	 0.12886
H	-2.990567471	 0.6607327727	 0.7826382761	 0.134035
57.1633	92.7166	122.2949	237.3964	311.4076	348.0298	452.1409	483.4379	532.3885	660.804	748.3796	773.9633	792.3593	825.1269	927.568	949.3252	987.3867	996.8006	1048.7515	1065.4924	1084.4056	1106.5016	1154.6383	1189.1033	1207.4753	1266.1481	1311.118	1356.2467	1438.9154	1478.0274	1508.3785	1771.7045	2346.9196	3051.5935	3105.577	3122.4242	3212.0856	3216.5734	3231.1682
O=C(C#N)N1CC2CC12	O=C(C#N)N1C[C@H]2C[C@@H]12	
InChI=1S/C6H6N2O/c7-2-6(9)8-3-4-1-5(4)8/h4-5H,1,3H2	InChI=1S/C6H6N2O/c7-2-6(9)8-3-4-1-5(4)8/h4-5H,1,3H2/t4-,5-/m1/s1
