19
gdb 121559	6.89041	0.39623	0.39257	3.3596	83.05	-0.2457	-0.0266	0.2191	2682.0184	0.155549	-423.003115	-422.992052	-422.991108	-423.043303	36.533	
O	-0.0901541161	 1.3018118548	-0.7733738367	-0.421145
C	 0.0111678447	 0.0314647111	-0.1518564487	-0.074056
C	-1.382424697	-0.5823159744	-0.1217036429	-0.156693
C	-1.3903532037	-1.9752569132	 0.5360289634	-0.358256
C	-2.7162208353	-2.5815852156	 0.575888871	 0.03781
C	-3.8242043258	-3.0521879689	 0.612927624	 0.09139
C	-5.1405885083	-3.6737678334	 0.6166909421	-0.413899
C	-5.2726157893	-4.7583710601	-0.4546725165	 0.172033
O	-5.8710710475	-5.7865983272	-0.2931599861	-0.231626
H	 0.7857631824	 1.6977370648	-0.7965632404	 0.287057
H	 0.6980554761	-0.6314238429	-0.7044158663	 0.08555
H	 0.4020376131	 0.1180721415	 0.8758827555	 0.08563
H	-2.0561806558	 0.0880532822	 0.4215469274	 0.119272
H	-1.7630472975	-0.6534430617	-1.1457445035	 0.118138
H	-0.7026863794	-2.6408236967	-0.0033036934	 0.12982
H	-0.9956973192	-1.9018325585	 1.558569116	 0.130735
H	-5.3934799003	-4.1181436737	 1.5849937824	 0.152512
H	-5.916089621	-2.9225827224	 0.3992989099	 0.153723
H	-4.77350614	-4.5104230258	-1.4167502273	 0.092004
5.8851	46.883	69.7461	79.6916	112.6014	131.4337	225.2249	259.051	277.8142	321.8718	393.369	462.9644	496.7868	527.5213	720.2026	755.0386	825.1392	864.8462	1018.5419	1028.33	1034.9564	1043.5052	1085.8039	1116.4491	1164.5078	1211.8038	1213.1924	1231.4497	1290.6804	1299.5173	1305.7469	1311.7913	1375.8385	1414.7317	1441.7756	1465.3032	1474.2762	1499.2126	1528.394	1840.5328	2369.5047	2898.5107	2953.586	2978.5484	2997.3021	3009.7087	3036.9673	3053.7955	3076.7806	3099.7882	3831.0639
OCCCC#CCC=O	OCCCC#CCC=O	
InChI=1S/C7H10O2/c8-6-4-2-1-3-5-7-9/h7-8H,2,4-6H2	InChI=1S/C7H10O2/c8-6-4-2-1-3-5-7-9/h7-8H,2,4-6H2
