20
gdb 87861	3.21776	1.28436	1.16752	2.1593	78.21	-0.2397	0.0727	0.3124	1145.6052	0.171879	-403.123864	-403.115779	-403.114835	-403.156476	31.917	
C	-0.2950207597	 1.5264374452	 0.4365159682	-0.421996
C	-0.1840293007	 0.0263347947	 0.3708844899	 0.00964
O	 0.9388469817	-0.519170332	-0.3427917549	-0.318559
C	 0.8421306341	-0.7701961025	 1.0602072752	 0.4478
C	 1.9143388983	-0.1800312482	 1.985536641	-0.30675
C	 1.8315124062	-1.0383479159	 3.2317355652	-0.033928
N	 0.4493376498	-1.1617457743	 3.7482097403	-0.341258
C	 1.0327508201	-2.2565325423	 2.9394556565	-0.034576
C	 0.585812526	-2.2206666427	 1.4934932997	-0.300309
H	 0.6791686776	 1.9919626595	 0.6007658783	 0.125759
H	-0.7022873612	 1.9184074223	-0.5014317162	 0.124991
H	-0.9689671407	 1.8232721023	 1.2474373912	 0.127096
H	-1.1239603178	-0.4862307832	 0.1528680488	 0.082083
H	 2.8995205747	-0.2886992513	 1.5162609573	 0.111064
H	 1.756965178	 0.881378598	 2.1931946244	 0.109506
H	 2.6574484974	-1.0513892338	 3.9351918196	 0.085556
H	 0.4843444224	-1.4204151216	 4.7312551667	 0.229327
H	 1.2457458596	-3.2063028729	 3.4188112209	 0.085646
H	-0.4581943731	-2.5159068572	 1.3548271597	 0.107858
H	 1.2097163672	-2.892617324	 0.8914938083	 0.11105
70.8197	161.8296	201.5888	241.9801	326.1239	372.0078	385.7589	458.3666	479.2163	547.7278	645.6401	763.4542	791.429	805.9079	848.1338	867.7705	915.9317	922.1788	955.1302	990.8898	998.4553	1018.9592	1072.9497	1086.2232	1114.2802	1133.5928	1154.7877	1168.2263	1176.4211	1213.6921	1226.468	1251.3439	1304.6912	1320.2271	1363.473	1373.7614	1409.2033	1430.984	1467.3998	1472.8041	1482.3019	1493.4397	1513.2243	3037.8764	3038.3184	3042.9548	3077.8658	3089.9217	3097.7719	3100.2921	3131.6828	3159.89	3170.4601	3500.507
CC1OC11CC2NC2C1	C[C@H]1O[C@]21C[C@H]1N[C@H]1C2	
InChI=1S/C7H11NO/c1-4-7(9-4)2-5-6(3-7)8-5/h4-6,8H,2-3H2,1H3	InChI=1S/C7H11NO/c1-4-7(9-4)2-5-6(3-7)8-5/h4-6,8H,2-3H2,1H3/t4-,5-,6+,7-/m1/s1
