18
gdb 46550	3.78178	1.12785	1.03406	1.8597	71.46	-0.2393	-0.0256	0.2136	1176.4415	0.148074	-439.077912	-439.069941	-439.068997	-439.111107	30.047	
O	 0.0539799992	 0.0519837617	-0.4261523555	-0.301553
C	 0.0100838342	 1.2102126759	-0.1109542172	 0.400638
C	-1.2603675854	 2.0142632699	 0.1852914317	-0.277437
N	-0.7519244089	 3.2905747832	 0.6809348077	-0.354062
C	 0.5445347977	 3.5518637327	 0.0692933874	 0.263339
C	 0.6392144073	 4.3660083849	-1.2621324763	-0.122516
O	 1.5473762432	 5.3038497131	-0.6588589649	-0.268216
C	 1.3547021495	 4.7297756837	 0.6487692414	-0.126685
C	 1.1925060784	 2.1662364866	 0.054079444	-0.371199
H	-1.8403876315	 2.0757010199	-0.7520565012	 0.118988
H	-1.8848384765	 1.4982245936	 0.9220139153	 0.136134
H	-1.4016410617	 4.0577123931	 0.557178458	 0.225361
H	 1.0779732814	 3.8684652554	-2.1357317743	 0.104903
H	-0.308851234	 4.840004008	-1.5584831778	 0.088295
H	 0.7652550107	 5.3816625474	 1.3086540628	 0.09823
H	 2.3036676038	 4.4848985179	 1.1402210699	 0.106762
H	 1.6568970576	 1.9523606324	 1.0252371526	 0.141302
H	 1.947641385	 2.0169918306	-0.7192356836	 0.137715
68.3651	82.606	139.9289	259.2923	355.1542	400.7875	446.7614	479.8656	489.2221	582.1664	686.5131	757.6158	822.1925	845.4865	868.0431	919.8497	942.5609	975.2917	997.4748	1037.3518	1069.0536	1088.1944	1126.905	1150.1152	1159.7826	1185.4149	1189.8691	1219.6495	1236.7792	1282.5164	1301.6373	1339.2126	1376.7972	1442.3343	1452.0675	1489.3165	1505.6189	1532.0325	1862.216	2956.7074	2982.9726	3004.3111	3040.114	3047.8489	3057.9362	3067.2436	3125.5595	3548.0681
O=C1CNC2(COC2)C1	O=C1CNC2(COC2)C1	
InChI=1S/C6H9NO2/c8-5-1-6(7-2-5)3-9-4-6/h7H,1-4H2	InChI=1S/C6H9NO2/c8-5-1-6(7-2-5)3-9-4-6/h7H,1-4H2
