17
gdb 12942	2.60982	2.18753	1.67808	2.5951	69.91	-0.2554	0.0222	0.2776	872.4609	0.141272	-363.843446	-363.835494	-363.83455	-363.875428	29.648	
C	 0.0208461889	 1.5573017685	 0.0182181659	-0.421076
C	 0.1008386961	 0.0483979223	 0.0662097932	-0.073144
C	 1.3502421972	-0.7371266379	-0.141950913	 0.031547
O	 2.4906371494	-0.0078755633	 0.3888356815	-0.276957
C	 1.9502489335	-0.107917565	 1.6717521644	 0.398639
N	 2.4380807571	 0.2055668117	 2.7828058536	-0.55876
C	 0.6897575114	-0.7814081018	 1.2249797123	 0.163146
C	-0.0555489965	-1.8345624223	 1.9897814836	-0.493589
H	 0.9549767178	 2.0147868759	 0.3501679297	 0.142642
H	-0.175124731	 1.8971218541	-1.0042954361	 0.121645
H	-0.7881060793	 1.9255439525	 0.6566718655	 0.125214
H	-0.7718936183	-0.4631312023	-0.339598425	 0.097297
H	 1.5592304928	-1.5025790541	-0.8776939049	 0.119171
H	 3.3695066329	 0.6116401728	 2.6775876263	 0.229155
H	-0.6077681088	-1.3900145685	 2.8242308996	 0.140483
H	-0.7765386551	-2.3494071736	 1.3476296584	 0.119742
H	 0.6293121019	-2.5803732791	 2.404901365	 0.134845
130.9208	158.6269	179.5848	202.8467	238.6765	277.9827	376.45	460.4526	585.7434	640.653	690.9061	736.6195	788.9589	864.52	876.9984	905.259	938.2113	949.4249	1005.6923	1032.1198	1075.5756	1105.9986	1116.1982	1152.6527	1188.9159	1264.0949	1286.4307	1354.7545	1415.4395	1417.4574	1465.1882	1483.6823	1491.1471	1497.2387	1503.2542	1825.7774	3036.7029	3041.1497	3101.2239	3101.8303	3109.8135	3116.3364	3136.3534	3206.547	3476.6206
CC1C2OC(=N)C12C	C[C@H]1[C@H]2O[C]([NH])[C@@]12C	
InChI=1S/C6H9NO/c1-3-4-6(3,2)5(7)8-4/h3-4,7H,1-2H3	InChI=1S/C6H9NO/c1-3-4-6(3,2)5(7)8-4/h3-4,7H,1-2H3/t3-,4+,6-/m0/s1
