16
gdb 22804	2.85805	1.44849	1.00525	4.1896	70.4	-0.2521	-0.052	0.2001	1133.5698	0.124842	-475.013344	-475.005331	-475.004386	-475.04662	29.75	
O	 0.0138694698	 1.3246339099	 0.1464380925	-0.341875
N	 0.0226386491	-0.0454420833	 0.0596722624	-0.169581
C	-1.1238370358	-0.6207368669	 0.0231997137	 0.212327
C	-1.0976024122	-2.1264325711	-0.0811641183	-0.28526
C	-2.1737642147	-2.5793607245	-1.0697452545	-0.233767
C	-3.5172876405	-2.0574467052	-0.5900490273	-0.057962
O	-3.5358872647	-0.6370068551	-0.3740670219	-0.236168
C	-2.4562216401	 0.0843532584	 0.0346664783	 0.376682
O	-2.6170308329	 1.2323857314	 0.3428448034	-0.30215
H	 0.9558660913	 1.5329685219	 0.1269894652	 0.314594
H	-0.0943416964	-2.4450908099	-0.3713521664	 0.127068
H	-1.3084247011	-2.5690462195	 0.90303868	 0.118916
H	-1.9554692992	-2.1939824325	-2.0722836846	 0.12135
H	-2.2166002781	-3.6712229935	-1.1365364496	 0.113732
H	-4.3126039968	-2.244549861	-1.3158540767	 0.126204
H	-3.7996031976	-2.5461510991	 0.3522152536	 0.11589
42.2741	112.3389	238.783	250.9102	332.9187	361.7555	415.4776	430.7224	479.5012	545.8631	589.0818	659.9658	686.7331	784.2172	889.1646	901.1522	956.1794	997.8302	1038.8585	1095.636	1103.2289	1148.1794	1206.0661	1214.6337	1285.2948	1296.137	1353.0283	1374.8766	1424.2351	1427.0162	1479.7122	1485.2293	1515.9279	1688.7451	1829.176	3007.9024	3018.8301	3043.5535	3090.8616	3099.0452	3109.1	3789.1418
ON=C1CCCOC1=O	ON=C1CCCOC1=O	
InChI=1S/C5H7NO3/c7-5-4(6-8)2-1-3-9-5/h8H,1-3H2	InChI=1S/C5H7NO3/c7-5-4(6-8)2-1-3-9-5/h8H,1-3H2
