15
gdb 20716	5.56254	1.56714	1.23201	2.3516	74.12	-0.2069	-0.0496	0.1573	951.0553	0.120911	-358.86427	-358.857221	-358.856277	-358.895413	26.783	
C	-0.0240708257	 1.4949709003	-0.0345071418	-0.475072
C	-0.0001417677	-0.006721991	-0.0056281066	 0.332418
N	-0.0460719382	-0.6352404679	-1.1426931801	-0.243023
N	-0.024072043	-1.9837254687	-1.1068003299	-0.306138
C	 0.0429205989	-2.8242771093	 0.0099779032	 0.37971
N	 0.0608937145	-4.1087661984	-0.0160606956	-0.561308
C	 0.0922232791	-2.0741805358	 1.2542324574	-0.084086
C	 0.0715441883	-0.7259822045	 1.2450886093	-0.146481
H	 0.8750160205	 1.9131460668	 0.4331861039	 0.132733
H	-0.0796890328	 1.8480227906	-1.0652158953	 0.143734
H	-0.8854288748	 1.8867453444	 0.5191496726	 0.132729
H	-0.0622827642	-2.4076879609	-2.0218969467	 0.260992
H	 0.0197441515	-4.4679961052	-0.9717068052	 0.195093
H	 0.1453118587	-2.6585727806	 2.1646184535	 0.129
H	 0.1081871949	-0.1617460097	 2.1716047611	 0.1097
103.398	153.5403	289.2145	307.956	373.1892	444.6751	488.1307	494.5227	626.8173	638.0713	738.7563	766.9075	791.5667	826.9405	865.7391	977.5215	1020.1898	1025.2117	1062.0895	1103.5483	1169.5392	1229.6709	1265.61	1347.3632	1412.782	1446.7979	1454.6992	1481.2491	1484.8587	1590.8998	1662.488	1715.1101	3029.5819	3079.5655	3143.9154	3179.7223	3218.9166	3450.6912	3612.5512
CC1=NNC(=N)C=C1	CC1=NNC(=CC1)[NH]	
InChI=1S/C5H7N3/c1-4-2-3-5(6)8-7-4/h2-3H,1H3,(H2,6,8)	InChI=1S/C5H8N3/c1-4-2-3-5(6)8-7-4/h3,6,8H,2H2,1H3
