21
gdb 15193	8.98842	0.66222	0.64535	1.8018	77.17	-0.2318	0.0878	0.3196	1774.2584	0.187388	-366.216842	-366.207307	-366.206363	-366.252202	33.102	
C	 0.0407125423	 1.319031902	-0.1139756316	-0.226863
O	 0.1737966524	-0.0801674059	-0.0823569724	-0.229213
C	 0.5904213596	-0.5636374493	 1.1759773007	-0.049178
C	 0.691483116	-2.0807780555	 1.1035956288	-0.195693
C	 1.159723413	-2.7006299317	 2.419603645	-0.142395
N	 1.1993375193	-4.1555816345	 2.3209277743	-0.057697
C	 2.4484202847	-4.7355700226	 1.8383215271	-0.218704
C	 2.0617562997	-4.8450142796	 3.2721673198	-0.221438
H	 0.9938310734	 1.827351305	 0.1053244695	 0.100516
H	-0.2820979645	 1.5959694803	-1.1206897188	 0.125806
H	-0.7094018709	 1.6765166705	 0.6100495591	 0.101476
H	 1.5652127395	-0.1220057538	 1.4510908328	 0.080342
H	-0.1274793282	-0.2608324628	 1.9592538231	 0.082484
H	-0.2844643342	-2.4967589629	 0.8336256919	 0.118282
H	 1.3855000883	-2.3497117455	 0.2988456767	 0.107603
H	 2.1446971687	-2.2823685447	 2.7036101581	 0.075247
H	 0.461695185	-2.4423211161	 3.2262250845	 0.102247
H	 2.3513035031	-5.5866581838	 1.1705513201	 0.117069
H	 3.2666583013	-4.0578561068	 1.5968519796	 0.107309
H	 2.6236698433	-4.2414520145	 3.9839750697	 0.10664
H	 1.6752619681	-5.7777881778	 3.6730733919	 0.116161
54.5476	67.7133	103.0804	118.6538	147.3184	232.8599	250.7166	306.1542	394.8524	415.8784	525.64	768.4586	773.9126	836.0246	887.938	906.2402	977.0579	1021.8062	1033.0553	1065.9282	1087.424	1113.0855	1117.351	1148.0495	1166.0217	1174.8333	1179.7465	1205.7886	1227.0666	1245.4295	1294.1191	1305.2748	1313.1548	1325.0754	1404.8925	1430.6221	1481.5019	1484.6977	1486.369	1493.8397	1500.8753	1508.2979	1522.1649	1534.3244	2915.0865	2936.2364	2959.638	2965.761	3005.8494	3035.2075	3046.8966	3089.2984	3093.8607	3094.2607	3111.4931	3174.0925	3188.3666
COCCCN1CC1	COCCCN1CC1	
InChI=1S/C6H13NO/c1-8-6-2-3-7-4-5-7/h2-6H2,1H3	InChI=1S/C6H13NO/c1-8-6-2-3-7-4-5-7/h2-6H2,1H3
