21
gdb 120168	3.37605	0.9483	0.85826	1.3381	80.48	-0.2491	0.0786	0.3277	1442.0241	0.181792	-424.160503	-424.151335	-424.150391	-424.194976	34.422	
C	 0.0471339906	 1.3677121187	 0.1109035384	-0.222029
O	-0.0218303546	-0.0273722642	-0.0484735312	-0.234838
C	 0.7890299542	-0.4991854417	-1.1085280382	-0.120517
C	 0.6974443306	-2.0110979743	-1.1194922693	 0.011141
C	-0.5389756122	-2.7711765721	-1.70476271	-0.053549
C	-0.0408972212	-2.426305048	-3.1375882363	-0.300155
C	 1.2208572744	-2.8487554317	-2.3146798436	 0.375704
O	 2.5483686134	-2.8429806924	-2.7031659471	-0.474583
C	 0.3672437327	-4.0350333184	-1.7624681112	-0.288491
H	 1.072720953	 1.7048764345	 0.3324728298	 0.102037
H	-0.2985996595	 1.9022948567	-0.7889339685	 0.100205
H	-0.6007760506	 1.63565794	 0.9494074079	 0.124377
H	 0.4708977875	-0.0438972286	-2.0586870557	 0.085864
H	 1.8391765949	-0.1995103014	-0.9485083973	 0.093708
H	 1.0169667975	-2.3887133614	-0.1422185618	 0.073167
H	-1.5615046466	-2.7230011681	-1.3410255052	 0.086888
H	-0.3531022582	-3.113699434	-3.9294522277	 0.084198
H	-0.1122879044	-1.3904811649	-3.4698434925	 0.097224
H	 2.6507288202	-3.4377425341	-3.453983401	 0.282575
H	 0.6822387415	-4.4612933825	-0.806653424	 0.094091
H	 0.0768974769	-4.8075930621	-2.4802816453	 0.082982
57.3574	86.3535	117.9552	232.7587	247.5357	259.7529	309.2285	346.5877	408.47	462.0129	582.8817	610.952	650.171	755.4144	793.0718	892.1195	907.6448	944.1554	956.1001	980.2586	1002.2575	1030.3958	1074.8303	1093.3656	1109.3774	1134.0358	1142.9553	1152.8743	1169.7551	1185.4543	1205.6342	1216.8518	1223.1253	1234.07	1267.1898	1296.4609	1359.9093	1390.9413	1449.9539	1480.9053	1485.166	1496.3216	1506.2152	1524.2213	1548.2238	2954.9968	2967.2207	2996.1902	3006.2036	3047.48	3054.1205	3060.6605	3109.7284	3118.0842	3134.5143	3158.3774	3808.8345
COCC1C2CC1(O)C2	COC[C@H]1[C@H]2C[C@]1(O)C2	
InChI=1S/C7H12O2/c1-9-4-6-5-2-7(6,8)3-5/h5-6,8H,2-4H2,1H3	InChI=1S/C7H12O2/c1-9-4-6-5-2-7(6,8)3-5/h5-6,8H,2-4H2,1H3/t5-,6-,7-/m0/s1
