19
gdb 107527	1.99578	1.60603	1.09226	1.7528	81.28	-0.2501	0.0472	0.2973	1169.5809	0.158045	-385.821637	-385.812595	-385.811651	-385.855577	34.261	
O	 0.0614239004	 1.4164684787	 0.2323283055	-0.411107
C	 0.0316851781	 0.0227053854	-0.0416039153	-0.172093
C	-1.3592184875	-0.5332451702	-0.0457005313	 0.337432
C	-2.048776313	-1.0469396083	 1.1930762379	-0.34289
C	-1.8626645646	-1.9754920909	 0.0242563808	-0.113569
C	-2.9229936111	-1.6949576645	-1.0437524869	-0.243585
C	-2.4182489391	-0.2019664886	-1.1273790622	-0.235345
C	-3.3666009257	 0.8608318512	-0.8503794095	 0.337177
C	-4.1695688095	 1.7211248668	-0.6000426649	-0.476546
H	-0.4759640746	 1.5675699463	 1.0173286374	 0.285335
H	 0.4957169432	-0.0878050512	-1.0289492328	 0.106243
H	 0.6495106833	-0.5468330927	 0.6732347428	 0.083636
H	-1.3933203629	-1.2318463755	 2.03912038	 0.111999
H	-3.0397432494	-0.6889269208	 1.4605858136	 0.121641
H	-1.2811827066	-2.8859036035	 0.1069453436	 0.091703
H	-2.7570492959	-2.2282706033	-1.981544529	 0.110145
H	-3.9632258513	-1.8287621918	-0.7353125171	 0.109081
H	-1.9308024829	-0.022780973	-2.0906248494	 0.106263
H	-4.8700671309	 2.4913156858	-0.3917209631	 0.194478
69.75	87.8348	133.2558	204.7443	266.978	290.6734	354.563	390.1884	423.7241	507.7348	535.1072	619.7636	626.9749	677.9644	738.4078	802.3637	856.1571	912.3204	940.0831	947.3683	985.0033	1022.7715	1036.3729	1048.691	1065.5533	1082.8277	1092.5632	1153.218	1183.0499	1203.1188	1257.5642	1259.9528	1292.1953	1334.9859	1358.5712	1402.6731	1432.5832	1481.5777	1499.1225	1506.8356	2229.6368	2960.8374	3051.971	3057.3442	3063.2274	3110.3622	3121.1481	3182.4737	3199.0456	3503.6746	3808.9163
OCC12CC1CC2C#C	OC[C@]12C[C@H]1C[C@H]2C#C	
InChI=1S/C8H10O/c1-2-6-3-7-4-8(6,7)5-9/h1,6-7,9H,3-5H2	InChI=1S/C8H10O/c1-2-6-3-7-4-8(6,7)5-9/h1,6-7,9H,3-5H2/t6-,7-,8+/m1/s1
