17
gdb 133062	2.78465	1.2613	0.92152	2.6817	78.27	-0.25	-0.0279	0.222	1250.8385	0.136765	-426.052093	-426.04416	-426.043216	-426.085316	29.756	
C	-0.2776825861	 1.5248924399	 0.058636966	-0.370463
C	 0.0869376225	 0.0347946966	-0.0405278626	-0.266596
C	 0.7387362453	-0.481548602	 1.2186326785	 0.331474
C	 0.1175503626	-1.4107969792	 2.0512230085	-0.185194
C	 0.774703955	-1.8311206864	 3.2068974972	-0.055156
C	 2.0283780036	-1.3173194742	 3.5021941495	-0.275857
C	 2.5470326046	-0.3952905702	 2.5963054998	 0.331915
F	 3.7502128879	 0.1209040787	 2.8425584627	-0.07679
N	 1.9551034291	 0.0189032331	 1.5035130318	-0.355919
H	 0.6120902512	 2.117117776	 0.2871974783	 0.141907
H	-0.7009433993	 1.883803702	-0.884133244	 0.11361
H	-1.0141077008	 1.6986348218	 0.8499654912	 0.115408
H	-0.8061195868	-0.559311652	-0.2601012702	 0.099378
H	 0.7856933723	-0.108072445	-0.8727122908	 0.121314
H	-0.8621400263	-1.7984294383	 1.7972751401	 0.099787
H	 0.3121365604	-2.5546081875	 3.8700873112	 0.114572
H	 2.5914813048	-1.6028700131	 4.3812335627	 0.116609
44.9767	135.9894	215.9816	223.5035	295.992	346.5599	465.7189	472.8374	547.9019	559.7805	676.1259	729.2552	765.1811	792.1218	824.8554	901.5875	935.3558	995.4566	1002.6617	1007.1151	1080.353	1086.471	1116.0333	1173.6418	1237.9169	1281.4484	1315.0361	1323.8768	1368.6966	1403.2125	1473.3708	1480.801	1484.7563	1496.5773	1510.61	1621.8636	1639.2799	3038.8768	3040.4944	3080.6003	3109.4755	3127.3485	3182.9449	3200.9276	3219.4857
CCC1=CC=CC(F)=N1	CCc1cccc(F)n1	
InChI=1S/C7H8FN/c1-2-6-4-3-5-7(8)9-6/h3-5H,2H2,1H3	InChI=1S/C7H8FN/c1-2-6-4-3-5-7(8)9-6/h3-5H,2H2,1H3
