16
gdb 15980	3.87528	1.60913	1.25201	3.5752	69.26	-0.2292	0.0117	0.2409	982.4577	0.129778	-379.877846	-379.869888	-379.868944	-379.910401	28.532	
C	-0.0042581518	 1.3665274378	-0.1048899304	-0.340538
N	-0.0514145694	-0.0752943106	-0.2894279924	-0.321063
C	-1.1127256602	-0.6766509703	 0.0212492742	 0.347057
N	-2.3652948717	-0.3138645704	 0.5575987873	-0.369003
C	-2.9417656719	-1.6702985036	 0.4170743938	-0.244207
C	-1.5470976358	-2.1220966479	-0.0587614356	 0.340371
C	-1.1217507865	-3.1829143047	-0.9703905714	-0.257609
O	-0.8333311628	-3.2305487285	 0.4337124694	-0.254243
H	 1.0239162241	 1.6693197324	 0.1138831781	 0.129224
H	-0.3020235575	 1.8844758412	-1.0270409705	 0.11907
H	-0.6485922295	 1.7280211946	 0.7107692345	 0.10556
H	-2.8626013181	 0.5312643731	 0.3185136058	 0.246316
H	-3.2756821163	-2.1067594645	 1.3624805354	 0.127089
H	-3.7325815262	-1.7584560405	-0.3359061412	 0.114014
H	-1.8490349941	-3.9124581813	-1.3242017409	 0.119095
H	-0.2630175724	-3.0077069267	-1.6153771462	 0.138867
81.2702	145.1653	148.1802	177.8333	282.0356	310.1136	374.1684	446.7147	514.2881	652.588	695.0933	771.4626	860.3931	884.6018	951.1556	993.0407	1041.5557	1082.169	1110.4025	1123.9965	1127.6991	1144.4797	1159.7648	1169.0389	1206.6925	1289.0401	1349.2114	1437.0487	1449.0276	1488.3596	1506.4023	1512.6537	1534.145	1818.8372	2982.5383	3038.7844	3040.5345	3086.7169	3090.4011	3094.9881	3182.1971	3611.0878
CN=C1NCC11CO1	CN=C1NC[C@]21CO2	
InChI=1S/C5H8N2O/c1-6-4-5(2-7-4)3-8-5/h2-3H2,1H3,(H,6,7)	InChI=1S/C5H8N2O/c1-6-4-5(2-7-4)3-8-5/h2-3H2,1H3,(H,6,7)/t5-/m1/s1
