17
gdb 24646	4.34975	1.20596	0.98355	2.8567	83.95	-0.2178	-0.0178	0.2	1179.483	0.138936	-380.896541	-380.889328	-380.888383	-380.92865	27.757	
C	 1.0135222192	-0.6339927028	-0.8172289818	-0.226007
C	-0.3924099303	-0.9467811281	-1.2125359224	-0.227957
N	-0.1090489675	-0.1444321094	-0.0325603134	-0.127996
C	-0.3607252328	-0.6352272558	 1.2575955149	 0.252381
C	 0.6371586592	-0.6157061384	 2.2428649392	-0.049386
N	 0.4455582493	-0.99868788	 3.5031795445	-0.258121
C	-0.7733850469	-1.4250270742	 3.8460754512	-0.010466
C	-1.8356827702	-1.4834911256	 2.9480421176	-0.104776
C	-1.6292011178	-1.0837390791	 1.6341848591	-0.157357
H	 1.603683171	-1.4480206566	-0.4014328978	 0.12643
H	 1.5813455812	 0.1210058152	-1.3527415715	 0.126862
H	-0.8619408041	-0.4223874933	-2.0395268367	 0.125777
H	-0.7346397762	-1.968284713	-1.0586752277	 0.123006
H	 1.6342467455	-0.2657281427	 1.9838551054	 0.103094
H	-0.904235257	-1.7325508496	 4.8801979098	 0.103624
H	-2.8081754141	-1.8380900888	 3.2722944993	 0.099138
H	-2.4325116086	-1.1096179778	 0.9051406503	 0.101752
68.2762	142.9777	197.3673	297.7696	422.412	474.02	483.7333	559.481	628.914	734.7625	748.9444	818.2114	840.0782	928.5666	929.8821	939.6579	961.41	988.2201	1029.5074	1037.2784	1064.9799	1117.1859	1130.8194	1138.3935	1165.4819	1173.1343	1200.9121	1226.7698	1296.3543	1357.4747	1385.2447	1459.0659	1494.1618	1512.7689	1520.2523	1605.3872	1627.0308	3101.9325	3105.7515	3148.1471	3160.0665	3179.5038	3186.5299	3196.9529	3200.0779
C1CN1C1=CN=CC=C1	C1CN1c1cnccc1	
InChI=1S/C7H8N2/c1-2-7(6-8-3-1)9-4-5-9/h1-3,6H,4-5H2	InChI=1S/C7H8N2/c1-2-7(6-8-3-1)9-4-5-9/h1-3,6H,4-5H2
