17
gdb 78715	4.59064	1.16874	1.06297	4.6597	78.17	-0.2382	0.006	0.2442	1142.0519	0.137204	-380.81265	-380.805142	-380.804198	-380.844456	29.43	
C	-0.1324443485	 1.4631546011	 0.0435072021	-0.413275
C	 0.0503021746	-0.0489898663	 0.0197174614	 0.033838
C	 0.8754204708	-0.5490208248	-1.169361823	-0.109088
C	 2.1698336991	-0.4593782775	-0.3950122677	-0.153378
C	 1.2342973963	-0.5709083055	 0.8817547163	-0.06567
N	 1.1014107127	-2.0637322722	 0.7183901514	-0.367953
C	 1.5846754143	-1.8280807041	-0.6663176463	 0.249886
C	 2.039311003	-2.8579692946	-1.5380915292	 0.173371
N	 2.4255057938	-3.695913309	-2.2370967244	-0.346561
H	 0.8183199739	 1.9836749969	-0.1155512783	 0.119307
H	-0.8253688271	 1.7871623116	-0.7395234355	 0.124545
H	-0.5418166359	 1.7882531441	 1.0056343032	 0.121452
H	-0.8937451278	-0.568019532	 0.2120742613	 0.090233
H	 0.7186289547	-0.3921025989	-2.2290866257	 0.112072
H	 3.1367676764	-0.0323908887	-0.6227133926	 0.115561
H	 1.4284574484	-0.1965133449	 1.8842684185	 0.088479
H	 1.8762540612	-2.4981649252	 1.2209011886	 0.227181
130.3643	142.6843	236.1447	254.3606	286.307	440.9978	481.3616	528.1221	561.5829	603.9969	753.2924	768.2958	779.7248	832.0386	873.793	903.4782	929.8525	951.5757	990.7798	1024.3448	1050.6382	1052.8905	1096.4939	1114.2353	1136.7439	1167.9561	1183.3565	1231.0833	1266.9236	1281.2536	1326.7438	1369.3202	1397.2617	1417.7342	1495.8134	1500.5347	2346.9962	3031.6711	3063.0543	3101.7424	3103.304	3149.2949	3200.8316	3214.7717	3451.6524
CC1C2C3C1NC23C#N	C[C@H]1[C@H]2[C@H]3[C@@H]1N[C@@]23C#N	
InChI=1S/C7H8N2/c1-3-4-5-6(3)9-7(4,5)2-8/h3-6,9H,1H3	InChI=1S/C7H8N2/c1-3-4-5-6(3)9-7(4,5)2-8/h3-6,9H,1H3/t3-,4-,5-,6+,7-/m0/s1
