18
gdb 28317	3.15119	1.46191	1.02695	1.3328	82.53	-0.1709	0.0471	0.218	1148.1957	0.150254	-398.114992	-398.106519	-398.105575	-398.147966	32.234	
N	 0.0739341165	 1.4152773647	 0.3009489321	-0.611526
C	-0.0386889813	 0.0341656744	 0.061200759	 0.255832
C	-1.1831895861	-0.7434823277	-0.0099047268	-0.253108
N	-0.7508806681	-2.054170886	-0.0292357481	 0.000222
C	-0.9098489008	-3.3231496302	-0.777346371	-0.163876
C	 0.6462163075	-3.5009192104	-0.6760368269	-0.358255
C	 0.6255587103	-2.0988129934	-0.085957707	 0.206079
C	 1.1208045101	-0.8153697709	-0.0380356133	 0.033193
N	 2.4367173479	-0.2939165096	-0.105473625	-0.626317
H	 0.8691104658	 1.7969131851	-0.2012104415	 0.243902
H	-0.7601396278	 1.9264222181	 0.0407539105	 0.236362
H	-2.2200898823	-0.4654744496	 0.097324066	 0.099468
H	-1.5407694196	-4.0613855611	-0.2741210589	 0.113312
H	-1.2580243193	-3.1789905384	-1.805131467	 0.119776
H	 0.9816577159	-4.3057090877	-0.0152243271	 0.113139
H	 1.1448844672	-3.6062209321	-1.6430745957	 0.116565
H	 3.1142525366	-1.0199857095	-0.3051939469	 0.234186
H	 2.7082369377	 0.1414774441	 0.7722784977	 0.241046
88.7169	121.6587	171.5845	233.0628	281.6309	321.4953	342.4429	355.623	558.2932	577.488	621.7054	656.3097	669.6552	705.4891	794.1176	800.5214	830.4603	848.0809	892.9832	955.2265	1028.7782	1057.0752	1099.8156	1134.6037	1172.8779	1185.3122	1210.7575	1240.2421	1271.1721	1287.5931	1370.8519	1393.4478	1455.2532	1487.3747	1513.4929	1561.1609	1627.6529	1648.883	1666.6377	3042.2642	3051.7704	3088.3407	3104.0833	3246.928	3481.2991	3507.5085	3585.6478	3606.5352
NC1=CN2CCC2=C1N	Nc1cn2CCc2c1N	
InChI=1S/C6H9N3/c7-4-3-9-2-1-5(9)6(4)8/h3H,1-2,7-8H2	InChI=1S/C6H9N3/c7-4-3-9-2-1-5(9)6(4)8/h3H,1-2,7-8H2
