18
gdb 27049	2.94823	1.22001	0.94156	3.2375	80.84	-0.2011	-0.0121	0.189	1241.528	0.147377	-402.003363	-401.994311	-401.993367	-402.038011	32.555	
C	 0.13183511	 1.4785180641	-0.1538378204	-0.517107
C	 0.0682945912	-0.0140930056	-0.1036365675	 0.229587
C	-0.0223798986	-0.9573316202	-1.1148064316	 0.182862
C	-0.0204167596	-0.6644417385	-2.5938931026	-0.386212
C	 1.3697704381	-0.2175607572	-3.0049856086	 0.163636
O	 1.6585799279	 0.9024806748	-3.3465701934	-0.251427
C	-0.0757230519	-2.2426316469	-0.4974513835	-0.248383
C	-0.0284953591	-2.0535203793	 0.8611404321	-0.086229
N	 0.0569251305	-0.70139911	 1.0854545889	-0.284838
H	 0.8905542229	 1.8728994428	 0.5324124873	 0.124395
H	 0.3961757441	 1.8145635149	-1.1585895216	 0.163434
H	-0.8255384968	 1.9439255425	 0.1150447675	 0.128247
H	-0.2765216265	-1.5763570431	-3.1459857157	 0.115747
H	-0.7325007	 0.1187097212	-2.8706569904	 0.118451
H	 2.1469178897	-1.0106956157	-2.9186326361	 0.078811
H	-0.1480765037	-3.1927118383	-1.0054738066	 0.09209
H	-0.0491307662	-2.7542600494	 1.6798633352	 0.118715
H	 0.106326338	-0.2689921861	 1.991887807	 0.258222
58.7967	70.6286	100.1026	162.6837	234.5129	243.1442	354.7832	389.6083	481.9786	498.6764	632.8958	639.275	684.3922	700.7226	718.1673	821.7956	857.5595	916.3862	981.1942	999.4493	1054.9906	1067.2738	1086.7277	1116.3397	1161.0291	1221.7678	1265.4005	1283.6792	1318.0418	1418.1103	1420.1778	1437.7153	1464.4913	1473.7383	1491.7789	1496.002	1521.786	1620.0927	1818.1276	2875.8402	3015.5965	3038.0318	3065.6622	3095.2628	3131.1735	3240.6563	3271.1486	3673.7783
CC1=C(CC=O)C=CN1	Cc1c(CC=O)cc[nH]1	
InChI=1S/C7H9NO/c1-6-7(3-5-9)2-4-8-6/h2,4-5,8H,3H2,1H3	InChI=1S/C7H9NO/c1-6-7(3-5-9)2-4-8-6/h2,4-5,8H,3H2,1H3
