12
gdb 132830	3.0267	1.51365	1.00903	2.6693	70.56	-0.2848	-0.0826	0.2021	1046.66	0.079239	-439.699086	-439.692335	-439.691391	-439.730561	24.972	
F	 0.0042217591	 0.0346528401	 0.0040280052	-0.042513
C	-0.0104782841	 1.3602842758	 0.0108932594	 0.183845
C	-1.2209037004	 2.0424972387	 0.0300004787	-0.077181
N	-1.2924344508	 3.3720561167	 0.0376228902	-0.255767
C	-0.147825556	 4.0626705675	 0.0262814608	 0.012551
C	 1.1072470009	 3.4679336693	 0.0070351491	-0.190343
C	 1.190730536	 2.0704546698	-0.0010849817	 0.051685
C	 2.4460728808	 1.3895595721	-0.0207730248	 0.22934
N	 3.4713530827	 0.8545204049	-0.0367484604	-0.32194
H	-2.1492887015	 1.4783949021	 0.0391799836	 0.140871
H	-0.2383175953	 5.144747641	 0.032903908	 0.130415
H	 2.0106179686	 4.0652541018	-0.0016520281	 0.139036
131.8012	145.4249	246.0022	362.2963	403.9433	462.9117	501.5996	565.2621	622.3926	625.9013	747.9073	784.1301	860.2401	864.5634	952.9505	992.9922	1078.2434	1183.7087	1230.7157	1267.1158	1299.4714	1323.3509	1453.9046	1520.4407	1598.2044	1631.0402	2355.3443	3175.0456	3178.6651	3216.5254
FC1=CN=CC=C1C#N	Fc1cnccc1C#N	
InChI=1S/C6H3FN2/c7-6-4-9-2-1-5(6)3-8/h1-2,4H	InChI=1S/C6H3FN2/c7-6-4-9-2-1-5(6)3-8/h1-2,4H
