21
gdb 69367	4.77932	0.93932	0.87287	1.7128	83.6	-0.2407	0.0921	0.3328	1411.1224	0.18177	-387.046946	-387.038198	-387.037254	-387.080476	33.753	
C	 0.169865697	 1.559024193	 0.0335810685	-0.500446
C	-0.063339541	 0.086890525	 0.1277578268	 0.426497
C	-1.376639223	-0.6929063208	-0.0625718185	-0.323332
C	-0.8133990701	-1.799614785	 0.9108839712	-0.013005
C	-0.6668246905	-3.2064948813	 0.4003674243	 0.030628
C	-0.5519176199	-4.3618372511	 1.3645970424	-0.274845
C	-1.8010041087	-4.1918591547	 0.5350368774	-0.273192
C	 0.4710372578	-0.9554188461	 1.0227753203	-0.061806
O	 0.9864199843	-0.7957857106	-0.3081815335	-0.289751
H	 1.1797765768	 1.8086098092	 0.3698561701	 0.133063
H	 0.0602856547	 1.9048718264	-1.0007691073	 0.129837
H	-0.5519794421	 2.1072509627	 0.647780609	 0.122184
H	-2.2541601882	-0.1830441327	 0.3431808422	 0.100103
H	-1.5789870682	-1.0069662559	-1.0897545558	 0.105071
H	-1.3682284085	-1.7912570594	 1.8556420963	 0.067418
H	-0.0723990905	-3.2764326724	-0.5054938103	 0.095121
H	 0.1247056558	-5.1729190008	 1.1193016813	 0.11169
H	-0.6174213735	-4.1471472117	 2.426688087	 0.105854
H	-2.7026135322	-3.8616843688	 1.0414780567	 0.106391
H	-1.9801331763	-4.8877232437	-0.2771869562	 0.110169
H	 1.1883696064	-0.9015360812	 1.8353174779	 0.092353
77.5556	100.8421	150.5557	202.0205	287.0779	294.4309	309.4195	405.7078	434.935	555.0135	657.6612	720.6595	765.9774	808.6379	830.1145	864.6302	890.7054	911.6352	924.2984	943.22	974.6865	1007.6866	1015.4943	1052.1169	1056.6659	1065.5543	1077.1386	1147.7731	1150.8719	1193.7981	1198.7133	1212.041	1220.7676	1235.9291	1259.3191	1274.6983	1304.1455	1403.5163	1425.0903	1457.2078	1470.2857	1478.3125	1487.0288	1498.0957	1506.8227	3032.3851	3045.4586	3061.3862	3093.6593	3117.528	3119.8887	3125.9008	3130.9137	3158.4211	3170.1462	3203.8538	3219.4133
CC12CC(C3CC3)C1O2	C[C@]12C[C@@H](C3CC3)[C@H]1O2	
InChI=1S/C8H12O/c1-8-4-6(5-2-3-5)7(8)9-8/h5-7H,2-4H2,1H3	InChI=1S/C8H12O/c1-8-4-6(5-2-3-5)7(8)9-8/h5-7H,2-4H2,1H3/t6-,7+,8-/m0/s1
