17
gdb 48280	2.72876	0.97494	0.7977	2.488	70.	-0.2586	-0.0506	0.208	1414.2971	0.132254	-458.950954	-458.941494	-458.94055	-458.986854	32.167	
O	-0.4817173839	 0.5859589245	-0.2966727493	-0.237963
C	 0.4796018211	 0.9374640089	 0.3358931027	 0.149935
C	 1.4105036913	 2.0680716396	-0.0970370674	-0.164454
C	 0.9334753646	 2.8165372988	-1.3469890681	-0.264872
C	 1.1184888205	 2.0024521856	-2.606655544	 0.087505
C	 1.6493686164	 2.5911898369	-3.8407505584	-0.178104
O	 2.4794471857	 1.7852030614	-3.001208762	-0.240442
C	 1.6630338571	 2.9771559927	 1.1056509657	 0.130625
O	 1.9857525837	 2.5714118336	 2.1908843766	-0.242322
H	 0.7573942943	 0.4673580468	 1.2999635453	 0.120464
H	 2.3826416982	 1.5906935056	-0.3000005238	 0.159588
H	-0.1251878429	 3.0781213402	-1.238749975	 0.125425
H	 1.5003948409	 3.7500874575	-1.4391900186	 0.105598
H	 0.4860990454	 1.1202315889	-2.6863277846	 0.12048
H	 1.3940173004	 2.1535200652	-4.8045061944	 0.120747
H	 1.8995264714	 3.6514067961	-3.865476839	 0.113728
H	 1.5178600157	 4.0634252878	 0.9096380246	 0.094061
57.429	62.7396	82.0561	122.8767	147.7394	209.5628	279.0121	337.1128	389.7914	459.6413	552.3175	660.1565	792.7913	824.6993	861.7853	878.236	914.6146	961.739	1014.5453	1068.5125	1108.2892	1124.4501	1141.6575	1163.0026	1179.8829	1220.867	1231.124	1291.7987	1306.3745	1351.7504	1407.9119	1419.35	1445.7475	1464.5251	1530.5603	1807.554	1838.4386	2879.2792	2946.8555	3002.8605	3036.4946	3083.0074	3083.9816	3138.7066	3170.8657
O=CC(CC1CO1)C=O	O=CC(C[C@H]1CO1)C=O	
InChI=1S/C6H8O3/c7-2-5(3-8)1-6-4-9-6/h2-3,5-6H,1,4H2	InChI=1S/C6H8O3/c7-2-5(3-8)1-6-4-9-6/h2-3,5-6H,1,4H2/t6-/m0/s1
