20
gdb 22786	2.58696	1.10251	0.87281	1.0003	79.69	-0.2442	-0.0009	0.2433	1398.0515	0.168178	-440.233791	-440.223729	-440.222785	-440.269101	36.273	
C	 0.3323775053	 1.4301544471	 0.1597170605	-0.384942
C	 0.05709222	-0.070221988	 0.0276068413	-0.186485
C	 0.4888937055	-0.6145269072	-1.3266609007	 0.0603
O	 1.9259141119	-0.5244110261	-1.5521473971	-0.322396
C	 2.0604017262	-1.9559362347	-1.7829160599	 0.066766
C	 3.0504983284	-2.6292442385	-0.8487769846	-0.399702
C	 0.5809298447	-2.1104988368	-1.5091596819	 0.326391
N	-0.2814361461	-3.0283865142	-1.4234716368	-0.238064
O	 0.2951333266	-4.2893271612	-1.6709466086	-0.393303
H	 1.3963795176	 1.6377553966	 0.0155722644	 0.138
H	-0.2266252406	 2.0037581268	-0.5879033453	 0.114939
H	 0.0427780368	 1.7968857617	 1.1486832817	 0.113992
H	 0.5829516947	-0.6234140402	 0.8139565968	 0.10137
H	-1.0123367542	-0.2821958913	 0.1492234332	 0.110558
H	-0.0586987246	-0.1051262398	-2.1337115448	 0.093442
H	 2.3247915946	-2.1577550997	-2.8309248988	 0.100232
H	 2.7810377881	-2.4573770116	 0.1966878505	 0.123051
H	 3.0642803062	-3.7063473341	-1.0364223758	 0.138003
H	 4.0538068205	-2.2272641491	-1.019662814	 0.128244
H	-0.4582027916	-4.8812062599	-1.5707271603	 0.309603
66.8948	90.657	111.0786	155.5107	204.6529	223.9561	259.7545	278.7676	341.9762	376.2061	407.3064	461.6847	570.7676	613.4087	715.5302	777.1663	834.6314	877.2361	902.3795	956.0608	978.052	1031.9748	1067.4237	1090.0443	1096.5122	1114.5664	1153.8332	1181.8614	1259.6957	1279.35	1292.952	1332.9427	1359.9975	1392.4367	1399.1929	1408.1413	1415.8707	1474.0732	1484.0114	1492.1361	1497.2357	1508.581	1810.3546	2992.2512	3003.0786	3033.4852	3037.2719	3043.9841	3072.7082	3105.4223	3119.6144	3120.0863	3129.0368	3817.7878
CCC1OC(C)C1=NO	CC[C@H]1O[C@@H](C)C1=NO	
InChI=1S/C6H11NO2/c1-3-5-6(7-8)4(2)9-5/h4-5,8H,3H2,1-2H3	InChI=1S/C6H11NO2/c1-3-5-6(7-8)4(2)9-5/h4-5,8H,3H2,1-2H3/t4-,5+/m0/s1
