17
gdb 51200	3.9902	1.17398	1.05564	2.1183	75.31	-0.2572	0.014	0.2712	1154.3921	0.136091	-417.902059	-417.894468	-417.893524	-417.935153	28.54	
N	-0.1344481594	 1.2743740662	 0.0363992028	-0.439071
C	-0.0592336237	 0.019337738	-0.0520766493	 0.105771
O	-1.1588667154	-0.7376071769	 0.1730555541	-0.236921
C	-0.9916398569	-2.1244826053	 0.1111780333	 0.37903
C	-0.2833787735	-3.0850879681	 1.0565836383	-0.242935
N	-0.9029763804	-4.0358112312	 0.034478229	-0.152716
C	-2.1565828744	-3.1220150584	-0.0706346759	-0.050056
C	-2.0773796956	-3.1191554032	-1.6010961781	-0.264111
C	-0.6275376138	-3.0322397503	-1.1112917455	-0.064066
H	 0.770726765	 1.6922900228	-0.1700592337	 0.231798
H	 0.8310262252	-0.5687811791	-0.3087876322	 0.090121
H	 0.8105847498	-3.1067862182	 1.0636819901	 0.106929
H	-0.6871517752	-3.2060885083	 2.0658201686	 0.115554
H	-3.0038766092	-3.2740278769	 0.5984329846	 0.096691
H	-2.3604265139	-4.0493105249	-2.0986552195	 0.115472
H	-2.4791987507	-2.2416401424	-2.1103737835	 0.11936
H	 0.3124166223	-3.076983334	-1.6632382034	 0.08915
45.9333	86.8758	160.827	282.6559	364.7978	437.1523	469.6186	483.3792	708.1701	746.5642	805.927	826.8794	866.8715	873.8549	892.4119	929.5115	954.4418	1009.8037	1015.5953	1045.6978	1051.9853	1076.3975	1096.634	1125.897	1141.7776	1148.4134	1202.4546	1205.8394	1226.8924	1234.3232	1269.3617	1282.4557	1336.5038	1419.4001	1488.3628	1516.9387	1747.3281	3037.8372	3049.0556	3072.6842	3108.2155	3113.8588	3120.5976	3141.6757	3515.2391
N=COC12CN3C1CC23	[NH][CH]O[C@@]12CN3[C@@H]1C[C@@H]23	
InChI=1S/C6H8N2O/c7-3-9-6-2-8-4(6)1-5(6)8/h3-5,7H,1-2H2	InChI=1S/C6H8N2O/c7-3-9-6-2-8-4(6)1-5(6)8/h3-5,7H,1-2H2/t4-,5+,6+
