20
gdb 94652	3.68801	0.88753	0.77334	4.8184	77.64	-0.2459	0.0309	0.2768	1504.8851	0.169926	-440.259751	-440.250035	-440.24909	-440.296042	33.982	
C	-0.1479249	 1.4021274247	-0.386675436	-0.414776
C	 0.038758205	-0.046234164	 0.0482157431	-0.050851
C	 1.4115036665	-0.7055619868	-0.2124659647	-0.078008
O	 1.5780896263	-1.0333267833	 1.1837368349	-0.294011
C	 0.3332747906	-0.3846527653	 1.5381328691	 0.125872
C	 0.5454831438	 0.7569979655	 2.5191825881	-0.109341
O	 0.8339456071	 0.2718176967	 3.8274325892	-0.187949
C	 2.1140737188	-0.0855646768	 4.0787364689	 0.131817
N	 2.4133331447	-0.5689895587	 5.2051132681	-0.443378
H	 0.6721786909	 2.0434880833	-0.0485038271	 0.122065
H	-0.1839926253	 1.4666766822	-1.4793248662	 0.124469
H	-1.0847785384	 1.8202154604	-0.0041166907	 0.125552
H	-0.7871444723	-0.6510027402	-0.3344398931	 0.090454
H	 1.4105104614	-1.6012201178	-0.8441024481	 0.107996
H	 2.1933872214	-0.0213481915	-0.568944871	 0.099229
H	-0.3623624738	-1.1022526044	 1.9911047415	 0.09524
H	 1.3465421329	 1.4215450206	 2.1722430387	 0.107751
H	-0.3725506564	 1.3443293748	 2.6180641263	 0.121851
H	 2.7912514514	 0.0916272113	 3.2358141272	 0.099117
H	 3.4107905454	-0.7696120907	 5.2371350018	 0.226901
39.5312	55.8434	70.9993	125.1952	171.3716	236.0064	280.0901	328.541	364.9175	442.2202	475.1689	645.0344	727.3443	818.245	851.9696	883.1028	912.0954	925.2393	975.0944	1007.3743	1022.5706	1037.2594	1073.0079	1132.7488	1139.8774	1152.0219	1161.7475	1187.5724	1245.927	1266.2403	1289.4996	1321.9552	1342.8931	1373.7226	1388.7435	1412.0295	1416.5487	1426.031	1483.1718	1498.4282	1501.3252	1527.4826	1743.4306	3007.0984	3022.1742	3032.3352	3035.6785	3054.5984	3062.9848	3075.6268	3093.8105	3099.5029	3108.6772	3516.6549
CC1COC1COC=N	C[C@H]1CO[C@H]1CO[CH][NH]	
InChI=1S/C6H11NO2/c1-5-2-9-6(5)3-8-4-7/h4-7H,2-3H2,1H3	InChI=1S/C6H11NO2/c1-5-2-9-6(5)3-8-4-7/h4-7H,2-3H2,1H3/t5-,6-/m0/s1
