18
gdb 49573	2.44149	1.62114	1.13727	4.1413	78.65	-0.2274	0.0235	0.2509	1098.155	0.147454	-401.912916	-401.904971	-401.904026	-401.945664	30.535	
O	 0.0613915034	-0.0174245162	-0.1669452289	-0.331072
C	 0.0753238244	 1.1942262263	-0.0970600383	 0.125734
N	 1.1749023483	 1.9387942949	 0.1773272614	-0.100084
C	 2.5745682973	 1.5432476539	 0.1481992393	 0.006665
C	 3.2169341155	 1.9774722228	-1.138526397	-0.292843
C	 2.9761973945	 3.0013368671	-0.0515965617	-0.184485
C	 1.501313832	 3.3573823844	 0.0209908884	 0.389063
C	 0.7191450471	 4.3945285426	-0.7224273294	-0.329068
C	 0.8743880352	 4.4777139773	 0.7888903437	-0.331469
H	-0.8337447691	 1.8204956541	-0.2064498391	 0.065141
H	 2.9565967869	 0.7812816746	 0.8134988513	 0.124488
H	 4.2530392205	 1.6767774076	-1.2595185247	 0.122907
H	 2.6347831899	 1.9966372264	-2.0549914375	 0.123706
H	 3.7674097558	 3.5574614105	 0.4313683732	 0.107942
H	 1.2689017558	 5.0968150369	-1.3403959215	 0.126012
H	-0.2562152702	 4.1252142955	-1.1131267296	 0.126658
H	 0.0083825135	 4.246591255	 1.3997483629	 0.127483
H	 1.5263525393	 5.2415453963	 1.2001525274	 0.123223
67.6448	151.8471	166.8166	254.7074	283.7946	309.3373	488.6998	500.9823	539.3456	584.0157	757.5797	764.9505	802.2069	847.3046	889.937	919.5581	935.3931	948.4452	975.8268	1019.236	1026.5274	1046.4414	1052.902	1058.9124	1075.6735	1080.3132	1135.8547	1182.1236	1186.8746	1225.6286	1271.7299	1323.636	1397.2353	1403.3598	1443.0166	1457.5439	1476.6388	1505.2283	1788.3658	2919.7799	3121.8875	3129.4891	3132.2683	3208.9422	3209.7612	3210.7626	3221.3265	3224.8816
O=CN1C2CC2C11CC1	O=CN1[C@H]2C[C@H]2C21CC2	
InChI=1S/C7H9NO/c9-4-8-6-3-5(6)7(8)1-2-7/h4-6H,1-3H2	InChI=1S/C7H9NO/c9-4-8-6-3-5(6)7(8)1-2-7/h4-6H,1-3H2/t5-,6+/m1/s1
