20
gdb 85685	2.41687	1.37496	1.06109	4.1971	83.55	-0.283	0.0284	0.3114	1207.9483	0.170957	-366.011641	-366.002763	-366.001819	-366.045297	33.782	
C	-1.0066518599	 1.0705739086	-0.0470303532	-0.41479
C	-0.0438174258	-0.1039379904	-0.1164618913	-0.042137
C	 1.3042666752	 0.0970008435	-0.8695218877	-0.248053
C	 2.0345320559	-0.6926135066	 0.2659353223	-0.226223
C	 3.2951291715	-0.1697501087	 0.7631170387	 0.281918
N	 4.2837672108	 0.261687723	 1.1809771867	-0.339901
C	 0.7692605982	-0.4942839522	 1.1331385482	 0.348299
C	 0.7411916791	 0.1868799275	 2.4696085038	-0.321818
C	 0.3601961254	-1.2713503286	 2.3440432671	-0.32849
H	-0.5070978027	 1.9688584788	 0.3302521014	 0.122799
H	-1.4103613918	 1.3008636164	-1.0387638156	 0.120406
H	-1.8559813973	 0.8551144577	 0.6110615151	 0.118857
H	-0.5636274125	-0.9861218124	-0.5102258617	 0.078629
H	 1.3942013928	-0.3143321709	-1.8760629234	 0.113538
H	 1.6100305717	 1.1456834977	-0.8807651124	 0.12415
H	 2.1690251275	-1.7445368806	-0.0065790166	 0.120358
H	 1.6905638311	 0.4305600287	 2.935505919	 0.138393
H	-0.0486714582	 0.906599511	 2.6567207772	 0.117511
H	-0.6874330563	-1.5383640345	 2.4449641368	 0.115762
H	 1.0491391553	-2.0146673683	 2.7329758654	 0.120794
57.6728	126.9519	190.3463	214.8839	226.9844	267.383	345.7063	358.626	468.0979	505.6899	541.682	574.5293	696.4301	765.8122	799.1645	873.5285	886.6798	924.2143	930.9625	965.6524	979.4365	1033.5338	1054.836	1085.965	1090.4979	1093.9315	1130.2353	1170.574	1190.4274	1214.3958	1234.0856	1266.6951	1283.9598	1338.7825	1361.7085	1386.7889	1412.0011	1464.3387	1487.5126	1494.3165	1498.7855	1506.6089	2349.7624	3025.3085	3028.8398	3055.9818	3073.8293	3093.9215	3103.0517	3122.1812	3131.6915	3134.0189	3202.3186	3220.1324
CC1CC(C#N)C11CC1	C[C@H]1C[C@@H](C#N)C21CC2	
InChI=1S/C8H11N/c1-6-4-7(5-9)8(6)2-3-8/h6-7H,2-4H2,1H3	InChI=1S/C8H11N/c1-6-4-7(5-9)8(6)2-3-8/h6-7H,2-4H2,1H3/t6-,7-/m0/s1
