14
gdb 29068	2.81052	1.69414	1.057	2.7801	80.26	-0.2347	-0.0856	0.1491	1041.2377	0.102977	-436.733346	-436.726467	-436.725522	-436.764834	26.32	
O	-0.0023394762	 1.3442019409	 0.0076925509	-0.383126
C	-0.0468166437	 0.0191757111	 0.0011061949	 0.275383
C	-1.2586926428	-0.6266690695	 0.0050826076	-0.181434
C	-1.49050887	-2.01313809	-0.0008419021	-0.058982
C	-0.5865791297	-3.0522693178	-0.011686658	-0.020845
N	 0.7628430772	-3.0359337261	-0.0193919477	-0.241437
C	 1.5530426955	-2.0028552504	-0.0186532376	-0.048429
C	 1.3067693664	-0.5703114788	-0.0100586034	 0.264619
O	 2.2431247507	 0.2432595246	-0.0115662568	-0.414353
H	 0.9702384864	 1.5320576094	 0.002762495	 0.317828
H	-2.1293572079	 0.0227606298	 0.0137256887	 0.126147
H	-2.5363868677	-2.3098017676	 0.0038086316	 0.115387
H	-1.0036392029	-4.0570287434	-0.0145967952	 0.115945
H	 2.6223761849	-2.2217450922	-0.0258820679	 0.133296
105.8283	163.4242	345.1614	362.9107	378.9859	399.4769	460.9499	538.146	632.95	697.2208	758.6352	773.1153	817.4248	837.3849	858.763	940.7629	976.8061	1005.2949	1009.7338	1109.5854	1247.984	1274.9187	1322.6164	1359.0988	1421.3187	1464.3484	1485.6549	1535.5968	1621.6691	1643.2005	1674.8652	3118.4417	3145.2434	3165.5734	3180.6885	3367.8465
OC1=CC=CN=CC1=O	Oc1cccncc1=O	
InChI=1S/C6H5NO2/c8-5-2-1-3-7-4-6(5)9/h1-4H,(H,8,9)	InChI=1S/C6H5NO2/c8-5-2-1-3-7-4-6(5)9/h1-4H,(H,8,9)
