14
gdb 127327	3.4997	1.78836	1.19266	7.1446	69.06	-0.2352	-0.0132	0.222	955.8018	0.103535	-429.031513	-429.024521	-429.023577	-429.063531	25.511	
C	-0.0026556495	 1.4555583102	 0.0192391352	-0.349279
N	-0.0321085773	 0.0048913485	 0.0010064002	-0.158196
C	-0.0248642511	-0.8283494919	-1.1158875043	-0.099799
C	 0.0234484714	-2.1313664085	-0.7199857546	-0.129155
N	 0.0550305682	-2.0865267555	 0.6671611748	 0.021438
N	 0.1004298621	-2.8920420726	 1.76393506	-0.174159
N	 0.1013891063	-2.070657	 2.7755283711	-0.104757
N	 0.0592464412	-0.7585026495	 2.4153990137	-0.36979
C	 0.0282099692	-0.8049712934	 1.0946352285	 0.559377
H	 1.0213236089	 1.8372112117	-0.0500229215	 0.153891
H	-0.5882522007	 1.8423602077	-0.8174040104	 0.148539
H	-0.4462818618	 1.8029701044	 0.9536872158	 0.178444
H	-0.0626355436	-0.416829074	-2.1111752551	 0.154561
H	 0.0286622469	-3.0465735871	-1.2833048135	 0.168884
60.3336	138.6347	234.5904	251.4938	354.9881	513.544	589.6112	623.4724	677.5388	709.1737	718.5848	769.2376	797.5417	862.3067	1007.8039	1034.4105	1100.1941	1105.6809	1138.7808	1154.6816	1227.1337	1259.5383	1316.5839	1329.6233	1401.4066	1456.852	1485.8209	1494.9242	1510.9874	1585.1908	1636.55	3044.0114	3116.4757	3151.1432	3275.1479	3312.5079
CN1C=CN2N=NN=C12	Cn1ccn2nnnc12	
InChI=1S/C4H5N5/c1-8-2-3-9-4(8)5-6-7-9/h2-3H,1H3	InChI=1S/C4H5N5/c1-8-2-3-9-4(8)5-6-7-9/h2-3H,1H3
