19
gdb 126690	3.13606	1.25889	0.97771	1.4899	78.54	-0.1902	0.0218	0.212	1238.4751	0.160871	-415.41142	-415.402235	-415.401291	-415.445914	32.842	
C	-0.0767250075	 1.4950345415	 0.0725529569	-0.382831
C	-0.0401852393	-0.0385703118	 0.028002891	-0.144469
N	-1.3493708365	-0.6760836752	 0.0294749095	-0.146808
C	-2.099428847	-0.7083272825	-1.2116621441	-0.34088
C	-2.0173059449	-0.7954618723	 1.218473895	 0.476171
N	-1.4559607825	-0.5070966801	 2.3945622421	-0.336452
N	-2.4581804596	-0.839820566	 3.2635636336	-0.191898
C	-3.5338648871	-1.2755136308	 2.5939062555	 0.023233
N	-3.3058980688	-1.2628229766	 1.2952280526	-0.349404
H	 0.9410039701	 1.8985960265	 0.0550262541	 0.111259
H	-0.6160221117	 1.9089399108	-0.7855850491	 0.113923
H	-0.5646668039	 1.8380734024	 0.9885072921	 0.13658
H	 0.4835858321	-0.3754636688	-0.8742372819	 0.094586
H	 0.5156141274	-0.4167391899	 0.8903214653	 0.131652
H	-1.4562448503	-1.0925778685	-2.010421056	 0.115411
H	-2.9577423579	-1.3696125762	-1.0967053397	 0.160523
H	-2.4704981937	 0.2821304985	-1.5177853254	 0.110413
H	-2.3196619939	-0.7220271397	 4.252358284	 0.276654
H	-4.4482541249	-1.5874804015	 3.0765451646	 0.142336
77.9413	78.2897	110.2743	145.4048	205.4839	259.199	302.2859	379.3625	418.7859	454.2113	537.5413	617.6431	657.4018	777.5394	790.691	848.8665	893.3163	969.5575	993.2275	1039.6991	1085.5795	1095.6046	1112.0831	1156.9262	1176.1163	1235.5455	1254.6774	1310.6939	1359.1776	1366.0605	1391.5874	1406.0852	1449.9464	1475.3494	1482.2612	1489.0278	1495.932	1505.2536	1508.9244	1545.1283	1623.0993	2982.0733	3035.5501	3037.8896	3065.8795	3089.7127	3107.2774	3125.9505	3153.5336	3253.6441	3681.0818
CCN(C)C1=NNC=N1	CCN(C)c1n[nH]cn1	
InChI=1S/C5H10N4/c1-3-9(2)5-6-4-7-8-5/h4H,3H2,1-2H3,(H,6,7,8)	InChI=1S/C5H10N4/c1-3-9(2)5-6-4-7-8-5/h4H,3H2,1-2H3,(H,6,7,8)
