15
gdb 34709	3.39097	1.70024	1.5102	1.8551	73.11	-0.2345	-0.0123	0.2222	890.062	0.113563	-379.57299	-379.566306	-379.565361	-379.603923	26.914	
C	 0.0642290707	-1.246313527	-0.0066765917	-0.431748
C	 0.0623742026	-0.0452541495	 0.0437739853	 0.333446
C	 0.0116619537	 1.4040623219	 0.0838028933	-0.158886
C	-0.2650413541	 2.1578410616	 1.3741651163	-0.107481
C	 1.0313904293	 2.3548464583	 2.2020935168	-0.007061
N	 2.1595489048	 1.4691297159	 1.9812135183	-0.184441
C	 2.2951268839	 1.4415669205	 0.7164385896	 0.018422
N	 1.3473780497	 2.2152261942	-0.0628644139	-0.199332
C	 0.7850867553	 3.1621456841	 0.978102591	-0.053112
H	 0.0751919825	-2.3081052856	-0.0379016179	 0.20496
H	-0.6371097803	 1.772983731	-0.7143830098	 0.128948
H	-1.2350898359	 2.3027202149	 1.8322505186	 0.108493
H	 0.8995129399	 2.760012494	 3.1968010376	 0.108823
H	 3.014291924	 0.8196288294	 0.195870446	 0.132163
H	 0.7801282839	 4.2343997762	 0.8298964804	 0.106806
125.3071	149.8779	317.1688	373.3112	497.3737	535.6428	554.5789	625.3395	676.8818	728.6473	777.7969	804.8903	821.3983	824.274	871.7374	881.324	925.4453	961.3003	986.6661	1009.5536	1032.9556	1058.8832	1064.8015	1081.8625	1130.0779	1201.0985	1233.8774	1284.2514	1316.7183	1346.3912	1371.1928	1655.6958	2232.774	3074.8902	3190.3854	3198.6395	3210.3092	3214.4827	3500.784
C#CC1C2C3N=CN1C23	C#C[C@H]1[C@H]2[C@H]3[N][CH]N1[C@@H]23	
InChI=1S/C7H6N2/c1-2-4-5-6-7(5)9(4)3-8-6/h1,3-7H	InChI=1S/C7H6N2/c1-2-4-5-6-7(5)9(4)3-8-6/h1,3-7H/t4-,5-,6+,7-/m0/s1
