14
gdb 75879	2.29755	1.92497	1.08201	5.5524	66.55	-0.2482	-0.0682	0.18	1022.6555	0.101675	-473.882398	-473.87489	-473.873946	-473.914481	28.466	
O	 0.2783843975	 1.2306942271	-0.5774112142	-0.41143
C	-0.0102382085	-0.0047976227	-0.0189808277	-0.073569
C	 0.7970988597	-0.2395637312	 1.2530561558	 0.387157
O	 1.7699869806	 0.4305948096	 1.527245913	-0.361536
N	 0.3683424819	-1.2989273933	 2.0270787503	-0.348097
C	-0.9074726607	-1.8336351108	 1.9179809616	 0.039453
C	-1.8209110819	-1.402580827	 1.0294531845	-0.233296
C	-1.5225326767	-0.2698142779	 0.1409498228	 0.340147
O	-2.3552784619	 0.3637641235	-0.4623439699	-0.31064
H	 1.0818124364	 1.5387622024	-0.130738227	 0.300642
H	 0.3075266876	-0.8397949283	-0.6839853646	 0.129041
H	 0.9262693358	-1.5019931305	 2.8444562279	 0.270731
H	-1.1218129345	-2.6182108107	 2.6345531118	 0.144929
H	-2.8218297452	-1.8134462301	 1.0237436057	 0.126469
90.408	154.4431	272.1843	290.5749	354.8558	407.5367	450.8128	493.5602	507.3625	567.9842	592.7226	664.3797	675.2477	784.3439	839.0294	907.856	931.1547	979.0163	1067.5614	1128.8538	1179.825	1212.1905	1222.4057	1280.478	1375.8007	1407.658	1416.3622	1473.9331	1673.9973	1786.6195	1819.7785	2862.8996	3202.0937	3228.8518	3611.1062	3716.2417
OC1C(=O)NC=CC1=O	O[C@H]1C(=O)NC=CC1=O	
InChI=1S/C5H5NO3/c7-3-1-2-6-5(9)4(3)8/h1-2,4,8H,(H,6,9)	InChI=1S/C5H5NO3/c7-3-1-2-6-5(9)4(3)8/h1-2,4,8H,(H,6,9)/t4-/m1/s1
