17
gdb 34147	2.72343	1.77068	1.40499	4.3193	76.83	-0.2557	0.0077	0.2634	958.0938	0.138762	-380.829185	-380.822349	-380.821405	-380.860383	27.383	
N	 0.0049616714	-1.1076998379	-0.0461607613	-0.349307
C	-0.0196058616	 0.0473443939	 0.003129135	 0.170258
C	-0.0162639577	 1.4890580905	 0.0635139607	 0.23719
C	-0.6685242835	 2.4188266269	 1.1064743698	-0.27354
C	-0.0670951084	 3.3131502017	 0.007906201	-0.047232
C	 1.2271168684	 2.4426358266	-0.0357029883	-0.04386
C	 1.7158807609	 2.4032692923	-1.4753560018	-0.265375
C	 0.3257161991	 2.3414941105	-2.1680992568	-0.176239
N	-0.6402354035	 2.3537955865	-1.0410973795	-0.143652
H	-1.7564757491	 2.3786351674	 1.1530132555	 0.126947
H	-0.1977401431	 2.450999709	 2.0892828661	 0.113162
H	-0.1525558169	 4.3926026615	-0.116332394	 0.094986
H	 1.9510417677	 2.4749312757	 0.7804799399	 0.085937
H	 2.2911454258	 3.2954727666	-1.7394046381	 0.109628
H	 2.3376257287	 1.5275289432	-1.6814340358	 0.120621
H	 0.1238589541	 3.2012273669	-2.8124468481	 0.114365
H	 0.1776222476	 1.4325199888	-2.7565998144	 0.126112
126.6629	153.5926	262.6539	359.0129	425.2555	523.5416	536.3655	554.8426	706.8102	724.9787	771.5682	827.135	845.2272	853.9576	927.7618	936.6072	982.0345	992.4339	1010.1503	1031.053	1044.9086	1080.9276	1108.526	1146.8808	1183.7264	1201.0894	1216.2398	1245.1741	1253.9111	1269.1257	1274.9567	1316.8631	1344.5475	1489.1679	1498.8842	1507.2336	2350.513	3056.9062	3068.406	3089.3148	3096.5932	3106.0677	3118.2805	3122.9339	3166.4508
N#CC12CC3C1CCN23	N#C[C@@]12C[C@H]3[C@@H]1CCN23	
InChI=1S/C7H8N2/c8-4-7-3-6-5(7)1-2-9(6)7/h5-6H,1-3H2	InChI=1S/C7H8N2/c8-4-7-3-6-5(7)1-2-9(6)7/h5-6H,1-3H2/t5-,6-,7-/m0/s1
