18
gdb 28312	3.05847	1.45786	1.01266	2.0668	81.49	-0.1811	0.0461	0.2271	1162.1669	0.148038	-401.949411	-401.94073	-401.939786	-401.982837	31.993	
C	 0.0499253712	 1.4919686385	 0.0538830675	-0.5313
C	 0.0235571563	-0.0048910195	 0.0195062345	-0.015549
C	-0.1007686849	-0.8692196101	-1.0453958145	 0.235476
C	 0.1421239066	-1.2688756856	-2.4914158668	-0.363268
C	 0.303704312	-2.7213088634	-1.9079700797	-0.166538
N	-0.0962057902	-2.1609767678	-0.6010603145	 0.005626
C	 0.0990120475	-2.2051792761	 0.7624881986	-0.24813
C	 0.1095302512	-0.8794999126	 1.1608648579	 0.266875
O	 0.1518676188	-0.4838169455	 2.4681561025	-0.445616
H	 0.9395877855	 1.8778817114	 0.5696181925	 0.120272
H	 0.0622073588	 1.9055478731	-0.9582181369	 0.12796
H	-0.8273213588	 1.9175280477	 0.5609993735	 0.122107
H	-0.6938019017	-1.1371815582	-3.18424663	 0.118032
H	 1.0501266632	-0.870713388	-2.9517591315	 0.12099
H	-0.3696151885	-3.4953441146	-2.2871669844	 0.11802
H	 1.3350158179	-3.0865277684	-1.9279715121	 0.12505
H	 0.0899082993	-3.1089402961	 1.3477006959	 0.115497
H	 0.1349652956	 0.477357105	 2.4941398275	 0.294494
85.8774	106.8725	170.4223	196.7867	222.109	271.5755	323.0545	327.3407	556.4187	577.1448	629.6661	649.0982	657.1375	710.9162	804.5061	826.3666	855.2776	924.1494	1033.2658	1051.9511	1060.1728	1103.0936	1131.7793	1144.3152	1176.4337	1190.0652	1235.4549	1262.8399	1283.6899	1369.8757	1411.5122	1418.4285	1449.2312	1485.0385	1487.7124	1500.3669	1515.6674	1558.9892	1656.2931	3001.1508	3040.9946	3046.6452	3056.471	3092.45	3104.6637	3107.8351	3273.7459	3836.3401
CC1=C2CCN2C=C1O	Cc1c2CCn2cc1O	
InChI=1S/C7H9NO/c1-5-6-2-3-8(6)4-7(5)9/h4,9H,2-3H2,1H3	InChI=1S/C7H9NO/c1-5-6-2-3-8(6)4-7(5)9/h4,9H,2-3H2,1H3
