14
gdb 22878	2.34586	1.68367	1.02877	3.8729	70.04	-0.2365	-0.0737	0.1628	1083.0666	0.099788	-473.789881	-473.781635	-473.780691	-473.823029	29.974	
O	-0.038161893	 1.2867472488	 0.0376265363	-0.34287
N	 0.0038879255	-0.0882204206	 0.0353231549	-0.196692
C	-1.1456114668	-0.6435114035	 0.0327796216	 0.281104
C	-1.2511045099	-2.1570488086	 0.0448709554	-0.025169
O	-0.6256073879	-2.6891858881	 1.204665332	-0.415985
C	-2.7538172533	-2.3702126658	 0.0378172608	-0.092328
C	-3.4476257858	-1.227916581	 0.0072058828	-0.161396
C	-2.5358463169	-0.0529526651	-0.0061605981	 0.317095
O	-2.8500913682	 1.1130949187	-0.0519742226	-0.317413
H	 0.8972665144	 1.522253083	 0.0515424777	 0.316799
H	-0.7945447551	-2.5781086587	-0.8639291768	 0.100145
H	-0.5416567307	-3.6412236656	 1.0880649885	 0.289847
H	-3.1769885486	-3.3688303123	 0.0705215348	 0.118384
H	-4.5241347837	-1.1128966213	-0.0020480074	 0.128479
61.3235	169.7855	193.491	217.7427	229.6051	310.1412	349.9981	435.3725	513.7683	517.3279	560.5626	691.7546	716.5642	742.9094	777.247	877.3326	973.6648	1003.8723	1040.2391	1072.2085	1081.6263	1140.9675	1198.2729	1241.2843	1304.751	1355.0146	1401.1206	1441.3357	1649.807	1713.3006	1809.2082	2985.6383	3187.7957	3225.5475	3795.179	3816.2056
ON=C1C(O)C=CC1=O	ON=C1[C@@H](O)C=CC1=O	
InChI=1S/C5H5NO3/c7-3-1-2-4(8)5(3)6-9/h1-3,7,9H	InChI=1S/C5H5NO3/c7-3-1-2-4(8)5(3)6-9/h1-3,7,9H/t3-/m0/s1
