23
gdb 119064	2.02297	1.20719	0.94169	1.7341	83.35	-0.2416	0.0797	0.3213	1411.1597	0.202529	-425.389137	-425.378129	-425.377184	-425.425409	39.222	
C	-0.4221164287	 1.2336972362	 1.1501113459	-0.227198
O	-0.8029558525	-0.118333631	 1.0504692827	-0.225735
C	-0.5063974725	-0.6757601187	-0.2121116455	-0.131556
C	-0.9196681692	-2.1397933637	-0.2779806168	 0.372936
C	-1.1049451975	-2.9397609074	 0.9747707362	-0.343437
C	-2.2996775216	-2.6435754301	 0.0838942688	-0.045328
C	-3.4367266048	-1.7517590535	 0.5347996006	-0.423128
O	-0.2534639994	-2.8274892285	-1.3072496072	-0.278394
C	-0.7229055787	-2.5425386565	-2.6114519464	-0.248013
H	-0.6838729139	 1.5737858697	 2.1548005527	 0.12871
H	 0.661336257	 1.36119765	 1.0004924007	 0.108286
H	-0.9463697151	 1.8614887772	 0.4124842041	 0.105576
H	-1.0038749992	-0.0895379087	-1.004053978	 0.08479
H	 0.5782750875	-0.6318944078	-0.4069392904	 0.099782
H	-0.7032427449	-3.9465364945	 0.971292756	 0.113783
H	-1.0292353076	-2.4049713733	 1.9141049432	 0.125904
H	-2.607357608	-3.4896840268	-0.526488834	 0.085594
H	-3.0671553358	-0.9112017692	 1.1244599822	 0.138643
H	-3.9895818091	-1.3486466593	-0.3218360774	 0.106626
H	-4.1481860628	-2.3152058214	 1.149164609	 0.112544
H	-0.4910780819	-1.5153129855	-2.9270347302	 0.106343
H	-0.2148187414	-3.2337412195	-3.2885726697	 0.125668
H	-1.8082334699	-2.6946907581	-2.6947159467	 0.107605
73.9489	83.472	98.0763	162.1646	173.2226	198.2199	199.9935	233.0575	235.6352	319.7747	348.2701	419.2163	429.0686	478.931	543.3025	720.9409	798.3292	877.5857	897.0756	942.5546	1000.1779	1025.8609	1049.3818	1084.9372	1099.5398	1125.5068	1136.7377	1160.2304	1179.0953	1186.2678	1193.1834	1205.7533	1229.7519	1247.7232	1272.2625	1328.603	1396.2246	1417.2556	1425.1237	1468.5377	1476.8607	1484.5335	1489.2786	1494.4545	1501.4023	1503.846	1507.8669	1509.8796	1529.0821	2946.3245	2973.4571	2979.7105	2991.388	3018.4229	3028.1696	3041.3123	3080.0296	3112.6215	3116.6557	3126.0647	3142.634	3144.1623	3236.8288
COCC1(CC1C)OC	COC[C@]1(C[C@H]1C)OC	
InChI=1S/C7H14O2/c1-6-4-7(6,9-3)5-8-2/h6H,4-5H2,1-3H3	InChI=1S/C7H14O2/c1-6-4-7(6,9-3)5-8-2/h6H,4-5H2,1-3H3/t6-,7+/m1/s1
