17
gdb 91152	2.29511	2.02986	1.3125	3.3317	73.62	-0.2416	-0.0503	0.1913	973.8693	0.137084	-421.84674	-421.839192	-421.838247	-421.879167	29.195	
O	 0.3902701118	 1.1331681086	-0.5062271512	-0.433061
C	 0.0792862424	-0.1522137218	-0.0312168902	 0.144523
C	 0.2330558773	-0.288717323	 1.5037710711	-0.250073
C	-1.2804612308	-0.7051165576	 1.6178971979	-0.077528
C	-2.1941126863	 0.3252875527	 2.2185660321	-0.058428
C	-2.8071189623	 1.082999796	 1.2970734285	-0.177261
C	-2.3648200275	 0.6979936247	-0.0633925775	 0.397821
O	-2.6072668109	 1.2619389217	-1.1100524816	-0.361378
C	-1.4443337385	-0.5094555753	 0.0923366001	-0.204886
H	-0.1681459076	 1.3121509798	-1.2730302333	 0.29854
H	 0.6308425017	-0.9253802385	-0.5832093897	 0.074221
H	 0.9397911855	-1.0544064956	 1.8276952408	 0.109122
H	 0.4772996832	 0.6591269635	 1.9862568895	 0.119595
H	-1.4405981928	-1.7062206747	 2.0236946476	 0.086349
H	-2.2943808493	 0.4493139324	 3.2925429614	 0.11819
H	-3.4843003185	 1.9083086566	 1.4759146381	 0.118397
H	-1.7803532074	-1.3477682795	-0.5191322836	 0.095858
51.1848	141.5979	223.2944	303.4812	369.763	398.168	427.1481	521.3285	594.5362	704.2548	722.0633	741.7651	790.8937	838.1979	855.8498	904.5397	952.3148	963.2921	998.218	1005.5382	1031.7995	1096.1327	1106.0546	1129.6488	1176.9454	1212.8941	1217.7186	1229.2826	1260.2135	1269.5855	1310.8897	1358.1865	1363.8104	1407.7465	1469.8765	1631.3869	1790.9503	3000.0273	3077.44	3084.5666	3108.768	3139.965	3181.7869	3226.7178	3783.0196
OC1CC2C=CC(=O)C12	O[C@H]1C[C@H]2C=CC(=O)[C@@H]12	
InChI=1S/C7H8O2/c8-5-2-1-4-3-6(9)7(4)5/h1-2,4,6-7,9H,3H2	InChI=1S/C7H8O2/c8-5-2-1-4-3-6(9)7(4)5/h1-2,4,6-7,9H,3H2/t4-,6+,7+/m1/s1
