18
gdb 102261	2.25013	1.1411	0.78407	5.3345	75.32	-0.2414	0.0056	0.247	1409.553	0.145748	-439.084926	-439.074842	-439.073897	-439.121096	36.276	
N	 0.0962753309	 1.0574563763	-0.4568118155	-0.511127
C	 0.1244515338	-0.1074615497	 0.2390238325	 0.41132
O	 1.1491551558	-0.4876522131	 0.7899457949	-0.370176
C	-1.2057240582	-0.8490230138	 0.3059128175	-0.31343
C	-1.1431630122	-2.3892474354	 0.099084605	-0.212081
C	-0.4980210765	-3.1756239509	 1.2812999296	-0.058802
O	 0.8991886763	-3.1504014109	 1.2825760848	-0.42584
C	-2.5017443825	-2.8747538228	-0.1304548328	 0.316705
C	-3.6272339426	-3.2712292203	-0.2789853181	-0.448534
H	 0.9371032241	 1.6109153598	-0.4955982532	 0.268954
H	-0.728912079	 1.3927238237	-0.9202636267	 0.268451
H	-1.6320542504	-0.6502148719	 1.2974884432	 0.147006
H	-1.9044862441	-0.4253288582	-0.4209018754	 0.112473
H	-0.5325494262	-2.6072748128	-0.7869039338	 0.120201
H	-0.9354832005	-2.7962165249	 2.2218527856	 0.081773
H	-0.7989116021	-4.2235535567	 1.1887123521	 0.112568
H	 1.171110343	-2.2151186443	 1.2709569539	 0.305223
H	-4.6139295597	-3.6351953739	-0.4257378535	 0.195316
26.5715	69.478	123.646	144.986	219.3342	243.4034	247.4143	299.5231	404.3384	422.1371	487.2049	516.0931	563.801	617.9069	633.9983	644.8433	681.8802	708.7367	851.9354	884.7677	908.115	1001.054	1051.4988	1079.8054	1112.0082	1119.6429	1199.1493	1259.7428	1282.3878	1302.7127	1345.7132	1389.6712	1419.9846	1464.6243	1492.4014	1508.0722	1621.0653	1765.359	2232.3166	2945.9766	3026.1835	3040.3694	3078.1742	3089.4638	3504.5104	3595.1025	3605.2402	3743.5689
NC(=O)CC(CO)C#C	NC(=O)C[C@@H](CO)C#C	
InChI=1S/C6H9NO2/c1-2-5(4-8)3-6(7)9/h1,5,8H,3-4H2,(H2,7,9)	InChI=1S/C6H9NO2/c1-2-5(4-8)3-6(7)9/h1,5,8H,3-4H2,(H2,7,9)/t5-/m0/s1
