17
gdb 25580	3.71757	1.13839	0.93102	2.8003	75.9	-0.1998	0.0146	0.2144	1231.4913	0.1386	-418.074074	-418.065969	-418.065025	-418.107221	30.136	
O	 0.9710182737	 1.2137344052	 1.5298726277	-0.34474
C	 0.444562975	 1.4915529829	 0.4643497042	 0.162922
N	 1.0592951778	 1.4414756679	-0.7362190956	-0.25103
C	 2.4673079083	 1.0368144669	-0.8786454765	-0.313869
C	 3.4592184417	 2.062622928	-0.4370330961	 0.306674
C	 4.4038641662	 2.7832479375	-1.1380187663	-0.233743
C	 5.0909660908	 3.6074583546	-0.205031809	-0.143806
C	 4.5409112021	 3.3655696838	 1.0344761376	-0.09183
N	 3.5610590208	 2.4233218895	 0.8846599284	-0.268108
H	-0.6137947442	 1.8049976565	 0.3884545189	 0.089375
H	 0.5680325006	 1.7935271855	-1.5421242519	 0.255262
H	 2.5862367777	 0.109713771	-0.3067439996	 0.140426
H	 2.6351122456	 0.8006071846	-1.9311808799	 0.124222
H	 4.5856323352	 2.715784762	-2.2006154199	 0.083959
H	 5.896587202	 4.293323355	-0.41730854	 0.089803
H	 4.7659037838	 3.7841580567	 2.0024448864	 0.114472
H	 2.931104813	 2.0673424324	 1.5904699015	 0.28001
78.7823	112.5504	133.0008	228.6984	256.4693	332.8427	420.5113	503.7234	605.9955	638.4738	689.1372	725.3629	732.0925	782.7996	809.0335	849.1905	900.0695	927.5757	983.8812	997.7368	1032.8022	1054.6849	1115.3596	1151.9763	1207.672	1262.0039	1280.6682	1319.4884	1383.284	1423.9716	1445.9907	1458.5106	1467.5981	1499.4816	1522.7183	1612.2708	1776.3387	2957.4097	3046.4259	3118.229	3235.4098	3250.0746	3269.579	3598.9834	3639.7278
O=CNCC1=CC=CN1	O=CNCc1ccc[nH]1	
InChI=1S/C6H8N2O/c9-5-7-4-6-2-1-3-8-6/h1-3,5,8H,4H2,(H,7,9)	InChI=1S/C6H8N2O/c9-5-7-4-6-2-1-3-8-6/h1-3,5,8H,4H2,(H,7,9)
