17
gdb 19430	4.0302	1.99324	1.65921	2.7173	68.56	-0.2247	0.0732	0.2979	824.2063	0.143711	-363.819107	-363.812515	-363.811571	-363.849642	26.465	
C	-0.1380196572	 1.482592491	 0.0374866285	-0.326625
C	 1.234494499	 0.8308752459	-0.0444548503	-0.342064
C	-0.0233343407	-0.0013073162	-0.0399672773	 0.505371
O	-0.3630869882	-0.7235821448	 1.1240298218	-0.298088
C	-0.3721391635	-2.1194067642	 0.8235209549	-0.088354
C	-0.6201807538	-2.2143758438	-0.6688720887	-0.051032
N	-1.7743135757	-1.3989336105	-1.0998362725	-0.335053
C	-0.4008293947	-0.854106182	-1.2104464946	-0.155335
H	-0.4364875967	 1.8967910813	 0.9938141496	 0.127069
H	-0.5155218182	 2.0172738343	-0.8272218718	 0.11498
H	 1.8033483754	 0.9263977774	-0.9642861464	 0.106159
H	 1.8291602023	 0.8137400228	 0.8618307348	 0.120901
H	 0.5934256723	-2.588990944	 1.0694690893	 0.091369
H	-1.1563877259	-2.5798913158	 1.4323254303	 0.114038
H	-0.3510963569	-3.1149597498	-1.2100775105	 0.093051
H	-2.0732158129	-1.7165482045	-2.0195222388	 0.230291
H	 0.0387642655	-0.6690283171	-2.1841555583	 0.093321
120.9999	215.9614	291.3446	337.6058	394.496	489.3069	570.5232	715.7176	762.2744	792.4412	819.5357	861.6234	869.9384	900.8739	908.6341	952.7187	975.3134	977.4458	1030.3054	1047.079	1070.6227	1072.9767	1100.0159	1126.4151	1156.4012	1187.874	1228.8214	1247.9043	1265.261	1304.7601	1382.3878	1393.5827	1440.149	1451.8096	1500.4541	1509.8503	2981.8072	3077.4709	3125.4777	3137.0842	3168.7721	3179.5874	3214.6215	3230.0605	3493.7021
C1CC11OCC2NC12	C1CC21OC[C@H]1N[C@@H]21	
InChI=1S/C6H9NO/c1-2-6(1)5-4(7-5)3-8-6/h4-5,7H,1-3H2	InChI=1S/C6H9NO/c1-2-6(1)5-4(7-5)3-8-6/h4-5,7H,1-3H2/t4-,5-/m1/s1
