21
gdb 122656	3.29981	1.04032	0.85975	2.1905	81.22	-0.2251	0.0107	0.2357	1397.859	0.181622	-424.217189	-424.207681	-424.206736	-424.252832	34.155	
C	 0.6360393389	 1.0960513991	 1.1822504371	-0.378246
C	-0.2246929152	-0.036833392	 0.6355006957	-0.03903
O	 0.5721208627	-1.0848377427	 0.0859656117	-0.253134
C	 0.5806942856	-2.3099638895	 0.7772692178	-0.078866
C	 1.5449375652	-2.3528402855	 1.9723204313	 0.066162
O	 1.0617580413	-1.5375091926	 3.0494482921	-0.273827
C	 0.9172600016	-2.308574443	 4.2400476297	-0.113727
C	 1.3212109683	-3.7025357307	 3.852159434	-0.095754
C	 1.6875793521	-3.7243845642	 2.576243953	-0.090346
H	 1.3228682644	 1.4575049157	 0.4108704389	 0.116441
H	 0.003146688	 1.9339510846	 1.4957715316	 0.102478
H	 1.2146671957	 0.7561408627	 2.0438460213	 0.139758
H	-0.8794462386	-0.4303558841	 1.4221983542	 0.096849
H	-0.8632870215	 0.3350793673	-0.1773611608	 0.092002
H	-0.426577378	-2.5842807301	 1.1273771955	 0.090797
H	 0.9035709609	-3.0658655869	 0.0499233631	 0.097112
H	 2.5115152648	-1.9494581108	 1.629152964	 0.090232
H	 1.556852199	-1.8935318545	 5.0354863752	 0.10728
H	-0.1216853355	-2.2526169069	 4.6005623245	 0.106761
H	 1.313707742	-4.5355444457	 4.5436254507	 0.109126
H	 2.0385284283	-4.5808772804	 2.0147933995	 0.107933
51.2723	63.6629	83.6662	102.2523	193.3894	250.62	330.9256	352.6718	403.9617	479.0121	495.3064	702.5941	763.4126	797.971	816.7207	837.0549	860.5001	937.1936	961.0365	998.7666	1009.7796	1020.5041	1045.5334	1083.7724	1106.9122	1116.4786	1132.7701	1148.9808	1198.4814	1207.5322	1274.9879	1297.2636	1334.4869	1347.7218	1365.2261	1389.3504	1393.9853	1409.4802	1422.3552	1472.5775	1487.458	1494.2052	1514.634	1521.9261	1690.8113	2969.8456	2975.0137	2985.5482	2991.5804	3006.1195	3038.0323	3050.472	3055.6901	3105.0894	3138.0474	3206.8479	3231.1389
CCOCC1OCC=C1	CCOC[C@H]1OCC=C1	
InChI=1S/C7H12O2/c1-2-8-6-7-4-3-5-9-7/h3-4,7H,2,5-6H2,1H3	InChI=1S/C7H12O2/c1-2-8-6-7-4-3-5-9-7/h3-4,7H,2,5-6H2,1H3/t7-/m0/s1
