17
gdb 87748	4.82437	0.88516	0.83916	5.395	74.44	-0.2375	0.0162	0.2537	1357.6571	0.135632	-417.969018	-417.960485	-417.959541	-418.002489	31.976	
O	-0.1188970101	 1.4286592575	 0.0771307853	-0.418291
C	-0.0713163362	 0.0337212518	 0.0425108607	 0.02281
C	-0.6163524098	-0.7813306688	 1.2055931624	-0.390478
C	-1.3805137697	-0.6768080005	-0.0795464235	 0.365249
C	-2.7193012205	 0.0013802338	-0.3588605736	-0.320586
C	-2.8140890779	-0.9748249375	-1.5744319967	-0.117241
N	-1.6996859944	-1.7744842651	-0.9989397781	-0.357316
C	-4.0633912972	-1.7119187208	-1.7618171903	 0.293193
N	-5.0608743003	-2.2757879804	-1.9124122955	-0.323407
H	 0.5117455355	 1.7368850355	 0.7368782393	 0.292313
H	 0.778888299	-0.3901115942	-0.4968649513	 0.086311
H	-0.128150647	-1.7219069384	 1.4407419068	 0.122901
H	-1.0073815147	-0.2362503586	 2.059420942	 0.121923
H	-3.4813812913	-0.1874858739	 0.3983263868	 0.133909
H	-2.6803217318	 1.0623879399	-0.6004773666	 0.141274
H	-2.5658381401	-0.4692038516	-2.5154665258	 0.120988
H	-0.9729265836	-2.0190373587	-1.6649940718	 0.22645
56.8918	121.5458	201.8322	209.6957	254.4639	296.3014	366.8108	440.5787	475.8545	504.3434	563.4804	588.3099	705.0798	786.6766	817.1334	888.3648	904.0514	949.0983	989.5011	996.3193	1025.6765	1046.2518	1087.9025	1101.1761	1130.6407	1173.9135	1212.167	1238.6086	1264.7076	1297.6404	1326.2257	1349.0552	1393.6659	1424.9591	1486.8134	1499.3742	2358.6227	3029.3862	3072.8649	3093.4743	3122.2178	3159.7269	3214.6248	3511.0949	3798.4023
OC1CC11CC(N1)C#N	O[C@H]1C[C@]21C[C@@H](N2)C#N	
InChI=1S/C6H8N2O/c7-3-4-1-6(8-4)2-5(6)9/h4-5,8-9H,1-2H2	InChI=1S/C6H8N2O/c7-3-4-1-6(8-4)2-5(6)9/h4-5,8-9H,1-2H2/t4-,5+,6+/m1/s1
