18
gdb 95732	3.08008	1.27265	0.96213	3.1106	70.1	-0.2599	0.0143	0.2741	1196.4741	0.148667	-476.214	-476.205648	-476.204703	-476.247012	31.607	
O	-0.121581155	 1.5196960319	-0.5185569851	-0.425787
C	 0.1640082905	 0.1742835548	-0.1629968902	 0.080802
C	-0.9914881314	-0.413987574	 0.6544757217	-0.107511
O	-0.7950993087	-1.7642143561	 1.011196673	-0.235354
C	-0.8941291995	-2.6848192903	-0.0603139153	-0.169808
C	 0.4084590838	-2.8893578085	-0.8128460866	 0.389714
N	 0.8972547069	-4.0534939813	-0.9075854104	-0.497944
O	 1.0419954511	-1.809291791	-1.351999692	-0.245546
C	 0.3752606832	-0.555244752	-1.4913822938	-0.096251
H	-0.2113796408	 2.0357050049	 0.2888858403	 0.293098
H	 1.0969440716	 0.0935085376	 0.4151087174	 0.09149
H	-1.0967899741	 0.1351487805	 1.5974575764	 0.102553
H	-1.9248003174	-0.2842341658	 0.0813043836	 0.098898
H	-1.1555068893	-3.6541115897	 0.3647156824	 0.145751
H	-1.6952099579	-2.3838161617	-0.7546538651	 0.105743
H	 1.7552253307	-4.0294519155	-1.4640177466	 0.220853
H	-0.5766036423	-0.6714014308	-2.0248928766	 0.114639
H	 1.0355686785	 0.0518785868	-2.113396303	 0.13466
73.4768	153.4422	235.8544	247.8098	284.2517	320.7161	336.8612	372.6972	451.6206	472.5445	522.4885	595.515	691.9768	813.9243	905.7292	917.5856	932.8477	967.921	1020.1316	1046.6203	1075.7569	1095.9545	1138.0347	1151.6628	1194.2634	1239.0681	1249.8251	1288.4363	1322.1304	1339.0858	1344.3267	1388.3377	1397.6201	1415.0603	1448.0292	1478.9113	1492.4491	1511.3321	1745.6054	2970.4732	2980.8777	2998.1934	3033.7458	3061.8504	3119.1322	3134.129	3456.3704	3822.5773
OC1COCC(=N)OC1	O[C@H]1COC[C]([NH])OC1	
InChI=1S/C5H9NO3/c6-5-3-8-1-4(7)2-9-5/h4,6-7H,1-3H2	InChI=1S/C5H9NO3/c6-5-3-8-1-4(7)2-9-5/h4,6-7H,1-3H2/t4-/m0/s1
