13
gdb 133353	3.26064	1.4347	0.99751	4.4302	66.62	-0.2295	-0.0482	0.1813	1068.6346	0.090704	-490.222353	-490.214988	-490.214044	-490.254138	28.165	
N	-0.0125965784	 1.3366216541	 0.1731449123	-0.56551
C	 0.031801794	-0.033280918	 0.0543526321	 0.521942
N	-1.1651925243	-0.6902359118	 0.060303956	-0.380757
H	-2.038778917	-0.1945865157	 0.1780136474	 0.270657
C	-1.2505806338	-2.0796669218	-0.0032206096	 0.275418
N	-2.3850112692	-2.6594069833	-0.0044802899	-0.550667
C	 0.0964291926	-2.6500604895	-0.0399986802	 0.275161
F	 0.1334569829	-3.9787522678	-0.0783179957	-0.063537
N	 1.1955148906	-2.0082117975	-0.0257885346	-0.239692
N	 1.1916007568	-0.6282229928	-0.0051867755	-0.320889
H	 0.8983144503	 1.7522284979	 0.0341197819	 0.278193
H	-0.7489978017	 1.8109843227	-0.3297908587	 0.261893
H	-2.2569669329	-3.6685278865	-0.0454875357	 0.237788
125.4863	157.2534	309.7423	329.9572	344.5116	401.0343	419.6963	493.7004	543.6954	586.1843	619.7449	634.7707	729.7514	743.1808	761.6744	800.9642	846.0052	1035.7475	1061.3826	1143.5624	1194.9052	1301.212	1324.0918	1408.8811	1540.6703	1594.7583	1632.0466	1656.8631	1726.6016	3522.5135	3561.9329	3594.273	3667.8135
NC1=[NH+]C(=N)C(F)=N[N-]1	NC1=NN=C([C@H](N1)[NH])F	
InChI=1S/C3H3FN5/c4-1-2(5)7-3(6)9-8-1/h(H3-,5,6,7,9)/q-1/p+1	InChI=1S/C3H5FN5/c4-1-2(5)7-3(6)9-8-1/h2,5H,(H3,6,7,9)/t2-/m0/s1
