22
gdb 58953	2.5916	1.32222	1.08025	2.2826	82.11	-0.2209	0.0697	0.2906	1237.4924	0.193037	-404.30635	-404.296608	-404.295663	-404.340611	36.895	
C	 0.6185315425	 0.98346171	-0.5910569669	-0.40909
C	-0.0365170837	-0.168911455	 0.178471248	 0.023195
O	-0.1567127468	-1.3318684579	-0.6374086279	-0.439194
C	 0.768299446	-0.5557060002	 1.388862024	 0.365335
C	 1.9898920904	-1.4794331037	 1.3477003235	-0.32331
C	 1.3885541702	-2.1711600809	 2.5939514434	-0.150638
N	 0.1592696449	-1.3001358578	 2.5758307436	-0.199204
C	 0.6117587869	 0.1068000681	 2.702484537	-0.035829
C	 1.726116124	 0.5848636588	 3.6053113908	-0.429135
H	 1.6231361825	 0.7019600265	-0.9218741241	 0.126663
H	 0.0284282748	 1.242290378	-1.4778227372	 0.104919
H	 0.6940183443	 1.8795609404	 0.0328081435	 0.119494
H	-1.0307961402	 0.1481057181	 0.5324695814	 0.071456
H	-0.6378751111	-1.0869913803	-1.4337970801	 0.281568
H	 1.9780709665	-2.1185734761	 0.4654714002	 0.12992
H	 2.9740701129	-1.0095066327	 1.4379149143	 0.093032
H	 1.0931334942	-3.2069247494	 2.4182635784	 0.113131
H	 1.9599667074	-2.1230206461	 3.5260396743	 0.098546
H	-0.2693037907	 0.745465905	 2.7614628748	 0.087498
H	 2.664569199	 0.0454687918	 3.4624062333	 0.123813
H	 1.9246711135	 1.6451042323	 3.4157938697	 0.120532
H	 1.4362034924	 0.485824971	 4.6572565658	 0.127301
66.2831	128.6829	164.2977	197.5249	240.1888	254.3073	281.5269	285.0382	314.5194	344.4238	487.8191	512.2304	567.3412	660.1048	724.3428	778.3013	806.0679	857.1966	893.9467	937.9729	966.5832	976.1566	1019.0616	1055.5237	1091.0071	1095.3776	1118.3484	1130.9163	1154.7393	1188.2029	1202.3155	1221.9529	1249.7972	1290.8037	1313.4462	1346.4181	1352.9133	1401.8105	1411.3262	1418.3658	1463.4972	1481.5204	1491.5923	1498.9697	1503.7206	1509.7495	1517.6772	2971.6225	3028.634	3036.7585	3050.5121	3057.8087	3093.8285	3095.8628	3105.9309	3110.5112	3114.4134	3128.7168	3142.5236	3822.3899
CC(O)C12CCN1C2C	C[C@@H](O)[C@]12CCN1[C@H]2C	
InChI=1S/C7H13NO/c1-5-7(6(2)9)3-4-8(5)7/h5-6,9H,3-4H2,1-2H3	InChI=1S/C7H13NO/c1-5-7(6(2)9)3-4-8(5)7/h5-6,9H,3-4H2,1-2H3/t5-,6+,7+,8?/m0/s1
