22
gdb 9549	2.63614	1.58136	1.48198	1.2452	77.75	-0.2514	0.0781	0.3296	1043.4311	0.198927	-350.201447	-350.192025	-350.191081	-350.234855	35.638	
C	 0.0773962628	 1.5367793178	-0.0559512037	-0.399688
C	-0.0396439677	 0.0180311156	 0.1179498617	-0.201982
C	-1.4775462023	-0.5300882455	 0.0541960321	 0.319551
C	-2.3786387345	 0.0847950278	 1.1225254719	-0.465682
C	-2.0435921222	-0.5458520548	-1.4062561232	-0.259383
C	-1.5980409985	-2.0260756735	-1.5500090664	-0.271139
C	-1.4911037321	-2.0903235808	-0.005280847	 0.107852
O	-0.3777520783	-2.7194655824	 0.5888399317	-0.433066
H	 1.1292406571	 1.8383429201	-0.0840115817	 0.110796
H	-0.3859621568	 1.8766773106	-0.9888086193	 0.112558
H	-0.3958968996	 2.0819893217	 0.7661616048	 0.116205
H	 0.566694737	-0.4778680762	-0.6482831451	 0.094895
H	 0.4019439471	-0.277578778	 1.0762734925	 0.105823
H	-2.509304362	 1.1616092695	 0.9746426382	 0.115224
H	-3.3748612106	-0.3702218968	 1.1015675878	 0.103901
H	-1.9623133296	-0.0663435379	 2.1256189208	 0.115966
H	-3.1314211215	-0.4339586084	-1.4263304932	 0.094794
H	-1.6122774518	 0.1700881113	-2.1095921342	 0.098191
H	-2.2835445484	-2.7214360522	-2.0411103017	 0.088604
H	-0.6114746162	-2.1170781347	-2.0118368482	 0.10707
H	-2.4287328716	-2.4696630196	 0.4289853198	 0.057063
H	-0.4701536402	-3.6700047432	 0.4717379924	 0.282448
102.7058	119.0862	186.9001	196.8395	218.8685	242.0384	277.8033	314.6339	355.6764	386.4456	467.1449	547.4644	601.6608	705.0232	777.2938	784.7607	870.6934	892.2184	936.6554	953.5529	991.7819	1019.402	1036.5819	1053.194	1112.1541	1142.9358	1159.5253	1186.0683	1210.3805	1221.6994	1250.4846	1264.2309	1296.7667	1318.4346	1347.3394	1369.1342	1407.3199	1411.8851	1427.54	1477.3674	1479.2501	1491.9832	1495.4986	1500.8883	1504.6377	1513.665	2976.2769	3023.1815	3035.8184	3038.7177	3054.7743	3060.8506	3069.3357	3087.7813	3095.9744	3098.8636	3101.942	3109.6182	3118.6077	3819.685
CCC1(C)CCC1O	CC[C@@]1(C)CC[C@H]1O	
InChI=1S/C7H14O/c1-3-7(2)5-4-6(7)8/h6,8H,3-5H2,1-2H3	InChI=1S/C7H14O/c1-3-7(2)5-4-6(7)8/h6,8H,3-5H2,1-2H3/t6-,7+/m1/s1
