21
gdb 77868	2.4115	1.41906	1.27091	1.6265	84.3	-0.218	0.0188	0.2368	1153.4746	0.1818	-387.097656	-387.088592	-387.087648	-387.130669	35.451	
C	 0.0261936061	 1.5035129852	 0.1124145279	-0.498219
C	 0.0317706549	 0.0080388767	 0.0355818398	 0.329047
C	 0.0908048603	-0.7507647047	-1.0694264103	-0.213343
C	 0.0355658037	-2.2308818619	-0.7621147765	-0.328281
C	 0.0106789784	-2.3026640403	 0.7712856849	 0.281593
C	-0.7958094947	-3.3922934711	 1.4345506057	-0.48707
C	 1.2269352673	-1.7339390384	 1.4513208059	 0.089344
O	 2.4391262239	-1.5156158952	 0.80085263	-0.430415
C	 0.0065364581	-0.8427655848	 1.2626296596	-0.242371
H	 0.8834422865	 1.8758599889	 0.6865074271	 0.13281
H	 0.0523860195	 1.9592294966	-0.8810450628	 0.123472
H	-0.8726462412	 1.8643818328	 0.6281183667	 0.128559
H	 0.1670728256	-0.3649561223	-2.0808018708	 0.088547
H	-0.8578600577	-2.6993192842	-1.1971716266	 0.105503
H	 0.8995335239	-2.772661052	-1.1711573868	 0.115258
H	-0.4235523033	-4.3855802405	 1.1562980251	 0.12025
H	-0.7461071955	-3.3169747897	 2.5258845566	 0.114051
H	-1.8526134984	-3.3403332309	 1.1463454388	 0.114647
H	 1.411742276	-2.0739093445	 2.4663448525	 0.09871
H	 2.257437973	-0.9662592239	 0.0261399748	 0.28127
H	-0.5483275263	-0.5152755559	 2.1371917885	 0.076638
125.5699	180.3381	195.2762	210.1141	234.4623	259.1332	286.2411	343.1746	389.8483	458.9067	525.9248	551.6006	630.0237	662.7253	729.1596	799.3243	818.8266	872.4351	929.5282	947.3933	970.6183	994.2384	1004.6616	1030.21	1064.4995	1085.4	1106.5171	1146.2843	1173.0669	1185.6577	1210.6254	1258.6009	1294.2431	1318.0519	1358.0841	1382.4367	1413.7387	1417.8544	1453.6651	1478.5315	1479.1931	1489.8333	1491.1836	1499.588	1694.2995	3007.3502	3018.4083	3020.5568	3034.1082	3068.3887	3076.838	3092.4942	3112.1649	3144.0284	3155.362	3184.6887	3735.3337
CC1=CCC2(C)C(O)C12	CC1=CC[C@@]2(C)[C@@H](O)[C@@H]12	
InChI=1S/C8H12O/c1-5-3-4-8(2)6(5)7(8)9/h3,6-7,9H,4H2,1-2H3	InChI=1S/C8H12O/c1-5-3-4-8(2)6(5)7(8)9/h3,6-7,9H,4H2,1-2H3/t6-,7+,8-/m1/s1
