17
gdb 33100	4.78443	0.88774	0.7564	1.859	72.61	-0.1875	0.0357	0.2231	1480.4775	0.135955	-455.175652	-455.166676	-455.165732	-455.210253	32.426	
C	-0.0077401941	 1.4842065364	-0.031603778	-0.389112
C	 0.0076222092	-0.032308524	 0.0110179234	-0.038615
O	 0.6607580635	-0.484700675	-1.1818165511	-0.284196
C	 0.7889059248	-1.8108641501	-1.3358032805	 0.359917
C	 1.3881837197	-2.4494591562	-2.3697080672	-0.199604
O	 1.2785169051	-3.8167639481	-2.1034776137	-0.183796
C	 0.6240532128	-3.876326232	-0.9364093658	 0.471273
N	 0.4321663775	-5.1204745451	-0.39124817	-0.585752
N	 0.2949991587	-2.7283003223	-0.418771284	-0.421863
H	 1.0103956019	 1.8816408314	-0.0715943757	 0.128009
H	-0.5508055087	 1.8424665759	-0.910781086	 0.127398
H	-0.4987415783	 1.8776661564	 0.8634568735	 0.1173
H	 0.5473275407	-0.4048684031	 0.8891579659	 0.114162
H	-1.0072549816	-0.4439585191	 0.0528885171	 0.112482
H	 1.8851437384	-2.1637688819	-3.2762731262	 0.137295
H	 0.3689875594	-5.8697886314	-1.0646428244	 0.265022
H	-0.2964376592	-5.1396300819	 0.306307453	 0.270081
48.5981	59.1774	142.6754	225.8969	245.6492	298.4264	329.851	358.8664	393.6111	518.3643	582.5546	590.7022	674.6515	694.1787	761.0457	789.9112	811.3893	914.5408	979.6983	1019.7882	1079.7815	1103.5265	1132.3953	1145.5249	1182.4867	1241.5209	1292.009	1349.9615	1395.0315	1418.8596	1457.3446	1482.9859	1497.9804	1524.1252	1602.7392	1667.3276	1683.267	3032.5514	3045.0384	3069.2742	3119.662	3123.2501	3325.0728	3578.1989	3687.8695
CCOC1=COC(N)=N1	CCOc1coc(N)n1	
InChI=1S/C5H8N2O2/c1-2-8-4-3-9-5(6)7-4/h3H,2H2,1H3,(H2,6,7)	InChI=1S/C5H8N2O2/c1-2-8-4-3-9-5(6)7-4/h3H,2H2,1H3,(H2,6,7)
