21
gdb 102738	2.53012	1.02626	0.78098	1.9332	85.13	-0.2513	0.0548	0.3061	1485.274	0.180967	-387.036881	-387.026924	-387.02598	-387.071839	37.291	
O	 0.241008488	 1.3579967443	 0.2030713718	-0.423
C	 0.1022647149	-0.0211866882	-0.0638564575	-0.070508
C	-1.3662030289	-0.5136300658	 0.0089537303	-0.206476
C	-2.2457659029	-0.0708099897	-1.1907397667	-0.20182
C	-2.3982935853	 1.4272345897	-1.3795412668	-0.00139
C	-1.5194147459	 2.1939359133	-2.3544935273	-0.277644
C	-2.9759677413	 1.9513266974	-2.6652249814	-0.294113
C	-1.3919959553	-1.9695691524	 0.1243044498	 0.31099
C	-1.3861816309	-3.1703933375	 0.1878318193	-0.447674
H	-0.2009857546	 1.8388390673	-0.5042739452	 0.29473
H	 0.5280053971	-0.3003444176	-1.040744668	 0.091132
H	 0.683748969	-0.5397699942	 0.7032894154	 0.120003
H	-1.7877075112	-0.0798817041	 0.9266548965	 0.111262
H	-1.8372697557	-0.5157086131	-2.1071375997	 0.104282
H	-3.239092274	-0.514702141	-1.0552144802	 0.115099
H	-2.6867651503	 1.967895519	-0.4813882627	 0.097964
H	-1.2153304392	 3.2063822648	-2.1076559105	 0.123792
H	-0.7848498725	 1.6352500448	-2.9261487748	 0.123966
H	-3.2094795625	 1.231498474	-3.4429993794	 0.11792
H	-3.6551240394	 2.7951370693	-2.6214162226	 0.118401
H	-1.390514529	-4.2295985604	 0.2620919196	 0.193086
78.4905	102.9226	123.7241	144.5456	172.6292	242.1815	294.5668	343.7853	383.3518	414.4248	446.0304	511.7726	528.5595	631.3513	640.6356	786.0582	805.1555	829.0788	866.7166	875.361	933.1599	967.9844	995.1964	1053.0545	1077.1149	1080.4978	1088.7974	1093.2634	1138.9547	1150.1458	1201.478	1215.519	1225.5972	1272.646	1287.2216	1328.1641	1353.7836	1395.6214	1415.6363	1433.6449	1467.4285	1483.0167	1502.3278	1507.2694	2232.4333	2979.7076	3012.9355	3025.8205	3063.8022	3091.6628	3123.0605	3133.7048	3139.6346	3204.3572	3222.4251	3505.1553	3811.607
OCC(CC1CC1)C#C	OC[C@@H](CC1CC1)C#C	
InChI=1S/C8H12O/c1-2-7(6-9)5-8-3-4-8/h1,7-9H,3-6H2	InChI=1S/C8H12O/c1-2-7(6-9)5-8-3-4-8/h1,7-9H,3-6H2/t7-/m1/s1
