16
gdb 44454	4.21485	1.4792	1.34748	3.7493	70.63	-0.2523	0.0234	0.2757	954.4612	0.125396	-437.811882	-437.805374	-437.80443	-437.842659	26.788	
N	-0.0274290222	 1.224478484	-0.2157274605	-0.527981
C	-0.0079804669	-0.0196575168	-0.0414817573	 0.426108
C	-1.2595375283	-0.9273373967	-0.0696194898	-0.442388
C	-0.5736948125	-2.2430707514	-0.2575945028	 0.382798
C	-0.468983155	-3.7812036794	-0.1488274709	-0.320923
C	 0.8839510551	-3.1985811733	-0.7048667922	-0.001149
O	 0.1048912965	-2.3361174111	-1.5911798524	-0.333174
C	 0.7983197664	-2.1083674464	 0.4032907834	 0.105879
O	 1.1460433949	-0.7541396159	 0.2111536174	-0.252538
H	 0.9126341284	 1.6174106483	-0.1489496808	 0.229543
H	-1.7918999831	-0.8653808802	 0.8849278856	 0.139363
H	-1.9285544658	-0.6271981856	-0.875585176	 0.156953
H	-0.4874336595	-4.2288539888	 0.8481165778	 0.1096
H	-1.0353846445	-4.3463940282	-0.8873876251	 0.128233
H	 1.735557158	-3.73302717	-1.1246489723	 0.108687
H	 0.9510576485	-2.4155067286	 1.440881596	 0.09099
107.423	288.7011	338.8213	369.5004	476.8605	500.3576	542.4786	600.4	706.0259	747.4269	783.2062	796.0257	815.1737	881.8762	893.6389	905.6834	954.3385	965.71	1010.7804	1030.5072	1056.3938	1095.7158	1108.1702	1138.2136	1175.7494	1185.2807	1198.5582	1234.9235	1263.2514	1269.202	1346.1257	1381.0274	1456.9567	1486.2706	1788.6825	3068.0497	3068.8064	3083.0817	3127.8608	3147.2702	3166.1567	3481.6639
N=C1CC23CC(O2)C3O1	[NH][C]1C[C@@]23C[C@@H](O2)[C@H]3O1	
InChI=1S/C6H7NO2/c7-4-2-6-1-3(9-6)5(6)8-4/h3,5,7H,1-2H2	InChI=1S/C6H7NO2/c7-4-2-6-1-3(9-6)5(6)8-4/h3,5,7H,1-2H2/t3-,5-,6-/m1/s1
