16
gdb 17906	2.90133	2.35547	2.17061	2.5603	63.17	-0.2286	-0.0221	0.2065	743.0305	0.133041	-383.757604	-383.751301	-383.750357	-383.788012	24.627	
O	 0.0042070564	 0.0476319326	 0.020415653	-0.320414
C	-0.0131845183	 1.2438892851	 0.006805143	 0.426927
C	-1.165318783	 2.2612666077	 0.0208491704	-0.15543
C	-0.7990891214	 3.0383282266	 1.3121552095	-0.228479
C	 0.7755954851	 3.0678492218	 1.2917004057	-0.230128
C	 1.1054443288	 2.2986531077	 0.001963237	 0.006165
O	 0.7268577271	 3.1031014444	-1.1226345878	-0.288731
C	-0.7249758957	 3.1111181264	-1.1798192943	-0.074837
H	-2.172579991	 1.8544960549	-0.0335157028	 0.091803
H	-1.2326713581	 4.0418314554	 1.3067346193	 0.111273
H	-1.1749112745	 2.5187895798	 2.1972799388	 0.115341
H	 1.1755667495	 4.0826130736	 1.2372874784	 0.118712
H	 1.2016151058	 2.5765685313	 2.1717102891	 0.113357
H	 2.1272444497	 1.9492569434	-0.1292108608	 0.096482
H	-1.0497143956	 2.6809575863	-2.1351937394	 0.112972
H	-1.0820220249	 4.1466373632	-1.1220347492	 0.104988
145.6196	149.5312	299.5344	386.9517	458.8478	557.8605	633.6072	707.4618	772.1535	825.4749	860.4266	868.4334	884.4698	897.5081	973.0203	979.6372	1027.9233	1035.8701	1079.3692	1133.7475	1142.5713	1177.5428	1201.5252	1228.2806	1260.1889	1274.9975	1298.7327	1318.0891	1334.1954	1381.7877	1474.1931	1498.2275	1528.9303	1894.7716	3014.9704	3054.1567	3055.5173	3064.3833	3098.7578	3119.1761	3148.2212	3151.7996
O=C1C2CCC1OC2	O=C1[C@H]2CC[C@@H]1OC2	
InChI=1S/C6H8O2/c7-6-4-1-2-5(6)8-3-4/h4-5H,1-3H2	InChI=1S/C6H8O2/c7-6-4-1-2-5(6)8-3-4/h4-5H,1-3H2/t4-,5-/m0/s1
