18
gdb 107295	3.44357	1.30095	1.15333	1.2256	70.94	-0.2366	0.0437	0.2802	1099.9733	0.148003	-438.99121	-438.983389	-438.982444	-439.023828	30.161	
O	 0.2568600717	 1.3532860223	 0.1043290753	-0.409864
C	 0.0326750393	-0.030616859	-0.1213460676	-0.175928
C	-1.4171228395	-0.3919490525	 0.0322138837	 0.306171
C	-2.0318626566	-0.8881905551	 1.2769503265	-0.303427
N	-1.8947788831	-1.8422638642	 0.1535918515	-0.202587
C	-2.9508610077	-1.541358538	-0.8999550047	-0.017585
C	-4.3091265033	-0.9610239113	-0.4831969658	-0.107388
O	-3.7720349163	 0.3908169934	-0.5058210949	-0.297322
C	-2.5044246678	-0.0838346287	-1.0173367255	 0.039581
H	-0.0784091932	 1.5632965861	 0.9825551003	 0.285354
H	 0.3694784115	-0.2190393994	-1.1468113463	 0.113579
H	 0.6361218424	-0.668976676	 0.5426208394	 0.098831
H	-1.3647242486	-1.1420178123	 2.0960595856	 0.122214
H	-3.0038012767	-0.5175887858	 1.5827211448	 0.138351
H	-2.9104555967	-2.2788194466	-1.6988078777	 0.097078
H	-5.0906531773	-1.0878951104	-1.2426691495	 0.110566
H	-4.7106628855	-1.2439386144	 0.4965024271	 0.112232
H	-2.1850201725	 0.4261610918	-1.9278055422	 0.090143
68.1094	118.9998	239.0831	258.7574	332.4839	348.3786	398.8212	452.5505	543.5642	663.7977	710.664	781.966	820.661	869.7723	899.6494	913.1022	943.2652	961.0044	988.0809	994.7713	1043.41	1061.4022	1083.0631	1124.701	1141.9048	1157.8135	1170.7569	1202.9961	1235.0913	1257.6549	1299.674	1318.9751	1344.0861	1357.3923	1397.0224	1422.9851	1493.9879	1505.2239	1517.7903	2987.7541	3019.5134	3065.8656	3066.8004	3099.284	3125.4762	3135.686	3213.8099	3808.2942
OCC12CN1C1COC21	OC[C@]12CN1[C@H]1CO[C@@H]21	
InChI=1S/C6H9NO2/c8-3-6-2-7(6)4-1-9-5(4)6/h4-5,8H,1-3H2	InChI=1S/C6H9NO2/c8-3-6-2-7(6)4-1-9-5(4)6/h4-5,8H,1-3H2/t4-,5+,6-,7?/m0/s1
