14
gdb 133607	3.13824	1.32675	1.17471	2.7976	55.56	-0.2555	-0.0022	0.2532	1022.918	0.097599	-568.194934	-568.187267	-568.186323	-568.228057	27.745	
F	-0.2001374138	 0.061899854	 0.0906572559	-0.075831
C	-0.0582246009	 1.3903710585	 0.0526582204	 0.269841
F	 1.2558889761	 1.6661925703	-0.0360600593	-0.086115
F	-0.6445791947	 1.8356393221	-1.0623409051	-0.070828
C	-0.6476194063	 2.0586064649	 1.3022844764	-0.068423
O	-2.0164949997	 1.715678786	 1.4166634593	-0.265096
C	-2.2254439783	 0.9206847231	 2.5874156212	-0.117579
C	-0.9024193557	 0.9221543112	 3.2973853995	-0.090093
C	-0.0007805532	 1.5722221889	 2.57265617	-0.093149
H	-0.5460896121	 3.1426166587	 1.1466210645	 0.11285
H	-3.033174269	 1.3686148053	 3.1827308142	 0.117396
H	-2.5445796033	-0.0941048471	 2.3059635866	 0.121254
H	-0.7436338428	 0.4436813004	 4.2550537459	 0.119093
H	 1.0429351537	 1.7350154838	 2.8015334405	 0.126681
62.9868	85.6569	175.7169	245.3113	334.4947	372.9774	427.6907	528.7307	571.6221	673.7649	727.4778	776.9578	829.8366	870.4868	939.5732	950.3415	958.0113	1023.1194	1044.7209	1121.6201	1135.5015	1172.9914	1198.3988	1201.4842	1291.6775	1302.615	1353.534	1378.2776	1387.5834	1515.5778	1691.7579	2993.0509	3007.4855	3023.0395	3219.7739	3247.3543
FC(F)(F)C1OCC=C1	FC(F)(F)[C@H]1OCC=C1	
InChI=1S/C5H5F3O/c6-5(7,8)4-2-1-3-9-4/h1-2,4H,3H2	InChI=1S/C5H5F3O/c6-5(7,8)4-2-1-3-9-4/h1-2,4H,3H2/t4-/m0/s1
