17
gdb 16305	3.55638	1.75322	1.4517	3.0083	70.34	-0.224	-0.0281	0.1959	909.5864	0.141297	-363.825514	-363.817823	-363.816878	-363.857319	28.651	
C	-0.1778961917	 1.4995433623	-0.1217422413	-0.336388
N	 0.0854566311	 0.0755709782	 0.0005321141	-0.1323
C	 1.1713084288	-0.5248544163	-0.8256443904	-0.180719
C	 1.8117504223	-1.1261675079	 0.4274928331	-0.106654
C	 2.1528788842	-0.0544284918	 1.4078828327	-0.328731
C	 0.6934837922	-0.4195840053	 1.2323733888	 0.248366
C	-0.1169154634	-1.0104277632	 2.3120724547	 0.088361
O	 0.3340447048	-1.4643940809	 3.3384462874	-0.277941
H	 0.7105312801	 2.1389419234	 0.0206187144	 0.098498
H	-0.5888778976	 1.7076825683	-1.1147746574	 0.124653
H	-0.9286458576	 1.7919969491	 0.61931121	 0.126741
H	 0.7841057245	-1.2557467401	-1.5419659438	 0.116853
H	 1.7997225721	 0.2012787	-1.3589492114	 0.101914
H	 2.121161268	-2.155208929	 0.5512808304	 0.117114
H	 2.5703858974	-0.3965777372	 2.3485789025	 0.147343
H	 2.5059136068	 0.9135232061	 1.0630080647	 0.116291
H	-1.206387802	-1.0298056558	 2.0866145815	 0.076597
115.4238	180.3604	193.566	218.8698	242.7767	322.0111	400.485	460.4867	572.8089	660.3316	725.3854	780.7672	853.1398	908.741	928.7309	959.7488	989.745	1042.5366	1069.6197	1073.2295	1099.6203	1121.7807	1164.4603	1194.596	1229.0455	1240.3472	1290.3016	1327.2175	1362.1241	1415.7806	1451.1599	1472.3241	1486.9789	1501.5268	1510.8552	1800.4726	2888.5184	2955.8433	3011.8258	3063.9911	3074.9824	3105.1478	3120.9839	3210.3171	3223.1664
CN1CC2CC12C=O	CN1C[C@H]2C[C@@]12C=O	
InChI=1S/C6H9NO/c1-7-3-5-2-6(5,7)4-8/h4-5H,2-3H2,1H3	InChI=1S/C6H9NO/c1-7-3-5-2-6(5,7)4-8/h4-5H,2-3H2,1H3/t5-,6+/m1/s1
