16
gdb 133066	2.85659	1.26473	0.93032	1.5254	74.52	-0.2612	-0.0542	0.2069	1224.7584	0.124894	-442.094464	-442.086635	-442.085691	-442.127666	28.799	
C	-0.3036948257	 1.514585365	 0.0787733123	-0.373686
C	 0.1018074193	 0.0367000052	-0.0461655153	-0.272755
C	 0.7653936264	-0.4840212296	 1.201429992	 0.310296
C	 0.1797625258	-1.452396101	 2.0183473299	-0.069066
N	 0.7644435898	-1.904264269	 3.1322567038	-0.218891
C	 1.9481081707	-1.3892875208	 3.4420601784	-0.133692
C	 2.523016009	-0.42115755	 2.616531684	 0.296799
F	 3.7086121811	 0.0799766081	 2.9421652503	-0.064624
N	 1.9644217957	 0.0323578887	 1.523465998	-0.337257
H	 0.5683771277	 2.1289167134	 0.3175131025	 0.142523
H	-0.7357010333	 1.8758537489	-0.8587245447	 0.118868
H	-1.0455915077	 1.654083941	 0.8714245934	 0.120192
H	-0.774348425	-0.57905044	-0.2738836687	 0.10812
H	 0.8030617457	-0.0751353072	-0.8809812755	 0.125891
H	-0.7876623509	-1.8767335481	 1.7658410687	 0.115563
H	 2.4528008512	-1.7339222546	 4.3390589408	 0.131719
45.6071	135.0985	211.2859	217.6769	294.5215	342.6089	463.7163	493.7751	548.9269	583.3428	671.6177	721.7862	779.4609	798.1655	901.649	949.3352	953.677	1018.4278	1026.5732	1085.2884	1098.1867	1189.9288	1239.0609	1267.3192	1293.0419	1323.3457	1368.04	1405.1187	1454.1107	1477.6982	1484.1395	1496.8621	1509.6463	1593.8986	1618.6112	3040.3525	3042.8792	3082.492	3113.6298	3127.4845	3170.899	3182.8384
CCC1=CN=CC(F)=N1	CCc1cncc(F)n1	
InChI=1S/C6H7FN2/c1-2-5-3-8-4-6(7)9-5/h3-4H,2H2,1H3	InChI=1S/C6H7FN2/c1-2-5-3-8-4-6(7)9-5/h3-4H,2H2,1H3
