22
gdb 22237	2.13514	0.9919	0.75557	1.4322	81.89	-0.2406	0.0173	0.2579	1605.7355	0.190611	-441.451323	-441.440079	-441.439135	-441.487868	40.546	
C	 0.1502249972	 1.5957576927	 0.1540225962	-0.387719
C	-0.0162616892	 0.0786699458	 0.0324532622	-0.16538
C	 0.8849175472	-0.5135034112	-1.0531084736	-0.241449
C	 0.7835977514	-2.0059481847	-1.2391240024	 0.335129
N	 0.0053084644	-2.6544811756	-0.4607930526	-0.183637
O	-0.0063746887	-4.0363379686	-0.7481551217	-0.407916
C	 1.5861497777	-2.6633204744	-2.3476052812	 0.061544
C	 0.7003391226	-2.9610498565	-3.5653135326	-0.40825
O	 2.6573543786	-1.7854832601	-2.6799183631	-0.445813
H	 1.181948489	 1.865057618	 0.4072607257	 0.112514
H	-0.0997306551	 2.1016940911	-0.7856244787	 0.110553
H	-0.5002573375	 2.0042057631	 0.9336868616	 0.109728
H	 0.2074638835	-0.4020264438	 0.9906540098	 0.107808
H	-1.0608342584	-0.1689003473	-0.1858341123	 0.103745
H	 0.6772588944	-0.0357638991	-2.0213174765	 0.111483
H	 1.9362913259	-0.2716676182	-0.8529411174	 0.129195
H	-0.5945776898	-4.3752142455	-0.065818705	 0.305249
H	 1.9751491865	-3.6132865916	-1.9561229478	 0.098291
H	 0.2781630735	-2.035816682	-3.9689954289	 0.123061
H	 1.2910655571	-3.4419750965	-4.3541611549	 0.103434
H	-0.1114642533	-3.6362630939	-3.2869065903	 0.144805
H	 3.1262343131	-2.1703814816	-3.4264840264	 0.283625
64.4579	79.2735	100.379	135.446	213.973	228.0572	244.206	250.2429	264.0023	301.7059	324.8541	347.1961	409.6415	427.9707	542.7179	618.0385	643.6729	742.7445	777.5463	872.0292	901.8864	921.1792	983.4918	1019.8711	1051.8023	1079.5712	1109.8808	1130.8795	1145.0406	1180.6311	1252.1564	1264.6241	1317.2664	1321.5023	1358.4228	1388.3873	1392.0115	1408.4109	1413.4423	1418.4771	1461.3946	1488.3536	1492.1666	1500.7412	1501.0147	1509.157	1731.1266	3009.3223	3014.1718	3027.1997	3029.3563	3044.1265	3049.7365	3073.933	3099.0441	3099.975	3100.986	3138.5548	3825.1553	3826.1458
CCCC(=NO)C(C)O	CCCC(=NO)[C@@H](C)O	
InChI=1S/C6H13NO2/c1-3-4-6(7-9)5(2)8/h5,8-9H,3-4H2,1-2H3	InChI=1S/C6H13NO2/c1-3-4-6(7-9)5(2)8/h5,8-9H,3-4H2,1-2H3/t5-/m1/s1
