13
gdb 20428	6.40517	1.59879	1.34881	2.476	60.1	-0.2392	-0.0232	0.216	859.5621	0.098167	-390.910949	-390.904624	-390.90368	-390.94226	22.639	
C	-0.1625480471	 1.294629944	-0.2788355392	-0.220298
C	 1.2561559001	 1.0094705304	 0.0844895153	-0.217082
N	 0.2465875992	-0.0414997805	 0.1403938863	-0.128924
C	-0.1548171961	-0.5370989255	 1.3648185413	 0.441805
N	-1.4274284948	-0.6556987116	 1.7402547993	-0.288027
N	-1.2743838701	-1.254292956	 2.9201186812	-0.064451
N	-0.0243442054	-1.4912817455	 3.2702737771	-0.097675
N	 0.7126768983	-1.0385637027	 2.2876531777	-0.264438
H	-0.7573530845	 1.8763903394	 0.4200882442	 0.134669
H	-0.4569576477	 1.3797604449	-1.319902734	 0.131558
H	 2.0061248806	 0.8840586292	-0.6897212323	 0.132127
H	 1.6257679557	 1.3972029524	 1.0295108989	 0.139954
H	-2.0550148183	-1.5088476886	 3.5059965542	 0.300782
46.1251	174.4288	207.9827	396.6564	520.5511	548.8443	583.6018	726.8361	786.524	819.8286	928.006	931.6814	1025.4487	1045.221	1063.4322	1126.7887	1135.7301	1146.5418	1174.5691	1178.1028	1191.6192	1267.7249	1287.1517	1358.3596	1497.8773	1500.3597	1524.06	1578.462	3119.1083	3123.5979	3204.3227	3217.8205	3652.9846
C1CN1C1=NNN=N1	C1CN1c1n[nH]nn1	
InChI=1S/C3H5N5/c1-2-8(1)3-4-6-7-5-3/h1-2H2,(H,4,5,6,7)	InChI=1S/C3H5N5/c1-2-8(1)3-4-6-7-5-3/h1-2H2,(H,4,5,6,7)
