17
gdb 93393	2.59978	1.67988	1.26607	3.3447	67.65	-0.2653	-0.0034	0.2619	1004.0757	0.137402	-458.982648	-458.975051	-458.974106	-459.014945	29.561	
O	 0.0563001871	 1.486597341	 0.1352965287	-0.432085
C	-0.0035212855	 0.0778538617	-0.0164303519	 0.096214
C	 0.7664799589	-0.6072646629	 1.103085752	-0.112773
O	 0.1343221587	-0.3309517569	 2.3697512099	-0.251195
C	-1.1572997198	-0.7604526597	 2.5491978256	 0.408064
O	-1.5714793872	-0.9178239369	 3.6627617994	-0.321953
C	-1.973738978	-0.9550713271	 1.3117318227	-0.166145
C	-2.534716722	 0.2748400798	 0.6135859866	-0.275591
C	-1.4297625133	-0.4986914748	-0.0287640294	-0.063328
H	 0.0269504901	 1.6781722242	 1.0803463292	 0.292828
H	 0.4753138326	-0.142375204	-0.9757335582	 0.098121
H	 0.821816339	-1.690026293	 0.9412978687	 0.118632
H	 1.7788457602	-0.2077860394	 1.1961346787	 0.130736
H	-2.6264692538	-1.8180409463	 1.3667699498	 0.121382
H	-3.5364371019	 0.1872755006	 0.2101672499	 0.128975
H	-2.2952544069	 1.2537677591	 1.011454985	 0.13055
H	-1.6780261382	-1.1105285151	-0.8892872767	 0.097568
62.6949	176.439	218.3591	293.7363	379.488	399.4778	404.305	505.6717	535.0346	595.3654	726.7617	746.8773	755.6333	826.1305	844.9942	904.7673	947.9549	971.4483	998.6435	1027.2246	1061.1259	1076.3371	1104.9254	1121.2155	1145.8906	1189.1461	1222.8809	1248.7508	1286.9327	1346.2691	1364.3387	1391.6482	1406.9019	1428.4842	1493.491	1501.771	1855.0631	3040.4781	3065.6613	3115.1233	3148.9335	3164.3922	3186.0771	3236.6752	3788.8442
OC1COC(=O)C2CC12	O[C@H]1COC(=O)[C@H]2C[C@@H]12	
InChI=1S/C6H8O3/c7-5-2-9-6(8)4-1-3(4)5/h3-5,7H,1-2H2	InChI=1S/C6H8O3/c7-5-2-9-6(8)4-1-3(4)5/h3-5,7H,1-2H2/t3-,4+,5+/m1/s1
