15
gdb 56971	3.05377	0.98259	0.77332	3.1729	67.99	-0.2714	-0.0194	0.252	1377.4756	0.110805	-453.933804	-453.92468	-453.923736	-453.968688	31.388	
O	 0.640466959	 1.5603016864	 0.0022700045	-0.400443
C	 0.0980345082	 0.2571334668	 0.0370132343	-0.02487
C	 0.5125742124	-0.5365793644	-1.1392018205	 0.249891
N	 0.8877696869	-1.154179217	-2.0407436307	-0.307485
C	 0.4493867279	-0.489425573	 1.3175922846	-0.042917
C	-0.3679593674	-0.3075207963	 2.5615532204	-0.246437
N	-0.4873293667	-1.5034155442	 1.7569994967	-0.064346
C	-0.1180971625	-2.7695354775	 2.2075637005	 0.137799
O	-0.3329373272	-3.1865912784	 3.3155542609	-0.270378
H	 1.5967956344	 1.4972226165	-0.1038126932	 0.301211
H	-0.9895483334	 0.3774580217	 0.000526029	 0.152918
H	 1.5112704626	-0.6982629558	 1.447170554	 0.118698
H	 0.1340015191	-0.4046287776	 3.5200841484	 0.149565
H	-1.2197689766	 0.3663944807	 2.5454128203	 0.140972
H	 0.3414815434	-3.3696981678	 1.4006461308	 0.105821
53.7205	83.4275	116.223	183.4679	225.1995	245.7264	288.7579	321.4345	364.6841	416.2905	537.8516	594.7087	702.8522	819.0553	858.0507	961.2075	987.9571	1028.1098	1060.3347	1090.3285	1116.2934	1130.975	1134.5656	1183.9933	1252.501	1301.4032	1330.2934	1408.8517	1412.0201	1448.1604	1513.2524	1812.0921	2356.6557	2971.8562	3074.4645	3118.1188	3119.4844	3210.1712	3803.3863
OC(C#N)C1CN1C=O	O[C@@H](C#N)[C@H]1CN1C=O	
InChI=1S/C5H6N2O2/c6-1-5(9)4-2-7(4)3-8/h3-5,9H,2H2	InChI=1S/C5H6N2O2/c6-1-5(9)4-2-7(4)3-8/h3-5,9H,2H2/t4-,5+,7?/m1/s1
