15
gdb 29248	3.26393	1.41008	0.98595	2.4747	73.97	-0.1946	-0.0182	0.1763	1115.2549	0.116089	-450.200187	-450.192412	-450.191468	-450.232251	30.248	
N	 0.0458665522	 1.4182510705	 0.1574301337	-0.59464
C	-0.0157421013	 0.0304750661	 0.0509858088	 0.236783
C	-1.146039353	-0.7048307821	 0.0271535392	-0.071383
N	-1.1138062251	-2.0970105315	-0.023514208	-0.38243
C	 0.0385810298	-2.8417128247	-0.0293335842	 0.475317
O	 0.0715767263	-4.0554900963	-0.0599600318	-0.40638
N	 1.1867745948	-2.0560598508	 0.0004251076	-0.444878
C	 1.2785840086	-0.6642784201	 0.0144530258	 0.371502
N	 2.3640072757	 0.0160005279	-0.0068784777	-0.55697
H	 0.97614494	 1.7484203176	-0.0732936954	 0.267253
H	-0.6778395981	 1.9182474328	-0.3380815985	 0.242951
H	-2.1339287562	-0.263673498	 0.0486004576	 0.122077
H	-1.9680741235	-2.6285005394	-0.0418170962	 0.270403
H	 2.0414027771	-2.5936129138	-0.0197030856	 0.260352
H	 3.1963930825	-0.5712816382	-0.0381490953	 0.210042
112.8913	150.1046	264.8539	330.898	347.5738	384.5738	392.3603	468.885	508.0755	537.1851	612.6707	614.4182	690.2539	751.807	753.767	769.376	816.2249	826.954	844.8652	971.0396	1096.1223	1128.7241	1202.2791	1278.2682	1297.2598	1400.3647	1417.3942	1441.8081	1506.3075	1623.6341	1698.0442	1727.7756	1826.2331	3216.2242	3486.924	3528.6732	3620.7066	3643.6238	3668.2018
NC1=CNC(=O)NC1=N	NC1=C(NC(=O)N[CH]1)[NH]	
InChI=1S/C4H6N4O/c5-2-1-7-4(9)8-3(2)6/h1H,5H2,(H3,6,7,8,9)	InChI=1S/C4H6N4O/c5-2-1-7-4(9)8-3(2)6/h1H,5H2,(H3,6,7,8,9)
