20
gdb 63759	2.94463	1.39729	1.17102	1.3801	85.54	-0.2275	0.0291	0.2566	1132.1768	0.168877	-365.93695	-365.927901	-365.926957	-365.969906	35.587	
C	-0.5054653988	 1.548249867	-0.0068003191	-0.452611
C	-0.0998465764	 0.0815860261	-0.0265387403	 0.348019
C	-1.3394722179	-0.8114256166	-0.0631976648	-0.409181
C	 0.9831692925	-0.4160193148	-1.0352537507	-0.323281
C	 1.7179591356	-0.9779221624	 0.1774803605	-0.024486
C	 2.126660613	 0.0952324258	 1.1159363101	-0.196771
C	 2.5855872572	 1.3919605183	 0.7005240218	 0.338997
C	 3.0659264476	 2.4520118501	 0.3931909275	-0.448724
N	 0.7209889086	-0.4131682107	 1.1646333414	-0.187127
H	 0.3510112038	 2.2202688657	-0.0268506058	 0.137247
H	-1.1366620239	 1.770233475	-0.8746478713	 0.111304
H	-1.0901718025	 1.7606301147	 0.8949862537	 0.121403
H	-1.9136066729	-0.6294285836	-0.9780257081	 0.109559
H	-1.0633001294	-1.8695326652	-0.0321396078	 0.115479
H	-1.9822917281	-0.6064613117	 0.7983397888	 0.121454
H	 0.6153513138	-1.1705460389	-1.7326069627	 0.105559
H	 1.5324156167	 0.3495014125	-1.5896568326	 0.114358
H	 2.1110564456	-1.9856504422	 0.2727905547	 0.097301
H	 2.6432414747	-0.2613090062	 2.0052690582	 0.122165
H	 3.4678579709	 3.396227487	 0.1196725064	 0.199335
114.4257	147.462	186.3488	225.314	253.0715	278.2358	354.6335	384.1584	388.6266	420.6734	556.4963	603.1371	617.9132	638.584	657.6024	749.1455	763.9133	826.3471	868.4206	907.0763	944.6543	970.7003	984.4344	1000.7878	1035.8827	1057.0081	1069.3983	1139.7655	1181.9607	1226.3344	1253.8152	1273.2411	1290.9649	1345.6265	1398.6117	1402.5845	1418.0257	1476.1861	1483.6581	1487.5053	1497.6349	1512.038	2225.932	3031.5586	3038.3861	3063.78	3094.4659	3106.9506	3111.1706	3121.5287	3124.6723	3155.0442	3161.4709	3501.2057
CC1(C)CC2C(C#C)N12	CC1(C)C[C@H]2[C@@H](C#C)N12	
InChI=1S/C8H11N/c1-4-6-7-5-8(2,3)9(6)7/h1,6-7H,5H2,2-3H3	InChI=1S/C8H11N/c1-4-6-7-5-8(2,3)9(6)7/h1,6-7H,5H2,2-3H3/t6-,7+,9?/m1/s1
