16
gdb 35620	2.15711	1.714	1.08689	4.1136	79.24	-0.272	-0.0091	0.2629	1100.5465	0.12439	-363.600947	-363.592716	-363.591771	-363.634076	30.737	
C	-0.5082224433	-1.0678937928	-0.7386300324	-0.434626
C	-0.2792236874	 0.0344868379	-0.3195359679	 0.31527
C	-0.0084862009	 1.365210703	 0.193874203	-0.188462
C	-0.2159300242	 1.5402124542	 1.7270295611	-0.263809
C	 0.7501662165	 2.6452863081	 2.0686485171	-0.057534
C	 1.64312905	 2.8610808129	 1.106897668	-0.074155
C	 1.4431548414	 1.9184501644	-0.0714764511	-0.209611
C	 2.4859511969	 0.8861901532	-0.097517625	 0.284126
N	 3.3300583597	 0.0968025631	-0.1073449329	-0.324887
H	-0.6974374372	-2.0448739599	-1.1096207267	 0.203149
H	-0.6764513937	 2.0784542619	-0.3030143693	 0.123577
H	-1.2573882736	 1.7785396166	 1.9627979425	 0.122448
H	 0.0309692598	 0.6189116989	 2.2690155649	 0.138431
H	 0.722288031	 3.1714462779	 3.0159818125	 0.111879
H	 2.4644152168	 3.5659105487	 1.1353739908	 0.119998
H	 1.4776431282	 2.4343032019	-1.0371959245	 0.134206
68.5886	111.0933	170.0205	184.9887	276.0787	394.2854	438.4676	479.0549	508.4943	585.1371	636.374	655.6363	674.2447	742.7533	776.2501	809.3486	911.2603	968.1208	973.1329	994.2566	1029.9398	1056.9767	1077.4515	1134.9802	1166.453	1240.6117	1282.7802	1296.8296	1340.2998	1350.5874	1356.2023	1486.0268	1688.256	2243.2743	2355.3994	3032.5034	3039.7113	3054.5178	3085.5847	3196.649	3224.5816	3503.766
C#CC1CC=CC1C#N	C#C[C@H]1CC=C[C@H]1C#N	
InChI=1S/C8H7N/c1-2-7-4-3-5-8(7)6-9/h1,3,5,7-8H,4H2	InChI=1S/C8H7N/c1-2-7-4-3-5-8(7)6-9/h1,3,5,7-8H,4H2/t7-,8-/m0/s1
