16
gdb 19834	3.36885	2.67596	1.81951	2.8259	68.76	-0.2268	0.0012	0.2281	742.5639	0.134713	-342.743509	-342.737648	-342.736704	-342.773141	24.312	
N	-0.0451779136	 1.4889523008	-0.0176615654	-0.339927
C	 1.2794489268	 0.8153943327	-0.004976687	-0.062443
C	 2.1434219984	 0.8047496161	 1.1943417571	-0.074503
C	 1.830869898	 0.1676207348	 2.3306425859	-0.050666
C	 0.5736371254	-0.5906153673	 2.4860809251	-0.078741
N	-0.7062953826	 0.1703638352	 2.453929273	-0.343028
C	-0.3529272941	-0.681841418	 1.3116116066	-0.050228
C	 0.0005335868	 0.0308239387	 0.0336576597	-0.021803
H	-0.262241912	 1.8168370621	 0.9250937149	 0.245208
H	 1.8021714761	 0.9166797828	-0.9527998799	 0.089629
H	 3.092727343	 1.3277699632	 1.1162851541	 0.095441
H	 2.5208497669	 0.1772742875	 3.1692192839	 0.093744
H	 0.6081643811	-1.4358907552	 3.1690372925	 0.088568
H	-1.3979758324	-0.2923348781	 3.0379639988	 0.235287
H	-0.8980504674	-1.6127348393	 1.1830713837	 0.085277
H	-0.3297568703	-0.4681358859	-0.873617213	 0.088184
209.454	244.2475	385.3527	487.3613	530.6972	541.2081	668.8184	708.9939	779.6544	808.2362	814.9139	840.9098	896.8561	907.3749	931.9892	977.241	986.4327	1012.4428	1056.1492	1093.7054	1121.5114	1147.3839	1178.7546	1194.7962	1210.1506	1223.0317	1261.6599	1317.0461	1358.2045	1398.6917	1415.2075	1427.8432	1456.7787	1691.5379	3129.2045	3133.1334	3137.1654	3152.8471	3158.2417	3179.5329	3453.6301	3503.7202
N1C2C=CC3NC3C12	N1[C@H]2C=C[C@H]3N[C@H]3[C@@H]12	
InChI=1S/C6H8N2/c1-2-4-6(8-4)5-3(1)7-5/h1-8H	InChI=1S/C6H8N2/c1-2-4-6(8-4)5-3(1)7-5/h1-8H/t3-,4+,5-,6+
