16
gdb 44817	2.84555	1.58388	1.21641	2.956	69.18	-0.244	-0.0027	0.2413	1023.9642	0.123995	-437.840397	-437.832826	-437.831882	-437.872942	28.596	
O	 0.4127240143	 0.1223666929	 0.6873408565	-0.33979
C	 0.2798627412	 1.2725430135	 0.4158876402	 0.42338
O	-0.9051863553	 1.9588287654	 0.1826209139	-0.261951
C	-0.1578854636	 3.1352296781	-0.2466371515	 0.029568
C	 0.6035129791	 3.6615584101	 0.9123620587	-0.339093
C	 1.1563753656	 2.4733940645	 0.1048302753	 0.1797
N	 2.4254033312	 2.5436166572	-0.5082147084	-0.169393
C	 3.5041267379	 1.7341610988	 0.0715865851	-0.232914
C	 2.9088699835	 1.3718144896	-1.2440959444	-0.239507
H	-0.4934407829	 3.6386526273	-1.1409558111	 0.139304
H	 1.1744958117	 4.5682498185	 0.7369001566	 0.141778
H	 0.215644471	 3.5273227905	 1.916970554	 0.137217
H	 4.4715835794	 2.2244187122	 0.1236286662	 0.122817
H	 3.2582306484	 1.0936776152	 0.9142495731	 0.14068
H	 2.2787948352	 0.4873160709	-1.2728606294	 0.145131
H	 3.4360777033	 1.5982548653	-2.1658400151	 0.123072
60.9581	145.4788	189.6021	209.311	349.0689	434.5334	474.8528	485.3102	636.8042	685.6882	776.986	818.7227	843.6056	870.9144	883.8251	921.1711	938.5476	960.7283	1023.5861	1048.8697	1056.7148	1069.7289	1085.5595	1116.84	1135.4594	1179.7778	1181.8552	1232.1462	1243.0953	1304.4897	1421.0693	1482.019	1487.916	1514.8022	1922.7596	3113.0779	3117.9603	3126.5855	3199.4996	3213.5998	3223.6352	3240.2002
O=C1OC2CC12N1CC1	O=C1O[C@H]2C[C@@]12N1CC1	
InChI=1S/C6H7NO2/c8-5-6(7-1-2-7)3-4(6)9-5/h4H,1-3H2	InChI=1S/C6H7NO2/c8-5-6(7-1-2-7)3-4(6)9-5/h4H,1-3H2/t4-,6-/m0/s1
