17
gdb 74881	2.85695	1.71678	1.23172	3.2445	73.74	-0.2487	-0.0126	0.2361	1019.737	0.136255	-421.797401	-421.790049	-421.789105	-421.829045	28.888	
C	-0.0285627002	 1.5078113665	 0.0744905003	-0.490082
C	 0.0050196215	 0.0071499341	-0.0068022649	 0.335203
C	-0.0041766659	-0.6587161792	-1.1720042358	-0.181534
C	 0.0112853783	-2.1326828442	-1.2690203503	-0.004085
O	 1.1877380379	-2.8392127805	-0.8190039476	-0.234567
C	 0.0185384289	-2.9361560186	-0.0245656256	 0.005279
C	 0.0255000404	-2.2092139534	 1.2921667907	 0.018678
O	 1.1989281111	-1.4864878679	 1.6257734753	-0.23124
C	 0.0222411998	-0.7280371653	 1.2858539779	-0.074714
H	 0.8757365491	 1.8942998926	 0.5607099665	 0.141867
H	-0.1050948425	 1.962578192	-0.916194706	 0.12625
H	-0.8790108659	 1.851880918	 0.6766498122	 0.12815
H	-0.0414537585	-0.1035504649	-2.1057506237	 0.093643
H	-0.4248666076	-2.5635204295	-2.1689156907	 0.093243
H	-0.4644436524	-3.9130142082	-0.021603075	 0.092298
H	-0.4503858086	-2.7296133653	 2.1229986238	 0.092278
H	-0.4076822155	-0.2016460962	 2.1381713929	 0.089333
129.5719	176.4742	216.4099	269.9229	325.2828	440.366	462.3801	532.3043	575.1897	664.0434	730.9256	763.381	820.5839	849.6341	863.9792	891.9768	943.7804	961.1743	1001.1153	1050.1761	1064.281	1068.5832	1084.7745	1118.2081	1148.8336	1189.2585	1266.8949	1286.1929	1337.6969	1381.7458	1394.4609	1413.2395	1421.103	1467.2523	1476.8989	1490.3232	1707.9837	3020.1801	3069.2473	3101.8594	3108.1928	3117.7331	3118.9898	3126.0181	3160.5347
CC1=CC2OC2C2OC12	CC1=C[C@H]2O[C@H]2[C@H]2O[C@@H]12	
InChI=1S/C7H8O2/c1-3-2-4-6(8-4)7-5(3)9-7/h2,4-7H,1H3	InChI=1S/C7H8O2/c1-3-2-4-6(8-4)7-5(3)9-7/h2,4-7H,1H3/t4-,5+,6-,7+/m1/s1
