14
gdb 26054	3.21242	1.25171	1.03384	2.5845	68.4	-0.2535	-0.0107	0.2428	1130.7565	0.100306	-436.667512	-436.65941	-436.658466	-436.701036	29.326	
O	 0.1551840723	 1.5127356362	-0.0703378581	-0.399803
C	 0.0728292736	 0.1071386101	-0.0034296432	-0.149923
C	 0.6237386595	-0.5547503949	-1.1985588768	 0.331258
C	 1.0747428699	-1.0888101541	-2.1752917033	-0.467515
C	 0.7805457216	-0.3853811093	 1.2345920803	 0.394558
N	 1.6641731198	 0.2753524298	 1.9084545851	-0.324727
C	 2.0447448486	-0.5962426214	 2.923914526	-0.106022
C	 1.3515733302	-1.7493719119	 2.7929283809	-0.043153
O	 0.5287121774	-1.6241915408	 1.7032836357	-0.169829
H	 1.0017616771	 1.7592671623	 0.3281145578	 0.302912
H	-0.9911444173	-0.1518910229	 0.0766343536	 0.138955
H	 1.4719841006	-1.5576217488	-3.0418048527	 0.205344
H	 2.7794940971	-0.3235092788	 3.663954079	 0.133937
H	 1.3019992195	-2.6817814155	 3.3274010857	 0.154008
42.4333	98.8018	186.302	215.4479	273.6459	338.1903	419.9039	458.5265	587.7766	627.7836	640.54	676.2339	711.9889	764.2283	821.1532	865.2407	930.499	942.6829	992.8195	1082.9171	1101.2146	1142.7938	1169.846	1219.1357	1293.6093	1330.9258	1383.1811	1447.1095	1554.6592	1615.5574	2236.2738	3028.5553	3270.3033	3306.5239	3502.0655	3750.3838
OC(C#C)C1=NC=CO1	O[C@@H](C#C)c1ncco1	
InChI=1S/C6H5NO2/c1-2-5(8)6-7-3-4-9-6/h1,3-5,8H	InChI=1S/C6H5NO2/c1-2-5(8)6-7-3-4-9-6/h1,3-5,8H/t5-/m0/s1
