15
gdb 42850	2.78779	1.88995	1.61344	2.9584	63.24	-0.2548	-0.0217	0.2331	860.9522	0.113846	-457.715209	-457.70877	-457.707826	-457.74613	25.352	
O	 0.1568232282	-0.0228954853	 0.2840925332	-0.31116
C	 0.0731404118	 1.141859867	 0.0671874378	 0.451557
C	-1.0318816639	 2.2315624119	 0.0284079564	-0.057668
O	-0.0809157926	 3.0043075921	 0.8437625086	-0.294876
C	 0.9851521253	 2.3893481179	 0.0433947994	-0.071077
C	 0.6912373174	 2.9748977721	-1.357915502	 0.115742
O	 0.7706899066	 2.0248069538	-2.4412643561	-0.294689
C	-0.6721708611	 1.9962011738	-2.5867752804	-0.111558
C	-0.8610285905	 2.8982807427	-1.3481345809	-0.078088
H	-2.0183447564	 2.1190834266	 0.4730540815	 0.108566
H	 1.9772438971	 2.4498726373	 0.484470508	 0.108248
H	 1.2042336558	 3.9146865742	-1.5751790428	 0.095157
H	-0.9839619961	 2.4602947267	-3.5289436246	 0.114469
H	-1.072871805	 0.9780987225	-2.5318471809	 0.124726
H	-1.4504479165	 3.8067759269	-1.4599334174	 0.100652
136.2813	149.7138	314.1633	373.6008	447.6064	517.9979	619.9758	648.1278	781.1731	822.7452	850.3284	865.5145	867.2944	880.8095	943.1212	979.2554	1008.9862	1026.0848	1031.8764	1053.3795	1070.0904	1153.1056	1156.5394	1180.2874	1223.3766	1233.5258	1241.4171	1288.151	1322.5433	1333.0849	1355.5988	1522.0717	1931.7702	3031.3231	3079.6303	3084.5655	3128.5944	3156.1875	3162.7693
O=C1C2OC1C1OCC21	O=C1[C@H]2O[C@@H]1[C@H]1OC[C@@H]21	
InChI=1S/C6H6O3/c7-3-4-2-1-8-5(2)6(3)9-4/h2,4-6H,1H2	InChI=1S/C6H6O3/c7-3-4-2-1-8-5(2)6(3)9-4/h2,4-6H,1H2/t2-,4-,5-,6-/m0/s1
