20
gdb 113465	3.91312	1.01372	0.98244	2.4542	80.06	-0.2279	0.0856	0.3136	1310.4229	0.169751	-403.073499	-403.064933	-403.063989	-403.106914	32.766	
C	 0.2743320279	 1.5325404017	 0.0974520462	-0.37687
C	-0.240071074	 0.1238970553	-0.1847119621	-0.115685
N	 0.5245981676	-0.4981076595	-1.2630547214	-0.126165
C	 1.7230769621	-1.2544633118	-0.8863173615	-0.333626
C	 0.4984141406	-1.9372490033	-1.3730800227	 0.371429
C	-0.328837234	-3.0059398737	-0.5942635036	-0.351464
C	-0.4714426819	-3.7453951145	-1.9365269953	 0.034615
O	-1.1332895331	-2.8533785754	-2.8358313537	-0.244654
C	 0.2863680336	-2.7093690119	-2.6611759169	-0.067994
H	 1.3155549322	 1.5094485671	 0.4358399834	 0.116593
H	 0.227164002	 2.145668037	-0.8067628609	 0.128858
H	-0.3242084113	 2.0131131269	 0.8774329889	 0.111525
H	-0.2126280004	-0.4771674241	 0.7413473023	 0.08146
H	-1.2866123678	 0.1636147134	-0.5085577255	 0.111561
H	 2.5906220612	-1.1246050725	-1.5289199481	 0.115009
H	 1.9537300841	-1.3592088367	 0.174433196	 0.105685
H	 0.2606048116	-3.54353807	 0.1524303537	 0.111165
H	-1.2759047278	-2.6805508049	-0.1574221847	 0.116742
H	-0.5604064143	-4.8086294006	-2.1221831608	 0.106973
H	 0.9060880816	-2.7581461423	-3.5486118534	 0.104844
71.522	122.8141	144.9914	196.9642	253.7012	332.4941	368.5324	422.4163	458.6894	515.158	640.2661	771.6548	798.8588	815.5575	843.6385	862.1281	883.1019	897.1897	947.6007	957.694	981.347	1026.6759	1053.88	1065.2039	1102.5168	1112.4712	1139.5796	1169.4156	1182.6464	1207.0138	1216.2844	1231.9474	1264.2691	1308.1546	1370.0493	1385.1677	1409.5256	1426.7177	1469.6127	1488.5854	1489.7531	1505.2695	1517.606	2944.4524	3038.6542	3053.3008	3064.1596	3077.7749	3107.3818	3120.103	3121.1821	3166.1014	3187.4146	3202.7376
CCN1CC11CC2OC12	CCN1C[C@]21C[C@H]1O[C@@H]21	
InChI=1S/C7H11NO/c1-2-8-4-7(8)3-5-6(7)9-5/h5-6H,2-4H2,1H3	InChI=1S/C7H11NO/c1-2-8-4-7(8)3-5-6(7)9-5/h5-6H,2-4H2,1H3/t5-,6-,7-,8?/m1/s1
