20
gdb 54985	3.00508	1.10798	1.06536	3.2883	80.75	-0.2423	0.0306	0.2729	1253.2167	0.17067	-403.165314	-403.155887	-403.154943	-403.20072	34.469	
N	-0.0203676971	 1.1464663605	 0.563868611	-0.53786
C	 0.0390295984	-0.0291285307	-0.1321801043	 0.424668
O	 1.0591719148	-0.3975019355	-0.6912912785	-0.38397
C	-1.2296299447	-0.8176126944	-0.1508592359	-0.193926
C	-1.4651685429	-1.7349846668	-1.3406226929	-0.3555
C	-1.1509440907	-2.3331599208	-0.0197841113	 0.375187
C	 0.0795435358	-3.1376678724	 0.4224425777	-0.279597
C	-0.7786139089	-3.7301062843	 1.5798567299	-0.205671
C	-2.060103802	-3.1541443123	 0.9074589118	-0.294854
H	 0.8257551033	 1.6835334055	 0.6578362857	 0.258404
H	-0.8289850789	 1.4191974653	 1.0932060067	 0.255469
H	-2.1029405876	-0.346322931	 0.2921703922	 0.071907
H	-2.4784546419	-1.8056504267	-1.7231961171	 0.108259
H	-0.6770814829	-1.729507721	-2.0865724678	 0.13796
H	 0.3648615782	-3.8892219467	-0.3199788024	 0.101758
H	 0.9693730835	-2.5675489987	 0.6901055298	 0.12258
H	-0.743953781	-4.813288615	 1.7130101392	 0.097383
H	-0.5650020883	-3.2570062465	 2.5416651124	 0.101253
H	-2.7507678619	-2.5971772442	 1.5472897753	 0.093465
H	-2.6308170755	-3.9140311241	 0.3636710385	 0.103085
43.6047	59.0416	87.8303	152.1114	155.6999	306.8735	322.5968	384.6249	432.6519	528.529	586.9886	622.7169	702.4966	759.4007	774.8064	814.4394	847.669	878.7543	908.0811	937.2482	956.4396	961.4928	1037.5339	1060.3208	1072.0967	1083.095	1122.1744	1136.6143	1186.0626	1224.2875	1227.6327	1254.4036	1260.3693	1276.712	1290.6577	1364.1452	1433.4003	1474.2779	1477.4958	1485.1238	1507.7801	1614.3509	1773.2848	3041.7116	3059.483	3064.5322	3087.4038	3114.9367	3123.9079	3132.2064	3137.1032	3218.5342	3605.8071	3743.8352
NC(=O)C1CC11CCC1	NC(=O)[C@H]1CC21CCC2	
InChI=1S/C7H11NO/c8-6(9)5-4-7(5)2-1-3-7/h5H,1-4H2,(H2,8,9)	InChI=1S/C7H11NO/c8-6(9)5-4-7(5)2-1-3-7/h5H,1-4H2,(H2,8,9)/t5-/m1/s1
