13
gdb 124921	2.02976	1.90949	0.98996	2.7857	67.63	-0.2738	-0.0434	0.2304	1096.5167	0.089075	-452.767429	-452.759404	-452.75846	-452.800452	28.566	
C	 0.0568704105	 1.485553362	 0.013756182	-0.499155
C	-0.0550237753	 0.0081812142	-0.060355893	 0.384036
C	-1.1236096431	-0.8448095576	 0.0522217448	-0.114954
C	-2.4774571196	-0.5180535692	 0.2820339298	 0.207709
N	-3.5845165047	-0.235725948	 0.4709046831	-0.346915
C	-0.5299461299	-2.1366887611	-0.1196519424	 0.408159
O	-1.2006451272	-3.2879460377	-0.087063857	-0.40087
N	 0.7605896508	-2.0684338737	-0.315193267	-0.250074
O	 1.0584750376	-0.6942260956	-0.276210846	-0.209367
H	 0.7321548706	 1.7798381786	 0.8233033503	 0.165805
H	 0.46209707	 1.8877158547	-0.9200764974	 0.165806
H	-0.9255100794	 1.9250882607	 0.1931314599	 0.168444
H	-0.5723702303	-4.0095073474	-0.2294459672	 0.321376
84.297	127.2434	142.0938	212.0544	273.715	374.9528	412.6428	452.7602	545.8708	547.9227	593.2265	625.0343	662.9231	759.4486	795.8388	938.9196	1015.5919	1061.715	1080.4279	1221.4833	1262.2342	1341.3034	1414.0488	1471.6635	1476.051	1527.2632	1580.3522	1661.8531	2352.2788	3048.5973	3109.2525	3149.5413	3777.0123
CC1=C(C#N)C(O)=NO1	Cc1c(C#N)c(O)no1	
InChI=1S/C5H4N2O2/c1-3-4(2-6)5(8)7-9-3/h1H3,(H,7,8)	InChI=1S/C5H4N2O2/c1-3-4(2-6)5(8)7-9-3/h1H3,(H,7,8)
