24
gdb 12410	2.61912	1.88829	1.35501	0.0798	84.2	-0.2835	0.0775	0.361	1053.5916	0.22559	-314.305264	-314.296681	-314.295737	-314.337521	34.201	
C	-0.0431221549	 1.5589721304	-0.0522404757	-0.415042
C	 0.0635725763	 0.0306775091	-0.0131088227	 0.054255
C	 0.6688913071	-0.5309198722	-1.312914037	-0.183163
C	 0.7053578413	-2.0655727018	-1.3160002031	-0.196185
C	 1.4337341652	-2.6124757503	-0.0805399016	-0.182977
C	 0.8301232858	-2.0450335138	 1.2131722583	-0.205333
C	 0.8073770205	-0.5017062957	 1.241191788	 0.037148
C	 2.2145583343	 0.0887102889	 1.4339408468	-0.397109
H	 0.9319817758	 2.0303163942	-0.2145881414	 0.114435
H	-0.7004963135	 1.8814301464	-0.8669659123	 0.10734
H	-0.4533388068	 1.9553435753	 0.8834795378	 0.106102
H	-0.961401798	-0.3650545601	 0.0554488667	 0.063097
H	 0.0907095448	-0.1666458869	-2.1709637525	 0.084951
H	 1.6865654611	-0.139030277	-1.4459703813	 0.090867
H	-0.3248911033	-2.4487382596	-1.3241858144	 0.089199
H	 1.1793064268	-2.4327454162	-2.2336541748	 0.085864
H	 1.3856010118	-3.7073570258	-0.0647777842	 0.08719
H	 2.4991700625	-2.3546711294	-0.1406379045	 0.09377
H	-0.2006939579	-2.4130651901	 1.3092516564	 0.085896
H	 1.3762284859	-2.4242456817	 2.085417021	 0.083297
H	 0.215820679	-0.1983710154	 2.1163572743	 0.059836
H	 2.8767590491	-0.1157594644	 0.5869892744	 0.11526
H	 2.1805638931	 1.1733743873	 1.569636365	 0.112988
H	 2.685428504	-0.3379071412	 2.326103717	 0.108314
127.0793	172.5228	198.0723	241.2633	280.8675	306.0183	318.6686	383.7221	410.3912	467.0759	533.3395	594.0255	727.553	809.3131	831.8531	845.6435	890.2363	929.5783	951.5435	986.0225	989.1328	1016.7032	1032.1393	1065.8442	1102.6185	1107.8043	1114.8319	1177.6977	1185.6702	1242.0468	1274.0959	1282.1278	1329.2026	1339.2646	1348.9205	1366.9795	1371.1348	1379.0066	1391.486	1398.7472	1411.8796	1416.1338	1480.5885	1482.4917	1485.5757	1496.5422	1497.3385	1503.3195	1506.3595	1512.4778	2978.9877	2996.2516	3006.1848	3012.114	3014.1669	3019.7718	3026.1435	3037.5375	3050.0033	3051.3241	3057.0583	3065.2711	3090.9679	3094.571	3099.9872	3109.3448
CC1CCCCC1C	C[C@H]1CCCC[C@H]1C	
InChI=1S/C8H16/c1-7-5-3-4-6-8(7)2/h7-8H,3-6H2,1-2H3	InChI=1S/C8H16/c1-7-5-3-4-6-8(7)2/h7-8H,3-6H2,1-2H3/t7-,8+
