15
gdb 15983	3.99914	1.60314	1.25944	2.2554	65.45	-0.2564	0.0048	0.2612	965.8914	0.117723	-399.760168	-399.752435	-399.751491	-399.79273	27.136	
C	-0.0581145085	 1.403822184	 0.1435181767	-0.341627
N	-0.0610001704	-0.0470449592	 0.2609102201	-0.33402
C	-1.0874730644	-0.6901745515	-0.0338453892	 0.411875
O	-2.3347169177	-0.2766301978	-0.5059143951	-0.280948
C	-2.8591140081	-1.6399154386	-0.505099717	-0.153172
C	-1.4887339676	-2.1381327683	-0.0464888848	 0.271812
C	-0.7143429484	-3.3437544122	-0.3389065793	-0.250872
O	-1.2416723113	-3.0774241965	 0.9685593651	-0.247308
H	 0.70069422	 1.700735783	-0.5888866802	 0.131596
H	-1.0222408829	 1.8306782158	-0.1551810394	 0.129389
H	 0.2397362011	 1.8364173748	 1.1044095367	 0.133181
H	-3.6614118173	-1.7601970227	 0.2273151871	 0.134883
H	-3.1916661564	-1.9377408089	-1.5024712311	 0.126797
H	-1.1853716679	-4.1664053067	-0.8746748895	 0.1257
H	 0.3670955998	-3.2660977053	-0.4285614501	 0.142714
75.2989	137.5626	144.8503	172.772	282.157	306.5888	383.3342	518.1515	630.85	699.0863	755.3905	867.2106	884.7799	941.1668	970.897	1038.7074	1072.4038	1084.5343	1127.6532	1132.4852	1147.8486	1155.6543	1167.7718	1220.4995	1313.2728	1438.4607	1453.1253	1492.3109	1496.55	1508.4687	1535.3033	1856.5892	3020.245	3062.1308	3086.4247	3090.5823	3093.0281	3123.1005	3187.1116
CN=C1OCC11CO1	CN=C1OC[C@]21CO2	
InChI=1S/C5H7NO2/c1-6-4-5(2-7-4)3-8-5/h2-3H2,1H3	InChI=1S/C5H7NO2/c1-6-4-5(2-7-4)3-8-5/h2-3H2,1H3/t5-/m1/s1
