23
gdb 81939	2.05309	1.77712	1.077	0.1638	92.55	-0.2079	0.0333	0.2413	1223.6515	0.205354	-351.173232	-351.163731	-351.162787	-351.206844	36.807	
C	-0.2286034559	 1.543173562	-0.0100652197	-0.392663
C	 0.0221285355	 0.0272876834	 0.0007236004	-0.075471
C	 0.8415932813	-0.4826406062	-1.1858165751	-0.046089
C	 2.2815791935	-0.0512695117	-1.3187655695	-0.285989
C	 1.9416498342	-1.362395797	-0.6359516133	-0.122203
C	 1.8147558249	-1.2861231581	 0.8544372524	 0.214409
C	 2.7870167056	-2.0173547066	 1.7281213205	-0.502012
C	 0.7924941743	-0.4918518194	 1.214677223	 0.206604
C	 0.3647289324	-0.1113508911	 2.5988010301	-0.499856
H	 0.7132486954	 2.1009802567	 0.0060139603	 0.113788
H	-0.7764450963	 1.836875031	-0.9113271528	 0.111724
H	-0.821657643	 1.8577284086	 0.854760372	 0.11035
H	-0.9649144955	-0.4629161652	-0.0172792359	 0.071432
H	 0.3174134238	-0.7507646896	-2.0960417775	 0.077958
H	 2.710744012	-0.0951736174	-2.3148970914	 0.1036
H	 2.6598106792	 0.7556433944	-0.6993269423	 0.106784
H	 2.239210571	-2.2954971938	-1.1043294411	 0.076228
H	 3.8142108386	-1.6761194846	 1.5449135844	 0.125912
H	 2.5763583667	-1.8919018349	 2.7927994015	 0.119813
H	 2.7756803144	-3.093188387	 1.5096786966	 0.122102
H	 0.9447509617	-0.6252209531	 3.3690716968	 0.119512
H	 0.4673594361	 0.9672312762	 2.7742218138	 0.124932
H	-0.6946222998	-0.3510272966	 2.7627135067	 0.119133
111.9721	146.3013	170.2978	187.8446	226.4538	239.7238	258.598	296.1921	378.7416	447.6158	478.1997	561.9228	611.9418	650.0652	714.4479	769.8059	816.0778	873.514	916.1323	939.4925	979.2936	1005.926	1015.3267	1042.6623	1061.8916	1066.2509	1074.5984	1097.8968	1103.6085	1127.7396	1149.5127	1186.4644	1210.9855	1237.5704	1314.8367	1340.657	1359.7101	1380.7368	1406.1533	1408.9321	1420.6017	1474.4305	1477.5396	1480.5525	1486.308	1491.7262	1498.3176	1502.0715	1723.6739	2964.6452	3012.0872	3015.6495	3032.4719	3053.7546	3057.0991	3099.5378	3104.1681	3110.8594	3117.7092	3120.3806	3152.051	3170.3561	3207.9762
CC1C2CC2C(C)=C1C	C[C@H]1[C@H]2C[C@H]2C(=C1C)C	
InChI=1S/C9H14/c1-5-6(2)8-4-9(8)7(5)3/h6,8-9H,4H2,1-3H3	InChI=1S/C9H14/c1-5-6(2)8-4-9(8)7(5)3/h6,8-9H,4H2,1-3H3/t6-,8-,9+/m1/s1
