22
gdb 111987	4.00236	1.05913	0.93663	1.5378	87.98	-0.2258	0.0169	0.2427	1359.485	0.194545	-367.20502	-367.195943	-367.194999	-367.238561	35.183	
C	-0.0458391248	 1.5649176824	-0.1142757599	-0.387
C	 0.0461708365	 0.0378380763	-0.050264992	-0.169006
C	 0.7158315629	-0.4997066617	 1.229338383	-0.032703
C	-0.0372783107	-0.2091376455	 2.5194445179	-0.082258
C	-0.2895348233	-1.3108622843	 3.2275275384	-0.114707
C	 0.2241342233	-2.5330356926	 2.5270415046	 0.305933
C	 0.7162530978	-3.7242423819	 3.305973041	-0.497508
N	-0.4808263674	-2.7292715109	 1.2228384892	-0.366085
C	 0.8257130841	-2.0259380075	 1.2647673523	-0.121347
H	 0.9433852828	 2.0296570821	-0.0291225693	 0.109058
H	-0.4832103981	 1.8905398368	-1.0633783213	 0.111559
H	-0.6709200266	 1.9684773406	 0.6889017072	 0.116653
H	-0.9495643055	-0.409521132	-0.1296696805	 0.120411
H	 0.6194007965	-0.3235759257	-0.9139706582	 0.088021
H	 1.7268106879	-0.0667009222	 1.2890071954	 0.072322
H	-0.3500873152	 0.7913799821	 2.7963093794	 0.094595
H	-0.8160133286	-1.352043645	 4.174666148	 0.091009
H	-0.1062202933	-4.216325451	 3.8384420531	 0.124646
H	 1.1775480526	-4.4652503253	 2.6446034479	 0.112974
H	 1.462659635	-3.4272605457	 4.0507035969	 0.12642
H	-0.3093375455	-3.6839336087	 0.9072647537	 0.218549
H	 1.6836064495	-2.5108981503	 0.8090160928	 0.078464
79.5927	127.8998	166.9198	207.0807	242.2958	260.6191	300.3164	366.5476	413.2512	504.7757	542.0042	623.1136	709.6892	756.8341	765.6208	815.6102	850.2652	863.5861	917.3182	939.1612	954.4209	976.7226	977.3912	1043.855	1056.1142	1067.1467	1105.1557	1117.7684	1129.5899	1146.4129	1165.2425	1267.1517	1284.7133	1298.781	1320.3371	1348.0659	1369.082	1377.6695	1412.5105	1414.8194	1438.188	1484.5872	1491.1616	1500.3785	1500.8086	1507.9607	1670.0897	2979.2932	3022.747	3023.7505	3029.4818	3077.1396	3085.8016	3097.5024	3099.1953	3102.7297	3153.2476	3181.7751	3206.9526	3457.0923
CCC1C=CC2(C)NC12	CC[C@H]1C=C[C@@]2(C)N[C@@H]12	
InChI=1S/C8H13N/c1-3-6-4-5-8(2)7(6)9-8/h4-7,9H,3H2,1-2H3	InChI=1S/C8H13N/c1-3-6-4-5-8(2)7(6)9-8/h4-7,9H,3H2,1-2H3/t6-,7-,8+/m0/s1
