16
gdb 49373	2.50543	1.37473	0.96745	4.2136	80.44	-0.2382	-0.0136	0.2246	1197.0124	0.123853	-396.891118	-396.882416	-396.881472	-396.92499	31.652	
N	-0.0387566411	 1.2262700618	-0.3114257492	-0.45131
C	-0.1622189916	-0.0418580959	-0.3640630708	 0.069589
N	-1.3529376881	-0.6526432898	-0.0696552651	-0.060432
C	-1.7533252558	-2.0743832397	-0.0262349056	-0.17489
C	-3.1999567466	-1.571229764	 0.3298679979	-0.34087
C	-2.6257040269	-0.158732399	 0.2818497751	 0.403397
N	-3.1056069542	 0.9859424031	 0.4822619959	-0.544748
C	-1.5837666522	-2.8161743568	-1.2640161294	 0.330129
C	-1.4336057578	-3.4349705597	-2.2831586498	-0.441773
H	 0.9067032443	 1.502399858	-0.5667207926	 0.231103
H	 0.6196700598	-0.759198668	-0.6404212885	 0.107566
H	-1.276296743	-2.6113366326	 0.8018530078	 0.121751
H	-3.943530116	-1.7821089412	-0.4388972985	 0.147334
H	-3.5692476825	-1.8922254896	 1.3044269096	 0.140224
H	-2.3847693142	 1.6979554517	 0.3494025783	 0.252787
H	-1.3074896842	-3.9791923184	-3.1868107451	 0.210143
70.1982	84.804	163.0722	193.46	202.4302	246.2252	404.9928	470.3449	488.8276	517.0684	594.143	635.5493	670.6426	745.3129	786.6336	800.1651	845.8087	912.7208	992.2146	998.293	1039.9604	1051.7483	1108.7669	1123.9018	1208.4535	1234.8356	1255.5224	1287.6694	1361.5591	1387.4667	1437.8026	1467.3018	1697.361	1803.6773	2239.4588	3036.0437	3054.0726	3097.1769	3157.052	3477.4902	3500.5979	3514.1893
N=CN1C(CC1=N)C#C	[NH][CH]N1[C@@H](C[C]1[NH])C#C	
InChI=1S/C6H7N3/c1-2-5-3-6(8)9(5)4-7/h1,4-5,7-8H,3H2	InChI=1S/C6H7N3/c1-2-5-3-6(8)9(5)4-7/h1,4-5,7-8H,3H2/t5-/m1/s1
