23
gdb 59575	2.94284	1.18511	0.99788	1.7613	84.72	-0.2376	0.0722	0.3098	1302.4632	0.205653	-388.261739	-388.25255	-388.251605	-388.295887	35.207	
C	-0.149477484	 1.5009364049	 0.0659677365	-0.390637
C	-0.0104628113	-0.0264646162	-0.0073161388	 0.014471
C	 0.6461783048	-0.4558186842	-1.3266799954	-0.391306
C	 0.7705166332	-0.5557992505	 1.1962441194	 0.050768
C	 0.1426373861	-0.4265900977	 2.6260568449	-0.277114
C	 0.3745912032	-1.9379755538	 2.8536776043	 0.121167
O	-0.7856683011	-2.7339392347	 2.5366481778	-0.291755
C	-0.3059574987	-2.9754776616	 1.1930519886	-0.083454
C	 0.9372498557	-2.0935031605	 1.412756573	-0.119109
H	 0.8336942564	 1.9848681789	 0.0210867985	 0.10997
H	-0.7453946712	 1.8827534469	-0.769479274	 0.110012
H	-0.6344684326	 1.8173037357	 0.9948098696	 0.117104
H	-1.0230109439	-0.4526779933	 0.0260431281	 0.076006
H	 1.6597262516	-0.0448489924	-1.4092981605	 0.11092
H	 0.722966042	-1.5451757579	-1.4061755015	 0.113352
H	 0.0732169272	-0.0980299923	-2.1884716648	 0.111161
H	 1.7667546975	-0.096760024	 1.1866718362	 0.067769
H	 0.6859696851	 0.2369472582	 3.3037866154	 0.097724
H	-0.9192560938	-0.1670707407	 2.6507881879	 0.108025
H	 0.8683996235	-2.2666713041	 3.772006076	 0.072421
H	-0.0777328698	-4.0381886826	 1.0394759078	 0.098714
H	-1.0261230458	-2.6582686937	 0.4294644313	 0.101097
H	 1.9030841558	-2.5350793744	 1.1696722695	 0.072695
59.0775	88.7961	161.3427	226.9625	233.052	261.6762	309.463	363.3517	395.1434	442.5102	498.4455	658.2061	745.2184	773.637	839.8905	881.1149	911.9875	924.6565	931.5985	964.084	968.5012	991.1536	1009.4932	1024.8741	1043.4502	1079.1267	1108.7726	1143.5212	1154.2755	1185.7349	1189.7467	1212.7341	1224.0525	1260.9343	1276.5507	1297.2647	1309.0711	1331.4031	1349.8315	1363.6395	1393.1369	1399.3125	1421.5726	1466.9952	1487.4319	1492.0935	1504.3901	1510.3357	1523.2597	3001.1626	3010.7366	3023.2354	3024.3703	3030.0217	3054.2232	3055.0494	3071.0344	3087.698	3093.6042	3098.7416	3102.48	3111.6549	3114.4283
CC(C)C1CC2OCC12	CC(C)[C@H]1C[C@H]2OC[C@@H]12	
InChI=1S/C8H14O/c1-5(2)6-3-8-7(6)4-9-8/h5-8H,3-4H2,1-2H3	InChI=1S/C8H14O/c1-5(2)6-3-8-7(6)4-9-8/h5-8H,3-4H2,1-2H3/t6-,7+,8-/m1/s1
