21
gdb 60606	2.73983	1.01909	0.91766	2.7285	79.07	-0.235	-0.0054	0.2296	1386.8216	0.179413	-424.23095	-424.220464	-424.21952	-424.267182	37.836	
C	 0.1942566296	 1.6576230939	 0.1639588681	-0.403882
C	 0.0677123509	 0.1254744883	 0.0063141794	-0.09983
C	 0.6982442214	-0.3459435547	-1.2892944023	 0.009581
C	 0.1380631956	-1.5446871487	-2.0313983853	-0.34431
C	-0.0115524644	-0.1524315176	-2.59497873	 0.073278
O	-1.2605927704	 0.4812073394	-2.5403573458	-0.418765
C	 0.7424798655	-0.5413956891	 1.2104113463	 0.395466
C	-0.1486950478	-0.8567567999	 2.3979631513	-0.481984
O	 1.9287996403	-0.7800832629	 1.2209442362	-0.315019
H	 1.2464311572	 1.9578439011	 0.1409757456	 0.12879
H	-0.3326810446	 2.1523410257	-0.6549274902	 0.143739
H	-0.2354436735	 2.0050218629	 1.1094653877	 0.109898
H	-0.9978098168	-0.1251235084	 0.0086440968	 0.081445
H	 1.7774366302	-0.2353915888	-1.3040913043	 0.107234
H	 0.8218346277	-2.2386139667	-2.5078027718	 0.113991
H	-0.7623190745	-1.9975075871	-1.6272560975	 0.108104
H	 0.5915566051	 0.1129859516	-3.4631792353	 0.087009
H	-1.8308236788	 0.0740125606	-3.2004974191	 0.289137
H	-0.769808475	 0.0051812125	 2.6642991122	 0.136467
H	-0.8358748368	-1.6681039257	 2.1282311625	 0.140691
H	 0.4549371193	-1.1644177763	 3.2527899154	 0.138961
38.8595	59.2124	128.1543	146.9398	185.2866	231.3171	239.7897	269.5439	306.8086	354.989	394.2535	460.1166	557.4869	599.1506	610.5904	770.6473	804.6377	837.8217	857.7259	950.8346	964.4337	985.8396	1007.481	1009.4359	1057.0272	1084.964	1109.4641	1134.8254	1161.4466	1177.9144	1210.1031	1237.7542	1291.2033	1313.2724	1321.132	1379.3257	1397.7021	1406.8589	1431.2841	1461.6708	1475.1584	1487.3924	1499.7778	1503.8996	1809.5235	3032.5928	3037.9279	3059.6469	3093.6733	3098.1455	3105.8092	3126.5463	3132.4444	3149.895	3169.5685	3215.8995	3807.9569
CC(C1CC1O)C(C)=O	C[C@@H]([C@H]1C[C@H]1O)C(=O)C	
InChI=1S/C7H12O2/c1-4(5(2)8)6-3-7(6)9/h4,6-7,9H,3H2,1-2H3	InChI=1S/C7H12O2/c1-4(5(2)8)6-3-7(6)9/h4,6-7,9H,3H2,1-2H3/t4-,6-,7-/m1/s1
