21
gdb 91136	2.69807	1.62072	1.405	1.3365	80.8	-0.2404	0.0669	0.3073	1029.3367	0.184605	-387.033983	-387.026414	-387.02547	-387.065632	31.425	
O	 0.2351392109	 1.2886569385	-0.5424245823	-0.424514
C	 0.070825921	-0.0451711275	-0.1097224668	 0.129632
C	 0.2981346134	-0.4180439425	 1.3914209496	-0.302409
C	-1.0657320779	-1.1746982709	 1.3877578876	-0.028366
C	-2.3257152337	-0.4720532911	 1.9886178565	-0.010607
C	-2.1604281872	 0.8731604472	 2.7365745937	-0.238485
C	-2.1904149899	 1.6286435739	 1.3700953472	-0.245238
C	-2.5134012845	 0.2894289481	 0.6326861249	-0.021701
C	-1.3790063111	-0.5614763325	-0.0235968658	-0.048929
H	 1.1781329707	 1.4763963411	-0.5878964354	 0.282063
H	 0.6522572344	-0.7247455844	-0.7506588626	 0.066867
H	 1.1774879113	-1.0369929419	 1.5874818959	 0.092755
H	 0.3384512783	 0.4500981092	 2.0526510388	 0.106498
H	-0.9956538583	-2.2513076595	 1.5465886078	 0.060975
H	-3.0732427884	-1.1689581142	 2.3735163264	 0.0569
H	-3.0288318039	 1.1006800666	 3.3609879906	 0.094218
H	-1.267263773	 0.9940592532	 3.3567670664	 0.093536
H	-2.99011751	 2.3691919481	 1.2913415706	 0.093028
H	-1.2577076614	 2.1013946034	 1.0663220956	 0.124738
H	-3.4588009329	 0.2769452778	 0.0881506595	 0.060675
H	-1.7246524178	-1.1676844424	-0.8634156282	 0.058367
115.5887	193.7071	266.5359	278.2082	304.8595	401.1638	436.5413	556.2222	613.3062	669.3518	720.7057	728.6292	796.2287	826.0179	832.6049	864.7097	904.9076	930.4401	954.3153	966.7959	974.6785	1039.3211	1070.5148	1084.721	1098.6858	1116.6068	1121.5883	1144.6778	1192.2665	1200.7944	1205.9227	1221.1472	1240.4389	1246.3154	1261.3133	1270.4876	1295.9325	1309.7702	1324.4581	1337.0725	1337.7884	1427.4325	1475.9219	1487.4529	1509.0883	2978.2148	3049.7653	3062.2304	3068.172	3072.4995	3077.0111	3090.5667	3094.3973	3101.5819	3118.6364	3150.4017	3813.3326
OC1CC2C3CCC3C12	O[C@H]1C[C@H]2[C@H]3CC[C@H]3[C@@H]12	
InChI=1S/C8H12O/c9-7-3-6-4-1-2-5(4)8(6)7/h4-9H,1-3H2	InChI=1S/C8H12O/c9-7-3-6-4-1-2-5(4)8(6)7/h4-9H,1-3H2/t4-,5+,6-,7-,8+/m0/s1
