19
gdb 92641	3.27643	1.32434	1.02536	2.0685	78.89	-0.2337	0.0174	0.2511	1165.1488	0.160619	-423.005997	-422.998103	-422.997158	-423.03826	30.994	
O	-0.1486746341	 1.4558641948	-0.0336714393	-0.428117
C	 0.0221369395	 0.0624596636	 0.004888157	 0.04744
C	 0.2742109477	-0.6625922416	 1.3818365018	-0.300461
C	-0.7519013399	-1.7546783502	 0.9429075366	-0.06358
C	-1.9336192398	-2.1862966018	 1.8049802016	-0.105977
O	-3.0033947248	-2.5640646742	 0.9435501781	-0.254892
C	-3.5462877243	-1.5022641333	 0.1725411605	-0.099421
C	-2.5161412698	-0.5419999376	-0.3698173226	-0.253444
C	-1.241342678	-0.7512440708	-0.0794112883	 0.299617
H	 0.7160976807	 1.8671902608	-0.1257045953	 0.285471
H	 0.7690715886	-0.2693880974	-0.7332221081	 0.07621
H	 1.2945750981	-0.9793072088	 1.6108336107	 0.094696
H	-0.1174052935	-0.0454641856	 2.194996503	 0.11281
H	-0.2560357057	-2.6272196121	 0.5045446288	 0.081887
H	-1.7269869609	-3.0648277599	 2.422873438	 0.104128
H	-2.2359593316	-1.358539538	 2.4668188615	 0.086498
H	-4.1124849623	-1.9844725919	-0.6338999536	 0.118102
H	-4.2766272017	-0.9299224861	 0.7738113778	 0.097588
H	-2.8660883983	 0.3423588002	-0.8938369881	 0.101446
110.4372	155.7752	249.5048	255.341	281.9981	332.4807	418.5639	444.1841	499.5826	569.0743	646.6884	706.024	796.8707	831.991	854.1003	900.909	928.7667	972.1225	1005.3398	1020.182	1044.6649	1069.8242	1102.8871	1134.7178	1140.3433	1165.4283	1198.7942	1225.0075	1237.113	1253.2959	1281.3002	1303.5649	1313.4007	1356.5594	1367.9327	1405.9993	1438.2498	1477.8779	1486.807	1500.1732	1777.5945	2937.1601	2974.5876	2975.8841	3041.8386	3046.2573	3058.5135	3084.8461	3122.4218	3176.7139	3824.1054
OC1CC2COCC=C12	O[C@H]1C[C@H]2COC[CH][C]12	
InChI=1S/C7H10O2/c8-7-3-5-4-9-2-1-6(5)7/h1,5,7-8H,2-4H2	InChI=1S/C7H10O2/c8-7-3-5-4-9-2-1-6(5)7/h1,5,7-8H,2-4H2/t5-,7-/m0/s1
