19
gdb 54595	2.67325	1.42292	1.35631	2.9637	74.67	-0.2234	0.0364	0.2598	1061.7955	0.160434	-419.200706	-419.192146	-419.191202	-419.235482	32.071	
N	-0.1022352661	 1.2633290619	 0.3436125231	-0.524474
C	 0.015169849	 0.0129961637	-0.1701011657	 0.29317
O	 0.9925117978	-0.4164335906	-0.7563950389	-0.381922
C	-1.21804883	-0.8404032785	 0.0528289287	 0.299781
C	-2.0965153004	-1.1256878475	-1.1908773593	-0.297803
C	-3.284613683	-0.5470291124	-0.3757462993	-0.167198
N	-2.400580237	-0.2349339746	 0.7968209369	-0.182091
C	-2.3338847672	-1.3558814907	 1.7932955993	-0.167204
C	-1.093374384	-1.9779805549	 1.0968722298	-0.297879
H	 0.6593488663	 1.9143224715	 0.2540014775	 0.257738
H	-0.9586539977	 1.5143203671	 0.8141969564	 0.266501
H	-1.819105765	-0.54865094	-2.074754498	 0.123485
H	-2.1697119654	-2.1782615052	-1.4723612361	 0.112229
H	-3.734674321	 0.3571541099	-0.7951029609	 0.110456
H	-4.0884219961	-1.2521726688	-0.1394921569	 0.104535
H	-2.1566185043	-0.9860849403	 2.8070957143	 0.110443
H	-3.2340892195	-1.9792303946	 1.808232823	 0.104524
H	-1.2175665532	-2.986662878	 0.6973066966	 0.11223
H	-0.1723947432	-1.9475454681	 1.6817124993	 0.123478
16.4465	62.2338	186.4136	204.5838	298.1054	339.0459	344.2705	447.069	509.7113	640.1682	667.6826	700.8532	750.4516	751.472	783.987	813.6103	900.195	928.1219	946.0392	947.1146	959.2099	1049.8836	1050.58	1104.7074	1148.4638	1179.5466	1186.3978	1220.6246	1220.9014	1229.9973	1250.4844	1274.2647	1304.0218	1315.3381	1380.786	1478.2279	1490.2505	1495.6224	1515.5257	1586.4946	1794.1923	3038.4892	3042.5891	3072.3839	3073.9519	3085.2514	3087.8031	3127.0383	3130.5983	3569.0044	3722.1375
NC(=O)C12CCN1CC2	NC(=O)[C@]12CCN1CC2	
InChI=1S/C6H10N2O/c7-5(9)6-1-3-8(6)4-2-6/h1-4H2,(H2,7,9)	InChI=1S/C6H10N2O/c7-5(9)6-1-3-8(6)4-2-6/h1-4H2,(H2,7,9)
