14
gdb 125330	5.45794	1.31475	1.06651	4.3123	70.21	-0.2318	-0.0261	0.2057	1059.1248	0.102819	-432.87263	-432.865796	-432.864852	-432.903927	25.869	
C	-0.0048383567	 1.4744338515	 0.0734938717	-0.483152
C	 0.0190787712	-0.0129004972	-0.0381921516	 0.280067
C	-0.0849723318	-0.7686430366	-1.1829865241	-0.237393
N	-0.0047003852	-2.08652109	-0.7354495605	-0.047824
C	-0.0058536264	-3.4213004148	-1.0271081178	 0.042453
N	 0.125070511	-4.1532304064	 0.0387082549	-0.128247
O	 0.2210649187	-3.2498315788	 1.1282555075	-0.246059
C	 0.1385947208	-2.0069331181	 0.626379604	 0.525658
N	 0.1604004134	-0.8032458788	 1.1071331123	-0.437364
H	 0.9214038238	 1.8440082071	 0.5256973339	 0.143507
H	-0.1225423677	 1.9417978731	-0.9073898958	 0.122337
H	-0.8293386808	 1.8014312279	 0.7155469629	 0.143544
H	-0.2007909096	-0.5088848331	-2.2199709202	 0.143184
H	-0.1014822407	-3.8464137257	-2.0134910472	 0.179289
126.4686	147.6202	282.3099	289.2028	341.4933	522.9857	566.6598	589.6358	649.0506	663.7856	751.539	788.0922	844.0572	860.8709	888.1768	974.3325	978.9959	1020.8117	1062.4495	1183.2562	1218.6785	1228.0423	1310.3921	1373.0486	1412.4108	1450.6148	1472.0383	1484.824	1579.4697	1586.8856	1649.3327	3039.4533	3096.6974	3123.7705	3279.5154	3295.4695
CC1=CN2C=NOC2=N1	Cc1cn2cnoc2n1	
InChI=1S/C5H5N3O/c1-4-2-8-3-6-9-5(8)7-4/h2-3H,1H3	InChI=1S/C5H5N3O/c1-4-2-8-3-6-9-5(8)7-4/h2-3H,1H3
