21
gdb 95558	2.4184	1.50591	1.09284	1.1665	87.15	-0.2255	-0.0227	0.2028	1186.3492	0.183799	-387.090958	-387.082453	-387.081509	-387.123601	33.543	
C	 0.1180975238	 1.579888128	 0.046583414	-0.391922
C	 0.0036909367	 0.0580847464	 0.0220621026	 0.133875
C	 0.6393274966	-0.5227087909	-1.2556200678	-0.268551
C	 0.2734491309	-1.9111780564	-1.7220893724	-0.057696
C	-0.4738174264	-2.8787100789	-1.1698589442	-0.085494
C	-1.1040222027	-2.9484891277	 0.151157438	-0.073057
C	-0.596146782	-2.4986758339	 1.3056527561	-0.08818
C	 0.7251852116	-1.7890480443	 1.4103387917	-0.122403
O	 0.6315362697	-0.3778089376	 1.223439474	-0.269173
H	 1.1647646864	 1.8901627908	-0.0385139221	 0.118048
H	-0.4465942984	 2.0256952491	-0.7776816879	 0.109462
H	-0.2754638773	 1.9666473148	 0.9899267971	 0.122671
H	-1.0603049083	-0.2168627479	 0.0386923691	 0.079003
H	 0.381212511	 0.1548355539	-2.0822527305	 0.109007
H	 1.7333111973	-0.4446718794	-1.1667415204	 0.118456
H	 0.656802059	-2.1238909463	-2.7200906653	 0.089779
H	-0.657616764	-3.753738075	-1.7927899118	 0.088582
H	-2.0558751695	-3.4775175094	 0.179239277	 0.091363
H	-1.1726303045	-2.6197016375	 2.2189984397	 0.09113
H	 1.1500989235	-1.9067458522	 2.4113873612	 0.104269
H	 1.4327703866	-2.2243347255	 0.6903405319	 0.100831
131.06	139.2054	228.3851	249.9476	272.3148	302.7121	323.6085	373.7712	448.4122	483.6635	573.4359	608.5905	715.3455	767.9594	802.901	856.8651	859.6358	903.6522	919.719	974.6865	1005.8158	1016.9901	1031.641	1051.4977	1086.1847	1112.3681	1139.1425	1152.93	1244.8365	1251.9353	1274.9867	1300.5066	1339.0654	1377.8664	1395.2776	1406.8227	1407.8779	1421.8958	1453.573	1455.9124	1485.1211	1499.4396	1503.5259	1691.1893	1708.5906	2994.3828	3002.3345	3005.9272	3024.6354	3039.9552	3081.3428	3111.3309	3111.5956	3124.0071	3126.9236	3138.8228	3166.388
CC1CC=CC=CCO1	C[C@H]1CC=CC=CCO1	
InChI=1S/C8H12O/c1-8-6-4-2-3-5-7-9-8/h2-5,8H,6-7H2,1H3/b4-2-,5-3-	InChI=1S/C8H12O/c1-8-6-4-2-3-5-7-9-8/h2-5,8H,6-7H2,1H3/b4-2-,5-3-/t8-/m0/s1
