21
gdb 65787	2.81006	1.29761	1.20658	1.5979	82.28	-0.2367	0.029	0.2657	1155.0764	0.182752	-387.081962	-387.073444	-387.0725	-387.1149	33.364	
C	 0.0405295496	 1.6157535495	 0.1385787602	-0.434016
C	 0.0026083356	 0.0860904603	-0.0224087575	 0.287648
C	 0.8690880083	-0.3467538163	-1.2428441118	-0.311959
C	 2.1911018696	-0.7300002947	-0.6256577509	-0.063948
C	 2.10631839	-0.8622890661	 0.6962116454	-0.061385
C	 0.7119565889	-0.5873133609	 1.1996124993	-0.298681
C	-1.4483291259	-0.3507486314	-0.1103716	 0.048448
C	-2.194331156	-0.505979241	-1.3644538286	-0.193439
O	-1.7355392163	-1.648869859	-0.6335451591	-0.244557
H	 1.0724288057	 1.9593982242	 0.260331027	 0.123903
H	-0.3849372647	 2.1166413762	-0.7375294728	 0.112063
H	-0.5264864677	 1.9369654708	 1.0196716687	 0.110597
H	 0.4232293434	-1.212622218	-1.7494228531	 0.124613
H	 0.958296481	 0.4533953537	-1.9874954398	 0.093169
H	 3.0801395906	-0.9101360229	-1.2199841722	 0.089552
H	 2.9145237807	-1.1682072075	 1.3513739355	 0.089642
H	 0.6907176241	 0.0563628039	 2.0877308776	 0.095703
H	 0.2122005124	-1.524594837	 1.4809522856	 0.118167
H	-2.0333532171	-0.1064599187	 0.7801850441	 0.086538
H	-3.2738761883	-0.3628884512	-1.3749678024	 0.114151
H	-1.695654914	-0.3339146738	-2.316695465	 0.113792
98.3119	108.6422	208.1349	235.5549	268.7696	317.6977	349.2803	404.5297	446.4253	508.2578	594.2915	695.3766	771.666	775.4757	846.7861	884.1575	923.2459	931.6724	945.2793	960.0348	975.3734	987.3671	991.2984	1036.3288	1094.2869	1112.6637	1129.6141	1155.0664	1160.2435	1178.359	1201.1696	1224.8809	1279.792	1301.124	1303.8901	1349.3928	1365.8492	1403.8789	1435.1119	1478.4951	1484.7801	1498.7649	1501.4487	1529.6755	1691.192	3010.5952	3019.2587	3026.6513	3045.4361	3053.5608	3072.7751	3087.9248	3093.3628	3105.842	3172.7238	3180.6637	3206.2939
CC1(CC=CC1)C1CO1	C[C@]1(CC=CC1)[C@H]1CO1	
InChI=1S/C8H12O/c1-8(7-6-9-7)4-2-3-5-8/h2-3,7H,4-6H2,1H3	InChI=1S/C8H12O/c1-8(7-6-9-7)4-2-3-5-8/h2-3,7H,4-6H2,1H3/t7-/m1/s1
