19
gdb 63162	3.08591	1.35206	1.24776	0.6564	77.21	-0.2285	0.0114	0.2399	1088.5172	0.15866	-423.009058	-423.000564	-422.99962	-423.041662	33.055	
C	-0.0752587981	 1.5898248434	-0.0866313569	-0.448468
C	-0.0022601626	 0.0875179623	 0.0191091709	 0.34178
O	-1.1492525192	-0.5948863225	-0.419857718	-0.462738
C	 1.3078966666	-0.6511230353	-0.1688309791	 0.008568
O	 2.4689070748	 0.1076557772	-0.344578647	-0.259861
C	 3.3667460789	 0.1046701789	 0.7620502803	-0.117957
C	 2.6858171487	 0.3916759821	 2.0769939931	-0.077044
C	 1.4039524329	 0.0786382953	 2.2612942793	-0.087532
C	 0.65070414	-0.6216972696	 1.1940085218	-0.146306
H	 0.8320961881	 2.0605535662	 0.2924526104	 0.134423
H	-0.194300164	 1.8917511079	-1.1346145974	 0.107442
H	-0.9353549289	 1.967292242	 0.4752219424	 0.121024
H	-1.2467786966	-0.4256135528	-1.364313097	 0.280402
H	 1.2798185105	-1.5766655946	-0.7424625447	 0.087895
H	 3.9073511899	-0.8559331303	 0.8152718915	 0.105469
H	 4.1094504084	 0.8764260603	 0.5353316706	 0.115385
H	 3.2790012924	 0.8600446868	 2.8567124632	 0.095653
H	 0.8963452657	 0.2999937131	 3.1959547843	 0.095465
H	 0.1237826924	-1.5238706803	 1.4921456922	 0.106402
130.1806	158.9313	165.4829	234.5007	266.5358	315.6745	367.6817	385.6165	486.5543	499.2715	509.5927	578.731	691.3964	746.3562	832.3975	862.5203	891.3682	921.8832	975.937	980.5232	998.7819	1002.8777	1053.9927	1080.4463	1092.8081	1115.5735	1144.8415	1209.0964	1223.4209	1266.8704	1285.8871	1318.7437	1335.8978	1390.1189	1411.2197	1413.0068	1437.0077	1483.969	1492.6633	1497.8434	1708.6142	2958.8646	3029.7464	3069.4773	3091.4777	3107.888	3147.7945	3148.8648	3158.9506	3182.5945	3783.1454
CC1(O)C2OCC=CC12	C[C@@]1(O)[C@H]2OCC=C[C@@H]12	
InChI=1S/C7H10O2/c1-7(8)5-3-2-4-9-6(5)7/h2-3,5-6,8H,4H2,1H3	InChI=1S/C7H10O2/c1-7(8)5-3-2-4-9-6(5)7/h2-3,5-6,8H,4H2,1H3/t5-,6+,7+/m1/s1
