20
gdb 114951	3.48109	0.95536	0.80787	0.6964	76.24	-0.2459	0.0249	0.2707	1466.1334	0.170984	-440.311331	-440.301872	-440.300928	-440.34666	33.991	
C	 0.1663633066	 1.2845743082	 0.264700533	-0.368798
C	-0.0068415651	-0.171823184	-0.1638195858	-0.286611
C	 0.6224863417	-0.4872165957	-1.4835691764	 0.421991
N	 1.2449130163	 0.3142855155	-2.2456021677	-0.30927
C	 1.6609821192	-0.4560607449	-3.4253082993	-0.210631
C	 1.2049238667	-1.9090389843	-3.1392600639	 0.066199
C	 2.3405728926	-2.9016529936	-2.9299496464	-0.064093
O	 1.8727510644	-4.1671989101	-2.5159296958	-0.421366
O	 0.4818544761	-1.7889026842	-1.8833572824	-0.284869
H	 1.224458496	 1.5429495031	 0.3509047667	 0.133501
H	-0.2761059744	 1.9626117882	-0.4688594077	 0.134738
H	-0.3141825389	 1.4552207459	 1.2320657698	 0.110423
H	 0.4181736865	-0.8557081903	 0.5820163244	 0.124678
H	-1.0689848398	-0.4403773213	-0.2294103816	 0.129088
H	 1.1991110691	-0.0389601195	-4.3261847313	 0.117878
H	 2.7476580468	-0.3854089802	-3.5569131458	 0.113803
H	 0.5001540493	-2.3023535677	-3.8775165029	 0.097159
H	 2.8729920122	-3.0500558393	-3.8760686437	 0.11402
H	 3.0563551207	-2.4725689433	-2.208335381	 0.091823
H	 1.3171534941	-4.0114258426	-1.7434284521	 0.290336
40.7214	72.4058	121.9539	167.743	200.2397	221.5789	267.9491	386.7386	399.3375	439.4412	501.76	604.8801	657.1381	757.9176	802.2823	846.9169	915.1328	929.7878	986.7028	1028.044	1032.8511	1045.6398	1096.1966	1106.9769	1109.3727	1127.0292	1198.5784	1205.1229	1238.8042	1280.4127	1311.5704	1329.7457	1353.2643	1390.2713	1413.6021	1417.6317	1432.6919	1469.5329	1492.185	1496.4179	1502.2202	1504.7219	1743.8247	2966.2014	3030.7762	3031.8083	3053.3148	3056.3192	3059.413	3069.9155	3080.875	3125.0145	3132.4837	3799.7382
CCC1=NCC(CO)O1	CCC1=NC[C@@H](CO)O1	
InChI=1S/C6H11NO2/c1-2-6-7-3-5(4-8)9-6/h5,8H,2-4H2,1H3	InChI=1S/C6H11NO2/c1-2-6-7-3-5(4-8)9-6/h5,8H,2-4H2,1H3/t5-/m0/s1
