18
gdb 91270	3.04468	1.46349	1.20593	4.2775	72.56	-0.2518	0.0563	0.3081	1073.3893	0.148936	-439.102634	-439.094895	-439.09395	-439.135402	29.666	
C	 0.1369456974	 1.5964778061	-0.0240215165	-0.407038
C	 0.0583236935	 0.0795839757	 0.0443306257	 0.001063
C	 0.9016382777	-0.7641515069	-0.9677240858	-0.283338
C	 1.4143401179	-1.6362397807	 0.2089309992	 0.083908
O	 2.8124995481	-1.5708302181	 0.464052446	-0.257475
C	 3.0661937681	-0.5203090063	 1.3019052662	 0.483009
N	 4.1927722512	-0.0976551787	 1.6633224194	-0.570503
O	 1.9108288204	 0.0483044924	 1.7325347775	-0.237597
C	 0.7802977334	-0.6485872904	 1.2137130452	 0.062538
H	 1.1720829826	 1.939900986	 0.0527115658	 0.139245
H	-0.2762735811	 1.959003585	-0.9709113156	 0.118698
H	-0.4291336131	 2.0606118917	 0.7901251546	 0.124005
H	-0.9875333837	-0.2452435535	 0.0286842824	 0.082442
H	 0.3456627261	-1.2870889385	-1.7480566419	 0.111766
H	 1.7163339861	-0.2020524499	-1.4315183379	 0.122075
H	 1.100317929	-2.6797022932	 0.2257239049	 0.101608
H	 4.9274977267	-0.6466217947	 1.2238264038	 0.231532
H	 0.1762305598	-1.0089705762	 2.0492937768	 0.094061
59.2259	105.9068	212.6967	232.4068	338.3249	397.36	441.3772	544.9293	615.314	708.1762	719.7329	751.6473	800.7619	813.5907	864.7617	903.6802	909.6323	941.0013	946.1876	1011.1824	1036.731	1056.4532	1121.6923	1143.9841	1151.4437	1182.7587	1226.6503	1232.5667	1265.0937	1297.206	1302.4	1347.6978	1363.8976	1394.8139	1416.5315	1477.9687	1493.3415	1499.8722	1797.5599	3037.8999	3048.4765	3069.4721	3085.1832	3103.2206	3114.0606	3120.2228	3131.0096	3539.1627
CC1CC2OC(=N)OC12	C[C@H]1C[C@H]2O[C]([NH])O[C@@H]12	
InChI=1S/C6H9NO2/c1-3-2-4-5(3)9-6(7)8-4/h3-5,7H,2H2,1H3	InChI=1S/C6H9NO2/c1-3-2-4-5(3)9-6(7)8-4/h3-5,7H,2H2,1H3/t3-,4+,5-/m0/s1
