18
gdb 45611	5.06073	0.9758	0.87883	1.7483	81.01	-0.2206	-0.0002	0.2204	1333.0074	0.149775	-398.150911	-398.142771	-398.141827	-398.184556	30.682	
N	-0.1376769035	 1.2691396472	 0.1243731864	-0.546844
C	 0.0014925389	 0.0087898544	 0.0393876203	 0.351703
C	 1.2123972029	-0.9235249352	-0.08720701	-0.27156
N	 0.6830587494	-2.2883462389	-0.1386797645	-0.324199
C	-0.5941034411	-2.183096682	-0.0586624256	 0.413408
N	-1.0651793119	-0.8794395468	 0.0465181613	-0.357226
C	-1.5451102362	-3.3107814059	-0.071638146	-0.123287
C	-1.2118678967	-4.5295518136	-0.914170666	-0.248422
C	-1.1257242243	-4.6193593318	 0.5748860796	-0.24844
H	 0.77088134	 1.7300943941	 0.1002650226	 0.21854
H	 1.7899777512	-0.693534325	-0.9910313178	 0.134018
H	 1.8922183104	-0.799304956	 0.7647215829	 0.133992
H	-2.0260426967	-0.5905919248	 0.1215847491	 0.263212
H	-2.5907071497	-3.0330966826	 0.0055267114	 0.085155
H	-2.033345809	-5.02180151	-1.4221793205	 0.117005
H	-0.2820104111	-4.4760819533	-1.4675256418	 0.142971
H	-0.1380679571	-4.6260648697	 1.0200804511	 0.142976
H	-1.8867710256	-5.1746079902	 1.1112678277	 0.116998
31.9799	114.7498	177.5039	187.4486	335.4636	337.6558	446.8807	473.163	540.3642	645.4049	687.1319	730.5959	797.1037	826.2798	833.0888	888.464	901.9442	915.3935	991.0998	992.881	1029.3401	1069.5869	1093.1374	1095.2377	1121.738	1140.6478	1172.5915	1189.065	1209.5999	1229.0147	1290.6663	1357.3231	1383.1594	1457.0721	1458.5863	1473.874	1500.5278	1688.0126	1753.2345	3030.0565	3058.6691	3142.1597	3144.2879	3166.89	3231.659	3245.7327	3491.0569	3666.2954
N=C1CN=C(N1)C1CC1	[NH][C]1CN=C(N1)C1CC1	
InChI=1S/C6H9N3/c7-5-3-8-6(9-5)4-1-2-4/h4H,1-3H2,(H2,7,8,9)	InChI=1S/C6H9N3/c7-5-3-8-6(9-5)4-1-2-4/h4H,1-3H2,(H2,7,8,9)
