22
gdb 116601	3.77439	0.87946	0.77446	2.9872	86.36	-0.239	0.0328	0.2718	1585.4292	0.193954	-404.384552	-404.37481	-404.373866	-404.420309	35.64	
C	 0.2631113432	 1.2675984119	 0.6710433208	-0.371676
C	-0.0420686081	 0.3602289666	-0.5175877086	-0.115566
N	-1.4813372363	 0.1405290636	-0.6338061426	-0.343725
C	-1.8934892577	-0.7433554746	-1.4301485541	 0.440839
C	-3.3396884981	-1.1017048012	-1.6941950065	-0.32132
C	-3.2382479722	-2.49623154	-2.3275063635	-0.240391
C	-1.8468977564	-2.4646612538	-2.9926536887	 0.125348
C	-1.8539380381	-2.0113589638	-4.4484921726	-0.392124
O	-1.0782756005	-1.534944658	-2.1972656886	-0.259038
H	 1.3392076317	 1.4509477666	 0.7570343276	 0.100113
H	-0.2456079811	 2.2300426016	 0.5611039787	 0.117173
H	-0.0844704314	 0.8122958198	 1.6035970214	 0.114806
H	 0.337544922	 0.8180452138	-1.4428326696	 0.098452
H	 0.4925956166	-0.5950045309	-0.4152504993	 0.099083
H	-3.9274282875	-1.0627214327	-0.7769939012	 0.133569
H	-3.7705841089	-0.3730902119	-2.390260863	 0.128191
H	-3.265924999	-3.2688033673	-1.5535089331	 0.1145
H	-4.0325565941	-2.7107277742	-3.0456290082	 0.108825
H	-1.3369222741	-3.4295020097	-2.9114433334	 0.089723
H	-2.3979152647	-1.0685251599	-4.5673422601	 0.122476
H	-0.8314518882	-1.8628898172	-4.8056622395	 0.131887
H	-2.3343600774	-2.7669002088	-5.0785313659	 0.118855
24.6987	93.9587	118.4032	144.4988	202.1918	240.5698	283.5732	330.0266	366.1935	428.533	470.2756	575.306	688.7086	714.781	786.8297	801.4286	813.0987	896.9644	914.6796	955.7302	970.8884	1009.8598	1056.2647	1071.9393	1101.2616	1115.8826	1127.1617	1140.0469	1193.5702	1202.7304	1227.0405	1296.1294	1308.7921	1327.4088	1364.3453	1381.5315	1389.0393	1410.7256	1411.0457	1476.0399	1477.4495	1487.8262	1488.6181	1496.5835	1502.8332	1505.7986	1792.9203	2990.78	3019.3028	3036.4974	3037.4477	3049.5805	3054.0918	3066.6741	3107.3526	3109.7506	3112.5555	3113.1873	3121.9668	3132.6611
CCN=C1CCC(C)O1	CCN=C1CC[C@@H](C)O1	
InChI=1S/C7H13NO/c1-3-8-7-5-4-6(2)9-7/h6H,3-5H2,1-2H3	InChI=1S/C7H13NO/c1-3-8-7-5-4-6(2)9-7/h6H,3-5H2,1-2H3/t6-/m1/s1
