17
gdb 10192	2.61867	1.42359	1.0632	4.2575	65.74	-0.2834	0.0151	0.2985	1149.7728	0.140239	-400.998708	-400.989392	-400.988448	-401.033372	31.95	
C	 0.0686987162	 1.4787866349	 0.1729018856	-0.388035
C	-0.1051607862	-0.0283877069	 0.199444989	-0.052015
O	 0.8773806586	-0.5722972655	 1.0803280594	-0.257976
C	 0.8654299027	-1.9762997534	 1.2057140094	-0.04239
C	 2.0840519799	-2.3320199954	 2.0710292142	-0.069198
O	 2.028870818	-1.7010511733	 3.3242034549	-0.407952
C	-0.3939468704	-2.4573340219	 1.8183364818	 0.281265
N	-1.389635251	-2.8314126938	 2.2693199924	-0.322952
H	 1.0688752794	 1.7482523946	-0.1777250105	 0.129907
H	-0.6678038041	 1.9285941108	-0.4989386498	 0.127079
H	-0.0733288757	 1.8997700953	 1.1720845995	 0.133819
H	-1.1104768205	-0.302061257	 0.5483019048	 0.124283
H	 0.0290044915	-0.4587555389	-0.8051585401	 0.098438
H	 0.9617820388	-2.4613174907	 0.2204150735	 0.113519
H	 2.113086366	-3.4112349121	 2.2452163978	 0.130291
H	 2.9790107204	-2.0459673539	 1.4975751405	 0.104953
H	 1.8796659065	-0.7633454026	 3.1535779877	 0.296965
69.3147	91.0845	99.8757	131.3001	204.3475	239.5384	260.2529	328.434	400.2705	428.962	441.8998	619.2666	688.5319	822.2783	836.2072	888.9745	940.7453	1026.3394	1066.7368	1102.9809	1133.8494	1150.5318	1186.8848	1243.4408	1297.8935	1300.6876	1347.4717	1394.3229	1404.2635	1428.3663	1438.7641	1483.9317	1492.6505	1500.0021	1526.7444	2355.7611	2976.7341	2985.7148	2996.0408	3033.2265	3048.1508	3098.3031	3124.4754	3125.2745	3797.1881
CCOC(CO)C#N	CCO[C@@H](CO)C#N	
InChI=1S/C5H9NO2/c1-2-8-5(3-6)4-7/h5,7H,2,4H2,1H3	InChI=1S/C5H9NO2/c1-2-8-5(3-6)4-7/h5,7H,2,4H2,1H3/t5-/m1/s1
