17
gdb 60988	2.17039	1.22885	0.92161	1.3405	75.31	-0.2524	-0.0308	0.2216	1291.5847	0.131712	-421.774765	-421.765076	-421.764132	-421.810514	34.118	
C	-0.3664021699	 1.271099967	 0.1384526043	-0.410833
C	 0.1851653862	-0.1238577194	-0.2244006053	-0.116564
C	 1.0702298518	-0.0002849337	-1.4526684372	 0.162451
O	 0.7810889195	-0.3904591805	-2.5525190287	-0.241767
C	 0.9790716175	-0.6862332691	 0.9385891646	 0.066167
O	 0.2490904182	-1.0044631636	 2.1175748243	-0.246974
C	 0.8665821255	-2.0900247463	 1.3979914526	-0.161935
C	 0.0010809207	-3.0459468473	 0.7631933183	 0.336384
C	-0.6956585416	-3.872567084	 0.2380502125	-0.417516
H	 0.4437896499	 1.9879099832	 0.3139591735	 0.121724
H	-0.9969276682	 1.6582395709	-0.6660525969	 0.135627
H	-0.9618415823	 1.2006048549	 1.0519576495	 0.149565
H	-0.6373968598	-0.7995823825	-0.470299942	 0.118021
H	 2.0362873625	 0.529942971	-1.2686649446	 0.071862
H	 1.9320163821	-0.1867367862	 1.1331516145	 0.101597
H	 1.725896176	-2.5200856409	 1.9118667565	 0.122301
H	-1.3159707081	-4.5971328935	-0.2297741661	 0.20989
36.4354	56.4579	111.3585	173.1678	221.9389	236.0531	265.5184	287.7064	388.9021	426.4041	525.9518	565.7142	611.9833	636.9056	679.116	801.708	841.4046	902.0775	938.0309	959.9679	992.3389	1070.1374	1089.9012	1148.5104	1156.3715	1176.5446	1264.2345	1282.4927	1315.8962	1385.4966	1398.7229	1431.5575	1458.1142	1496.3843	1500.3434	1839.8185	2241.8612	2835.4793	3037.3462	3072.269	3093.5105	3112.6001	3115.2112	3131.8339	3501.3098
CC(C=O)C1OC1C#C	C[C@@H](C=O)[C@H]1O[C@H]1C#C	
InChI=1S/C7H8O2/c1-3-6-7(9-6)5(2)4-8/h1,4-7H,2H3	InChI=1S/C7H8O2/c1-3-6-7(9-6)5(2)4-8/h1,4-7H,2H3/t5-,6-,7+/m0/s1
