12
gdb 131136	4.00149	1.08595	0.97632	2.0017	56.66	-0.2989	-0.0857	0.2132	1136.7257	0.075413	-505.878967	-505.871329	-505.870385	-505.912484	26.387	
O	 0.1995960468	 1.5622736005	 0.0344728046	-0.405808
C	 0.0654606354	 0.1836815254	 0.1058393407	-0.032501
C	 0.5877190404	-0.4828583739	-1.1765389949	 0.128291
O	 1.016267636	 0.189381127	-2.0769949783	-0.235569
C	 0.7824239777	-0.4044249081	 1.2913231187	 0.376464
N	 1.7025527465	 0.1799451311	 2.0024169364	-0.129639
O	 2.0417775201	-0.7465770752	 2.9307349983	-0.129517
N	 1.2884121668	-1.8939320806	 2.7279890651	 0.054406
N	 0.5316411175	-1.6873781997	 1.744394164	-0.208433
H	 0.6375238175	 1.7435432974	-0.8136763319	 0.30695
H	-0.9938291418	-0.1156384453	 0.1973737431	 0.139842
H	 0.539725037	-1.5866547486	-1.2172838158	 0.135514
38.4157	92.2876	167.3117	238.2626	307.8749	365.8266	424.6127	466.843	673.6055	686.6287	709.4544	765.8638	790.6699	877.468	960.2565	1024.1488	1064.6976	1104.1657	1163.8599	1246.565	1252.0496	1359.4036	1391.0725	1425.9433	1473.0768	1588.9972	1826.4792	2959.986	2977.4995	3679.268
OC(C=O)C1=NON=N1	O[C@@H](C=O)c1nonn1	
InChI=1S/C3H3N3O3/c7-1-2(8)3-4-6-9-5-3/h1-2,8H	InChI=1S/C3H3N3O3/c7-1-2(8)3-4-6-9-5-3/h1-2,8H/t2-/m0/s1
