16
gdb 37786	2.75613	2.11548	1.51528	2.8014	69.26	-0.2319	0.0223	0.2542	873.5656	0.126676	-437.836079	-437.829511	-437.828566	-437.867062	25.98	
C	 0.0086748447	 1.4978838881	 0.089541939	-0.09008
O	 0.9989251802	 2.1500726728	 0.8773110933	-0.226782
C	 2.2754609745	 1.7315452411	 1.0607691262	 0.14399
N	 2.9431373867	 0.7130637849	 0.7350302305	-0.271621
C	 2.5091273392	-0.4525537729	 0.0682194237	 0.006784
C	 1.4539257965	-1.3906508429	 0.5929791017	 0.075253
O	 0.3997372796	-0.6815645984	 1.2430100965	-0.289626
C	 0.0722394037	-0.0143390614	-0.003913759	 0.084417
C	 1.2334562188	-0.6818252317	-0.7283419162	-0.215192
H	-0.9399905826	 1.8051908491	 0.5412734362	 0.127012
H	 0.0387666207	 1.8982726057	-0.9338666088	 0.118595
H	 2.7760764885	 2.5148575849	 1.6301082998	 0.121518
H	 3.3409578548	-1.0083937144	-0.3605566745	 0.104835
H	 1.6125337932	-2.4255216048	 0.8720198388	 0.112425
H	-0.8989292458	-0.3701810484	-0.3724816282	 0.096226
H	 1.2212219575	-1.0421006618	-1.748400889	 0.102245
110.9402	195.3823	288.6752	340.5786	400.4854	517.444	645.6715	670.7395	742.8166	771.6092	805.3852	826.3613	856.9113	915.267	954.6618	962.6773	969.6275	1012.8977	1036.1429	1049.6422	1056.1481	1070.6288	1110.1597	1187.6701	1236.0576	1245.776	1264.0451	1316.4317	1348.7615	1365.9369	1419.4708	1431.5636	1452.7122	1491.8189	1768.8505	3010.2395	3023.4174	3078.5745	3127.5367	3138.4592	3184.4262	3201.782
C1OC=NC2C3OC1C23	C1OC=N[C@H]2[C@H]3O[C@@H]1[C@@H]23	
InChI=1S/C6H7NO2/c1-3-4-5(6(4)9-3)7-2-8-1/h2-6H,1H2	InChI=1S/C6H7NO2/c1-3-4-5(6(4)9-3)7-2-8-1/h2-6H,1H2/t3-,4-,5+,6-/m0/s1
