18
gdb 58664	1.89151	1.5964	1.15647	2.0596	72.67	-0.2761	0.0175	0.2935	1139.1098	0.146072	-439.083698	-439.07424	-439.073296	-439.117712	35.247	
C	 0.0751753349	 1.4924636371	 0.0441352248	-0.424212
C	-0.0313206092	-0.0277893051	 0.0822069063	 0.043358
O	 0.6367277126	-0.5841114447	 1.2195687637	-0.43656
C	-1.4731551126	-0.5487712627	 0.0248619315	 0.097121
C	-2.0057860443	-1.1639235599	-1.2708863431	-0.342509
C	-1.6192195104	-2.064507673	-0.1459086437	 0.096217
O	-0.4542151428	-2.8058295638	-0.2707383885	-0.422181
C	-2.4012720897	 0.0970323589	 0.9125449519	 0.232958
N	-3.1209363849	 0.618586514	 1.6550693712	-0.352312
H	 1.1256603139	 1.7903626216	 0.0856880493	 0.132051
H	-0.3666119065	 1.8881871475	-0.8754991087	 0.130271
H	-0.4522072269	 1.9471181325	 0.8895880851	 0.13991
H	 0.4995076045	-0.4554995569	-0.7712137556	 0.113155
H	 0.2519994578	-0.1946613368	 2.0141001468	 0.294586
H	-3.0574398874	-1.0342029306	-1.4961616024	 0.140435
H	-1.3362820302	-1.1217883612	-2.1227148353	 0.138686
H	-2.4221771218	-2.5361914044	 0.4186933296	 0.114882
H	 0.106281993	-2.5816922926	 0.4863611372	 0.304146
74.1025	140.8317	153.718	172.4891	231.7104	259.9635	326.0413	348.0875	398.7379	405.9402	486.6678	514.8601	539.5556	582.0562	608.2365	702.9871	845.3579	886.3691	903.8337	926.8032	997.0753	1022.0155	1065.8534	1096.2938	1110.1102	1124.8034	1185.0473	1242.1787	1276.5447	1301.7367	1356.827	1358.6967	1409.8023	1426.959	1429.8059	1475.9514	1491.8411	1496.6263	2337.8153	3040.6569	3090.521	3114.4471	3117.6115	3128.5633	3145.9125	3241.261	3734.368	3790.344
CC(O)C1(CC1O)C#N	C[C@@H](O)[C@]1(C[C@H]1O)C#N	
InChI=1S/C6H9NO2/c1-4(8)6(3-7)2-5(6)9/h4-5,8-9H,2H2,1H3	InChI=1S/C6H9NO2/c1-4(8)6(3-7)2-5(6)9/h4-5,8-9H,2H2,1H3/t4-,5-,6+/m1/s1
