23
gdb 57490	2.86347	1.14917	1.01485	2.1813	80.63	-0.2431	0.0553	0.2984	1299.1627	0.205096	-425.436317	-425.426392	-425.425447	-425.471151	37.683	
C	-0.1570766467	 1.4964431854	 0.0219631224	-0.396771
C	-0.0150552528	-0.0296888482	 0.0116966926	 0.303912
C	 0.6877502316	-0.4992692889	 1.2932504751	-0.425528
O	-1.360422352	-0.5249973469	-0.014349667	-0.457984
C	 0.7606026503	-0.4923569151	-1.2472609804	 0.036048
C	 0.8668539762	-2.0328885891	-1.4411620779	-0.270457
C	 0.4464323515	-2.2541855649	-2.9127428291	-0.072737
O	 0.5469407966	-0.9903111544	-3.5462022188	-0.245047
C	 0.1303045953	-0.0373527667	-2.5812253461	-0.116758
H	 0.82395113	 1.9792768781	-0.0134205336	 0.111329
H	-0.7447499795	 1.8377867617	-0.8338856372	 0.128355
H	-0.671687768	 1.8186701867	 0.9313883227	 0.118602
H	 0.1165816704	-0.1808251113	 2.1702487415	 0.121167
H	 0.7778882204	-1.5908522198	 1.3228478308	 0.108871
H	 1.697444578	-0.0828970808	 1.367731185	 0.116382
H	-1.3368237376	-1.4683718548	 0.1755303902	 0.277914
H	 1.772244078	-0.0776378299	-1.1810000737	 0.072718
H	 1.8850398284	-2.3828229996	-1.2573991467	 0.109349
H	 0.211891885	-2.5897174417	-0.763470277	 0.079204
H	 1.0877892847	-2.954956763	-3.4537630251	 0.105448
H	-0.5894241994	-2.6271697624	-2.9628693876	 0.08736
H	-0.9667359746	-0.0262569747	-2.4877761968	 0.103548
H	 0.4691683843	 0.9445200804	-2.9190758132	 0.105075
41.276	97.8038	197.4732	222.396	230.1687	258.2662	280.3635	299.2289	326.3223	357.678	383.6222	485.4228	556.7428	587.0043	676.7049	773.136	842.4652	874.0095	933.1545	948.712	956.7038	966.578	970.9437	1002.1606	1026.0403	1066.9294	1091.2888	1131.8856	1136.3484	1193.1137	1231.7286	1237.9775	1251.4144	1277.2165	1308.283	1321.0513	1329.7853	1364.1441	1374.0466	1399.1637	1407.5151	1417.9838	1478.7398	1488.1857	1492.5193	1498.7651	1509.2626	1510.584	1524.9411	2969.4289	2990.1339	3030.2605	3041.3766	3046.8278	3053.0481	3084.1673	3097.7529	3100.8544	3106.2387	3111.5874	3120.5285	3124.7763	3812.5537
CC(C)(O)C1CCOC1	CC(C)(O)[C@H]1CCOC1	
InChI=1S/C7H14O2/c1-7(2,8)6-3-4-9-5-6/h6,8H,3-5H2,1-2H3	InChI=1S/C7H14O2/c1-7(2,8)6-3-4-9-5-6/h6,8H,3-5H2,1-2H3/t6-/m0/s1
