21
gdb 77983	2.81183	1.23368	1.01257	0.9419	91.69	-0.2254	0.0413	0.2667	1271.1976	0.18105	-349.901225	-349.891793	-349.890849	-349.934788	36.557	
C	-0.2546602892	 1.2679155591	-0.6617307658	-0.423895
C	 0.1489117806	-0.1897282921	-0.566628047	-0.043719
C	 1.5288477879	-0.7839475472	-0.5985665138	-0.14864
C	 2.6017254971	-0.0034432139	 0.1753320743	 0.048008
C	 3.1858768823	 1.2864832707	-0.3921175997	-0.417984
C	 1.6699130831	 0.0154055238	 1.4326487245	-0.330047
C	 0.6529659432	-0.8767470965	 0.6873769932	 0.178061
C	 0.0064516931	-2.006882216	 1.2605037248	 0.170812
C	-0.5325807623	-2.9593708132	 1.7640086973	-0.411777
H	-0.1330693072	 1.6391311681	-1.6853126491	 0.120034
H	-1.3096371617	 1.381618641	-0.3899414304	 0.121029
H	 0.3229951832	 1.9180648992	-0.0024659715	 0.123958
H	-0.5452352086	-0.8411168437	-1.0949684653	 0.097282
H	 1.7528228772	-1.5937714134	-1.2845565097	 0.091814
H	 3.4280352902	-0.6910480894	 0.3844322753	 0.082592
H	 2.4192791965	 2.0313594513	-0.6175585019	 0.11884
H	 3.8909101633	 1.7357291222	 0.3164071948	 0.114347
H	 3.7341504026	 1.0860618585	-1.3195080146	 0.115704
H	 2.1104353327	-0.4829557053	 2.2971382065	 0.114436
H	 1.2908833002	 0.9910203535	 1.7519748737	 0.09879
H	-1.0106862639	-3.7991394868	 2.2030719642	 0.180354
112.1344	141.3869	151.8907	197.6773	234.6644	240.7063	294.2719	346.0858	414.1511	475.7154	514.5183	547.0377	566.1744	631.7994	638.8219	676.4205	741.6074	833.3242	869.0775	887.2425	951.7402	966.618	995.0078	1035.2887	1056.461	1096.2177	1114.5746	1123.0211	1139.8422	1188.5177	1228.4349	1245.7349	1262.9864	1301.8921	1348.0285	1378.6409	1410.5846	1413.9726	1456.0979	1488.1823	1493.7612	1497.7465	1504.9475	1508.7232	2225.9884	3032.3533	3035.6006	3043.1516	3055.7411	3090.2449	3091.7978	3117.2553	3121.4732	3125.3105	3137.0077	3169.9443	3504.198
CC1C2C(C)CC12C#C	C[C@H]1[C@H]2[C@@H](C)C[C@@]12C#C	
InChI=1S/C9H12/c1-4-9-5-6(2)8(9)7(9)3/h1,6-8H,5H2,2-3H3	InChI=1S/C9H12/c1-4-9-5-6(2)8(9)7(9)3/h1,6-8H,5H2,2-3H3/t6-,7-,8+,9-/m0/s1
