21
gdb 111608	2.89486	1.29394	1.23796	1.7786	81.13	-0.2505	0.0768	0.3273	1156.4532	0.183785	-387.066557	-387.058399	-387.057455	-387.099458	32.095	
C	-0.0288207334	 1.5664223596	 0.0430346491	-0.376201
C	 0.0743370073	 0.0516408825	 0.263033085	-0.211436
C	-1.275910928	-0.6215509308	 0.0907488792	 0.01468
C	-1.8517137862	-1.1690098421	-1.1942908344	-0.075629
C	-0.9577387308	-1.6175468797	-2.3611446712	-0.266988
C	-0.1968372978	-2.8482400605	-1.875111633	 0.040612
O	 0.7367861499	-2.6050297518	-0.8159999553	-0.24937
C	-0.5631028495	-3.113565724	-0.4732922099	 0.032876
C	-1.5887661127	-2.1044439015	-0.0152504163	-0.111441
H	 0.9422846055	 2.0515438316	 0.1827460206	 0.109179
H	-0.3754820311	 1.7968251287	-0.9704627079	 0.11328
H	-0.734816159	 2.0273437045	 0.7436504934	 0.107943
H	 0.8126268627	-0.3798571444	-0.4108911034	 0.125184
H	 0.442175227	-0.1459346071	 1.2781052892	 0.094311
H	-2.0420927384	-0.1109215799	 0.6756920724	 0.079919
H	-2.8645335449	-0.8754261848	-1.4503538725	 0.08254
H	-1.5863768929	-1.9013001687	-3.2123107029	 0.105677
H	-0.2731133781	-0.8384054058	-2.7149616273	 0.116742
H	 0.1070856393	-3.6180882534	-2.5815047466	 0.093192
H	-0.5621760109	-4.1080610225	-0.0351486496	 0.09489
H	-2.4002777182	-2.4959511399	 0.5888088812	 0.080042
63.1747	140.2721	183.5028	240.615	258.8692	333.6871	398.3438	485.4498	613.0132	683.9108	712.4673	733.4228	762.5401	796.545	839.1265	860.5519	872.6094	909.7827	951.333	973.1929	990.9611	1023.7523	1040.5479	1053.6435	1080.3316	1098.8999	1122.306	1130.7177	1148.8688	1207.4363	1245.1382	1263.3006	1287.3966	1302.1486	1316.3444	1334.7033	1358.5199	1383.5031	1410.0596	1423.9228	1452.1587	1476.201	1495.3609	1498.8997	1511.3076	3026.3986	3029.4682	3042.56	3079.0286	3086.3998	3089.8856	3101.2448	3131.7268	3146.3615	3148.3607	3152.7989	3169.2281
CCC1C2CC3OC3C12	CC[C@H]1[C@H]2C[C@H]3O[C@H]3[C@@H]12	
InChI=1S/C8H12O/c1-2-4-5-3-6-8(9-6)7(4)5/h4-8H,2-3H2,1H3	InChI=1S/C8H12O/c1-2-4-5-3-6-8(9-6)7(4)5/h4-8H,2-3H2,1H3/t4-,5+,6+,7-,8+/m0/s1
