18
gdb 46333	2.92694	1.39443	1.25263	3.2863	70.96	-0.2293	0.0073	0.2365	1068.9797	0.149873	-439.113166	-439.105223	-439.104279	-439.146225	29.637	
O	 0.1724591106	 0.0712813999	-0.4772808166	-0.33701
C	 0.1238350167	 1.1882640003	-0.0679972521	 0.403133
O	-0.9321420991	 1.8204420446	 0.5376707024	-0.245942
C	-0.2193370161	 3.1007851941	 0.5808390388	-0.1315
C	 1.0453007355	 2.430610102	-0.0097368887	 0.142588
C	 2.2654288327	 2.2626968461	 0.9098235621	-0.264928
C	 3.3522373646	 1.8094734259	-0.0736641691	-0.215835
C	 3.0474453673	 2.666267333	-1.3135415078	-0.153741
N	 1.5932882218	 2.9391713537	-1.2535068928	-0.350522
H	-0.6951550244	 3.8334876406	-0.0733993162	 0.125956
H	-0.1535380811	 3.4727081061	 1.6057286858	 0.119766
H	 2.5175096949	 3.2355366037	 1.347863722	 0.112571
H	 2.0848973988	 1.5603166933	 1.7266034473	 0.119568
H	 4.3661938682	 1.9510593396	 0.3081372973	 0.10216
H	 3.2166152587	 0.7482500257	-0.3052898953	 0.127681
H	 3.6023110573	 3.6132170661	-1.2790386691	 0.105243
H	 3.3189920089	 2.165190214	-2.2473436277	 0.108046
H	 1.1051013149	 2.5789235212	-2.0624557002	 0.232766
62.0589	124.2261	149.1022	196.2971	289.1631	327.0594	464.8565	545.2767	582.5171	664.7983	737.0951	778.3779	787.8729	881.0537	899.4276	922.4681	929.0965	940.3522	964.4066	1005.1284	1049.0029	1104.773	1142.5677	1150.6025	1166.7723	1197.968	1223.956	1247.5911	1273.0739	1326.227	1345.1431	1347.7123	1376.5418	1456.2001	1485.7746	1495.231	1512.8853	1527.2156	1921.4878	3011.8119	3042.0364	3056.0173	3069.4177	3077.028	3107.0598	3115.0045	3136.0208	3570.962
O=C1OCC11CCCN1	O=C1OC[C@]21CCCN2	
InChI=1S/C6H9NO2/c8-5-6(4-9-5)2-1-3-7-6/h7H,1-4H2	InChI=1S/C6H9NO2/c8-5-6(4-9-5)2-1-3-7-6/h7H,1-4H2/t6-/m0/s1
