17
gdb 126838	4.63139	0.90715	0.83167	3.5432	71.21	-0.2723	-0.0262	0.2461	1408.9785	0.13663	-451.314182	-451.305272	-451.304327	-451.349434	30.841	
C	 0.089484385	 1.4163262363	 0.2369177017	-0.382573
C	-0.1927663193	-0.0203330105	-0.1978894694	-0.137624
N	 0.6699305092	-0.4413397169	-1.2957904711	 0.143609
N	 0.2249965379	-0.6158323496	-2.5307202403	-0.123563
N	 1.2699903396	-0.9495245312	-3.2478844754	-0.278386
C	 2.3278746386	-0.9563150152	-2.4030436293	 0.376411
C	 3.7066430339	-1.3193393073	-2.8673199186	-0.149429
O	 3.9425898733	-0.8853735116	-4.1889260172	-0.412597
N	 1.9790263436	-0.6357057	-1.1624110178	-0.306013
H	 1.1249470929	 1.5218354722	 0.5687864067	 0.151218
H	-0.0878341241	 2.1134328606	-0.5864089994	 0.141741
H	-0.5710077269	 1.684061961	 1.0662767488	 0.131512
H	-0.0349208979	-0.7196708691	 0.6273185877	 0.143458
H	-1.2129131133	-0.1384145037	-0.5669522848	 0.153385
H	 4.4480505461	-0.8440225298	-2.2189787595	 0.134262
H	 3.8410000874	-2.4097278766	-2.7696861126	 0.11249
H	 3.1398453441	-1.0638221887	-4.6934972998	 0.3021
34.1603	50.9127	116.8613	169.6174	223.8948	278.4358	322.3178	358.8135	431.5796	477.1923	659.3882	717.1536	738.1821	775.4459	799.9378	983.4422	1015.6936	1050.8237	1074.5369	1083.1201	1109.7027	1115.3223	1212.0322	1233.9422	1264.1686	1350.5566	1363.2847	1387.1846	1392.9824	1413.4998	1422.4278	1440.775	1480.2863	1489.4433	1504.8337	1506.7381	1544.7108	2965.0884	3052.0459	3076.8779	3090.927	3125.3559	3129.5545	3148.182	3792.011
CCN1N=NC(CO)=N1	CCn1nnc(CO)n1	
InChI=1S/C4H8N4O/c1-2-8-6-4(3-9)5-7-8/h9H,2-3H2,1H3	InChI=1S/C4H8N4O/c1-2-8-6-4(3-9)5-7-8/h9H,2-3H2,1H3
