17
gdb 76396	2.6132	1.19959	1.14427	4.8775	65.49	-0.2414	0.0268	0.2682	1148.133	0.136038	-492.288747	-492.279428	-492.278484	-492.322554	34.628	
N	-0.3243878081	 1.464670882	 0.0328649394	-0.597932
C	-0.1577793627	 0.0406677037	-0.0597675874	 0.068825
C	-1.4475738027	-0.8270973342	-0.1018604068	-0.070943
N	-2.6879472932	-0.110632032	-0.0381380393	-0.519485
H	-3.1359179877	-0.0677755481	-0.9465007748	 0.25513
H	-3.3237764365	-0.5351651654	 0.6232302467	 0.247129
H	-1.283372705	 1.655096197	 0.3282401191	 0.24994
C	-0.6093327543	-0.7137516809	-1.3198527823	 0.047615
O	-1.1561054397	 0.0262100814	-2.3670425461	-0.424418
C	 1.0040665689	-0.5334127301	 0.6840575798	 0.418564
O	 1.7053894349	 0.37802288	 1.3743442672	-0.38254
O	 1.2829479205	-1.7093404925	 0.6715867276	-0.37439
H	 1.2460808557	 1.2277409466	 1.2043060374	 0.30242
H	-0.222459345	 1.9004406722	-0.8796433421	 0.232508
H	-1.3708757008	-1.7633938939	 0.4420125239	 0.124031
H	-0.004308901	-1.5748978988	-1.5926372092	 0.123962
H	-0.4611900734	 0.209608033	-3.0072201231	 0.299586
87.9822	147.2373	179.0259	194.5799	225.6118	242.4486	296.2794	332.067	353.5277	381.9389	522.739	539.7646	632.5786	656.4922	695.5649	757.1766	812.1541	831.6547	872.5492	880.4057	933.3676	1024.1103	1084.8544	1100.9106	1140.7448	1203.9387	1224.9854	1242.1861	1262.2078	1291.8127	1336.2511	1378.6153	1426.1923	1491.886	1645.5096	1677.6185	1838.2006	3143.2248	3162.0096	3438.1935	3521.1419	3528.1194	3529.9089	3624.6985	3821.466
NC1(C([NH3+])C1O)C([O-])=O	N[C@]1([C@@H](N)[C@H]1O)C(=O)O	
InChI=1S/C4H8N2O3/c5-1-2(7)4(1,6)3(8)9/h1-2,7H,5-6H2,(H,8,9)	InChI=1S/C4H8N2O3/c5-1-2(7)4(1,6)3(8)9/h1-2,7H,5-6H2,(H,8,9)/t1-,2+,4-/m0/s1
