12
gdb 21674	5.73259	1.69279	1.30865	2.686	62.29	-0.2316	-0.0857	0.1458	852.9583	0.084956	-410.816204	-410.809546	-410.808602	-410.847083	24.901	
N	 0.0235344218	 1.3617953691	 0.1153447406	-0.546112
C	-0.0409651526	 0.0019110798	-0.041564983	 0.467336
N	-1.2016132704	-0.5686836065	-0.0770858004	-0.187035
O	-1.1932440329	-1.959320722	-0.3620201933	-0.273686
C	-0.029867625	-2.640566378	-0.5420808858	 0.396472
N	 0.0204167501	-3.8832407294	-0.8071914957	-0.524209
C	 1.1994127814	-1.858608458	-0.4036743391	-0.00121
N	 1.2193637829	-0.601847196	-0.1708415297	-0.26586
H	 0.8811280921	 1.7000976185	 0.5224882849	 0.269964
H	-0.823544584	 1.8135931423	 0.4236360949	 0.270764
H	-0.9179731255	-4.2832354811	-0.8680494374	 0.234541
H	 2.1333792922	-2.4066840187	-0.5068745358	 0.159036
77.6187	261.4713	301.2661	335.511	416.7755	459.1325	506.7162	528.2022	588.9913	628.0984	778.5965	793.8126	826.6374	878.6093	949.5059	970.9559	1000.7473	1111.8666	1158.3905	1338.9851	1361.1348	1419.1936	1598.5747	1642.0221	1690.6968	1726.5975	3170.1534	3474.4813	3588.1517	3708.5502
NC1=NOC(=N)C=N1	NC1=NOC(=C[N]1)[NH]	
InChI=1S/C3H4N4O/c4-2-1-6-3(5)7-8-2/h1,4H,(H2,5,7)	InChI=1S/C3H4N4O/c4-2-1-6-3(5)7-8-2/h1,4H,(H2,5,7)
