23
gdb 109095	3.03486	1.07556	0.86799	0.6913	97.97	-0.2028	-0.0147	0.188	1437.9297	0.207597	-351.182105	-351.172934	-351.17199	-351.216386	35.192	
C	 0.1201210808	 1.5167221112	 0.2280898329	-0.369962
C	 0.0243119894	 0.0114856246	-0.0822175753	-0.273385
C	-1.3945268419	-0.5066661786	-0.1134916479	 0.291979
C	-1.9248379083	-0.963979126	-1.2617223187	-0.161631
C	-3.2686865284	-1.4619592738	-1.5404623502	-0.057105
C	-4.2753165325	-1.7967503107	-0.7183040928	-0.075683
C	-4.3141616819	-1.8147152962	 0.7824626031	-0.248391
C	-2.971792341	-1.7276767203	 1.5124194297	-0.206694
C	-2.1463460993	-0.4658506876	 1.199206155	-0.28733
H	 1.1649887858	 1.8415745203	 0.2569016812	 0.111695
H	-0.3987032391	 2.1039115635	-0.536251302	 0.119889
H	-0.3291484089	 1.7582290839	 1.1966694827	 0.117603
H	 0.5114098188	-0.1902967222	-1.042170631	 0.097604
H	 0.5940512848	-0.5389315359	 0.6810316382	 0.097807
H	-1.2806136285	-0.9318805442	-2.1390741715	 0.070805
H	-3.4746582474	-1.5644231408	-2.6047940044	 0.077288
H	-5.2036529696	-2.1138978157	-1.1908153485	 0.082375
H	-4.9753871715	-1.0051270678	 1.1290805495	 0.107178
H	-4.8215826091	-2.7375766496	 1.0984418468	 0.10277
H	-3.1707773096	-1.7604334787	 2.5899314174	 0.091519
H	-2.3696710772	-2.6132764464	 1.2796835348	 0.10528
H	-1.4245180149	-0.3082315108	 2.0091613911	 0.095106
H	-2.8081780205	 0.4119008717	 1.2218270701	 0.111283
51.5603	85.1727	158.6691	216.2351	238.9715	285.6035	341.18	377.7838	396.8517	460.9503	539.7822	624.1412	692.6044	734.1834	789.3367	810.601	853.1148	882.6434	918.8652	927.6497	950.9948	969.7742	1013.5938	1044.4038	1059.741	1065.2214	1090.2533	1127.9059	1169.9712	1186.5258	1257.7314	1281.2327	1282.9645	1294.5693	1343.8873	1364.9284	1375.2009	1395.1494	1404.8119	1417.0333	1450.0962	1464.9784	1474.4932	1484.4595	1491.1146	1497.9802	1507.8863	1687.9482	1712.6321	2985.5518	2997.921	3005.2183	3013.0726	3031.4175	3035.1272	3053.6544	3063.3266	3072.112	3105.1387	3108.7537	3118.5084	3131.8314	3149.7488
CCC1=CC=CCCC1	CCC1=CC=CCCC1	
InChI=1S/C9H14/c1-2-9-7-5-3-4-6-8-9/h3,5,7H,2,4,6,8H2,1H3	InChI=1S/C9H14/c1-2-9-7-5-3-4-6-8-9/h3,5,7H,2,4,6,8H2,1H3
