21
gdb 120927	3.22958	0.89393	0.8064	2.8454	78.97	-0.2448	0.0801	0.3249	1497.4187	0.180685	-424.189754	-424.180089	-424.179145	-424.224588	35.634	
C	-0.1690035665	 1.5060187036	 0.0933387534	-0.505996
C	 0.1283112812	 0.0436506691	 0.0227412416	 0.408492
O	-0.7461126687	-0.8601896504	 0.7182496939	-0.288496
C	 0.6607009584	-0.9230654891	 0.9997790519	-0.040523
C	 1.2948324895	-1.7840497437	-0.0970360897	-0.26746
C	 0.7377423518	-0.7555911089	-1.1546358604	-0.060507
C	-0.2235469651	-1.2438840537	-2.2308833196	-0.191386
C	 0.440346384	-2.1447590321	-3.2647967349	-0.074178
O	-0.5458048539	-2.5168727751	-4.2163280024	-0.419605
H	 0.7010381623	 2.0955642144	-0.2139869599	 0.122216
H	-1.002485303	 1.767559433	-0.5686143501	 0.132896
H	-0.4445266801	 1.7904265472	 1.1123912283	 0.134042
H	 0.9605584553	-0.7939170597	 2.0341318788	 0.098522
H	 2.3865206708	-1.8118068163	-0.0628291918	 0.102003
H	 0.9049914271	-2.8039096151	-0.1556566664	 0.108548
H	 1.5672152339	-0.1943476824	-1.6009378247	 0.069636
H	-1.0492878903	-1.7868366134	-1.7597768489	 0.121248
H	-0.6630774101	-0.386925993	-2.7571533876	 0.101044
H	 1.2748779838	-1.6078144815	-3.7468893441	 0.078565
H	 0.8695469965	-3.0309550981	-2.7695735332	 0.08682
H	-0.1383046669	-3.1069499247	-4.8568278842	 0.284119
78.378	94.0568	116.7373	171.401	198.6188	247.3981	262.5148	303.9712	345.1581	414.5914	481.1943	567.9314	643.501	727.0446	791.9438	839.3571	869.1442	890.3927	907.9197	960.4649	990.1321	1018.2369	1044.3999	1074.6054	1091.7514	1099.9421	1116.9465	1181.5949	1200.086	1208.9338	1234.4986	1246.4852	1265.8018	1279.6763	1309.8626	1324.5406	1376.9965	1405.0223	1456.2785	1463.1258	1477.1259	1486.342	1495.023	1497.675	1527.5459	2954.606	2982.0322	3031.1329	3032.8629	3037.8856	3060.7028	3089.8163	3094.2505	3117.3982	3119.6056	3177.1297	3829.7414
CC12OC1CC2CCO	C[C@]12O[C@H]1C[C@H]2CCO	
InChI=1S/C7H12O2/c1-7-5(2-3-8)4-6(7)9-7/h5-6,8H,2-4H2,1H3	InChI=1S/C7H12O2/c1-7-5(2-3-8)4-6(7)9-7/h5-6,8H,2-4H2,1H3/t5-,6+,7-/m1/s1
