23
gdb 104406	2.38823	1.3718	1.17148	1.1745	80.84	-0.244	0.0796	0.3236	1217.4654	0.204556	-425.441614	-425.431621	-425.430677	-425.476186	37.535	
C	 0.0315394751	 1.6662893521	 0.0457308018	-0.394559
C	-0.1918094967	 0.1552488217	-0.0863579175	-0.222311
C	 0.5860572354	-0.5029105139	-1.2295206495	 0.359378
C	 0.2586630007	 0.1178594372	-2.5972914432	-0.44196
O	 1.9893839061	-0.3585631384	-0.9390404116	-0.290144
C	 2.6607120597	-1.3836511824	-1.6267958704	 0.012329
O	 1.7258051184	-2.4129718309	-1.9000341683	-0.280064
C	 0.4713874585	-2.0480492924	-1.3127246851	 0.102606
C	 0.2675291003	-2.793355299	 0.0030490573	-0.416743
H	 1.097637704	 1.890097334	 0.1384018981	 0.136449
H	-0.35827839	 2.2183849424	-0.814346241	 0.116313
H	-0.4751261906	 2.0480360449	 0.9371740343	 0.110951
H	 0.1010598009	-0.3273392858	 0.8502108508	 0.106491
H	-1.2593348253	-0.0534180651	-0.2312655011	 0.095113
H	 0.6158982411	 1.1486670139	-2.6504993834	 0.125431
H	 0.7314398145	-0.4511077401	-3.402668745	 0.12885
H	-0.8219118279	 0.1159189967	-2.7741187345	 0.113282
H	 3.0758928371	-1.0302567697	-2.5846639291	 0.091486
H	 3.4777686792	-1.7468057502	-0.9879549104	 0.102652
H	-0.3082972187	-2.3380549871	-2.0261223649	 0.080862
H	 1.0130314889	-2.4961252682	 0.7463291038	 0.127243
H	-0.7297263695	-2.6128746984	 0.4162490257	 0.113645
H	 0.3739914686	-3.8668725912	-0.1750865568	 0.122701
77.1344	99.5303	140.3056	183.276	227.7217	257.3632	277.6837	307.1331	323.6502	365.4533	386.1251	448.9209	504.5829	641.5261	740.2674	766.7149	782.9813	864.6217	900.6205	925.3954	982.4094	1006.3882	1016.1534	1047.738	1068.6532	1077.755	1125.6791	1142.0327	1159.096	1188.273	1194.1249	1219.274	1251.6574	1308.6543	1334.7886	1383.8113	1387.0616	1401.831	1408.4178	1409.2213	1433.6095	1472.6857	1489.4699	1492.5621	1498.295	1501.4039	1506.6481	1515.4541	1559.0434	2965.5344	3016.9376	3031.3559	3040.805	3041.236	3044.7964	3047.0651	3085.7969	3110.6684	3111.3154	3114.8739	3120.523	3124.9229	3130.5926
CCC1(C)OCOC1C	CC[C@@]1(C)OCO[C@H]1C	
InChI=1S/C7H14O2/c1-4-7(3)6(2)8-5-9-7/h6H,4-5H2,1-3H3	InChI=1S/C7H14O2/c1-4-7(3)6(2)8-5-9-7/h6H,4-5H2,1-3H3/t6-,7+/m0/s1
