18
gdb 14948	4.23469	1.4573	1.15082	2.8905	68.26	-0.2525	-0.0261	0.2265	1032.0205	0.154404	-384.961353	-384.953756	-384.952812	-384.993672	28.292	
O	-0.9009634959	 1.1434796901	 0.0824031498	-0.250407
C	 0.2380672622	 0.7592605825	 0.0320588077	 0.136106
C	 1.4454479306	 1.6829076139	 0.0417325923	 0.042285
C	 1.3068669015	 2.8418900058	 1.0357898446	-0.193768
C	 2.5985449041	 3.670090704	 1.0480829892	-0.21763
C	 3.8114595851	 2.7533112991	 1.2671031842	-0.19543
C	 3.7929297614	 1.6009174089	 0.2611968088	-0.06566
O	 2.5732161714	 0.8727695416	 0.3152395971	-0.265403
H	 0.5038616379	-0.3185986242	-0.0360701417	 0.094256
H	 1.5290559297	 2.1026215648	-0.9813655866	 0.089523
H	 0.4342034075	 3.4422135552	 0.764608572	 0.118288
H	 1.1186447037	 2.4247344786	 2.0325176916	 0.107015
H	 2.7055383252	 4.1916471528	 0.0869424781	 0.098064
H	 2.5514344077	 4.4433067915	 1.8216178778	 0.101407
H	 4.7498539964	 3.3104968306	 1.1683292385	 0.097548
H	 3.7841986948	 2.3370284793	 2.2815377664	 0.106652
H	 3.944797064	 1.991814002	-0.7602191415	 0.087196
H	 4.5860740526	 0.8762129036	 0.4649771618	 0.109957
59.6458	142.7724	196.7825	243.7429	322.2622	393.2	449.2802	462.9594	541.1642	615.92	797.4662	831.0069	857.1616	894.2162	913.6569	959.1689	998.7626	1059.5484	1075.9128	1101.1265	1121.546	1154.3659	1203.8272	1231.6255	1279.4551	1285.1063	1319.681	1350.2644	1362.9767	1377.0307	1378.3648	1401.1504	1415.7768	1474.288	1483.3168	1491.0141	1502.2113	1838.1234	2898.3773	2904.1041	2956.5904	3016.6041	3031.5297	3039.5043	3072.5993	3079.4429	3089.2374	3101.7959
O=CC1CCCCO1	O=C[C@H]1CCCCO1	
InChI=1S/C6H10O2/c7-5-6-3-1-2-4-8-6/h5-6H,1-4H2	InChI=1S/C6H10O2/c7-5-6-3-1-2-4-8-6/h5-6H,1-4H2/t6-/m1/s1
