22
gdb 118424	2.09903	1.01967	0.78915	2.5348	80.01	-0.2413	0.0345	0.2757	1550.161	0.191525	-441.513668	-441.502014	-441.50107	-441.552425	39.673	
C	 0.5045740924	 1.3317917944	-0.2561086957	-0.386608
C	 0.1849472775	-0.1641792327	-0.179182989	-0.16191
C	-1.3087941934	-0.5111644719	 0.0382015716	-0.123543
C	-2.2050625598	-0.2233433302	-1.1711486413	-0.051104
O	-2.3480963432	 1.1732020604	-1.3340989986	-0.235642
C	-3.1801131572	 1.5067496228	-2.4196218418	-0.230965
C	-1.4072630269	-2.0048393882	 0.3534730613	 0.403292
N	-1.4746786312	-2.3187354852	 1.6804553362	-0.526962
O	-1.4037922172	-2.8568406944	-0.5161236494	-0.375296
H	 1.5820851611	 1.4838904317	-0.3775906524	 0.105009
H	-0.0142382052	 1.8083083823	-1.0885520345	 0.137659
H	 0.1967760003	 1.8476299128	 0.6604790645	 0.106733
H	 0.5206811215	-0.6739915027	-1.090100639	 0.115027
H	 0.760432159	-0.6086964605	 0.6431896296	 0.092852
H	-1.6907679995	 0.0741691834	 0.8848416853	 0.075199
H	-1.7732553821	-0.6864478374	-2.0708697183	 0.109325
H	-3.1943363629	-0.6861164174	-1.0194905776	 0.091717
H	-2.7782254183	 1.1325188133	-3.3742603843	 0.106893
H	-4.1953752349	 1.0979118857	-2.2939657122	 0.105016
H	-3.2408301092	 2.5969052927	-2.463981302	 0.125244
H	-1.4408555682	-1.6208940155	 2.4018705055	 0.258773
H	-1.4595636826	-3.2911242535	 1.942133352	 0.259292
22.6637	48.2692	88.2038	108.4678	139.2356	144.3352	182.7177	227.8235	237.133	305.4298	322.8312	350.3096	373.6007	533.9298	584.4575	630.7939	750.9695	784.6398	857.4429	901.0818	972.8775	1003.2097	1011.0585	1061.3	1101.8628	1128.0007	1155.0343	1169.4166	1192.1711	1219.3406	1249.7737	1254.3024	1310.8095	1349.947	1371.0101	1384.7155	1413.6444	1429.258	1479.1483	1484.1766	1488.5301	1495.0733	1503.1301	1511.3712	1524.0225	1616.732	1787.4507	2962.9732	2974.1562	3009.4667	3015.2555	3020.4398	3027.7876	3036.1025	3062.6548	3095.6166	3113.4547	3147.4296	3601.6194	3741.2686
CCC(COC)C(N)=O	CC[C@@H](COC)C(=O)N	
InChI=1S/C6H13NO2/c1-3-5(4-9-2)6(7)8/h5H,3-4H2,1-2H3,(H2,7,8)	InChI=1S/C6H13NO2/c1-3-5(4-9-2)6(7)8/h5H,3-4H2,1-2H3,(H2,7,8)/t5-/m0/s1
