14
gdb 131634	2.27709	1.47611	0.90905	1.8953	71.74	-0.2596	-0.0443	0.2153	1184.5303	0.102682	-432.891658	-432.883482	-432.882538	-432.925589	28.736	
O	-0.0173240865	 1.3995952716	 0.415847555	-0.414225
C	 0.0337734964	 0.0768288938	-0.0936302968	-0.213884
C	-1.3495867252	-0.4882097599	-0.0390966054	 0.11563
C	-1.7299592551	-1.8210487361	 0.0551071422	 0.209103
N	-3.0969909051	-1.83193103	 0.0414622504	-0.275465
N	-3.6215888577	-0.6090053548	-0.0446542893	-0.199116
C	-2.5713635089	 0.2108722579	-0.0963558815	-0.056773
C	-0.9577468229	-2.9997472269	 0.1536922733	 0.219624
N	-0.321402563	-3.964710667	 0.2354055118	-0.344443
H	 0.8398200859	 1.8096320382	 0.2674237404	 0.295801
H	 0.3955446909	 0.0695179251	-1.1348422698	 0.11467
H	 0.7199248865	-0.5602320989	 0.485496698	 0.115837
H	-3.7007748052	-2.6360324822	 0.0986738545	 0.29121
H	-2.71364459	 1.2778405392	-0.1586196828	 0.142031
34.4859	118.5136	169.9065	200.4301	243.814	289.9507	410.2613	498.6126	527.2337	557.0485	615.5637	687.3584	702.4704	735.3311	898.4914	961.9817	1033.2864	1074.026	1147.9054	1167.5714	1214.5848	1249.324	1269.9953	1284.7483	1383.6878	1428.8647	1466.8182	1501.9817	1516.2037	1606.4203	2342.3671	2965.5336	2995.1822	3274.4932	3663.284	3834.4145
OCC1=C(NN=C1)C#N	OCc1c([nH]nc1)C#N	
InChI=1S/C5H5N3O/c6-1-5-4(3-9)2-7-8-5/h2,9H,3H2,(H,7,8)	InChI=1S/C5H5N3O/c6-1-5-4(3-9)2-7-8-5/h2,9H,3H2,(H,7,8)
