18
gdb 73996	2.97481	2.14785	1.64204	0.4737	81.85	-0.2025	-0.0263	0.1762	872.3271	0.148667	-364.699528	-364.692799	-364.691854	-364.730217	28.081	
C	-0.323800994	 1.2475191469	-0.1242649244	-0.476917
C	 0.3498952962	-0.0888855454	-0.0907372991	 0.253745
C	 0.5147894361	-0.9156048938	-1.1671084851	-0.085786
C	-0.8476726203	-1.3200741529	-1.7753730592	-0.268312
C	-0.7246958444	-2.4325810004	-0.6684559595	 0.042191
C	 0.81475361	-2.3526395078	-0.6854723032	-0.091667
C	 0.7841437247	-2.3020153327	 0.8343323212	-0.042871
C	 0.3046362331	-0.9339139474	 1.1012126949	-0.104899
N	-0.7092217061	-2.1246029076	 0.8415704588	-0.198401
H	 0.2683051929	 2.000132304	 0.411223556	 0.129291
H	-0.4522954852	 1.6008359241	-1.1506415381	 0.127794
H	-1.3071831547	 1.2169756481	 0.3646466252	 0.13036
H	-1.6522607524	-0.5841155239	-1.7248393621	 0.112274
H	-0.839209033	-1.7987435867	-2.7616523309	 0.105092
H	-1.2655929492	-3.3715982396	-0.8046757789	 0.097842
H	 1.4514725052	-3.0066513877	-1.2757355992	 0.07593
H	 1.3001517644	-2.9287072045	 1.5519665552	 0.096023
H	 0.1974165569	-0.5651039425	 2.1149585186	 0.098311
140.0561	203.4461	268.1131	368.9808	481.5263	557.1967	589.8139	600.8013	652.5637	715.687	774.258	791.3844	825.4737	860.7871	885.9593	895.5082	923.0809	968.6106	973.2475	1012.1701	1022.181	1047.0512	1055.7192	1075.8632	1112.6158	1121.7538	1158.195	1183.4733	1201.9356	1216.7931	1248.2808	1274.203	1314.9165	1367.6376	1405.0595	1472.3604	1486.4394	1491.1942	1576.7083	3010.4623	3034.0449	3060.1834	3093.1163	3112.5255	3115.8182	3142.6891	3178.1992	3189.1193
CC1=C2CC3C2C2C1N32	C[C]1[C]2C[C@H]3[C@@H]2[C@H]2[C@@H]1N32	
InChI=1S/C8H9N/c1-3-4-2-5-6(4)8-7(3)9(5)8/h5-8H,2H2,1H3	InChI=1S/C8H9N/c1-3-4-2-5-6(4)8-7(3)9(5)8/h5-8H,2H2,1H3/t5-,6+,7+,8-,9?/m0/s1
