17
gdb 7089	5.29303	0.84253	0.77266	3.9165	77.36	-0.2463	-0.0129	0.2333	1517.2831	0.140048	-363.876066	-363.866071	-363.865127	-363.914395	32.87	
C	 0.2969126106	 1.366994562	 0.1455116295	-0.370005
C	-0.3959231758	 0.0606896588	-0.2523452171	-0.150993
N	 0.2305192007	-0.5955247084	-1.388346964	-0.311519
C	 1.072186694	-1.6635105883	-1.2491963424	 0.260262
O	 1.3291155843	-2.1890758846	-0.1792795096	-0.366427
C	 1.6319590256	-2.128400015	-2.5098415386	-0.045014
C	 2.1239580774	-2.549717209	-3.5263588311	 0.143289
C	 2.7228672022	-3.0669428841	-4.7457089362	-0.504751
H	 1.3361289101	 1.1790059664	 0.4292413907	 0.137014
H	 0.2919537988	 2.088226114	-0.6789047763	 0.11075
H	-0.2155853159	 1.8260623811	 0.9970107016	 0.119199
H	-0.3592184778	-0.6549992147	 0.5714946913	 0.15048
H	-1.4498407706	 0.2454871667	-0.4908319047	 0.104519
H	 0.1241117576	-0.1995908476	-2.3084680617	 0.248772
H	 3.3491515528	-3.9407347616	-4.5378221546	 0.161532
H	 1.9536214552	-3.3671180324	-5.4654853466	 0.156465
H	 3.350986651	-2.3094625131	-5.2270469501	 0.156428
14.3833	16.7711	61.0751	91.8983	167.0165	221.2175	296.0256	331.406	370.4568	409.6872	466.7146	480.1795	582.6881	755.5679	763.865	860.0979	902.1046	1027.6746	1049.7779	1052.3741	1097.1661	1148.1297	1171.1527	1256.701	1326.1806	1392.8976	1409.3009	1411.6476	1472.5349	1475.3961	1477.6884	1491.9565	1501.564	1536.8767	1751.6525	2354.9979	3030.8598	3034.8971	3037.8472	3093.0725	3097.5019	3098.0601	3117.1112	3128.1733	3639.5377
CCNC(=O)C#CC	CCNC(=O)C#CC	
InChI=1S/C6H9NO/c1-3-5-6(8)7-4-2/h4H2,1-2H3,(H,7,8)	InChI=1S/C6H9NO/c1-3-5-6(8)7-4-2/h4H2,1-2H3,(H,7,8)
