19
gdb 74677	3.0411	1.677	1.49713	0.3781	84.82	-0.2147	0.0182	0.2329	976.133	0.161556	-348.758909	-348.751889	-348.750945	-348.789907	29.355	
C	 0.0996576875	 1.4585379055	 0.0406400982	-0.500665
C	-0.045816889	-0.030932191	-0.0040839264	 0.355029
C	-0.084739937	-0.8120906799	-1.0976227149	-0.187113
C	-0.00675659	-2.2900394722	-0.7219044777	-0.149174
C	 1.5034524443	-2.527735925	-0.739005777	-0.084104
C	 2.029800694	-2.2971965835	 0.4733731531	-0.067175
C	 0.9728307873	-2.029624219	 1.4657785935	-0.088166
C	-0.3450124757	-2.28319172	 0.7952003692	-0.080005
C	-0.1023893006	-0.8662087224	 1.2159402883	-0.152151
H	 1.0579673162	 1.7473142487	 0.4916227083	 0.127873
H	 0.0535427702	 1.8954431492	-0.9605262167	 0.12148
H	-0.685793932	 1.9223646659	 0.6503222219	 0.120817
H	 0.0229824904	-0.4633813769	-2.119145241	 0.085962
H	-0.5985914557	-2.9672307107	-1.3415518943	 0.066949
H	 2.0605923602	-2.6703458169	-1.6578576722	 0.093022
H	 3.0879910914	-2.2530380118	 0.703291041	 0.088705
H	 1.1260498634	-2.2578713305	 2.5144776484	 0.085548
H	-1.1225285249	-2.9113814651	 1.214189009	 0.082007
H	-0.5250970602	-0.4658773044	 2.1315983895	 0.081162
151.0464	179.766	272.673	332.994	384.2781	481.3379	584.1846	611.8073	675.8971	700.9288	754.461	781.7969	796.9421	825.121	833.2781	881.1144	900.5323	921.0906	955.3456	964.6672	983.4932	1019.7008	1027.3085	1060.0813	1065.4289	1092.8382	1122.7277	1128.8403	1177.5196	1245.6065	1259.6051	1276.869	1290.4806	1360.6575	1377.4289	1386.4155	1413.0705	1479.8579	1490.2753	1629.2343	1671.9083	3015.9878	3061.9753	3078.1137	3110.0112	3161.827	3167.7913	3179.2019	3188.2134	3190.3318	3212.8216
CC1=CC2C=CC3C2C13	CC1=C[C@H]2C=C[C@@H]3[C@H]2[C@H]13	
InChI=1S/C9H10/c1-5-4-6-2-3-7-8(5)9(6)7/h2-4,6-9H,1H3	InChI=1S/C9H10/c1-5-4-6-2-3-7-8(5)9(6)7/h2-4,6-9H,1H3/t6-,7+,8-,9+/m1/s1
