15
gdb 61363	3.765	0.84326	0.75731	1.7374	69.57	-0.2747	-0.0661	0.2085	1447.387	0.109631	-453.961502	-453.952031	-453.951086	-453.99696	32.2	
C	-0.0534080647	 1.4360820054	-0.1165343158	-0.410796
C	 0.044795912	-0.0806924383	-0.0503692211	 0.03064
O	 0.7969142	-0.5268319058	 1.1022011125	-0.25118
C	 2.1272780354	-0.6043306224	 0.9755726421	 0.334039
N	 2.7629224513	-0.3048967386	-0.0783313593	-0.513396
C	 2.7373917711	-1.081142395	 2.2050747538	 0.25637
N	 3.285422092	-1.4550850364	 3.1511890858	-0.309541
C	-1.3096768389	-0.7700262926	 0.0662139965	 0.15027
O	-2.3007654898	-0.3704488406	-0.4821403255	-0.23595
H	 0.9206376744	 1.8742455216	-0.3389437193	 0.145692
H	-0.7605317585	 1.7037429052	-0.9048831372	 0.153913
H	-0.4249668815	 1.8362010644	 0.8306390863	 0.137354
H	 0.5402537951	-0.468821464	-0.9497297701	 0.150668
H	 3.7640262055	-0.4476435875	 0.0285318109	 0.258563
H	-1.2976939833	-1.6925139354	 0.6856000905	 0.103353
61.447	70.2089	82.4652	138.6928	214.6108	241.0189	255.5384	315.8689	382.5902	421.5431	487.5798	593.5965	645.7965	732.1365	839.3237	848.9312	881.4585	917.4174	951.3943	1088.0456	1101.442	1133.3519	1152.9663	1309.4492	1338.6068	1377.7536	1395.4765	1413.0167	1486.2345	1497.8149	1704.7238	1844.2156	2357.9628	2911.1128	3039.8782	3059.355	3137.5045	3152.1189	3539.5927
CC(OC(=N)C#N)C=O	C[C@@H](O[C]([NH])C#N)C=O	
InChI=1S/C5H6N2O2/c1-4(3-8)9-5(7)2-6/h3-4,7H,1H3	InChI=1S/C5H6N2O2/c1-4(3-8)9-5(7)2-6/h3-4,7H,1H3/t4-/m1/s1
