18
gdb 107802	2.6043	1.69163	1.33087	0.8086	70.32	-0.226	0.0617	0.2877	1007.1394	0.146903	-438.998228	-438.989985	-438.98904	-439.031068	31.333	
C	 0.0312681122	 1.3796864171	-0.0231075037	-0.272902
O	 0.0346315164	-0.0415488511	-0.0006469831	-0.300772
C	-1.2242036201	-0.5945432486	-0.0004054094	 0.360694
C	-2.214869252	-0.5081350655	 1.1777519212	-0.231132
N	-2.7724535986	-1.8424750141	 0.759547765	-0.151876
C	-2.7451001283	-1.8354262431	-0.7535549387	-0.111789
C	-1.5164369076	-2.1376460622	 0.0207796152	-0.124572
C	-2.1695847369	-0.5187095323	-1.2506463905	 0.090564
O	-2.9840111387	 0.6033778701	-1.4860208266	-0.447443
H	 1.0753458568	 1.6968063395	-0.0505713683	 0.130803
H	-0.4941649512	 1.7690720346	-0.9034465233	 0.13606
H	-0.4434812451	 1.793362747	 0.8780720134	 0.113628
H	-1.7292139762	-0.6302592574	 2.1485794979	 0.119521
H	-2.9351596624	 0.3183455368	 1.2218157388	 0.084121
H	-3.4314841043	-2.5129411604	-1.2446628662	 0.104142
H	-0.9128752714	-3.026445763	 0.1363150788	 0.10803
H	-1.5756745295	-0.6728563384	-2.1560278393	 0.103579
H	-3.6794422031	 0.622672561	-0.8210710509	 0.289344
73.7728	152.1804	164.5038	222.0112	298.6852	306.8369	368.0324	387.7715	515.3905	597.1998	657.354	703.7377	766.1059	805.3861	855.8578	915.4021	929.9294	967.1838	984.3622	1006.0791	1048.8193	1074.986	1106.3138	1120.8222	1150.9882	1165.0031	1183.4033	1186.414	1226.2818	1252.2807	1256.8407	1269.7923	1320.7687	1358.8592	1428.7277	1487.4569	1488.2305	1506.8544	1509.9896	2999.5088	3023.5719	3064.6007	3084.4143	3109.6662	3130.9031	3200.2557	3224.7747	3824.7471
COC12CN3C(C13)C2O	CO[C@]12CN3[C@H]([C@@H]13)[C@H]2O	
InChI=1S/C6H9NO2/c1-9-6-2-7-3(4(6)7)5(6)8/h3-5,8H,2H2,1H3	InChI=1S/C6H9NO2/c1-9-6-2-7-3(4(6)7)5(6)8/h3-5,8H,2H2,1H3/t3-,4+,5-,6-,7?/m1/s1
