16
gdb 62540	2.43811	1.41618	1.18576	3.672	72.11	-0.2427	0.0095	0.2522	1093.367	0.12132	-437.869262	-437.859946	-437.859002	-437.903187	34.309	
C	 0.0037287634	 1.6525571099	 0.0474295415	-0.426233
C	-0.0708860301	 0.1371080164	 0.0509485423	 0.260884
O	-1.3897652447	-0.2301009692	 0.2962537981	-0.450817
C	 0.6683666968	-0.5695050249	-1.1866731211	-0.26347
N	 1.6944178964	-0.9835720246	-0.2220455738	-0.317911
C	 1.0442416503	-0.5507520843	 0.9132235251	 0.364076
O	 1.276827511	-0.6728249591	 2.083438277	-0.353412
C	-0.0837634712	-1.6526265623	-1.7944474775	 0.332009
C	-0.7390854846	-2.5503227864	-2.2550092661	-0.422582
H	 1.0169857577	 1.9962458001	-0.1762969129	 0.126726
H	-0.6875325664	 2.0584525186	-0.6966435354	 0.132495
H	-0.2834553217	 2.0306236136	 1.0320163724	 0.149329
H	-1.4743510882	-1.1866133065	 0.1987669318	 0.289865
H	 1.0374619968	 0.127941701	-1.9456436287	 0.111601
H	 2.4664198879	-1.6241404357	-0.3380521226	 0.257144
H	-1.3021052735	-3.3421848866	-2.6851331999	 0.210296
61.8769	130.0278	166.012	212.3957	225.8239	275.9411	301.5552	330.4588	380.7719	446.9184	477.8914	528.192	628.3774	649.8484	662.6843	706.9176	734.0196	787.6059	829.2283	968.2461	988.1871	1043.1942	1094.8638	1111.9826	1149.7349	1243.1204	1262.8373	1345.8957	1361.8493	1387.246	1414.2082	1479.1946	1492.959	1898.6219	2228.9179	3046.891	3053.9514	3125.1462	3130.2869	3498.7331	3608.2023	3782.2994
CC1(O)C(NC1=O)C#C	C[C@@]1(O)[C@@H](NC1=O)C#C	
InChI=1S/C6H7NO2/c1-3-4-6(2,9)5(8)7-4/h1,4,9H,2H3,(H,7,8)	InChI=1S/C6H7NO2/c1-3-4-6(2,9)5(8)7-4/h1,4,9H,2H3,(H,7,8)/t4-,6+/m0/s1
