15
gdb 15468	2.76831	2.05067	1.44345	4.8911	64.99	-0.2626	-0.045	0.2175	879.8447	0.119844	-362.711135	-362.703891	-362.702947	-362.743214	26.419	
O	 0.0208593391	 0.0357686434	-0.2822744523	-0.286265
C	-0.014177413	 1.2089132406	-0.0491209177	 0.406514
C	-1.2537276749	 2.0731550771	 0.1829032667	-0.312076
C	-0.7232742222	 3.4432272698	 0.6292701831	-0.221819
C	 0.65030977	 3.5634933973	-0.0650765544	-0.227061
C	 1.2475110721	 2.1401710054	 0.0293539847	-0.252047
C	 1.9353299796	 1.9134906601	 1.2965214106	 0.279177
N	 2.4584622941	 1.7500748092	 2.3147831369	-0.319019
H	-1.783783813	 2.1395603431	-0.7761700552	 0.142027
H	-1.9311238187	 1.5833960613	 0.8862127174	 0.146194
H	-1.3911457129	 4.266481693	 0.3682826618	 0.11603
H	-0.5885070082	 3.4600238826	 1.7158922242	 0.133063
H	 0.5197757798	 3.8139787368	-1.1233321703	 0.116826
H	 1.2939294446	 4.3222287483	 0.3824945072	 0.132102
H	 1.9267134236	 1.8866219519	-0.7888406527	 0.146354
57.5461	142.6285	156.3414	269.7179	406.6686	456.3584	502.2893	542.2621	611.4969	644.1959	779.0576	821.2621	837.2199	901.5802	942.066	985.5991	1034.9008	1059.1244	1109.9987	1156.1002	1160.9312	1228.9128	1255.0375	1299.546	1308.1958	1339.8377	1351.4526	1446.8229	1490.3008	1502.4835	1866.483	2350.8865	3038.7611	3052.0207	3059.607	3086.8057	3109.1789	3116.1723	3125.4514
O=C1CCCC1C#N	O=C1CCC[C@H]1C#N	
InChI=1S/C6H7NO/c7-4-5-2-1-3-6(5)8/h5H,1-3H2	InChI=1S/C6H7NO/c7-4-5-2-1-3-6(5)8/h5H,1-3H2/t5-/m0/s1
