17
gdb 28316	3.20586	1.45011	1.02413	3.4015	77.49	-0.1802	0.0395	0.2197	1129.7099	0.138182	-417.994832	-417.986807	-417.985863	-418.027253	30.735	
N	 0.2119990443	 1.3908464113	-0.0556343912	-0.631678
C	 0.0523616271	-0.0264851137	-0.0260308289	-0.092816
C	-1.0157466031	-0.8846797477	 0.1309435109	 0.256643
C	-2.4567522403	-1.309496685	-0.0978640053	-0.366989
C	-1.8511543899	-2.7498926196	-0.2674361773	-0.164202
N	-0.5491191367	-2.1708786912	 0.125491682	 0.008545
C	 0.8140717802	-2.2113945871	-0.1006615387	-0.266464
C	 1.2020102352	-0.8845378092	-0.128997363	 0.338377
O	 2.466289738	-0.4017505379	-0.1965346659	-0.448727
H	-0.1568702143	 1.8357017703	 0.7781246966	 0.241758
H	-0.2501264952	 1.8158664746	-0.853252625	 0.239405
H	-3.1434262762	-1.1889858384	 0.7448178501	 0.117956
H	-2.9318915309	-0.9161465978	-1.0004850059	 0.119427
H	-2.2122956256	-3.5331132945	 0.4051469486	 0.118295
H	-1.8723812031	-3.1109431989	-1.3001907643	 0.125349
H	 1.3960088564	-3.117204624	-0.0967944229	 0.114806
H	 2.3594616841	 0.5628757688	-0.1857065699	 0.290315
112.1393	149.8117	188.7461	248.0677	283.6923	328.5651	331.4642	567.4696	574.149	590.7402	629.0357	660.8964	687.3282	718.7414	804.5493	818.8682	828.024	905.3627	978.0395	1039.9922	1063.2671	1132.2463	1156.104	1177.9425	1199.2248	1205.3533	1238.219	1274.1255	1318.1824	1367.3594	1411.6695	1465.9345	1487.3975	1516.5057	1573.0024	1634.3566	1659.2226	3046.6676	3055.7141	3091.8947	3106.9855	3273.4256	3495.2977	3562.5949	3696.3121
NC1=C2CCN2C=C1O	Nc1c2CCn2cc1O	
InChI=1S/C6H8N2O/c7-6-4-1-2-8(4)3-5(6)9/h3,9H,1-2,7H2	InChI=1S/C6H8N2O/c7-6-4-1-2-8(4)3-5(6)9/h3,9H,1-2,7H2
