21
gdb 96213	2.60098	1.33183	0.95713	3.4301	87.41	-0.2437	-0.0473	0.1963	1271.19	0.183609	-387.134829	-387.126117	-387.125173	-387.168096	33.541	
C	 0.1101568326	 1.6473665762	-0.1482424454	-0.408852
C	 0.0564109991	 0.1130881672	-0.0233080066	-0.075488
C	 0.510988141	-0.5424538911	-1.3426946171	-0.196601
C	 0.8283703548	-2.0320722003	-1.1930062075	-0.221772
C	 1.9663433128	-2.2313655881	-0.1829785101	-0.25391
C	 1.737450271	-1.4240570646	 1.059236129	-0.13219
C	 0.8683555734	-0.4026629917	 1.1520923343	 0.229454
C	 0.6561845923	 0.1517266559	 2.5043018817	 0.096047
O	-0.1965774513	 0.9528440661	 2.8176354326	-0.282881
H	 1.143037018	 1.9891195051	-0.281092195	 0.107397
H	-0.4621360246	 1.9688642649	-1.0248839898	 0.107204
H	-0.3033892363	 2.1305104934	 0.7366332398	 0.150265
H	-0.9917788643	-0.160886075	 0.1652282791	 0.093011
H	-0.2591608642	-0.384288053	-2.1054655198	 0.097296
H	 1.4108217745	-0.0232965618	-1.7013259594	 0.095334
H	-0.0629933044	-2.5666306984	-0.8407672328	 0.103637
H	 1.0985959024	-2.4694177841	-2.1595986317	 0.097022
H	 2.0775157318	-3.289276582	 0.0849722167	 0.111997
H	 2.9301416662	-1.942788586	-0.6300172221	 0.121009
H	 2.2907771692	-1.7150338748	 1.9517775458	 0.09734
H	 1.3523617759	-0.2631542581	 3.2698336585	 0.064683
75.9118	133.1209	221.2474	244.0322	256.2877	305.3444	329.7714	352.3653	406.6749	468.5288	540.399	604.3781	705.7325	724.8592	823.1448	861.642	893.515	903.3874	948.4535	993.3367	1015.7664	1037.8754	1067.4202	1092.8622	1117.2177	1130.2843	1178.4481	1189.5455	1245.3303	1283.5959	1312.8407	1332.5063	1369.4142	1372.1748	1381.9044	1391.4744	1405.9044	1438.8166	1464.9311	1487.6535	1495.5315	1498.4459	1515.6221	1689.692	1786.371	2857.5043	2996.287	2998.2389	3013.7305	3027.3199	3034.3278	3047.5804	3068.1078	3077.2739	3094.4209	3130.6465	3156.0033
CC1CCCC=C1C=O	C[C@H]1CCCC=C1C=O	
InChI=1S/C8H12O/c1-7-4-2-3-5-8(7)6-9/h5-7H,2-4H2,1H3	InChI=1S/C8H12O/c1-7-4-2-3-5-8(7)6-9/h5-7H,2-4H2,1H3/t7-/m0/s1
