21
gdb 90181	3.92893	1.48933	1.34208	0.2377	86.43	-0.2641	0.0937	0.3578	1038.9315	0.184855	-349.880256	-349.873247	-349.872303	-349.911238	29.804	
C	-0.1108930877	 1.5455013057	-0.0492250071	-0.404449
C	 0.0117540232	 0.0238059651	 0.0404797054	 0.038439
C	 0.9052481382	-0.6124773171	-1.1047490478	-0.37982
C	 1.8968649256	-1.3157314593	-0.2017231673	 0.348929
C	 3.1411664584	-2.2076868712	 0.017604793	-0.353667
C	 2.6483285768	-1.8407819835	 1.4548644897	-0.092995
C	 2.2519906439	-0.3985979474	 1.0167571822	-0.042918
C	 0.7411861979	-0.4735705988	 1.3273616073	-0.082615
C	 1.1517642517	-1.9296778866	 1.0315660886	-0.052703
H	 0.8745049858	 2.0245589634	-0.0195491036	 0.113879
H	-0.6002123249	 1.8527413658	-0.9796669287	 0.112462
H	-0.69953314	 1.9454256342	 0.7838562438	 0.110708
H	-0.9940843683	-0.4125856946	 0.0030289012	 0.066918
H	 0.3356323069	-1.2897677873	-1.7483659244	 0.096601
H	 1.359202197	 0.1566878286	-1.7382747088	 0.095626
H	 3.0578969342	-3.2585139258	-0.2793397901	 0.09199
H	 4.108350696	-1.7977137219	-0.2919790406	 0.091984
H	 3.0887084939	-2.1467122438	 2.4047505797	 0.066786
H	 2.909784587	 0.4717573583	 0.9655942372	 0.063058
H	 0.3129706255	-0.1575521245	 2.2822327251	 0.050111
H	 0.5297108687	-2.8270697192	 0.992932715	 0.061675
128.425	237.0942	262.1836	358.8136	388.8521	449.3553	469.6527	642.721	713.7214	749.0877	796.6169	801.7938	852.9985	868.8638	875.9056	904.5769	921.6169	931.4994	943.1493	993.8549	994.4974	1026.0175	1044.4372	1049.2245	1091.89	1106.8476	1140.8355	1147.9407	1152.9193	1185.6022	1190.9364	1195.276	1210.9775	1229.8716	1240.6629	1270.9486	1303.941	1320.5517	1336.3747	1361.7588	1410.561	1495.4747	1497.8808	1501.3271	1508.1108	3022.7349	3024.8572	3033.3179	3042.7158	3072.7777	3081.8897	3085.0031	3087.8299	3091.3232	3093.5699	3094.1259	3105.9727
CC1CC23CC4C2C1C34	C[C@H]1C[C@@]23C[C@H]4[C@@H]2[C@@H]1[C@@H]34	
InChI=1S/C9H12/c1-4-2-9-3-5-7(9)6(4)8(5)9/h4-8H,2-3H2,1H3	InChI=1S/C9H12/c1-4-2-9-3-5-7(9)6(4)8(5)9/h4-8H,2-3H2,1H3/t4-,5-,6+,7+,8-,9+/m0/s1
