16
gdb 124291	2.58036	1.54747	0.97893	1.5592	72.23	-0.26	-0.0602	0.1998	1159.9621	0.122866	-437.910063	-437.901328	-437.900384	-437.944161	30.836	
C	-0.0675518962	 1.5135177959	-0.0681648904	-0.478982
C	 0.039958542	 0.0058059093	-0.0551524271	 0.320886
O	 1.1026746068	-0.5799548813	-0.0758793383	-0.310206
C	-1.2303010675	-0.7726210689	-0.0151845065	 0.219198
N	-2.3919928815	-0.1519340364	 0.0084651935	-0.190057
O	-3.3460127772	-1.1404671287	 0.0425923384	-0.165285
C	-2.7307301702	-2.3407299988	 0.0380534012	 0.006208
C	-1.3811788451	-2.1989582312	 0.0021033332	 0.064024
C	-0.3253091806	-3.2563518308	-0.014958451	-0.491297
H	 0.9336542565	 1.9441643822	-0.0943859952	 0.138498
H	-0.6466278251	 1.8443016045	-0.9359564438	 0.155339
H	-0.6092799955	 1.8627393284	 0.8162785429	 0.155396
H	-3.3834529053	-3.1995672036	 0.0629087758	 0.156984
H	 0.3014864467	-3.1726824491	-0.9068642472	 0.150165
H	 0.3447327411	-3.1577650149	 0.8433669182	 0.15015
H	-0.7748783088	-4.2527198066	 0.0046735163	 0.118977
53.4654	116.8603	131.6505	175.2621	190.6733	283.3588	289.8735	403.5626	489.1618	562.1785	624.2599	632.5272	680.4939	736.7365	836.2344	934.3544	955.2972	978.3958	1024.2774	1046.4039	1071.0936	1105.0014	1135.3574	1252.8795	1300.7883	1382.7981	1425.2885	1439.7104	1457.805	1467.0552	1476.5945	1478.078	1491.2899	1640.7781	1784.2725	3049.2587	3050.2651	3113.1973	3114.0255	3123.6242	3160.4998	3267.1315
CC(=O)C1=NOC=C1C	CC(=O)c1nocc1C	
InChI=1S/C6H7NO2/c1-4-3-9-7-6(4)5(2)8/h3H,1-2H3	InChI=1S/C6H7NO2/c1-4-3-9-7-6(4)5(2)8/h3H,1-2H3
