15
gdb 48583	3.69724	1.27635	1.11461	2.2992	65.52	-0.246	-0.0548	0.1912	1059.4796	0.111409	-457.756372	-457.748864	-457.74792	-457.788917	28.012	
O	-0.6444585624	 0.7979107131	-0.6281313281	-0.242752
C	 0.3140908803	 0.8017507258	 0.0997017513	 0.061532
C	 1.4140716008	 1.819084832	 0.0108440711	 0.315219
C	 1.4662069654	 3.0320065258	 0.9903966635	-0.280949
C	 2.9683658435	 2.820234709	 0.6896485881	-0.038648
O	 2.702524582	 1.383488795	 0.5643326435	-0.329542
C	 3.0449350571	 3.2045936553	-0.8020745257	 0.443862
O	 3.8240823012	 3.9109108644	-1.3728077493	-0.311812
C	 1.830936878	 2.4134576369	-1.3460726937	-0.382091
H	 0.4474105715	 0.0635405424	 0.9200504057	 0.101253
H	 0.9754074456	 3.9624223207	 0.6965142439	 0.127749
H	 1.2193750841	 2.7456254893	 2.0133683953	 0.131841
H	 3.783735131	 3.0918379339	 1.3558940111	 0.109942
H	 2.1341615853	 1.6428499986	-2.057993781	 0.147949
H	 1.0847361165	 3.0590546577	-1.8135924456	 0.14645
64.351	128.0054	171.4811	261.3348	381.7042	434.914	459.5375	518.2313	595.7416	624.7823	733.0653	766.5378	824.0618	837.6142	877.5393	957.4684	959.2335	1003.3137	1022.1479	1047.0012	1085.7174	1159.1188	1179.1392	1197.1988	1220.4998	1241.6111	1259.4516	1320.4979	1404.1544	1449.895	1483.3261	1829.1053	1890.6245	2905.6927	3075.2183	3084.0199	3137.254	3150.2839	3161.8933
O=CC12CC(O1)C(=O)C2	O=C[C@@]12C[C@@H](O1)C(=O)C2	
InChI=1S/C6H6O3/c7-3-6-1-4(8)5(2-6)9-6/h3,5H,1-2H2	InChI=1S/C6H6O3/c7-3-6-1-4(8)5(2-6)9-6/h3,5H,1-2H2/t5-,6-/m1/s1
