21
gdb 26372	2.43692	1.35451	1.08269	4.1878	84.58	-0.2082	0.0368	0.245	1236.9234	0.183055	-383.323213	-383.313732	-383.312788	-383.358003	35.06	
C	-0.0309799247	 1.5526509393	-0.0280166829	-0.380961
C	-0.0196802267	 0.0198458151	 0.0295014624	 0.024803
C	 0.7708770904	-0.5106311104	 1.2322279271	-0.380948
N	-1.3835079004	-0.5184735986	 0.015908501	-0.04495
C	-2.3464156672	-0.311945891	 0.966576531	-0.006379
N	-3.4728768669	-0.9231692965	 0.6832906246	-0.279448
C	-3.2347913349	-1.5604020573	-0.5108141413	-0.170265
C	-1.9552279405	-1.332004362	-0.9513802849	 0.273152
C	-1.2439826144	-1.8033098458	-2.1750118278	-0.504403
H	 0.9917493027	 1.9354632906	-0.0967842749	 0.120405
H	-0.5930364469	 1.906497168	-0.8964121957	 0.130162
H	-0.4900199419	 1.9779461771	 0.8698208566	 0.126927
H	 0.4554525471	-0.3524518202	-0.8823250029	 0.09976
H	 1.8075647286	-0.1637391594	 1.1853577745	 0.120402
H	 0.3400521395	-0.1578780388	 2.174385548	 0.126925
H	 0.771146798	-1.6037860207	 1.2476683361	 0.130161
H	-2.1651441467	 0.2936497893	 1.8420278163	 0.119791
H	-3.9960777691	-2.1533269075	-0.9966058477	 0.099971
H	-0.9150951256	-0.9782220296	-2.8190666985	 0.128094
H	-0.3598700916	-2.4107752158	-1.9445865535	 0.1281
H	-1.9221996288	-2.4256081957	-2.7638398576	 0.138702
29.4898	118.5423	181.195	195.4541	226.7699	245.1084	256.8399	290.4425	375.2775	418.2406	506.927	612.627	653.9827	684.4096	706.259	803.8216	834.654	887.8144	931.0696	932.2698	949.8123	1006.2435	1064.6509	1099.3975	1145.2906	1146.7308	1154.7106	1210.4856	1254.5099	1292.023	1317.9254	1349.5116	1402.0181	1403.8301	1419.901	1422.339	1436.8248	1481.9535	1484.698	1486.9621	1487.2332	1498.9059	1508.5949	1527.2525	1599.916	3015.8912	3040.1079	3044.007	3060.1531	3071.0173	3110.5809	3118.3873	3119.7855	3120.8973	3123.6735	3238.5581	3245.8586
CC(C)N1C=NC=C1C	CC(C)n1cncc1C	
InChI=1S/C7H12N2/c1-6(2)9-5-8-4-7(9)3/h4-6H,1-3H3	InChI=1S/C7H12N2/c1-6(2)9-5-8-4-7(9)3/h4-6H,1-3H3
