22
gdb 12413	2.75739	1.93354	1.3992	1.295	77.51	-0.2429	0.0801	0.3231	996.9684	0.201893	-350.223865	-350.215588	-350.214644	-350.255905	32.445	
C	-0.0581766522	 1.5661557154	-0.0492608292	-0.413398
C	 0.0545182995	 0.039635738	-0.0098803867	 0.038063
C	 0.6750410356	-0.5290574301	-1.2987093425	-0.201953
C	 0.7974969766	-2.0524040327	-1.2172941204	-0.077851
O	 1.5040440351	-2.4653513153	-0.0599187101	-0.244503
C	 0.8616445762	-2.0355914143	 1.1289556653	-0.083159
C	 0.8066259249	-0.5029178081	 1.2342450503	 0.012308
C	 2.2145998357	 0.0769692903	 1.4359836587	-0.394742
H	 0.9163505532	 2.0413921034	-0.200815436	 0.11801
H	-0.7085877042	 1.8850715912	-0.8709236019	 0.109371
H	-0.4802616337	 1.9583501632	 0.8827722937	 0.108744
H	-0.9679988984	-0.3628298415	 0.0569486912	 0.065525
H	 0.0623336435	-0.2565859775	-2.1670531674	 0.089679
H	 1.6685194721	-0.0945609117	-1.4630132651	 0.102328
H	-0.2097149896	-2.5065647889	-1.220957454	 0.080304
H	 1.3483975073	-2.4549569814	-2.072657367	 0.102525
H	-0.1612351177	-2.4498820437	 1.1720314904	 0.077635
H	 1.4340876564	-2.4670380576	 1.9565032682	 0.098588
H	 0.2060606117	-0.257365188	 2.1215022073	 0.063342
H	 2.8817365102	-0.1988940788	 0.6150025948	 0.127701
H	 2.2015499133	 1.1670869559	 1.5177857271	 0.111506
H	 2.6552563446	-0.315510018	 2.3587053934	 0.109975
133.8934	186.7087	193.4346	238.7	284.5045	317.0002	323.236	411.1862	419.1727	495.0088	561.1409	660.0757	742.7872	844.6425	864.4823	896.295	951.4802	966.0144	980.4268	1007.6534	1035.3282	1042.193	1087.2756	1114.11	1150.0971	1183.5397	1200.3689	1232.8694	1270.1127	1309.8882	1318.6572	1343.266	1348.4722	1377.1914	1385.6613	1394.3419	1409.2669	1412.9327	1429.8284	1476.9592	1490.496	1494.8411	1496.7738	1502.5707	1506.7116	1513.3655	2944.7122	2951.6339	2980.7299	3007.4591	3024.6863	3029.0596	3041.7597	3065.5088	3070.7425	3080.599	3093.0172	3098.7905	3104.7173	3122.4985
CC1CCOCC1C	C[C@H]1CCOC[C@H]1C	
InChI=1S/C7H14O/c1-6-3-4-8-5-7(6)2/h6-7H,3-5H2,1-2H3	InChI=1S/C7H14O/c1-6-3-4-8-5-7(6)2/h6-7H,3-5H2,1-2H3/t6-,7+/m0/s1
