15
gdb 77640	2.08659	1.71612	1.31963	6.2543	67.63	-0.2418	-0.0109	0.2309	1008.6517	0.112204	-453.892403	-453.884179	-453.883235	-453.925014	30.933	
N	-0.155180748	 1.4360999196	-0.3102667313	-0.59539
C	-0.0367608284	 0.0425271744	-0.0967014491	 0.106828
C	 0.6180615147	-0.75646231	 1.0288735155	-0.136717
O	-0.4381736492	-1.7574488006	 0.9776466005	-0.308746
C	-1.1696344114	-0.994919208	 0.0173731733	 0.247174
C	-2.580081828	-0.8430724566	 0.1234113242	 0.237064
N	-3.7268837813	-0.7066277115	 0.2019129797	-0.351728
C	-0.3623263357	-0.8718127237	-1.265357789	 0.048887
O	-0.9467406386	-0.2625259301	-2.3530981798	-0.415864
H	-0.5298339407	 1.9334598732	 0.4899211779	 0.257667
H	 0.7272882205	 1.8595887983	-0.5795047656	 0.25305
H	 1.6065441841	-1.1892973753	 0.8407862336	 0.118497
H	 0.6113994209	-0.2369305343	 1.9953546202	 0.117614
H	 0.2801634015	-1.7127218199	-1.5183879888	 0.122468
H	-1.0226588504	 0.6809615345	-2.1355233913	 0.299196
108.0284	127.668	229.0545	253.0774	278.0691	311.011	370.8133	397.0159	500.1404	531.937	589.4299	606.3176	643.0129	708.0057	761.8383	783.2988	889.2477	974.5201	999.3222	1056.2637	1088.8354	1133.9377	1157.7969	1181.9084	1250.4203	1275.2435	1329.9983	1334.6025	1406.656	1455.2812	1516.6228	1652.6419	2343.0343	3020.0145	3079.0033	3136.5921	3503.8735	3586.9646	3680.161
NC12COC1(C#N)C2O	N[C@@]12CO[C@]1(C#N)[C@H]2O	
InChI=1S/C5H6N2O2/c6-1-5-3(8)4(5,7)2-9-5/h3,8H,2,7H2	InChI=1S/C5H6N2O2/c6-1-5-3(8)4(5,7)2-9-5/h3,8H,2,7H2/t3-,4+,5+/m0/s1
