16
gdb 67432	2.72668	1.52765	1.26548	5.2654	71.56	-0.2331	-0.0195	0.2137	1018.2692	0.123955	-437.816909	-437.809276	-437.808332	-437.848998	29.409	
O	-0.141883752	 1.4164914957	 0.0522232208	-0.443635
C	 0.0216206381	 0.0635857333	 0.0317327389	 0.328827
C	-0.0298146344	-0.9822420841	-1.0379899923	-0.221346
C	 1.2262095146	-1.6689528945	-0.5202562318	-0.235703
C	 0.9274449807	-0.9774669937	 0.8459007207	-0.100913
N	-0.3222964099	-1.594050391	 1.3671570416	-0.333651
C	-1.0164576443	-1.0008307713	 0.2435992104	 0.235327
C	-2.4626430059	-0.9761441934	 0.0263427484	 0.049462
O	-3.2609839303	-1.6068737201	 0.6782004651	-0.274503
H	 0.5057927818	 1.8182537228	-0.5384778745	 0.297587
H	-0.4377429669	-0.9250292702	-2.0388948309	 0.106757
H	 1.2659169666	-2.7634891525	-0.5153255832	 0.100614
H	 2.1246641053	-1.2657804835	-0.9958658918	 0.108986
H	 1.7133844283	-0.7608600791	 1.5665651411	 0.090888
H	-0.3097214212	-2.6142183296	 1.3716837243	 0.219938
H	-2.7794863503	-0.3266351788	-0.8207824968	 0.071365
95.6208	170.6853	239.2161	251.4236	311.6512	359.4658	444.7645	464.3773	552.1629	614.4326	649.1236	742.7614	818.2741	835.856	904.1815	937.0648	943.0804	964.1401	1008.6025	1013.177	1048.3936	1067.824	1112.4368	1124.2143	1164.2467	1220.1201	1250.9303	1260.3838	1298.3243	1333.4243	1383.8136	1427.9561	1485.0931	1501.1682	1803.4098	2873.4985	3041.9176	3102.6075	3141.1783	3208.1352	3451.2557	3789.4461
OC12C3CC1NC23C=O	O[C@@]12[C@H]3C[C@@H]1N[C@@]23C=O	
InChI=1S/C6H7NO2/c8-2-5-3-1-4(7-5)6(3,5)9/h2-4,7,9H,1H2	InChI=1S/C6H7NO2/c8-2-5-3-1-4(7-5)6(3,5)9/h2-4,7,9H,1H2/t3-,4-,5+,6-/m0/s1
