18
gdb 55750	4.18174	1.06767	0.97883	4.4677	73.16	-0.2367	0.0483	0.285	1231.4397	0.149385	-435.225219	-435.217002	-435.216058	-435.258705	31.519	
N	-0.0854072015	 1.3414237527	 0.2524585985	-0.572478
C	 0.0713584694	-0.0254322241	 0.0601909417	 0.434854
O	 1.158243838	-0.5593289109	-0.0494915925	-0.384931
N	-1.1214992339	-0.7267260792	 0.0282464337	-0.495398
C	-1.1035021538	-2.1584348613	 0.0307003107	 0.394451
C	-0.5639200965	-3.1719093735	 1.0753025516	-0.20412
N	-1.1455527143	-4.0834636922	-0.0173687155	-0.139687
C	-2.3226255665	-3.09123775	-0.0446154306	-0.236927
C	-0.4774014327	-3.1100537293	-1.0068089242	-0.187504
H	 0.7616490844	 1.8558244663	 0.0626060594	 0.262161
H	-0.9183610366	 1.7737512992	-0.1185496852	 0.248809
H	-1.9311771304	-0.2873545911	 0.4406264532	 0.238971
H	 0.5176466744	-3.2530378187	 1.1892389822	 0.122983
H	-1.0868632761	-3.2546625504	 2.0323306396	 0.094321
H	-2.9738397296	-3.1652778266	 0.8316995167	 0.098377
H	-2.8954378642	-3.1182060725	-0.9758327549	 0.103074
H	-0.9180316399	-3.1381360268	-2.0072084685	 0.097077
H	 0.60979506	-3.1808781015	-1.0334572061	 0.125968
46.2689	90.6058	136.9327	337.0349	358.9532	377.9831	393.5684	449.7641	557.8099	590.2214	591.9217	605.4096	739.9316	775.3211	789.6707	804.0257	901.4594	945.7582	972.3688	1001.3377	1006.9777	1023.1886	1030.7634	1097.4378	1153.3917	1167.2657	1168.8705	1184.5137	1189.3485	1198.7186	1262.4136	1315.968	1342.9859	1506.5579	1510.2499	1512.6819	1568.4596	1625.71	1803.5666	3043.4694	3058.4677	3066.2128	3111.6873	3142.8911	3150.9704	3572.3736	3604.8527	3686.2274
NC(=O)NC12CN(C1)C2	NC(=O)N[C@@]12CN(C1)C2	
InChI=1S/C5H9N3O/c6-4(9)7-5-1-8(2-5)3-5/h1-3H2,(H3,6,7,9)	InChI=1S/C5H9N3O/c6-4(9)7-5-1-8(2-5)3-5/h1-3H2,(H3,6,7,9)
