19
gdb 70933	3.57897	1.43644	1.25433	1.7221	75.74	-0.2398	0.0712	0.311	1051.1982	0.159247	-422.933886	-422.926166	-422.925222	-422.965816	30.743	
C	-0.2041415558	 1.4756913019	-0.0313220793	-0.51241
C	 0.0584566343	 0.0026659581	-0.0437425982	 0.360373
C	 0.4996678882	-0.9328615229	-1.1830818893	-0.311567
C	 0.0406390393	-1.7807815654	 0.0296441374	 0.399847
C	 0.4343327927	-3.1894006876	 0.3703893228	-0.188414
O	 1.8153267652	-3.0062724964	 0.7521545414	-0.290999
C	 2.1561839718	-1.6043991115	 1.0006706543	-0.12161
C	 0.8141138017	-0.893931283	 1.001900378	-0.078671
O	-1.142313596	-0.9091120595	 0.1625291971	-0.397439
H	 0.7302016407	 2.0217147846	-0.1950054173	 0.129635
H	-0.9092655638	 1.7465487493	-0.8227247761	 0.136891
H	-0.6227197876	 1.7834777868	 0.9311753915	 0.136435
H	-0.173783688	-0.9614386972	-2.0401622783	 0.105949
H	 1.5523041867	-0.9465626146	-1.4706814218	 0.105825
H	-0.1584627057	-3.5867759271	 1.2055146298	 0.110435
H	 0.4080248242	-3.8972919125	-0.4633114406	 0.112811
H	 2.6667360655	-1.5556499355	 1.9667681586	 0.108743
H	 2.8545200658	-1.2710304064	 0.2251289618	 0.104513
H	 0.346063251	-0.8496972312	 1.9876395282	 0.089653
105.4031	194.7967	215.7781	232.527	327.4293	361.7828	459.1348	508.1281	566.6608	627.1492	655.2946	684.8925	740.4925	819.002	852.557	893.6971	911.7211	966.2463	993.2134	1004.6248	1046.2077	1066.9985	1090.8838	1098.6258	1121.9472	1148.585	1160.8698	1188.4637	1200.113	1247.1458	1257.9554	1306.3462	1351.8555	1367.2192	1392.6011	1417.5825	1475.7492	1487.2251	1502.185	1514.4339	1528.4187	3011.8436	3035.7451	3041.0511	3075.1075	3079.3023	3081.2162	3097.8604	3115.9243	3119.5075	3151.6411
CC12CC3(COCC13)O2	C[C@@]12C[C@]3(COC[C@@H]13)O2	
InChI=1S/C7H10O2/c1-6-3-7(9-6)4-8-2-5(6)7/h5H,2-4H2,1H3	InChI=1S/C7H10O2/c1-6-3-7(9-6)4-8-2-5(6)7/h5H,2-4H2,1H3/t5-,6+,7+/m0/s1
