17
gdb 75929	2.6233	1.58739	1.12554	2.6135	67.85	-0.2563	-0.0376	0.2187	1067.2744	0.135102	-458.967508	-458.959406	-458.958461	-459.000351	30.813	
O	 0.4209600924	 0.835035005	-0.8699152125	-0.435217
C	 0.029884024	-0.2987619679	-0.1576610194	-0.028643
C	 0.4800457593	-0.2622807801	 1.3014202909	 0.368015
O	 1.3849240276	 0.4362352836	 1.6861855092	-0.326972
C	-0.4661397783	-1.1144637746	 2.1415189514	-0.332131
C	-1.6150206211	-1.4970719538	 1.1763630091	-0.317242
C	-1.4678609471	-0.5324595428	-0.0009801977	 0.420173
C	-2.4580169335	 0.481044252	-0.3770663002	-0.245004
O	-2.2721588455	-0.7196735228	-1.1483815925	-0.288584
H	 1.1015722243	 1.2619544766	-0.3267371875	 0.294585
H	 0.4550287646	-1.2175942349	-0.6080221873	 0.104387
H	 0.0588122851	-1.9775620188	 2.5617398889	 0.143293
H	-0.8021220907	-0.5089437458	 2.9892708851	 0.14553
H	-1.4903286542	-2.5206635872	 0.8070919706	 0.125434
H	-2.6020376502	-1.4371252166	 1.6383814126	 0.121131
H	-3.4000106314	 0.5414927307	 0.1661449592	 0.112845
H	-2.1203897954	 1.3938879374	-0.8607801799	 0.1384
76.3403	103.9202	239.1859	253.0572	310.0834	349.3022	390.5433	447.7647	496.4667	528.756	601.9222	626.6334	723.044	765.234	856.7784	906.272	921.637	970.6135	988.0134	1006.3589	1080.2983	1128.3206	1157.9488	1161.9761	1174.8488	1208.8234	1212.1846	1261.6926	1286.9825	1316.8428	1369.4374	1392.7752	1440.2884	1447.8302	1493.2772	1525.8517	1839.7866	2917.6311	3054.7919	3061.5556	3092.4993	3098.723	3117.5058	3193.4773	3705.8487
OC1C(=O)CCC11CO1	O[C@H]1C(=O)CC[C@]21CO2	
InChI=1S/C6H8O3/c7-4-1-2-6(3-9-6)5(4)8/h5,8H,1-3H2	InChI=1S/C6H8O3/c7-4-1-2-6(3-9-6)5(4)8/h5,8H,1-3H2/t5-,6+/m0/s1
