15
gdb 79114	2.57684	2.04482	1.55585	4.552	63.47	-0.2594	0.0066	0.266	867.2703	0.114016	-457.764317	-457.757629	-457.756684	-457.795326	26.588	
O	 0.0275571591	 1.4536751876	 0.0083630574	-0.418781
C	-0.0188043622	 0.0572669205	-0.0660327452	 0.141612
C	-1.40606326	-0.5463275257	-0.0172934534	-0.137588
C	-2.0416404721	-0.5340606723	-1.3924667244	 0.100252
O	-1.6230078731	 0.402879215	-2.368950287	-0.223449
C	-0.266059461	 0.2875216985	-2.5231372361	 0.472012
O	 0.3563439801	 0.9197229785	-3.323097596	-0.347038
C	 0.2234821774	-0.6751050287	-1.4543208814	-0.296505
C	-0.9994246795	-1.5543447139	-1.1127104415	-0.109734
H	 0.9446125973	 1.7433248087	-0.0484409874	 0.293438
H	 0.6246966998	-0.4190879651	 0.6845386976	 0.090977
H	-2.0013990019	-0.6977147943	 0.8748273559	 0.100718
H	-3.089544366	-0.7839595345	-1.4832890858	 0.124481
H	 1.2051461709	-1.0972793307	-1.6461810476	 0.099842
H	-1.0902368787	-2.6297520636	-1.1662162952	 0.109763
135.0049	175.365	284.2813	334.8375	450.3782	473.856	576.059	605.7104	711.3485	743.4455	770.5507	814.3415	836.6753	871.861	892.0194	935.317	993.8789	1008.2185	1017.5887	1034.395	1065.787	1109.2987	1124.8145	1160.4436	1175.156	1225.3267	1236.1404	1246.3957	1332.328	1336.1203	1408.7638	1434.0988	1891.5564	3022.8388	3169.3988	3190.5601	3215.2782	3226.5887	3811.0455
OC1C2C3OC(=O)C1C23	O[C@H]1[C@H]2[C@H]3OC(=O)[C@@H]1[C@@H]23	
InChI=1S/C6H6O3/c7-4-2-1-3(4)6(8)9-5(1)2/h1-5,7H	InChI=1S/C6H6O3/c7-4-2-1-3(4)6(8)9-5(1)2/h1-5,7H/t1-,2+,3-,4+,5+/m1/s1
