18
gdb 91477	2.58518	1.64449	1.23847	5.1536	76.25	-0.2779	0.0313	0.3092	1035.7152	0.149543	-401.954688	-401.946921	-401.945976	-401.986731	30.567	
O	-0.0732805477	 1.3945155977	-0.0108351498	-0.43147
C	-0.0163839497	-0.0166398932	 0.0189805797	 0.086192
C	 0.4851501886	-0.6184435833	 1.3752968867	-0.254537
C	-0.8025447548	-1.3337347185	 1.8237148505	-0.042044
C	-1.2350247794	-2.0424443798	 0.5079208428	-0.267003
C	-1.4604326058	-0.5712363714	 0.0317723989	 0.219978
C	-1.8976617023	-0.2762614768	 1.5046734739	-0.255676
C	-2.2965941387	-0.2568247184	-1.104736634	 0.168064
N	-2.9750073619	-0.0304034202	-2.0131881865	-0.34782
H	 0.8221334151	 1.7352100122	-0.0969702995	 0.290387
H	 0.5402843096	-0.4027806328	-0.8445827843	 0.083017
H	 1.3256908642	-1.3066792072	 1.2486406811	 0.10161
H	 0.7851443153	 0.1834828412	 2.0553656273	 0.106501
H	-0.7832575552	-1.8626373786	 2.7754673987	 0.075571
H	-0.4960300997	-2.6400726865	-0.03312464	 0.105188
H	-2.1760156611	-2.5871891401	 0.5967428052	 0.121348
H	-2.9079955317	-0.6349128469	 1.7066740709	 0.116073
H	-1.7643175248	 0.7459699225	 1.8603429585	 0.124621
134.0346	143.7785	206.4476	221.2591	331.5896	429.7078	460.9473	486.0858	529.0481	554.7719	588.6533	683.8722	822.1333	843.9425	864.3137	900.5691	923.5874	957.9143	990.5156	997.9745	1024.8942	1058.3341	1082.3501	1116.7067	1155.4856	1166.2665	1205.822	1219.1699	1239.4064	1257.3652	1264.929	1272.0696	1313.5452	1344.8023	1427.3169	1484.6437	1486.5722	1522.4974	2355.4986	3017.5165	3055.7065	3063.5678	3084.4251	3106.7093	3127.4431	3135.6554	3151.3605	3830.5449
OC1CC2CC1(C2)C#N	O[C@H]1C[C@@H]2C[C@]1(C2)C#N	
InChI=1S/C7H9NO/c8-4-7-2-5(3-7)1-6(7)9/h5-6,9H,1-3H2	InChI=1S/C7H9NO/c8-4-7-2-5(3-7)1-6(7)9/h5-6,9H,1-3H2/t5-,6-,7+/m0/s1
