23
gdb 104928	2.20126	1.32087	1.00273	3.0663	87.71	-0.2429	-0.0155	0.2274	1321.0849	0.202833	-388.303862	-388.293224	-388.29228	-388.339025	39.556	
C	 0.3373739498	 1.4655874031	 0.3670669288	-0.381876
C	-0.2167042049	 0.1295082195	-0.1463529368	-0.2639
C	 0.5759323552	-0.4360722091	-1.3183384263	 0.208998
C	 1.9733115859	-1.0232459	-1.1051829816	-0.371767
C	 0.861964935	-1.9569354138	-1.4610536328	 0.272583
C	 0.3260113318	-2.8941553771	-0.390656239	-0.447913
C	 0.8488013446	-2.608436392	-2.8378881898	-0.456023
C	 0.3954057477	 0.3304217941	-2.5816392723	 0.11871
O	-0.4316246354	 1.1972770256	-2.7426569181	-0.278224
H	 1.3739725596	 1.3619973568	 0.7059297605	 0.107539
H	 0.3078259552	 2.2276800116	-0.4151518036	 0.138914
H	-0.2553514902	 1.8281765068	 1.2126302003	 0.110099
H	-0.2429194794	-0.5877112561	 0.6767142873	 0.091554
H	-1.2514755868	 0.2731694853	-0.4746425057	 0.117335
H	 2.730485342	-0.8035320777	-1.8528904452	 0.114746
H	 2.3444427653	-1.0195038045	-0.0850873865	 0.1195
H	 0.4626022572	-2.5096123742	 0.6212512627	 0.123336
H	-0.7402634831	-3.1003820052	-0.5363203592	 0.123839
H	 0.8574851487	-3.8509585967	-0.4491702461	 0.119392
H	 1.3690768229	-3.5719550739	-2.7909138111	 0.118978
H	-0.1754743687	-2.8038600233	-3.1746544972	 0.125836
H	 1.3449632109	-2.010399162	-3.6039398084	 0.120497
H	 1.1000232567	 0.0721931529	-3.4021601698	 0.067849
84.0203	101.4138	134.2192	165.0714	195.8561	214.8109	247.006	278.5201	330.0889	346.701	371.9322	387.4117	437.1402	521.201	540.3925	690.9871	734.3235	793.8573	842.8883	915.0942	929.4691	957.1811	968.9189	1000.0821	1036.2201	1047.6526	1061.9388	1076.6937	1102.8288	1142.2921	1183.0167	1238.3225	1302.2121	1331.3847	1365.0411	1368.5675	1407.5363	1412.1653	1424.4153	1447.2147	1471.2053	1484.9767	1488.5402	1492.5048	1497.6251	1505.5968	1511.0281	1516.6776	1799.5769	2884.302	3029.6908	3034.2792	3038.2374	3056.716	3085.6678	3089.7044	3097.2131	3104.4065	3117.0343	3127.1967	3128.4377	3134.1142	3202.4683
CCC1(CC1(C)C)C=O	CC[C@]1(CC1(C)C)C=O	
InChI=1S/C8H14O/c1-4-8(6-9)5-7(8,2)3/h6H,4-5H2,1-3H3	InChI=1S/C8H14O/c1-4-8(6-9)5-7(8,2)3/h6H,4-5H2,1-3H3/t8-/m0/s1
