20
gdb 113756	2.01709	1.58708	1.06917	1.8309	76.51	-0.2332	-0.0437	0.1895	1192.3505	0.169157	-440.254311	-440.244691	-440.243747	-440.288622	35.32	
C	 1.1738422844	 1.3202574061	 0.7324020915	-0.405026
C	 0.5626626734	-0.0545054347	 0.4512383036	-0.033274
C	-0.9413912978	-0.0281492488	 0.6693097811	 0.171683
O	-1.5557630121	-0.8952562971	 1.2473662019	-0.262993
N	 0.7953437131	-0.3914304558	-0.9623837273	-0.122901
C	 1.9329568625	-1.279219924	-1.2384954564	-0.253284
C	 0.5460078035	-1.7448891742	-1.4881638838	 0.00291
C	-0.0899806668	-2.9089853276	-0.7369741073	-0.118556
O	 0.2855010363	-3.0408397009	 0.6182139221	-0.422813
H	 2.2494697136	 1.2935700597	 0.5375739825	 0.132782
H	 0.7318749617	 2.0800156115	 0.0808359649	 0.129537
H	 1.0230453645	 1.6133012773	 1.776479237	 0.120802
H	 0.9778862196	-0.8013269364	 1.1368600308	 0.101948
H	-1.4716544782	 0.8480205412	 0.2391237101	 0.102752
H	 2.5828237543	-0.9835114463	-2.0579811756	 0.114333
H	 2.4375414064	-1.713565655	-0.3776376845	 0.129773
H	 0.1907774366	-1.7098775637	-2.5194140926	 0.091788
H	-1.1820732162	-2.8402803967	-0.8371146371	 0.106619
H	 0.2154496126	-3.8274899701	-1.2559100902	 0.11368
H	-0.3471660212	-2.5193050546	 1.1339042692	 0.300238
85.6909	129.7876	147.3524	174.4343	216.1181	227.6899	237.4497	295.4957	312.8988	429.2519	459.0345	531.9681	643.9497	671.0159	741.6424	750.9322	897.4595	919.2887	945.8192	956.8306	1001.3658	1055.8311	1065.6913	1109.3596	1122.4266	1127.362	1148.8746	1161.6374	1187.2324	1262.4223	1312.898	1332.8784	1347.6256	1388.5897	1401.6537	1417.6066	1428.4483	1448.7834	1486.8213	1494.5025	1495.6039	1505.9796	1807.2623	2913.7242	3003.6928	3039.031	3042.3359	3050.1009	3092.7778	3098.3728	3113.5544	3120.7195	3185.6993	3706.4828
CC(C=O)N1CC1CO	C[C@@H](C=O)N1C[C@H]1CO	
InChI=1S/C6H11NO2/c1-5(3-8)7-2-6(7)4-9/h3,5-6,9H,2,4H2,1H3	InChI=1S/C6H11NO2/c1-5(3-8)7-2-6(7)4-9/h3,5-6,9H,2,4H2,1H3/t5-,6-,7?/m0/s1
