15
gdb 41132	3.01983	2.29789	1.72206	2.4328	68.56	-0.2249	-0.0245	0.2004	796.2494	0.112241	-420.456782	-420.450764	-420.44982	-420.486669	25.725	
C	 0.0599672345	 1.4737173511	-0.2163128393	-0.179854
O	 1.504907147	 1.4798776715	 0.0894763694	-0.320605
C	 1.3540776727	 0.2608714638	 0.8374905405	 0.320308
C	 1.1931956036	 0.2416067515	 2.3338321877	-0.189336
C	 0.2903125065	-0.7251761477	 2.5393482281	-0.088035
C	-0.0395890723	-1.2538919183	 1.1525925895	-0.190274
C	 1.3221458445	-1.2402940038	 0.2936100275	 0.003105
O	 0.6296051934	-0.8409331763	-0.9023345341	-0.324323
C	 0.0201162694	-0.0158407447	 0.1669325865	 0.278906
H	-0.4843557059	 2.1475671355	 0.4527523409	 0.125161
H	-0.1388328506	 1.7003336715	-1.2656115154	 0.139063
H	 1.7144209717	 0.8693962588	 3.0420341327	 0.120828
H	-0.0976642865	-1.1118344291	 3.4710845323	 0.116136
H	-0.7456349021	-2.0683091893	 0.9997932231	 0.093165
H	 2.0924632341	-2.0161517944	 0.2108008206	 0.095754
239.485	326.1946	370.5706	434.9782	505.8446	517.8646	617.4373	680.3342	686.7287	725.6455	753.9837	823.5873	844.4852	876.6016	914.4892	917.3475	946.9138	956.1967	999.3335	1028.7879	1069.7136	1082.6774	1123.8012	1144.4017	1154.697	1184.9706	1232.5376	1247.659	1284.6545	1302.136	1332.2749	1480.5737	1615.0034	3046.8597	3051.4173	3129.3211	3144.1583	3224.3937	3249.9332
C1OC23C=CC4C2OC134	C1O[C@]23C=C[C@@H]4[C@H]2O[C@]134	
InChI=1S/C7H6O2/c1-2-6-5-4(1)7(6,9-5)3-8-6/h1-2,4-5H,3H2	InChI=1S/C7H6O2/c1-2-6-5-4(1)7(6,9-5)3-8-6/h1-2,4-5H,3H2/t4-,5-,6-,7+/m1/s1
