20
gdb 111513	2.45664	1.62865	1.3254	4.0817	73.87	-0.2268	0.053	0.2798	1046.105	0.172573	-440.256988	-440.248692	-440.247747	-440.289424	32.839	
O	 0.3563424361	 1.366622587	-0.2778532759	-0.419297
C	 0.095295236	-0.0060189443	-0.0763351757	-0.071143
C	-1.3884756747	-0.3918908506	-0.029292956	 0.00744
C	-2.2229409601	 0.1973218435	 1.1396198254	 0.051583
O	-1.7497122046	 1.5132942389	 1.4642648876	-0.428427
C	-3.6617489624	 0.2018660413	 0.5792270991	-0.251028
C	-3.4855456202	 0.2552184924	-0.9328428414	-0.023342
C	-2.5434084036	 1.2579657831	-1.4898755629	-0.235985
N	-2.107657735	-0.1358111343	-1.2913333163	-0.101579
H	-0.0831232758	 1.8301830431	 0.4453540086	 0.291888
H	 0.5535724193	-0.5340245689	-0.9186923108	 0.116036
H	 0.574387733	-0.3798356839	 0.8445418963	 0.078528
H	-1.4115813111	-1.4832124341	 0.1021354679	 0.08399
H	-2.1377309242	-0.4363271161	 2.0315156389	 0.076739
H	-2.2599611513	 1.8470076518	 2.2081618743	 0.290543
H	-4.1738589113	-0.7255165011	 0.8600044343	 0.107808
H	-4.2489549307	 1.0339756679	 0.9825448237	 0.09889
H	-4.2809333862	-0.1508489768	-1.5516049758	 0.086536
H	-2.6250536296	 1.5460224393	-2.5339888372	 0.111721
H	-2.1574816637	 2.0267234918	-0.8327998542	 0.1291
118.5323	156.2417	225.3875	252.2347	267.4304	312.8645	353.3747	406.5988	434.3569	558.8491	618.9705	685.7032	731.6074	787.712	825.8235	850.5855	862.5462	906.6261	932.5771	979.5597	1010.038	1038.9367	1069.294	1097.1175	1108.6971	1125.7345	1137.6362	1171.025	1201.5238	1212.297	1250.1873	1275.5565	1292.4872	1334.3957	1343.3105	1362.3129	1391.874	1401.5691	1425.9965	1461.8395	1475.7116	1496.0973	1509.2501	2960.275	3001.1164	3019.1637	3040.9898	3077.2115	3078.6703	3127.1559	3144.2324	3231.2595	3783.2706	3826.8265
OCC1C(O)CC2CN12	OC[C@H]1[C@@H](O)C[C@H]2CN12	
InChI=1S/C6H11NO2/c8-3-5-6(9)1-4-2-7(4)5/h4-6,8-9H,1-3H2	InChI=1S/C6H11NO2/c8-3-5-6(9)1-4-2-7(4)5/h4-6,8-9H,1-3H2/t4-,5-,6-,7?/m0/s1
