23
gdb 77391	2.12691	1.92203	1.22421	0.1554	90.44	-0.2706	0.0897	0.3602	1138.899	0.204588	-351.101702	-351.092576	-351.091632	-351.134562	36.196	
C	-0.1678778216	 1.5914090341	-0.0248372162	-0.427867
C	-0.033935419	 0.074920696	-0.0007985805	-0.095142
C	 1.1853887955	-0.5967233129	-0.6770360402	 0.361496
C	 1.5640802492	-0.5945804414	-2.1335644329	-0.525764
C	 2.130268175	-0.2942605835	 0.5481588117	-0.128415
C	 2.582079488	-1.7636979774	 0.6534690578	-0.288117
C	 1.092013828	-1.8460110951	 0.273308649	-0.120332
C	 0.715298773	-0.608989597	 1.1679906555	 0.361492
C	 0.3508791379	-0.6262355488	 2.6280547847	-0.525764
H	 0.778673793	 2.0855513955	 0.2195410272	 0.111288
H	-0.4818345085	 1.9459325733	-1.0131024148	 0.112676
H	-0.9174528938	 1.9345626034	 0.6971792942	 0.112676
H	-0.9938248904	-0.4015357365	-0.2485363697	 0.049145
H	 1.7269291786	 0.4257463219	-2.4991316486	 0.118096
H	 2.4854608056	-1.1609161711	-2.3093067194	 0.118819
H	 0.7744505643	-1.044189171	-2.746635084	 0.116504
H	 2.7209956832	 0.6104720405	 0.7046858655	 0.061743
H	 3.3045776444	-2.1148433533	-0.0903804381	 0.08791
H	 2.8617285283	-2.1264249963	 1.6478738899	 0.087906
H	 0.4655292349	-2.7260470787	 0.1078401659	 0.058231
H	 1.077656966	-1.1976229357	 3.2161652609	 0.118819
H	 0.3156786919	 0.388926681	 3.0396763641	 0.118096
H	-0.6343896635	-1.0809765171	 2.7828920679	 0.116504
178.9918	188.8016	207.5201	207.6003	212.9121	223.7648	257.6084	292.6465	370.6507	510.7881	523.8769	578.422	654.8017	718.6311	727.045	825.8509	842.8856	871.3073	877.1653	909.4497	986.7772	1006.7965	1020.8723	1035.0889	1064.7831	1088.6877	1099.0786	1111.467	1135.6969	1138.4611	1162.4368	1183.1262	1188.4892	1228.598	1238.0469	1273.6602	1298.1949	1345.6294	1404.5286	1408.5961	1408.678	1432.1135	1485.7982	1487.1336	1491.7004	1491.8549	1496.3433	1501.6317	1514.9897	2996.7004	3021.7346	3021.7845	3025.7785	3037.1967	3079.4975	3084.5031	3084.9837	3086.2565	3087.6612	3088.6495	3090.3403	3091.6963	3097.007
CC1C2(C)C3CC2C13C	C[C@H]1[C@@]2(C)[C@@H]3C[C@H]2[C@]13C	
InChI=1S/C9H14/c1-5-8(2)6-4-7(8)9(5,6)3/h5-7H,4H2,1-3H3	InChI=1S/C9H14/c1-5-8(2)6-4-7(8)9(5,6)3/h5-7H,4H2,1-3H3/t5-,6-,7+,8-,9+
