15
gdb 56059	3.94105	0.78472	0.65972	3.7892	70.74	-0.2852	-0.0341	0.2511	1612.3646	0.109828	-453.988698	-453.979095	-453.978151	-454.024842	31.943	
C	 0.3499355139	 1.2203449476	 0.1791015791	-0.484221
C	-0.3291393588	-0.0899890861	-0.1024337117	 0.439622
O	-1.3427759127	-0.4973732286	 0.3866021563	-0.312519
O	 0.4035597293	-0.7947889603	-1.0427116775	-0.223044
C	-0.06378374	-2.0190766456	-1.4257584074	 0.129993
N	 0.6061125034	-2.6542242643	-2.280071062	-0.227761
C	 0.1525642415	-3.9599736766	-2.720854836	-0.241727
C	-1.0942302411	-4.4738574081	-2.1266238228	 0.232882
N	-2.074355911	-4.8472534567	-1.6415323746	-0.303711
H	 1.3648195164	 1.0409687763	 0.5452607387	 0.163345
H	 0.4372815937	 1.798837749	-0.7449982077	 0.16335
H	-0.2252537539	 1.7753611577	 0.918533274	 0.157934
H	-0.9909910916	-2.3211550242	-0.9368616189	 0.166131
H	 0.0292110016	-3.9333950901	-3.8102048636	 0.169862
H	 0.9509249595	-4.68652308	-2.5275888057	 0.169862
35.5423	88.8048	92.755	100.2809	178.7865	179.4937	307.6339	322.0978	375.6135	390.8898	493.2698	591.4685	640.4097	667.3984	902.1854	919.349	963.5018	1004.7395	1040.4872	1057.4853	1064.7944	1189.5175	1215.2752	1269.2936	1351.7024	1382.7025	1399.0035	1461.0747	1465.645	1472.1214	1772.8053	1860.6943	2355.2483	3039.7002	3058.8022	3066.0898	3123.8388	3133.2954	3175.2119
CC(=O)OC=NCC#N	CC(=O)OC=NCC#N	
InChI=1S/C5H6N2O2/c1-5(8)9-4-7-3-2-6/h4H,3H2,1H3	InChI=1S/C5H6N2O2/c1-5(8)9-4-7-3-2-6/h4H,3H2,1H3
