19
gdb 78970	3.05277	1.98054	1.72381	1.5415	75.72	-0.2427	0.0917	0.3343	877.2078	0.162601	-385.868506	-385.862218	-385.861274	-385.898761	27.27	
C	-0.1368011676	 1.5635562504	 0.0417599469	-0.423754
C	 0.0119041404	 0.0467355617	-0.0052530118	 0.042875
C	 0.9739089232	-0.5043045011	-1.0733778808	-0.099595
C	 2.3699017148	 0.017197461	-0.6675329442	-0.083926
C	 2.7750409575	-1.3267322605	-0.118744413	-0.089603
C	 2.2874296454	-0.2504458187	 0.8291547237	-0.07382
C	 0.8055246481	-0.6127669784	 1.1525442398	 0.029454
O	 0.7009141204	-2.0026851773	 0.7922218063	-0.254111
C	 1.3926166401	-1.9172640649	-0.4470923007	 0.052662
H	 0.8328433871	 2.0639159373	 0.1241709735	 0.121243
H	-0.6290888595	 1.9375899749	-0.8620991792	 0.11515
H	-0.7460893541	 1.8702708478	 0.8989282245	 0.112964
H	-0.9713210067	-0.4309358259	-0.0662770571	 0.075798
H	 0.6781382182	-0.4729902182	-2.1200731046	 0.065366
H	 2.9667052958	 0.7935003265	-1.1279362372	 0.084628
H	 3.7367830703	-1.8192893085	-0.0576566692	 0.087814
H	 2.9565334753	 0.2199444973	 1.5356690496	 0.088962
H	 0.4627648679	-0.4585778516	 2.1743535908	 0.070274
H	 1.2910375033	-2.8330302417	-1.0244970074	 0.07762
211.1564	221.0643	265.5711	504.4485	531.139	589.7219	670.5226	706.4545	772.6616	788.9279	808.1513	815.6462	825.394	880.4765	895.4313	905.1187	934.3056	948.6693	962.8744	984.7308	1015.6048	1027.8378	1049.0009	1053.8295	1084.5796	1097.7132	1125.7593	1154.905	1195.1484	1200.65	1239.7024	1242.5495	1266.7309	1276.4348	1317.5643	1321.6105	1364.1729	1372.8525	1411.1475	1498.9351	1501.0304	3032.4517	3059.3615	3093.3897	3108.0473	3136.5447	3139.0553	3152.85	3190.4239	3200.4273	3220.8391
CC1C2C3C4C3C1OC24	C[C@H]1[C@H]2[C@@H]3[C@H]4[C@@H]3[C@@H]1O[C@@H]24	
InChI=1S/C8H10O/c1-2-3-4-5-6(4)8(3)9-7(2)5/h2-8H,1H3	InChI=1S/C8H10O/c1-2-3-4-5-6(4)8(3)9-7(2)5/h2-8H,1H3/t2-,3-,4-,5+,6-,7+,8-/m0/s1
