18
gdb 43716	4.59673	1.07957	1.0194	2.9293	76.53	-0.2384	-0.025	0.2134	1193.1505	0.147109	-401.905989	-401.898299	-401.897355	-401.938523	30.08	
O	-0.0249351896	 0.2924459618	-0.8204063749	-0.286216
C	-0.0324370753	 1.3030154044	-0.1823411517	 0.402861
C	-1.1597793474	 2.1776696762	 0.4060238442	-0.437157
C	-0.0618767456	 3.1845828718	 0.8047003375	 0.357879
C	 1.0652963416	 2.2518246363	 0.3310994671	-0.431501
C	-0.044232113	 4.6516976712	 0.7105855079	-0.106741
C	-1.3954851736	 5.2589816194	 1.0742413024	-0.253047
C	-1.2938390624	 4.4539029978	 2.3955865112	-0.153562
N	 0.0805792652	 3.9316461984	 2.056833352	-0.187789
H	-1.9182525969	 2.506310869	-0.3105555755	 0.134565
H	-1.6626849663	 1.6936417888	 1.2510400472	 0.139129
H	 1.6573371806	 1.8279694836	 1.1488657474	 0.145523
H	 1.7452843901	 2.6332492992	-0.4362579072	 0.133508
H	 0.7938458856	 5.1864810091	 0.272542138	 0.097452
H	-1.3534486869	 6.3375872316	 1.2338723156	 0.117442
H	-2.2267363733	 5.0363059489	 0.398030423	 0.105751
H	-1.2387315066	 5.0772378841	 3.2894850497	 0.116974
H	-2.0351383261	 3.6652707482	 2.560724056	 0.104929
50.4825	176.3865	199.1306	265.6878	388.1357	400.6226	422.8137	480.4458	562.8293	661.5116	712.4113	748.176	779.4551	815.4995	833.189	916.9945	948.5575	963.536	970.9377	1017.7439	1019.7224	1049.131	1073.1262	1109.4817	1140.1247	1175.6119	1191.7846	1200.8155	1219.1068	1226.5275	1267.6623	1278.8742	1310.2419	1420.3023	1430.6914	1451.9434	1484.9941	1507.4306	1900.9998	3044.7136	3049.1646	3054.791	3057.2103	3100.3999	3107.6908	3108.7476	3125.939	3151.4662
O=C1CC2(C1)C1CCN21	O=C1CC2(C1)[C@H]1CCN21	
InChI=1S/C7H9NO/c9-5-3-7(4-5)6-1-2-8(6)7/h6H,1-4H2	InChI=1S/C7H9NO/c9-5-3-7(4-5)6-1-2-8(6)7/h6H,1-4H2/t6-,8?/m1/s1
