22
gdb 76765	2.14911	1.56332	1.32766	1.9594	83.04	-0.2091	0.0768	0.2859	1143.1726	0.192396	-404.311294	-404.301787	-404.300843	-404.345022	36.011	
C	 0.1870248491	 1.546114279	 0.0116195586	-0.399418
C	 0.0789562926	 0.0331711048	 0.0539388357	 0.014929
N	 0.9841589674	-0.7054411503	-0.8711066417	-0.092007
C	 0.3993031792	-1.2904391857	-2.0565681765	-0.330623
C	 1.4386751771	-1.6125946056	 0.2045002478	-0.094408
C	 2.7227305496	-1.1012516715	 0.8686634964	-0.083463
O	 1.9637993173	-0.1801247662	 1.6951613251	-0.33431
C	 0.6991373472	-0.738617538	 1.2526232939	 0.420031
C	-0.1694131529	-1.1792750564	 2.3999613928	-0.477508
H	 1.2038776925	 1.8541002321	 0.2647914795	 0.135024
H	-0.0567896964	 1.92385545	-0.9868006616	 0.111901
H	-0.5070433356	 2.0066285314	 0.7234521758	 0.109476
H	-0.9697637994	-0.285568626	-0.0779929056	 0.052144
H	 0.0452441615	-0.4961462818	-2.7224060656	 0.122118
H	 1.1544090961	-1.8666694984	-2.6019850193	 0.118951
H	-0.4573629004	-1.9606756977	-1.8474695882	 0.086876
H	 1.2861735596	-2.6831623881	 0.0462409732	 0.069976
H	 3.2532380163	-1.8368945676	 1.4880376104	 0.09318
H	 3.4238224799	-0.5878605857	 0.2034659805	 0.105621
H	-0.4624042656	-0.3118966846	 3.0029920428	 0.130639
H	-1.0800939542	-1.6677415748	 2.0399591711	 0.117307
H	 0.3681662788	-1.8740260887	 3.0519943051	 0.123565
86.8139	190.4669	200.2518	203.0348	209.5672	214.8911	230.1007	287.2143	335.8412	405.1638	427.6307	557.8427	596.2854	676.5644	754.6687	836.9674	867.6166	894.1654	927.3758	989.8166	994.051	1011.9207	1055.5664	1083.4229	1106.9459	1123.0451	1148.9786	1164.5472	1174.3531	1197.7707	1201.9847	1226.3668	1278.4745	1309.4224	1340.6633	1361.8857	1378.7776	1402.7709	1411.1954	1456.3633	1481.0837	1484.2303	1488.5703	1491.3135	1495.6547	1500.6304	1502.8432	2914.0692	2946.7193	3007.7727	3031.3957	3035.5786	3053.124	3076.2545	3083.4586	3095.4997	3097.5058	3099.1745	3113.8437	3132.537
CC1N(C)C2COC12C	C[C@H]1N(C)[C@H]2CO[C@@]12C	
InChI=1S/C7H13NO/c1-5-7(2)6(4-9-7)8(5)3/h5-6H,4H2,1-3H3	InChI=1S/C7H13NO/c1-5-7(2)6(4-9-7)8(5)3/h5-6H,4H2,1-3H3/t5-,6+,7+/m1/s1
