19
gdb 115671	2.34183	1.24417	0.94748	2.5915	71.36	-0.2396	-0.0214	0.2182	1279.8198	0.156567	-460.151231	-460.141284	-460.14034	-460.187505	34.584	
C	 1.1966543329	-0.3441440956	-0.3661344975	-0.473845
C	 0.0303738337	 0.4212658676	 0.2140953125	 0.348232
O	 0.0842055857	 1.5898576851	 0.526764597	-0.306406
C	-1.2838873948	-0.3351628299	 0.3787230079	 0.018054
O	-1.1788757698	-1.7672513017	 0.2481819378	-0.286517
C	-1.8553917251	-1.9763718955	 1.5067938949	-0.087994
C	-1.8978671531	-0.4587590323	 1.8014654497	-0.065689
C	-1.0589131398	 0.0248186071	 2.978846559	-0.09152
O	-1.6735120553	-0.28270082	 4.2197110984	-0.420003
H	 2.0536308487	 0.3202668394	-0.4802579628	 0.138706
H	 1.4488078118	-1.1897701789	 0.2813590039	 0.149384
H	 0.918724833	-0.7793581372	-1.3324723932	 0.149839
H	-1.9862620008	 0.0834692205	-0.3573318103	 0.109846
H	-2.8300348503	-2.458361417	 1.3675303356	 0.110824
H	-1.2522516005	-2.5862272588	 2.1939714388	 0.095084
H	-2.9039810228	-0.0457510846	 1.8909512761	 0.096951
H	-0.0413650087	-0.3953173973	 2.9204283552	 0.087915
H	-0.9594488061	 1.11225362	 2.9423438248	 0.143563
H	-1.6646668986	-1.2387029109	 4.331542982	 0.283576
34.5154	68.1866	108.9576	115.854	136.0871	223.5539	258.6952	306.062	372.0997	419.9445	462.2285	504.756	610.2582	741.3272	820.891	871.0349	908.2935	938.4628	983.8419	1011.6938	1038.8044	1050.2745	1065.2959	1091.8139	1134.0566	1170.197	1207.7691	1227.7191	1241.8425	1270.1646	1334.4858	1339.5115	1365.5029	1380.5324	1395.0071	1417.2135	1451.0922	1463.5544	1501.5282	1525.625	1802.8996	2971.7872	2994.5251	3003.3959	3044.277	3053.5423	3098.4113	3105.2427	3110.5957	3158.7048	3812.9934
CC(=O)C1OCC1CO	CC(=O)[C@H]1OC[C@H]1CO	
InChI=1S/C6H10O3/c1-4(8)6-5(2-7)3-9-6/h5-7H,2-3H2,1H3	InChI=1S/C6H10O3/c1-4(8)6-5(2-7)3-9-6/h5-7H,2-3H2,1H3/t5-,6-/m1/s1
