15
gdb 19047	4.35431	2.13177	1.87758	3.5365	65.77	-0.2177	-0.0558	0.1618	745.7895	0.117541	-362.52399	-362.5176	-362.516656	-362.554161	25.57	
C	-0.0271063296	 1.544501941	-0.0906480887	-0.369108
C	 0.0111903495	 0.025299982	-0.0010839181	 0.032039
N	 0.8782942632	-0.4624681115	-1.1532401454	-0.236108
C	 1.5919909973	-1.3247179802	-0.5662640021	 0.265709
O	 2.9295518537	-1.0706361902	-0.21729571	-0.265384
C	 2.3077449037	-1.026672641	 1.1459137601	 0.071941
C	 0.7624604376	-0.547354651	 1.2342050799	-0.099024
C	 1.1975150103	-1.9142668952	 0.8282113485	-0.206899
H	 0.9872775971	 1.9503551029	-0.1196673657	 0.133497
H	-0.5519401159	 1.8644699444	-0.9940541039	 0.130577
H	-0.5490493237	 1.9536566833	 0.7824697106	 0.108308
H	-1.0133395307	-0.3770113207	-0.0203389345	 0.0869
H	 3.0128509315	-0.9734554778	 1.966445591	 0.131681
H	 0.4145152598	-0.3324605616	 2.2431001756	 0.096502
H	 0.9195823161	-2.9171182444	 1.1209812027	 0.119369
130.7539	241.7841	288.9481	386.5169	494.761	527.2535	599.082	604.9699	706.9974	736.3896	782.7093	809.2952	827.36	862.6139	912.0509	978.1056	1008.3697	1026.471	1029.9238	1074.5433	1099.8625	1118.5903	1144.4212	1184.7118	1254.7088	1262.2569	1338.1004	1357.3818	1402.3172	1477.8401	1494.9893	1625.1905	2982.2275	3034.7591	3109.8195	3131.8482	3137.3769	3197.04	3212.2396
CC1N=C2OC3C1C23	C[C@H]1[N][C]2O[C@H]3[C@@H]1[C@@H]23	
InChI=1S/C6H7NO/c1-2-3-4-5(3)8-6(4)7-2/h2-5H,1H3	InChI=1S/C6H7NO/c1-2-3-4-5(3)8-6(4)7-2/h2-5H,1H3/t2-,3+,4-,5+/m1/s1
