21
gdb 87235	4.27149	0.7195	0.68164	3.297	84.31	-0.2533	0.0348	0.2881	1693.7148	0.181316	-383.273407	-383.263108	-383.262164	-383.309192	37.051	
C	-0.0100624559	 1.423844526	-0.3041289857	-0.40341
C	 0.0428521399	-0.0308133982	 0.0975150117	-0.043907
N	 1.355716881	-0.7056602422	 0.0572904669	-0.373522
C	 0.6551469695	-0.5611664377	 1.3523850999	 0.332151
C	 1.3299182468	 0.3595441431	 2.3508517203	-0.456918
C	 0.0137471741	-1.8061810708	 1.9491073859	-0.269305
C	 1.0439682457	-2.7753992683	 2.5762350838	-0.344651
C	 0.4219477272	-4.0078058844	 3.0532497121	 0.259322
N	-0.089752252	-4.9759676387	 3.4225334704	-0.304133
H	 0.8830395836	 1.9644475606	 0.0141225786	 0.129027
H	-0.0761638451	 1.5102386219	-1.3939265597	 0.124912
H	-0.8894342097	 1.9163529784	 0.1250286915	 0.118425
H	-0.805377262	-0.6101805706	-0.2682070627	 0.080896
H	 1.2551578823	-1.6516860357	-0.3047641629	 0.224111
H	 1.7728106608	 1.2233997997	 1.8546174352	 0.134485
H	 0.6122335063	 0.7171548358	 3.0977064451	 0.118199
H	 2.1396435195	-0.1536490374	 2.880531834	 0.120472
H	-0.7166694621	-1.5233175794	 2.7158407391	 0.124213
H	-0.5401383094	-2.342250157	 1.1709406842	 0.116533
H	 1.8158312085	-3.0348817075	 1.8423531801	 0.155503
H	 1.5593915512	-2.3025295876	 3.4183033323	 0.157598
60.2073	80.4688	104.5811	148.3432	157.7597	206.9648	271.0098	275.7279	360.8836	386.1468	405.5281	471.8706	519.1142	550.6819	721.9134	764.3953	782.5527	866.963	948.6449	961.7857	976.3456	991.3182	1017.7901	1044.5915	1085.5094	1099.1823	1112.3637	1148.8817	1200.4317	1244.0833	1270.7822	1300.1828	1313.186	1371.6473	1385.5131	1412.3361	1425.3665	1458.2058	1466.3335	1480.2583	1486.8172	1489.0831	1502.062	1512.2906	2362.1492	3034.6163	3037.8109	3039.9439	3050.0335	3074.9763	3093.1798	3096.0871	3097.6454	3099.1304	3134.1326	3146.4396	3482.1691
CC1NC1(C)CCC#N	C[C@H]1N[C@]1(C)CCC#N	
InChI=1S/C7H12N2/c1-6-7(2,9-6)4-3-5-8/h6,9H,3-4H2,1-2H3	InChI=1S/C7H12N2/c1-6-7(2,9-6)4-3-5-8/h6,9H,3-4H2,1-2H3/t6-,7-/m1/s1
