13
gdb 27860	2.08692	2.01256	1.02453	6.1166	65.25	-0.248	-0.0175	0.2305	1058.0592	0.090157	-486.166465	-486.158038	-486.157094	-486.199976	29.836	
N	 0.0127280618	 1.3090590281	 0.0079234002	-0.560309
C	-0.0487587775	-0.0323709463	 0.0007902038	 0.526059
N	-1.2062811888	-0.6432568459	 0.0037633011	-0.415516
C	-1.1047977764	-2.0015499927	-0.004312983	 0.45254
N	-2.2765771263	-2.6609774764	-0.001512973	-0.543316
N	 0.0004045691	-2.7335342247	-0.0144415816	-0.40619
C	 1.1868703822	-2.1145593562	-0.0175882434	 0.430533
O	 2.2961343534	-2.5478583228	-0.0259942849	-0.337247
O	 1.1321876304	-0.6200784875	-0.00895504	-0.258839
H	 0.9045882673	 1.7707806219	 0.0056071575	 0.282824
H	-0.8426271155	 1.8354053322	 0.0155683335	 0.280657
H	-3.137412693	-2.1447308182	 0.0060809762	 0.271775
H	-2.2712893468	-3.6655815515	-0.0071004665	 0.277029
70.9107	119.8973	165.0435	176.4193	189.6657	311.1485	367.9026	513.7994	551.9214	555.6368	587.4983	600.91	637.1629	750.8986	761.9867	775.6074	809.5154	959.0077	1015.9873	1060.3334	1172.2001	1262.3352	1450.521	1495.6906	1545.6241	1607.6591	1657.4602	1672.8567	1927.0493	3628.8784	3631.3619	3769.5289	3772.0406
NC1=NC(N)=NC(=O)O1	Nc1nc(N)nc(=O)o1	
InChI=1S/C3H4N4O2/c4-1-6-2(5)9-3(8)7-1/h(H4,4,5,6,7,8)	InChI=1S/C3H4N4O2/c4-1-6-2(5)9-3(8)7-1/h(H4,4,5,6,7,8)
