20
gdb 49732	2.38649	1.55925	1.48526	1.5227	80.21	-0.2266	-0.0331	0.1934	1034.7048	0.172896	-403.140301	-403.132281	-403.131337	-403.172726	31.145	
O	-0.7586169961	 0.7707120175	 0.1902453985	-0.278361
C	 0.0453644669	 1.3565457588	-0.500553296	 0.143386
C	 1.3476469308	 1.9176532103	-0.0745670386	-0.10796
C	 1.4450752571	 2.8476685707	 1.1340344169	-0.019871
C	 0.2733227182	 3.1258003815	 2.0661150975	-0.23063
C	 0.4287213076	 2.3140963476	 3.3627390184	-0.196305
C	 0.4925616535	 0.822683906	 3.0175885493	-0.203682
C	 1.6820029885	 0.5105210336	 2.0868462274	-0.140913
N	 2.0899984344	 1.5575712272	 1.1331594735	-0.099751
H	-0.1589209861	 1.523380472	-1.5825550605	 0.08116
H	 1.9930801692	 2.1475428803	-0.9220273148	 0.094879
H	 2.1360820846	 3.6798857463	 1.0006389958	 0.0998
H	 0.2372481875	 4.1992791624	 2.2736478075	 0.096982
H	-0.6776021188	 2.8530970803	 1.5980915327	 0.124112
H	 1.3394152473	 2.6262378626	 3.8920914925	 0.094209
H	-0.4138596132	 2.5153720031	 4.0318072257	 0.096752
H	 0.6011032805	 0.2185996554	 3.9251143188	 0.088086
H	-0.4422488024	 0.5330926443	 2.5334387926	 0.133598
H	 2.5738905717	 0.3443619505	 2.7040266067	 0.10864
H	 1.5056585089	-0.4143293303	 1.531335946	 0.115869
112.0033	140.0544	175.1888	209.8626	309.7005	354.5042	412.4707	453.9377	489.1354	605.7639	682.0425	773.5336	789.7386	817.0743	847.0596	871.2319	917.5786	948.882	961.4298	1009.2032	1022.6582	1068.2944	1081.8679	1104.6779	1142.0744	1148.4974	1189.3633	1216.9626	1294.8454	1303.3349	1349.9795	1352.2527	1367.8121	1383.1569	1388.6069	1392.6299	1412.2474	1434.5048	1483.198	1488.6835	1492.0436	1503.6065	1794.9936	2873.3949	3016.5734	3021.9852	3047.1141	3050.0973	3074.6124	3087.7381	3089.6427	3102.353	3111.6057	3120.8846
O=CC1C2CCCCN12	O=C[C@H]1[C@H]2CCCCN12	
InChI=1S/C7H11NO/c9-5-7-6-3-1-2-4-8(6)7/h5-7H,1-4H2	InChI=1S/C7H11NO/c9-5-7-6-3-1-2-4-8(6)7/h5-7H,1-4H2/t6-,7+,8?/m1/s1
