16
gdb 79431	2.77983	1.5808	1.15603	1.9985	69.75	-0.2379	-0.0413	0.1966	1034.9375	0.123576	-437.785838	-437.77814	-437.777196	-437.818304	29.021	
O	 0.2873230255	 1.2934316805	 0.0066949654	-0.441804
C	 0.1995029545	-0.1074324588	 0.1112637901	 0.102094
C	-0.1030746791	-0.7077472392	 1.501449808	-0.154803
C	-1.6139376061	-0.2773124366	 1.4242924562	-0.018405
N	-2.1866075993	-1.643900642	 1.669869422	-0.388187
C	-0.940319812	-1.8805447343	 0.8723043128	 0.259336
C	-0.4756149257	-3.2176466128	 0.4150009013	 0.024716
O	 0.619325796	-3.4241522807	-0.0497378368	-0.255499
C	-1.2306367669	-0.6302359172	-0.0462680366	-0.094335
H	 1.2040373139	 1.5513733556	 0.1423620677	 0.288176
H	 0.9685869371	-0.6215821505	-0.4748799457	 0.099444
H	 0.5211244124	-0.7801140145	 2.3939132883	 0.081297
H	-2.0771305331	 0.6349280169	 1.7941133525	 0.100742
H	-2.0334886334	-1.914522888	 2.6461352188	 0.209167
H	-1.2319906896	-4.0269836562	 0.5225015129	 0.090557
H	-1.8936056543	-0.6249755421	-0.910083367	 0.097505
83.8568	129.7495	220.7074	237.738	263.236	343.4878	463.711	517.0978	539.7855	706.6963	731.7487	798.1103	838.2359	864.1643	910.0246	913.2874	947.5697	1004.2826	1030.588	1060.5517	1073.8655	1109.7066	1117.6504	1134.6718	1142.4186	1199.1114	1211.2079	1254.7718	1261.3347	1298.5611	1301.0878	1334.0695	1409.0399	1439.0367	1808.7993	2887.2794	3055.7071	3104.6512	3134.6557	3145.8391	3388.557	3827.1339
OC1C2C3NC2(C=O)C13	O[C@H]1[C@H]2[C@@H]3N[C@@]2(C=O)[C@H]13	
InChI=1S/C6H7NO2/c8-1-6-2-4(7-6)3(6)5(2)9/h1-5,7,9H	InChI=1S/C6H7NO2/c8-1-6-2-4(7-6)3(6)5(2)9/h1-5,7,9H/t2-,3+,4+,5+,6-
