17
gdb 32171	2.77004	1.23768	0.87345	0.7114	78.95	-0.2202	-0.0036	0.2166	1276.6018	0.137398	-421.890703	-421.882595	-421.881651	-421.92365	31.16	
O	 0.223659311	 1.0996711587	-0.7698423895	-0.407187
C	-0.0200181815	 0.0912504248	 0.1985515687	-0.153531
C	-1.4269991229	-0.470880713	 0.1550545785	 0.270334
C	-2.0386683002	-0.9527795612	 1.3125163134	-0.229825
C	-3.3202651127	-1.4968262687	 1.2470303683	-0.079424
C	-4.006953248	-1.5587301979	 0.04095031	-0.204537
C	-3.3985743906	-1.0698357928	-1.1169170034	 0.413518
O	-4.1065032597	-1.1457471605	-2.2795111024	-0.440671
C	-2.1144572219	-0.5292382636	-1.058654387	-0.355426
H	-0.4065731361	 1.8104832666	-0.6100689426	 0.283212
H	 0.7070385595	-0.6989263001	-0.0254705524	 0.127608
H	 0.2017766149	 0.4463626844	 1.2165047892	 0.096273
H	-1.5160427871	-0.900632535	 2.2624976288	 0.086493
H	-3.7945196953	-1.8699588173	 2.1490611509	 0.097384
H	-5.0061907775	-1.9732008231	-0.0245145327	 0.103554
H	-3.5709358875	-0.7879318986	-2.9952999599	 0.297068
H	-1.6368481644	-0.1432985928	-1.9551868377	 0.095158
60.4227	159.787	222.1905	237.5289	338.6728	385.8699	394.2352	448.9748	457.0259	538.5458	556.9933	624.2568	711.3915	750.4666	802.8554	874.072	891.1336	957.3975	961.2679	997.6936	1010.168	1061.0813	1107.7808	1174.7553	1186.4092	1199.2208	1207.1555	1300.4852	1343.8053	1350.2577	1389.3839	1415.199	1487.4392	1497.2808	1534.6124	1642.4182	1646.5663	2988.0873	3049.1363	3164.9519	3168.1265	3184.5428	3203.9111	3805.9082	3821.2763
OCC1=CC=CC(O)=C1	OCc1cccc(O)c1	
InChI=1S/C7H8O2/c8-5-6-2-1-3-7(9)4-6/h1-4,8-9H,5H2	InChI=1S/C7H8O2/c8-5-6-2-1-3-7(9)4-6/h1-4,8-9H,5H2
