15
gdb 35607	2.65574	1.67606	1.27641	4.5689	69.13	-0.2687	-0.0095	0.2592	978.3016	0.114617	-416.791667	-416.784549	-416.783605	-416.823522	26.809	
N	-0.1497603213	-1.2184019844	 0.0190852738	-0.323603
C	-0.1255596353	-0.062556685	 0.0139946906	 0.294248
C	-0.0766518674	 1.3963515285	 0.0009512904	-0.225967
C	-0.4633924563	 2.0148285414	 1.4258879252	-0.169632
N	 0.7973565354	 2.1050825228	 2.2057812092	-0.29429
C	 1.6871725177	 2.0994008026	 1.3131168072	 0.446308
O	 3.0076921627	 1.7707125133	 1.2438840756	-0.26658
C	 2.7493227894	 1.2417767279	-0.1251224401	-0.128566
C	 1.3628183096	 1.9511454648	-0.1330965177	-0.153815
H	-0.743304741	 1.7568724875	-0.7866276938	 0.13195
H	-0.9292037232	 2.9984154216	 1.2886914759	 0.121303
H	-1.1716704725	 1.3754295353	 1.9558265853	 0.144614
H	 3.4928281393	 1.6146890016	-0.8293192584	 0.13828
H	 2.721365108	 0.150901683	-0.0976148343	 0.161595
H	 1.3849075551	 2.8777159492	-0.7092637489	 0.124154
93.3701	136.7218	228.5984	284.8794	348.923	454.1085	486.9667	579.5115	688.1591	704.1842	758.4273	793.9374	813.3436	906.1321	923.7647	952.0294	991.9418	1016.8214	1067.5741	1113.1023	1141.1296	1149.7845	1195.1822	1218.377	1223.8002	1300.2647	1314.8992	1343.667	1375.5818	1491.7312	1497.4991	1777.4839	2355.1244	3035.6068	3083.2493	3083.9055	3101.745	3118.331	3161.0432
N#CC1CN=C2OCC12	N#C[C@H]1C[N][C]2OC[C@@H]12	
InChI=1S/C6H6N2O/c7-1-4-2-8-6-5(4)3-9-6/h4-5H,2-3H2	InChI=1S/C6H6N2O/c7-1-4-2-8-6-5(4)3-9-6/h4-5H,2-3H2/t4-,5-/m0/s1
