18
gdb 60282	3.81436	0.74767	0.64493	5.0008	78.91	-0.2574	-0.0486	0.2088	1690.7002	0.145822	-435.280234	-435.270034	-435.26909	-435.315976	36.515	
C	-0.2954185129	 1.7408244707	 0.3349081926	-0.389215
C	-0.0800054839	 0.2490235186	 0.1279014343	 0.139109
O	 0.200234891	-0.3322183239	 1.3866099917	-0.437781
C	-1.3027795369	-0.4376765459	-0.4966388472	-0.1806
N	-1.0704242557	-1.8732445637	-0.5104894312	-0.29565
C	-1.9303411598	-2.6270642469	-1.0732135855	 0.282601
N	-3.0831352323	-2.2601108409	-1.7295383029	-0.554998
C	-1.6788189914	-4.05771883	-1.0852205734	 0.27065
N	-1.5108734158	-5.2007912996	-1.1040565882	-0.313862
H	 0.5914843726	 2.1872354336	 0.7913677744	 0.130294
H	-0.4863204329	 2.2460431878	-0.6172426755	 0.108531
H	-1.1447055203	 1.9153315697	 1.0036281087	 0.119317
H	 0.7690127322	 0.0956892124	-0.5601584558	 0.069935
H	 0.1879118919	-1.287865075	 1.2406051629	 0.291308
H	-2.1900551812	-0.1991866388	 0.114400079	 0.104558
H	-1.4825636736	-0.0475740226	-1.5115728674	 0.102723
H	-3.4560463233	-1.3426682962	-1.5465752852	 0.27463
H	-3.7611128578	-2.9747666792	-1.9389816614	 0.27845
54.8923	69.5472	98.242	198.2912	203.8684	222.2487	264.647	341.2924	362.9007	391.6458	454.2271	462.0575	478.3153	501.3226	532.242	620.5321	722.2716	831.4796	882.269	929.2132	942.2825	1017.2304	1071.0536	1120.693	1141.8585	1178.3274	1256.5764	1298.553	1343.1218	1348.9422	1392.3394	1405.673	1446.7907	1463.7983	1484.8798	1501.8972	1637.9072	1722.8449	2361.6805	2950.5697	2957.2283	3000.1579	3039.6482	3110.0772	3124.0557	3597.9734	3714.7764	3756.0307
CC(O)CN=C(N)C#N	C[C@@H](O)CN=C(N)C#N	
InChI=1S/C5H9N3O/c1-4(9)3-8-5(7)2-6/h4,9H,3H2,1H3,(H2,7,8)	InChI=1S/C5H9N3O/c1-4(9)3-8-5(7)2-6/h4,9H,3H2,1H3,(H2,7,8)/t4-/m1/s1
