18
gdb 27258	3.15986	1.50798	1.04598	1.8606	80.09	-0.1619	0.0566	0.2185	1121.8864	0.15146	-398.150987	-398.14281	-398.141866	-398.183691	31.403	
N	 0.1615008435	 1.4125053744	-0.0514199044	-0.609735
C	-0.0194155331	 0.0120841355	-0.0240769899	 0.100887
C	-1.1199624704	-0.8039198996	 0.0775324351	 0.245019
C	-2.6192635719	-0.7996997891	 0.1710802515	-0.370791
C	-2.936702052	-2.2948853511	-0.1384168234	-0.157621
N	-1.7260987276	-3.0487059932	 0.2752948612	-0.411053
C	-0.6550612236	-2.1442389678	 0.1303438583	 0.272859
C	 0.7115590079	-2.1497764553	 0.0472760246	-0.252264
N	 1.0856382861	-0.8067035395	-0.0597431974	-0.276023
H	 0.3316007534	 1.7605132139	-0.9912834918	 0.240419
H	-0.6622392241	 1.883512334	 0.3019828042	 0.24343
H	-2.9682743733	-0.5362300494	 1.1789274616	 0.107402
H	-3.1305398361	-0.1339456008	-0.5318627851	 0.098136
H	-3.817740634	-2.6578308498	 0.3990586242	 0.099678
H	-3.1266692168	-2.4059919292	-1.2172881915	 0.090661
H	-1.6190603345	-3.9249527457	-0.2192056686	 0.224313
H	 1.444845927	-2.93714258	 0.0093373452	 0.103075
H	 2.0247866795	-0.4584746173	 0.018342736	 0.251607
75.6636	154.2988	188.3777	244.6945	267.674	293.308	421.401	532.7692	565.4773	592.367	608.0217	629.5254	682.7507	705.1899	774.0463	824.7258	830.8825	879.2464	938.9217	1031.1245	1057.2182	1071.8271	1080.9086	1148.0918	1191.9479	1212.0183	1234.7817	1266.2233	1314.2495	1322.0156	1330.4295	1409.1943	1448.5061	1490.9019	1501.9537	1515.755	1602.9082	1643.3836	1684.9572	2975.9729	3005.9421	3063.1207	3076.4743	3271.573	3484.0224	3559.3231	3592.9109	3686.1745
NC1=C2CCNC2=CN1	Nc1c2CCNc2c[nH]1	
InChI=1S/C6H9N3/c7-6-4-1-2-8-5(4)3-9-6/h3,8-9H,1-2,7H2	InChI=1S/C6H9N3/c7-6-4-1-2-8-5(4)3-9-6/h3,8-9H,1-2,7H2
