17
gdb 32286	2.88104	1.42738	1.02762	3.9843	79.15	-0.2307	-0.053	0.1776	1159.9425	0.136667	-421.896509	-421.888435	-421.887491	-421.929398	30.293	
C	 0.0544141623	 1.5578192633	-0.1082663022	-0.378432
C	-0.0697918994	 0.0321692809	 0.0535878312	-0.271986
C	 0.6482779462	-0.4959821337	 1.267479067	 0.093041
C	 0.0204124144	-0.9467813703	 2.385229198	-0.146394
C	 0.7558144516	-1.427283454	 3.5132315033	-0.184046
C	 2.1002202716	-1.4264638919	 3.4353734265	 0.079311
O	 2.7643821038	-0.997845282	 2.3501106933	-0.21102
C	 2.1074272386	-0.5109119986	 1.2092298408	 0.393411
O	 2.7957774499	-0.1555667353	 0.2876067598	-0.344565
H	 1.1034335963	 1.8468306922	-0.202746183	 0.149661
H	-0.4750712242	 1.8904889564	-1.0061191083	 0.114935
H	-0.3742283932	 2.0808658843	 0.7526385467	 0.112007
H	-1.1260321399	-0.2515146154	 0.116326286	 0.097378
H	 0.3467015288	-0.4504018993	-0.8376334739	 0.126306
H	-1.0655780693	-0.9441928709	 2.4245696543	 0.111923
H	 0.261518784	-1.7840816684	 4.4065153454	 0.116065
H	 2.7737788484	-1.7625086572	 4.214729445	 0.142404
84.7063	109.7348	183.2305	215.787	301.543	325.184	446.0528	497.5157	526.5251	555.4455	582.1701	712.5437	781.4966	791.8739	807.7425	872.4674	934.1771	958.2678	966.1201	990.2128	1065.973	1076.5078	1091.6212	1131.3822	1223.8542	1278.673	1288.987	1353.1674	1390.7948	1401.8701	1447.0781	1474.6202	1495.6562	1511.6831	1603.5612	1683.7665	1818.6663	3036.5302	3041.546	3078.1628	3108.9409	3135.547	3167.7481	3207.6927	3232.9068
CCC1=CC=COC1=O	CCc1cccoc1=O	
InChI=1S/C7H8O2/c1-2-6-4-3-5-9-7(6)8/h3-5H,2H2,1H3	InChI=1S/C7H8O2/c1-2-6-4-3-5-9-7(6)8/h3-5H,2H2,1H3
