19
gdb 68838	2.80648	1.44793	1.1976	0.6951	76.25	-0.2427	0.0826	0.3253	1112.8989	0.156263	-422.97986	-422.97089	-422.969946	-423.013103	33.953	
C	-0.0555541304	 1.5261485897	 0.0620353539	-0.501227
C	 0.1709348952	 0.0519809884	-0.0069991882	 0.343599
C	 0.6430225449	-0.7880482686	-1.2145166915	-0.393461
C	 1.2132208173	-1.7959084024	-0.1920559544	 0.416123
C	 1.4798356854	-3.2293025735	-0.2540487056	-0.266247
O	 2.5483386023	-2.262142485	-0.2658483169	-0.277496
C	 0.7276087576	-0.9236734275	 0.961585708	 0.255952
C	 1.2861423805	-0.8210641343	 2.3403496926	-0.518444
O	-0.695887681	-0.8112716512	 0.753909906	-0.325197
H	 0.8072297718	 2.0701721771	-0.3352908584	 0.127283
H	-0.9341784995	 1.8111488879	-0.5277896859	 0.133175
H	-0.2265341934	 1.8417706808	 1.0947366323	 0.133228
H	-0.1481329606	-1.1338934919	-1.8839561323	 0.110583
H	 1.4474657533	-0.3196343948	-1.7885031287	 0.119404
H	 1.4122956517	-3.8378423678	 0.6465368056	 0.117112
H	 1.3328931311	-3.7656436564	-1.1902129203	 0.119286
H	 2.3783119587	-0.774541907	 2.2999941299	 0.141248
H	 0.907728978	 0.0690924163	 2.8497461818	 0.132292
H	 1.0069940374	-1.6960939097	 2.938164232	 0.132786
100.7969	160.9227	185.6594	190.288	207.3504	234.2312	332.0679	363.968	447.152	470.2774	493.337	572.2097	643.2891	705.3423	767.8368	834.5842	857.3566	889.4113	920.0413	954.3898	991.557	1082.8622	1091.4675	1104.8536	1121.9111	1146.5486	1156.2528	1172.6254	1203.1727	1226.3423	1305.3461	1404.5531	1413.0198	1431.8829	1456.3789	1473.6108	1477.4284	1488.1993	1495.072	1517.6147	1546.0101	3034.1885	3037.1245	3061.7282	3084.7875	3096.7043	3100.8507	3119.6858	3122.1051	3125.2152	3171.712
CC12CC3(CO3)C1(C)O2	C[C@@]12C[C@]3(CO3)[C@]1(C)O2	
InChI=1S/C7H10O2/c1-5-3-7(4-8-7)6(5,2)9-5/h3-4H2,1-2H3	InChI=1S/C7H10O2/c1-5-3-7(4-8-7)6(5,2)9-5/h3-4H2,1-2H3/t5-,6-,7+/m1/s1
