17
gdb 26730	3.31939	1.2673	0.92635	3.9771	79.71	-0.208	-0.0261	0.1819	1224.0275	0.136284	-418.065809	-418.056845	-418.055901	-418.09962	32.429	
C	-0.0073876841	 1.5317685935	 0.0183425174	-0.505832
C	 0.0074690951	 0.034900115	 0.0072843203	 0.23136
C	 0.0022271353	-0.775108601	-1.0970221526	 0.183513
N	 0.0318163734	-0.5056315906	-2.4805448374	-0.612979
N	 0.0175674559	-2.1088710872	-0.6573816182	-0.074765
C	 0.0875647005	-3.2387424455	-1.4646810306	 0.173556
O	 0.0886221991	-4.3663731374	-1.037368832	-0.308524
C	 0.0168485783	-2.1212548947	 0.7322247882	-0.074087
C	 0.0246567512	-0.8303189364	 1.1606538796	-0.258059
H	 0.938651415	 1.9498524117	 0.3833085022	 0.13213
H	-0.1818068539	 1.935573207	-0.9839451839	 0.107305
H	-0.7990907143	 1.9176541727	 0.670189973	 0.132382
H	 0.5437394149	 0.3440661403	-2.681324324	 0.251655
H	-0.8935277348	-0.4219110906	-2.8907796831	 0.249948
H	 0.1474913949	-2.9722653954	-2.5305446187	 0.116812
H	 0.0137411532	-3.0643066885	 1.2510560551	 0.15046
H	 0.0268866202	-0.5078064729	 2.1915450549	 0.105124
85.0906	105.4875	138.6928	205.7083	222.1576	274.0468	280.1428	313.9618	397.6585	526.084	620.7164	653.1892	668.9429	721.4306	756.1785	775.5629	853.049	856.3084	971.0365	1038.3069	1051.1841	1061.2954	1074.6937	1201.592	1210.0166	1243.8873	1332.813	1383.1389	1420.9318	1433.154	1451.4235	1485.4334	1496.5194	1538.3078	1636.8674	1669.8672	1809.8851	3022.7747	3034.1424	3073.9162	3097.8076	3239.8961	3293.9205	3497.3022	3597.1619
CC1=C(N)N(C=O)C=C1	Cc1c(N)n(C=O)cc1	
InChI=1S/C6H8N2O/c1-5-2-3-8(4-9)6(5)7/h2-4H,7H2,1H3	InChI=1S/C6H8N2O/c1-5-2-3-8(4-9)6(5)7/h2-4H,7H2,1H3
