15
gdb 126093	3.13431	1.29988	0.96275	2.4703	76.25	-0.2423	-0.0719	0.1705	1163.2102	0.111538	-453.942786	-453.934392	-453.933447	-453.976315	29.655	
C	-0.0367539717	 1.6536015286	-0.1978777605	-0.396886
C	 0.0193040758	 0.147102198	-0.0223549731	 0.03461
O	 0.8728716825	-0.4385398213	-1.0008681305	-0.258008
C	 1.4818750264	-1.6141960253	-0.4900990483	-0.170604
C	 1.5021547494	-1.373115678	 1.0029402342	 0.187266
C	 0.5897876628	-0.2861169334	 1.3452589146	 0.284505
O	 0.3065432856	 0.1831182351	 2.4224062794	-0.348385
N	 2.7696821276	-2.594338985	 2.6743361432	-0.224094
N	 2.1841947658	-2.0397181444	 1.8770115876	 0.140155
H	 0.970587864	 2.0772085236	-0.1634118886	 0.129458
H	-0.4943517447	 1.9134215063	-1.1555144589	 0.128441
H	-0.6287948377	 2.0868184061	 0.6122365935	 0.143904
H	-0.9956798581	-0.2822626182	-0.0955639063	 0.101494
H	 0.895651583	-2.510554739	-0.7522475305	 0.11528
H	 2.4771106893	-1.710379513	-0.9366731859	 0.132864
74.1966	122.2133	139.1716	203.9299	209.0421	253.5203	402.9015	426.7414	501.6942	549.5562	588.3746	619.7598	716.543	765.4412	873.035	964.6932	1040.2481	1061.9931	1073.2247	1118.4446	1147.2421	1199.0816	1235.1757	1302.9935	1351.7807	1373.1671	1401.1539	1429.477	1482.1772	1496.7811	1523.4559	1802.3329	2216.9204	2950.2556	2961.6792	3051.5593	3063.502	3129.6095	3136.5973
CC1OCC2=C1ON=N2	C[C@H]1OC[C](C1=O)[N][N]	
InChI=1S/C5H6N2O2/c1-3-5-4(2-8-3)6-7-9-5/h3H,2H2,1H3	InChI=1S/C5H6N2O2/c1-3-5(8)4(7-6)2-9-3/h3H,2H2,1H3/t3-/m1/s1
