16
gdb 65885	3.80097	0.80431	0.74106	5.3023	84.04	-0.2738	-0.0502	0.2237	1519.9433	0.123157	-400.71917	-400.710233	-400.709288	-400.753648	31.723	
C	-0.1635473358	 1.699326704	-0.0386014073	-0.435788
C	 0.008959204	 0.184312566	-0.0632577721	 0.184184
C	 0.8194935306	-0.4197779354	-1.2527625069	-0.320711
C	 1.7777397442	-0.927512799	-0.1607206957	-0.067987
O	 1.0269551047	-0.2535950923	 0.8767884942	-0.295175
C	-1.2591764768	-0.4970276215	 0.1922046345	 0.205631
C	-2.3054238104	-1.0653658126	 0.400936825	-0.044399
C	-3.4863254529	-1.708907371	 0.6351442024	 0.206637
N	-4.4922132545	-2.2563904697	 0.8306994805	-0.334236
H	 0.800029304	 2.1772229075	-0.2327919944	 0.129124
H	-0.8831564148	 2.018219806	-0.7986313978	 0.135259
H	-0.5244759942	 2.0220019435	 0.9414912117	 0.146357
H	 0.305054806	-1.1795812957	-1.8396592471	 0.131227
H	 1.2319510445	 0.3414183975	-1.9164001507	 0.124487
H	 1.7821720286	-2.0136199302	-0.0158225386	 0.118898
H	 2.8100368328	-0.5666600371	-0.2093169976	 0.116491
61.4106	89.3349	106.0582	213.7765	226.5335	247.4089	325.3884	344.3377	481.3789	523.5948	560.6624	592.0225	603.7739	759.4308	818.9821	875.1929	890.0111	974.9208	998.5554	1018.2207	1067.0848	1122.2166	1162.1395	1188.5282	1211.1464	1260.3833	1283.3616	1348.5981	1403.6253	1477.3156	1483.3696	1491.8527	1530.4514	2259.7268	2395.9931	3034.8458	3045.0367	3080.4364	3092.2134	3124.7261	3130.9336	3154.7667
CC1(CCO1)C#CC#N	C[C@]1(CCO1)C#CC#N	
InChI=1S/C7H7NO/c1-7(3-2-5-8)4-6-9-7/h4,6H2,1H3	InChI=1S/C7H7NO/c1-7(3-2-5-8)4-6-9-7/h4,6H2,1H3/t7-/m1/s1
