21
gdb 118652	2.12351	1.00927	0.78924	3.7337	80.54	-0.2373	0.0298	0.2671	1554.0673	0.180828	-420.395094	-420.384085	-420.383141	-420.43258	37.614	
C	 0.1553387279	 1.5680914442	 0.0992261059	-0.390458
C	 0.5290584198	 0.0898445426	 0.0442859702	-0.11344
N	 0.1104299072	-0.5822563067	 1.2747185125	-0.27944
C	 0.4415347927	-2.0013110545	 1.3406934289	-0.137335
C	 1.9318361722	-2.2862610658	 1.6719872411	-0.089154
O	 2.3555267103	-1.5625507853	 2.805321968	-0.242453
C	 2.3772396171	-2.295345205	 4.0221486259	-0.255264
C	-0.4466324708	-2.6658672511	 2.3140590673	 0.301471
N	-1.1237289669	-3.2048654024	 3.0799773355	-0.334232
H	 0.6831168805	 2.0755249884	 0.914458924	 0.120007
H	 0.4261430271	 2.0695105216	-0.8343643276	 0.118478
H	-0.9188284883	 1.6868573477	 0.2649002164	 0.133518
H	 0.0070390845	-0.3929996631	-0.791870004	 0.107251
H	 1.6096791022	-0.0048269948	-0.1624374931	 0.087092
H	 0.5335200524	-0.1293506039	 2.0807041816	 0.231458
H	 0.2262927139	-2.4503704674	 0.361923092	 0.124863
H	 2.1007273132	-3.3654084338	 1.7894430145	 0.108786
H	 2.5341780742	-1.9388244787	 0.8249416804	 0.116625
H	 2.7712643196	-1.620108874	 4.7851129768	 0.132538
H	 1.3797677372	-2.6340051521	 4.3237931107	 0.146379
H	 3.040910024	-3.1683192859	 3.944487843	 0.11331
48.6667	65.8487	68.7973	113.3267	136.6344	166.1244	189.504	246.4329	266.4893	314.3921	406.8637	424.6416	434.2016	573.4295	690.4318	749.7028	812.0751	830.2392	910.871	952.4029	966.8518	1036.9815	1088.8102	1120.4326	1140.9635	1161.0721	1179.401	1192.6628	1228.0716	1273.903	1298.5655	1314.481	1346.6432	1394.1358	1400.0364	1417.4463	1475.5556	1484.1936	1488.8321	1498.0333	1499.2477	1507.6697	1512.4462	1522.3796	2355.4244	2944.3988	3000.0251	3011.7991	3032.5186	3034.7632	3039.407	3069.1229	3075.7907	3105.5663	3124.6143	3125.0827	3505.7401
CCNC(COC)C#N	CCN[C@@H](COC)C#N	
InChI=1S/C6H12N2O/c1-3-8-6(4-7)5-9-2/h6,8H,3,5H2,1-2H3	InChI=1S/C6H12N2O/c1-3-8-6(4-7)5-9-2/h6,8H,3,5H2,1-2H3/t6-/m1/s1
