16
gdb 125317	3.92662	0.97964	0.8508	3.2426	76.63	-0.2464	0.0005	0.2469	1345.6177	0.125232	-396.961315	-396.952708	-396.951764	-396.996761	29.893	
C	 0.3094882622	 1.4584476393	-0.0709531326	-0.50548
C	 0.0694055367	-0.0184909213	-0.0010381783	 0.188818
C	 0.260444537	-0.9573902324	-0.9925435196	-0.120042
N	-0.0900463781	-2.1659284455	-0.4729135144	 0.045565
C	-0.070125676	-3.4622059081	-1.1127893097	-0.275252
C	 1.2814272933	-3.8964612944	-1.4937065517	 0.269336
N	 2.3363752374	-4.236026098	-1.8176972398	-0.295437
N	-0.4995612822	-2.0748730344	 0.810380032	-0.258317
C	-0.405977158	-0.7812231255	 1.0945535438	-0.066347
H	 1.0403978122	 1.7831283269	 0.6775819752	 0.136386
H	 0.6914883509	 1.7498975135	-1.0529680129	 0.127378
H	-0.6101154626	 2.0263424005	 0.108451538	 0.133824
H	 0.6210537588	-0.8615738569	-2.0051218592	 0.143245
H	-0.4951896781	-4.1674824156	-0.3952223741	 0.190077
H	-0.7032061093	-3.46471019	-2.007743881	 0.169843
H	-0.6847986942	-0.4314442583	 2.0785162142	 0.116403
18.1058	65.5067	80.5729	208.5414	259.2845	303.1038	368.1605	395.4743	482.7505	618.0821	650.7572	669.3283	786.7224	793.6955	880.8545	933.3693	964.2642	1000.5175	1011.569	1032.7369	1066.6723	1173.2749	1204.2544	1235.7546	1360.0122	1377.4672	1392.7534	1416.1627	1429.2303	1447.5241	1467.499	1485.0621	1506.0844	1619.2229	2368.9922	3033.4855	3047.099	3085.3708	3113.3329	3122.7374	3239.3619	3255.5954
CC1=CN(CC#N)N=C1	Cc1cn(CC#N)nc1	
InChI=1S/C6H7N3/c1-6-4-8-9(5-6)3-2-7/h4-5H,3H2,1H3	InChI=1S/C6H7N3/c1-6-4-8-9(5-6)3-2-7/h4-5H,3H2,1H3
