16
gdb 36755	6.81017	0.4589	0.43338	3.4968	92.6	-0.2521	-0.0228	0.2293	2332.6953	0.122155	-363.579521	-363.569726	-363.568782	-363.615455	34.018	
C	 0.0011028814	-3.7993361051	-0.0186830855	-0.550412
C	-0.0021491209	-2.5919630727	-0.0118953712	 0.288832
C	-0.0058679933	-1.2312022272	-0.0042245423	-0.169779
C	-0.0092264965	-0.0212520703	 0.0025646556	 0.32198
C	 0.0102937414	 1.4323878678	 0.010212266	-0.401611
C	 1.4414456593	 2.0082654948	-0.0009802327	-0.17423
C	 1.4224624085	 3.5490964832	 0.0075584087	-0.340121
C	 2.7658050793	 4.1229595252	-0.0026513366	 0.254437
N	 3.8348319727	 4.5612240238	-0.0112167139	-0.297564
H	 0.005387762	-4.861062811	-0.0246836183	 0.19392
H	-0.5442907711	 1.809755928	-0.8600686319	 0.141888
H	-0.5267547266	 1.800276107	 0.8954212849	 0.14188
H	 1.991768878	 1.6419223033	 0.8701560619	 0.139991
H	 1.9742163066	 1.6514098761	-0.8868434777	 0.139996
H	 0.8762681345	 3.928463108	-0.864404436	 0.155402
H	 0.8938536348	 3.9189435891	 0.8943075589	 0.155391
51.86	68.8392	81.5356	142.3372	163.6293	238.7481	290.618	354.1801	398.1431	433.6156	527.99	540.8375	568.1956	596.0802	602.9095	733.9772	737.6482	839.8109	946.1943	1027.7425	1031.9643	1080.8598	1177.3565	1181.0609	1261.5872	1292.4922	1321.3954	1348.2282	1385.9069	1466.1319	1470.5246	1499.6096	2184.1041	2364.7792	2367.3917	3007.1544	3036.872	3036.9051	3067.6709	3072.1961	3115.7699	3505.1631
C#CC#CCCCC#N	C#CC#CCCCC#N	
InChI=1S/C8H7N/c1-2-3-4-5-6-7-8-9/h1H,5-7H2	InChI=1S/C8H7N/c1-2-3-4-5-6-7-8-9/h1H,5-7H2
