16
gdb 19411	3.21382	2.16601	1.65508	1.65	64.4	-0.2311	0.0675	0.2986	811.8325	0.1318	-379.835672	-379.828813	-379.827869	-379.866538	26.985	
O	 0.1670650429	 1.3900222062	-0.0482309789	-0.434369
C	 0.017305384	 1.3802*^-6	-0.0276018372	 0.051586
C	 0.3106937903	-0.7325732914	 1.2965761238	-0.081538
N	-0.6754747907	-0.1724875656	 2.2540748922	-0.360685
C	-1.072848355	-1.2843550412	 1.3431035025	-0.145903
C	-1.4214059389	-0.5989809011	 0.0402388439	 0.363394
C	-2.6776230208	 0.0027819015	-0.4367605683	-0.302176
N	-2.1390569111	-1.2328023542	-1.0552316928	-0.388634
H	-0.2366944044	 1.7020768154	 0.773446018	 0.292022
H	 0.5846937978	-0.4062671971	-0.8709731206	 0.092449
H	 1.2481460135	-1.1531393484	 1.6374933719	 0.097892
H	-0.4757686346	-0.5761666029	 3.1682100815	 0.235457
H	-1.4327224549	-2.231661044	 1.7222529415	 0.106325
H	-3.5999300097	-0.1305670215	 0.1214857751	 0.119834
H	-2.6006038186	 0.9373521548	-0.986791567	 0.122053
H	-1.6906064599	-1.0113453008	-1.9421076557	 0.232293
119.8046	204.8587	236.6601	288.8052	412.8113	485.1272	508.2802	603.844	640.0844	753.5708	829.7167	837.0769	870.6102	894.4804	930.5333	943.5414	956.0507	982.8963	1020.1905	1053.4817	1088.4816	1095.7852	1121.1652	1139.3058	1186.8269	1247.0163	1248.9474	1275.2863	1313.3089	1316.1774	1354.8457	1435.399	1444.1961	1515.621	3069.3441	3107.9766	3194.1803	3196.0717	3211.9771	3481.8987	3482.948	3754.3452
OC1C2NC2C11CN1	O[C@H]1[C@H]2N[C@H]2[C@]21CN2	
InChI=1S/C5H8N2O/c8-4-2-3(7-2)5(4)1-6-5/h2-4,6-8H,1H2	InChI=1S/C5H8N2O/c8-4-2-3(7-2)5(4)1-6-5/h2-4,6-8H,1H2/t2-,3+,4-,5-/m0/s1
