20
gdb 17790	5.72527	1.02541	1.00828	1.3187	75.79	-0.2625	0.0809	0.3433	1228.9303	0.17823	-348.944228	-348.936369	-348.935425	-348.976989	29.853	
O	 0.0013929695	 1.4380924838	-0.2393541556	-0.420911
C	 0.0169160103	 0.0338101788	-0.0289389612	-0.064869
C	-1.4097563297	-0.4810380489	-0.1894682816	-0.238423
C	-1.4953522596	-1.9948093961	-0.0517775493	 0.064653
C	-1.4128635839	-2.7224902024	 1.3353569639	-0.046548
C	-2.8705536512	-2.2554629909	 1.6200101981	-0.220988
C	-2.86182148	-2.731510578	 0.1371375099	-0.060438
C	-2.0379449607	-3.9581732127	 0.625615108	-0.217718
H	 0.8970577504	 1.7689112992	-0.1261740967	 0.284079
H	 0.6786802615	-0.4700981605	-0.7529483003	 0.081905
H	 0.3904562017	-0.2139062068	 0.9779865802	 0.085936
H	-2.0443576952	 0.0403734812	 0.5328631829	 0.106813
H	-1.767487552	-0.1876006147	-1.1845916311	 0.10447
H	-0.8615159399	-2.466321065	-0.814320328	 0.057216
H	-0.5735552525	-2.724220164	 2.0335142411	 0.064349
H	-3.4436395209	-2.8714197377	 2.3186896677	 0.087545
H	-3.0386187122	-1.1956338454	 1.81458105	 0.094094
H	-3.7030686216	-2.7390050735	-0.5585978337	 0.065981
H	-1.4184218326	-4.4644156479	-0.1203866627	 0.08581
H	-2.5623323814	-4.6728305286	 1.2655186985	 0.087045
72.3488	90.6458	138.472	265.3099	316.8313	365.0808	373.3597	563.469	609.6008	749.921	787.5766	808.5976	860.8688	888.0469	900.8766	904.9938	999.6266	1007.7163	1025.8315	1029.7281	1048.7352	1071.3509	1098.371	1112.81	1133.346	1148.3325	1161.191	1189.5742	1214.5715	1225.7267	1231.9215	1252.0103	1261.4173	1274.4346	1316.5679	1333.2259	1431.0571	1461.1613	1488.4631	1505.3754	1528.0489	1540.8848	2958.4433	2984.4493	3013.6235	3035.2137	3046.606	3060.0695	3088.875	3091.3806	3096.3129	3112.7282	3129.0907	3829.4504
OCCC1C2CC1C2	OCC[C@H]1[C@H]2C[C@@H]1C2	
InChI=1S/C7H12O/c8-2-1-7-5-3-6(7)4-5/h5-8H,1-4H2	InChI=1S/C7H12O/c8-2-1-7-5-3-6(7)4-5/h5-8H,1-4H2/t5-,6+,7-
