21
gdb 32521	1.95591	1.50559	0.91325	1.3487	86.99	-0.1702	0.0576	0.2278	1340.9627	0.183399	-383.301901	-383.292116	-383.291172	-383.336586	36.374	
C	 0.0586488464	 1.5535283064	-0.101676714	-0.364717
C	-0.0165277696	 0.0208809388	 0.0326643213	-0.314682
C	-1.4159008614	-0.5221690911	 0.0308900786	 0.193956
C	-2.1633419681	-0.9076794044	 1.1224458321	-0.164921
N	-3.3846112926	-1.3385762658	 0.6862107901	-0.255556
C	-3.4528774821	-1.2320771565	-0.6891145791	-0.171757
C	-2.2412674517	-0.7330110785	-1.1233825341	 0.208732
N	-1.8282600734	-0.5288738637	-2.4486397809	-0.384879
C	-2.8461735952	-0.6238870979	-3.4774454137	-0.318398
H	 1.0975066572	 1.9003486429	-0.1157242417	 0.105976
H	-0.4211942244	 1.9021242197	-1.0232909799	 0.106171
H	-0.4549659005	 2.0413585252	 0.7326211736	 0.117171
H	 0.5532979487	-0.4387875286	-0.7857126754	 0.102926
H	 0.4879976502	-0.2778324822	 0.9588688466	 0.096712
H	-1.9090896849	-0.9138386357	 2.1710150145	 0.110023
H	-4.1195157388	-1.6894038654	 1.2721310175	 0.255418
H	-4.3357375314	-1.529146809	-1.2286471201	 0.106436
H	-1.2636174194	 0.3033888373	-2.5476867467	 0.228848
H	-3.7107906139	 0.0416894257	-3.3108532039	 0.100986
H	-2.4049068217	-0.3858271027	-4.4486866379	 0.115403
H	-3.2243516533	-1.6516054545	-3.5252017068	 0.126153
69.5668	94.6934	148.4589	169.8388	207.9706	230.6844	291.555	307.1427	342.0358	432.5051	487.4411	567.4425	618.3695	622.0963	646.8905	726.6241	744.0967	767.8824	786.7077	907.7141	960.0797	1044.1512	1074.9774	1080.5108	1088.4234	1129.1458	1157.1694	1169.5963	1218.74	1261.8668	1296.121	1338.3404	1367.9934	1398.3517	1406.1419	1457.5625	1473.1106	1481.0957	1483.0584	1491.6246	1497.8442	1505.357	1524.2409	1572.9342	1637.5767	2953.4372	3016.9658	3027.4177	3052.955	3055.2117	3092.705	3105.5938	3110.4958	3251.5094	3276.6638	3572.1899	3702.1471
CCC1=CNC=C1NC	CCc1c[nH]cc1NC	
InChI=1S/C7H12N2/c1-3-6-4-9-5-7(6)8-2/h4-5,8-9H,3H2,1-2H3	InChI=1S/C7H12N2/c1-3-6-4-9-5-7(6)8-2/h4-5,8-9H,3H2,1-2H3
