16
gdb 9187	5.41829	0.95619	0.9212	3.5105	68.75	-0.2448	0.0368	0.2816	1285.9282	0.128958	-379.920085	-379.910614	-379.90967	-379.955522	32.357	
C	-0.3982202971	 1.2547185122	 0.152902603	-0.323497
N	 0.163547933	-0.0748610957	-0.0003726809	-0.355902
C	 0.7344115558	-0.7143447102	 1.0772197141	 0.49931
O	 0.6554125538	-0.302407114	 2.221727781	-0.400189
N	 1.4234575442	-1.8725488863	 0.7363961284	-0.36356
C	 1.8270412891	-2.7885434928	 1.7978100329	-0.288347
C	 1.0041174183	-3.9956733835	 1.8629313683	 0.295761
C	 0.3347450158	-4.9938032419	 1.8788427235	-0.461679
H	 0.3301368977	 2.0493851528	-0.0568498336	 0.12029
H	-1.25582546	 1.3784861247	-0.514709773	 0.121252
H	-0.7278328944	 1.3579618664	 1.1866451136	 0.169602
H	 0.4926246232	-0.3284988003	-0.9182913461	 0.236808
H	 1.1732420889	-2.3125651442	-0.1364581631	 0.238122
H	 2.8792962653	-3.0699918191	 1.6661676798	 0.131781
H	 1.7510807807	-2.2203870936	 2.7298344166	 0.178958
H	-0.2622595043	-5.8712826244	 1.9144868055	 0.201289
34.217	59.4354	86.5688	138.5913	221.7089	231.9051	320.37	336.2005	381.9977	465.0736	505.6693	591.0042	615.7819	664.829	721.0232	764.0606	913.8959	942.4711	1039.9746	1064.062	1151.1879	1170.7306	1181.4944	1238.6099	1275.0215	1372.5996	1440.6853	1468.5234	1488.7304	1497.6731	1513.9163	1561.0073	1787.1233	2237.116	3014.722	3025.904	3085.5695	3093.6718	3159.3587	3505.802	3610.4364	3627.1374
CNC(=O)NCC#C	CNC(=O)NCC#C	
InChI=1S/C5H8N2O/c1-3-4-7-5(8)6-2/h1H,4H2,2H3,(H2,6,7,8)	InChI=1S/C5H8N2O/c1-3-4-7-5(8)6-2/h1H,4H2,2H3,(H2,6,7,8)
