22
gdb 31948	2.97373	0.97844	0.80511	1.7645	91.87	-0.1858	0.0465	0.2323	1537.2052	0.194663	-367.26864	-367.258719	-367.257775	-367.30445	36.402	
C	 0.3170710928	 1.5848075316	 0.0629701171	-0.363862
C	 0.0031747953	 0.0850301948	-0.0905375807	-0.301265
C	 0.5692827893	-0.5314298254	-1.3308077848	 0.301134
C	-0.0403402811	-0.9964941885	-2.4743017347	-0.226962
C	 0.9773127741	-1.4667491735	-3.3529075228	-0.226961
C	 2.1918915313	-1.281240171	-2.7317076533	 0.30113
C	 3.5878523684	-1.5714309918	-3.1854206059	-0.301264
C	 4.4240670485	-0.313049484	-3.4831618311	-0.363859
N	 1.9257430586	-0.7096466158	-1.5050994416	-0.342223
H	 1.3965598416	 1.7652631958	 0.106411043	 0.10618
H	-0.0771925171	 2.1515090675	-0.785697571	 0.125261
H	-0.1243688254	 1.986084984	 0.9809722999	 0.110435
H	 0.3639286306	-0.4498504953	 0.7996822684	 0.098378
H	-1.0819096322	-0.0585750769	-0.1092597123	 0.113744
H	-1.1052175228	-1.0015310678	-2.6541845643	 0.0836
H	 0.8387001631	-1.8998072236	-4.332496103	 0.0836
H	 4.1126971945	-2.1819599003	-2.4367396159	 0.098376
H	 3.5263581922	-2.1881740549	-4.0877663763	 0.113744
H	 4.524843654	 0.3198015278	-2.594854334	 0.106183
H	 5.431832198	-0.5814288309	-3.8163329179	 0.110433
H	 3.9515616063	 0.2896255072	-4.2644126167	 0.125261
H	 2.6248332702	-0.4739287487	-0.8215355921	 0.248936
44.8119	51.5719	104.7737	175.2207	179.5991	217.6138	281.8829	346.7168	383.195	433.9794	468.9179	586.1686	650.3754	696.8246	699.3759	779.4273	785.1416	786.5603	823.3389	944.3055	949.8208	1006.2209	1018.4551	1044.8967	1069.9859	1079.4032	1082.6284	1087.1947	1199.8363	1249.162	1267.5272	1290.5452	1311.2102	1354.2974	1358.2542	1406.214	1407.1522	1445.3343	1446.6485	1479.6359	1482.7787	1495.7327	1496.1984	1503.3532	1504.1326	1543.0763	1635.9123	3003.057	3004.1382	3032.119	3032.6151	3072.2094	3072.234	3100.3593	3100.8368	3112.8317	3113.0892	3232.9226	3248.3814	3666.9929
CCC1=CC=C(CC)N1	CCc1ccc(CC)[nH]1	
InChI=1S/C8H13N/c1-3-7-5-6-8(4-2)9-7/h5-6,9H,3-4H2,1-2H3	InChI=1S/C8H13N/c1-3-7-5-6-8(4-2)9-7/h5-6,9H,3-4H2,1-2H3
