16
gdb 68965	2.60563	1.68634	1.26701	6.1164	74.16	-0.2474	0.0005	0.2479	1004.3072	0.124998	-396.943853	-396.93586	-396.934916	-396.976092	30.466	
C	-0.0694198495	 1.5326853434	-0.0852130179	-0.492377
C	 0.0009580968	 0.0334819102	-0.0085927714	 0.294306
C	-0.8026446357	-0.7773453034	 0.9596502585	-0.345345
C	 0.7164031794	-0.8180997421	 1.1005595824	 0.15784
N	 1.4197483723	-1.8822195368	 0.4334274051	-0.287904
C	 1.193682873	-1.7378180778	-0.8228042608	 0.035105
N	 0.3709037391	-0.6939326277	-1.1989005191	-0.33032
C	 1.3196056492	-0.2407236714	 2.2695335083	 0.237349
N	 1.7763557493	 0.2734182785	 3.1998884715	-0.355149
H	 0.8474581695	 1.9500081946	-0.5143062733	 0.133713
H	-0.9198741513	 1.8570463484	-0.6954535714	 0.134282
H	-0.1941906644	 1.9564303444	 0.9140744992	 0.153854
H	-1.3318422956	-0.2278205753	 1.7296967194	 0.139263
H	-1.2832220243	-1.6885015504	 0.619336181	 0.132623
H	 1.590874785	-2.4062584733	-1.5790026661	 0.138955
H	 0.5458620671	-0.1920997214	-2.0571308355	 0.253805
122.9186	147.6971	178.1215	237.7037	314.2646	375.8926	405.8812	445.7604	521.5591	557.4488	572.3839	620.9774	664.1888	749.8946	804.515	916.1657	931.223	960.9656	971.2942	983.4736	1064.318	1097.8226	1116.6877	1135.8173	1253.0771	1279.0709	1332.3079	1353.1927	1419.7669	1442.9394	1479.0633	1484.5746	1498.2186	1640.6295	2351.2184	3033.5501	3096.937	3126.641	3133.8332	3205.6409	3231.0184	3608.9172
CC12CC1(N=CN2)C#N	C[C@]12C[C@]1(N=CN2)C#N	
InChI=1S/C6H7N3/c1-5-2-6(5,3-7)9-4-8-5/h4H,2H2,1H3,(H,8,9)	InChI=1S/C6H7N3/c1-5-2-6(5,3-7)9-4-8-5/h4H,2H2,1H3,(H,8,9)/t5-,6-/m0/s1
