21
gdb 121996	5.4765	0.50045	0.47853	4.0676	76.96	-0.2439	-0.0209	0.223	2229.2223	0.178789	-461.363128	-461.351904	-461.35096	-461.401118	38.452	
O	-0.0073893745	 1.4517212852	 0.1067484058	-0.419223
C	 0.0602851667	 0.0381649376	 0.0078070575	-0.074712
C	-1.3623358742	-0.5023063314	 0.0625505025	-0.167677
C	-1.4218960699	-2.0287455649	-0.0357526231	-0.211356
C	-2.8533927266	-2.5777016916	-0.0441761776	 0.107697
O	-3.6277292294	-2.0417399622	-1.1141235622	-0.424878
C	-2.8780600573	-4.1180531952	-0.0691211995	-0.29616
C	-4.2789818707	-4.6833338929	 0.0437899436	 0.154603
O	-4.5801347751	-5.6105783527	 0.7520096012	-0.243094
H	 0.8889411986	 1.7991878253	 0.0877918358	 0.286076
H	 0.5409723586	-0.2736869907	-0.9349530511	 0.080974
H	 0.655704427	-0.3918272422	 0.8305794707	 0.083328
H	-1.8252167075	-0.1693614279	 0.9994881987	 0.108631
H	-1.9456628684	-0.0549172801	-0.7482164075	 0.118211
H	-0.9126329922	-2.3693121233	-0.9510940824	 0.085719
H	-0.8764158301	-2.484173784	 0.8008161798	 0.103661
H	-3.3683092754	-2.2290269849	 0.8602828019	 0.102904
H	-3.1718202402	-2.2453843432	-1.9392313819	 0.27935
H	-2.4573327039	-4.4545617932	-1.0299405589	 0.110308
H	-2.2633344494	-4.5473285414	 0.7276297521	 0.121891
H	-5.0329982161	-4.1688667364	-0.5891389953	 0.09375
44.1671	61.6193	76.084	99.3933	107.5046	158.7459	216.824	262.6004	278.8573	305.1946	331.3699	434.3845	455.8325	515.5261	557.3138	760.1552	806.421	850.1302	889.086	982.9504	1010.2044	1020.3469	1059.743	1075.5821	1089.8017	1110.8084	1133.0698	1198.0622	1206.3838	1230.9108	1275.7639	1285.535	1304.0576	1314.0138	1354.6901	1362.2208	1395.8766	1414.7905	1422.8647	1450.5864	1464.3056	1481.2746	1502.1909	1529.3808	1829.8781	2912.2019	2952.3318	2976.6345	2988.9662	2996.8903	3034.2081	3040.9735	3048.8187	3094.1583	3097.2622	3789.1873	3831.2037
OCCCC(O)CC=O	OCCC[C@@H](O)CC=O	
InChI=1S/C6H12O3/c7-4-1-2-6(9)3-5-8/h5-7,9H,1-4H2	InChI=1S/C6H12O3/c7-4-1-2-6(9)3-5-8/h5-7,9H,1-4H2/t6-/m1/s1
