23
gdb 82564	3.16686	1.28833	1.12611	0.1806	89.48	-0.2424	0.0827	0.3251	1209.7072	0.206788	-351.117576	-351.109072	-351.108127	-351.150382	34.161	
C	-0.0601050302	 1.5407523451	-0.097110459	-0.417596
C	 0.0742072749	 0.0375388868	 0.0332476057	 0.000258
C	 1.3291176684	-0.7580724317	-0.198591602	-0.066575
C	 2.5710354361	-0.0391821063	 0.3456398102	-0.315494
C	 1.9274447111	-0.0405309233	 1.7729173092	 0.392847
C	 2.7334658212	-0.7766959844	 2.8785704538	-0.278436
C	 3.1115490624	 0.6009607396	 3.4839817072	-0.216369
C	 1.9516427477	 1.231318917	 2.6689696986	-0.283239
C	 0.6796732773	-0.708807613	 1.1953071219	-0.157563
H	 0.8337484928	 2.071553275	 0.2367671768	 0.122147
H	-0.2404010011	 1.822559327	-1.1407511907	 0.111679
H	-0.9032535674	 1.9107045429	 0.4968019748	 0.113887
H	-0.7986572758	-0.4924500736	-0.3470634635	 0.081021
H	 1.3571520367	-1.5825429831	-0.9015232595	 0.078593
H	 3.473070897	-0.6547328379	 0.3011972919	 0.098919
H	 2.7989080303	 0.937220468	-0.0957657875	 0.09029
H	 2.0684518154	-1.3392863945	 3.5429258511	 0.095153
H	 3.5418496215	-1.4403593479	 2.5577770489	 0.092277
H	 3.0779543775	 0.6987836797	 4.5714895588	 0.093888
H	 4.0895861659	 0.9462181672	 3.1372175953	 0.101265
H	 2.1433285635	 2.1897437343	 2.1786439854	 0.092841
H	 1.0352646281	 1.3243075703	 3.2607463207	 0.098007
H	 0.1246065466	-1.4844283373	 1.7140043319	 0.072199
107.0555	124.9775	180.0912	199.1347	269.0687	348.1911	358.3427	441.5094	459.4989	592.1464	678.9641	717.5544	774.2864	788.5446	829.8574	852.6793	880.6192	895.3323	922.1031	941.3129	965.0894	979.1161	991.8617	1001.7825	1045.7674	1059.7959	1080.0169	1108.3918	1140.0803	1168.8822	1184.7	1189.0095	1208.3148	1217.673	1251.7856	1257.5859	1265.5778	1276.4286	1290.0924	1314.6488	1353.8159	1413.3285	1443.354	1472.4883	1480.7223	1486.8132	1498.4267	1502.6718	1508.1949	3031.6324	3036.9003	3038.2877	3046.4855	3058.7829	3085.9924	3087.015	3091.8131	3095.3549	3107.9993	3114.466	3130.111	3151.9177	3175.1828
CC1C2CC3(CCC3)C12	C[C@H]1[C@H]2CC3(CCC3)[C@@H]12	
InChI=1S/C9H14/c1-6-7-5-9(8(6)7)3-2-4-9/h6-8H,2-5H2,1H3	InChI=1S/C9H14/c1-6-7-5-9(8(6)7)3-2-4-9/h6-8H,2-5H2,1H3/t6-,7+,8-/m0/s1
