20
gdb 112664	3.20414	1.06567	0.85133	3.2614	75.49	-0.2417	0.012	0.2537	1390.9551	0.171626	-440.337161	-440.327865	-440.326921	-440.371503	34.239	
C	 0.1196559221	 1.6697727678	-0.0519683934	-0.38911
C	-0.0468622928	 0.1487049405	-0.0069102504	-0.187015
C	 0.6105497229	-0.5679919085	-1.1764347116	 0.13293
C	 0.4812144918	-2.0983616705	-1.1783034839	-0.250206
C	 0.494020944	-2.4333156975	-2.6702454933	-0.112818
N	-0.1444272644	-3.6882301825	-3.0299615343	-0.514683
C	-0.1314366458	-1.1700323028	-3.2853657658	 0.409959
O	-0.6552233534	-1.0680137884	-4.3583697892	-0.349193
O	-0.0243211717	-0.1383322204	-2.4119242263	-0.232779
H	 1.1774636796	 1.95314663	-0.0205113233	 0.115623
H	-0.3107677403	 2.0788653406	-0.969594513	 0.143372
H	-0.3776393758	 2.1424835918	 0.7997260619	 0.11682
H	 0.388494832	-0.2546101095	 0.9163480636	 0.103967
H	-1.111148732	-0.1165765014	 0.0037966698	 0.107309
H	 1.6678736086	-0.2753259914	-1.2439302239	 0.088803
H	 1.2738990648	-2.5874193658	-0.6098835755	 0.121163
H	-0.4812878642	-2.3924241336	-0.7408133761	 0.108193
H	 1.532856916	-2.4679371091	-3.0288981933	 0.114897
H	-1.1158291337	-3.6670844195	-2.7270358372	 0.228872
H	-0.1836458778	-3.74730801	-4.0451920448	 0.243896
75.5546	107.1658	120.8975	194.9413	225.4742	246.1793	262.4159	347.043	405.8235	441.1458	539.5072	577.0531	634.1099	710.4799	789.8317	806.5807	878.9045	932.9604	961.1486	982.0431	1003.7583	1017.5292	1061.6661	1112.5532	1133.8738	1173.9037	1190.0898	1202.5713	1243.3663	1294.328	1309.8945	1312.067	1349.4865	1377.5269	1407.8205	1413.8941	1418.561	1473.1958	1492.0435	1497.9856	1508.7017	1666.4002	1874.4677	3006.4357	3010.2927	3025.7855	3038.1671	3039.723	3065.645	3106.6946	3119.9318	3126.1059	3474.1948	3547.2849
CCC1CC(N)C(=O)O1	CC[C@H]1C[C@@H](N)C(=O)O1	
InChI=1S/C6H11NO2/c1-2-4-3-5(7)6(8)9-4/h4-5H,2-3,7H2,1H3	InChI=1S/C6H11NO2/c1-2-4-3-5(7)6(8)9-4/h4-5H,2-3,7H2,1H3/t4-,5+/m0/s1
