21
gdb 61205	2.42127	0.98345	0.74544	2.5584	85.53	-0.2503	-0.0249	0.2254	1539.8002	0.178184	-387.07372	-387.062761	-387.061817	-387.110639	39.054	
C	-0.1301991837	 1.566873588	 0.0292861607	-0.412933
C	 0.0160513099	 0.0405509644	 0.0118756214	 0.018792
C	 0.7463185345	-0.4223531817	-1.2779916353	-0.374624
C	 0.0120701863	-0.1193577203	-2.5000581914	 0.299599
C	-0.6129220005	 0.1295076369	-3.4965437718	-0.438399
C	 0.7554022432	-0.5057922653	 1.2613817778	-0.051628
C	 0.1379770208	-0.0310270739	 2.590342162	-0.431041
C	 0.7224423802	-2.0228679758	 1.2547381625	 0.160091
O	 1.68409528	-2.746016607	 1.2137888852	-0.254987
H	 0.8463185067	 2.0526879697	 0.1429874901	 0.115499
H	-0.5698992667	 1.9116714075	-0.9102998553	 0.137228
H	-0.7743098133	 1.907034746	 0.8434133846	 0.119172
H	-0.9905452799	-0.4005348043	-0.0045030886	 0.087991
H	 1.7356306241	 0.0540635838	-1.3159263345	 0.133274
H	 0.9379532593	-1.5013637574	-1.2357561173	 0.144823
H	-1.1534563069	 0.3433058136	-4.3850518353	 0.195623
H	 1.8098317196	-0.2070837706	 1.2191215684	 0.092064
H	 0.6544214802	-0.4851990454	 3.4415112564	 0.131369
H	 0.2148283912	 1.0531201757	 2.6948946365	 0.133688
H	-0.9219533452	-0.3023115683	 2.6548889943	 0.123234
H	-0.3104113896	-2.4472652255	 1.3059528695	 0.071166
38.8237	66.886	74.9682	132.0693	190.32	212.1859	252.7621	293.3571	327.2151	349.2924	352.5542	379.1755	444.6856	485.4839	586.3653	617.7958	642.2435	833.5407	872.4469	887.788	918.9221	960.1271	977.0375	994.3889	1062.6089	1109.2564	1134.3169	1153.65	1171.28	1234.1407	1278.8058	1308.9505	1345.5047	1359.2873	1380.4439	1403.1327	1412.8103	1428.0113	1469.0072	1493.6438	1494.9485	1500.2112	1514.1209	1832.0258	2236.8477	2832.8957	3006.9603	3019.4913	3034.5105	3036.7923	3045.9946	3056.8507	3103.3481	3106.8557	3121.6174	3128.9117	3506.1634
CC(CC#C)C(C)C=O	C[C@@H](CC#C)[C@@H](C)C=O	
InChI=1S/C8H12O/c1-4-5-7(2)8(3)6-9/h1,6-8H,5H2,2-3H3	InChI=1S/C8H12O/c1-4-5-7(2)8(3)6-9/h1,6-8H,5H2,2-3H3/t7-,8-/m0/s1
