17
gdb 7984	3.43393	1.72546	1.24691	3.3158	64.25	-0.242	0.0117	0.2537	978.6188	0.143212	-401.048349	-401.040413	-401.039469	-401.080613	29.343	
C	-0.1863473148	 1.5163147067	 0.1976159916	-0.399579
C	 0.0435728932	 0.0387562242	-0.0552689193	 0.132754
C	 1.0368866535	-0.3043336487	-1.1754584635	-0.239177
C	 1.6094008314	-1.6438163947	-0.7104411886	-0.108987
N	 2.9222506323	-1.9749264537	-1.2376620427	-0.514902
C	 1.5208861803	-1.5114966731	 0.8196223931	 0.409676
O	 2.1469003201	-2.1228456731	 1.6383534564	-0.348787
O	 0.6117577541	-0.5578351027	 1.1416021779	-0.231249
H	 0.7594988862	 2.0203664617	 0.417792254	 0.128877
H	-0.6314093785	 1.9818613103	-0.6874532889	 0.124281
H	-0.8629090866	 1.6651823848	 1.0431063693	 0.136348
H	-0.9163636398	-0.4628870976	-0.237204216	 0.093532
H	 0.5656980441	-0.3423826155	-2.1589986488	 0.120981
H	 1.8351784321	 0.4478157867	-1.209606453	 0.108257
H	 0.9194547347	-2.4531847567	-0.989782915	 0.114881
H	 3.5833508435	-1.2500885591	-0.9668731799	 0.22903
H	 3.2493032643	-2.8196783893	-0.7739319565	 0.244062
102.7211	124.8279	217.5476	229.3223	262.7754	296.2587	387.0479	460.0538	513.9572	574.9352	626.1991	716.4185	797.8002	877.4151	928.6643	943.9357	956.6679	1000.1408	1049.1728	1098.4985	1136.3164	1173.7594	1199.2354	1209.705	1243.5386	1308.0984	1324.5639	1368.0976	1393.9285	1413.9679	1418.6428	1484.0382	1491.1344	1498.6752	1666.9294	1875.1722	3009.3389	3015.5257	3039.1271	3043.8089	3115.8502	3120.4682	3125.8239	3474.6913	3547.7987
CC1CC(N)C(=O)O1	C[C@H]1C[C@@H](N)C(=O)O1	
InChI=1S/C5H9NO2/c1-3-2-4(6)5(7)8-3/h3-4H,2,6H2,1H3	InChI=1S/C5H9NO2/c1-3-2-4(6)5(7)8-3/h3-4H,2,6H2,1H3/t3-,4+/m0/s1
