19
gdb 30162	4.39816	1.2073	0.98416	3.4765	81.79	-0.2034	0.0355	0.2389	1208.4494	0.163064	-382.122113	-382.114512	-382.113567	-382.154134	29.989	
C	-0.7280562938	 1.2618410147	 0.0026240138	-0.401976
C	 0.1885900909	 0.0404100013	 0.0072095361	 0.057458
C	 1.1474341192	-0.0281153663	-1.24109989	-0.371914
C	 2.3479121274	-0.6611843455	-0.6247680662	 0.303714
C	 2.3332007729	-0.6937971021	 0.7364468898	 0.277412
C	 1.0836247318	-0.0807006263	 1.2919419436	-0.358791
N	 3.4921236568	-1.2264859105	 1.2445456126	-0.34305
C	 4.2062033997	-1.5160056557	 0.1762127625	-0.01683
N	 3.5629182711	-1.1850881189	-0.9945004915	-0.376949
H	-0.1459869772	 2.1900151112	 0.0396440861	 0.115287
H	-1.3494628271	 1.2933885358	-0.8991389578	 0.110624
H	-1.3986542736	 1.2561373258	 0.8684355265	 0.115993
H	-0.4332649518	-0.861454838	-0.0313681575	 0.083443
H	 0.692593616	-0.5946169049	-2.0620809102	 0.10325
H	 1.3614070074	 0.9777582351	-1.6312571063	 0.10528
H	 1.2767927809	 0.907251665	 1.7329868111	 0.103663
H	 0.5937298812	-0.6801978233	 2.0662609553	 0.10849
H	 5.1857749154	-1.9711356545	 0.1747261014	 0.123082
H	 3.9145631526	-1.3343358028	-1.9250009794	 0.261814
80.8061	218.6412	239.1388	255.1782	290.4043	414.9177	451.9462	498.9608	517.0718	659.5143	693.6291	720.3846	773.6169	786.6112	805.7535	904.5292	929.8035	957.5987	966.802	1051.2679	1078.3209	1105.9135	1108.6401	1145.8725	1172.8521	1220.7672	1234.3707	1262.2118	1287.6274	1338.6294	1358.9218	1377.0204	1381.1241	1414.4579	1457.2744	1493.2852	1496.7314	1499.5065	1503.9746	1520.0065	1627.0524	2994.9695	3007.4338	3025.3519	3028.6051	3048.5559	3066.3038	3093.012	3096.5797	3247.2495	3667.6843
CC1CC2=C(C1)N=CN2	C[C@H]1Cc2c(C1)nc[nH]2	
InChI=1S/C7H10N2/c1-5-2-6-7(3-5)9-4-8-6/h4-5H,2-3H2,1H3,(H,8,9)	InChI=1S/C7H10N2/c1-5-2-6-7(3-5)9-4-8-6/h4-5H,2-3H2,1H3,(H,8,9)
