16
gdb 12931	3.56377	1.75168	1.43903	1.7047	60.94	-0.226	0.0655	0.2915	900.3153	0.128529	-420.802176	-420.794165	-420.793221	-420.834609	28.995	
C	 0.2618024399	 0.9625433267	 0.3841368213	-0.235202
O	-0.4558107225	 0.0643993166	-0.4469218	-0.238494
C	 0.3446819139	-0.568095529	-1.3849324959	 0.014593
C	 1.4010145202	-1.5901264212	-1.020964984	-0.013442
O	 1.0487431467	-2.2792816397	 0.1742509985	-0.283674
C	-0.1625157469	-2.7945056299	-0.4451995056	-0.13412
C	 0.1172886171	-2.0098731496	-1.7288403811	 0.255881
O	-0.1012473327	-2.4943366744	-3.0010751362	-0.453989
H	 1.0422580768	 0.4383365668	 0.9490758844	 0.130414
H	 0.7238750832	 1.7725227679	-0.1993574856	 0.103876
H	-0.4600272358	 1.3965304861	 1.0796882177	 0.127398
H	 0.6307992326	 0.0377324516	-2.2500782749	 0.090169
H	 2.4455888478	-1.5511591284	-1.3080504404	 0.111795
H	-0.0861441117	-3.87611364	-0.5971644401	 0.114895
H	-1.061886135	-2.5388138868	 0.1222987079	 0.116721
H	-0.8859341734	-2.0648884867	-3.359654926	 0.293178
77.3592	163.4753	174.5534	224.6988	253.1364	299.1231	328.3281	386.6203	510.3862	639.545	664.6995	797.5495	851.0131	924.67	939.0496	986.1419	1007.6198	1034.2411	1064.0309	1096.8333	1144.6792	1156.6464	1179.2384	1216.8443	1239.1483	1260.8786	1287.154	1333.8601	1353.0315	1462.3417	1487.0829	1490.1348	1501.3166	1511.5927	2992.4687	3043.7853	3060.7076	3067.4843	3105.1386	3122.9214	3182.6186	3795.4446
COC1C2OCC12O	CO[C@H]1[C@H]2OC[C@@]12O	
InChI=1S/C5H8O3/c1-7-3-4-5(3,6)2-8-4/h3-4,6H,2H2,1H3	InChI=1S/C5H8O3/c1-7-3-4-5(3,6)2-8-4/h3-4,6H,2H2,1H3/t3-,4+,5+/m0/s1
