19
gdb 112655	3.18662	1.07611	0.85777	3.5601	71.78	-0.2688	0.0086	0.2775	1351.1564	0.159354	-460.216239	-460.207263	-460.206319	-460.250309	33.091	
C	-0.2195114651	 1.559723931	 0.0485562384	-0.402912
C	 0.1394732069	 0.0769129648	 0.0091582464	-0.13417
C	 0.869108829	-0.4344905785	-1.2399832566	-0.265234
C	 1.6818876755	-1.618895909	-0.6992272986	 0.097932
C	 3.0334422659	-1.8502527666	-1.3566040682	-0.06553
O	 3.7319326743	-2.9270705725	-0.7723060322	-0.419474
O	 1.9298112612	-1.3029949559	 0.6936234717	-0.250391
C	 1.0884859175	-0.3284051201	 1.1384336947	 0.439801
O	 1.1342783578	 0.0972130097	 2.255601131	-0.33982
H	 0.6606326486	 2.1802148745	-0.1485959366	 0.124488
H	-0.9802586342	 1.7991277962	-0.6997056293	 0.118528
H	-0.6023509454	 1.8259059268	 1.0367639792	 0.146191
H	-0.7716207317	-0.5186154605	 0.1652488539	 0.114735
H	 0.2011472689	-0.7290350141	-2.0517338692	 0.118606
H	 1.5450377443	 0.3404462682	-1.6224040913	 0.112553
H	 1.1045788918	-2.5515900205	-0.722439291	 0.098368
H	 2.8834113384	-2.1019354996	-2.412295851	 0.114972
H	 3.6113772746	-0.9126782439	-1.3123824705	 0.094208
H	 3.8131119319	-2.7288155901	 0.1678289191	 0.297146
73.4118	110.8933	123.7531	206.9542	226.0453	250.8491	350.4165	400.0944	430.4481	449.4787	545.3871	574.965	652.3205	706.6396	776.4975	889.899	910.774	938.4798	980.4892	1046.7167	1064.5834	1092.709	1103.113	1139.245	1158.5214	1171.0691	1204.0803	1240.8679	1277.8406	1316.96	1343.9355	1363.3052	1378.3402	1403.475	1413.5822	1435.4644	1489.6508	1494.4821	1498.5209	1499.4916	1879.6588	2976.268	3010.693	3032.3561	3040.841	3044.3433	3074.6953	3110.9566	3114.2376	3129.5577	3801.1609
CC1CC(CO)OC1=O	C[C@H]1C[C@@H](CO)OC1=O	
InChI=1S/C6H10O3/c1-4-2-5(3-7)9-6(4)8/h4-5,7H,2-3H2,1H3	InChI=1S/C6H10O3/c1-4-2-5(3-7)9-6(4)8/h4-5,7H,2-3H2,1H3/t4-,5-/m0/s1
