16
gdb 7316	3.802	1.2033	1.00899	7.1751	65.93	-0.239	0.0045	0.2435	1149.8946	0.129599	-417.106028	-417.097165	-417.09622	-417.139977	31.339	
C	 0.055832449	 1.5893291513	 0.0088157137	-0.377521
C	-0.0710811435	 0.060911548	 0.1169772622	-0.105931
N	-1.4607664565	-0.3635970938	 0.0492505842	-0.251765
H	-0.9759596929	-1.1116071809	-1.6069458915	 0.298966
C	-2.0577334739	-0.6836225653	 1.1275893736	 0.114398
N	-3.3364829146	-1.1524261972	 1.1615015	-0.500862
C	 0.7118707514	-0.5842992354	-1.0444646466	 0.425564
O	 1.907448597	-0.5118307647	-1.1439634254	-0.34907
O	-0.0605093063	-1.2064151287	-1.9460941113	-0.367081
H	 1.110551296	 1.8688136222	-0.0421182648	 0.145705
H	-0.4508542582	 1.9508005188	-0.8909689562	 0.127902
H	-0.4029878206	 2.0707224464	 0.877303273	 0.109589
H	 0.4226535816	-0.2691024205	 1.0432969734	 0.093828
H	-1.5783818835	-0.6411420654	 2.1141442842	 0.104875
H	-3.8890163993	-1.0595891251	 0.3232727028	 0.2649
H	-3.8351669456	-1.1440798797	 2.0340938887	 0.266503
53.8083	86.8917	161.1002	201.6323	235.4356	257.2594	320.715	381.1633	416.9733	445.7234	564.141	615.4144	632.2149	740.2028	797.1189	836.8289	901.3014	1009.4225	1038.6685	1082.374	1110.8947	1177.0202	1227.0039	1292.7942	1311.4486	1333.8705	1395.9111	1417.7342	1426.2114	1491.0836	1498.1048	1631.004	1760.5655	1869.3312	2993.6639	3042.7901	3043.8778	3115.69	3137.2739	3507.939	3598.0257	3726.7978
CC([NH+]=CN)C([O-])=O	C[C@@H](N=CN)C(=O)O	
InChI=1S/C4H8N2O2/c1-3(4(7)8)6-2-5/h2-3H,1H3,(H2,5,6)(H,7,8)	InChI=1S/C4H8N2O2/c1-3(4(7)8)6-2-5/h2-3H,1H3,(H2,5,6)(H,7,8)/t3-/m1/s1
