17
gdb 66121	2.63658	1.50451	1.33231	2.7443	71.47	-0.2564	0.0126	0.269	1018.838	0.137186	-418.001252	-417.993276	-417.992332	-418.03354	30.868	
O	-0.0663772389	 1.3968147166	-0.0053359278	-0.458923
C	 0.0087063983	-0.0136589355	 0.0211643444	 0.275532
C	 0.6426503196	-0.5995122846	 1.3188204713	-0.290154
C	-0.0218228728	-1.9787028803	 1.517900695	-0.220783
C	-1.4009347987	-1.8046917551	 0.9017578548	-0.020956
N	-2.0475528947	-0.5451021905	 1.3232720055	-0.342675
C	-1.390993552	-0.6226796224	 0.0074102026	-0.05842
C	 0.7421857144	-0.5017062935	-1.1725977683	 0.232753
N	 1.3363268119	-0.8666127718	-2.0946683453	-0.338598
H	 0.8288979734	 1.7523315218	 0.0315141691	 0.291265
H	 1.7319913521	-0.6500721905	 1.2624437593	 0.111643
H	 0.3601918965	 0.080847947	 2.1238690805	 0.140826
H	 0.5209527739	-2.7603367207	 0.975141385	 0.120591
H	-0.0600180799	-2.267602924	 2.5723059837	 0.114298
H	-2.0168106227	-2.6708402537	 0.6846044045	 0.095621
H	-3.0531999576	-0.6096827712	 1.1892854521	 0.239946
H	-1.9776899426	-0.5568782319	-0.9014012965	 0.108033
108.0967	145.9405	213.6614	266.3837	278.0541	355.4544	394.4187	472.574	481.4311	555.4927	647.3322	671.7519	726.4643	827.5388	840.6558	872.7891	908.869	949.0642	959.67	1001.7602	1018.556	1084.4323	1100.0211	1125.5338	1145.5306	1181.2429	1215.8503	1241.352	1255.8331	1315.5047	1324.9648	1355.1272	1398.9919	1427.7271	1477.8466	1491.308	2347.5594	3049.2851	3080.5443	3093.6399	3137.2198	3169.6259	3186.6841	3513.2855	3802.8285
OC1(CCC2NC12)C#N	O[C@]1(CC[C@H]2N[C@@H]12)C#N	
InChI=1S/C6H8N2O/c7-3-6(9)2-1-4-5(6)8-4/h4-5,8-9H,1-2H2	InChI=1S/C6H8N2O/c7-3-6(9)2-1-4-5(6)8-4/h4-5,8-9H,1-2H2/t4-,5-,6-/m1/s1
