15
gdb 7895	3.55794	1.81397	1.25726	4.7894	64.15	-0.2566	-0.0669	0.1897	935.8436	0.118697	-399.836216	-399.828816	-399.827872	-399.868219	27.21	
C	-0.2672689381	 1.5083812955	 0.1542810705	-0.400382
C	 0.1071601929	 0.0547020432	-0.0579465952	 0.118531
C	 1.0091416868	-0.2369792199	-1.2628340729	-0.357364
C	 1.9640896258	-1.3056123064	-0.7465422046	 0.329915
O	 2.6761261949	-2.0314061996	-1.380938169	-0.270923
C	 1.8453842358	-1.2655504307	 0.7696309554	 0.308626
N	 2.5782794819	-1.9183280648	 1.5633487731	-0.50003
O	 0.8554486111	-0.4004561622	 1.1085486195	-0.250678
H	 0.6302758676	 2.1306245804	 0.2228977402	 0.130771
H	-0.8759336505	 1.8652188878	-0.6822899734	 0.128402
H	-0.8430921746	 1.6263652083	 1.0759581882	 0.137317
H	-0.7988135297	-0.5620485159	-0.1086676354	 0.102927
H	 0.4748802951	-0.5662405984	-2.1552438096	 0.145717
H	 1.6028437998	 0.6461669804	-1.5310910461	 0.14586
H	 2.3206611713	-1.7285881276	 2.5347184091	 0.231309
74.6449	113.4591	237.338	292.7455	327.9387	380.4169	443.5001	528.7273	595.9182	624.3058	682.066	740.0705	858.5474	896.4799	925.4686	934.4238	1031.7763	1053.6598	1089.2601	1147.889	1164.4202	1215.5548	1261.6973	1301.8601	1373.9593	1388.6104	1414.9412	1450.0647	1484.8381	1496.6928	1756.3676	1867.5398	3027.0246	3042.0041	3044.3748	3117.965	3125.0826	3128.2845	3462.2487
CC1CC(=O)C(=N)O1	C[C@H]1CC(=O)[C]([NH])O1	
InChI=1S/C5H7NO2/c1-3-2-4(7)5(6)8-3/h3,6H,2H2,1H3	InChI=1S/C5H7NO2/c1-3-2-4(7)5(6)8-3/h3,6H,2H2,1H3/t3-/m0/s1
