23
gdb 117849	2.04289	1.0213	0.89907	2.3347	77.79	-0.2481	0.0689	0.317	1468.8369	0.202667	-462.543236	-462.531856	-462.530912	-462.579763	41.152	
C	-0.0938543286	 1.3131828573	 0.0941200579	-0.252218
O	 0.1496744628	-0.0756482277	-0.0268313558	-0.292163
C	 0.7180489296	-0.5582875076	-1.2664088726	 0.296764
C	 0.045159828	 0.0446073222	-2.5037024565	-0.447723
C	 2.2227650508	-0.2108832039	-1.2501548748	-0.068643
O	 2.8419113738	-0.6318080378	-0.0529688826	-0.427533
C	 0.5398071639	-2.085464823	-1.2018956128	-0.212282
C	-0.9017271366	-2.5762991561	-1.045630696	-0.074065
O	-0.9713475974	-3.9942299263	-0.9773346682	-0.420214
H	 0.8038601537	 1.9213535452	-0.0827649518	 0.113991
H	-0.885901514	 1.6568289301	-0.5829668975	 0.117537
H	-0.4239104547	 1.4778436008	 1.1230667589	 0.130843
H	 0.2679748912	 1.1100399455	-2.6123310417	 0.117848
H	 0.4087242846	-0.461263977	-3.4031390972	 0.126829
H	-1.0409450734	-0.0742283249	-2.4664884489	 0.132193
H	 2.7305350392	-0.7154817643	-2.0791169546	 0.106608
H	 2.3503151274	 0.873648507	-1.4036802058	 0.079968
H	 2.2086230509	-0.4250626842	 0.6470717828	 0.285086
H	 0.9712289813	-2.5294675846	-2.1060967513	 0.102137
H	 1.1351162861	-2.4513520625	-0.3571787985	 0.099345
H	-1.3616912593	-2.1046581212	-0.1672645798	 0.101774
H	-1.5052065958	-2.3037477342	-1.9175454982	 0.104313
H	-0.4896101036	-4.2711644126	-0.191282515	 0.279607
72.4929	93.1601	96.9661	125.7148	160.9757	219.8369	232.6424	274.261	293.0016	303.9502	347.8627	359.6052	380.6829	416.5024	476.4833	549.4207	606.5116	740.3624	779.2999	886.3757	895.9952	974.6525	1008.3945	1038.8156	1073.7507	1089.6735	1104.9525	1120.5569	1175.6024	1185.9185	1191.7225	1206.2636	1248.3107	1271.6158	1317.6409	1334.2377	1370.6827	1395.5227	1410.5018	1425.1369	1435.9335	1475.9977	1479.2692	1488.3259	1493.4302	1507.49	1512.9802	1517.606	1519.4921	2962.5845	3001.6985	3018.6392	3037.7643	3045.3803	3058.7859	3066.0421	3070.8988	3091.1871	3110.3033	3114.0885	3121.5662	3761.6555	3813.1442
COC(C)(CO)CCO	CO[C@@](C)(CO)CCO	
InChI=1S/C6H14O3/c1-6(5-8,9-2)3-4-7/h7-8H,3-5H2,1-2H3	InChI=1S/C6H14O3/c1-6(5-8,9-2)3-4-7/h7-8H,3-5H2,1-2H3/t6-/m1/s1
