17
gdb 101427	2.68834	1.05789	0.98662	1.3157	65.04	-0.2614	-0.0396	0.2218	1261.3278	0.133629	-496.077253	-496.068129	-496.067185	-496.111899	32.732	
O	-0.1527988005	 1.2314906621	 0.3372606966	-0.421271
C	-0.6445085287	-0.0739119428	 0.6260037315	-0.111744
C	-1.4622779117	-0.6009135415	-0.5574233285	 0.102612
O	-0.7272347886	-0.4516107817	-1.7541622653	-0.44349
C	-1.8533111788	-2.066207271	-0.4112143243	-0.009812
O	-0.8312724894	-2.9447283897	 0.127894392	-0.285043
C	-1.6639918314	-3.4251739722	 1.203971768	-0.187958
C	-2.7675615594	-2.4581361232	 0.7598568239	 0.33032
O	-3.8389990157	-2.1203752213	 1.1600604567	-0.274911
H	-0.8923043982	 1.8476894117	 0.3804142301	 0.291545
H	 0.2351092246	-0.7069724322	 0.7614297894	 0.142278
H	-1.2356907097	-0.0898180765	 1.5525542267	 0.101876
H	-2.4148839747	-0.0391896476	-0.6136477764	 0.075441
H	-0.2127130977	 0.3596432168	-1.6417822516	 0.290199
H	-2.2154558326	-2.4266119885	-1.3839511251	 0.125599
H	-1.9164853941	-4.4890591073	 1.1084693014	 0.137675
H	-1.2359790334	-3.2396187449	 2.1967806748	 0.136685
62.2099	92.9592	107.3159	156.8969	211.2523	311.7307	312.8837	352.6062	421.3434	491.5146	538.154	578.2877	621.7224	709.9285	813.4225	872.1953	911.3187	979.3373	1006.8098	1038.3652	1072.1518	1083.1064	1102.8271	1130.2012	1139.7235	1184.3943	1235.9939	1284.5997	1290.386	1327.7181	1366.8764	1384.8225	1401.0451	1446.572	1481.6854	1500.2362	1919.7136	2919.5568	3010.0773	3016.5708	3026.0535	3067.8469	3118.5057	3749.5278	3805.8696
OCC(O)C1OCC1=O	OC[C@@H](O)[C@H]1OCC1=O	
InChI=1S/C5H8O4/c6-1-3(7)5-4(8)2-9-5/h3,5-7H,1-2H2	InChI=1S/C5H8O4/c6-1-3(7)5-4(8)2-9-5/h3,5-7H,1-2H2/t3-,5-/m1/s1
