18
gdb 80590	3.79145	1.10334	1.00103	2.8201	72.09	-0.2349	0.0308	0.2658	1227.1114	0.147146	-439.078176	-439.06945	-439.068506	-439.111839	32.647	
C	-0.2245810178	 1.4415498761	 0.0341930525	-0.421044
C	 0.3997332332	 0.0848593445	-0.2009760763	-0.037146
C	 1.8122837526	-0.2602453902	 0.1567544811	 0.069556
O	 2.2324202038	 0.428739031	 1.3486269288	-0.307901
C	 1.226329374	-0.2838526615	 2.1262489001	 0.013619
C	 0.6724087231	-0.955550316	 0.8727610272	-0.134471
C	 1.8183854497	-1.2731173141	 3.1287763429	 0.364767
N	 3.167397369	-1.2238833498	 3.2300131341	-0.517051
O	 1.0909082741	-2.0169976608	 3.7584423697	-0.374039
H	 0.2484590806	 1.9532515381	 0.8755404526	 0.137287
H	-0.0996629467	 2.0775444515	-0.8482903389	 0.119766
H	-1.2967376525	 1.3558258042	 0.2381322366	 0.122436
H	 0.09618734	-0.4007533756	-1.1275199923	 0.095494
H	 2.5873084179	-0.6014579242	-0.5198140004	 0.104039
H	 0.5615877404	 0.398303641	 2.6681291198	 0.112604
H	 0.3176831165	-1.9757914526	 0.8355715379	 0.117063
H	 3.68217253	-0.5812737569	 2.6513820208	 0.272634
H	 3.638125312	-1.8373830146	 3.8733205937	 0.262387
61.8936	117.8061	162.3854	178.8044	244.7967	299.0306	315.6646	428.866	471.6649	552.2454	602.4926	642.1784	708.1533	735.7711	808.3041	855.5461	877.4419	911.4841	956.7299	994.5067	1007.8879	1051.2131	1064.0685	1069.6176	1092.297	1097.2072	1133.6709	1197.9919	1217.5725	1284.644	1305.1978	1344.4416	1377.2078	1412.4595	1436.0792	1494.2504	1505.1072	1589.8079	1804.0601	3040.2439	3051.3989	3099.1329	3119.247	3133.8989	3179.8152	3218.0128	3597.4488	3739.8151
CC1C2OC(C12)C(N)=O	C[C@H]1[C@H]2O[C@@H]([C@@H]12)C(=O)N	
InChI=1S/C6H9NO2/c1-2-3-4(2)9-5(3)6(7)8/h2-5H,1H3,(H2,7,8)	InChI=1S/C6H9NO2/c1-2-3-4(2)9-5(3)6(7)8/h2-5H,1H3,(H2,7,8)/t2-,3+,4-,5+/m1/s1
