17
gdb 17639	2.96407	1.86557	1.32153	5.9641	63.93	-0.2517	0.0253	0.2771	944.2021	0.142457	-401.016234	-401.008293	-401.007349	-401.048831	29.221	
C	-0.1246024683	 1.5745119033	 0.3232272646	-0.382498
C	-0.0187943447	 0.0669731328	 0.0670330112	-0.157788
C	 0.8159369838	-0.6052200076	 1.1506186255	-0.000862
C	 0.2609595718	-1.2076521924	 2.3884431153	-0.234995
N	 0.7313581562	-2.0710561223	 1.2864697102	-0.355333
H	-0.6600213971	-2.2470937567	 0.2630035435	 0.321959
H	 1.6303855093	-2.4970773293	 1.4832536632	 0.248275
C	-1.415934457	-0.5450991711	-0.1829527754	 0.404482
O	-1.5028490797	-1.878221505	-0.1082319586	-0.384733
O	-2.364023672	 0.1328839773	-0.4833136778	-0.332504
H	 0.8689435007	 2.0324984362	 0.3605932584	 0.104119
H	-0.7062025402	 2.0493978445	-0.4670124961	 0.147971
H	-0.6305496723	 1.7730862536	 1.2727767035	 0.125983
H	 0.5219099244	-0.0880068954	-0.8795618639	 0.113992
H	 1.811581817	-0.1759700047	 1.2439001273	 0.103023
H	 0.8573380459	-1.1684619537	 3.2944500261	 0.128813
H	-0.8126210977	-1.2343350497	 2.5477803231	 0.150096
66.4662	122.1187	196.0191	221.449	290.9273	300.1299	400.9876	474.0534	542.5989	556.5131	739.0203	768.7138	850.3362	865.834	898.9909	923.7594	951.6897	985.2569	1025.959	1095.7878	1115.0648	1133.9534	1155.3451	1171.9181	1239.8837	1271.3539	1275.0851	1323.0917	1336.0759	1406.5541	1433.5176	1487.9731	1490.3572	1498.2995	1511.8948	1848.4014	2994.8598	3045.3682	3110.0681	3124.6749	3128.5412	3152.0834	3215.3573	3248.3262	3536.6022
CC(C1C[NH2+]1)C([O-])=O	C[C@@H]([C@H]1CN1)C(=O)O	
InChI=1S/C5H9NO2/c1-3(5(7)8)4-2-6-4/h3-4,6H,2H2,1H3,(H,7,8)	InChI=1S/C5H9NO2/c1-3(5(7)8)4-2-6-4/h3-4,6H,2H2,1H3,(H,7,8)/t3-,4+/m0/s1
