17
gdb 56930	2.1765	1.28962	0.97274	6.0919	77.02	-0.3041	0.014	0.318	1246.6087	0.135612	-380.891669	-380.882541	-380.881597	-380.926166	32.673	
C	 0.069766004	 1.3931382126	-0.2712506526	-0.394619
C	 0.0680595979	-0.0830624902	 0.1758619366	-0.174801
C	 0.686447233	-0.2170778405	 1.5019879571	 0.277599
N	 1.1554193082	-0.2997960707	 2.5546819396	-0.314335
C	-1.3401867935	-0.6650599903	 0.1990261089	 0.016292
C	-2.0058516575	-1.0957071105	-1.0715639954	-0.308251
C	-1.5902214476	-2.1466272738	-0.0501896658	-0.175582
C	-0.4945184942	-3.0201595958	-0.3653767678	 0.29001
N	 0.3929630368	-3.7126491915	-0.6328339232	-0.334263
H	 1.0871538427	 1.7903172095	-0.2887559164	 0.145518
H	-0.356312899	 1.4751064053	-1.2744263716	 0.130913
H	-0.5252256853	 2.0071432836	 0.4104430225	 0.139731
H	 0.6787222702	-0.6665510767	-0.5240392685	 0.147999
H	-1.9820312708	-0.22975965	 0.9589556727	 0.123606
H	-3.0672928234	-0.9169101737	-1.194656623	 0.139684
H	-1.4283339299	-1.057597412	-1.9885518563	 0.145808
H	-2.3750752916	-2.6128494254	 0.5350229734	 0.144691
49.1421	98.7738	141.5874	207.7511	219.6207	235.53	260.1636	356.3769	395.3977	521.5659	556.256	565.6884	647.8697	773.43	789.1146	840.5449	879.6904	951.4363	987.4964	1002.3611	1079.8991	1083.6944	1108.5258	1126.9361	1135.9366	1182.625	1231.8058	1296.8578	1325.058	1374.0792	1407.5514	1424.0712	1487.7176	1491.4694	1499.146	2354.3994	2360.7469	3044.4961	3051.2332	3127.6265	3134.4572	3144.793	3160.3099	3177.463	3235.9845
CC(C#N)C1CC1C#N	C[C@@H](C#N)[C@H]1C[C@H]1C#N	
InChI=1S/C7H8N2/c1-5(3-8)7-2-6(7)4-9/h5-7H,2H2,1H3	InChI=1S/C7H8N2/c1-5(3-8)7-2-6(7)4-9/h5-7H,2H2,1H3/t5-,6-,7+/m0/s1
