15
gdb 30396	3.05517	1.35568	0.94446	4.0344	75.11	-0.2256	-0.0221	0.2035	1180.1949	0.11312	-453.978836	-453.970855	-453.969911	-454.011762	29.293	
C	 0.0391714382	 1.4292326218	 0.0787534346	-0.330759
N	 0.0006319865	-0.0188180897	 0.1249110633	-0.316984
C	-1.1196790873	-0.625776287	 0.0631279795	 0.361087
C	-1.1547714586	-2.0889843061	 0.1100315079	-0.178941
C	-2.3182743521	-2.730932924	 0.0462633308	 0.036608
O	-3.5177004212	-2.0548646497	-0.064717189	-0.251803
C	-3.4212602654	-0.6942097487	-0.1036451557	 0.492399
O	-4.6306634544	-0.1436058849	-0.2111129712	-0.386586
N	-2.3745354875	 0.0141569165	-0.0507005309	-0.386532
H	 0.6663000627	 1.739403933	-0.7663857545	 0.119709
H	-0.9419542709	 1.907266332	-0.0096258902	 0.130453
H	 0.5374829783	 1.7986487669	 0.9837265923	 0.119711
H	-0.2235519036	-2.6318031796	 0.1968022108	 0.130311
H	-2.4763950303	-3.799778028	 0.0707936308	 0.145909
H	-5.2881920344	-0.8507927125	-0.2355031286	 0.315418
84.8805	108.2306	201.8658	220.6467	238.	422.5368	433.532	456.4961	493.1325	571.0868	600.3429	703.8721	754.6769	758.6084	828.4189	921.062	955.8391	962.8148	1024.1792	1060.8702	1127.4995	1154.1346	1214.6673	1264.3092	1289.9105	1370.1625	1410.9877	1429.4042	1486.8727	1495.1114	1669.779	1725.7545	1772.6708	3011.3261	3061.2677	3092.6868	3228.6305	3249.3842	3798.4813
CN=C1C=COC(O)=N1	CN=c1ccoc(O)n1	
InChI=1S/C5H6N2O2/c1-6-4-2-3-9-5(8)7-4/h2-3H,1H3,(H,6,7,8)	InChI=1S/C5H6N2O2/c1-6-4-2-3-9-5(8)7-4/h2-3H,1H3,(H,6,7,8)
