25
gdb 87157	3.12805	1.04101	0.91289	0.1476	93.07	-0.2499	0.0861	0.3359	1438.674	0.228673	-352.341165	-352.331248	-352.330303	-352.375685	38.292	
C	-0.1221043064	 1.3397919509	-0.2860919721	-0.415115
C	 0.2492842677	-0.102119651	-0.013850193	-0.023139
C	 1.6901766751	-0.5482865314	 0.0944489533	-0.339833
C	 0.7905039444	-0.6038466556	 1.3108677983	 0.322776
C	 1.0640306348	 0.3744731887	 2.4408708399	-0.465134
C	 0.3007905758	-1.9476508659	 1.8181974777	-0.000311
C	-0.0274175272	-3.1295603253	 0.8595151804	-0.246145
C	 0.5615110771	-4.0994028301	 1.9193899945	-0.22026
C	 1.2922896975	-2.8924900915	 2.5637910838	-0.225073
H	 0.5756392654	 2.0413188063	 0.1792457297	 0.114116
H	-0.1158295223	 1.5427045081	-1.3630603885	 0.11522
H	-1.1256761744	 1.5731415807	 0.08786261	 0.113881
H	-0.4013295338	-0.8121204718	-0.5199396438	 0.080233
H	 1.9907500329	-1.4693054118	-0.3941790159	 0.103659
H	 2.4558581439	 0.2220892731	 0.0801031749	 0.100174
H	 1.4698019676	 1.3234672475	 2.0819437736	 0.11157
H	 0.1502039788	 0.593911903	 3.0066350974	 0.110628
H	 1.7925338959	-0.045220345	 3.1442301728	 0.117741
H	-0.5708557904	-1.7724066425	 2.4631891161	 0.06446
H	-1.0706587614	-3.2662215169	 0.5637401182	 0.092987
H	 0.5874477746	-3.1119536948	-0.0454414826	 0.102228
H	-0.2153271603	-4.5008956565	 2.5765575424	 0.099924
H	 1.1723393479	-4.9305502526	 1.5592821405	 0.093976
H	 2.3076060108	-2.77986607	 2.1696646307	 0.09981
H	 1.3323645261	-2.8399530458	 3.6546154218	 0.091625
73.0524	118.2963	152.0224	172.0016	191.5335	230.4266	274.7265	308.3733	334.6888	432.6003	442.8904	536.607	575.0064	708.6336	773.128	789.8876	810.6393	882.8798	894.7315	920.1362	936.6265	941.8717	954.8919	976.3539	1014.0909	1024.2595	1053.0061	1063.851	1097.4917	1121.4148	1136.6645	1154.9742	1190.9017	1202.0812	1240.3777	1254.1626	1262.99	1267.8885	1279.352	1293.4785	1316.9815	1384.441	1407.5256	1421.1609	1426.1564	1475.8645	1485.9294	1487.2845	1494.0611	1496.3821	1501.7986	1510.8761	1516.6564	3008.3046	3022.7834	3029.0145	3047.2393	3051.0988	3057.9592	3077.8633	3083.1536	3094.0602	3100.8188	3102.7716	3114.658	3116.2721	3122.1826	3131.2833	3202.2592
CC1CC1(C)C1CCC1	C[C@H]1C[C@]1(C)C1CCC1	
InChI=1S/C9H16/c1-7-6-9(7,2)8-4-3-5-8/h7-8H,3-6H2,1-2H3	InChI=1S/C9H16/c1-7-6-9(7,2)8-4-3-5-8/h7-8H,3-6H2,1-2H3/t7-,9-/m0/s1
