19
gdb 112004	2.78692	1.31043	1.15121	1.9063	75.58	-0.2273	-0.0001	0.2272	1133.1086	0.159743	-423.005242	-422.996781	-422.995837	-423.038168	32.799	
O	 0.0335670619	 1.5223673613	 0.1667640696	-0.420364
C	 0.0617130202	 0.1012027705	 0.1868185373	-0.094664
C	-1.3363723525	-0.5128101276	-0.0198954112	-0.039565
C	-1.9730785226	-0.2482193356	-1.3725125545	-0.119547
C	-2.470068771	-1.3601105334	-1.927260965	-0.103245
C	-2.1707058961	-2.5733645005	-1.1124632847	-0.150743
C	-0.6932102521	-2.875384238	-0.9696064029	 0.125307
O	 0.2685364723	-2.3873813398	-1.8558255918	-0.421268
C	-1.3702764288	-2.0412614793	 0.0903185341	-0.13484
H	-0.0252615442	 1.8047201816	-0.7502503331	 0.282655
H	 0.7677817813	-0.3060883927	-0.5462409314	 0.111095
H	 0.4266873316	-0.1771726232	 1.1808717805	 0.110354
H	-1.977355663	-0.0700806209	 0.7564033632	 0.094681
H	-2.0379771288	 0.7457785031	-1.8025323297	 0.09438
H	-3.0024064137	-1.4061013027	-2.8711434785	 0.102805
H	-2.8952899398	-3.3776346557	-1.0446243996	 0.089615
H	-0.4431528166	-3.8903184592	-0.6764961846	 0.107718
H	-0.1515922873	-1.6946544564	-2.3824419121	 0.277681
H	-1.4875419207	-2.4816057715	 1.0742613043	 0.087945
94.1588	147.363	171.4619	232.0404	252.6412	309.0714	355.1289	384.5647	494.9469	559.8111	619.3226	729.4682	739.6572	768.8249	795.9011	804.8635	858.721	932.22	965.812	998.1062	1005.6183	1031.1719	1053.9147	1064.8465	1075.8977	1094.6454	1104.4776	1139.6611	1188.9565	1198.009	1270.0507	1294.9721	1328.6315	1333.9332	1358.4462	1382.5424	1387.8098	1411.5004	1445.5353	1509.9433	1653.5107	2997.0163	3035.166	3084.3985	3156.4799	3161.9546	3173.8002	3178.9051	3203.1602	3747.629	3832.1846
OCC1C=CC2C(O)C12	OC[C@H]1C=C[C@H]2[C@@H](O)[C@@H]12	
InChI=1S/C7H10O2/c8-3-4-1-2-5-6(4)7(5)9/h1-2,4-9H,3H2	InChI=1S/C7H10O2/c8-3-4-1-2-5-6(4)7(5)9/h1-2,4-9H,3H2/t4-,5-,6+,7-/m1/s1
