17
gdb 106913	4.05622	1.12007	1.0011	3.9845	75.02	-0.2374	-0.0491	0.1883	1182.0525	0.136219	-421.837483	-421.829421	-421.828477	-421.870213	30.628	
O	-0.0309281584	 1.3576013387	 0.3663192351	-0.419074
C	 0.0326961093	-0.0002875238	-0.0506337602	-0.185627
C	-1.370572091	-0.5409774345	-0.0653056083	 0.328148
C	-1.9991697599	-1.1005683737	 1.1933811236	-0.303804
C	-1.7043537981	-2.0085598175	 0.0068328656	-0.233955
C	-2.8502986073	-2.2360382512	-0.9611076549	 0.395553
O	-3.3438924547	-3.3006678949	-1.2517392836	-0.33676
C	-3.2165609249	-0.8912287131	-1.493028263	-0.211152
C	-2.3769233949	 0.0368323259	-1.0143038273	-0.120792
H	 0.8362351612	 1.753273112	 0.2372026276	 0.29133
H	 0.4736235189	-0.084288778	-1.0560093744	 0.096907
H	 0.6504764385	-0.6038582413	 0.6326573233	 0.090694
H	-1.3599239237	-1.2230426814	 2.0624270253	 0.124873
H	-3.0294125497	-0.8447238227	 1.4139381652	 0.129307
H	-0.9577489455	-2.7844233415	 0.1199399697	 0.10891
H	-4.0591837506	-0.7371838553	-2.15412804	 0.116715
H	-2.4029505994	 1.1000700224	-1.2221385437	 0.128726
82.3185	121.8165	217.3741	240.8566	271.5937	359.6916	375.2254	423.0098	478.524	644.3964	676.4286	737.155	765.7813	803.6677	846.6335	896.1596	941.3947	962.1634	973.2023	996.5575	1041.1943	1045.7528	1074.9652	1081.3881	1107.3796	1172.7613	1223.7928	1227.9845	1247.157	1310.5074	1354.103	1387.8487	1465.0019	1483.9395	1519.7405	1632.8695	1813.9441	2971.2772	3002.6449	3128.5239	3199.1387	3204.881	3221.7875	3232.76	3827.8884
OCC12CC1C(=O)C=C2	OC[C@]12C[C@H]1C(=O)C=C2	
InChI=1S/C7H8O2/c8-4-7-2-1-6(9)5(7)3-7/h1-2,5,8H,3-4H2	InChI=1S/C7H8O2/c8-4-7-2-1-6(9)5(7)3-7/h1-2,5,8H,3-4H2/t5-,7-/m0/s1
