20
gdb 16669	2.72782	2.27028	1.6155	1.4031	73.25	-0.2241	0.0794	0.3035	893.9001	0.177751	-348.997356	-348.989558	-348.988614	-349.029083	30.714	
C	 0.5702613755	 1.3842194629	-0.37575599	-0.393925
C	 0.0412490098	 0.0295651466	 0.0952287782	 0.109718
O	 0.0906922969	-0.9150905152	-0.9902616727	-0.273845
C	 1.0063127474	-1.9368216594	-0.7066142346	 0.110574
C	 2.4490605962	-1.563791707	-0.4732266168	-0.329363
C	 1.5084471251	-1.8182245218	 0.6953651575	-0.072016
C	 0.7719321917	-0.6350387963	 1.3121862217	-0.018013
C	 1.6403015129	 0.2934397801	 2.1668343643	-0.398212
H	 1.6354753636	 1.3579458629	-0.6198065993	 0.118227
H	 0.0277277567	 1.6840850741	-1.2765484888	 0.12458
H	 0.4119521579	 2.1526729374	 0.3875075289	 0.111725
H	-1.0209407074	 0.159694756	 0.3393647323	 0.079952
H	 0.740202188	-2.8731131347	-1.1842754583	 0.095563
H	 3.2011314145	-2.3216626926	-0.667956358	 0.109918
H	 2.7660736207	-0.5523463926	-0.6998657432	 0.114848
H	 1.6821294015	-2.6888971993	 1.3178904854	 0.08591
H	-0.00237659	-1.0571030135	 1.964675629	 0.078465
H	 2.4700248645	 0.7174356579	 1.5944307686	 0.118458
H	 1.0580917185	 1.1218340994	 2.5835236655	 0.113616
H	 2.0696347559	-0.261842765	 3.0068451903	 0.113819
85.3843	199.2663	232.4086	268.9538	280.8776	341.3547	422.8747	441.2804	490.856	658.9651	717.2435	729.1978	764.3247	817.5541	884.9212	897.445	979.0821	981.4837	1004.0988	1038.0937	1042.0458	1056.2483	1083.5278	1102.4856	1109.115	1146.667	1164.2342	1189.8393	1209.0691	1300.499	1324.6809	1355.2769	1372.2204	1384.9884	1394.3032	1409.8665	1417.436	1476.5565	1483.7164	1492.1203	1503.9721	1509.3565	3004.9946	3027.7014	3037.2258	3045.4407	3099.2586	3113.8652	3115.6817	3123.3884	3132.3836	3163.9498	3175.6771	3220.2888
CC1OC2CC2C1C	C[C@H]1O[C@H]2C[C@H]2[C@H]1C	
InChI=1S/C7H12O/c1-4-5(2)8-7-3-6(4)7/h4-7H,3H2,1-2H3	InChI=1S/C7H12O/c1-4-5(2)8-7-3-6(4)7/h4-7H,3H2,1-2H3/t4-,5+,6-,7-/m0/s1
