18
gdb 54216	2.92488	1.32351	1.19429	4.8592	71.93	-0.2484	0.0097	0.2581	1094.976	0.149083	-439.132217	-439.12402	-439.123076	-439.16516	31.632	
N	 0.0207393922	 0.9462037979	 0.0096021413	-0.575647
H	-0.1975683226	-0.0278078793	-0.174329862	 0.246136
H	 1.0304068971	 1.0032857716	 0.1163443175	 0.241137
H	-0.4589209263	 2.6579689555	-0.625461063	 0.306025
C	-0.6538782901	 1.4003188444	 1.2430683032	 0.127386
C	-2.0592961843	 0.7234949655	 1.3088720794	-0.289121
C	-1.8420602926	-0.4364028446	 2.2514661299	-0.075091
C	-0.69964439	-0.3189073495	 2.9253520624	-0.063521
C	 0.0451977321	 0.9388614035	 2.5521172255	-0.296952
C	-0.8153657641	 2.9337055655	 1.1709200106	 0.414103
O	-0.6888428212	 3.4319971082	-0.0651272678	-0.376132
O	-1.0722321113	 3.6148195071	 2.1287429755	-0.352749
H	-2.8072728589	 1.4170898563	 1.711507653	 0.142334
H	-2.4013050309	 0.435794682	 0.3077691379	 0.110255
H	-2.5742424506	-1.2254846031	 2.3789597576	 0.099196
H	-0.3451170431	-1.0037765843	 3.6872075589	 0.099652
H	 1.1207394559	 0.7852651394	 2.3998571689	 0.094892
H	-0.0636747515	 1.7083424539	 3.3252263112	 0.148098
70.6753	101.513	208.8382	290.643	315.0343	370.101	385.3829	404.6549	446.2913	547.3258	693.6698	712.6302	749.1395	786.9998	789.6031	861.4163	888.0579	938.1187	953.6542	960.7312	973.3927	981.89	1007.6508	1093.6385	1108.381	1130.915	1167.3163	1214.0523	1259.9473	1296.0716	1307.3748	1343.0663	1361.9568	1425.9848	1475.1827	1484.5055	1655.4934	1685.6805	1861.3332	3026.8423	3032.7681	3066.452	3069.2592	3188.2858	3213.1181	3472.5948	3491.1608	3571.1245
[NH3+]C1(CC=CC1)C([O-])=O	N[C@]1(CC=CC1)C(=O)O	
InChI=1S/C6H9NO2/c7-6(5(8)9)3-1-2-4-6/h1-2H,3-4,7H2,(H,8,9)	InChI=1S/C6H9NO2/c7-6(5(8)9)3-1-2-4-6/h1-2H,3-4,7H2,(H,8,9)
