20
gdb 118920	2.52774	1.07548	0.97732	2.8485	74.95	-0.2428	0.0075	0.2504	1344.5429	0.170451	-440.310106	-440.30035	-440.299406	-440.345091	35.3	
C	 0.0248377666	 1.5677404428	 0.0889693755	-0.383717
C	 0.0046914028	 0.0367950172	 0.0526876224	-0.191462
C	 0.5582011126	-0.5206326931	-1.2667063954	-0.211831
C	 0.6813134346	-2.0478178842	-1.3076995209	 0.092823
N	-0.6202161342	-2.6838651505	-1.21821728	-0.555267
C	 1.5834875033	-2.597062324	-2.4387209552	-0.112365
O	 2.5992644343	-2.9959881	-1.4638642876	-0.24641
C	 1.8237942415	-2.5883194314	-0.4053086463	 0.417427
O	 2.0636572285	-2.6988466515	 0.7555567308	-0.335022
H	 1.0461173436	 1.951513129	-0.009756845	 0.119327
H	-0.5696006038	 1.9926294136	-0.7274911096	 0.116009
H	-0.3833343949	 1.9462219075	 1.030753489	 0.117495
H	 0.5893885302	-0.3650793978	 0.8878436911	 0.130592
H	-1.0277263851	-0.3057222886	 0.1979326962	 0.098443
H	-0.0820060653	-0.2131519173	-2.1030883206	 0.11034
H	 1.5508729747	-0.0888063588	-1.4467417701	 0.105637
H	-0.5244574985	-3.6937939458	-1.1569293098	 0.236972
H	-1.0943069099	-2.3910449887	-0.369619756	 0.244228
H	 1.1860916961	-3.4674803666	-2.9658990828	 0.121949
H	 1.9849742529	-1.8680120619	-3.1452129858	 0.124832
75.4066	89.9479	106.47	172.3303	207.3996	244.7806	253.2025	296.653	331.5282	370.8398	428.9252	567.5786	720.2768	752.1574	762.5644	775.9651	862.7239	875.924	898.117	948.0831	968.6841	990.1742	1046.5076	1068.9869	1095.3968	1112.8035	1153.8534	1170.9111	1244.0107	1285.1355	1303.0579	1333.7088	1338.0539	1380.231	1404.9097	1414.2251	1477.324	1493.235	1500.7867	1509.8187	1516.4806	1663.2801	1920.3747	3018.0328	3026.2316	3032.1801	3056.2999	3068.5315	3075.6282	3101.2252	3107.513	3131.49	3495.5631	3573.9624
CCCC1(N)COC1=O	CCC[C@@]1(N)COC1=O	
InChI=1S/C6H11NO2/c1-2-3-6(7)4-9-5(6)8/h2-4,7H2,1H3	InChI=1S/C6H11NO2/c1-2-3-6(7)4-9-5(6)8/h2-4,7H2,1H3/t6-/m1/s1
