17
gdb 74613	2.58423	2.1039	1.46448	2.2038	72.25	-0.2112	0.0173	0.2286	918.9697	0.136824	-417.974593	-417.967176	-417.966232	-418.005826	30.224	
C	-0.0304006165	 1.517050771	-0.0683449333	-0.510306
C	-0.0906993183	 0.026134075	 0.1014772833	 0.306817
O	 0.3635447718	-0.7012691354	-1.1154838052	-0.320924
C	-0.7220650079	-1.5983894912	-0.9521463958	 0.079877
C	-0.8142582117	-2.0908714073	 0.5171587598	-0.040075
N	 0.3399793681	-1.9081330171	 1.3562347758	-0.300827
C	 0.7176031482	-0.6917331393	 1.1815796037	 0.381745
N	 1.7807173304	-0.1037466538	 1.8198985585	-0.591254
C	-1.4213765038	-0.7766756843	 0.0877362004	-0.216765
H	 0.9939278898	 1.8437722365	-0.2804977356	 0.124779
H	-0.657310208	 1.8319147542	-0.906216627	 0.138791
H	-0.3744888208	 2.0208388457	 0.8403737568	 0.135394
H	-1.0476646257	-2.1590416662	-1.8204169813	 0.107571
H	-1.4452302105	-2.9493905715	 0.7126889122	 0.092732
H	 2.4261406328	-0.7563494626	 2.2427136676	 0.260427
H	 2.2310227278	 0.6596952785	 1.3399938606	 0.25422
H	-2.4342317657	-0.4164802523	 0.2142885493	 0.097796
169.2816	208.025	250.0528	291.7158	353.8232	388.0141	433.8308	533.0911	598.6396	614.3665	656.6914	707.119	738.6257	790.1359	800.8625	815.8908	843.8412	867.9879	949.9303	1005.7679	1027.2373	1046.7346	1052.23	1085.8539	1114.5296	1159.3566	1191.4105	1202.629	1297.1166	1310.2935	1357.7627	1411.9711	1416.8744	1477.777	1492.2511	1621.6818	1694.9611	3035.0597	3102.3458	3124.3548	3182.1067	3188.6042	3200.193	3567.2328	3680.6827
CC12OC3C(N=C1N)C23	C[C@@]12O[C@H]3[C@@H]([N][C]1N)[C@@H]23	
InChI=1S/C6H8N2O/c1-6-2-3(4(2)9-6)8-5(6)7/h2-4H,1H3,(H2,7,8)	InChI=1S/C6H8N2O/c1-6-2-3(4(2)9-6)8-5(6)7/h2-4H,1H3,(H2,7,8)/t2-,3+,4-,6+/m1/s1
