23
gdb 93672	2.44673	1.36971	1.17984	1.8943	80.8	-0.2509	0.0629	0.3137	1199.849	0.204253	-425.440969	-425.430733	-425.429789	-425.475424	39.257	
C	-0.3474136328	 1.4055623535	 0.0847026091	-0.439015
C	 0.0143244596	-0.0754229549	 0.1971710595	 0.033641
C	 0.5896070591	-0.6884853455	-1.117355364	-0.220767
C	 1.7740470899	-1.592156703	-0.6924390644	-0.259307
C	 1.6321546638	-1.7668559399	 0.8382365838	 0.391254
C	 0.6481803509	-2.8902511185	 1.198148426	-0.442347
O	 2.8673246052	-1.9965405991	 1.4990682863	-0.476735
C	 1.086658785	-0.3880150792	 1.2680177776	 0.084476
O	 2.1710268539	 0.5282174912	 1.2137223844	-0.433169
H	 0.5274240962	 2.0013168486	-0.195488115	 0.120535
H	-1.1102580713	 1.5617743746	-0.6847195875	 0.11737
H	-0.7481620905	 1.7999443042	 1.0265208017	 0.106323
H	-0.8951715673	-0.6193420614	 0.4777282147	 0.070895
H	-0.1826446886	-1.2490574254	-1.6525646889	 0.094547
H	 0.927969629	 0.0996537892	-1.796357543	 0.101805
H	 1.7905263377	-2.5524238845	-1.2184140521	 0.078001
H	 2.7269596704	-1.0904099705	-0.8753401216	 0.119957
H	 1.0630345699	-3.855669635	 0.8839488531	 0.104087
H	 0.4864729931	-2.926904038	 2.2795665924	 0.122006
H	-0.3207035973	-2.781215159	 0.7029095065	 0.118323
H	 3.1803117554	-2.8669349616	 1.2320419974	 0.271195
H	 0.6632237399	-0.4231611538	 2.2826831731	 0.053075
H	 1.8515403189	 1.3778203481	 1.530594911	 0.28385
64.2323	126.4667	213.9392	219.2873	228.3945	230.2173	261.2922	309.2495	312.8581	321.7883	375.6246	427.1034	485.7102	522.3533	589.6605	672.317	757.0689	821.116	853.2231	907.3893	919.2034	951.6858	964.0607	998.7907	1007.5607	1056.048	1075.8002	1118.5903	1144.4228	1157.4758	1181.911	1220.0145	1247.3311	1262.1634	1301.2042	1302.7395	1325.3681	1335.879	1373.3634	1375.9805	1398.9353	1403.7648	1435.3272	1478.9035	1493.2179	1495.685	1498.6348	1506.7757	1512.4067	2990.2719	3023.0512	3026.7403	3031.7704	3044.4526	3055.49	3081.8678	3089.314	3093.573	3103.0917	3111.1339	3117.6939	3811.6047	3834.0723
CC1CCC(C)(O)C1O	C[C@H]1CC[C@@](C)(O)[C@H]1O	
InChI=1S/C7H14O2/c1-5-3-4-7(2,9)6(5)8/h5-6,8-9H,3-4H2,1-2H3	InChI=1S/C7H14O2/c1-5-3-4-7(2,9)6(5)8/h5-6,8-9H,3-4H2,1-2H3/t5-,6-,7+/m0/s1
