18
gdb 24577	3.56446	1.60384	1.12127	1.9179	83.85	-0.1918	0.0209	0.2127	1059.7357	0.151367	-364.865386	-364.858281	-364.857336	-364.897124	28.254	
C	 0.0076461291	 1.4288451473	-0.1355157116	-0.202755
C	 1.3498375289	 2.0464512482	 0.1163328723	-0.066871
C	 2.4494766927	 1.3517215828	 0.3908607168	-0.049951
C	 2.4882043351	-0.1466791342	 0.484158242	-0.377276
C	 1.1543784271	-0.7808142039	 0.2372597075	 0.310876
C	 0.7640013911	-2.103482156	 0.2315138792	-0.265234
C	-0.6253527396	-2.1420328617	-0.0626465332	-0.163844
C	-1.0424704482	-0.8423480894	-0.2265546631	-0.107709
N	 0.0424902763	-0.018580505	-0.043875417	-0.050673
H	-0.725063398	 1.8229652173	 0.5843245465	 0.125358
H	-0.3573371871	 1.7234050131	-1.1307293472	 0.12537
H	 1.3783310245	 3.1306454137	 0.0607033757	 0.095191
H	 3.387208351	 1.873328738	 0.5615806141	 0.093118
H	 3.2325372437	-0.5334644225	-0.2278910789	 0.125942
H	 2.871597138	-0.4371008139	 1.4737165972	 0.125924
H	 1.4108896774	-2.9477150982	 0.4186261697	 0.085641
H	-1.247084576	-3.0204709861	-0.1441248189	 0.090635
H	-2.011449896	-0.4278775095	-0.456759561	 0.106257
70.6233	150.2345	245.9818	385.4564	386.4788	491.8349	588.228	617.4079	632.7116	678.1047	698.6146	716.5815	762.9206	829.063	889.6721	909.6417	935.7188	969.9675	986.5489	1004.1406	1025.5565	1051.2879	1101.1791	1187.171	1198.7445	1201.8956	1232.7467	1247.9665	1298.495	1355.3595	1360.9315	1408.0871	1436.939	1466.9579	1481.0216	1497.8697	1527.8088	1593.6875	1742.939	2989.0866	2993.1477	3003.3844	3004.7881	3158.4212	3181.3318	3234.8702	3246.6296	3264.3529
C1C=CCC2=CC=CN12	C1C=CCc2cccn12	
InChI=1S/C8H9N/c1-2-6-9-7-3-5-8(9)4-1/h1-3,5,7H,4,6H2	InChI=1S/C8H9N/c1-2-6-9-7-3-5-8(9)4-1/h1-3,5,7H,4,6H2
