21
gdb 99516	1.80411	1.54464	1.03431	2.9571	80.29	-0.2465	0.0435	0.29	1249.0999	0.178606	-424.193824	-424.183039	-424.182095	-424.228893	40.721	
C	 0.2055984639	 1.605325314	 0.1382306134	-0.418873
C	 0.0977288694	 0.0736264769	 0.0754176251	 0.358109
C	 0.8770049578	-0.5671972351	 1.2257517907	-0.401821
O	-1.2506627376	-0.336615442	 0.2631196058	-0.474771
C	 0.6098565772	-0.4919144717	-1.3019434138	-0.216935
C	-0.0443502436	 0.1586242501	-2.5378047391	-0.105649
O	-1.4627760621	 0.0350173209	-2.4387036318	-0.424969
C	 2.0572296039	-0.3868091257	-1.4639155073	 0.327271
C	 3.2427780079	-0.2686252124	-1.6281173447	-0.461397
H	 1.2267982343	 1.9445820227	-0.0629485513	 0.119133
H	-0.4670461058	 2.0779512264	-0.5840915758	 0.105551
H	-0.0869198515	 1.9491346925	 1.1339798404	 0.119857
H	 0.4162457349	-0.2734662513	 2.1729126603	 0.118803
H	 0.8354193728	-1.6581110549	 1.1543237655	 0.11518
H	 1.9231934481	-0.2546260232	 1.2256492403	 0.121707
H	-1.7298584425	-0.1100122175	-0.54572449	 0.2847
H	 0.3264467699	-1.5526098528	-1.2984293282	 0.119678
H	 0.2558438216	 1.2122556062	-2.5996957389	 0.110773
H	 0.3249587534	-0.3477763964	-3.4394261322	 0.110648
H	-1.8680599848	 0.5596794044	-3.134879233	 0.297437
H	 4.293186063	-0.182336661	-1.7583513052	 0.195569
64.3741	121.8371	146.5959	213.1079	227.4757	236.07	245.0937	286.6818	310.7734	342.2591	385.871	419.5813	433.4842	506.3423	532.6481	548.1031	561.6544	632.4899	649.3708	723.7852	875.538	932.0596	971.4422	994.9037	1006.8272	1031.327	1043.174	1078.164	1160.1426	1202.1642	1218.1435	1231.4734	1274.7384	1311.8979	1335.8218	1390.8309	1408.3295	1429.6527	1453.3651	1478.5893	1486.8493	1500.9582	1505.005	1525.6076	2230.4977	3010.0723	3023.9965	3037.7363	3047.9146	3053.5243	3109.0292	3115.5019	3119.1855	3137.4844	3502.8194	3738.0656	3838.7126
CC(C)(O)C(CO)C#C	CC(C)(O)[C@@H](CO)C#C	
InChI=1S/C7H12O2/c1-4-6(5-8)7(2,3)9/h1,6,8-9H,5H2,2-3H3	InChI=1S/C7H12O2/c1-4-6(5-8)7(2,3)9/h1,6,8-9H,5H2,2-3H3/t6-/m1/s1
