19
gdb 13423	3.38424	1.20115	1.10865	1.6528	81.71	-0.2125	0.0435	0.256	1199.5028	0.162864	-327.876211	-327.866358	-327.865414	-327.912354	33.968	
C	 0.0658674232	 1.5528645775	-0.219593666	-0.499406
C	 0.0180966535	 0.1000823162	-0.1387081064	 0.040192
C	-0.0140964851	-1.103629726	-0.0702756095	 0.122526
C	-0.0349112401	-2.5405742968	-0.0372975483	-0.218674
C	-0.427992654	-3.2794861412	 1.2185743209	 0.013078
C	-0.7621383872	-2.5538316022	 2.5023790537	-0.419791
N	-1.2996012003	-3.3014369125	 0.0505407796	-0.103491
C	-2.5639017751	-2.5781128735	 0.0675156066	-0.310865
H	 0.9918418634	 1.9455220117	 0.2153919962	 0.149487
H	 0.0152619718	 1.8977745095	-1.2584268232	 0.149379
H	-0.7712713807	 2.0081782795	 0.3210372306	 0.148439
H	 0.6967045271	-3.0097770181	-0.6930514601	 0.105267
H	 0.0705848623	-4.2360603124	 1.377313678	 0.09012
H	-1.0846974976	-1.5260182103	 2.3283839469	 0.132996
H	-1.5496127107	-3.0799189627	 3.053253239	 0.120516
H	 0.1235425039	-2.5188339084	 3.1451906564	 0.123143
H	-2.5250170555	-1.5813980449	 0.5255585861	 0.113205
H	-2.9078145683	-2.4587413511	-0.9645910045	 0.124521
H	-3.3036597705	-3.1824358643	 0.602058914	 0.119358
14.6974	93.0467	100.3295	149.133	159.3528	231.1831	246.3379	283.9945	365.5719	399.8192	480.5221	525.8571	594.6013	706.9774	784.2981	790.1003	929.1792	999.5801	1044.8392	1051.8223	1053.3158	1084.803	1132.8745	1153.9763	1164.5311	1190.6317	1209.1223	1336.1745	1368.5416	1400.0537	1414.3183	1418.6585	1453.2056	1476.5792	1479.0194	1483.1871	1488.5873	1497.5887	1511.0743	2358.4139	3010.9133	3024.9293	3038.2195	3078.2647	3084.4289	3086.6435	3092.3169	3095.5602	3102.8312	3111.5931	3137.5863
CC#CC1C(C)N1C	CC#C[C@H]1[C@@H](C)N1C	
InChI=1S/C7H11N/c1-4-5-7-6(2)8(7)3/h6-7H,1-3H3	InChI=1S/C7H11N/c1-4-5-7-6(2)8(7)3/h6-7H,1-3H3/t6-,7+,8?/m1/s1
