16
gdb 71384	2.74093	1.83037	1.32535	5.2156	71.34	-0.2268	0.0194	0.2462	956.4424	0.124947	-433.979725	-433.972172	-433.971228	-434.01123	30.334	
N	-0.020926825	 1.3451311353	 0.1688765404	-0.621439
C	 0.052146273	-0.0590893947	-0.0174897799	 0.196572
C	 0.8107452015	-0.9825747881	-0.9672704602	-0.23843
N	-0.0824337355	-2.1080564361	-0.4595522976	-0.208997
C	-1.071433119	-1.0466536626	 0.0373797203	-0.148238
C	-0.1981998681	-0.9163198699	 1.2811169357	 0.342679
O	-0.4273887467	-0.305458974	 2.4741973531	-0.460281
C	 0.3866917825	-2.2315069141	 0.9564522662	 0.347565
N	 0.9503491176	-3.1649168304	 1.5751389594	-0.563649
H	 0.9020261133	 1.7587797824	 0.254763552	 0.247909
H	-0.5142008265	 1.8192850518	-0.5799437338	 0.248525
H	 0.6061512163	-0.788876882	-2.0252028105	 0.108538
H	 1.8811773426	-1.1583749824	-0.8120908069	 0.112622
H	-2.138325653	-1.0448782353	-0.1303011727	 0.120261
H	-0.4188844131	 0.648784264	 2.2943473879	 0.289055
H	 1.13628243	-3.9446652041	 0.9399665965	 0.227306
133.7264	239.2701	254.1082	287.845	304.6824	369.3275	473.6463	499.1773	517.105	579.4782	644.2524	708.5961	756.5968	770.8873	808.9211	821.6616	871.9356	883.1744	919.7095	954.489	972.0006	1035.9006	1055.539	1103.4671	1143.9017	1182.2245	1223.2311	1261.1767	1287.5074	1343.4205	1415.5364	1451.7972	1507.6798	1654.4506	1826.8648	3033.137	3092.3462	3229.9931	3456.1691	3504.147	3582.1604	3684.0223
NC12CN3C1C2(O)C3=N	N[C@]12CN3[C@H]1[C@@]2(O)[C]3[NH]	
InChI=1S/C5H7N3O/c6-3-5(9)2-4(5,7)1-8(2)3/h2,6,9H,1,7H2	InChI=1S/C5H7N3O/c6-3-5(9)2-4(5,7)1-8(2)3/h2,6,9H,1,7H2/t2-,4-,5-/m1/s1
