15
gdb 53859	4.20629	0.84199	0.70574	1.638	70.96	-0.2495	-0.0397	0.2099	1511.4905	0.110313	-453.936605	-453.927098	-453.926153	-453.97217	33.567	
N	-0.0550392076	 1.275159549	 0.2789430919	-0.532784
C	 0.0743175101	-0.0711237033	 0.0580570438	 0.222453
N	 1.1246003831	-0.7708609112	-0.1284195756	-0.488204
C	-1.2873131106	-0.7480067107	 0.0798332007	 0.486018
O	-2.3221155321	-0.1199967292	 0.1255421015	-0.381916
O	-1.2118189034	-2.0755149549	 0.0363598174	-0.211619
C	-2.4911663221	-2.7473514677	 0.0386316698	-0.234427
C	-2.2670419886	-4.1808567756	 0.0041540056	 0.292414
C	-2.1226362135	-5.371942533	-0.0234826272	-0.407463
H	 0.7142298468	 1.8813986749	 0.0492887111	 0.254738
H	-0.9873952037	 1.6525382609	 0.2041904078	 0.272974
H	 1.9624844597	-0.1843377166	-0.129357578	 0.20913
H	-3.0486851732	-2.4507156238	 0.9334973932	 0.156021
H	-3.0717387938	-2.4124520521	-0.8277183599	 0.155278
H	-1.986641421	-6.4250370265	-0.0482274621	 0.207386
30.1759	77.1022	102.2731	144.9193	229.2692	314.9552	327.2104	351.928	394.4211	474.3114	492.5396	517.024	585.1351	620.6496	629.5739	689.0754	820.2335	887.7179	891.705	980.0281	1012.5608	1026.1819	1098.6978	1130.4345	1250.3156	1273.5153	1387.2758	1441.5898	1485.4214	1607.4162	1728.2141	1788.9456	2254.1512	3046.096	3081.6149	3443.527	3505.4874	3585.5463	3714.6551
NC(=N)C(=O)OCC#C	NC(=N)C(=O)OCC#C	
InChI=1S/C5H6N2O2/c1-2-3-9-5(8)4(6)7/h1H,3H2,(H3,6,7)	InChI=1S/C5H6N2O2/c1-2-3-9-5(8)4(6)7/h1H,3H2,(H3,6,7)
