21
gdb 111429	2.94796	1.41278	1.15113	1.7678	80.67	-0.2532	0.0757	0.3289	1152.518	0.183804	-387.071079	-387.063007	-387.062063	-387.103721	32.067	
C	-0.0552154073	 1.5684520621	-0.0507132317	-0.388669
C	 0.0276000585	 0.038890907	-0.0294018964	-0.172718
C	 0.7376836163	-0.5251062067	 1.2117852241	-0.024206
C	 0.6883266828	-2.0575522223	 1.3418173103	-0.069154
C	 1.3721167585	-2.9403721867	 0.3275785526	-0.288036
C	 2.0866677084	-2.583821298	 1.6096609508	-0.069624
C	 3.0099450316	-1.3873549135	 1.5459503112	 0.0274
O	 3.0432924282	-0.7238533976	 0.2711450612	-0.260252
C	 2.2213693922	-0.16835491	 1.3101065716	 0.030961
H	 0.9401098755	 2.0246343119	-0.0659606759	 0.121301
H	-0.5916598323	 1.9211745492	-0.9369334066	 0.113344
H	-0.5829651384	 1.9515101931	 0.8304305911	 0.109902
H	-0.9840539654	-0.3824288375	-0.0742824959	 0.093472
H	 0.551043005	-0.3161149544	-0.9237400571	 0.112562
H	 0.2567235782	-0.1036446301	 2.1067035832	 0.07161
H	-0.1653539769	-2.4770064352	 1.863689654	 0.083127
H	 0.9981530634	-3.9545480156	 0.2359211956	 0.104938
H	 1.752774125	-2.5058126391	-0.5875728345	 0.136168
H	 2.289388574	-3.3452061039	 2.353282199	 0.082667
H	 3.9525710543	-1.3946066471	 2.0863304258	 0.092802
H	 2.5263802385	 0.8182988543	 1.6526090176	 0.092404
81.4659	140.3154	169.1651	247.8689	291.992	338.973	422.2382	525.9072	541.723	679.7149	698.0915	756.3022	784.8127	800.8137	842.1774	858.1927	884.6136	921.8908	954.3756	961.7389	1003.1298	1031.9935	1054.2592	1064.1522	1081.3742	1088.7289	1102.1088	1112.7701	1130.5884	1157.1854	1199.124	1260.8547	1278.0066	1289.5764	1312.0335	1344.5332	1353.0355	1376.6448	1391.3274	1411.2049	1422.7524	1479.0437	1486.331	1500.3001	1506.0376	3001.1479	3029.5587	3032.1097	3071.4068	3098.7228	3104.0841	3130.2675	3141.1244	3152.0729	3158.3392	3184.2965	3237.8866
CCC1C2CC2C2OC12	CC[C@H]1[C@H]2C[C@H]2[C@H]2O[C@@H]12	
InChI=1S/C8H12O/c1-2-4-5-3-6(5)8-7(4)9-8/h4-8H,2-3H2,1H3	InChI=1S/C8H12O/c1-2-4-5-3-6(5)8-7(4)9-8/h4-8H,2-3H2,1H3/t4-,5+,6+,7-,8+/m0/s1
