14
gdb 16094	4.69731	1.78062	1.53176	3.2729	68.79	-0.2314	0.016	0.2473	824.1911	0.107678	-341.540125	-341.533379	-341.532435	-341.57064	26.577	
C	 0.0175783118	-1.1751247096	-0.0195841947	-0.400293
C	-0.0008029862	 0.0266302568	 0.0220344837	 0.224423
C	 0.0027136712	 1.458116975	 0.0584179158	 0.156996
C	 0.3753821093	 2.2489352245	-1.1911653333	-0.312225
C	 1.2889699321	 2.3435583621	-0.0113709456	-0.071439
N	 0.9945624516	 3.41235808	 0.9049074387	-0.286188
C	-0.2625939629	 3.1559153922	 1.430195803	 0.033421
N	-0.8787688121	 2.1176560719	 0.9973143316	-0.284687
H	 0.0228260977	-2.2363281028	-0.0498982583	 0.18757
H	 0.7266185583	 1.6607720133	-2.0305310772	 0.129747
H	-0.2443890997	 3.1041252721	-1.4405020337	 0.125213
H	 2.3010058714	 1.9607341039	-0.0377712519	 0.115742
H	 1.7222129807	 3.7751899697	 1.502225224	 0.251647
H	-0.6910266832	 3.8485161308	 2.147155438	 0.130074
150.7237	162.9547	325.3206	400.3839	421.5708	473.3702	537.1132	566.3593	574.047	647.5425	667.6065	713.4465	782.8041	862.4172	903.0754	931.0533	962.0307	986.7722	1056.0315	1070.3261	1083.0414	1133.8601	1208.0368	1278.6009	1324.5501	1376.9624	1433.1714	1469.5055	1644.2277	2239.1521	3132.8732	3196.8793	3199.3635	3232.763	3503.9371	3613.3915
C#CC12CC1NC=N2	C#C[C@]12C[C@H]1NC=N2	
InChI=1S/C6H6N2/c1-2-6-3-5(6)7-4-8-6/h1,4-5H,3H2,(H,7,8)	InChI=1S/C6H6N2/c1-2-6-3-5(6)7-4-8-6/h1,4-5H,3H2,(H,7,8)/t5-,6+/m1/s1
