19
gdb 68139	3.65914	1.24153	1.09708	4.8649	80.42	-0.2611	0.0178	0.2789	1149.288	0.16121	-382.074617	-382.066663	-382.065718	-382.106692	31.636	
C	-0.083375647	 1.5114416783	 0.0082195381	-0.494795
C	 0.0031304201	 0.0081056242	-0.0129228534	 0.326696
C	 0.7571519174	-0.7833415698	-1.1205573972	-0.274811
C	-0.2388377698	-1.8780467026	-0.6465977428	 0.224814
C	 0.2785452161	-2.2022721117	 0.783919007	-0.268375
C	 0.458629485	-0.7330705639	 1.272468955	-0.259991
N	-1.2168699298	-0.761465728	-0.4560646656	-0.358324
C	-0.6281591186	-2.9959901236	-1.4845434405	 0.178908
N	-0.9217144169	-3.9022866204	-2.1389864953	-0.341811
H	 0.8986448679	 1.9521979576	 0.2105016318	 0.123177
H	-0.4462165535	 1.8934295206	-0.9495161173	 0.133329
H	-0.7680187095	 1.8527237707	 0.7930344828	 0.121056
H	 0.519566123	-0.4238428381	-2.1207489864	 0.128286
H	 1.8233260496	-0.9785703206	-0.9966415769	 0.106349
H	-0.4635989027	-2.7646556658	 1.3559261284	 0.115415
H	 1.2066277371	-2.7788950975	 0.771946197	 0.119107
H	 1.4901196541	-0.4989702347	 1.5508282037	 0.107235
H	-0.1829585612	-0.4872129371	 2.1241014386	 0.102171
H	-1.8798382612	-0.9465778376	 0.2992707131	 0.211562
142.6162	148.6239	208.921	252.4683	304.9071	352.6895	439.1046	503.1851	522.5172	559.2319	574.2537	608.7893	716.7313	823.5069	832.9026	843.1172	888.7439	921.0216	960.3858	969.4545	1003.979	1045.5616	1094.8201	1105.7876	1122.8828	1157.1193	1176.3751	1219.6937	1235.503	1237.6253	1269.1373	1315.8726	1334.1227	1359.5754	1417.0678	1483.3646	1485.6437	1492.9438	1494.4458	1515.3665	2358.9269	3032.9373	3052.1643	3068.9607	3088.7766	3093.1678	3096.9224	3118.3691	3119.557	3165.1353	3428.0371
CC12CC(CC1)(N2)C#N	C[C@@]12C[C@@](CC1)(N2)C#N	
InChI=1S/C7H10N2/c1-6-2-3-7(4-6,5-8)9-6/h9H,2-4H2,1H3	InChI=1S/C7H10N2/c1-6-2-3-7(4-6,5-8)9-6/h9H,2-4H2,1H3/t6-,7+/m0/s1
