14
gdb 130237	3.18563	1.43592	0.99075	4.8011	71.18	-0.2132	-0.0506	0.1626	1102.2746	0.101383	-469.991518	-469.983713	-469.982769	-470.023662	30.181	
N	 0.0303281751	 1.321072273	 0.1520797187	-0.556838
C	 0.0213668972	-0.0523860259	 0.0398709867	 0.348505
N	-1.1155103117	-0.6656832493	 0.0042381843	-0.185115
O	-1.0953486295	-2.0667005532	-0.0023832012	-0.295224
C	 0.0661329027	-2.8166726018	-0.010883395	 0.419039
N	 0.0145211663	-4.0878867916	-0.0207108816	-0.547969
C	 1.3154768122	-2.0862179004	-0.0141338817	-0.309116
C	 1.3070244144	-0.745020668	 0.0128278754	 0.364763
O	 2.3864938523	 0.0708768977	 0.0025974819	-0.434704
H	 0.8325788674	 1.7827729172	-0.247637802	 0.26991
H	-0.857036314	 1.7595727617	-0.0475093899	 0.266458
H	-0.9559812607	-4.4044639222	-0.0209379184	 0.223471
H	 2.2247952953	-2.6750316789	-0.0390277084	 0.123781
H	 3.1927197029	-0.4574755883	-0.0322691286	 0.313039
88.956	186.7412	286.3724	319.8621	353.5852	363.8626	406.3972	448.1469	457.6454	534.2234	570.3998	595.0834	669.8838	721.4492	749.0938	800.9189	835.9521	885.7013	896.8924	970.4789	1104.9643	1159.5591	1193.064	1250.635	1324.4588	1361.9635	1503.3906	1618.6098	1642.9049	1700.1231	1740.0647	3205.8408	3484.5406	3575.5774	3691.4827	3803.3441
NC1=NOC(=N)C=C1O	NC1=NOC(=C[C]1O)[NH]	
InChI=1S/C4H5N3O2/c5-3-1-2(8)4(6)7-9-3/h1,5,8H,(H2,6,7)	InChI=1S/C4H5N3O2/c5-3-1-2(8)4(6)7-9-3/h1,5,8H,(H2,6,7)
