14
gdb 129377	3.94551	1.327	0.99366	2.2097	72.83	-0.2449	-0.0775	0.1675	1103.0729	0.103369	-429.066391	-429.058952	-429.058007	-429.098543	27.72	
N	-0.0983093595	 1.3255365659	 0.1277699432	-0.551394
C	 0.0556159209	-0.0259332102	 0.0229447161	 0.292762
N	 1.1365640359	-0.7112670346	-0.0574754426	-0.522106
C	-1.2332625208	-0.7825532451	 0.0346388501	 0.33582
C	-1.2620223454	-2.1856722262	 0.0308602301	-0.019612
N	-2.4152575806	-2.8333507082	 0.0338362717	-0.238573
C	-3.501673337	-2.0470627549	 0.0400309175	 0.109709
N	-3.5289995596	-0.7174318682	 0.0431832862	-0.183736
N	-2.3619755079	-0.0786189115	 0.0404748161	-0.271415
H	 0.6831832733	 1.9304940553	-0.0560653162	 0.254125
H	-1.03144983	 1.6968327507	 0.0329266557	 0.276193
H	 1.9634283548	-0.1123994536	-0.0590452707	 0.208789
H	-0.3362589119	-2.7506859226	 0.0252352574	 0.166607
H	-4.4709893822	-2.5366139168	 0.0427041255	 0.14283
78.0404	151.6971	228.902	282.7587	383.0886	389.9885	410.0931	499.6902	537.9003	609.9081	650.9582	718.0732	808.324	819.3253	860.9248	966.5147	1032.252	1067.0106	1075.2582	1098.3192	1146.7643	1169.2645	1204.3427	1250.3928	1387.3712	1425.1828	1474.4844	1554.1155	1606.7808	1610.4066	1712.9728	3188.5642	3205.2956	3466.6631	3582.1023	3719.9734
NC(=N)C1=CN=CN=N1	NC(=N)c1cncnn1	
InChI=1S/C4H5N5/c5-4(6)3-1-7-2-8-9-3/h1-2H,(H3,5,6)	InChI=1S/C4H5N5/c5-4(6)3-1-7-2-8-9-3/h1-2H,(H3,5,6)
