19
gdb 96674	3.88473	0.75048	0.63673	7.9098	77.23	-0.2425	0.0111	0.2536	1717.8498	0.15744	-456.391812	-456.381415	-456.380471	-456.428387	35.967	
C	 1.3744116618	-0.7554083853	 0.0410029711	-0.328669
N	 0.0996833353	-0.0607523411	 0.0265013787	-0.32346
H	 0.1368160817	 0.937806477	-0.0912273432	 0.255649
C	-1.1273039305	-0.649043406	-0.1141690761	 0.403328
C	-1.1707393246	-2.1541297805	-0.0719392084	-0.474373
N	-2.2287864114	-0.0021073201	-0.2571517212	-0.322897
C	-2.2254111644	 1.4449304772	-0.2938607901	-0.326549
C	-3.6617202242	 1.9645225317	-0.4761655722	 0.415061
O	-4.5686593108	 0.9867598213	-0.5500182002	-0.360815
O	-3.9298995567	 3.1342336766	-0.5436821961	-0.346505
H	 2.1550752811	-0.0416380756	 0.3120741844	 0.140899
H	 1.3827716152	-1.5534762553	 0.7884993127	 0.143335
H	 1.6358774023	-1.191377209	-0.9323804631	 0.133695
H	-0.7977802341	-2.5347302809	 0.8849829655	 0.141572
H	-2.2025397065	-2.4762042297	-0.202429902	 0.15029
H	-0.5540902516	-2.5948420604	-0.8623285986	 0.138063
H	-4.0419494684	 0.1571893438	-0.4643826327	 0.304386
H	-1.8341711303	 1.8986163106	 0.6300547966	 0.130476
H	-1.6300630538	 1.8574634658	-1.1241952952	 0.126514
46.1158	75.5691	88.6938	121.6693	155.6774	183.2981	248.1392	251.4127	321.1032	379.0334	420.1934	554.2691	574.6188	608.5592	624.9565	651.258	835.0019	840.68	892.7932	999.0024	1001.948	1060.8036	1080.9899	1118.9844	1151.4238	1204.4029	1220.5602	1234.1794	1334.6505	1372.5389	1419.8582	1452.673	1456.4129	1469.1135	1478.1326	1484.3696	1488.9958	1496.7869	1524.3852	1725.6706	1874.6887	2972.4053	3007.4704	3014.1684	3042.8299	3087.8103	3098.8929	3129.2837	3167.0866	3413.2717	3651.3863
C[NH+]=C(C)NCC([O-])=O	CNC(=NCC(=O)O)C	
InChI=1S/C5H10N2O2/c1-4(6-2)7-3-5(8)9/h3H2,1-2H3,(H,6,7)(H,8,9)	InChI=1S/C5H10N2O2/c1-4(6-2)7-3-5(8)9/h3H2,1-2H3,(H,6,7)(H,8,9)
