16
gdb 25572	6.76333	0.725	0.6764	2.8289	72.95	-0.2043	-0.0372	0.1672	1576.2133	0.125019	-434.098744	-434.090191	-434.089246	-434.133942	30.016	
O	-0.3304005464	 0.1526158681	 0.2437103739	-0.228818
C	 0.0904970905	 1.2767460892	 0.1890593008	 0.150576
C	 1.275947653	 1.7026937639	-0.666612952	-0.249868
N	 1.1645557433	 3.1051677569	-1.0529867951	-0.39963
C	 2.3235887769	 3.8297822251	-1.3253197529	 0.420238
N	 2.5537514181	 4.5052424606	-2.4259818056	-0.326255
C	 3.7683756976	 5.1325458776	-2.2184634927	-0.082141
C	 4.2754596255	 4.8174913148	-0.9926826916	-0.112697
N	 3.3343059498	 3.9727971226	-0.4180224332	-0.285908
H	-0.3517417608	 2.110837134	 0.7795115668	 0.088975
H	 2.1713153795	 1.5756437285	-0.0444280882	 0.135024
H	 1.3799244639	 1.0063884625	-1.5102485296	 0.138744
H	 0.5237616118	 3.2405385135	-1.8254277911	 0.254292
H	 4.2071215133	 5.7619421246	-2.9772075793	 0.108028
H	 5.1863427279	 5.0808867763	-0.4825003882	 0.125652
H	 3.3365891061	 3.6427473519	 0.5315800882	 0.263788
31.7292	59.03	67.9815	160.9224	284.4128	335.7535	398.8053	468.3164	510.1885	632.8197	680.8257	702.8663	733.6406	760.4114	807.3058	850.8831	927.0114	987.2907	1052.9246	1067.8151	1087.486	1129.4989	1140.1971	1188.3546	1239.897	1303.6708	1319.9609	1378.3405	1401.4042	1424.8594	1462.2131	1525.2863	1549.4281	1621.2701	1843.1236	2886.7944	3012.3899	3061.835	3252.2127	3284.9061	3570.226	3672.859
O=CCNC1=NC=CN1	O=CCNc1ncc[nH]1	
InChI=1S/C5H7N3O/c9-4-3-8-5-6-1-2-7-5/h1-2,4H,3H2,(H2,6,7,8)	InChI=1S/C5H7N3O/c9-4-3-8-5-6-1-2-7-5/h1-2,4H,3H2,(H2,6,7,8)
