18
gdb 108648	2.1738	1.58184	0.93394	2.8419	76.54	-0.2395	-0.0134	0.2261	1222.7403	0.146957	-439.137805	-439.128164	-439.12722	-439.173531	33.856	
C	 0.1889615324	 1.5333079243	-0.0198832322	-0.499213
C	 0.0212562838	 0.0478475327	 0.0088893766	 0.180278
C	-1.0822356143	-0.7142669703	-0.0353648039	 0.079366
C	-2.5391682133	-0.3958428411	-0.1251262442	-0.175168
O	-2.7875582888	 0.9754421866	 0.1420143437	-0.41918
C	-0.6963526982	-2.1590880187	 0.0148800027	 0.389419
O	-1.4368678322	-3.1239491219	 0.021932736	-0.396035
N	 0.6770385948	-2.1743871404	 0.0535637802	-0.353404
C	 1.2418941099	-0.8484680529	 0.0936664645	-0.238401
H	 0.8190967848	 1.8328071095	-0.8672288274	 0.123477
H	-0.7726122847	 2.0362190153	-0.0963714042	 0.165905
H	 0.6996173384	 1.8842477002	 0.8860869244	 0.126263
H	-2.9000505119	-0.6802686677	-1.1280630094	 0.111776
H	-3.0698513437	-1.0521111087	 0.5815952075	 0.120635
H	-3.7325721704	 1.1253485278	 0.0502088602	 0.291467
H	 1.1968412613	-3.0263015494	 0.1742316889	 0.251786
H	 1.9290077753	-0.6609557517	-0.7447421543	 0.120051
H	 1.8056580567	-0.6611314935	 1.0199587211	 0.120978
22.9044	83.3766	125.3393	168.6182	206.7037	234.885	274.6806	305.5769	354.7445	407.058	496.8586	522.5463	622.0451	667.8571	761.2685	776.4059	927.1757	954.9365	1018.1778	1045.0598	1078.1077	1081.9992	1085.3721	1163.4411	1189.7996	1192.8823	1244.5509	1255.4846	1330.313	1340.9182	1409.8904	1425.8249	1469.1893	1483.6487	1493.2074	1502.7658	1504.5758	1735.5532	1807.5644	2962.3811	2990.6727	2999.1616	3012.5177	3020.2789	3061.5534	3176.3729	3675.2211	3837.2542
CC1=C(CO)C(=O)NC1	CC1=C(CO)C(=O)NC1	
InChI=1S/C6H9NO2/c1-4-2-7-6(9)5(4)3-8/h8H,2-3H2,1H3,(H,7,9)	InChI=1S/C6H9NO2/c1-4-2-7-6(9)5(4)3-8/h8H,2-3H2,1H3,(H,7,9)
