15
gdb 43750	4.79647	0.95732	0.8934	0.7852	69.75	-0.2653	-0.0267	0.2386	1251.6137	0.112205	-416.801833	-416.79389	-416.792946	-416.835135	29.061	
O	 0.2509918177	-0.0009949709	-0.0396824507	-0.280105
C	 0.0636011645	 1.1699776194	 0.0247041219	 0.410976
C	-1.1637678159	 2.0935179206	 0.1205884013	-0.433085
C	-0.1383640758	 3.2301169205	 0.0816903803	 0.329167
C	-0.2365502032	 4.4510777257	-0.801369576	-0.433992
C	-1.1938435951	 5.4279423937	-0.2783054167	 0.26231
N	-1.9562221046	 6.1842527685	 0.1469917603	-0.295545
C	 0.8514791284	 3.0725360083	 1.1541893616	-0.277082
N	 1.0301117978	 2.259674161	-0.0960760339	-0.209894
H	-1.7842601112	 2.0207320483	-0.7769164415	 0.15092
H	-1.7996605182	 2.0084186253	 1.0042998546	 0.149424
H	 0.7471597225	 4.9241043225	-0.8897256395	 0.170706
H	-0.5437902687	 4.1628495292	-1.8134928273	 0.164619
H	 1.6262138952	 3.8243783331	 1.2632554451	 0.147535
H	 0.5852538268	 2.5592418248	 2.0744929605	 0.144045
49.9897	92.6374	151.2764	292.3856	342.8683	389.0817	397.1486	456.9996	492.3176	564.5462	657.0991	719.0904	797.5748	833.5154	899.9189	925.0659	950.2121	982.8874	1019.0301	1022.1291	1098.276	1127.7078	1156.9615	1183.2391	1215.5546	1312.2581	1334.4692	1395.2015	1453.6943	1458.6415	1513.7405	1930.8232	2367.4133	3045.3555	3073.2559	3089.6107	3120.0283	3128.4362	3212.0589
O=C1CC2(CC#N)CN12	O=C1C[C@@]2(CC#N)CN12	
InChI=1S/C6H6N2O/c7-2-1-6-3-5(9)8(6)4-6/h1,3-4H2	InChI=1S/C6H6N2O/c7-2-1-6-3-5(9)8(6)4-6/h1,3-4H2/t6-,8?/m0/s1
