23
gdb 38417	3.48555	1.2462	1.22166	0.1853	88.04	-0.2608	0.087	0.3478	1165.6155	0.208592	-351.149075	-351.141239	-351.140295	-351.181122	32.538	
C	-0.0199578777	 1.4381273626	 0.919221703	-0.292848
C	 1.1764058279	 1.0313135538	 0.0917650089	-0.024319
C	 2.249632552	 0.1739538805	 0.7450908243	-0.276431
C	 1.4913278563	-0.9610890237	 1.4808227207	 0.358447
C	 2.3431767519	-2.2298966164	 1.777752035	-0.277287
C	 2.5660738119	-1.7307326481	 3.2289437674	-0.220761
C	 1.3851784078	-0.7464532891	 3.0296799148	-0.252451
C	 0.1872996746	-1.133786261	 0.6710305563	-0.297059
C	-0.0991676517	 0.2170810443	 0.0348209697	-0.024443
H	 0.0015506519	 1.3173614339	 1.9966827522	 0.113561
H	-0.5631363452	 2.3175376874	 0.58958651	 0.104044
H	 1.4666436914	 1.6759329796	-0.7309273002	 0.075832
H	 2.8862267943	-0.2547893249	-0.040163297	 0.092552
H	 2.9085459073	 0.7352186449	 1.4180764184	 0.093034
H	 1.7325987892	-3.1382247997	 1.7476351435	 0.094581
H	 3.2270327049	-2.3885256771	 1.1524042268	 0.089947
H	 2.4771061947	-2.4646660275	 4.0332475683	 0.094028
H	 3.5214662263	-1.2113132477	 3.3430535768	 0.101486
H	 1.5152658642	 0.2724242351	 3.4050432241	 0.09455
H	 0.4466813804	-1.1440771905	 3.4287358058	 0.093926
H	 0.3467128476	-1.8777196395	-0.1214166037	 0.09365
H	-0.6320068773	-1.5071933315	 1.296934658	 0.090126
H	-0.7512026928	 0.2535536944	-0.8311709431	 0.075834
110.5657	134.4471	215.9494	304.1026	362.3231	380.2012	390.4614	471.7009	619.2981	677.4671	755.2236	771.1367	793.2801	825.4807	865.0189	868.0901	886.5624	899.5633	932.8701	946.0193	961.1252	979.3552	1013.742	1046.193	1062.2346	1073.4201	1084.8403	1107.2	1134.8067	1137.7771	1184.1785	1200.7446	1207.748	1214.3265	1257.4825	1258.4316	1272.3516	1285.5309	1303.9976	1310.1704	1332.0069	1348.3645	1398.486	1473.3217	1482.3942	1484.4793	1488.9567	1500.6287	1507.4467	3010.3559	3015.7146	3038.3773	3044.2487	3051.8803	3054.2529	3059.6111	3085.3329	3092.7433	3113.9544	3132.8911	3158.0076	3167.569	3214.702
C1C2CC3(CCC3)CC12	C1[C@H]2CC3(CCC3)C[C@@H]12	
InChI=1S/C9H14/c1-2-9(3-1)5-7-4-8(7)6-9/h7-8H,1-6H2	InChI=1S/C9H14/c1-2-9(3-1)5-7-4-8(7)6-9/h7-8H,1-6H2/t7-,8+
