16
gdb 128268	4.8838	0.92691	0.80481	4.5331	68.78	-0.2376	0.0049	0.2425	1394.902	0.124542	-471.204208	-471.195192	-471.194248	-471.238816	31.258	
C	-0.0225712856	 1.3458510523	 0.1269921576	-0.334184
N	-0.1020373708	-0.1046958887	 0.1685020785	-0.395289
C	-1.264696806	-0.7767757865	 0.0759304132	 0.54763
N	-1.4634190087	-2.056517723	 0.2827667781	-0.438651
C	-2.803340222	-2.1699473532	 0.0075149989	 0.354818
C	-3.4868087453	-3.5023165929	 0.1015957249	-0.159088
O	-3.0953643722	-4.1960536004	 1.2680231273	-0.4135
N	-3.4142079776	-1.0704702865	-0.3349420991	-0.20191
O	-2.3588133663	-0.1050479883	-0.2958527676	-0.219517
H	 1.0199462305	 1.6341656496	-0.0183944181	 0.140001
H	-0.6065725039	 1.7215420524	-0.7155524851	 0.164396
H	-0.3969526123	 1.8165487139	 1.0448554383	 0.140033
H	 0.648750331	-0.6230038513	 0.5939051259	 0.270922
H	-4.5695202376	-3.3606226712	 0.1382576591	 0.137124
H	-3.2539100017	-4.0788210004	-0.8088865407	 0.109591
H	-2.1387731016	-4.0910405259	 1.3406474589	 0.297625
65.0399	84.4882	104.774	151.6546	196.083	246.6655	344.2186	370.5722	435.0785	455.6393	518.4387	651.4753	714.6139	764.7338	799.7298	879.1686	998.2303	1017.928	1033.4409	1079.029	1104.493	1154.5789	1188.5699	1220.0874	1359.9177	1367.1711	1402.0711	1435.4355	1448.8159	1483.8743	1491.3213	1498.96	1515.7296	1597.7831	1689.1723	2970.9248	3024.7236	3106.3119	3106.6218	3145.6764	3657.2783	3787.0828
CNC1=NC(CO)=NO1	CNc1nc(CO)no1	
InChI=1S/C4H7N3O2/c1-5-4-6-3(2-8)7-9-4/h8H,2H2,1H3,(H,5,6,7)	InChI=1S/C4H7N3O2/c1-5-4-6-3(2-8)7-9-4/h8H,2H2,1H3,(H,5,6,7)
