15
gdb 43093	3.43188	1.75181	1.66249	3.8371	63.49	-0.2316	-0.0355	0.1961	841.0843	0.11495	-457.761689	-457.755669	-457.754724	-457.792068	24.555	
O	-0.0055825228	 0.0242656537	-0.0189678164	-0.306328
C	-0.0178834643	 1.2155097564	 0.053197902	 0.463199
C	-1.1089060094	 2.3086060871	-0.0059435172	-0.047174
O	-1.1866400065	 2.936271154	 1.2927856463	-0.27092
C	-0.0336905847	 3.7658937894	 1.3526947012	 0.185358
C	-0.054097786	 4.5121501496	 0.0173847155	-0.249383
C	-0.0469961931	 3.202608657	-0.7599633602	-0.114634
C	 1.0478126476	 2.3320814964	-0.025793565	-0.047175
O	 1.135739697	 2.9615434977	 1.2714201763	-0.270922
H	-2.1087666925	 2.1045103386	-0.3882935184	 0.101963
H	-0.0309820176	 4.3121213687	 2.2931989921	 0.107605
H	-0.9605489279	 5.1032597547	-0.1217468105	 0.122091
H	 0.8365606561	 5.1228201557	-0.1382798486	 0.122091
H	-0.0568670246	 3.1912753157	-1.8458797323	 0.102267
H	 2.0446785287	 2.1497296455	-0.4265104147	 0.101963
129.5794	251.3755	399.8328	471.3245	525.2234	531.0911	608.2037	712.8524	794.8928	823.5974	826.252	865.0097	890.7333	903.0847	933.9201	956.1861	983.8344	1017.1309	1037.0466	1081.4959	1083.7877	1121.4939	1132.1842	1205.1128	1222.7367	1240.4409	1266.8376	1267.8466	1296.003	1335.1229	1342.4083	1479.4138	1903.3468	3085.9208	3123.5017	3124.9878	3147.8169	3164.5178	3171.2088
O=C1C2OC3CC2C1O3	O=C1[C@H]2O[C@@H]3C[C@H]2[C@H]1O3	
InChI=1S/C6H6O3/c7-4-5-2-1-3(8-5)9-6(2)4/h2-3,5-6H,1H2	InChI=1S/C6H6O3/c7-4-5-2-1-3(8-5)9-6(2)4/h2-3,5-6H,1H2/t2-,3+,5+,6-
