23
gdb 114062	2.78171	1.15732	0.9514	1.7494	86.55	-0.2356	0.0874	0.323	1377.7779	0.203239	-388.280413	-388.270248	-388.269303	-388.315037	38.189	
C	 0.0931892744	 1.5305969	-0.1066668194	-0.381394
C	-0.0279172489	 0.0282608133	 0.1677383815	-0.190317
C	-1.4557512046	-0.4936841055	 0.0482329777	-0.027886
C	-2.1247379323	-0.5542826959	-1.3757959512	-0.313697
C	-2.3063583885	-2.0682681154	-1.1797884797	 0.352192
C	-3.3354358052	-2.9670858408	-1.7844238622	-0.501004
O	-0.9814450291	-2.5993306128	-0.9772510043	-0.329832
C	-1.6660703207	-2.0209907493	 0.1517827068	 0.332608
C	-1.8091078377	-2.8534048691	 1.3848032381	-0.507445
H	 1.1307111189	 1.8676449596	-0.0175075308	 0.111429
H	-0.2506532081	 1.7804867397	-1.1162924757	 0.117233
H	-0.5080045838	 2.1144823448	 0.5997233363	 0.109393
H	 0.6045555712	-0.5343138697	-0.5279293887	 0.111823
H	 0.3499379296	-0.1878225277	 1.1763030485	 0.089394
H	-2.1148130525	 0.0303059427	 0.7510188984	 0.064795
H	-3.0649341195	 0.000416743	-1.4319392945	 0.098237
H	-1.4898935522	-0.2801188429	-2.2232365966	 0.101897
H	-3.1551034208	-3.0958590808	-2.8580431426	 0.130043
H	-3.3086353685	-3.9557046685	-1.3179764203	 0.129716
H	-4.3392606227	-2.5471357409	-1.6617842857	 0.12082
H	-0.8566777483	-2.9198763328	 1.9234146911	 0.130819
H	-2.5484625135	-2.4169188323	 2.0645282206	 0.120762
H	-2.1219346771	-3.8702088888	 1.1318822327	 0.130415
93.0093	125.0403	154.4649	181.9865	189.9119	192.9317	237.1562	289.9673	320.3596	326.1085	444.1199	480.3515	553.7452	603.8041	706.4742	729.9228	777.0883	809.6074	859.4331	903.5108	929.0891	956.1963	964.2694	1030.8661	1053.5189	1078.4562	1126.6585	1135.6702	1145.3741	1193.9929	1204.9126	1223.5982	1233.9704	1288.2365	1304.0529	1340.5301	1383.9841	1408.8311	1409.9202	1411.5292	1461.844	1476.8887	1477.9301	1487.8814	1490.747	1493.8086	1499.2605	1506.8619	1526.6689	3016.3637	3027.9084	3029.9585	3031.2668	3033.7816	3055.5415	3067.606	3091.5946	3092.2316	3096.057	3100.7839	3111.5193	3114.9688	3117.3126
CCC1CC2(C)OC12C	CC[C@H]1C[C@@]2(C)O[C@@]12C	
InChI=1S/C8H14O/c1-4-6-5-7(2)8(6,3)9-7/h6H,4-5H2,1-3H3	InChI=1S/C8H14O/c1-4-6-5-7(2)8(6,3)9-7/h6H,4-5H2,1-3H3/t6-,7+,8-/m0/s1
