19
gdb 41136	3.25871	1.67679	1.3322	1.4936	80.43	-0.23	0.0127	0.2427	997.8606	0.161479	-385.870402	-385.863429	-385.862485	-385.901618	28.604	
C	-0.0312494735	 1.5294616621	 0.1352677863	-0.240682
C	 1.5230944279	 1.5848271801	-0.0191980431	-0.329435
C	 1.5686825369	 0.0417613829	-0.0367428489	 0.313548
C	 2.4776475653	-0.8368664178	-0.8187156753	-0.207542
C	 2.7699783366	-1.961663459	-0.1592705113	-0.068631
C	 2.1328469718	-2.0293315375	 1.2135168448	-0.293903
C	 1.3751125621	-0.6902767227	 1.3223652698	 0.075906
O	-0.0591148367	-0.79148167	 1.1297926821	-0.306749
C	 0.0053406284	-0.0119272624	-0.0749443308	 0.077204
H	-0.4123045566	 1.8029059537	 1.1216237481	 0.112965
H	-0.5866226882	 2.0850099436	-0.6238838959	 0.101813
H	 1.8285482338	 2.0163764588	-0.9769510546	 0.103823
H	 2.090816131	 2.0791091544	 0.7745579143	 0.098768
H	 2.8201039628	-0.5935030017	-1.8188596698	 0.092288
H	 3.3893939449	-2.7637181055	-0.5468006073	 0.096013
H	 1.4235669933	-2.8609553675	 1.3041748152	 0.124254
H	 2.8796367949	-2.1603154882	 2.0069724952	 0.103
H	 1.613211339	-0.1336832326	 2.2360451084	 0.072584
H	-0.5976921836	-0.4378830307	-0.8810740173	 0.074777
116.4315	188.7181	244.4575	335.0272	437.3133	473.151	485.4068	658.3356	700.6034	740.6182	759.4773	810.0028	839.5043	863.872	886.0139	914.855	942.2302	947.5948	972.436	1018.7119	1029.1477	1045.0792	1070.7773	1096.84	1120.489	1149.3214	1175.6988	1191.4739	1221.6202	1234.7771	1247.5508	1268.5525	1291.7737	1312.7511	1334.6513	1353.1745	1400.1387	1466.7077	1470.1744	1488.4024	1665.6646	3019.5031	3038.6912	3048.5174	3060.4754	3065.893	3077.8253	3094.7111	3126.8918	3177.4227	3201.7354
C1CC23C=CCC2OC13	C1C[C@@]23C=CC[C@@H]2O[C@@H]13	
InChI=1S/C8H10O/c1-2-6-8(4-1)5-3-7(8)9-6/h1,4,6-7H,2-3,5H2	InChI=1S/C8H10O/c1-2-6-8(4-1)5-3-7(8)9-6/h1,4,6-7H,2-3,5H2/t6-,7-,8-/m0/s1
