16
gdb 31571	3.33011	1.1671	0.8731	1.7834	69.78	-0.1788	0.0447	0.2235	1273.7914	0.122942	-475.025643	-475.016334	-475.01539	-475.060173	33.384	
C	 0.1396246423	 1.411055942	-0.0825481819	-0.244788
O	 0.0310930993	-0.0101427602	-0.0538161233	-0.269547
C	 0.5819774025	-0.6821888934	-1.0712345389	 0.471151
C	 0.624696895	-2.0251501192	-1.2890257155	-0.472894
C	 1.3379159824	-2.1719834435	-2.5289762683	 0.304995
O	 1.6363633783	-3.3340583497	-3.1662255752	-0.438234
C	 1.6797518582	-0.9354910746	-2.9825886009	 0.179257
N	 2.3608229707	-0.4988618678	-4.1046792098	-0.590195
O	 1.1924755946	 0.0089225641	-2.0449072793	-0.22245
H	 1.1871463413	 1.729213656	-0.0725678441	 0.133091
H	-0.3491884248	 1.8284296951	-0.9688166149	 0.13313
H	-0.363364354	 1.7629601833	 0.8186085747	 0.136491
H	 0.2097025636	-2.7951252519	-0.6594052018	 0.103613
H	 1.2877190626	-4.0631203904	-2.6457894046	 0.298226
H	 3.2300184232	-0.0170121257	-3.9019206304	 0.239075
H	 1.8047344746	 0.0714980059	-4.7325768858	 0.23908
36.3388	152.7621	196.1021	197.1236	211.5441	213.1913	282.0009	283.0346	390.4253	396.3117	553.406	621.2547	647.1726	653.8764	679.6461	715.1335	720.5523	822.5671	985.2528	1025.6463	1069.5271	1159.5977	1177.3377	1200.4664	1209.3932	1225.8889	1342.8342	1366.8375	1452.8353	1482.4936	1484.3183	1502.8939	1643.31	1666.2286	1757.7714	3032.5823	3099.0704	3149.0216	3261.1849	3493.3226	3557.2784	3847.8231
COC1=CC(O)=C(N)O1	COc1cc(O)c(N)o1	
InChI=1S/C5H7NO3/c1-8-4-2-3(7)5(6)9-4/h2,7H,6H2,1H3	InChI=1S/C5H7NO3/c1-8-4-2-3(7)5(6)9-4/h2,7H,6H2,1H3
