15
gdb 11364	6.06147	1.30276	1.09394	2.3846	62.45	-0.2693	-0.0194	0.2499	1051.4026	0.118789	-399.863905	-399.856423	-399.855479	-399.896122	26.776	
C	 0.0989150163	 1.5139337923	 0.0077199695	-0.374147
C	-0.069104057	-0.0050162124	 0.0030510212	-0.292785
C	-1.494679193	-0.443036626	 0.0136638527	 0.430708
N	-2.5368280135	 0.2831223567	 0.0247107537	-0.295308
C	-3.6665270658	-0.6371803508	 0.0314016411	-0.315859
C	-3.0513869144	-2.0323206258	 0.0211832959	 0.404531
O	-3.5360481038	-3.1189490631	 0.0226346217	-0.309872
O	-1.6770670922	-1.8183970439	 0.0108869564	-0.233927
H	 1.1603420481	 1.7749291168	-0.0007369686	 0.117752
H	-0.3770238616	 1.9631058065	-0.867140713	 0.13718
H	-0.3611947429	 1.9559581876	 0.8946133592	 0.137132
H	 0.4107347496	-0.4561484024	-0.875196187	 0.137906
H	 0.425970645	-0.463287492	 0.869043925	 0.137901
H	-4.2949634554	-0.5006594331	 0.9183296094	 0.159433
H	-4.3102886694	-0.4946625905	-0.8435063472	 0.159356
65.9344	147.476	188.2406	206.2042	265.0468	369.6613	524.8353	528.1386	625.1586	655.6805	709.9893	804.9335	860.7129	908.9527	990.8142	997.8651	1038.9664	1092.8891	1113.2265	1136.3029	1187.25	1213.3375	1281.0048	1297.7008	1399.8065	1419.5773	1445.7444	1466.8305	1493.262	1502.0049	1737.0128	1920.3064	3031.6112	3053.1961	3055.9626	3057.4813	3087.0127	3129.0342	3133.3469
CCC1=NCC(=O)O1	CCC1=NCC(=O)O1	
InChI=1S/C5H7NO2/c1-2-4-6-3-5(7)8-4/h2-3H2,1H3	InChI=1S/C5H7NO2/c1-2-4-6-3-5(7)8-4/h2-3H2,1H3
