18
gdb 32613	4.43285	1.00167	0.88454	7.0512	84.04	-0.2105	-0.0087	0.2018	1330.2263	0.14951	-402.009499	-402.001282	-402.000337	-402.042879	30.876	
C	 0.0038233151	 1.5780345515	 0.0083956865	-0.371975
C	 0.0094199395	 0.0479489605	 0.0033017594	-0.178141
N	-1.3328422093	-0.5348676919	 0.0127676161	-0.061621
C	-1.9856378633	-0.7703958524	 1.1971937701	 0.038236
C	-3.2585566908	-1.2272781261	 1.2459950292	-0.281461
C	-4.0345085884	-1.4937171219	 0.0325244214	 0.377241
O	-5.1904687424	-1.9070256566	 0.0409705527	-0.403869
C	-3.2790879797	-1.2196682075	-1.1921521434	-0.28146
C	-2.0055025326	-0.7630328503	-1.1619422834	 0.038233
H	 1.0298364432	 1.9583428855	 0.0009309061	 0.128447
H	-0.5141605913	 1.9707358631	-0.8714896634	 0.135744
H	-0.4991047139	 1.9649065971	 0.8995266495	 0.135742
H	 0.5308826997	-0.3302235452	-0.8811271409	 0.127824
H	 0.5458171962	-0.3360301833	 0.8762248775	 0.127825
H	-1.4019311613	-0.5699059302	 2.0890307167	 0.125243
H	-3.7300328975	-1.4117775076	 2.2037731404	 0.109374
H	-3.7666336029	-1.3982065394	-2.1429896241	 0.109374
H	-1.4368911203	-0.5569433052	-2.0622146505	 0.125244
62.3053	77.5143	180.9677	219.4985	358.0755	365.7209	420.2663	462.2228	468.9682	505.1772	651.8833	731.2183	742.1569	795.8453	812.2638	820.6922	868.9745	959.914	966.9574	968.9803	1014.9034	1062.5636	1098.4654	1164.3777	1210.2238	1235.3768	1240.5617	1293.2155	1389.71	1399.5873	1414.7626	1442.3899	1487.2735	1490.0494	1495.2361	1508.7273	1592.26	1679.917	1734.4636	3043.1389	3054.5976	3093.1579	3118.955	3124.978	3184.5857	3187.2485	3212.5838	3214.3127
CCN1C=CC(=O)C=C1	CCn1ccc(=O)cc1	
InChI=1S/C7H9NO/c1-2-8-5-3-7(9)4-6-8/h3-6H,2H2,1H3	InChI=1S/C7H9NO/c1-2-8-5-3-7(9)4-6-8/h3-6H,2H2,1H3
