18
gdb 91211	2.12938	1.6443	1.51318	1.584	72.87	-0.2631	0.0147	0.2778	1017.8351	0.146805	-439.071856	-439.063265	-439.062321	-439.104965	32.467	
C	-0.5640368792	 1.3748301034	 0.0672525748	-0.41606
C	 0.0545414825	-0.0113837793	-0.0271064951	-0.017739
C	 1.3607852057	-0.2231611678	-0.8641626959	-0.26432
C	 2.04357045	-0.8541741887	 0.3576469966	 0.027155
O	 2.7287154725	 0.1698182023	 1.1600503886	-0.26973
C	 1.6487511721	 0.3136095885	 2.0017349601	 0.354653
N	 1.5184304203	 0.9235543378	 3.0911043999	-0.557521
C	 0.7470557282	-0.6218848167	 1.2297790701	 0.280886
O	-0.0180613473	-1.5280051363	 1.9403844766	-0.468395
H	 0.1732354284	 2.1223749047	 0.3771958954	 0.126362
H	-0.9708476846	 1.6850904684	-0.9010430799	 0.116801
H	-1.3806363622	 1.3888843022	 0.7960208429	 0.132154
H	-0.7008289841	-0.741434169	-0.3343445681	 0.097087
H	 1.2386992666	-0.9022839672	-1.7105447872	 0.1123
H	 1.8577499851	 0.6876603739	-1.2056632632	 0.116985
H	 2.6317930282	-1.7680374581	 0.292787674	 0.099223
H	 2.3780955828	 1.4028611671	 3.3644876284	 0.231609
H	 0.2556928749	-1.4934032252	 2.8646957423	 0.298551
86.7727	120.5739	195.5885	200.4146	228.776	321.3537	351.0325	394.9821	422.8318	517.249	590.2234	678.3908	720.9864	776.453	831.4874	866.438	868.4519	921.1277	947.7889	969.1691	993.5099	1020.8284	1098.1601	1102.8595	1123.2742	1164.4054	1182.5043	1225.1346	1235.4028	1268.5691	1312.9922	1345.7745	1378.2839	1391.8029	1413.1217	1470.3423	1491.4952	1494.157	1814.216	3033.2025	3059.5622	3071.3494	3101.4022	3107.8496	3125.5406	3135.6839	3475.7044	3792.884
CC1CC2OC(=N)C12O	C[C@H]1C[C@H]2O[C]([NH])[C@@]12O	
InChI=1S/C6H9NO2/c1-3-2-4-6(3,8)5(7)9-4/h3-4,7-8H,2H2,1H3	InChI=1S/C6H9NO2/c1-3-2-4-6(3,8)5(7)9-4/h3-4,7-8H,2H2,1H3/t3-,4+,6+/m0/s1
