21
gdb 123062	6.69693	0.51635	0.50172	3.209	76.35	-0.2466	0.071	0.3176	2165.7604	0.180747	-461.318074	-461.307782	-461.306838	-461.355322	35.163	
O	-0.0557903536	 1.3907624187	-0.062920237	-0.418548
C	-0.0089798939	-0.0017366715	 0.2034870534	-0.072117
C	-1.3629809744	-0.5887483862	-0.1734525146	-0.1837
C	-1.4392506535	-2.0888443684	 0.0691391835	-0.069034
O	-2.7278818822	-2.5374300973	-0.3110181638	-0.249945
C	-2.9080909684	-3.9162032	-0.1659032193	 0.093767
C	-3.2555435893	-4.4654275486	 1.2418613688	-0.094095
O	-4.4908441323	-5.0236617346	 0.7490817547	-0.2729
C	-4.3217190117	-4.3886911475	-0.5359843907	-0.099925
H	 0.7952456508	 1.7711522371	 0.1727956529	 0.286525
H	 0.7883116414	-0.492525028	-0.3792630062	 0.085507
H	 0.2013894154	-0.1971229581	 1.2682352205	 0.085681
H	-2.1453378384	-0.0874446408	 0.4058994881	 0.118955
H	-1.5634146645	-0.3820185307	-1.229940364	 0.118304
H	-0.6686755636	-2.6195412956	-0.516419235	 0.088321
H	-1.2509105249	-2.3182606755	 1.1314583043	 0.090554
H	-2.0999263321	-4.4709803372	-0.6637401006	 0.074035
H	-2.5984746344	-5.2338272053	 1.6649794783	 0.100844
H	-3.4228446879	-3.6717139051	 1.9826249665	 0.101341
H	-5.0153741598	-3.55185583	-0.685773037	 0.111841
H	-4.4143170626	-5.0995601152	-1.3641032129	 0.10459
42.5028	59.3256	75.7048	104.0895	126.8094	144.1277	248.2314	267.5837	294.6519	405.5927	479.8113	503.4781	743.1821	780.0605	872.2828	887.1644	892.8755	980.0489	1022.1693	1026.8094	1038.7515	1056.3587	1077.6046	1096.6046	1139.72	1156.9287	1166.6212	1178.2575	1211.9998	1232.3006	1247.1903	1278.0194	1301.5683	1306.2758	1307.579	1319.3511	1348.1823	1398.6203	1451.9037	1468.6774	1498.5939	1499.6893	1521.6156	1527.2632	1533.9192	2948.6813	2958.427	2975.8877	2982.7615	2998.0398	3006.1073	3024.7293	3053.0154	3064.098	3076.2413	3099.6798	3831.0463
OCCCOC1COC1	OCCCOC1COC1	
InChI=1S/C6H12O3/c7-2-1-3-9-6-4-8-5-6/h6-7H,1-5H2	InChI=1S/C6H12O3/c7-2-1-3-9-6-4-8-5-6/h6-7H,1-5H2
