20
gdb 85894	1.73151	1.66765	1.06175	3.4078	76.95	-0.2349	-0.0319	0.203	1224.1732	0.167551	-440.268215	-440.258297	-440.257353	-440.302986	36.334	
C	-0.2566873765	 1.4504806708	-0.2865136065	-0.328092
N	-0.2294270852	 0.0321419122	 0.0024673665	-0.101856
C	-1.387350894	-0.5829332254	 0.6813492378	-0.22431
C	-0.4035039921	-1.5618765088	 1.3773830601	 0.392325
C	-0.6100309659	-1.9361152073	 2.8267438114	-0.432844
O	-0.2222218993	-2.7615822803	 0.6513815409	-0.474514
C	 0.6879618252	-0.4685955759	 1.0396044797	-0.115982
C	 2.0306731171	-0.9675611257	 0.5629409972	 0.163045
O	 2.9992356464	-1.0729835111	 1.2701939708	-0.24972
H	 0.7056002095	 1.7647333697	-0.7035414725	 0.127923
H	-1.0309033144	 1.6608213322	-1.0315367279	 0.126665
H	-0.462648873	 2.0676133463	 0.6073323224	 0.09954
H	-1.8806098768	 0.0917703857	 1.3998403352	 0.089996
H	-2.1432760719	-1.0222055758	 0.0204447541	 0.103369
H	-1.483064848	-2.589051795	 2.9218869286	 0.129834
H	 0.2627383787	-2.4783398712	 3.2020850622	 0.142537
H	-0.7634409481	-1.0482796831	 3.4449064788	 0.117264
H	-0.1934387839	-2.5355474629	-0.2858446673	 0.288079
H	 0.8343092128	 0.215032472	 1.890836176	 0.076726
H	 2.0515859795	-1.2572319866	-0.5124534476	 0.070015
69.5781	84.9882	168.5688	199.1652	211.974	222.6458	262.3785	307.6463	355.689	369.0198	444.9674	462.3777	496.9129	547.0279	604.7926	740.167	843.0006	936.2087	957.0485	988.8455	995.7722	1020.0171	1084.3287	1099.7264	1122.2064	1151.85	1171.0462	1192.5839	1222.8887	1243.8675	1277.0685	1295.0189	1332.1042	1393.0328	1407.3286	1435.4186	1454.8182	1481.3345	1487.0243	1492.965	1498.8108	1513.2414	1828.5662	2871.104	2940.5337	2970.2	2985.9341	3045.34	3056.4604	3061.9954	3103.5097	3117.0332	3128.5084	3791.9062
CN1CC(C)(O)C1C=O	CN1C[C@@](C)(O)[C@H]1C=O	
InChI=1S/C6H11NO2/c1-6(9)4-7(2)5(6)3-8/h3,5,9H,4H2,1-2H3	InChI=1S/C6H11NO2/c1-6(9)4-7(2)5(6)3-8/h3,5,9H,4H2,1-2H3/t5-,6-/m1/s1
