15
gdb 42156	3.83576	1.12944	0.9007	2.2827	76.34	-0.2523	-0.0812	0.1711	1238.3846	0.110725	-416.74857	-416.739793	-416.738849	-416.782709	31.333	
N	 0.0175092528	 1.2113073518	-0.0188391656	-0.495347
C	 0.1047644337	-0.0213054849	 0.2984700557	 0.245192
C	-1.1823120968	-0.8244638486	 0.3932879156	 0.184461
O	-1.1762310081	-2.0168716601	 0.6128466229	-0.29423
C	-2.4115168017	-0.0888427315	 0.1892640717	 0.328206
C	-3.479346982	 0.4455070816	 0.0413495772	-0.40877
N	 1.242640353	-0.7225167938	 0.6635891945	-0.079047
C	 1.7297864852	-1.9137011167	-0.0041544952	-0.20706
C	 2.5023891273	-0.6306260275	-0.0491250223	-0.245639
H	 0.9425542971	 1.6474072005	-0.0547365574	 0.222543
H	-4.4139018846	 0.9335422074	-0.0931375246	 0.21408
H	 2.0435854655	-2.7217015308	 0.6489857342	 0.136584
H	 1.2261542085	-2.2276498129	-0.9135272834	 0.138421
H	 2.5088328814	-0.0794146424	-0.9878200651	 0.127336
H	 3.3867454587	-0.5021366621	 0.5677334419	 0.13327
44.6243	105.861	138.0321	202.8959	218.4349	251.5181	320.162	436.3644	462.3149	507.5693	619.9006	644.6225	715.784	730.6119	807.1076	834.452	838.8597	916.1202	963.369	1039.1092	1055.3155	1129.5998	1137.5937	1145.5033	1170.9388	1175.1154	1313.389	1423.9372	1494.5323	1523.8448	1687.3178	1755.3752	2217.5411	3103.311	3123.7658	3192.541	3214.7628	3443.8697	3496.8311
N=C(C(=O)C#C)N1CC1	[NH][C](C(=O)C#C)N1CC1	
InChI=1S/C6H6N2O/c1-2-5(9)6(7)8-3-4-8/h1,7H,3-4H2	InChI=1S/C6H6N2O/c1-2-5(9)6(7)8-3-4-8/h1,7H,3-4H2
