23
gdb 103753	2.83519	1.06266	0.92512	2.1353	82.	-0.255	0.0788	0.3339	1400.7204	0.202454	-425.418466	-425.407439	-425.406495	-425.45448	40.506	
C	-0.0099307415	 1.1530091139	-0.8237855595	-0.374285
C	-0.0975293052	 0.1862001096	 0.3650055829	-0.261739
C	-1.4472866679	-0.5233696522	 0.4473952503	 0.346859
C	-2.5412066924	 0.3462428899	 1.0453442318	-0.468811
O	-1.8270474036	-1.2539110431	-0.7396196083	-0.341463
C	-1.5315032346	-2.0073166526	 0.4590099455	 0.294057
C	-0.3100313086	-2.9025110905	 0.3723445729	-0.469175
C	-2.7501531117	-2.7410906332	 1.004202082	-0.12885
O	-3.2034907833	-3.7040523979	 0.0644123434	-0.418504
H	 0.976755815	 1.6233575242	-0.8666811316	 0.112375
H	-0.1772335024	 0.6147242813	-1.7605559059	 0.135869
H	-0.7542494101	 1.952995198	-0.7595033737	 0.116924
H	 0.7152779993	-0.5391646964	 0.2938686782	 0.102646
H	 0.057187538	 0.7313985806	 1.3044626324	 0.098858
H	-2.4940595809	 1.3546788949	 0.6224933111	 0.125539
H	-3.5358232633	-0.0481084035	 0.8385093218	 0.130706
H	-2.4155532871	 0.438000315	 2.1297783315	 0.122306
H	 0.4364903922	-2.5063026986	-0.3160654648	 0.128278
H	 0.1499843249	-3.0353853232	 1.3579129053	 0.117691
H	-0.6215409348	-3.8855708864	 0.0075321494	 0.140784
H	-2.4769461314	-3.2972891169	 1.9075398988	 0.108051
H	-3.5538553291	-2.046403905	 1.2714743111	 0.089308
H	-3.3454705414	-3.2224197677	-0.7596559644	 0.292576
65.5473	71.7455	123.4824	142.6955	176.4525	213.9685	246.8921	267.6176	310.8078	351.2379	366.4869	399.1628	447.7675	453.5724	492.4732	644.0212	687.4966	733.5576	784.6824	878.443	880.503	932.3805	965.8411	1002.6939	1035.5056	1052.2847	1063.2603	1091.2437	1136.3869	1157.8847	1181.3957	1226.8289	1260.7328	1301.8564	1356.3216	1373.2203	1399.2376	1405.3813	1409.3216	1426.259	1447.4536	1478.2889	1485.1279	1493.6895	1495.0724	1504.1053	1506.7218	1514.6128	1519.5191	3035.0447	3037.0035	3040.8639	3042.4079	3045.7609	3079.2544	3095.2758	3100.3316	3108.3654	3113.8334	3123.8674	3147.7628	3148.6537	3787.2561
CCC1(C)OC1(C)CO	CC[C@@]1(C)O[C@]1(C)CO	
InChI=1S/C7H14O2/c1-4-6(2)7(3,5-8)9-6/h8H,4-5H2,1-3H3	InChI=1S/C7H14O2/c1-4-6(2)7(3,5-8)9-6/h8H,4-5H2,1-3H3/t6-,7-/m1/s1
