15
gdb 18651	3.15394	2.57279	1.54875	4.39	67.09	-0.2429	-0.0416	0.2013	798.2606	0.120894	-362.67125	-362.664782	-362.663837	-362.702081	24.729	
O	-0.0423290415	 0.0511231934	 0.4894354909	-0.33705
C	-0.0523852172	 1.1818397965	 0.0553178288	 0.352404
C	-1.3018325023	 1.8841060137	-0.3302007987	-0.137093
C	-1.3987644791	 3.2123067627	-0.229571349	-0.053925
C	-0.2340703187	 4.084496868	 0.1717625081	-0.301826
C	 1.1021314742	 3.3828363499	-0.0522348157	-0.015571
C	 1.7956335538	 2.5729462392	 1.0021555385	-0.249105
N	 1.1263814605	 1.9268059757	-0.1176578715	-0.105308
H	-2.1541170526	 1.2536782863	-0.5567887574	 0.116802
H	-2.3530624167	 3.707188453	-0.3944945139	 0.110485
H	-0.2552805626	 5.0129009948	-0.4087537991	 0.124913
H	-0.3606689714	 4.3930272202	 1.2185186888	 0.130724
H	 1.7361327865	 3.8464620371	-0.8052921177	 0.105521
H	 2.8797915212	 2.5044283848	 1.0142332858	 0.128721
H	 1.320501746	 2.4927742345	 1.9773940223	 0.130309
72.7114	208.3981	306.9299	369.0186	436.8704	497.1219	554.3701	669.1441	696.9452	764.7795	824.5191	882.1517	912.2144	932.901	959.8404	1004.7271	1013.8547	1077.5963	1107.8181	1128.1916	1168.3838	1170.8726	1221.7996	1223.5783	1351.7264	1366.2564	1395.4096	1417.3501	1476.5008	1512.2677	1688.395	1789.5348	3016.8414	3064.3856	3105.2602	3122.9655	3155.9454	3193.9439	3204.8607
O=C1C=CCC2CN12	O=C1C=CC[C@H]2CN12	
InChI=1S/C6H7NO/c8-6-3-1-2-5-4-7(5)6/h1,3,5H,2,4H2	InChI=1S/C6H7NO/c8-6-3-1-2-5-4-7(5)6/h1,3,5H,2,4H2/t5-,7?/m0/s1
