19
gdb 74832	2.38966	1.59481	1.06859	3.1197	82.41	-0.223	-0.0106	0.2124	1157.7904	0.159877	-385.92284	-385.914694	-385.913749	-385.955516	31.752	
C	-0.026333246	 1.5496711359	-0.1242953218	-0.472354
C	-0.0479851838	 0.0546725497	 0.0291499717	 0.29093
C	-1.1608085787	-0.6721948382	-0.1044629814	-0.149119
C	-1.1960109936	-2.1534645806	-0.020913482	-0.073444
C	-0.3579956383	-2.956380801	-0.9782198462	-0.295467
C	 0.0601528594	-2.8616423876	 0.4805670902	-0.129466
C	 1.2043177879	-2.0140698023	 0.9054225254	 0.406485
O	 2.0265557752	-2.4079487184	 1.7047846721	-0.334087
C	 1.2840073546	-0.6016668145	 0.3272793425	-0.428393
H	 0.6516858494	 1.8563792776	-0.9316670736	 0.124446
H	-1.0200308962	 1.9469893442	-0.3471802285	 0.12279
H	 0.3413963151	 2.0347847544	 0.7889885458	 0.128034
H	-2.1027509845	-0.1761662979	-0.3246423638	 0.085521
H	-2.1407965321	-2.591989953	 0.283243646	 0.098415
H	-0.7202843157	-3.9236709826	-1.3075899363	 0.126493
H	 0.2178120823	-2.4111123601	-1.7176121673	 0.125606
H	-0.056911992	-3.7569174015	 1.0797133084	 0.10739
H	 1.8851397613	-0.6504582607	-0.5951358548	 0.13449
H	 1.8780137458	-0.0036316234	 1.0261633534	 0.131731
85.005	137.3767	195.4223	236.6231	306.5393	373.7331	438.0948	445.3101	470.9029	540.7869	587.6811	668.7478	757.6971	803.5627	843.4222	862.2571	904.3268	911.7351	963.8772	982.7985	1004.9878	1051.7367	1063.3253	1072.2244	1112.1299	1126.9549	1173.2607	1196.7593	1204.1234	1256.3459	1309.9316	1365.7652	1369.6769	1398.0135	1414.1257	1445.0203	1477.2589	1481.6702	1491.0868	1737.4726	1793.1388	2987.3701	3014.0781	3059.6006	3073.2426	3112.5264	3137.4856	3152.9148	3165.5442	3185.8527	3228.19
CC1=CC2CC2C(=O)C1	CC1=C[C@H]2C[C@H]2C(=O)C1	
InChI=1S/C8H10O/c1-5-2-6-4-7(6)8(9)3-5/h2,6-7H,3-4H2,1H3	InChI=1S/C8H10O/c1-5-2-6-4-7(6)8(9)3-5/h2,6-7H,3-4H2,1H3/t6-,7+/m0/s1
