17
gdb 48796	2.84529	1.4623	1.15312	1.1117	75.03	-0.243	-0.0428	0.2002	1075.6682	0.136078	-417.937588	-417.929753	-417.928809	-417.969935	29.953	
O	-0.1298878441	 0.2097865302	-0.7574269629	-0.285746
C	 0.0662249934	 1.015247293	 0.1286198032	 0.051174
C	 1.2294515098	 1.9038697814	 0.1659244044	 0.155632
N	 2.0848023335	 2.0555922047	-1.0421459558	-0.357725
C	 2.6743998999	 1.4137435753	 0.1183165785	-0.076816
C	 3.1094414236	 2.5080851257	 1.1047210102	-0.295334
C	 1.644260958	 2.9982997906	 1.1355900202	 0.29848
C	 1.0700224018	 4.3477135828	 1.2869416796	-0.294144
N	 0.9732756816	 3.3510718528	 2.3813213303	-0.371805
H	-0.6326681847	 1.1037862189	 0.9877848672	 0.074069
H	 1.7718031442	 1.3201925676	-1.6812018258	 0.253576
H	 2.997114087	 0.379913592	 0.0913539364	 0.122155
H	 3.4139067946	 2.1149423442	 2.0766982002	 0.12559
H	 3.8607053634	 3.2023687761	 0.7216936829	 0.120191
H	 1.7187894591	 5.1918354718	 1.5027071877	 0.127125
H	 0.1773917544	 4.5925366875	 0.7172553888	 0.118495
H	 0.0346988644	 2.9604546156	 2.4178436251	 0.235081
118.5847	140.1566	178.1576	232.1976	299.5577	330.1694	434.3355	481.52	516.0108	592.881	737.9286	802.0248	816.8613	834.3946	884.2701	916.8076	922.9201	968.4085	984.4996	1017.4609	1039.9934	1062.0758	1073.891	1119.1833	1146.7645	1183.5674	1218.1445	1233.2714	1257.3757	1294.1861	1336.8847	1388.8766	1414.7127	1449.922	1473.3384	1514.71	1773.5442	2895.8563	3071.6676	3109.8144	3134.6241	3194.6224	3196.5649	3442.383	3496.3578
O=CC12NC1CC21CN1	O=C[C@]12N[C@H]1C[C@]12CN1	
InChI=1S/C6H8N2O/c9-3-6-4(8-6)1-5(6)2-7-5/h3-4,7-8H,1-2H2	InChI=1S/C6H8N2O/c9-3-6-4(8-6)1-5(6)2-7-5/h3-4,7-8H,1-2H2/t4-,5+,6-/m0/s1
