22
gdb 11134	6.05664	0.87781	0.82837	1.2217	79.08	-0.2606	0.0774	0.338	1453.3247	0.199779	-350.197067	-350.187699	-350.186755	-350.231443	34.332	
C	 0.0539753049	 1.4987278151	 0.1664527844	-0.377282
C	-0.1195364329	-0.0087545951	-0.0463916635	-0.194437
C	 0.6603136514	-0.5415568213	-1.2411162031	 0.067132
C	 2.2166261128	-0.5755628107	-1.1781087518	-0.262218
C	 2.1793963333	-1.9480245183	-1.9032486334	 0.058621
C	 3.1450978476	-3.0230936276	-1.4536388142	-0.096744
O	 2.8410655281	-4.2145649224	-2.1664447198	-0.422817
C	 0.6834173293	-2.0728962438	-1.5073376485	-0.248964
H	 1.1062480323	 1.7579930503	 0.3269732112	 0.116906
H	-0.2950709621	 2.0636815491	-0.7052327591	 0.112468
H	-0.510324939	 1.8479713924	 1.036843096	 0.109809
H	 0.198651382	-0.5470841029	 0.8570665977	 0.086947
H	-1.1847967877	-0.2414614535	-0.1790895241	 0.093012
H	 0.3438526045	-0.0127272457	-2.1489777241	 0.065027
H	 2.7740525738	 0.2372025005	-1.6502095109	 0.093879
H	 2.5659987969	-0.6803926133	-0.1433930349	 0.09027
H	 2.2773771892	-1.8175522451	-2.986193834	 0.076827
H	 4.1816820665	-2.6965138999	-1.6438002621	 0.081138
H	 3.0450990625	-3.1741027333	-0.3653351178	 0.075977
H	 3.4342981926	-4.907531719	-1.8624358843	 0.285181
H	 0.5673377338	-2.6404789742	-0.5765634817	 0.091088
H	-0.0098459899	-2.4777610112	-2.2475855119	 0.098179
61.0166	82.9662	118.2226	195.1208	213.7867	239.0441	263.5347	379.1979	393.0228	418.4943	446.9351	617.34	761.2484	792.9724	818.4861	902.9921	929.4787	949.7492	970.3034	988.6456	1021.9807	1043.5692	1071.3524	1095.9681	1122.6873	1145.7161	1175.1424	1222.568	1227.5333	1243.4499	1264.361	1272.034	1284.1645	1292.4481	1312.8916	1345.6543	1366.934	1398.2739	1411.0324	1462.1748	1476.4021	1485.0448	1499.8849	1500.1993	1507.6144	1520.6104	2949.6028	2975.8072	3007.4389	3020.4533	3029.2718	3030.448	3039.2228	3044.5424	3054.6173	3095.1587	3096.4306	3100.7091	3107.8561	3829.0537
CCC1CC(CO)C1	CC[C@H]1C[C@@H](CO)C1	
InChI=1S/C7H14O/c1-2-6-3-7(4-6)5-8/h6-8H,2-5H2,1H3	InChI=1S/C7H14O/c1-2-6-3-7(4-6)5-8/h6-8H,2-5H2,1H3/t6-,7+
