15
gdb 116662	3.05279	0.86736	0.72573	4.1555	70.86	-0.2649	-0.0459	0.2189	1518.1448	0.109023	-453.945245	-453.935261	-453.934317	-453.982179	32.329	
C	 0.3604332985	 0.9546277415	-0.5936769552	-0.2576
O	-0.1555570209	 0.2965034219	 0.5652879271	-0.19058
C	 0.6240817067	-0.6536857712	 1.0879363903	 0.146192
N	 0.2338309368	-1.2878255258	 2.1100555823	-0.257125
C	 1.0622180171	-2.3317061759	 2.6766147432	-0.183138
C	 0.1914836079	-3.600490507	 2.8349194209	 0.164176
O	 0.5917414029	-4.7202966385	 2.7033539722	-0.214664
C	 2.3261394261	-2.6261920424	 1.9828008347	 0.278607
N	 3.3066664766	-2.7859329068	 1.3930334524	-0.324335
H	 0.5012494118	 0.2488376254	-1.4194290079	 0.141568
H	-0.385595099	 1.6971368016	-0.8761635623	 0.155363
H	 1.3084049999	 1.4577440031	-0.3741502381	 0.14015
H	 1.5795844139	-0.8142368465	 0.5724826789	 0.119644
H	 1.3129984109	-2.0395346405	 3.7102766125	 0.161619
H	-0.8546883393	-3.3469225091	 3.0993697093	 0.120123
35.7137	47.5728	110.2662	113.1197	150.6095	166.3142	218.0423	254.9567	352.672	401.3566	432.1167	525.8917	630.8555	728.6136	763.8989	997.1632	1017.8615	1030.5802	1051.3148	1091.8699	1176.1452	1185.4648	1250.9058	1298.9552	1301.8423	1393.2231	1426.0301	1488.7877	1495.4862	1498.0231	1763.0222	1851.7811	2356.0066	2943.3572	2976.262	3026.812	3047.996	3098.2954	3156.5697
COC=NC(C=O)C#N	COC=N[C@@H](C=O)C#N	
InChI=1S/C5H6N2O2/c1-9-4-7-5(2-6)3-8/h3-5H,1H3	InChI=1S/C5H6N2O2/c1-9-4-7-5(2-6)3-8/h3-5H,1H3/t5-/m1/s1
