22
gdb 22067	3.91115	0.61213	0.59408	1.6747	83.1	-0.2365	0.0185	0.255	1948.3323	0.190352	-441.455057	-441.443683	-441.442738	-441.492654	40.476	
C	 0.0514626758	 1.5434267196	 0.0202424871	-0.406203
C	 0.0092847592	 0.0156741519	 0.0328687363	 0.139848
O	 0.6927510277	-0.5101648815	 1.17044513	-0.427593
C	-1.422518815	-0.5295376119	-0.0617716348	-0.193952
C	-1.4664981028	-2.065429642	-0.1501768195	-0.274333
C	-2.8646637701	-2.6214884764	-0.1142030445	 0.355707
C	-3.683246604	-2.5215938831	 1.1467176955	-0.467016
N	-3.28955925	-3.1623814031	-1.192420257	-0.168584
O	-4.6094314158	-3.6325266619	-1.0499897916	-0.403517
H	 1.0827203744	 1.8953499493	 0.1101621922	 0.12502
H	-0.3747214319	 1.9452286001	-0.9045442425	 0.118631
H	-0.5256978342	 1.955686198	 0.8580291931	 0.105379
H	 0.5847354926	-0.3633787921	-0.8214736405	 0.091219
H	 0.2819948548	-0.1311325116	 1.9559016359	 0.274972
H	-1.9870412577	-0.1817005078	 0.815884301	 0.085151
H	-1.9190061305	-0.0978055054	-0.9393032327	 0.105899
H	-0.986528839	-2.3933127048	-1.0770558045	 0.1124
H	-0.8860193462	-2.4738648212	 0.6858589248	 0.117374
H	-4.5446305667	-1.8607905181	 1.0005746673	 0.144064
H	-4.0888197387	-3.5028122556	 1.4104197	 0.148481
H	-3.0877810029	-2.1426542904	 1.9798461712	 0.113174
H	-4.7732692889	-4.0294516821	-1.9115452268	 0.303878
43.4701	54.5066	83.7957	103.2693	144.5741	220.2736	240.8269	284.723	298.4137	322.0261	361.8837	383.2315	425.919	467.0727	483.1281	555.6709	652.0352	774.438	815.2948	857.2521	933.9112	951.1293	976.8664	1017.6736	1026.498	1043.9177	1081.6665	1106.0287	1144.719	1181.8181	1259.6054	1279.1622	1294.1271	1339.3609	1351.3242	1386.6311	1397.8314	1399.3304	1403.7552	1420.8563	1470.0963	1476.0272	1484.6505	1488.0585	1493.4071	1495.8597	1727.9568	3000.4269	3021.4005	3031.8473	3038.7491	3042.5263	3057.2055	3092.7155	3097.3481	3100.7753	3118.8476	3131.7343	3792.8002	3824.5451
CC(O)CCC(C)=NO	C[C@@H](O)CCC(=NO)C	
InChI=1S/C6H13NO2/c1-5(7-9)3-4-6(2)8/h6,8-9H,3-4H2,1-2H3	InChI=1S/C6H13NO2/c1-5(7-9)3-4-6(2)8/h6,8-9H,3-4H2,1-2H3/t6-/m1/s1
