19
gdb 80240	2.2999	1.598	1.27213	2.1441	75.29	-0.2324	-0.0089	0.2235	1070.6419	0.159705	-423.032075	-423.023961	-423.023017	-423.064325	32.142	
C	-0.1438184139	 1.6473061583	 0.025918294	-0.443791
C	 0.0168397902	 0.1352756444	 0.0016413886	 0.0366
C	 0.8311039986	-0.6085781807	-1.1123006775	-0.064235
C	 2.2253358056	 0.0348613829	-1.0199626886	-0.348377
C	 2.3472567299	 0.0506909608	 0.522577478	 0.427409
O	 3.2572628915	 0.4570600436	 1.1949120866	-0.340102
C	 1.040134979	-0.590122018	 0.9524590453	-0.195351
C	 0.9773111235	-1.7710510505	-0.0973739953	 0.133745
O	-0.1788610167	-2.5690596266	-0.0460120846	-0.440451
H	 0.8077539749	 2.1829396129	-0.0393046453	 0.126324
H	-0.7739080707	 1.9808501651	-0.8059672989	 0.12054
H	-0.6316442725	 1.9638108767	 0.9541068376	 0.123895
H	-0.9530924249	-0.3505378702	 0.1095090042	 0.101412
H	 0.412946606	-0.7906728341	-2.1020092185	 0.075308
H	 3.0230304332	-0.5701570572	-1.4636339692	 0.123929
H	 2.2907748923	 1.0403750775	-1.4432545019	 0.128456
H	 0.8785186467	-0.7319298861	 2.0202333548	 0.072183
H	 1.8805614074	-2.3905984187	-0.18446823	 0.073559
H	-0.11573669	-3.1412572801	 0.7254165805	 0.28895
117.9716	193.2909	220.9953	264.097	294.4052	318.66	331.9613	451.7234	470.3621	553.5321	621.131	634.5875	712.3526	775.2642	808.0438	877.0907	895.7966	940.0709	957.617	986.6759	1042.3303	1061.6083	1073.7253	1103.3292	1125.6307	1152.5701	1166.833	1175.3131	1205.61	1227.9791	1259.7901	1283.326	1304.4892	1331.1303	1394.082	1417.7177	1435.6018	1465.4375	1496.3238	1501.9877	1862.7063	3003.4021	3034.0282	3058.2377	3095.3777	3099.2833	3108.3332	3118.3264	3122.3935	3132.7583	3817.2456
CC1C2CC(=O)C1C2O	C[C@H]1[C@H]2CC(=O)[C@@H]1[C@H]2O	
InChI=1S/C7H10O2/c1-3-4-2-5(8)6(3)7(4)9/h3-4,6-7,9H,2H2,1H3	InChI=1S/C7H10O2/c1-3-4-2-5(8)6(3)7(4)9/h3-4,6-7,9H,2H2,1H3/t3-,4+,6+,7-/m0/s1
