13
gdb 27388	2.10669	1.8892	0.99669	5.6526	64.27	-0.2355	-0.0146	0.2209	1078.8981	0.090548	-489.950545	-489.943097	-489.942153	-489.982487	28.286	
N	 0.1388221789	 1.3328659065	 0.174123852	-0.57327
C	-0.0383939412	-0.0181418998	 0.0611994208	 0.454512
C	-1.1908941547	-0.7161283301	 0.0216854134	-0.34879
C	-1.1709105258	-2.17370605	-0.0202673896	 0.387286
O	-2.1643113111	-2.8664032396	-0.05081303	-0.359589
N	 0.1258042868	-2.7646940235	-0.0305664313	-0.433992
C	 1.1408781737	-2.0048689143	-0.0022497729	 0.496239
O	 2.3964085515	-2.4478721342	-0.0161827055	-0.382108
O	 1.1753292124	-0.6514001167	 0.0448171407	-0.220962
H	 1.0226326531	 1.6881551357	-0.1588635446	 0.271433
H	-0.6591853542	 1.9033371411	-0.0558556335	 0.27422
H	-2.1461191017	-0.2092813026	 0.0272953479	 0.110193
H	 2.3339516123	-3.4131135725	-0.0495460872	 0.324827
131.5957	178.6627	199.1696	313.8255	352.5984	381.7834	488.1149	517.2536	551.1386	560.1244	608.5313	652.0654	680.0522	729.827	772.8644	836.9122	919.6068	961.4608	1036.5564	1120.0187	1218.6667	1244.9448	1286.4313	1415.8332	1452.2571	1622.3536	1666.5025	1751.2754	1801.4603	3226.5807	3586.073	3700.6706	3780.7897
NC1=CC(=O)N=C(O)O1	Nc1cc(=O)nc(O)o1	
InChI=1S/C4H4N2O3/c5-2-1-3(7)6-4(8)9-2/h1H,5H2,(H,6,7,8)	InChI=1S/C4H4N2O3/c5-2-1-3(7)6-4(8)9-2/h1H,5H2,(H,6,7,8)
