17
gdb 70562	2.83452	1.48863	1.16317	3.472	68.04	-0.2612	0.0111	0.2723	1056.1192	0.136246	-458.988351	-458.980506	-458.979562	-459.020594	30.489	
O	-0.0743266865	 1.406958574	-0.2631873881	-0.465494
C	-0.0290338601	 0.0301785688	-0.0236657676	 0.395377
C	-0.2768663787	-0.9164314285	-1.1764568062	-0.364153
C	-1.3268504323	-0.698797292	-0.1026030569	-0.080446
C	-1.5710410191	-1.7482773986	 0.9558823752	-0.101111
O	-0.3921110954	-2.484974278	 1.3168784568	-0.224672
C	 0.8058627225	-1.8651618132	 1.4748181499	 0.401938
O	 1.7428060958	-2.4970063267	 1.8774018726	-0.322849
C	 0.8825433681	-0.3884956756	 1.1142155188	-0.41663
H	 0.7533252104	 1.6647480069	-0.6852554656	 0.285815
H	-0.4729727661	-0.4587214576	-2.1390478988	 0.121522
H	 0.2502442947	-1.8640208079	-1.2163287536	 0.13521
H	-2.2017104128	-0.118557518	-0.3766398172	 0.110537
H	-1.9915928455	-1.285257364	 1.8588161555	 0.119906
H	-2.2755385708	-2.5102399957	 0.6113481262	 0.131557
H	 1.934222309	-0.1708514993	 0.9064799278	 0.130417
H	 0.6057915568	 0.1918127953	 2.0048142212	 0.143075
94.7893	164.1266	236.3629	294.047	317.87	361.126	389.671	461.493	487.0512	530.4692	603.9056	705.3308	735.5901	781.7024	836.699	907.5955	926.8215	958.4535	1009.3484	1028.4588	1049.63	1093.9849	1105.3897	1133.8308	1169.7273	1211.9602	1235.7313	1277.255	1285.5209	1341.3334	1344.315	1414.633	1424.466	1464.8192	1502.8508	1515.6022	1850.0766	3017.4064	3029.9595	3089.2535	3091.4551	3134.8818	3173.1374	3227.6811	3789.092
OC12CC1COC(=O)C2	O[C@]12C[C@H]1COC(=O)C2	
InChI=1S/C6H8O3/c7-5-2-6(8)1-4(6)3-9-5/h4,8H,1-3H2	InChI=1S/C6H8O3/c7-5-2-6(8)1-4(6)3-9-5/h4,8H,1-3H2/t4-,6-/m0/s1
