12
gdb 131028	2.9238	1.69648	1.07356	3.6649	65.63	-0.2722	-0.1172	0.155	1000.1557	0.078257	-468.838188	-468.831137	-468.830193	-468.870529	25.046	
O	-0.0147632811	-0.0779215939	-0.0017192748	-0.243284
C	-0.0064821676	 1.1156528631	 0.0069475247	 0.188175
N	 1.2034771196	 1.8901754613	-0.0007678639	-0.158117
N	 2.350274224	 1.1882007067	-0.0186550778	-0.112918
C	 3.443928254	 1.879378943	-0.0254057	-0.006908
C	 3.4212923238	 3.3168691166	-0.0140919844	 0.015589
N	 2.3311786716	 4.0096089021	 0.0031552897	-0.293343
C	 1.1137817218	 3.3231826827	 0.0108346046	 0.497169
O	 0.0402923386	 3.8710900892	 0.0282206091	-0.346945
H	-0.8805640378	 1.7765418725	 0.0219844616	 0.162501
H	 4.3737460289	 1.3220197677	-0.0398065193	 0.15091
H	 4.3654492542	 3.8625482292	-0.0202440297	 0.147172
54.4838	133.6041	246.685	250.2205	397.5278	401.9079	541.3898	556.0248	592.9288	649.1067	810.0905	840.1272	888.4634	907.4652	1010.4961	1022.7277	1047.649	1089.5408	1141.9856	1236.2961	1369.424	1410.6833	1413.2399	1573.0667	1672.317	1814.435	1850.6852	3094.4687	3130.7595	3202.8877
O=CN1N=CC=NC1=O	O=Cn1nccnc1=O	
InChI=1S/C4H3N3O2/c8-3-7-4(9)5-1-2-6-7/h1-3H	InChI=1S/C4H3N3O2/c8-3-7-4(9)5-1-2-6-7/h1-3H
