15
gdb 130955	6.51887	0.7219	0.68753	3.6121	67.61	-0.2755	-0.0508	0.2247	1538.8524	0.112528	-450.10965	-450.101399	-450.100455	-450.144871	27.648	
O	-0.2732304502	 0.019532683	-0.15919102	-0.220174
C	-0.0063346738	 1.170863153	 0.0592271033	 0.154378
C	 1.3576660429	 1.7932944449	-0.1648032289	-0.277087
C	 1.2747357819	 2.9818580623	-1.1368095972	-0.178354
N	 2.5297641323	 3.7126154856	-1.2129356829	 0.040699
C	 3.498196954	 3.7179933405	-2.1470066565	 0.05953
N	 4.4677020487	 4.5155964769	-1.7564601875	-0.218425
N	 4.0737760729	 5.0025115193	-0.5502348933	-0.086715
N	 2.9197066715	 4.5311600306	-0.2121332224	-0.130525
H	-0.7736194636	 1.8756531143	 0.4559119091	 0.086707
H	 1.723458488	 2.1701436748	 0.7989018932	 0.159588
H	 2.0460930619	 1.0275536859	-0.5301364007	 0.138021
H	 1.0280238582	 2.6457463337	-2.1469482345	 0.148754
H	 0.5039243502	 3.6888859838	-0.8173528669	 0.155616
H	 3.4591178652	 3.1541622414	-3.064805105	 0.167987
35.1443	63.2189	66.3328	114.5934	269.7198	326.2461	360.9138	519.3332	675.884	732.4641	746.0635	779.3408	860.3656	864.6988	983.4737	995.9255	1038.2788	1073.4826	1094.3335	1125.4747	1172.0968	1194.8799	1257.7482	1281.9902	1314.4617	1344.2724	1398.545	1429.5916	1465.3186	1466.4441	1486.8362	1514.7894	1842.1414	2866.4976	3040.852	3069.0518	3110.5034	3128.9566	3283.6525
O=CCCN1C=NN=N1	O=CCCn1cnnn1	
InChI=1S/C4H6N4O/c9-3-1-2-8-4-5-6-7-8/h3-4H,1-2H2	InChI=1S/C4H6N4O/c9-3-1-2-8-4-5-6-7-8/h3-4H,1-2H2
