19
gdb 107117	3.54903	1.11299	1.07865	2.588	76.22	-0.2022	0.0627	0.265	1213.9184	0.158237	-419.092918	-419.08422	-419.083276	-419.126111	33.556	
C	-0.1051536136	 1.5215961573	 0.0019944004	-0.509542
C	 0.0920294564	 0.0402826103	 0.0479952446	 0.349601
N	-0.7757864985	-0.8808495265	 0.8168683666	-0.348488
C	 0.6904612418	-0.8575702138	 1.0635658161	-0.176566
C	 1.4139597635	-1.6678816157	-0.0613369258	 0.330335
C	 2.7808590863	-2.2561862545	 0.0531072402	-0.18244
O	 2.8154943973	-3.3954740039	 0.9008585771	-0.413511
N	 0.3764128744	-2.2174770357	-0.9795484828	-0.35522
C	 0.7906972296	-0.796479261	-1.0834904293	-0.191623
H	 0.7917845928	 2.0285263938	-0.3719244837	 0.12454
H	-0.939425659	 1.7922076031	-0.6562815928	 0.131693
H	-0.3205996201	 1.9183727413	 1.0000038764	 0.119999
H	-1.194212551	-0.3203838392	 1.5613961499	 0.223117
H	 1.1039338661	-0.6429156589	 2.0409260062	 0.096686
H	 3.1628101899	-2.4858336916	-0.9566508754	 0.082136
H	 3.4720474643	-1.5343431892	 0.5039360137	 0.112438
H	 2.0982997811	-3.9790332795	 0.6300958428	 0.290717
H	 0.8846101961	-2.705277327	-1.7209512821	 0.221518
H	 1.2037364225	-0.3908185094	-1.999284642	 0.09461
85.4951	111.5318	209.6469	212.0899	282.7972	291.2557	358.1558	387.6427	441.1392	458.6512	554.9051	649.5954	684.8584	788.6057	800.8925	839.7281	874.254	912.8313	929.5205	939.3836	976.0527	1002.3904	1042.4305	1054.3692	1066.0772	1089.6396	1110.9578	1143.4637	1195.9599	1236.3868	1261.1211	1289.9706	1347.0054	1369.7796	1398.2093	1414.3864	1442.0844	1451.0372	1481.2441	1496.5838	1498.3667	2954.7868	3020.0663	3054.5311	3080.909	3093.372	3186.1044	3195.3201	3435.4447	3450.0222	3807.0759
CC12NC1C1(CO)NC21	C[C@]12N[C@H]1[C@@]1(CO)N[C@@H]21	
InChI=1S/C6H10N2O/c1-5-3(7-5)6(2-9)4(5)8-6/h3-4,7-9H,2H2,1H3	InChI=1S/C6H10N2O/c1-5-3(7-5)6(2-9)4(5)8-6/h3-4,7-9H,2H2,1H3/t3-,4+,5+,6-/m1/s1
