14
gdb 133157	2.34779	1.83281	1.03597	5.507	66.71	-0.2411	-0.0452	0.1958	1048.5928	0.100252	-477.998947	-477.991194	-477.99025	-478.031396	28.651	
C	 0.0331294843	 1.5329846881	 0.0347150613	-0.548022
C	 0.0081728088	 0.0293277262	 0.0357854993	-0.004429
C	-0.1520696812	-0.7357325872	-1.1241493548	 0.323001
F	-0.2881193919	-0.0877570154	-2.2792645156	-0.064865
N	-0.1849964805	-2.0452407708	-1.2110547024	-0.268282
N	-0.0540678406	-2.7569631127	-0.0876861622	-0.201901
C	 0.1031949512	-2.1327433344	 1.0673092558	-0.033998
C	 0.1419065927	-0.7338686286	 1.1879735963	 0.321514
O	 0.3073671073	-0.2098476477	 2.420587744	-0.419666
H	 0.9831014337	 1.9202540618	 0.4239834058	 0.143945
H	-0.0900815016	 1.9161116492	-0.9779411028	 0.166704
H	-0.7750199274	 1.9495739553	 0.6489844757	 0.14389
H	 0.2050222866	-2.7553988428	 1.9500732839	 0.132999
H	 0.3172423886	 0.7527824091	 2.3711104257	 0.309109
90.3384	137.1889	241.1916	280.0915	286.0852	340.7509	395.3008	490.9818	538.3442	551.9481	581.3867	660.7654	695.1975	781.4307	853.9549	930.5542	945.2679	1056.349	1108.9539	1141.7863	1199.7421	1245.0687	1288.2769	1367.3574	1410.4009	1427.6047	1485.9488	1495.474	1495.874	1605.7812	1635.0335	3020.0258	3068.4494	3153.1624	3190.5757	3808.8198
CC1=C(F)N=NC=C1O	Cc1c(F)nncc1O	
InChI=1S/C5H5FN2O/c1-3-4(9)2-7-8-5(3)6/h2H,1H3,(H,8,9)	InChI=1S/C5H5FN2O/c1-3-4(9)2-7-8-5(3)6/h2H,1H3,(H,8,9)
