24
gdb 119055	1.8044	1.19869	0.81903	1.4563	86.4	-0.24	0.065	0.3051	1533.8642	0.215928	-405.528375	-405.517347	-405.516403	-405.564684	40.221	
C	-2.2015597286	 0.5527940782	-2.8390621122	-0.386457
C	-1.4854524863	-0.5174314934	-2.0102656157	-0.18232
C	-2.3931664109	-1.7072223999	-1.6591740763	-0.240514
C	-1.744573824	-2.7256011804	-0.7347964209	 0.297558
C	-0.4710532703	-3.3871524734	-1.2616489187	-0.161149
O	 0.7198654566	-2.7159195184	-0.8604366129	-0.415695
N	-1.7261291199	-2.3608921806	 0.6961233511	-0.367562
C	-2.5397707826	-3.5068579716	 0.2643612058	-0.042107
C	-4.0349904522	-3.4167278613	 0.4598955508	-0.405725
H	-1.5347025505	 1.3870915297	-3.0775925198	 0.112777
H	-2.5715238515	 0.1404787816	-3.784391665	 0.114883
H	-3.0618943108	 0.9577604416	-2.295404149	 0.119912
H	-0.6089854411	-0.868125912	-2.5739565525	 0.08778
H	-1.1134050071	-0.0748295596	-1.0778221002	 0.115152
H	-3.2997315166	-1.3197347924	-1.185691023	 0.102905
H	-2.7104475896	-2.2097905294	-2.5837352788	 0.090941
H	-0.3693448458	-4.3975129515	-0.8538170741	 0.108049
H	-0.5239934704	-3.4806355889	-2.3570876992	 0.091311
H	 0.6818132668	-1.8149210948	-1.1962213426	 0.287141
H	-0.8427325431	-2.6597229713	 1.1040275923	 0.234019
H	-2.1374961126	-4.4969394674	 0.4815628145	 0.076173
H	-4.4018330621	-2.3995562841	 0.3102387469	 0.127896
H	-4.5627812436	-4.0849442295	-0.2295917527	 0.114125
H	-4.2981671737	-3.7138842913	 1.4809496623	 0.120907
70.6503	82.5326	116.3588	126.018	168.1575	187.9285	243.0648	245.7433	304.2777	328.252	335.3128	378.3527	450.468	497.4668	578.1433	737.2846	754.6903	842.5858	864.0137	882.9277	915.1657	949.4225	971.3438	1021.2319	1041.2194	1054.8252	1057.704	1100.658	1109.0319	1120.2486	1157.0527	1199.7936	1246.6286	1259.0957	1294.0114	1306.9541	1337.5122	1364.2714	1376.7358	1397.8375	1408.8226	1412.8154	1427.8823	1461.9087	1471.1751	1490.6019	1495.3189	1498.912	1501.9563	1505.1463	1511.585	2988.4639	3000.4829	3012.9025	3030.4689	3034.9846	3049.7129	3076.5412	3087.4592	3092.7743	3095.1289	3099.4005	3103.6422	3133.406	3490.8945	3824.2822
CCCC1(CO)NC1C	CCC[C@@]1(CO)N[C@H]1C	
InChI=1S/C7H15NO/c1-3-4-7(5-9)6(2)8-7/h6,8-9H,3-5H2,1-2H3	InChI=1S/C7H15NO/c1-3-4-7(5-9)6(2)8-7/h6,8-9H,3-5H2,1-2H3/t6-,7-/m0/s1
