22
gdb 99164	3.49614	0.82328	0.76428	2.8327	83.81	-0.2223	-0.0085	0.2138	1610.321	0.192587	-404.344199	-404.334099	-404.333155	-404.381026	35.789	
C	 0.7580793346	 1.3596161314	 0.0827233629	-0.378585
C	 0.9703085285	 0.0161717383	-0.6098434822	-0.265912
C	-0.2584006608	-0.4748916218	-1.3574954865	 0.368441
O	-1.2678498774	 0.1849470755	-1.4544058238	-0.301165
C	-0.1938293292	-1.8842108593	-1.9577646088	-0.255471
N	 1.1023910252	-2.235434153	-2.4902649513	-0.072108
C	 1.4879869234	-1.7332522495	-3.8283993368	-0.161198
C	 2.1905394134	-3.0848708664	-4.0960497876	-0.225217
C	 1.3405833947	-3.6292544221	-2.9225697468	-0.155574
H	 0.4769110044	 2.1304007584	-0.6393889589	 0.130013
H	-0.0480848602	 1.2993576661	 0.8189280857	 0.126459
H	 1.6700516776	 1.6797176578	 0.5945745464	 0.106657
H	 1.8007267014	 0.0578776396	-1.3258127273	 0.132678
H	 1.2692041336	-0.7671765296	 0.0995962262	 0.119131
H	-0.4219095395	-2.5782976186	-1.13529274	 0.122472
H	-1.0155673816	-1.9707305129	-2.6911999998	 0.099165
H	 0.6207409955	-1.5762314997	-4.4906353296	 0.093122
H	 2.0961392288	-0.8224050865	-3.8258627292	 0.10239
H	 2.0391052669	-3.5401965591	-5.0745734628	 0.108175
H	 3.2570158073	-3.0582977352	-3.8663666232	 0.115205
H	 1.8267069482	-4.2652696339	-2.1752233793	 0.103008
H	 0.4262963952	-4.1325957194	-3.2766067373	 0.088314
30.0498	57.4075	78.3342	107.8792	174.0865	189.5633	259.1482	315.9814	348.6073	421.4744	476.5036	620.4852	683.7856	743.4191	760.1352	804.8333	847.5266	919.0669	930.6031	940.873	997.5574	1000.9361	1045.6018	1079.8735	1124.8869	1134.3647	1138.5484	1172.8343	1209.4345	1215.4787	1233.8784	1258.5404	1269.4221	1278.8823	1300.5173	1341.415	1368.0498	1372.9336	1411.8024	1438.0162	1462.0817	1488.3176	1492.091	1497.7326	1506.2563	1533.0511	1808.1061	2946.1076	2967.5421	2976.2181	3022.8598	3032.4782	3049.0334	3056.8938	3057.6236	3059.4179	3088.874	3119.0116	3124.4876	3145.0651
CCC(=O)CN1CCC1	CCC(=O)CN1CCC1	
InChI=1S/C7H13NO/c1-2-7(9)6-8-4-3-5-8/h2-6H2,1H3	InChI=1S/C7H13NO/c1-2-7(9)6-8-4-3-5-8/h2-6H2,1H3
