17
gdb 44853	3.25862	1.64385	1.4762	1.8757	69.89	-0.2407	-0.0187	0.2221	918.217	0.138597	-421.838423	-421.832052	-421.831108	-421.869049	26.614	
O	 0.015116948	 0.0276600565	 0.0468637421	-0.323128
C	-0.0020454933	 1.2283752669	 0.0256708128	 0.426044
C	-1.2564097527	 2.1362283756	 0.0211789525	-0.329375
C	-0.6320395018	 3.5525398414	 0.0367464328	-0.080102
C	 0.6200896218	 3.3382017213	-0.8496170427	-0.240798
C	 1.2066280291	 2.1855935743	-0.0019875688	-0.166233
C	 1.1734812481	 2.7979058398	 1.4092934357	 0.038041
O	 1.3186459805	 4.2218036532	 1.4680793236	-0.256404
C	-0.0043785921	 3.6772013319	 1.4302139982	 0.05495
H	-1.8374043129	 1.9462749622	-0.887497194	 0.130935
H	-1.9009835404	 1.9094535449	 0.8760504915	 0.126693
H	-1.3015442646	 4.3598400677	-0.2610186948	 0.077073
H	 0.3643427274	 3.0244064349	-1.8649159821	 0.103929
H	 1.2739004627	 4.2075067618	-0.8847367075	 0.131105
H	 2.138289939	 1.7199064065	-0.3171032545	 0.086637
H	 1.5344568475	 2.2421619955	 2.2682204119	 0.115289
H	-0.6155350961	 3.8406104056	 2.3130939833	 0.105346
120.8925	298.6521	341.1693	431.8951	465.2724	525.3968	560.4769	597.6384	705.652	774.5642	810.0761	822.5648	862.4703	898.2837	918.3542	927.6806	944.6287	948.9848	990.5799	1011.8736	1031.5395	1099.8785	1119.2916	1141.1592	1153.1754	1176.6915	1218.5835	1250.0029	1265.6182	1287.2048	1297.0633	1314.4769	1334.7603	1410.349	1456.3006	1493.8824	1857.7322	3053.3918	3078.2255	3097.2324	3110.2424	3141.4521	3155.3523	3158.6992	3177.7203
O=C1CC2CC1C1OC21	O=C1C[C@@H]2C[C@H]1[C@H]1O[C@@H]21	
InChI=1S/C7H8O2/c8-5-2-3-1-4(5)7-6(3)9-7/h3-4,6-7H,1-2H2	InChI=1S/C7H8O2/c8-5-2-3-1-4(5)7-6(3)9-7/h3-4,6-7H,1-2H2/t3-,4+,6-,7+/m0/s1
