19
gdb 15656	3.31114	1.6878	1.22957	1.6637	71.45	-0.2434	0.0247	0.2681	1026.5825	0.166012	-365.08891	-365.080585	-365.07964	-365.122432	30.383	
C	 0.0367867842	 1.612926167	 0.0073991153	-0.384089
C	 0.0556995018	 0.0827123213	 0.0521239955	-0.176738
C	 0.6836247314	-0.5267467252	-1.2065293111	 0.014936
N	 2.1075772349	-0.1446610808	-1.3352992091	-0.273306
C	 2.7374131695	-1.2154366799	-1.5765829465	 0.115797
O	 2.0785615979	-2.3928433812	-1.6514854944	-0.233159
C	 0.6907486615	-2.0908612883	-1.3103982293	 0.085865
C	 0.3208671502	-2.8908822936	-0.0694016727	-0.398889
H	 1.0501486719	 2.0054443837	-0.105992441	 0.143883
H	-0.5590240243	 1.9755430857	-0.8379223688	 0.110037
H	-0.396699573	 2.026732124	 0.9228954479	 0.107061
H	 0.6129129298	-0.2526402117	 0.9340485906	 0.100782
H	-0.9677716643	-0.2973628124	 0.1602582311	 0.09271
H	 0.1545628406	-0.1116253291	-2.0751422991	 0.084723
H	 3.8074990126	-1.2920928699	-1.7388110977	 0.136988
H	 0.086200054	-2.4268535926	-2.1579036254	 0.093563
H	 0.9324590641	-2.6008444347	 0.7891339616	 0.129433
H	-0.7315036389	-2.7409034998	 0.1883170413	 0.12295
H	 0.4775090561	-3.9566316024	-0.2564514879	 0.127453
32.1687	106.9547	191.5635	221.696	251.0023	300.6028	330.194	427.1058	466.434	574.2919	724.0359	764.9194	813.0526	854.0659	875.698	947.1752	966.4288	970.2364	1042.7496	1057.9353	1068.8529	1113.6967	1138.1469	1161.0505	1169.0059	1282.7559	1303.5636	1314.6978	1339.0179	1356.4964	1378.9035	1394.6767	1408.2798	1413.4489	1476.4449	1491.7974	1495.3244	1498.7391	1509.9375	1710.3313	3002.4328	3027.0679	3036.1393	3048.0222	3061.404	3068.2698	3100.6722	3120.7892	3126.3381	3128.8195	3207.5423
CCC1N=COC1C	CC[C@H]1N=CO[C@H]1C	
InChI=1S/C6H11NO/c1-3-6-5(2)8-4-7-6/h4-6H,3H2,1-2H3	InChI=1S/C6H11NO/c1-3-6-5(2)8-4-7-6/h4-6H,3H2,1-2H3/t5-,6+/m0/s1
