17
gdb 68969	2.57916	1.64598	1.21559	5.2158	78.15	-0.2512	-0.0202	0.231	1045.7651	0.136643	-380.876516	-380.868526	-380.867582	-380.908753	30.832	
C	-0.0261627901	 1.5202798595	-0.0496895471	-0.462373
C	-0.0616611626	 0.0187070399	 0.0639478356	 0.255283
C	-1.3621159881	-0.731668016	-0.2490283061	-0.339013
C	-1.3152839893	-1.9564176515	 0.6363792149	-0.084677
C	-0.2526859272	-1.9519563521	 1.4438183195	-0.146483
C	 0.6200801087	-0.7661216886	 1.1694639638	 0.129347
N	 1.1964997433	-0.6779565813	-0.2008826974	-0.378659
C	 1.3941454895	-0.1705379268	 2.2267046836	 0.247011
N	 1.9898715614	 0.305389189	 3.0960456337	-0.349493
H	 0.9384598334	 1.908832104	 0.2828993564	 0.150714
H	-0.17431264	 1.8253325144	-1.0915064215	 0.127557
H	-0.8170156715	 1.976347718	 0.5540701484	 0.127063
H	-2.2361461366	-0.1079648327	-0.0220714864	 0.127068
H	-1.4339005535	-0.9847673077	-1.3149787251	 0.124463
H	-2.0577917916	-2.7438351763	 0.5846746229	 0.114222
H	 0.002750732	-2.6986656073	 2.1846741411	 0.123367
H	 1.0449576823	-1.5706449543	-0.6684845664	 0.234602
129.1518	148.0624	177.8401	223.779	311.3345	380.1442	396.6904	478.1059	524.1326	561.659	595.4038	651.3528	734.8981	746.779	780.4596	878.7539	934.0365	949.9873	961.8633	973.234	1051.1014	1077.1684	1089.8176	1117.7089	1151.1445	1187.5602	1244.6868	1270.3489	1323.1127	1373.3633	1402.4807	1426.0535	1469.3278	1484.987	1492.7883	1663.5388	2357.2183	3024.1886	3038.7809	3053.719	3102.2059	3135.6858	3201.5418	3228.44	3474.9081
CC12CC=CC1(N2)C#N	C[C@]12CC=C[C@]1(N2)C#N	
InChI=1S/C7H8N2/c1-6-3-2-4-7(6,5-8)9-6/h2,4,9H,3H2,1H3	InChI=1S/C7H8N2/c1-6-3-2-4-7(6,5-8)9-6/h2,4,9H,3H2,1H3/t6-,7-/m0/s1
