17
gdb 83494	2.18999	1.9393	1.51702	3.3337	66.87	-0.2387	-0.0141	0.2246	936.4852	0.137232	-458.981965	-458.974644	-458.9737	-459.013539	29.024	
O	-0.0603072472	 1.40499462	-0.0426594564	-0.43496
C	 0.0010281162	-0.0022964956	 0.0184728596	 0.108056
C	 0.3448480115	-0.609167832	 1.4036948895	 0.050043
C	-0.7527836031	-0.0250684195	 2.3061176428	-0.332971
C	-1.9635272035	-0.0500411466	 1.3504352078	 0.439348
O	-3.0966806358	 0.2582702076	 1.5984441225	-0.328238
C	-1.4147946294	-0.6018441314	 0.0249688775	-0.175757
C	-1.057873172	-2.0766497138	 0.3196635144	-0.099523
O	 0.0889906264	-2.0016829715	 1.1934718017	-0.277829
H	 0.8364276056	 1.7522943701	-0.0019572591	 0.291375
H	 0.6348357889	-0.4259385782	-0.7709222972	 0.081338
H	 1.370284041	-0.4960417254	 1.7580573548	 0.079265
H	-0.9343880169	-0.6255406482	 3.2004398223	 0.133631
H	-0.547567646	 1.0056891842	 2.6083867263	 0.134256
H	-2.0538503553	-0.4371404082	-0.8398466718	 0.096565
H	-1.8693888475	-2.6225151583	 0.8136364334	 0.122449
H	-0.7849380528	-2.6143034132	-0.5963441482	 0.112953
112.1388	224.9828	246.1794	303.8814	315.7858	392.0659	453.0247	514.8533	565.8845	630.6796	683.1751	776.5591	795.6141	865.8653	901.4184	939.015	950.6316	969.5358	1006.4463	1031.0713	1057.1657	1123.2486	1138.2124	1143.9798	1175.5665	1194.8402	1213.4978	1251.62	1278.6639	1302.0451	1314.1477	1346.0301	1369.0214	1423.7367	1434.3075	1529.8124	1867.6425	3023.509	3028.0221	3065.686	3071.269	3111.1095	3125.3983	3151.0904	3819.5744
OC1C2CC(=O)C1CO2	O[C@H]1[C@H]2CC(=O)[C@@H]1CO2	
InChI=1S/C6H8O3/c7-4-1-5-6(8)3(4)2-9-5/h3,5-6,8H,1-2H2	InChI=1S/C6H8O3/c7-4-1-5-6(8)3(4)2-9-5/h3,5-6,8H,1-2H2/t3-,5+,6+/m0/s1
