16
gdb 25601	4.03107	0.9944	0.82976	1.9815	71.79	-0.1934	-0.0265	0.167	1317.9741	0.125278	-434.100055	-434.09174	-434.090796	-434.134097	30.034	
O	 0.9098932502	 1.0996838578	 1.2794407797	-0.242465
C	 0.5673709567	 1.7478995416	 0.3257125826	 0.174036
C	 1.0982878353	 1.5426333556	-1.0897618505	-0.261332
N	 1.190768578	 2.7994415019	-1.7967192285	-0.38505
C	 2.2818831663	 3.6163872764	-1.5123599289	 0.325882
C	 3.1238486968	 3.5938041651	-0.4222896066	-0.192747
N	 3.9908851714	 4.6563799563	-0.6356469295	-0.236639
C	 3.6455245836	 5.2355473929	-1.810148816	 0.017673
N	 2.6162697576	 4.6345686121	-2.3693747574	-0.32615
H	-0.1906286992	 2.5602715721	 0.397596328	 0.090654
H	 2.0465816685	 0.985560001	-1.0290312876	 0.118726
H	 0.3663072628	 0.9065829193	-1.6035658231	 0.131402
H	 1.0021437665	 2.7594234354	-2.7873679735	 0.246855
H	 3.1877446817	 2.9650242296	 0.4479453921	 0.140767
H	 4.7417265862	 4.934970031	-0.0277595315	 0.267374
H	 4.1721453977	 6.0864556719	-2.2150974393	 0.131014
54.2316	70.0135	113.6	201.1087	287.2237	371.0988	421.734	479.6413	526.5218	611.3734	650.8256	660.8661	693.365	738.9768	784.8823	812.3786	949.7414	983.4879	1041.8604	1086.2553	1107.1382	1134.5198	1151.8456	1230.1721	1272.6079	1289.5801	1328.2154	1365.5878	1401.0909	1450.9061	1458.1	1493.4751	1544.1087	1627.0723	1836.4745	2888.4971	2982.9984	3059.2504	3255.0185	3291.3855	3607.5797	3676.0678
O=CCNC1=CNC=N1	O=CCNc1c[nH]cn1	
InChI=1S/C5H7N3O/c9-2-1-7-5-3-6-4-8-5/h2-4,7H,1H2,(H,6,8)	InChI=1S/C5H7N3O/c9-2-1-7-5-3-6-4-8-5/h2-4,7H,1H2,(H,6,8)
