20
gdb 80583	3.4874	1.07391	0.96056	3.3606	79.53	-0.2422	0.0322	0.2744	1294.2231	0.170979	-403.157031	-403.147812	-403.146868	-403.191652	34.415	
C	 0.1140396525	 1.6404357374	 0.1031431803	-0.417422
C	 0.0901887002	 0.1368422142	 0.2792389261	-0.009742
C	 1.141831415	-0.8241680615	-0.2077366657	-0.056312
C	 2.5600748091	-0.2645586523	-0.0434400721	-0.258745
C	 2.3067244801	-0.0629487949	 1.4793507452	-0.117986
C	 0.8861270363	-0.6445941118	 1.2935172316	-0.069191
C	 3.1807756464	-0.9492280357	 2.3609827262	 0.392071
N	 3.1614595296	-0.6068734386	 3.6847876194	-0.527294
O	 3.8299471613	-1.8901993133	 1.9468163541	-0.357224
H	 1.1196536141	 2.0582661493	 0.197952886	 0.120957
H	-0.262119716	 1.9190159099	-0.8873082718	 0.118424
H	-0.5204621886	 2.1323315288	 0.8490308121	 0.113588
H	-0.9087123346	-0.2837873522	 0.169359566	 0.085335
H	 0.8880394184	-1.669898907	-0.835533461	 0.084986
H	 3.3248566982	-1.0297379536	-0.1819739932	 0.139261
H	 2.8167473745	 0.6256062836	-0.6255783532	 0.088904
H	 2.3359701804	 0.9672667938	 1.8527028216	 0.068565
H	 0.4137947387	-1.3256148561	 1.9927137101	 0.085954
H	 2.5469176039	 0.1044317737	 4.0400947527	 0.257072
H	 3.6162350207	-1.2214069937	 4.3401997355	 0.2588
33.8673	107.5555	162.6953	184.4615	193.2722	235.2169	308.5854	397.5632	425.1119	530.8292	561.5298	623.3412	690.2994	721.0346	760.2479	805.0188	840.4655	894.4157	928.3646	977.0156	987.3403	1006.3879	1044.636	1058.8997	1068.044	1093.6093	1104.4083	1132.5845	1183.4608	1212.436	1219.0985	1258.6555	1268.6139	1299.685	1343.257	1391.3729	1413.8628	1441.4979	1481.2171	1497.8486	1503.2473	1616.0556	1795.5904	3029.2294	3032.2673	3054.2491	3087.8603	3105.9979	3122.9484	3132.318	3166.4198	3182.29	3599.4745	3735.4875
CC1C2CC(C12)C(N)=O	C[C@H]1[C@H]2C[C@@H]([C@@H]12)C(=O)N	
InChI=1S/C7H11NO/c1-3-4-2-5(6(3)4)7(8)9/h3-6H,2H2,1H3,(H2,8,9)	InChI=1S/C7H11NO/c1-3-4-2-5(6(3)4)7(8)9/h3-6H,2H2,1H3,(H2,8,9)/t3-,4+,5-,6-/m0/s1
