21
gdb 90617	4.01646	1.19433	1.10973	1.6274	82.35	-0.2425	0.078	0.3204	1203.6117	0.181736	-387.043369	-387.034921	-387.033977	-387.075953	33.462	
C	-0.1629935436	 1.4980029284	-0.0332789744	-0.415603
C	 0.0019084547	-0.0159112395	 0.0070848905	 0.048945
C	 1.1233715518	-0.5964420817	-0.9201703499	-0.256091
C	 1.8805529574	-1.143526024	 0.322537336	-0.096791
C	 0.7670706955	-0.5655987512	 1.2541452378	-0.062519
C	 0.4483140472	-2.0130586881	 1.6953875038	-0.065876
O	 0.1135444467	-2.7703265844	 0.5199889977	-0.278366
C	 1.5029941104	-2.5686437991	 0.8216855803	 0.408926
C	 2.3807712468	-3.7738880383	 0.9101392479	-0.504898
H	 0.7932443709	 2.0085714864	 0.1325219275	 0.108611
H	-0.548480125	 1.8263605245	-1.005063893	 0.113472
H	-0.8613219177	 1.8430927276	 0.7377676888	 0.111015
H	-0.9631294096	-0.5060670561	-0.1414695752	 0.081456
H	 0.7950500663	-1.3517515302	-1.6366827546	 0.105436
H	 1.6812979888	 0.1801026782	-1.4515821168	 0.090428
H	 2.9292846496	-0.8769244213	 0.4584424315	 0.067188
H	 1.0017250411	 0.1287175548	 2.062426542	 0.064064
H	 0.0279766069	-2.3676227817	 2.6313986861	 0.094811
H	 2.6271132805	-4.1486115703	-0.0903546768	 0.129929
H	 3.3202579393	-3.5348077209	 1.4189269773	 0.12313
H	 1.8768773917	-4.5746844432	 1.4582860135	 0.132735
101.717	176.8178	195.8313	240.8828	259.8531	292.435	326.7702	369.1111	492.0928	554.0489	645.2184	698.5157	763.079	804.4866	828.2825	850.558	872.8306	883.0818	922.7063	948.1862	977.66	993.6116	1026.1788	1057.4339	1088.6741	1099.8033	1117.9896	1132.3757	1174.1023	1193.4277	1229.5579	1240.4515	1253.021	1264.1588	1281.5629	1302.2051	1348.4577	1403.2055	1410.256	1457.2153	1470.3677	1482.4326	1493.5641	1496.4678	1498.5545	3019.2947	3030.8398	3055.2717	3069.5718	3089.18	3090.6095	3092.8579	3097.5769	3107.1972	3118.3901	3119.443	3163.3986
CC1CC2C1C1OC21C	C[C@H]1C[C@H]2[C@@H]1[C@H]1O[C@@]21C	
InChI=1S/C8H12O/c1-4-3-5-6(4)7-8(5,2)9-7/h4-7H,3H2,1-2H3	InChI=1S/C8H12O/c1-4-3-5-6(4)7-8(5,2)9-7/h4-7H,3H2,1-2H3/t4-,5-,6+,7+,8-/m0/s1
