18
gdb 105620	2.01067	1.41854	1.22247	5.3511	72.13	-0.2735	-0.0011	0.2724	1148.2422	0.146458	-439.072447	-439.063093	-439.062149	-439.106837	33.723	
C	-0.4314625931	 1.4011612063	-0.0992505958	-0.42507
C	 0.0898942875	-0.0272732825	-0.071984338	-0.088714
C	 1.4990710134	-0.3334224353	-0.6227786248	-0.086177
O	 1.8677454875	-1.0485861572	 0.5839689916	-0.319121
C	 0.6469359422	-0.6422628711	 1.2562119404	 0.211883
C	 1.0154190739	 0.2984931167	 2.4101891286	-0.09462
O	 1.8980953953	-0.3491033073	 3.2937052514	-0.411233
C	-0.1000442954	-1.8065821095	 1.750816735	 0.279392
N	-0.7332443324	-2.7038343985	 2.1101439612	-0.335266
H	 0.2989966859	 2.1192308182	 0.2837450918	 0.128477
H	-0.6690920917	 1.6895275274	-1.128310712	 0.132207
H	-1.3493491427	 1.4998225494	 0.4886721527	 0.137215
H	-0.6538748012	-0.7002431314	-0.5030424272	 0.114839
H	 1.5561953618	-0.9777876061	-1.5048250445	 0.124393
H	 2.1325053186	 0.5491170932	-0.7760924502	 0.110592
H	 1.4592830109	 1.2107560676	 1.9859786272	 0.094046
H	 0.126025308	 0.5813163781	 2.9812991483	 0.128667
H	 2.6271401614	-0.6828789579	 2.7551122545	 0.29849
66.0483	105.8537	152.6491	172.5619	188.7485	227.881	281.6284	347.462	418.7543	463.341	476.0785	544.5931	570.5672	667.8867	754.2837	889.7738	910.9273	928.2705	988.9478	1005.5838	1038.6652	1084.7187	1116.9433	1144.414	1163.6963	1169.8326	1202.7128	1242.3439	1298.526	1339.2395	1378.4929	1390.8631	1417.9128	1427.3408	1492.3477	1498.3761	1501.6595	1526.4203	2355.5369	2999.0884	3025.4361	3041.633	3080.4145	3090.5876	3094.4048	3106.3645	3120.2717	3777.4893
CC1COC1(CO)C#N	C[C@H]1CO[C@]1(CO)C#N	
InChI=1S/C6H9NO2/c1-5-2-9-6(5,3-7)4-8/h5,8H,2,4H2,1H3	InChI=1S/C6H9NO2/c1-5-2-9-6(5,3-7)4-8/h5,8H,2,4H2,1H3/t5-,6-/m0/s1
