19
gdb 64311	2.27835	1.72866	1.26261	3.6238	77.64	-0.2487	-0.059	0.1897	1059.1107	0.15935	-423.072631	-423.064191	-423.063247	-423.105133	33.212	
C	-0.111673166	 1.57432503	 0.0856031093	-0.419735
C	-0.0213462372	 0.0368968839	-0.0228890003	 0.274958
O	-1.3231141782	-0.5063955809	-0.0546707383	-0.480832
C	 0.7381038472	-0.4180579889	-1.2783038017	-0.24707
C	 2.2186458343	-0.0110583867	-1.2504730964	-0.283309
C	 2.8634798931	-0.2597123325	 0.0827328757	-0.029475
C	 2.1747553088	-0.4806076643	 1.2112847985	-0.147349
C	 0.7044968526	-0.4973642793	 1.223041297	 0.349842
O	 0.0519795845	-0.8997059577	 2.1707013364	-0.368264
H	 0.8698827581	 2.0567327336	 0.1137104506	 0.113738
H	-0.6704625017	 1.9574816425	-0.7731249174	 0.126877
H	-0.6541834002	 1.8457584473	 0.9955206046	 0.128279
H	-1.4972075009	-0.7927815107	 0.856407124	 0.286439
H	 0.6590123413	-1.5095933174	-1.3328410607	 0.11505
H	 0.2407669775	-0.0178286232	-2.1676705369	 0.109313
H	 2.7756151862	-0.5458192797	-2.0290283277	 0.119523
H	 2.3354660329	 1.0545738147	-1.4984779444	 0.128784
H	 3.9512510206	-0.2568931775	 0.112869749	 0.111937
H	 2.6664563373	-0.6896285933	 2.1561517988	 0.111293
98.6051	193.4536	218.4355	236.6992	315.9982	343.3958	356.0072	391.9823	462.1648	469.9192	509.2719	559.4597	654.4677	675.6328	756.1759	829.4938	856.3878	879.7988	937.0443	968.9881	1005.5612	1028.0959	1028.3747	1111.8582	1139.0429	1149.0065	1185.1765	1225.8466	1240.3974	1286.087	1352.2657	1374.7035	1398.7572	1410.5741	1420.9888	1465.9563	1483.8859	1495.1736	1499.7289	1679.039	1762.9632	3005.1685	3039.4968	3041.3044	3054.1622	3087.5817	3117.4143	3119.795	3150.5788	3188.4853	3685.8463
CC1(O)CCC=CC1=O	C[C@@]1(O)CCC=CC1=O	
InChI=1S/C7H10O2/c1-7(9)5-3-2-4-6(7)8/h2,4,9H,3,5H2,1H3	InChI=1S/C7H10O2/c1-7(9)5-3-2-4-6(7)8/h2,4,9H,3,5H2,1H3/t7-/m1/s1
