15
gdb 129881	4.87313	0.87069	0.7865	3.1455	70.09	-0.2187	-0.0466	0.1721	1390.8312	0.112598	-450.123209	-450.114766	-450.113822	-450.157566	29.773	
N	-0.1230410836	 1.3416502932	-0.422515545	-0.59084
C	-0.0911351304	-0.0087829544	-0.0968894324	 0.332624
C	-1.0488487211	-0.9899078608	-0.2525311024	-0.191839
N	-0.4257006213	-2.1235112817	 0.1832339491	 0.078232
C	-0.9225698306	-3.4784490103	 0.1933153119	-0.243281
C	-0.9680998509	-4.09158674	-1.2060478387	 0.146794
O	-1.7462121987	-4.9490425134	-1.5214764316	-0.220123
N	 0.832644188	-1.8650259857	 0.5627656883	-0.148013
N	 1.0373360773	-0.5838372272	 0.4040474056	-0.251066
H	 0.6482093238	 1.8372908455	 0.0057532486	 0.258811
H	-1.0011491948	 1.7981174525	-0.2190470178	 0.2505
H	-2.065078211	-0.9832459538	-0.6069427184	 0.141948
H	-0.2232027912	-4.0631431893	 0.8006387114	 0.174641
H	-1.9142116361	-3.5351516962	 0.6498443538	 0.151496
H	-0.2025039993	-3.6876638783	-1.9039607023	 0.110118
45.5625	67.3732	107.321	239.0732	265.6809	298.3954	396.9116	424.4957	440.084	653.7448	655.7202	699.2563	706.0025	740.0973	774.095	835.8206	1028.4618	1044.0636	1050.2142	1055.219	1111.6306	1171.9659	1201.0988	1286.6752	1327.3827	1355.7325	1406.7425	1414.4566	1441.5826	1497.3773	1616.7567	1653.5343	1845.0302	2905.091	3060.7324	3118.356	3285.1306	3550.7812	3647.0808
NC1=CN(CC=O)N=N1	Nc1cn(CC=O)nn1	
InChI=1S/C4H6N4O/c5-4-3-8(1-2-9)7-6-4/h2-3H,1,5H2	InChI=1S/C4H6N4O/c5-4-3-8(1-2-9)7-6-4/h2-3H,1,5H2
