17
gdb 44581	3.11979	1.58758	1.41423	4.2903	69.89	-0.2669	0.009	0.2759	957.804	0.1387	-421.852823	-421.8461	-421.845156	-421.884077	26.954	
O	-0.4638509024	 0.3316919641	 0.5796010883	-0.327726
C	-0.1808858027	 1.386963621	 0.1094062831	 0.437541
O	-0.9859931915	 2.2192683631	-0.6272768461	-0.255564
C	 0.0783234327	 3.2438442165	-0.7249620968	 0.094623
C	-0.1269338224	 4.4708313421	 0.1350234869	-0.047547
C	-0.7451471812	 4.2540323931	 1.4972600548	-0.295241
C	 0.7482902686	 4.3337971132	 1.3761645492	-0.029295
C	 1.5429535617	 3.0289395697	 1.2998410905	-0.260506
C	 1.0446792675	 2.3042763036	 0.0324752273	-0.216713
H	 0.2711590492	 3.4638919241	-1.7746211835	 0.097669
H	-0.2698124599	 5.4251950328	-0.3567370114	 0.091778
H	-1.2567183421	 5.1018588199	 1.9388185871	 0.119305
H	-1.2174871988	 3.3001641892	 1.705398759	 0.141931
H	 1.2470451532	 5.202534936	 1.7913612417	 0.091999
H	 2.6096968341	 3.2511677565	 1.2014099885	 0.112726
H	 1.4255928816	 2.407413001	 2.1935467497	 0.129054
H	 1.8471219022	 1.8512363044	-0.5519345782	 0.115966
95.8554	190.5167	250.7978	356.4522	439.2582	533.5962	623.3709	651.4577	698.7398	766.4039	803.8832	811.4416	839.8914	863.1505	899.884	919.9341	960.1763	996.1331	1025.1732	1059.1915	1069.0118	1076.1594	1105.7502	1109.3757	1135.2222	1172.6395	1203.4935	1235.2776	1270.3071	1277.889	1331.8572	1343.2449	1361.7048	1395.6509	1491.4704	1503.0518	1930.3282	3051.6793	3088.208	3105.8689	3121.3963	3139.1342	3169.355	3185.9359	3222.7617
O=C1OC2C3CC3CC12	O=C1O[C@H]2[C@H]3C[C@H]3C[C@@H]12	
InChI=1S/C7H8O2/c8-7-5-2-3-1-4(3)6(5)9-7/h3-6H,1-2H2	InChI=1S/C7H8O2/c8-7-5-2-3-1-4(3)6(5)9-7/h3-6H,1-2H2/t3-,4-,5+,6-/m0/s1
