25
gdb 60451	3.94074	0.58748	0.53276	0.4703	87.2	-0.2434	0.0723	0.3157	2174.8462	0.225114	-426.631599	-426.619643	-426.618699	-426.670053	42.597	
C	-0.0213703414	 1.5425272879	-0.0264875647	-0.400813
C	-0.0057521528	 0.0185721333	 0.0933903356	 0.135007
O	 0.6052256721	-0.3962897549	 1.3163221555	-0.429334
C	-1.4020030569	-0.5910913808	-0.0735476492	-0.206928
C	-1.3957377884	-2.1143235096	-0.0291553358	-0.061636
O	-2.7290677657	-2.5636414554	-0.1588225893	-0.262122
C	-2.8878163606	-3.9738339202	-0.2618738283	 0.163069
C	-2.6807394611	-4.6759574718	 1.0843795435	-0.393243
C	-4.2876922132	-4.2095598592	-0.8193158548	-0.386743
H	 0.9848869453	 1.9441524362	 0.1199010378	 0.123128
H	-0.3853430685	 1.8600440537	-1.0089615471	 0.116732
H	-0.6809675621	 1.9847220842	 0.730892459	 0.106478
H	 0.6544942052	-0.3901095309	-0.6827155289	 0.088224
H	 0.0809342089	-0.032407521	 2.0389563414	 0.27565
H	-2.0622404523	-0.2154132766	 0.720640887	 0.092537
H	-1.8389768121	-0.2608822716	-1.0232189204	 0.102395
H	-0.7765098914	-2.5151550888	-0.8511047124	 0.078891
H	-0.9394186053	-2.4515142839	 0.9113602644	 0.100223
H	-2.1456760757	-4.36176027	-0.9813144445	 0.06069
H	-3.4010687285	-4.3020798715	 1.8195096915	 0.118549
H	-2.8244459554	-5.7561089599	 0.9784832141	 0.112125
H	-1.6732875025	-4.5131791268	 1.4770875762	 0.118775
H	-4.4072772697	-3.6994721544	-1.7787436207	 0.11796
H	-4.4735674999	-5.2780099275	-0.9640314187	 0.10978
H	-5.0410464781	-3.8179514804	-0.1281423514	 0.120605
28.4091	49.1126	98.4508	118.0557	135.7403	207.57	225.4489	238.4271	256.7978	265.9352	298.0667	372.8512	393.3915	450.9981	461.1806	501.337	534.5428	794.9768	825.2911	860.6624	924.7392	932.2505	940.8461	948.825	977.0498	1048.2197	1089.8759	1108.8051	1125.2872	1153.3117	1158.0315	1182.124	1200.1886	1220.5053	1292.0524	1295.9173	1334.774	1363.0558	1368.7903	1382.1193	1396.3358	1403.6086	1412.9148	1420.9285	1438.5238	1480.7019	1482.1902	1485.541	1493.2097	1494.878	1495.9886	1509.6475	1531.4059	2946.2013	2953.1698	3015.0542	3022.7286	3023.6635	3032.8111	3036.3864	3041.6974	3070.4448	3094.6725	3105.6115	3112.9786	3115.0472	3119.0174	3121.6227	3792.4282
CC(O)CCOC(C)C	C[C@@H](O)CCOC(C)C	
InChI=1S/C7H16O2/c1-6(2)9-5-4-7(3)8/h6-8H,4-5H2,1-3H3	InChI=1S/C7H16O2/c1-6(2)9-5-4-7(3)8/h6-8H,4-5H2,1-3H3/t7-/m1/s1
