16
gdb 11559	6.5146	1.01365	0.94359	2.9563	62.36	-0.2687	0.0032	0.2719	1222.6368	0.128707	-420.886652	-420.878223	-420.877278	-420.920844	29.467	
O	 0.2065530356	 1.2148943958	-0.264337643	-0.419263
C	 0.0224875528	-0.1260395044	 0.0882197042	-0.144949
C	-1.4435087864	-0.5091137636	-0.0060538434	 0.411193
O	-2.2998620931	 0.2734118067	-0.343433191	-0.369064
O	-1.6530588581	-1.7867879486	 0.3371858835	-0.238887
C	-2.9955533188	-2.2504592644	 0.2712386684	 0.146487
C	-3.358318544	-3.1644169095	-0.8585534053	-0.278846
C	-3.1745905508	-3.7051520948	 0.5470386386	-0.296898
H	-0.6765406805	 1.5505334497	-0.4794677884	 0.297013
H	 0.595767199	-0.7974535726	-0.5689052814	 0.124053
H	 0.3649214187	-0.3234625012	 1.1150911055	 0.126223
H	-3.7121433179	-1.5214244593	 0.626982363	 0.127827
H	-4.3571098207	-3.0910656499	-1.2731311764	 0.128114
H	-2.5796899998	-3.3889271056	-1.5783425201	 0.128694
H	-2.2765241881	-4.2800487587	 0.7414848509	 0.132136
H	-4.045179138	-4.0146189796	 1.1136104248	 0.126168
36.4059	77.0781	104.8297	152.7804	308.6908	331.664	357.6346	410.2197	459.1673	585.981	712.1313	754.6153	819.7411	839.0049	913.1815	971.2924	1004.8351	1039.9827	1060.0907	1078.1699	1117.1303	1129.4862	1171.9803	1192.8086	1234.3978	1241.8225	1264.6684	1318.1047	1393.3167	1456.7664	1466.8421	1497.8687	1500.5571	1808.5751	2995.4735	3016.27	3143.0179	3145.7077	3198.3676	3226.5545	3240.3436	3718.1659
OCC(=O)OC1CC1	OCC(=O)OC1CC1	
InChI=1S/C5H8O3/c6-3-5(7)8-4-1-2-4/h4,6H,1-3H2	InChI=1S/C5H8O3/c6-3-5(7)8-4-1-2-4/h4,6H,1-3H2
