14
gdb 35014	2.9659	1.3327	1.11446	4.4217	74.62	-0.2591	-0.0142	0.2449	1081.3703	0.099667	-399.473885	-399.466021	-399.465077	-399.506395	29.29	
C	 0.0468556034	-1.2113354076	 0.0008558412	-0.415382
C	 0.0385123388	-0.009760312	 0.0271544634	 0.339459
C	 0.0207653012	 1.4216078206	 0.0676015615	-0.309359
C	 0.4372773589	 2.2341546552	 1.2859226424	-0.188754
C	 1.6466984289	 1.583493329	 1.9478954386	-0.107657
O	 2.3760890168	 1.5659628682	 0.6829714809	-0.307878
C	 1.3075874147	 2.244329545	 0.0432334971	 0.342419
C	 1.5866849179	 3.2472903082	-0.9346515511	 0.231173
N	 1.7883357803	 4.0613041829	-1.7314548062	-0.3391
H	 0.0594614663	-2.2728397965	-0.0349138924	 0.20771
H	-0.783890847	 1.9003129631	-0.4854820612	 0.145248
H	-0.1893795166	 3.0119505789	 1.6988717953	 0.133583
H	 2.1540980725	 2.2341679147	 2.6653611116	 0.132853
H	 1.5120309336	 0.5786766505	 2.357020389	 0.135684
102.1931	131.6211	169.1353	201.7742	342.3958	352.7044	474.3609	509.0845	545.8522	571.889	618.2702	670.4595	698.935	786.7687	812.2041	888.6905	960.6108	972.8036	981.1107	1020.953	1067.2585	1100.5611	1154.3752	1170.488	1230.651	1308.2694	1336.0826	1426.5882	1506.2113	2242.1408	2351.4037	3057.2634	3116.7538	3147.127	3220.3433	3501.5421
C#CC1C2COC12C#N	C#C[C@H]1[C@H]2CO[C@@]12C#N	
InChI=1S/C7H5NO/c1-2-5-6-3-9-7(5,6)4-8/h1,5-6H,3H2	InChI=1S/C7H5NO/c1-2-5-6-3-9-7(5,6)4-8/h1,5-6H,3H2/t5-,6+,7-/m0/s1
