15
gdb 133774	3.16635	0.99684	0.92575	2.4836	54.52	-0.2657	0.0541	0.3198	1239.8119	0.109005	-585.416908	-585.408223	-585.407279	-585.451667	30.925	
O	-0.086458267	 1.4736329368	-0.5103365204	-0.418747
C	 0.068294326	 0.2292974986	 0.1521764549	-0.085334
C	-1.2659647724	-0.4754176266	 0.2619502502	-0.027263
N	-1.7664361158	-1.1114858613	-0.9706635846	-0.333793
C	-1.4897862263	-1.9440832361	 0.1987735215	-0.206523
C	-0.405897253	-2.986802168	 0.0667186173	 0.308119
F	 0.5584538748	-2.6499722219	-0.7935296371	-0.065664
F	 0.1686396821	-3.2165023807	 1.2598038045	-0.07929
F	-0.9311736577	-4.1497617226	-0.3514857306	-0.078206
H	-0.3766803209	 1.2722034296	-1.4071461945	 0.290848
H	 0.7998537213	-0.409826808	-0.3517419164	 0.112164
H	 0.4472956396	 0.4587460621	 1.153381249	 0.116906
H	-1.9939309699	 0.0696158114	 0.8614157888	 0.103067
H	-2.767245373	-0.9790367549	-1.0823743158	 0.246438
H	-2.3238299276	-2.3386884183	 0.7748246331	 0.117277
37.3923	67.6642	146.4857	191.9037	259.5734	300.4513	382.2195	406.0879	465.6323	513.099	534.0292	615.0727	681.8696	795.3762	831.5875	916.8179	949.5987	982.7233	1024.9057	1070.5108	1103.733	1163.8027	1184.2809	1191.2425	1207.0872	1267.3794	1270.4607	1316.9731	1378.5431	1411.6217	1444.3883	1494.1813	1503.5102	3053.3682	3097.056	3122.8564	3141.8494	3519.259	3803.2129
OCC1NC1C(F)(F)F	OC[C@H]1N[C@H]1C(F)(F)F	
InChI=1S/C4H6F3NO/c5-4(6,7)3-2(1-9)8-3/h2-3,8-9H,1H2	InChI=1S/C4H6F3NO/c5-4(6,7)3-2(1-9)8-3/h2-3,8-9H,1H2/t2-,3-/m1/s1
