17
gdb 37259	3.30154	2.16522	1.74978	1.7981	72.92	-0.2086	0.0608	0.2694	813.0362	0.139423	-380.762048	-380.756291	-380.755347	-380.791731	25.276	
C	 0.0001540112	 1.4870954436	-0.1919124181	-0.250646
C	 1.2738699485	 0.7310523709	-0.0189185056	-0.036035
C	 2.0207576745	 0.8085547825	 1.2700881813	-0.016252
C	 1.3648497253	 0.9352597029	 2.5872792039	-0.079337
C	-0.0124133118	 0.250437328	 2.6564232603	-0.135637
C	-0.3339537466	-0.4385663018	 1.3466685788	-0.008245
C	 0.7064319969	-1.0258209349	 2.2506801192	-0.022111
N	 2.0620466729	-0.3464692083	 2.2285062669	-0.174876
N	-0.0162135678	 0.0390987761	 0.0251581173	-0.110722
H	-0.3128270644	 2.1310233432	 0.6263081193	 0.118934
H	-0.3141381309	 1.8021667343	-1.1822422025	 0.118162
H	 1.8820073689	 0.5053282096	-0.8928446978	 0.095544
H	 3.0098455212	 1.2534679226	 1.1968558338	 0.100809
H	 1.7466763509	 1.5691025	 3.3817289795	 0.09818
H	-0.7390711206	 0.4230419894	 3.439023269	 0.094653
H	-1.2749382661	-0.9816409114	 1.3757304676	 0.103763
H	 0.6695022978	-2.0328167066	 2.6463223372	 0.103817
262.0723	269.0583	477.9315	508.7362	594.8491	601.8941	658.7283	706.4133	740.2163	757.2517	774.65	843.8181	867.1378	890.2197	938.4042	947.5556	983.52	992.7053	1017.8782	1051.4966	1062.0117	1066.4612	1077.4464	1096.2546	1104.7857	1117.6189	1161.5164	1173.6834	1218.5646	1264.9216	1311.5426	1317.8602	1333.0254	1398.813	1413.7973	1441.8254	1498.885	3108.3488	3115.3294	3141.9051	3145.2537	3154.6697	3188.0254	3199.8728	3202.5367
C1C2C3C4C5C(C5N34)N12	C1[C@H]2[C@H]3[C@H]4[C@H]5[C@H]([C@H]5N34)N12	
InChI=1S/C7H8N2/c1-2-4-6-3-5(8(1)2)7(3)9(4)6/h2-7H,1H2	InChI=1S/C7H8N2/c1-2-4-6-3-5(8(1)2)7(3)9(4)6/h2-7H,1H2/t2-,3+,4-,5+,6+,7-,8?,9?/m0/s1
