19
gdb 110576	3.19699	1.33893	1.10699	2.5395	75.22	-0.2283	0.068	0.2963	1127.9299	0.15782	-422.927054	-422.918648	-422.917704	-422.959977	32.262	
C	 0.0787590661	 1.3478237214	-0.4347869953	-0.524536
C	 0.0716601003	-0.1276631746	-0.1630301423	 0.322647
C	 0.5691018808	-1.3048947323	-1.0404913455	-0.065363
C	 2.0486772856	-1.3854002089	-1.3581188482	-0.109501
O	 2.3455697709	-0.3500085984	-2.2881627382	-0.419107
C	 0.0435170249	-2.0209291591	 0.2241478066	-0.123558
C	 0.4883980515	-0.8591188355	 1.1656849912	 0.037363
O	-0.8164398397	-0.7034779643	 1.7987831799	-0.333419
C	-1.1101810991	-0.9896889088	 0.3991062086	 0.039609
H	 1.0941220955	 1.700905726	-0.6362577755	 0.132275
H	-0.5327625408	 1.5874526315	-1.3112660144	 0.121626
H	-0.3244753885	 1.8920868577	 0.4256341641	 0.127794
H	-0.0200144941	-1.472401321	-1.949635062	 0.073234
H	 2.6409830433	-1.2704577436	-0.4353664261	 0.082784
H	 2.288412024	-2.3761577218	-1.7768432791	 0.087098
H	 3.2733077844	-0.4192702009	-2.5320348642	 0.287513
H	 0.0094788555	-3.0827119054	 0.4683351806	 0.080196
H	 1.3775477998	-0.7510942144	 1.7864169078	 0.091946
H	-2.1509746104	-1.0448135673	 0.0789775123	 0.091399
86.3183	140.0024	201.6495	228.7921	250.0586	284.8712	307.5251	388.7753	510.881	585.7354	676.7818	745.7629	757.8166	813.9819	828.4383	861.7062	882.4838	911.4113	948.2338	996.5436	1034.6537	1063.7118	1079.8021	1096.214	1118.2931	1142.4674	1155.0965	1166.0805	1173.6908	1204.736	1252.0487	1256.3494	1266.1419	1307.6591	1346.7203	1400.5334	1416.0192	1464.6347	1485.6348	1492.5041	1518.6009	2961.1932	2986.9278	3033.8353	3045.9212	3099.7831	3111.7689	3114.1033	3115.414	3129.2479	3827.4358
CC12C(CO)C3C1OC23	C[C@@]12[C@@H](CO)[C@H]3[C@@H]1O[C@@H]23	
InChI=1S/C7H10O2/c1-7-3(2-8)4-5(7)9-6(4)7/h3-6,8H,2H2,1H3	InChI=1S/C7H10O2/c1-7-3(2-8)4-5(7)9-6(4)7/h3-6,8H,2H2,1H3/t3-,4-,5-,6+,7+/m0/s1
