17
gdb 28307	5.01617	1.23976	1.00167	1.6869	86.01	-0.1652	-0.0065	0.1588	1149.8176	0.139011	-380.909631	-380.902151	-380.901207	-380.941303	29.623	
N	-0.0138113302	 1.4085124423	 0.1480043402	-0.603951
C	 0.0149209923	 0.0020935798	 0.0457357299	 0.275534
C	-1.0827950265	-0.8470096855	 0.0293425607	-0.213429
N	-0.5963019597	-2.1330870968	 0.0111808502	-0.019242
C	-1.123606788	-3.4845549508	-0.0215491513	-0.240855
C	 0.1509542987	-4.3075402628	-0.0435333743	-0.109584
C	 1.22309757	-3.4942228681	-0.0273618307	-0.205791
C	 0.776554072	-2.1159059216	 0.0068446482	 0.396527
C	 1.1955943949	-0.7979625253	 0.0309299674	-0.416102
H	 0.7478505402	 1.8389943405	-0.3617724334	 0.238164
H	-0.884506689	 1.7999516566	-0.1890416346	 0.234967
H	-2.1387958221	-0.6303887458	 0.0381481018	 0.102766
H	-1.7421340245	-3.7003918253	 0.8598475585	 0.130371
H	-1.7452666748	-3.6574346699	-0.9102388246	 0.129033
H	 0.1461417642	-5.3875894543	-0.0662450859	 0.105153
H	 2.2604241186	-3.79915434	-0.0363936702	 0.108984
H	 2.2135018538	-0.439647613	 0.0461267682	 0.087454
117.1079	167.5434	228.6661	294.0618	306.821	432.5303	494.9572	553.6577	621.205	634.8451	665.041	727.196	741.9704	745.2722	773.192	810.0744	890.2745	934.79	943.5727	988.7274	1000.4651	1083.7453	1098.8225	1164.8092	1174.7123	1183.2677	1234.5216	1289.9394	1342.1911	1400.8944	1420.7233	1456.5556	1486.9922	1542.6754	1605.3169	1632.543	1655.9003	3012.8473	3039.1299	3226.1019	3246.1224	3249.4279	3258.656	3526.864	3614.2523
NC1=CN2CC=CC2=C1	Nc1cn2CC=Cc2c1	
InChI=1S/C7H8N2/c8-6-4-7-2-1-3-9(7)5-6/h1-2,4-5H,3,8H2	InChI=1S/C7H8N2/c8-6-4-7-2-1-3-9(7)5-6/h1-2,4-5H,3,8H2
