21
gdb 56636	2.05328	1.31789	1.11119	3.4967	82.74	-0.2572	0.0383	0.2956	1253.0424	0.181095	-383.275399	-383.265109	-383.264165	-383.310551	37.667	
C	-0.4494854317	 1.3817247779	 0.1027570086	-0.407838
C	 0.1355282242	-0.0258018651	-0.1304307373	-0.174706
C	 1.0075399842	-0.0487663068	-1.311266842	 0.273296
N	 1.7041484301	-0.0634374713	-2.2337752802	-0.333981
C	 0.8784450906	-0.5707837422	 1.099135006	 0.32317
C	 2.0966430631	 0.2220420249	 1.5329509377	-0.487154
N	-0.0380938082	-1.0796766314	 2.1331569081	-0.381294
C	 0.8419960687	-2.0279698546	 1.4197280499	-0.035114
C	 0.1908402386	-3.1083984455	 0.5891050279	-0.411043
H	 0.3363732141	 2.1269688864	 0.2463850973	 0.135037
H	-1.0563694271	 1.6922113757	-0.751090039	 0.134669
H	-1.0821691668	 1.3553577883	 0.9934543248	 0.140636
H	-0.7000850593	-0.7006777093	-0.3346883254	 0.129471
H	 1.8234062027	 1.2291657574	 1.8657877474	 0.126129
H	 2.6020700024	-0.2783169921	 2.364288692	 0.118129
H	 2.815366117	 0.3234152958	 0.7134220494	 0.149846
H	 0.3227037338	-0.8729684734	 3.0612988074	 0.229444
H	 1.7175309947	-2.3752773961	 1.968221733	 0.085321
H	-0.7396550131	-2.7676010361	 0.1308167809	 0.128196
H	 0.8654596161	-3.4520023543	-0.2019276638	 0.132646
H	-0.054678564	-3.9686067882	 1.2207757875	 0.12514
47.4821	121.8715	161.2378	183.7236	199.0888	225.6095	238.8581	255.0761	285.1979	366.8895	412.8679	467.0827	493.6018	541.3094	591.6059	713.3874	786.223	841.3685	881.4835	939.2855	976.3144	1021.2945	1025.8023	1046.3858	1080.3319	1105.783	1109.1797	1140.1611	1150.2591	1241.8119	1275.7264	1321.2155	1329.9883	1364.2733	1403.7516	1410.9097	1419.7569	1462.4293	1484.3572	1489.1585	1495.1368	1500.0088	1503.9796	1508.8097	2353.6472	3033.1012	3040.9804	3053.0606	3078.2932	3098.1506	3100.9907	3104.7493	3110.3622	3130.4777	3134.634	3136.0901	3497.0729
CC(C#N)C1(C)NC1C	C[C@@H](C#N)[C@@]1(C)N[C@H]1C	
InChI=1S/C7H12N2/c1-5(4-8)7(3)6(2)9-7/h5-6,9H,1-3H3	InChI=1S/C7H12N2/c1-5(4-8)7(3)6(2)9-7/h5-6,9H,1-3H3/t5-,6-,7+/m0/s1
