18
gdb 47008	2.66346	1.79612	1.448	4.089	70.76	-0.2262	0.0112	0.2374	951.271	0.151804	-439.12497	-439.11787	-439.116926	-439.156623	27.923	
O	-0.0312692266	 0.0142939479	-0.3781577907	-0.331693
C	-0.0286219086	 1.1504206162	 0.0110268641	 0.402976
O	-1.2090902054	 1.7399985038	 0.3487956814	-0.240243
C	-1.2620307311	 3.0288294984	 0.9945421596	-0.071684
C	 0.0165962868	 3.8498442283	 0.8447151089	-0.038232
C	 0.3389554067	 4.1391502706	-0.6385718131	-0.169286
N	 1.2053937735	 3.0120687415	-1.0527286083	-0.300254
C	 1.2214240743	 2.0359532085	 0.0487545761	-0.103285
C	 1.1924282123	 2.9534630827	 1.2717779253	-0.235832
H	-2.1215383073	 3.5440277927	 0.5547745199	 0.119973
H	-1.4785116521	 2.852384896	 2.055910809	 0.114478
H	-0.0851408094	 4.7625812747	 1.4376059068	 0.081972
H	-0.5762303464	 4.2127533501	-1.2388247734	 0.103214
H	 0.879163007	 5.0872937536	-0.7481443043	 0.107994
H	 0.9191438049	 2.5967883531	-1.9308653362	 0.234009
H	 2.0906733097	 1.3800261677	-0.0214910141	 0.098757
H	 2.1308058928	 3.5085354292	 1.3500093475	 0.115906
H	 1.012498329	 2.4236593451	 2.2112786515	 0.111229
100.0797	140.6943	231.6204	351.6658	402.5725	421.8344	476.9404	597.3644	654.2225	724.9742	775.2306	823.4191	832.4148	860.3161	919.6975	943.8198	965.8993	988.2167	999.4754	1036.5312	1066.5688	1116.7313	1120.0286	1143.6114	1206.226	1221.9625	1244.4411	1259.6736	1303.9154	1323.5665	1329.0936	1359.3604	1375.5329	1421.6059	1436.3115	1492.0693	1512.4108	1526.8669	1842.0983	3016.5241	3024.2714	3046.5737	3060.9952	3079.9621	3083.3103	3103.5827	3112.8912	3557.0149
O=C1OCC2CNC1C2	O=C1OC[C@@H]2CN[C@H]1C2	
InChI=1S/C6H9NO2/c8-6-5-1-4(2-7-5)3-9-6/h4-5,7H,1-3H2	InChI=1S/C6H9NO2/c8-6-5-1-4(2-7-5)3-9-6/h4-5,7H,1-3H2/t4-,5-/m0/s1
