20
gdb 88031	2.28189	1.366	1.06468	0.9436	85.77	-0.2385	0.0395	0.278	1230.0034	0.169796	-365.948605	-365.939422	-365.938478	-365.982404	35.091	
C	-0.0663548276	 1.5244436339	-0.0881987346	-0.394413
C	 0.0065361929	 0.0232169486	 0.0390044081	-0.068916
N	 1.344307608	-0.592256609	-0.1335538954	-0.397072
C	 0.6873088923	-0.6580565686	 1.1621684092	 0.350452
C	 1.2041082287	-0.0699519706	 2.4774661218	-0.301517
C	 0.3116281396	-1.0984911167	 3.2285399804	-0.229869
C	 0.1726519283	-1.9194938075	 1.9002000296	-0.254575
C	-1.1094792446	-2.4842459676	 1.5367510836	 0.316813
C	-2.1796170735	-2.9349368328	 1.2203958584	-0.45077
H	 0.8208985472	 1.9931315391	 0.3453729897	 0.125821
H	-0.1209656808	 1.8215417333	-1.140902671	 0.120814
H	-0.9538458497	 1.9179715758	 0.4197859797	 0.115053
H	-0.8377449951	-0.520075862	-0.3832365987	 0.09535
H	 1.2677361835	-1.4857592195	-0.6153708215	 0.229506
H	 2.2729313773	-0.2586714388	 2.614655039	 0.111394
H	 1.0070580551	 0.9878175783	 2.6638263077	 0.107806
H	 0.7513032295	-1.6273200992	 4.0753099186	 0.107932
H	-0.6482360957	-0.6742998467	 3.5283367219	 0.117275
H	 0.9460272449	-2.6976787382	 1.8691261775	 0.103512
H	-3.1241274103	-3.3391879016	 0.9521948761	 0.195403
83.7128	109.7231	156.6556	187.0034	211.6903	249.847	339.5801	426.6641	455.8231	486.1298	554.4464	567.3065	614.7083	632.6544	699.0945	783.826	802.3455	851.7933	923.3805	930.7758	955.8827	1016.9352	1037.0868	1050.9892	1077.8075	1089.8183	1102.4411	1128.4391	1193.5936	1225.5284	1231.9024	1247.8528	1258.7026	1289.7492	1341.1613	1358.0869	1412.057	1469.3236	1479.7648	1492.139	1497.3816	1507.9242	2228.5006	3022.2119	3033.7082	3060.2117	3080.0802	3095.6262	3110.5695	3112.6471	3128.8646	3139.7232	3484.921	3503.0224
CC1NC11CCC1C#C	C[C@H]1N[C@]21CC[C@H]2C#C	
InChI=1S/C8H11N/c1-3-7-4-5-8(7)6(2)9-8/h1,6-7,9H,4-5H2,2H3	InChI=1S/C8H11N/c1-3-7-4-5-8(7)6(2)9-8/h1,6-7,9H,4-5H2,2H3/t6-,7-,8+/m1/s1
