25
gdb 100309	2.02209	1.26582	1.00992	1.4227	88.05	-0.2544	0.0723	0.3267	1366.3554	0.227465	-389.476903	-389.466057	-389.465113	-389.512492	41.125	
C	-0.2794180122	 1.5044934389	 0.1037080411	-0.409421
C	 0.005723589	 0.0072782956	-0.0600849143	-0.185401
C	 0.7945447278	-0.4216095756	-1.3256597807	 0.235618
C	 0.1507251433	 0.1493949296	-2.5995337592	-0.447593
C	 2.2497702543	 0.1004341597	-1.2594949724	-0.075277
O	 2.9860069776	-0.3850560291	-0.1464815157	-0.429166
C	 0.8363403679	-1.9567187874	-1.3227397189	 0.002905
C	-0.1246897903	-2.8355731982	-2.0816679358	-0.2836
C	 1.3283595026	-2.7867538982	-2.4864017498	-0.298342
H	 0.6396947342	 2.097916732	 0.1386780529	 0.120572
H	-0.902441108	 1.8985485487	-0.7051369963	 0.113185
H	-0.8135214572	 1.6839276285	 1.0422430277	 0.11258
H	 0.5703485382	-0.3413657764	 0.8118944894	 0.106932
H	-0.9455707226	-0.5397453969	-0.0557831232	 0.090148
H	 0.2802481851	 1.2346934856	-2.6474243073	 0.117813
H	 0.6007921501	-0.2663830325	-3.5069420424	 0.112232
H	-0.924026111	-0.0533852731	-2.6314995021	 0.117771
H	 2.7608795984	-0.1415868501	-2.2039440416	 0.082063
H	 2.2532211036	 1.1908463775	-1.1622638632	 0.104726
H	 3.1579371024	-1.3188816396	-0.3007788261	 0.284773
H	 1.1096357649	-2.3515412061	-0.3467831735	 0.082496
H	-0.4967619035	-3.7294307964	-1.5931058563	 0.10956
H	-0.8413428983	-2.3672804437	-2.7461596798	 0.113899
H	 1.5708479772	-2.2834189189	-3.4162181336	 0.113885
H	 1.9548239366	-3.6479859537	-2.2794800488	 0.107645
62.0135	80.8414	132.8928	173.8028	206.7059	253.9249	267.1395	290.1182	302.8991	332.8765	345.769	367.5743	427.7671	494.9944	562.9652	681.7817	785.3645	789.038	816.9985	836.348	904.2266	928.8345	950.4468	977.9841	993.9413	1027.3167	1055.1677	1066.299	1073.8463	1082.908	1103.7428	1144.6583	1158.1518	1202.5175	1220.6053	1227.2265	1249.0499	1260.5614	1325.981	1373.0292	1386.064	1397.0223	1407.1795	1414.4658	1423.1435	1468.161	1482.5256	1489.3904	1500.163	1504.5295	1508.1553	1509.3301	1515.8819	2985.4138	3024.7074	3036.9483	3040.0682	3066.3013	3074.0323	3099.5646	3103.1234	3107.8255	3110.7796	3123.6537	3130.982	3140.3127	3207.5627	3225.2422	3824.9032
CCC(C)(CO)C1CC1	CC[C@@](C)(CO)C1CC1	
InChI=1S/C8H16O/c1-3-8(2,6-9)7-4-5-7/h7,9H,3-6H2,1-2H3	InChI=1S/C8H16O/c1-3-8(2,6-9)7-4-5-7/h7,9H,3-6H2,1-2H3/t8-/m0/s1
