20
gdb 101068	2.59486	1.21162	0.96709	4.0403	80.41	-0.2684	0.0336	0.302	1287.9595	0.169136	-403.145916	-403.135951	-403.135007	-403.18098	36.079	
C	-0.2423467569	 1.4839442654	 0.0940363926	-0.239927
O	-0.1359360468	 0.0909604467	 0.2919615556	-0.255382
C	-1.2948835905	-0.6500056353	-0.0505832838	 0.044174
C	-1.4151838969	-0.8575080394	-1.5624378371	-0.41155
C	-1.2018830813	-1.9852555126	 0.7032089729	 0.185418
C	 0.1543931225	-2.6538813137	 0.8787915586	-0.2875
C	-0.5281290625	-2.0429006694	 2.065331045	-0.301227
C	-2.3415803429	-2.8438523416	 0.5101968834	 0.228656
N	-3.2676796963	-3.5193362238	 0.3496222401	-0.354852
H	 0.6791549746	 1.9302826737	 0.4749159087	 0.13322
H	-0.3470481867	 1.7508233563	-0.9665442548	 0.115733
H	-1.0967856051	 1.905193245	 0.6447491319	 0.112503
H	-2.1874850207	-0.1171636526	 0.3166814531	 0.083841
H	-2.2971193681	-1.4593072695	-1.7980211503	 0.147737
H	-1.5141939158	 0.0987154594	-2.0830304123	 0.119528
H	-0.5280526312	-1.371458057	-1.9438766673	 0.127997
H	 0.1951858	-3.7332674522	 0.7982830898	 0.134624
H	 0.9947441716	-2.1180358452	 0.4557241075	 0.1435
H	-0.1423051785	-1.101228873	 2.4334960611	 0.139057
H	-0.9656973087	-2.6993139812	 2.8076889856	 0.13445
63.2029	77.5225	139.511	190.9133	208.032	226.3899	233.702	273.2332	344.1084	391.0686	420.572	495.5346	568.3149	593.6654	701.3225	793.6308	856.2558	885.9348	912.5837	961.0035	971.4271	1057.1771	1078.1055	1089.6952	1102.9425	1123.5772	1159.2173	1184.3465	1202.5515	1221.4429	1272.5949	1310.9942	1360.0478	1384.8726	1407.1473	1451.5183	1477.4028	1484.8366	1487.9616	1492.1824	1503.7277	1513.0147	2346.3058	2967.6112	2988.4554	3040.7455	3048.6837	3118.576	3122.5538	3126.7286	3153.3327	3155.3064	3243.8461	3256.4794
COC(C)C1(CC1)C#N	CO[C@@H](C)C1(CC1)C#N	
InChI=1S/C7H11NO/c1-6(9-2)7(5-8)3-4-7/h6H,3-4H2,1-2H3	InChI=1S/C7H11NO/c1-6(9-2)7(5-8)3-4-7/h6H,3-4H2,1-2H3/t6-/m0/s1
