20
gdb 102242	2.55566	0.99962	0.77383	3.3408	81.56	-0.2405	0.0269	0.2674	1502.2302	0.168691	-403.158958	-403.148364	-403.14742	-403.196299	38.199	
C	 0.6888261813	-0.9971323061	-1.3023292295	-0.393852
C	 0.0613056228	-0.3354121566	-0.0746544925	-0.176373
C	 0.5628053257	-0.9109325401	 1.2728474388	-0.149154
C	-0.0285524492	-0.1069543486	 2.4642515137	-0.305502
C	 0.6822851618	-0.3655942222	 3.7928898059	 0.366055
N	 0.3500170029	-1.5403047412	 4.4111891126	-0.506547
O	 1.4673384327	 0.4306212153	 4.2699025543	-0.354702
C	 0.2539052288	-2.3378019667	 1.379729325	 0.34321
C	-0.039318429	-3.5028402597	 1.4592935447	-0.488653
H	 0.4652090103	-2.0672971671	-1.3328810138	 0.131544
H	 0.3077950249	-0.5448086787	-2.222675074	 0.117271
H	 1.778332116	-0.8817773053	-1.3005557474	 0.118015
H	 0.2839323026	 0.7377244975	-0.0766467142	 0.105649
H	-1.0303822583	-0.4316875139	-0.1117375249	 0.107488
H	 1.655130656	-0.7921770039	 1.3010725269	 0.121727
H	 0.0943671948	 0.9580375831	 2.2584235773	 0.128434
H	-1.0985543666	-0.3246344209	 2.5494306888	 0.116974
H	-0.0805407337	-2.2797970859	 3.877666107	 0.260024
H	 0.9213253111	-1.8075957239	 5.1980904692	 0.255019
H	-0.2749990249	-4.5374789353	 1.5101241421	 0.203374
11.8282	69.4722	113.0275	148.0391	163.3676	208.6033	258.8908	277.2924	365.5951	406.2953	444.7198	513.5139	538.8148	570.9817	587.7721	627.6278	643.2893	728.4759	773.7171	837.6702	868.238	922.3987	979.5195	1019.9911	1053.4351	1109.6398	1120.2278	1135.8025	1194.0995	1274.2964	1294.0478	1327.3536	1363.0105	1372.5465	1374.4407	1414.6573	1472.1614	1486.9424	1498.6155	1507.4431	1627.8862	1801.8394	2220.9917	3010.2937	3032.2874	3037.6027	3053.8549	3071.3933	3105.1972	3117.926	3123.2529	3498.8658	3569.1298	3698.4954
CCC(CC(N)=O)C#C	CC[C@@H](CC(=O)N)C#C	
InChI=1S/C7H11NO/c1-3-6(4-2)5-7(8)9/h1,6H,4-5H2,2H3,(H2,8,9)	InChI=1S/C7H11NO/c1-3-6(4-2)5-7(8)9/h1,6H,4-5H2,2H3,(H2,8,9)/t6-/m0/s1
