14
gdb 48830	2.80011	1.62487	1.15906	3.829	62.81	-0.2677	-0.0601	0.2077	1001.9223	0.101484	-473.842096	-473.834739	-473.833795	-473.874192	26.868	
O	-0.9329218539	 1.2582468693	-0.2696410359	-0.273584
C	 0.1757416466	 0.8588190789	 0.0002102425	 0.079028
C	 1.3664737595	 1.7433085525	-0.0609975788	 0.057198
N	 1.1526236827	 3.217880698	-0.0286471076	-0.346319
C	 1.6548955933	 2.61636988	-1.2460423132	-0.103172
C	 3.1686897556	 2.6871162932	-1.3386564996	-0.080271
O	 3.6793756893	 1.9984044352	-0.1823358588	-0.229991
C	 2.7013845758	 1.3403122541	 0.4983919877	 0.446061
O	 2.9253377204	 0.5515603239	 1.3692076347	-0.340217
H	 0.3715224938	-0.1841148526	 0.3118142865	 0.121851
H	 0.1402518402	 3.3401027601	-0.1156289037	 0.26158
H	 1.0402476318	 2.5707605523	-2.1383083279	 0.133244
H	 3.542444415	 2.1826544637	-2.2352394498	 0.130373
H	 3.5374178899	 3.7156367514	-1.3133770561	 0.144219
117.9398	156.9054	181.4234	227.1652	285.6925	371.7352	439.6915	545.921	645.6156	720.0787	748.7618	785.1659	862.4457	885.0135	936.8739	996.7271	1033.7805	1049.0449	1071.3237	1089.0082	1139.0103	1196.6638	1234.2412	1297.9794	1337.544	1400.7682	1421.3108	1428.9332	1503.5702	1796.5847	1881.3725	2967.9022	3056.2999	3111.478	3184.1136	3438.3218
O=CC12NC1COC2=O	O=C[C@]12N[C@H]1COC2=O	
InChI=1S/C5H5NO3/c7-2-5-3(6-5)1-9-4(5)8/h2-3,6H,1H2	InChI=1S/C5H5NO3/c7-2-5-3(6-5)1-9-4(5)8/h2-3,6H,1H2/t3-,5-/m0/s1
