18
gdb 95596	2.29903	1.70173	1.02005	4.9798	74.52	-0.2522	-0.0607	0.1915	1151.8096	0.147811	-439.116604	-439.108018	-439.107074	-439.150729	31.692	
C	-0.021092216	 1.56167769	 0.0132413189	-0.404585
C	 0.0474868412	 0.0357873267	-0.0364490812	-0.095806
C	 0.8420470599	-0.5215305995	-1.2257698069	-0.235384
C	 0.8125966983	-2.038293818	-1.1948007406	-0.081477
O	 1.3762153264	-2.5747706124	 0.0094874721	-0.254776
C	 1.1473436667	-1.9837369498	 1.2163379888	 0.290055
N	 1.4330924491	-2.5642992864	 2.3037149378	-0.462205
C	 0.5921741881	-0.5517924464	 1.262703243	 0.327472
O	 0.5958249857	 0.0575513415	 2.300839151	-0.274094
H	 0.9830740949	 1.994347309	 0.066541625	 0.126589
H	-0.5154971291	 1.951767882	-0.8812212328	 0.111834
H	-0.56972065	 1.8950393311	 0.8956392966	 0.144437
H	-0.9779739973	-0.3635983151	-0.1176180019	 0.109073
H	 0.4142264429	-0.1688711655	-2.1706459227	 0.114445
H	 1.8803163685	-0.1686154332	-1.1885799754	 0.119813
H	-0.2194759444	-2.4029184985	-1.2965922991	 0.112066
H	 1.4044701753	-2.4750762912	-2.0026167257	 0.124421
H	 1.7996856598	-3.4997876443	 2.1099969232	 0.228122
31.3574	87.3329	191.0753	242.3023	276.763	320.877	359.0202	419.6501	433.5687	476.4743	563.4109	630.1849	669.9183	777.0827	861.8869	898.6729	921.4554	952.9118	976.5688	1021.2242	1038.3803	1100.9743	1144.0313	1157.8864	1182.0241	1215.084	1274.7359	1299.3041	1323.6239	1344.6126	1381.1756	1412.0566	1426.5727	1483.0697	1491.0611	1498.0158	1513.9948	1715.9244	1821.1111	2968.9476	3008.0149	3033.2324	3046.1521	3079.8391	3100.9548	3111.4852	3140.8014	3456.8533
CC1CCOC(=N)C1=O	C[C@H]1CCO[C]([NH])C1=O	
InChI=1S/C6H9NO2/c1-4-2-3-9-6(7)5(4)8/h4,7H,2-3H2,1H3	InChI=1S/C6H9NO2/c1-4-2-3-9-6(7)5(4)8/h4,7H,2-3H2,1H3/t4-/m0/s1
