20
gdb 101562	3.31325	0.8195	0.72734	0.3741	72.29	-0.2498	0.0101	0.2599	1604.212	0.168911	-477.449759	-477.438882	-477.437938	-477.48726	37.607	
C	 0.0454277696	 1.5336635898	-0.083863367	-0.398921
C	 0.0813171166	 0.0131733695	-0.0066270117	 0.111679
C	 0.6723995429	-0.5228275083	 1.2949795442	-0.071313
O	-0.0355631823	-0.0787502642	 2.4360965354	-0.41755
O	-1.2773498856	-0.5143088655	-0.0373006415	-0.274609
C	-1.8483954154	-0.7004636146	-1.2437494798	 0.422186
O	-1.310738531	-0.4655463537	-2.2967348141	-0.360568
C	-3.2645805609	-1.2538183718	-1.0952911554	-0.274103
N	-3.9728727406	-1.4851769837	-2.340324946	-0.484549
H	 1.0667891793	 1.9273686249	-0.0882128654	 0.12207
H	-0.4487422285	 1.8581275113	-1.0018696309	 0.136148
H	-0.4767715995	 1.9455984287	 0.7826722429	 0.133827
H	 0.6207951513	-0.4012665839	-0.8631316124	 0.108167
H	 0.7080099685	-1.6219434259	 1.2459076659	 0.0943
H	 1.6997899806	-0.1591874523	 1.3999649453	 0.114565
H	-0.9489042785	-0.3633650455	 2.3191850688	 0.290635
H	-3.2018968425	-2.1864532396	-0.5219950395	 0.137187
H	-3.8324960697	-0.5587680585	-0.4655880267	 0.137693
H	-4.0153514509	-0.6150637921	-2.8638778095	 0.236424
H	-3.4222266532	-2.1097605245	-2.9232205524	 0.236731
32.1881	57.3011	86.3055	92.6289	164.9631	210.6269	227.844	250.7649	285.8038	323.2503	397.4121	420.834	470.9013	579.35	625.5757	713.0838	823.5494	887.0261	919.9553	923.1621	927.2649	961.4371	1009.5234	1073.1848	1142.4804	1151.8821	1155.9047	1178.7332	1213.5575	1240.1367	1339.9813	1364.4576	1383.5567	1388.8494	1389.6415	1417.5681	1428.9104	1455.6006	1489.7477	1493.6528	1500.9789	1678.1426	1816.6667	2990.2011	3040.6302	3051.0356	3076.4862	3078.5118	3082.4374	3122.7752	3144.0196	3494.3904	3561.8032	3806.8333
CC(CO)OC(=O)CN	C[C@@H](CO)OC(=O)CN	
InChI=1S/C5H11NO3/c1-4(3-7)9-5(8)2-6/h4,7H,2-3,6H2,1H3	InChI=1S/C5H11NO3/c1-4(3-7)9-5(8)2-6/h4,7H,2-3,6H2,1H3/t4-/m0/s1
