20
gdb 33091	6.10425	0.77173	0.69404	2.2402	84.73	-0.181	0.0523	0.2333	1667.6847	0.17032	-403.185463	-403.175698	-403.174754	-403.220526	35.365	
C	-0.0717960331	 1.5335466671	-0.0082413634	-0.391382
C	-0.0134407887	 0.0166207803	 0.0132136633	-0.037671
O	-1.3410146713	-0.4793249545	-0.0151082893	-0.272827
C	-1.4651060913	-1.8323651132	-0.000569144	 0.37213
C	-0.4830800981	-2.7996067235	 0.0379042865	-0.230186
N	-1.1342893153	-4.0215341615	 0.0362589552	-0.314502
C	-2.4923250651	-3.8438650545	-0.0011058054	 0.347535
C	-3.4422885772	-4.9962073708	-0.0090105064	-0.501382
C	-2.7290022938	-2.4864743468	-0.0254542012	-0.372021
H	 0.9390048483	 1.951883542	 0.0128380491	 0.11387
H	-0.5750342142	 1.8863971026	-0.9128108495	 0.128527
H	-0.6216079357	 1.9096545361	 0.8590816836	 0.128528
H	 0.5450205718	-0.3677446732	-0.8545386381	 0.094349
H	 0.4984848401	-0.3444520957	 0.9188464475	 0.094357
H	 0.5903145615	-2.7360902576	 0.0647975317	 0.109793
H	-0.6725108183	-4.9129861547	 0.0598808476	 0.252417
H	-3.3496955405	-5.6162208213	 0.8917599492	 0.124657
H	-4.4701791126	-4.6295355486	-0.052003856	 0.137904
H	-3.2890658625	-5.6534579436	-0.8743415782	 0.124284
H	-3.6928777038	-2.0034288688	-0.0572046021	 0.09162
60.3086	85.3971	103.5535	141.3161	207.5139	250.1839	302.3042	313.1387	346.4465	403.3955	460.1671	621.64	641.1704	652.0273	681.7629	739.7725	785.8737	829.8935	913.7265	976.2875	1002.9485	1015.0392	1060.3575	1081.1063	1136.5359	1141.7069	1189.3168	1190.7198	1273.2463	1293.5667	1318.9513	1397.7553	1413.3423	1419.5318	1453.906	1457.5671	1480.7732	1483.8065	1501.4667	1509.5644	1527.0757	1564.1889	1639.2982	2974.5198	3004.0487	3015.3633	3045.4813	3058.6287	3119.5778	3123.0281	3124.2325	3256.2768	3284.7738	3688.1013
CCOC1=CNC(C)=C1	CCOc1c[nH]c(C)c1	
InChI=1S/C7H11NO/c1-3-9-7-4-6(2)8-5-7/h4-5,8H,3H2,1-2H3	InChI=1S/C7H11NO/c1-3-9-7-4-6(2)8-5-7/h4-5,8H,3H2,1-2H3
