16
gdb 56423	3.82878	0.59571	0.54502	2.6533	79.53	-0.2628	-0.0392	0.2236	1951.8573	0.121089	-400.742135	-400.731985	-400.731041	-400.78024	33.757	
C	-0.2676285164	 1.4868340544	 0.135476187	-0.381597
C	 0.0856872556	-0.0099658317	-0.0522090652	-0.300453
C	 0.7486817533	-0.2249275074	-1.3507841458	 0.289121
N	 1.2543108224	-0.3781943141	-2.3778153885	-0.317531
C	 0.909527235	-0.5232660896	 1.0444760662	 0.11417
C	 1.5877990691	-0.9086639304	 1.9601415882	 0.048452
C	 2.3766093131	-1.4379595251	 3.0623342532	-0.415953
C	 1.9994065147	-2.882563037	 3.4082285546	 0.170383
O	 1.9511346879	-3.301814871	 4.5311826338	-0.224794
H	 0.6404352952	 2.0924028925	 0.1551337733	 0.150798
H	-0.9040230678	 1.8284966369	-0.68400044	 0.142329
H	-0.7981569928	 1.6164095532	 1.0810033205	 0.140372
H	-0.8528534399	-0.5804470166	-0.082815438	 0.159725
H	 3.4426067806	-1.4454475576	 2.7883447677	 0.164919
H	 2.2832791057	-0.8320762221	 3.9691665169	 0.159697
H	 1.7871713642	-3.5236648843	 2.5259246759	 0.100363
11.1333	50.9948	81.647	104.3563	176.567	204.0006	231.1593	278.6945	373.4847	427.2011	464.2305	497.4351	563.6692	582.6717	721.1336	774.1985	867.0152	995.0678	1030.3842	1041.5502	1073.67	1091.4758	1184.8494	1210.73	1286.3015	1297.7913	1328.9399	1407.9611	1416.0644	1439.7049	1489.6777	1496.8762	1843.4063	2363.4974	2376.1656	2908.298	3007.9098	3018.4866	3058.818	3085.1263	3141.9892	3147.4853
CC(C#N)C#CCC=O	C[C@@H](C#N)C#CCC=O	
InChI=1S/C7H7NO/c1-7(6-8)4-2-3-5-9/h5,7H,3H2,1H3	InChI=1S/C7H7NO/c1-7(6-8)4-2-3-5-9/h5,7H,3H2,1H3/t7-/m1/s1
