21
gdb 119361	3.00899	1.04771	0.9204	2.8222	83.48	-0.2351	0.0155	0.2505	1384.4502	0.18227	-387.070381	-387.061364	-387.06042	-387.104716	33.813	
C	-0.0118505296	 1.565415658	-0.0057793633	-0.381711
C	-0.0013827112	 0.035185933	-0.0075155107	-0.172638
C	-1.4128015534	-0.5702142045	 0.0380075213	-0.33494
C	-1.4065329055	-2.074069785	 0.0081705637	 0.218009
C	-0.7620528119	-3.0857530476	 1.0325610217	-0.264335
C	-1.4008969082	-4.0320109343	-0.0378006158	-0.173264
C	-2.6305664868	-3.0636761629	-0.0027457909	-0.283663
C	-0.8284006469	-3.0319004281	-1.0516285699	 0.43765
O	-0.2487384191	-2.9986550734	-2.094434743	-0.339968
H	 1.0044641748	 1.9698475744	-0.0366090496	 0.11372
H	-0.5528149347	 1.95837069	-0.8737196742	 0.116765
H	-0.5000188264	 1.958402352	 0.893278058	 0.112045
H	 0.5132128067	-0.3340416561	-0.9022932295	 0.124159
H	 0.5753859271	-0.3288728033	 0.8523219284	 0.096937
H	-1.9403729069	-0.2196242598	 0.9354667481	 0.098185
H	-1.9929755656	-0.2053599271	-0.820266347	 0.10706
H	 0.3251956394	-3.0910023759	 1.1302765496	 0.112132
H	-1.2589660778	-3.109577685	 2.0060659544	 0.104359
H	-1.4056448531	-5.1189726672	-0.050069259	 0.094092
H	-3.1940032262	-3.0873026152	 0.9338057244	 0.104598
H	-3.2893982648	-3.044722502	-0.8735005864	 0.110809
60.1864	88.1376	121.9855	192.0783	230.5071	249.0829	312.6658	371.4794	487.8176	519.2457	686.8567	707.3466	756.0829	774.9045	794.3769	819.0074	872.9692	901.5271	928.2383	940.0666	985.1846	1008.5756	1037.4824	1048.394	1071.1086	1086.7319	1097.2588	1148.3434	1178.8695	1196.2709	1201.1697	1224.6613	1274.9862	1306.55	1331.5897	1357.8677	1399.6185	1414.3943	1480.1668	1493.914	1495.644	1499.844	1510.6519	1532.1339	1906.0009	3009.2327	3026.0353	3029.8706	3040.8633	3057.2946	3058.1056	3067.5952	3097.6524	3103.9019	3128.7371	3131.0154	3155.1948
CCCC12CC(C1)C2=O	CCC[C@@]12C[C@@H](C1)C2=O	
InChI=1S/C8H12O/c1-2-3-8-4-6(5-8)7(8)9/h6H,2-5H2,1H3	InChI=1S/C8H12O/c1-2-3-8-4-6(5-8)7(8)9/h6H,2-5H2,1H3/t6-,8+
