16
gdb 46632	2.90845	1.70672	1.15037	5.0549	71.53	-0.2264	-0.0033	0.2231	1021.3349	0.126557	-437.913815	-437.906607	-437.905662	-437.945713	27.439	
O	-0.0824458159	-0.028578077	 0.2432918889	-0.362651
C	-0.0111072425	 1.1675118734	 0.1006865565	 0.377148
N	-1.0747977491	 2.0407666311	 0.0082927302	-0.321683
C	-0.7470270967	 3.4708540121	-0.0338495841	-0.263599
C	 0.713935669	 3.4043360157	 0.2991329108	 0.286473
C	 1.5713055392	 3.9946864118	 1.1190974577	-0.249093
C	 2.7616726613	 3.0763631122	 1.3003228225	-0.10855
O	 2.3685888649	 1.8246281474	 0.7184187759	-0.268796
C	 1.2400428544	 2.0563763401	-0.095435549	-0.037091
H	-2.021016248	 1.6934194167	 0.0203943289	 0.254185
H	-0.9421519972	 3.898847709	-1.0279501864	 0.12258
H	-1.324448962	 4.0435051452	 0.6997218663	 0.128829
H	 1.4508513818	 4.9272394261	 1.6553891263	 0.112505
H	 3.6745183798	 3.4530332869	 0.8099846044	 0.108249
H	 2.9996534338	 2.9157757317	 2.3597613994	 0.121434
H	 1.5130089471	 1.9854974877	-1.1645108984	 0.100061
96.243	142.1191	237.7501	254.7694	333.5619	463.3939	533.3884	589.4806	605.2102	647.375	728.5073	785.6387	812.8258	904.4535	930.8607	953.0625	993.4993	1021.5578	1029.1918	1040.3763	1120.7683	1177.1312	1194.6117	1198.9774	1233.8272	1247.2819	1292.9641	1326.8165	1354.0672	1375.7746	1439.7847	1515.8329	1519.2366	1754.4738	1848.9598	2932.111	2968.8401	2994.7215	3035.6035	3061.8142	3218.2891	3636.7807
O=C1NCC2=CCOC12	O=C1NC[C]2[CH]CO[C@@H]12	
InChI=1S/C6H7NO2/c8-6-5-4(3-7-6)1-2-9-5/h1,5H,2-3H2,(H,7,8)	InChI=1S/C6H7NO2/c8-6-5-4(3-7-6)1-2-9-5/h1,5H,2-3H2,(H,7,8)/t5-/m1/s1
