19
gdb 119290	2.13237	1.31161	0.95778	2.4083	76.8	-0.2407	0.0176	0.2583	1301.3077	0.158338	-419.183523	-419.173976	-419.173032	-419.218572	34.048	
C	 0.0151843397	 1.5489291652	-0.0522688839	-0.384775
C	-0.0635657512	 0.0334111769	-0.0147095917	-0.071965
O	 0.7273685121	-0.469084839	-1.0923529021	-0.286727
C	 0.7461827092	-1.86126128	-1.2383078833	 0.285558
C	-0.5440450713	-2.4992849476	-1.8586320058	-0.221573
N	 0.1120089464	-2.4932564752	-3.1839531828	-0.310806
C	 1.4379587723	-2.2411155151	-2.5777819816	-0.20799
C	 1.2651454087	-2.5328888123	-0.0363591238	 0.233342
N	 1.6678197561	-3.0652664776	 0.9076174711	-0.349311
H	 1.0510351568	 1.8813033615	 0.0568243773	 0.133767
H	-0.3723093651	 1.9324409045	-1.0001042696	 0.131202
H	-0.5747439599	 1.9757503292	 0.7640090928	 0.121861
H	 0.3169309866	-0.3562174991	 0.9399569672	 0.119632
H	-1.1047700517	-0.3046488672	-0.1209259877	 0.098044
H	-0.7613556548	-3.4905840809	-1.4427800534	 0.114811
H	-1.4431202555	-1.8778339604	-1.7976726338	 0.12082
H	 0.0377286233	-3.3631541255	-3.6969751333	 0.228108
H	 1.9941557188	-1.4124077249	-3.0251700592	 0.130467
H	 2.0896554494	-3.1172754825	-2.4827839665	 0.115536
59.8625	90.3532	114.925	155.8586	182.7719	214.9948	253.1401	346.4485	390.3499	421.4601	530.5158	567.2778	651.4899	692.5247	823.7443	852.7814	910.0027	912.8314	963.7531	1000.371	1036.6095	1064.9498	1080.7038	1128.3276	1140.2885	1161.3691	1187.6252	1205.1067	1252.925	1272.39	1306.3008	1355.4323	1380.8498	1402.6395	1430.131	1483.9093	1487.6553	1499.823	1510.6082	1527.2398	2347.4361	2993.9938	3022.6671	3032.3317	3033.0875	3048.2142	3078.8505	3093.7359	3123.5522	3127.1662	3550.9595
CCOC1(CNC1)C#N	CCOC1(CNC1)C#N	
InChI=1S/C6H10N2O/c1-2-9-6(3-7)4-8-5-6/h8H,2,4-5H2,1H3	InChI=1S/C6H10N2O/c1-2-9-6(3-7)4-8-5-6/h8H,2,4-5H2,1H3
