22
gdb 88535	3.29245	1.22714	1.11191	1.1842	86.95	-0.2195	0.0889	0.3083	1205.2528	0.195296	-367.126916	-367.118597	-367.117653	-367.160184	32.867	
C	-0.726451607	 1.0898396106	 0.0724451001	-0.314743
N	 0.0303947897	-0.1533118476	 0.0555828055	-0.08858
C	 1.3921682799	-0.1157047647	-0.4579462999	-0.258741
C	 1.1374118534	-0.3656659705	 0.9927791895	-0.147359
C	 1.5786104456	 0.5882235289	 2.0584681784	 0.374622
C	 1.967537443	 2.1037593136	 1.9977193443	-0.263138
C	 2.2023222038	 1.6754869606	 3.4723318697	-0.053352
C	 0.8469609874	 0.9193845731	 3.4038314814	-0.253412
C	 2.8702474239	 0.3880289653	 2.9189371174	-0.252155
H	-0.1159405793	 1.9972318281	 0.1829580959	 0.105318
H	-1.2799282105	 1.1696536727	-0.8691619697	 0.121106
H	-1.4550964574	 1.0618027038	 0.8889737238	 0.121853
H	 1.6824565045	-0.9254848214	-1.1231387908	 0.111041
H	 1.8089104104	 0.8573330923	-0.7188618224	 0.10367
H	 1.1842336926	-1.4006776509	 1.3341975679	 0.084284
H	 2.8565606237	 2.3558987629	 1.4119334867	 0.089113
H	 1.1593778732	 2.8182928304	 1.822630932	 0.091987
H	 2.5624795694	 2.305848876	 4.2854285542	 0.071953
H	-0.0569476602	 1.5308627664	 3.3309129945	 0.08934
H	 0.711435283	 0.0881527234	 4.1018055235	 0.089398
H	 2.8827794538	-0.4845275849	 3.5789565129	 0.088653
H	 3.8245956171	 0.5100708019	 2.3984956051	 0.089141
42.9121	141.1614	187.9969	223.0412	266.1679	350.802	409.9974	475.5531	536.1633	558.0107	646.716	757.0152	797.6327	811.3822	869.244	894.2289	931.8467	953.7974	954.9254	960.7479	999.5601	1012.4407	1040.3132	1085.552	1098.571	1100.9402	1125.1475	1134.5058	1141.6683	1145.0882	1158.223	1164.9231	1176.4366	1205.9623	1233.4446	1237.0399	1242.9017	1303.2704	1347.9259	1416.6624	1448.932	1490.7999	1496.528	1497.9636	1502.4411	1511.9836	1554.3272	2998.6495	3040.9773	3043.3262	3050.668	3069.1828	3081.6056	3089.7246	3098.0134	3105.6883	3110.7757	3111.7869	3114.4094	3167.2492
CN1CC1C12CC(C1)C2	CN1C[C@H]1[C@@]12C[C@@H](C1)C2	
InChI=1S/C8H13N/c1-9-5-7(9)8-2-6(3-8)4-8/h6-7H,2-5H2,1H3	InChI=1S/C8H13N/c1-9-5-7(9)8-2-6(3-8)4-8/h6-7H,2-5H2,1H3/t6-,7-,8-,9?/m0/s1
