17
gdb 95446	2.7216	1.40859	0.98687	7.4064	73.13	-0.212	-0.0131	0.1989	1160.1573	0.138631	-455.187091	-455.178866	-455.177922	-455.220102	31.031	
N	 0.0289093582	 1.0346352237	 0.018335331	-0.524505
H	 0.0562703086	 0.0207301179	-0.0477181028	 0.241413
H	 1.6069021498	 1.6608038089	 1.0054899675	 0.304179
H	-0.3683588661	 1.3939667879	-0.8445329475	 0.236541
C	-0.7501118697	 1.4594613581	 1.1944638064	-0.117869
C	-2.1994161671	 0.8926824142	 1.3561295408	-0.185794
N	-2.0829280705	-0.0980044871	 2.4360927221	-0.29472
C	-0.9011793426	 0.1227423713	 3.1040486078	-0.07452
C	-0.0720732549	 0.969689068	 2.4624659251	 0.094352
C	 1.3183589924	 1.2536662228	 2.848965614	 0.347383
O	 1.7729409018	 1.0565059052	 3.9508925266	-0.358965
O	 2.083457071	 1.767598163	 1.855826853	-0.396763
H	-0.7834886427	 2.553398778	 1.141687533	 0.103403
H	-2.8925820064	 1.6955075629	 1.6363573253	 0.116751
H	-2.5665600377	 0.4333160907	 0.4318269562	 0.108108
H	-2.908280153	-0.349758893	 2.9569806164	 0.2507
H	-0.6871335211	-0.4092027326	 4.0219232253	 0.150305
88.7169	113.5273	186.0938	199.8854	336.9219	348.7628	409.8457	434.1921	458.2466	491.6547	611.7409	708.3731	754.9973	777.7818	832.7517	847.5751	865.0393	910.915	959.2897	990.7325	1018.3818	1090.2617	1139.6303	1153.4424	1172.0968	1237.4829	1248.3037	1290.0925	1329.9359	1350.1988	1420.3419	1434.5887	1460.49	1509.9296	1644.0839	1674.3216	1824.5061	3017.7301	3041.6733	3066.9524	3232.954	3478.6447	3488.7283	3573.3239	3627.033
[NH3+]C1CNC=C1C([O-])=O	N[C@H]1CNC=C1C(=O)O	
InChI=1S/C5H8N2O2/c6-4-2-7-1-3(4)5(8)9/h1,4,7H,2,6H2,(H,8,9)	InChI=1S/C5H8N2O2/c6-4-2-7-1-3(4)5(8)9/h1,4,7H,2,6H2,(H,8,9)/t4-/m0/s1
