16
gdb 14450	3.46201	2.48975	2.04602	1.3924	68.54	-0.2168	0.0103	0.2271	724.9686	0.131706	-346.548391	-346.542255	-346.541311	-346.578123	25.605	
O	-0.0423730853	 1.3736872412	 0.0563595377	-0.469696
C	 0.0388399065	-0.0001766036	 0.0209695825	 0.404063
C	 0.7385733253	-0.948797732	 1.025723006	-0.317252
C	 0.0423260248	-1.8678858124	-0.0017758372	-0.046039
C	-1.2239127706	-0.9310514888	-0.0142813111	-0.08991
C	-1.7514149524	-0.9270445709	-1.4366702757	-0.10756
C	-0.6489310392	-0.9357060923	-2.1915892966	-0.10546
C	 0.4856474774	-0.9407860015	-1.1886908011	-0.129633
H	 0.8429015544	 1.731816274	 0.18329808	 0.284655
H	 1.8331798472	-0.9519423401	 1.023932645	 0.084577
H	 0.3431529787	-0.9590263059	 2.0453444421	 0.093634
H	 0.0282582202	-2.9571570498	-0.0187025562	 0.078951
H	-1.9056900735	-0.936742751	 0.8368586186	 0.063702
H	-2.7903921164	-0.9092625613	-1.7331110999	 0.100268
H	-0.5525166259	-0.9196932829	-3.2679789093	 0.099216
H	 1.5262679187	-0.9489263228	-1.5168636747	 0.056485
206.4587	276.399	307.5958	430.7429	458.8545	545.6438	614.9695	702.8519	737.8905	770.8414	807.0293	816.0293	901.3722	908.9111	913.2064	950.3846	973.0485	983.9268	999.4823	1033.3648	1064.5313	1105.2038	1121.9198	1130.6507	1187.1546	1188.8056	1208.5154	1256.4867	1290.7697	1291.4773	1337.2018	1371.879	1516.5308	1630.4291	3042.5011	3103.6948	3105.9853	3114.0176	3128.3278	3221.4323	3248.1889	3807.6878
OC12CC3C1C=CC23	O[C@@]12C[C@H]3[C@@H]1C=C[C@@H]23	
InChI=1S/C7H8O/c8-7-3-4-5(7)1-2-6(4)7/h1-2,4-6,8H,3H2	InChI=1S/C7H8O/c8-7-3-4-5(7)1-2-6(4)7/h1-2,4-6,8H,3H2/t4-,5-,6+,7-
