18
gdb 116570	3.53506	1.00995	0.92563	1.8503	76.3	-0.2452	0.0142	0.2594	1336.9398	0.146344	-439.043934	-439.035143	-439.034199	-439.078455	32.442	
C	 1.0054974775	 0.0530988688	-0.0662274799	-0.359736
C	-0.4990939617	 0.3293838087	-0.0798066415	-0.154889
N	-1.241914506	-0.9057909498	 0.154484164	-0.339814
C	-2.0813337045	-1.2993797688	-0.6778670686	 0.481533
O	-2.5062774787	-0.7005609527	-1.8940571139	-0.306634
C	-3.5529956195	-1.6979654737	-2.0145197847	 0.012452
C	-2.9123606082	-3.0161149866	-2.2225238922	 0.132101
O	-1.7312970104	-3.1792944615	-2.9217797773	-0.422838
C	-3.0204506624	-2.4462608441	-0.7905005205	-0.294559
H	 1.5673855822	 0.9865519776	-0.1705330177	 0.111301
H	 1.2985945795	-0.4291687607	 0.8703791289	 0.128712
H	 1.2883731383	-0.610281992	-0.8895061099	 0.117057
H	-0.7452999239	 1.0174058798	 0.7384042962	 0.111086
H	-0.7882881102	 0.8212589306	-1.0174841551	 0.109783
H	-4.5386339292	-1.3450006568	-2.2893390221	 0.12434
H	-3.5877360319	-3.851764582	-2.3829375708	 0.126222
H	-1.346592847	-2.3002750477	-3.0364951436	 0.300901
H	-3.513386414	-2.9608618892	 0.0213333185	 0.122985
31.1666	87.448	168.0659	183.3562	249.997	274.9783	363.4243	397.1496	467.3697	512.3908	663.6334	701.6349	733.3142	765.9498	810.6852	817.1899	872.4269	905.9182	953.113	978.8134	1011.2714	1051.4834	1055.3945	1072.5241	1112.6573	1120.0661	1169.1624	1179.5791	1272.3455	1298.5445	1307.8767	1350.3339	1378.7697	1407.6337	1456.9203	1488.9253	1494.282	1512.5691	1856.0475	3014.6647	3039.6922	3051.9132	3110.6197	3121.0001	3164.9649	3200.5371	3229.1881	3770.5576
CCN=C1OC2C(O)C12	CCN=C1O[C@H]2[C@@H](O)[C@@H]12	
InChI=1S/C6H9NO2/c1-2-7-6-3-4(8)5(3)9-6/h3-5,8H,2H2,1H3	InChI=1S/C6H9NO2/c1-2-7-6-3-4(8)5(3)9-6/h3-5,8H,2H2,1H3/t3-,4+,5-/m1/s1
