22
gdb 122825	6.58848	0.50753	0.47821	2.4182	81.5	-0.2568	0.0401	0.2968	2316.9626	0.191945	-441.495171	-441.483834	-441.48289	-441.533382	38.657	
C	 0.0430621837	 1.5795951289	-0.10402702	-0.380164
C	 0.0346712221	 0.0495872695	-0.05024921	-0.165398
C	 0.7184946174	-0.5922708346	-1.2625382925	-0.183672
C	 0.7023910348	-2.1107644992	-1.195178044	-0.052095
O	 1.362639007	-2.6084853086	-2.3689902529	-0.254496
C	 1.4480464348	-3.9462483412	-2.4875763436	 0.396295
N	 0.9824047142	-4.7502972471	-1.6297561501	-0.527654
C	 2.1692545706	-4.2923702716	-3.7747274748	-0.166084
O	 2.2456937259	-5.6983523297	-3.8753917871	-0.413776
H	 1.0668101286	 1.9684757226	-0.1360745972	 0.114982
H	-0.4772362383	 1.9467322517	-0.9955508325	 0.114982
H	-0.4505330795	 2.0118558392	 0.7717802188	 0.112885
H	 0.5313008048	-0.2877730953	 0.8688789542	 0.099722
H	-1.0007091739	-0.3093447208	 0.016125542	 0.09972
H	 0.2219324898	-0.269600163	-2.1862309645	 0.101594
H	 1.758028607	-0.2479582687	-1.3312159344	 0.101592
H	 1.2209249106	-2.4859847171	-0.3057172651	 0.117405
H	-0.3185165181	-2.5076295887	-1.1624522333	 0.117376
H	 1.1671548902	-5.7047694945	-1.9368374586	 0.240123
H	 1.6161046704	-3.8423319504	-4.6131001574	 0.114983
H	 3.1630316816	-3.8198443225	-3.7523945658	 0.114982
H	 2.7027616763	-5.9208519391	-4.6906937713	 0.296697
39.0653	66.5325	71.0142	85.094	125.6508	156.7136	187.9243	217.632	246.8308	274.8992	336.7681	427.0292	508.6665	561.3359	669.573	744.6677	806.6712	890.3291	892.1879	931.2678	950.424	996.3242	1041.0987	1052.7523	1073.441	1118.6496	1128.0269	1148.4869	1193.2343	1216.1058	1239.5157	1252.422	1293.2316	1304.8837	1327.3774	1363.2118	1389.6041	1412.8664	1421.4169	1468.2271	1488.8675	1495.9863	1499.6719	1503.4163	1509.341	1522.6669	1745.2211	2984.8873	3013.7998	3016.3142	3025.7451	3031.4529	3040.5638	3041.7177	3061.2376	3087.159	3098.6165	3103.589	3503.0838	3849.4709
CCCCOC(=N)CO	CCCCO[C]([NH])CO	
InChI=1S/C6H13NO2/c1-2-3-4-9-6(7)5-8/h7-8H,2-5H2,1H3	InChI=1S/C6H13NO2/c1-2-3-4-9-6(7)5-8/h7-8H,2-5H2,1H3
