22
gdb 122294	4.73954	0.68803	0.66901	3.0168	83.06	-0.2246	0.0763	0.3009	1738.9664	0.19462	-404.263548	-404.254315	-404.253371	-404.29859	34.335	
O	-0.0305025768	 1.4438543824	 0.0377302656	-0.422096
C	 0.0400068517	 0.0266362638	 0.0016060144	-0.073903
C	-1.3829230664	-0.5142211094	 0.027735053	-0.165568
C	-1.4411084128	-2.0457682306	-0.0077034662	-0.361229
C	-2.8523926651	-2.5876267319	 0.0190100696	 0.337757
C	-4.018573684	-2.3617239541	-0.9789694731	-0.200767
N	-4.6693570974	-3.298000998	 0.0533002644	-0.144755
C	-3.3334155085	-4.0581919781	-0.0048070929	-0.21875
C	-3.9587055872	-2.414881173	 1.092893387	-0.200746
H	 0.8660406269	 1.7908755754	 0.0214316571	 0.28544
H	 0.5544992251	-0.3246191118	-0.9083860851	 0.083615
H	 0.6032786576	-0.3673571368	 0.8639623719	 0.083615
H	-1.8798871717	-0.1378129133	 0.9299271252	 0.109408
H	-1.9283053509	-0.0953384274	-0.8264858957	 0.109426
H	-0.9360749715	-2.4175078598	-0.9102165004	 0.097905
H	-0.8866763534	-2.4599704214	 0.8460151325	 0.097901
H	-4.4826626263	-1.3722021718	-1.0204044307	 0.099994
H	-3.9361285328	-2.803384581	-1.9767539914	 0.09578
H	-3.1974022599	-4.6310906839	-0.9271900242	 0.095607
H	-3.1452554151	-4.6774143655	 0.8776091647	 0.09561
H	-3.8194069689	-2.9069809684	 2.060300369	 0.095773
H	-4.4181898227	-1.4294900753	 1.2117419853	 0.099983
56.9114	76.3947	99.2426	128.7766	258.7304	267.3797	307.5078	316.5186	472.9278	584.7357	588.5273	671.9382	745.7294	783.0102	797.7492	862.0796	896.4855	940.6844	963.1187	972.9005	978.4397	1025.1323	1033.37	1046.152	1073.8039	1081.9396	1147.787	1167.1529	1168.2001	1185.9763	1199.1191	1201.0018	1234.9812	1241.7755	1264.4118	1307.5049	1309.429	1320.7234	1336.8002	1390.8246	1463.7471	1478.4458	1498.2099	1510.447	1510.9017	1527.5226	1564.6531	2955.3693	2980.1511	3003.997	3033.0732	3035.1948	3038.2193	3039.7711	3050.449	3077.777	3102.8164	3109.0384	3111.3476	3831.2936
OCCCC12CN(C1)C2	OCCC[C@@]12CN(C1)C2	
InChI=1S/C7H13NO/c9-3-1-2-7-4-8(5-7)6-7/h9H,1-6H2	InChI=1S/C7H13NO/c9-3-1-2-7-4-8(5-7)6-7/h9H,1-6H2
