18
gdb 70193	3.63138	1.31713	1.13166	5.0256	72.25	-0.2413	0.0465	0.2878	1104.4503	0.149024	-439.124145	-439.116134	-439.11519	-439.156481	31.036	
C	-0.0438581556	 1.5091353216	-0.0001415719	-0.47189
C	-0.0209247999	-0.00321932	 0.0313263675	 0.290404
C	-0.8429991027	-0.7504080245	 1.0619804003	-0.349811
C	 0.6727752234	-0.7327078015	 1.1379390525	-0.015175
N	 1.4393062543	-1.8864409031	 0.7482644923	-0.363353
C	 1.1292743984	-2.6645598282	-0.3432538127	 0.441253
O	 1.521020351	-3.7922247588	-0.5000829395	-0.383191
O	 0.3081237639	-2.0817159333	-1.262375922	-0.244724
C	 0.1932454883	-0.6560064753	-1.3198732923	-0.13173
H	 0.8713418814	 1.9131310095	-0.4480942221	 0.125161
H	-0.8950353443	 1.879055767	-0.5834536299	 0.126182
H	-0.1319751768	 1.9203195597	 1.0096049627	 0.123086
H	-1.3985733587	-0.162191047	 1.7846528566	 0.115338
H	-1.3160966627	-1.6811346418	 0.7689126502	 0.136131
H	 1.1516385516	-0.1646894142	 1.9281034922	 0.104412
H	 1.8760928527	-2.4245037786	 1.4816927242	 0.257937
H	-0.6451694596	-0.4669380959	-1.9969415512	 0.125198
H	 1.1009764653	-0.2418703656	-1.7814221168	 0.114773
99.7774	179.0232	198.5311	230.724	303.285	338.2364	402.1148	461.233	491.9463	566.0053	596.3425	683.9658	772.0057	791.3742	795.901	873.308	900.1932	930.9871	961.94	1021.2889	1051.4775	1060.7212	1095.126	1110.6058	1137.2403	1162.6436	1253.6642	1276.927	1295.0889	1344.7587	1411.831	1424.7521	1433.4184	1452.5123	1488.7359	1492.4869	1502.1655	1518.5527	1850.6907	3006.7958	3026.0232	3081.3899	3087.0384	3105.8057	3133.2491	3166.902	3224.9052	3620.3346
CC12CC1NC(=O)OC2	C[C@]12C[C@H]1NC(=O)OC2	
InChI=1S/C6H9NO2/c1-6-2-4(6)7-5(8)9-3-6/h4H,2-3H2,1H3,(H,7,8)	InChI=1S/C6H9NO2/c1-6-2-4(6)7-5(8)9-3-6/h4H,2-3H2,1H3,(H,7,8)/t4-,6-/m1/s1
