20
gdb 51870	4.21374	0.92823	0.79972	4.1614	78.55	-0.2604	0.0252	0.2855	1445.9277	0.172289	-440.300004	-440.291417	-440.290473	-440.333785	32.097	
N	-0.0743115509	 1.2659304167	-0.0947327424	-0.440566
C	-0.0436456072	 0.0070817264	-0.0376629032	 0.129778
O	-1.2003659135	-0.6940407982	-0.0924878824	-0.184621
C	-1.0769302264	-2.0934824667	-0.0669835939	 0.214889
C	-2.4599000566	-2.6942316066	 0.1444445548	-0.219591
C	-2.3892331542	-4.2242075511	 0.0292587936	-0.217143
C	-1.687854514	-4.6288513227	-1.2752424724	-0.195098
C	-0.3483206211	-3.9010770429	-1.3943009529	-0.068548
O	-0.5139280727	-2.4900969956	-1.2989757428	-0.255077
H	 0.8710612475	 1.6373161458	-0.0256827519	 0.229011
H	 0.8461290578	-0.6262817949	 0.0606331205	 0.096519
H	-0.395165784	-2.3960702145	 0.752277354	 0.061114
H	-2.846295974	-2.3817551288	 1.1192827267	 0.1096
H	-3.1189183667	-2.2778170679	-0.6251414425	 0.122494
H	-1.8296823837	-4.6301913772	 0.8832489005	 0.098973
H	-3.3939785234	-4.6541694613	 0.082958588	 0.105261
H	-1.523574407	-5.71143264	-1.3143616417	 0.098648
H	-2.3132780634	-4.3602187756	-2.1348633579	 0.111177
H	 0.3422343963	-4.2514685478	-0.6074727375	 0.088103
H	 0.1273699772	-4.0805968771	-2.3617586366	 0.115075
72.0805	108.8379	113.6662	221.6764	234.5712	342.2791	356.7801	423.3341	472.0996	518.9618	546.1804	691.0179	823.8157	825.905	851.937	876.4202	919.2406	941.7174	989.2618	1040.3315	1046.1653	1058.2216	1086.7773	1102.2747	1155.7457	1173.3189	1200.6579	1228.3916	1278.6149	1291.1132	1302.0496	1342.0702	1364.7042	1377.3474	1386.6057	1409.1482	1421.6055	1432.3985	1475.1647	1482.7679	1492.7665	1503.3568	1752.1136	2907.6495	2958.8885	3017.6137	3035.1118	3049.846	3050.9191	3077.2914	3083.0265	3095.6932	3100.5732	3515.8208
N=COC1CCCCO1	[NH][CH]O[C@H]1CCCCO1	
InChI=1S/C6H11NO2/c7-5-9-6-3-1-2-4-8-6/h5-7H,1-4H2	InChI=1S/C6H11NO2/c7-5-9-6-3-1-2-4-8-6/h5-7H,1-4H2/t6-/m0/s1
