16
gdb 54019	2.16944	1.55454	1.04697	2.0771	68.98	-0.253	-0.0367	0.2163	1148.714	0.122842	-471.256191	-471.246758	-471.245814	-471.291027	33.522	
C	-0.0175417207	 1.4842557909	 0.3801390977	-0.508905
C	 0.0264382137	 0.0079127284	 0.0331049625	 0.435213
O	 1.0371906992	-0.543162771	-0.3121474407	-0.295206
N	-1.1961362397	-0.7189770129	 0.1227095269	-0.165405
C	-2.4401293627	-0.1224297112	 0.2285590294	 0.164317
O	-3.4886715293	-0.7227342873	 0.1562398624	-0.325482
C	-1.1277384436	-2.1705947299	 0.0490313894	 0.374468
N	-1.7393654563	-2.6782305917	-1.0796586534	-0.531208
N	-0.4879020966	-2.7599685811	 0.9668269113	-0.470896
H	 1.0120183849	 1.8406904668	 0.3737653904	 0.161579
H	-0.5889999725	 2.0554695014	-0.3582690501	 0.152895
H	-0.4606883105	 1.6600328946	 1.3642003604	 0.154216
H	-2.3906887499	 0.9661841718	 0.3730875908	 0.111942
H	-2.574960662	-2.1786014024	-1.3557694958	 0.271648
H	-1.8884580568	-3.677345866	-1.0506763993	 0.253038
H	-0.4804899274	-3.7704359304	 0.8274229581	 0.217785
44.3285	84.3228	138.7482	195.1662	211.5114	247.8068	270.5335	368.6925	376.2877	480.4912	505.8554	537.1438	589.3395	623.2685	661.1616	717.0039	793.925	857.5689	958.6939	1032.0283	1053.3145	1057.9936	1107.9701	1142.2463	1255.6713	1321.3323	1390.6687	1391.4426	1448.8763	1478.4056	1487.1921	1654.6937	1756.8287	1782.4218	1841.3288	3036.5011	3051.9714	3118.1521	3163.9554	3485.9877	3550.1293	3650.3401
CC(=O)N(C=O)C(N)=N	CC(=O)N(C=O)C(=N)N	
InChI=1S/C4H7N3O2/c1-3(9)7(2-8)4(5)6/h2H,1H3,(H3,5,6)	InChI=1S/C4H7N3O2/c1-3(9)7(2-8)4(5)6/h2H,1H3,(H3,5,6)
