21
gdb 92602	2.01641	1.77222	1.53784	2.1413	77.45	-0.2452	0.0794	0.3246	1044.6939	0.182887	-424.225128	-424.216646	-424.215702	-424.257703	33.161	
C	 0.3129499078	 1.5050884471	-0.2195391442	-0.420031
C	 0.0584642836	 0.0434514831	 0.0905892595	 0.126574
O	 0.6617793923	-0.8411219958	-0.8875552769	-0.315436
C	 1.3723581317	-1.5755531216	 0.1242773399	 0.089458
C	 2.8721464571	-1.3052438308	 0.1118996106	-0.110148
O	 3.0330742734	-0.0235866413	 0.7126460384	-0.250537
C	 2.0751587512	 0.0548097099	 1.760942505	-0.139493
C	 0.8162514491	-0.6649807912	 1.2568019037	 0.224889
C	-0.0453063813	-1.2636271748	 2.3555948941	-0.49357
H	 1.3844536498	 1.7071784023	-0.2840899101	 0.143781
H	-0.1453531985	 1.7606784944	-1.1802280099	 0.12449
H	-0.133389444	 2.148503596	 0.547142759	 0.110047
H	-1.0237741478	-0.1443247939	 0.1453502084	 0.068484
H	 1.1137994248	-2.640279483	 0.1248467628	 0.072676
H	 3.3987465572	-2.0804587518	 0.6942694778	 0.084945
H	 3.2903263261	-1.266750741	-0.8968401262	 0.12071
H	 2.449290426	-0.4486909882	 2.6685848017	 0.086138
H	 1.9226702171	 1.1119308265	 1.9950482618	 0.112
H	-0.4640395806	-0.4807194359	 2.9992521139	 0.121472
H	-0.8833114048	-1.8310114915	 1.9392017152	 0.125058
H	 0.53533654	-1.9388359984	 2.9936380053	 0.118493
111.5645	189.6621	216.3251	231.089	245.9984	288.5418	316.7179	379.7834	422.4182	495.406	580.8066	626.0909	743.4081	792.3019	863.9692	889.5667	900.2751	937.3663	950.6749	995.1251	1008.957	1043.9598	1075.1513	1099.5684	1105.0619	1130.1975	1179.5306	1193.0889	1221.415	1248.9637	1255.6478	1288.4826	1311.0167	1340.6434	1360.7317	1379.9739	1403.4641	1411.6873	1423.7502	1482.2277	1488.0681	1493.0974	1496.0493	1502.8804	1514.9953	2959.1682	2966.3905	2990.5452	3025.0768	3035.3514	3048.4584	3086.5132	3089.4537	3101.6147	3102.014	3105.2333	3132.6262
CC1OC2COCC12C	C[C@H]1O[C@H]2COC[C@@]12C	
InChI=1S/C7H12O2/c1-5-7(2)4-8-3-6(7)9-5/h5-6H,3-4H2,1-2H3	InChI=1S/C7H12O2/c1-5-7(2)4-8-3-6(7)9-5/h5-6H,3-4H2,1-2H3/t5-,6+,7+/m1/s1
