16
gdb 23282	3.21792	1.21302	1.11531	1.9133	74.45	-0.2307	-0.0051	0.2256	1144.0102	0.123002	-437.786126	-437.778085	-437.77714	-437.818737	30.506	
C	 0.028402385	 1.4406174219	 0.0526081277	-0.516103
C	 0.0085956918	-0.0448958783	-0.0031862672	 0.348545
C	-0.0208960023	-0.9182691039	-1.021321709	-0.193572
C	 0.0278583221	-2.2698956001	-0.3004184957	-0.067998
O	-0.8943794765	-2.0363808698	 0.8256284605	-0.283383
C	 0.0718741683	-1.0001240663	 1.2096326022	-0.119457
C	 1.1415554877	-1.9785793599	 0.7213416485	 0.505383
N	 2.2655311407	-2.3645348455	 1.1297225803	-0.314305
O	 2.7814264296	-3.3975426989	 0.3124544186	-0.398607
H	 0.934971436	 1.8039608966	 0.5528075461	 0.139813
H	-0.003544686	 1.8781174178	-0.9486878023	 0.134233
H	-0.8234017015	 1.8286681797	 0.6246287209	 0.137929
H	-0.0336913193	-0.7490989561	-2.0879196816	 0.117118
H	-0.1063349822	-3.2097658433	-0.8277584395	 0.105607
H	-0.0180107656	-0.6286097217	 2.2280847619	 0.096725
H	 3.6150293321	-3.5980946021	 0.7511186787	 0.308073
94.1981	155.0665	181.0171	235.342	278.4222	322.041	393.2138	461.5687	541.0434	582.3742	654.2342	697.8435	729.4784	799.2432	830.4944	867.7299	881.9275	911.8309	958.2313	1002.1458	1036.4222	1061.5053	1105.6753	1148.039	1187.05	1204.6609	1230.3321	1277.5823	1289.8199	1407.2007	1414.2088	1477.702	1483.4962	1672.4955	1815.8045	3020.6503	3068.7129	3114.0683	3156.8693	3177.3776	3243.6291	3820.7733
CC1=CC2OC1C2=NO	CC1=C[C@@H]2O[C@H]1C2=NO	
InChI=1S/C6H7NO2/c1-3-2-4-5(7-8)6(3)9-4/h2,4,6,8H,1H3	InChI=1S/C6H7NO2/c1-3-2-4-5(7-8)6(3)9-4/h2,4,6,8H,1H3/t4-,6+/m0/s1
