18
gdb 43641	4.6145	0.99569	0.85463	4.0261	79.9	-0.2379	-0.0457	0.1922	1324.9027	0.148136	-401.947608	-401.939656	-401.938712	-401.980799	30.082	
O	-0.1619652936	-0.0192190656	 0.3023861184	-0.325707
C	-0.0526918033	 1.1692149974	 0.1166708378	 0.376402
C	-1.2051483479	 2.1788636223	-0.0012491563	-0.34751
C	-0.536129444	 3.5659835877	-0.0280815968	-0.009926
C	 0.9408444609	 3.2460064272	-0.1393722017	-0.043162
C	 1.2057692517	 1.9403945944	-0.0435753099	-0.183447
N	-0.9814723997	 4.377757676	-1.1602337278	-0.070379
C	-2.1634982968	 5.2052025323	-0.9310487162	-0.219131
C	-0.8129879087	 5.823061007	-1.023249904	-0.226329
H	-1.728284615	 2.003082172	-0.9465177325	 0.146075
H	-1.9238161479	 2.039516193	 0.8094246811	 0.125202
H	-0.7137800928	 4.0981449631	 0.9266201201	 0.072054
H	 1.6736269156	 4.0347829841	-0.2729466693	 0.117712
H	 2.1782835169	 1.4652816528	-0.0675514405	 0.118313
H	-2.8604182465	 5.2712466537	-1.7609145033	 0.122732
H	-2.6270368548	 5.1707000798	 0.0537270448	 0.113372
H	-0.3791001364	 6.2035523364	-0.0994130242	 0.111323
H	-0.5043917677	 6.3496812268	-1.9212670298	 0.122408
60.2885	86.9281	174.0458	244.2985	306.7829	377.1737	430.0333	512.8581	536.1456	665.1453	729.0097	783.796	811.9528	829.3965	843.3637	903.0603	919.217	980.6728	1005.748	1018.2178	1047.3178	1076.8877	1109.9192	1117.8523	1121.5822	1163.1714	1176.0334	1176.4282	1208.0819	1251.9235	1315.2113	1317.7648	1344.8893	1372.9336	1445.8489	1490.5492	1517.9909	1655.365	1820.7767	2903.845	3066.7909	3094.3936	3099.2735	3117.8732	3181.2517	3190.8269	3195.2889	3226.068
O=C1CC(C=C1)N1CC1	O=C1C[C@@H](C=C1)N1CC1	
InChI=1S/C7H9NO/c9-7-2-1-6(5-7)8-3-4-8/h1-2,6H,3-5H2	InChI=1S/C7H9NO/c9-7-2-1-6(5-7)8-3-4-8/h1-2,6H,3-5H2/t6-/m1/s1
