18
gdb 91844	3.79894	1.20245	1.09843	1.0614	79.22	-0.2107	0.0221	0.2328	1153.4364	0.146725	-401.887605	-401.879151	-401.878207	-401.920463	32.321	
C	 0.8484200054	 1.3652019303	 0.0897048197	-0.330976
N	 0.0112203802	 0.1839562966	-0.1015801373	-0.072264
C	 0.3884709501	-0.6418675196	-1.2577313172	-0.207256
C	 1.1195281452	-1.8455636667	-0.6895509315	-0.033494
O	 2.1245724702	-1.4937196413	 0.262919508	-0.289012
C	 0.8285781313	-1.8989588707	 0.7560729328	 0.26613
C	-0.0652211944	-0.6971219885	 1.0688236077	-0.271166
C	 0.7549897123	-3.0950964	 1.5409902886	 0.19456
C	 0.6572668142	-4.0703335879	 2.2372112862	-0.362065
H	 1.9066686925	 1.134225122	 0.2864737249	 0.118343
H	 0.7892433321	 1.996796183	-0.802313423	 0.117115
H	 0.4580248633	 1.9518277139	 0.9271677243	 0.118261
H	-0.4984382269	-0.9923990721	-1.8062003726	 0.106752
H	 1.0050631853	-0.0678069408	-1.9558525685	 0.11493
H	 1.3093138591	-2.7369806405	-1.2821862698	 0.105908
H	 0.2526470648	-0.172442649	 1.9739573632	 0.118803
H	-1.0887008703	-1.0621201542	 1.232813366	 0.111854
H	 0.5819441757	-4.9394543244	 2.8429575584	 0.193578
101.6725	129.7155	157.9844	189.7617	298.2288	365.9498	391.8084	416.5154	503.1155	519.8485	563.0786	616.3938	673.8871	679.8593	717.0633	849.7916	883.0734	895.2278	959.6246	996.7967	1021.6954	1048.3894	1073.7483	1147.8318	1156.7931	1189.9693	1200.6039	1254.6801	1282.9777	1315.8515	1334.9854	1354.4208	1430.0839	1461.849	1487.4874	1489.8852	1499.5649	1514.794	2240.7665	2984.2093	2997.1602	3010.1328	3068.9915	3081.3599	3090.361	3102.704	3152.2378	3501.7366
CN1CC2OC2(C1)C#C	CN1C[C@H]2O[C@]2(C1)C#C	
InChI=1S/C7H9NO/c1-3-7-5-8(2)4-6(7)9-7/h1,6H,4-5H2,2H3	InChI=1S/C7H9NO/c1-3-7-5-8(2)4-6(7)9-7/h1,6H,4-5H2,2H3/t6-,7+/m1/s1
