21
gdb 76304	2.2095	1.43257	0.99214	4.3692	84.06	-0.2364	0.019	0.2554	1264.1777	0.181196	-383.271706	-383.261739	-383.260795	-383.306316	36.48	
C	-0.1912703292	 1.5528600164	 0.1445450825	-0.403972
C	-0.1062244118	 0.0387853993	 0.0100185763	-0.048744
C	 0.7469409556	-0.5194982928	-1.1738687081	 0.068641
C	 1.020466478	 0.3188118891	-2.4095186356	-0.410738
N	 1.8799022948	-0.679547315	-0.2355487085	-0.072594
C	 2.7776284199	-1.8055932606	-0.3781660541	-0.338637
C	 0.9653027229	-0.6568560075	 0.914916783	-0.122858
C	 1.4589630313	 0.0362294685	 2.1052593465	 0.296794
N	 1.8348483462	 0.5863050894	 3.0499046156	-0.33492
H	 0.7973352007	 2.0175988062	 0.1011048071	 0.142049
H	-0.8059286806	 1.9769630912	-0.6555658227	 0.118615
H	-0.6465564881	 1.8292431331	 1.1003224548	 0.1328
H	-1.0979190299	-0.4086001749	 0.0977045202	 0.084832
H	 0.3425000324	-1.5017444829	-1.4791329239	 0.05897
H	 1.4048032937	 1.3061547156	-2.143520666	 0.12917
H	 1.762607437	-0.1722590771	-3.0481565045	 0.120833
H	 0.1077965795	 0.4433868217	-3.0020489209	 0.118582
H	 3.3307345756	-1.7179117462	-1.318267858	 0.129133
H	 3.5057375989	-1.8042200505	 0.4391394696	 0.137228
H	 2.2526294154	-2.7792872384	-0.3749366551	 0.095342
H	 0.6266889979	-1.6617737245	 1.2206887218	 0.099477
69.0974	124.7092	167.9406	195.8049	211.7741	224.0127	237.1857	256.4898	315.1441	355.0287	395.8094	478.6141	557.7793	564.918	702.8801	774.7563	819.7151	837.561	934.7334	999.3256	1022.7888	1040.4261	1071.7455	1079.972	1140.4174	1167.4339	1172.0675	1194.739	1229.8974	1258.3148	1275.1199	1311.9606	1354.0357	1371.2096	1395.4166	1413.5592	1422.5684	1453.4233	1481.8276	1489.3789	1493.252	1496.1465	1497.3241	1504.8694	2353.7796	2928.0889	2934.3904	2953.055	3037.1026	3042.658	3067.4162	3089.3263	3098.7141	3109.1948	3109.2847	3122.5946	3129.1418
CC1C(C)N(C)C1C#N	C[C@H]1[C@@H](C)N(C)[C@H]1C#N	
InChI=1S/C7H12N2/c1-5-6(2)9(3)7(5)4-8/h5-7H,1-3H3	InChI=1S/C7H12N2/c1-5-6(2)9(3)7(5)4-8/h5-7H,1-3H3/t5-,6+,7-/m0/s1
