14
gdb 50072	3.97392	1.00858	0.88207	2.7242	66.23	-0.2602	-0.1173	0.1429	1248.6203	0.098217	-473.82256	-473.813914	-473.81297	-473.857092	29.373	
O	-0.017871749	 0.3637099977	-0.1750353331	-0.278027
C	 0.0639855619	 1.5624385941	-0.1438314662	 0.160975
N	 1.102877518	 2.2507352865	 0.4908347184	-0.064878
C	 2.4827649269	 1.9020482914	 0.3793821647	-0.223118
C	 1.9636701839	 3.2547923254	-0.0987878758	-0.145784
C	 1.9442860234	 3.4727941805	-1.5749156152	 0.291006
O	 1.443112417	 2.7172593863	-2.3770395203	-0.288474
C	 2.6235029189	 4.7494542793	-2.088712474	 0.096723
O	 3.0947354575	 5.5856962459	-1.3649361763	-0.212427
H	-0.7168929307	 2.2484112807	-0.514576149	 0.097849
H	 3.0597254765	 1.8733084204	 1.2988342666	 0.145724
H	 2.7508959402	 1.1766154928	-0.3845816239	 0.157832
H	 2.1728334422	 4.1338167028	 0.5014472638	 0.140338
H	 2.6251972634	 4.8174555562	-3.1958244596	 0.122261
39.4301	101.6803	127.5344	186.0938	208.8645	217.2484	293.1713	379.922	512.4941	575.8332	608.429	676.9164	795.7728	824.2727	966.569	988.9936	1032.2388	1039.4339	1049.5988	1099.6234	1126.6865	1157.3967	1176.212	1352.019	1367.0557	1416.0001	1424.4207	1500.3938	1788.7966	1816.1812	1823.7457	2941.3211	2990.2244	3114.9463	3179.5599	3213.1719
O=CN1CC1C(=O)C=O	O=CN1C[C@H]1C(=O)C=O	
InChI=1S/C5H5NO3/c7-2-5(9)4-1-6(4)3-8/h2-4H,1H2	InChI=1S/C5H5NO3/c7-2-5(9)4-1-6(4)3-8/h2-4H,1H2/t4-,6?/m0/s1
