12
gdb 23943	9.75476	0.67769	0.63367	1.7598	89.74	-0.232	-0.0465	0.1855	1615.352	0.077493	-398.324124	-398.316599	-398.315655	-398.356732	27.333	
C	 0.0756055885	-3.7528210971	-0.0190043867	-0.603014
C	 0.0525210808	-2.544825302	-0.0120867041	 0.255365
C	 0.0257108875	-1.1877260366	-0.0043061026	 0.003298
C	-0.0077230713	 0.0243230469	 0.0027738359	 0.314504
C	-0.0425772567	 1.4312409081	 0.0109419128	-0.002264
C	-1.1328877326	 2.2517866182	 0.0302969071	-0.119153
O	-0.6977425908	 3.5382226138	 0.0313957857	-0.129261
C	 0.6555325559	 3.4370119706	 0.0123902658	 0.055079
N	 1.1099083673	 2.2320630383	-0.0003916084	-0.292175
H	 0.0977762206	-4.8143654775	-0.0251059719	 0.194099
H	-2.1962522031	 2.0898544524	 0.0439107293	 0.164047
H	 1.2090842738	 4.3627294747	 0.0099041569	 0.159474
75.8863	86.019	230.0622	231.7561	435.4874	440.3073	486.831	520.3587	537.9539	593.7941	609.8399	635.8588	709.1025	792.4912	851.7115	921.8495	935.6116	1038.6112	1093.4683	1137.7119	1238.9134	1299.4758	1342.283	1563.1546	1590.8817	2182.6194	2347.0271	3279.6882	3303.1109	3503.8071
C#CC#CC1=COC=N1	C#CC#Cc1cocn1	
InChI=1S/C7H3NO/c1-2-3-4-7-5-9-6-8-7/h1,5-6H	InChI=1S/C7H3NO/c1-2-3-4-7-5-9-6-8-7/h1,5-6H
