19
gdb 89034	4.24604	0.73483	0.66235	1.6513	73.72	-0.2677	0.0151	0.2828	1711.7189	0.15591	-460.182329	-460.172069	-460.171125	-460.219769	34.931	
C	 0.1305644067	 1.4483078409	-0.2754979888	-0.422219
C	 0.0796801525	-0.0147225494	 0.0881844597	 0.075891
O	 1.3217999125	-0.7128506155	 0.2206185323	-0.255196
C	 0.4951203682	-0.5850297887	 1.3808456719	 0.043561
C	 1.0182792731	 0.2382194393	 2.5224508341	-0.092246
O	 1.8420419625	-0.6276863773	 3.3245060758	-0.243024
C	 2.3867126747	-0.0579188086	 4.4220307617	 0.434092
C	 3.2372046627	-1.053729976	 5.172215233	-0.478084
O	 2.2029769329	 1.0911919012	 4.7341727009	-0.349497
H	 0.9017110464	 1.9837351954	 0.2810557754	 0.132483
H	 0.3465418508	 1.5592286734	-1.343092507	 0.134056
H	-0.8368590278	 1.9233354471	-0.0800570319	 0.126278
H	-0.6777896396	-0.5819549779	-0.4574090455	 0.091734
H	 0.025959689	-1.5186736103	 1.6964083968	 0.097197
H	 1.6131694432	 1.0855975487	 2.1769997703	 0.129113
H	 0.1973615658	 0.6242115585	 3.1372766829	 0.123808
H	 4.0491259589	-1.4080186379	 4.5307363162	 0.154213
H	 3.6468180651	-0.5813282466	 6.0640573545	 0.148412
H	 2.6391415123	-1.9259974465	 5.4501588876	 0.14943
31.8089	45.3822	62.155	105.1857	170.3819	179.4888	227.3245	265.068	362.7863	420.3973	465.849	537.3909	606.84	644.852	767.4928	830.286	914.1854	930.4651	976.9965	997.5702	1023.3046	1065.3458	1065.7255	1100.3941	1123.5533	1172.1066	1188.8515	1265.9037	1266.5266	1305.0533	1360.619	1394.049	1412.1331	1423.552	1469.3366	1470.4407	1475.5959	1490.4664	1493.8941	1517.0744	1825.0079	3041.7079	3050.2864	3058.0654	3080.1484	3097.9865	3102.4608	3120.4756	3123.1157	3141.3506	3170.0682
CC1OC1COC(C)=O	C[C@H]1O[C@H]1COC(=O)C	
InChI=1S/C6H10O3/c1-4-6(9-4)3-8-5(2)7/h4,6H,3H2,1-2H3	InChI=1S/C6H10O3/c1-4-6(9-4)3-8-5(2)7/h4,6H,3H2,1-2H3/t4-,6+/m1/s1
