21
gdb 86906	4.56343	0.74451	0.72189	2.6251	79.45	-0.2474	0.0804	0.3278	1646.3079	0.181427	-424.192055	-424.182762	-424.181818	-424.22741	33.913	
C	 0.0657683818	 1.3369629536	 0.3105340691	-0.398011
C	-0.0372517306	-0.1190630704	-0.0925215	 0.179177
C	 0.7433843762	-0.6099871424	-1.3328562623	-0.326875
C	 1.3704224522	-1.6309580547	-0.3615903454	 0.163948
C	 2.884576589	-1.6741552704	-0.2243662382	-0.253837
C	 3.3213079127	-2.4924821186	 0.9680251583	 0.102859
C	 3.7011118804	-3.9063917809	 0.8502894793	-0.175932
O	 4.6935694535	-2.890740015	 1.0074147436	-0.240503
O	 0.7326800854	-0.9930788308	 0.7726251666	-0.316955
H	 1.1088202672	 1.6679532285	 0.3070545026	 0.118844
H	-0.5043473343	 1.9662745569	-0.3818567771	 0.116381
H	-0.3379846608	 1.48472205	 1.3172178278	 0.128397
H	-1.0907379947	-0.4339053466	-0.1036591443	 0.073025
H	 0.1554640195	-1.0130037214	-2.1585137645	 0.107352
H	 1.4570905435	 0.1226298807	-1.7193009387	 0.106567
H	 0.9772020033	-2.6498753321	-0.4944678993	 0.071256
H	 3.3238534035	-2.0952414631	-1.1370015929	 0.104042
H	 3.2618351993	-0.6495358082	-0.1189109742	 0.106022
H	 2.9277230785	-2.1510448524	 1.9252190946	 0.110699
H	 3.5772583701	-4.5769561725	 1.6995501844	 0.115256
H	 3.6788841643	-4.3891874602	-0.1266538893	 0.108287
44.6037	63.8098	91.6281	143.175	231.5085	308.8896	328.9721	357.1696	420.024	429.479	491.6822	690.2782	817.7204	827.6184	859.9194	871.3024	906.3301	919.3208	931.4018	966.2774	1001.0956	1064.1879	1074.8932	1106.9767	1127.7522	1136.2916	1154.9935	1156.9167	1183.3565	1199.211	1232.6997	1252.1949	1282.8302	1291.9258	1310.4413	1346.3312	1380.4278	1401.9319	1421.1759	1441.2027	1472.3716	1482.3827	1490.9309	1497.111	1530.8261	2987.8034	2996.2015	3028.2935	3032.8586	3066.7843	3073.4029	3078.6851	3105.3882	3112.7169	3120.0156	3128.8969	3164.5467
CC1CC(CC2CO2)O1	C[C@H]1C[C@@H](C[C@H]2CO2)O1	
InChI=1S/C7H12O2/c1-5-2-6(9-5)3-7-4-8-7/h5-7H,2-4H2,1H3	InChI=1S/C7H12O2/c1-5-2-6(9-5)3-7-4-8-7/h5-7H,2-4H2,1H3/t5-,6-,7-/m0/s1
