17
gdb 116671	2.41265	0.97429	0.80452	3.2049	73.32	-0.2709	-0.0066	0.2642	1465.0927	0.133745	-455.139672	-455.129412	-455.128468	-455.176288	34.333	
C	-0.4964047458	 0.8225932536	 0.0358143518	-0.257538
O	 0.7374699283	 0.1371780998	-0.1846034303	-0.193869
C	 0.7033305619	-0.8363550725	-1.1014363906	 0.137445
N	 1.7529489074	-1.4935200498	-1.3558205859	-0.258952
C	 1.7251020805	-2.5672956411	-2.3347226684	-0.102539
C	 2.3164283216	-3.8336031097	-1.6683023687	-0.057924
O	 1.5860754251	-4.2166422469	-0.5311472848	-0.41193
C	 0.3979053077	-2.8500279331	-2.9175653363	 0.262813
N	-0.6535991842	-3.0270694939	-3.3641381472	-0.333261
H	-0.8435500792	 1.3175278701	-0.8778074075	 0.139454
H	-1.2709639128	 0.1380957447	 0.3987256932	 0.140236
H	-0.2928150407	 1.5744793562	 0.7981732637	 0.153269
H	-0.2709463065	-0.9927504457	-1.5822784739	 0.118427
H	 2.3921137588	-2.2926813053	-3.1636674203	 0.134736
H	 2.2842390137	-4.6711994072	-2.3704286826	 0.12697
H	 3.3663957161	-3.6097277092	-1.4328112428	 0.109209
H	 1.6490922981	-3.4879470701	 0.0977203004	 0.293455
47.8259	64.9182	103.667	113.9382	150.4286	177.5451	208.2452	281.4613	308.2994	405.1936	422.8832	447.9239	515.0354	641.9664	738.0621	831.2051	915.8433	1010.0551	1024.1566	1046.0676	1079.4117	1107.3227	1177.0298	1183.9817	1229.2588	1271.6487	1298.1456	1331.5964	1399.0202	1418.7431	1426.0159	1487.961	1494.3383	1496.0038	1499.1205	1758.3185	2347.424	3007.6123	3021.3146	3025.9968	3045.7464	3097.0126	3101.0714	3155.0675	3793.1958
COC=NC(CO)C#N	COC=N[C@@H](CO)C#N	
InChI=1S/C5H8N2O2/c1-9-4-7-5(2-6)3-8/h4-5,8H,3H2,1H3	InChI=1S/C5H8N2O2/c1-9-4-7-5(2-6)3-8/h4-5,8H,3H2,1H3/t5-/m1/s1
