20
gdb 36808	7.67389	0.4998	0.48965	4.706	81.6	-0.2809	0.0115	0.2924	2199.4355	0.169644	-403.133472	-403.123545	-403.122601	-403.170075	34.502	
N	-0.060751501	-1.0871521511	-0.1054878194	-0.292767
C	-0.0015040739	 0.0593982595	 0.0149803983	 0.263937
C	 0.033042706	 1.5163261734	 0.1789137096	-0.184354
O	 1.3236494445	 1.9855769944	-0.1070223956	-0.238209
C	 1.4335917193	 3.3941872665	 0.0393603211	-0.04432
C	 2.8653880302	 3.7995076059	-0.2857654154	-0.22904
C	 3.078617312	 5.2930121239	-0.1666442304	 0.02859
C	 3.3857902356	 5.9179851121	 1.1738012998	-0.256668
C	 4.4519774539	 5.8476731008	 0.1087641343	-0.275947
H	-0.7216466293	 1.9613494169	-0.4911964774	 0.138153
H	-0.2705967994	 1.7592061538	 1.2110448021	 0.138187
H	 0.7240229121	 3.8995874971	-0.6375088496	 0.09237
H	 1.1714567958	 3.6909532266	 1.0679631552	 0.09809
H	 3.5418362758	 3.2683391307	 0.3940807788	 0.109197
H	 3.1043318615	 3.456025907	-1.2993775187	 0.114213
H	 2.4572807617	 5.888844722	-0.8315122968	 0.083453
H	 2.952960028	 6.8839412731	 1.4088921366	 0.113121
H	 3.4841672449	 5.256743702	 2.028982352	 0.112182
H	 5.2632662439	 5.141147896	 0.2502841781	 0.115257
H	 4.7456290084	 6.7653749294	-0.3883350927	 0.114555
35.49	65.9737	83.363	120.9379	132.5179	176.4269	296.3164	311.256	386.357	405.2424	458.2434	578.5101	776.837	787.9965	828.7888	842.4467	917.388	945.8344	968.8042	1019.7291	1034.6	1044.7607	1065.6841	1079.7172	1102.5232	1140.9813	1154.0996	1193.8907	1199.4358	1228.7332	1248.4527	1257.2431	1303.8733	1315.6393	1385.4572	1417.7102	1447.4871	1469.5011	1489.5536	1495.7647	1509.0846	1526.8289	2374.0393	2957.3772	2967.9411	2987.4409	2993.5979	3033.9361	3075.3953	3129.0937	3130.2457	3135.7143	3207.8088	3223.0817
N#CCOCCC1CC1	N#CCOCCC1CC1	
InChI=1S/C7H11NO/c8-4-6-9-5-3-7-1-2-7/h7H,1-3,5-6H2	InChI=1S/C7H11NO/c8-4-6-9-5-3-7-1-2-7/h7H,1-3,5-6H2
