18
gdb 98623	2.97412	1.30483	1.05813	3.0021	72.94	-0.2341	0.0302	0.2643	1169.2977	0.148031	-439.067251	-439.058679	-439.057735	-439.101257	31.155	
C	-0.4921223234	 1.3476756278	-0.4966603018	-0.335612
N	-0.8775726735	-0.0480193371	-0.5512135139	-0.330064
C	-1.0636196793	-0.7911194555	 0.5741141121	 0.401746
O	-0.9425658218	-0.3524748602	 1.7065013201	-0.39438
C	-1.4339252717	-2.243517407	 0.3643398373	-0.127701
C	-2.7562571846	-2.7792044005	-0.1840525001	-0.141012
C	-3.167044883	-2.0190020454	-1.4381952222	-0.10111
O	-1.8508640011	-2.22809498	-2.0392229384	-0.293924
C	-1.4601149592	-3.0316805965	-0.9121960396	 0.048741
H	 0.5242522575	 1.5005737229	-0.8788342443	 0.12391
H	-1.17857827	 1.9692871454	-1.0817892422	 0.120592
H	-0.5254099107	 1.6596993646	 0.547691668	 0.167368
H	-0.962822756	-0.5207910174	-1.4410543902	 0.261589
H	-1.1100848207	-2.8343613115	 1.2163951678	 0.123206
H	-3.3881547164	-3.4409750655	 0.391227819	 0.113498
H	-3.9291272015	-2.5359059834	-2.0292673056	 0.123882
H	-3.4146116669	-0.9571738704	-1.343136743	 0.1222
H	-0.8749231778	-3.9209352203	-1.1153004029	 0.117072
67.9095	78.0162	118.4145	184.3083	216.4922	292.9607	372.0452	396.5737	502.5203	680.1885	726.3863	732.3484	778.9739	803.2954	831.5068	871.4421	949.0744	962.556	996.646	1008.6995	1052.6547	1060.7063	1076.9676	1116.4354	1153.1641	1154.0715	1167.9608	1181.2869	1255.9498	1287.78	1313.2516	1353.208	1408.7608	1436.7982	1496.5845	1502.9403	1509.9028	1582.0976	1768.0221	3024.4258	3045.4003	3074.9423	3099.8525	3153.009	3164.4153	3184.4206	3216.101	3566.7699
CNC(=O)C1C2COC12	CNC(=O)[C@H]1[C@H]2CO[C@@H]12	
InChI=1S/C6H9NO2/c1-7-6(8)4-3-2-9-5(3)4/h3-5H,2H2,1H3,(H,7,8)	InChI=1S/C6H9NO2/c1-7-6(8)4-3-2-9-5(3)4/h3-5H,2H2,1H3,(H,7,8)/t3-,4+,5-/m1/s1
