16
gdb 33982	2.44869	1.69924	1.21045	2.8848	74.51	-0.2545	0.0077	0.2622	1032.0585	0.123725	-400.701009	-400.693363	-400.692419	-400.733121	29.565	
N	 0.0516203165	-1.1954848808	-0.0660658876	-0.356001
C	 0.0263157878	-0.0383301357	-0.0311827855	 0.209272
C	-0.0257424519	 1.3804799658	 0.0260292975	 0.036204
C	 0.2621353162	 2.3037153593	-1.1579538132	-0.34116
C	 1.0801519074	 2.4393644569	 0.0776767975	 0.060118
O	 0.4078475753	 3.1919303289	 1.0795962071	-0.303055
C	-0.6384184554	 2.2044910583	 1.1415941308	 0.414991
C	-2.0518354925	 2.5410305256	 1.4612043427	-0.335101
C	-1.1962209147	 1.7348894389	 2.4362070378	-0.346087
H	 0.7491485054	 1.8128549737	-1.9939772969	 0.144451
H	-0.4622079645	 3.0710613724	-1.4123066252	 0.136472
H	 2.1556159636	 2.3342050304	 0.1476336513	 0.135748
H	-2.2620446748	 3.5725865875	 1.7213302715	 0.135334
H	-2.8435973065	 2.0340060642	 0.9201993397	 0.131348
H	-1.3991212838	 0.6751245551	 2.5503974779	 0.141238
H	-0.847671998	 2.2369003896	 3.3317880146	 0.136229
113.887	139.5475	177.4123	283.5091	297.014	453.7723	472.5593	504.2665	550.7066	584.7526	618.7988	754.797	819.9461	849.5326	877.476	892.8651	923.2678	980.1067	990.0901	1019.6575	1029.0106	1051.444	1061.1445	1076.6723	1098.6104	1160.4562	1185.1667	1239.5863	1280.2171	1366.6229	1401.989	1447.6598	1470.3638	1506.4974	2345.909	3129.3378	3134.9462	3136.5278	3201.1802	3219.9375	3228.6545	3232.8936
N#CC12CC1OC21CC1	N#C[C@]12C[C@H]1OC12CC1	
InChI=1S/C7H7NO/c8-4-6-3-5(6)9-7(6)1-2-7/h5H,1-3H2	InChI=1S/C7H7NO/c8-4-6-3-5(6)9-7(6)1-2-7/h5H,1-3H2/t5-,6-/m1/s1
