19
gdb 71490	2.19702	2.01336	1.67917	1.6463	79.17	-0.2265	-0.0026	0.2239	950.0495	0.157983	-385.830287	-385.822389	-385.821444	-385.861916	32.089	
C	 0.0494749207	 1.4710271535	-0.1238210065	-0.529349
C	-0.0023740326	-0.0159662111	 0.0174229405	 0.40757
O	 0.5669732712	-0.8504548748	-1.0564678978	-0.360439
C	 0.0678162138	-1.8090772856	-0.0655938523	 0.032017
C	 0.6122760213	-0.9563563937	 1.1223584694	-0.143446
C	-0.3944701397	-1.0480026873	 2.2484241117	-0.112014
C	-1.580171308	-1.0678085206	 1.6313563737	-0.177018
C	-1.2570669482	-0.9872579457	 0.1491840751	 0.264578
C	-2.3361075294	-0.9817625956	-0.9041471491	-0.521545
H	 1.0845381387	 1.8122206155	-0.222714399	 0.135198
H	-0.5061224981	 1.7937560209	-1.0099697406	 0.134105
H	-0.3932646755	 1.9430587562	 0.7589167417	 0.132356
H	 0.1992184964	-2.8737750886	-0.2777361795	 0.084407
H	 1.6850978477	-0.9247566569	 1.3061453898	 0.074166
H	-0.1730235835	-1.0820532269	 3.3061323756	 0.10683
H	-2.5726460784	-1.1216867329	 2.058955429	 0.102688
H	-3.0139051421	-0.1303472857	-0.7765010669	 0.11626
H	-1.8842219389	-0.9174585145	-1.8980219369	 0.135918
H	-2.9408877655	-1.894134516	-0.8588724478	 0.117718
184.9292	203.4069	208.6746	233.8491	279.6831	324.1073	432.6459	502.3831	525.2834	605.4899	665.402	697.6284	706.3787	748.2352	760.2414	803.4303	872.1971	905.1946	916.0536	929.1072	955.826	977.1677	1049.6468	1073.386	1099.9413	1123.8522	1156.1856	1168.7451	1202.6983	1220.7142	1264.0498	1291.6699	1339.4288	1359.4673	1402.8361	1408.6687	1474.3306	1485.0408	1493.9566	1498.6668	1631.8952	3030.105	3037.3479	3082.0028	3089.1634	3110.8949	3114.1484	3114.7827	3138.0436	3209.7054	3237.6238
CC12OC3C1C=CC23C	C[C@@]12O[C@H]3[C@@H]1C=C[C@@]23C	
InChI=1S/C8H10O/c1-7-4-3-5-6(7)9-8(5,7)2/h3-6H,1-2H3	InChI=1S/C8H10O/c1-7-4-3-5-6(7)9-8(5,7)2/h3-6H,1-2H3/t5-,6-,7+,8+/m0/s1
