18
gdb 38408	4.21032	1.31308	1.29767	1.5603	75.21	-0.2352	0.0694	0.3047	1035.4586	0.148331	-401.852557	-401.845533	-401.844589	-401.883903	28.562	
C	 0.0511640081	 1.4943274972	 0.1380124604	-0.306088
C	 1.3137596887	 0.708588935	-0.0012407928	 0.09677
O	 1.678521495	 0.1176201004	 1.2503712227	-0.332431
C	 0.4698936318	-0.6901872247	 1.2344527923	 0.452277
C	 0.5976907181	-2.231007612	 1.267653313	-0.251347
N	-0.3488468768	-2.3299358934	 2.4362601967	-0.127908
C	 0.3163709739	-1.5948115813	 3.5215065471	-0.241526
C	-0.3771137882	-0.8023041468	 2.4844246691	-0.102185
C	-0.0109367325	-0.0126667315	-0.0406508752	-0.20998
H	-0.1877488211	 1.9540359535	 1.0930914748	 0.119132
H	-0.2543540365	 2.0599910446	-0.7370328988	 0.116987
H	 2.0912421745	 0.8637360334	-0.7391205433	 0.106837
H	 0.1763845149	-2.7248568221	 0.3891471807	 0.114419
H	 1.5994462731	-2.6224414544	 1.4686892861	 0.114423
H	-0.1859977607	-1.6988948807	 4.4782653286	 0.123085
H	 1.4030764382	-1.5867779976	 3.5723933178	 0.126593
H	-1.2892643966	-0.2474032383	 2.6791309214	 0.096164
H	-0.537844304	-0.4973415912	-0.8512759606	 0.10478
127.1068	144.5703	224.5672	406.3101	431.5484	449.9896	500.0515	530.771	743.758	764.1092	778.7243	804.2397	845.8078	864.251	910.1669	955.9955	965.902	968.987	991.7252	1017.0258	1042.7144	1051.2639	1052.0351	1084.0792	1103.1557	1111.5915	1130.4468	1148.8165	1160.3148	1202.4402	1217.4307	1247.2512	1276.3817	1295.2658	1350.0789	1391.1444	1472.085	1481.3203	1505.8737	3053.2567	3106.6823	3115.8749	3116.2007	3164.7073	3187.8623	3200.724	3202.7906	3212.3031
C1C2OC3(CN4CC34)C12	C1[C@H]2O[C@]3(CN4C[C@@H]34)[C@@H]12	
InChI=1S/C7H9NO/c1-4-5(1)9-7(4)3-8-2-6(7)8/h4-6H,1-3H2	InChI=1S/C7H9NO/c1-4-5(1)9-7(4)3-8-2-6(7)8/h4-6H,1-3H2/t4-,5+,6-,7+,8?/m0/s1
