16
gdb 36217	4.80142	0.95823	0.8782	2.3055	73.92	-0.2595	-0.0194	0.2401	1280.5352	0.12485	-400.75152	-400.743846	-400.742902	-400.78442	28.711	
N	-0.1875694527	-1.0348650532	 0.5755089964	-0.309263
C	-0.1002186687	 0.0606334832	 0.2190772624	 0.26627
C	 0.0337518705	 1.4532633523	-0.2211603305	-0.442129
C	 1.4603136396	 1.9380250079	-0.1834988982	 0.324373
C	 2.1202672011	 2.5139138956	-1.1935420614	-0.205602
C	 3.4595958287	 2.9864927503	-0.7351436813	 0.014277
O	 3.3796617125	 3.9736984351	 0.3191522479	-0.255987
C	 3.5755642942	 2.6077129945	 0.6848122023	 0.039659
C	 2.2994097262	 1.8771262603	 1.082800225	-0.337859
H	-0.3750452241	 1.5455822372	-1.2325330939	 0.160531
H	-0.5966720765	 2.0715483354	 0.4327585014	 0.165373
H	 1.7376408023	 2.663286527	-2.19602055	 0.107019
H	 4.3015833364	 3.0975622457	-1.4106511704	 0.103753
H	 4.5206955795	 2.3815891903	 1.169891765	 0.103948
H	 1.8016753879	 2.3613861175	 1.9319666702	 0.129361
H	 2.5029971931	 0.8408642511	 1.379598075	 0.136276
55.6453	98.9999	187.589	308.8491	362.1848	385.8468	404.2218	482.4055	550.5502	685.526	721.1437	815.0471	849.9026	857.3032	871.9867	924.2728	930.4042	942.039	978.5714	1019.357	1032.7304	1108.6745	1166.2195	1191.7176	1214.1729	1256.4779	1283.568	1310.855	1324.3429	1357.9818	1410.4163	1450.5939	1459.2964	1696.5328	2363.0849	3022.0767	3033.8576	3068.8481	3083.6287	3155.8785	3172.7043	3207.1838
N#CCC1=CC2OC2C1	N#CCC1=C[C@H]2O[C@H]2C1	
InChI=1S/C7H7NO/c8-2-1-5-3-6-7(4-5)9-6/h3,6-7H,1,4H2	InChI=1S/C7H7NO/c8-2-1-5-3-6-7(4-5)9-6/h3,6-7H,1,4H2/t6-,7+/m1/s1
