22
gdb 77893	2.06139	1.54566	1.35519	2.1573	82.85	-0.2196	0.0645	0.2841	1137.8821	0.192223	-404.301398	-404.29136	-404.290416	-404.335436	37.838	
C	-0.3493606089	 1.5679159931	-0.0034591559	-0.427177
C	-0.02960489	 0.0768645232	 0.0067478077	-0.073793
C	 0.9840711301	-0.5477774661	-1.0250046158	 0.07928
O	 1.7433434422	 0.2978831867	-1.8677982784	-0.421179
C	 1.7683571788	-1.1749291192	 0.1336171828	-0.127064
N	 2.1999209117	-0.2428653333	 1.1427366644	-0.11642
C	 2.8149844875	 1.0570841404	 0.8882990618	-0.324126
C	 0.7974833894	-0.571682673	 1.1463309096	 0.306841
C	 0.1893123089	-1.1668752349	 2.3850986291	-0.480869
H	 0.542541193	 2.194659288	 0.0088344639	 0.12811
H	-0.9292979436	 1.8325650858	-0.8957784192	 0.104245
H	-0.9581372235	 1.8357517439	 0.8671438163	 0.117269
H	-0.9720485997	-0.4776652981	-0.0796866323	 0.069308
H	 0.4892994252	-1.3304817208	-1.6164624159	 0.071579
H	 1.1676933243	 0.6159659634	-2.5706840337	 0.284217
H	 2.2236854486	-2.1605925109	 0.1046579559	 0.084215
H	 2.5716885613	 1.7281336833	 1.7186508848	 0.110649
H	 3.9014759113	 0.9173565617	 0.8818490598	 0.116396
H	 2.5313295557	 1.5227951843	-0.0578778831	 0.138058
H	-0.1550618311	-0.3821740161	 3.0699505376	 0.118399
H	-0.6756835092	-1.7931540519	 2.1402535936	 0.111974
H	 0.9269794781	-1.7730382295	 2.9167965871	 0.130088
123.2539	149.455	177.5661	187.4673	201.3206	231.4356	260.1766	273.0098	273.8377	302.6463	366.5175	493.3703	561.1804	620.553	675.5173	717.6502	746.4517	793.2857	896.0716	932.3316	956.6263	984.4268	1026.2454	1037.8948	1100.0529	1140.1592	1150.8191	1152.8734	1158.0043	1187.1401	1197.6344	1226.1165	1259.7654	1281.0754	1318.4504	1371.6895	1399.5633	1406.2108	1423.1695	1433.6457	1472.0516	1483.952	1485.4815	1492.0063	1495.8758	1503.9845	1526.3614	2997.6872	3023.639	3026.7505	3030.1354	3035.0474	3081.1343	3084.2648	3091.1649	3119.7786	3120.3185	3147.1759	3150.8962	3813.7896
CC1C(O)C2N(C)C12C	C[C@H]1[C@@H](O)[C@H]2N(C)[C@@]12C	
InChI=1S/C7H13NO/c1-4-5(9)6-7(4,2)8(6)3/h4-6,9H,1-3H3	InChI=1S/C7H13NO/c1-4-5(9)6-7(4,2)8(6)3/h4-6,9H,1-3H3/t4-,5+,6+,7-,8?/m0/s1
