15
gdb 55505	3.53567	0.98716	0.86803	2.2696	64.49	-0.2525	-0.0514	0.2011	1334.0826	0.110035	-491.145114	-491.135424	-491.13448	-491.181816	33.106	
C	 0.4252117692	 1.2405795571	-0.1141943181	-0.462339
C	-0.2789402423	-0.047318624	 0.1944652185	 0.387336
N	-0.7673277443	-0.485945629	 1.2651325584	-0.435804
O	-0.4357005011	-0.8069950664	-0.9700772054	-0.227001
C	 0.0556100591	-2.0586660968	-1.0303292607	 0.38929
O	 0.7966827428	-2.5705830161	-0.236087675	-0.34459
C	-0.4305240175	-2.7625445018	-2.3200846524	 0.296129
N	 0.0755675223	-4.0152786883	-2.3888766557	-0.514189
O	-1.1572101954	-2.2345892271	-3.1304081336	-0.333699
H	 0.4421941806	 1.8968019171	 0.7574453213	 0.134547
H	 1.4538536322	 1.0362303965	-0.4300709794	 0.156189
H	-0.0735272905	 1.7499209697	-0.9442276099	 0.162757
H	-0.6226144633	 0.1776625362	 2.0250686099	 0.235433
H	 0.6609519354	-4.3542096705	-1.6434095634	 0.283509
H	-0.1695143474	-4.6062859765	-3.1646860046	 0.272433
17.5859	61.816	70.1007	144.0356	167.9373	253.606	307.8629	350.7554	418.8223	468.8874	517.5239	542.7492	559.5916	641.295	652.3753	811.267	829.3179	881.7134	926.7691	1015.2348	1055.894	1076.3519	1096.7821	1222.0692	1317.9603	1368.4486	1408.8788	1469.6621	1477.7482	1593.3325	1757.5021	1828.4783	1837.1932	3045.6336	3110.263	3144.8565	3502.5212	3602.7475	3744.1223
CC(=N)OC(=O)C(N)=O	C[C]([NH])OC(=O)C(=O)N	
InChI=1S/C4H6N2O3/c1-2(5)9-4(8)3(6)7/h5H,1H3,(H2,6,7)	InChI=1S/C4H6N2O3/c1-2(5)9-4(8)3(6)7/h5H,1H3,(H2,6,7)
