21
gdb 95954	2.49541	1.56371	1.16539	2.6965	77.53	-0.2429	0.0705	0.3135	1128.9798	0.18312	-424.214456	-424.205844	-424.2049	-424.248016	32.645	
C	-0.4551361104	 1.3712215386	 0.0597255918	-0.42475
C	 0.0532698042	-0.0643579048	-0.0463537816	-0.036591
C	 1.1245666383	-0.3186846686	-1.1170153034	-0.247978
C	 1.6790020485	-1.6743096045	-0.6777421227	-0.082592
O	 1.5586307992	-1.7031592126	 0.7483460362	-0.305799
C	 0.7291044269	-0.651956313	 1.2071813815	 0.369291
C	 1.3968270745	 0.3082143198	 2.2284369666	-0.127682
O	 0.3244927586	 0.0971364557	 3.1692973588	-0.275523
C	-0.1887578868	-1.007287623	 2.396301021	-0.131266
H	 0.370789736	 2.0849752394	 0.1403598527	 0.120217
H	-1.0358425603	 1.6396781993	-0.8280150712	 0.116106
H	-1.098403891	 1.5040106868	 0.9353861503	 0.134553
H	-0.8028622132	-0.7196171444	-0.2641154273	 0.081289
H	 0.727581799	-0.3292179436	-2.1353414016	 0.103653
H	 1.9011022999	 0.454089118	-1.0642801893	 0.105043
H	 1.0975893412	-2.500875797	-1.1116216192	 0.096182
H	 2.7305187715	-1.8257481643	-0.9422133275	 0.1063
H	 2.3526815	-0.0924362365	 2.5903052085	 0.100995
H	 1.514388716	 1.3654523485	 1.9690309473	 0.097076
H	-1.2715682754	-0.9325480911	 2.2366492329	 0.096
H	 0.0539052334	-1.9802460626	 2.8425080563	 0.105476
62.7154	98.0149	175.6982	219.9506	240.8246	292.7974	363.1765	402.7096	454.4595	506.7214	599.5197	700.9479	800.7245	850.1975	888.8458	920.5028	946.1633	965.2722	986.5811	991.9949	1007.2316	1026.5993	1049.3978	1104.5122	1136.022	1148.9023	1162.1504	1173.4601	1193.2968	1215.2163	1236.9534	1267.4875	1296.2723	1312.6177	1346.9488	1372.1684	1383.7176	1397.3521	1418.3749	1490.8196	1492.0255	1496.2933	1510.5225	1527.5732	1530.577	2995.2607	2997.5901	3006.826	3019.7894	3035.8335	3039.1815	3060.8386	3069.2521	3074.0823	3101.4161	3107.0538	3109.14
CC1CCOC11COC1	C[C@H]1CCOC21COC2	
InChI=1S/C7H12O2/c1-6-2-3-9-7(6)4-8-5-7/h6H,2-5H2,1H3	InChI=1S/C7H12O2/c1-6-2-3-9-7(6)4-8-5-7/h6H,2-5H2,1H3/t6-/m0/s1
