18
gdb 38541	3.09647	1.72672	1.25014	3.8472	77.15	-0.2447	0.0258	0.2705	1007.0008	0.150237	-401.923102	-401.916151	-401.915206	-401.954182	28.342	
C	-0.0455222812	 1.4211145361	 0.2478221557	-0.350339
C	 1.2805298749	 0.7901207216	-0.0040060625	-0.003292
O	 1.6925457312	 0.0330779082	 1.1763906426	-0.290211
C	 0.620143129	-0.8206249729	 0.9602031574	 0.460905
N	 0.4080781812	-1.965443369	 1.4200672097	-0.341254
C	-0.7175633965	-2.6558689656	 0.7631376254	-0.150639
C	-1.6033064452	-1.8223582364	-0.1993250618	-0.214715
C	-0.7951673426	-0.8684466122	-1.1148916682	-0.337757
C	 0.0256756987	-0.0489958167	-0.1577534772	 0.195611
H	-0.3174898129	 1.7197758541	 1.2565611009	 0.129915
H	-0.4074292632	 2.0734564584	-0.5433467595	 0.122448
H	 2.0621222946	 1.1005268436	-0.6841653819	 0.127519
H	-0.2836360483	-3.5075014675	 0.2214906812	 0.11186
H	-1.3522100805	-3.0915710198	 1.5427979584	 0.112655
H	-2.2090070497	-2.5094926857	-0.7992122483	 0.099553
H	-2.3010327154	-1.2157851898	 0.3905734759	 0.109304
H	-0.1490512158	-1.4458365375	-1.7874121267	 0.113102
H	-1.4611344183	-0.262558489	-1.735637021	 0.105337
151.2807	210.2968	260.2386	334.0102	397.9304	458.3723	460.8315	564.58	639.8144	684.3195	758.2075	822.5097	843.6035	870.3731	880.0024	902.8405	935.9888	947.5835	1004.2611	1019.8457	1043.9591	1080.6721	1092.6135	1119.28	1136.659	1181.254	1211.8513	1264.6956	1270.9884	1296.9315	1336.4143	1365.4618	1371.7338	1408.6495	1480.1887	1486.2478	1489.4356	1497.9644	1832.577	3015.1148	3029.7201	3034.4897	3059.1885	3081.0562	3088.6515	3108.5019	3198.8187	3216.2616
C1C2OC3=NCCCC123	C1[C@H]2O[C]3[N]CCC[C@]123	
InChI=1S/C7H9NO/c1-2-7-4-5(7)9-6(7)8-3-1/h5H,1-4H2	InChI=1S/C7H9NO/c1-2-7-4-5(7)9-6(7)8-3-1/h5H,1-4H2/t5-,7+/m1/s1
