19
gdb 32600	2.68668	1.25658	0.92151	3.2225	79.01	-0.1882	0.0345	0.2227	1296.3729	0.15942	-419.260341	-419.250987	-419.250043	-419.29485	34.291	
C	 0.0286789474	 1.572839045	 0.1815353885	-0.372864
C	-0.0172596269	 0.0649683498	-0.0816769507	-0.161962
N	-1.3623401204	-0.483613005	-0.0242723024	-0.016634
C	-2.05998269	-0.7687263514	 1.1469692643	-0.24403
C	-3.2887281373	-1.1940488228	 0.7207883156	 0.33306
O	-4.3271006375	-1.5985703555	 1.4877141951	-0.440914
N	-3.3766334993	-1.1785039509	-0.6395956728	-0.397705
C	-2.2003816875	-0.7414998513	-1.0665904152	 0.338876
C	-1.8359070937	-0.5623802469	-2.5032020722	-0.504591
H	 1.0615135329	 1.9327104054	 0.143618582	 0.12111
H	-0.5544355899	 2.1180480447	-0.5663755491	 0.130567
H	-0.3818875629	 1.8078584246	 1.1673812149	 0.134701
H	 0.3973093472	-0.1616382169	-1.0674040324	 0.123093
H	 0.5979342608	-0.4669023096	 0.6519327592	 0.123608
H	-1.6210565045	-0.6562016154	 2.1225113076	 0.120765
H	-5.0318588364	-1.8351021568	 0.8726361147	 0.297073
H	-1.5896123152	 0.4776324167	-2.7472368589	 0.130129
H	-0.9786635593	-1.1806739908	-2.7952406575	 0.131822
H	-2.6921374276	-0.8606717229	-3.1093902105	 0.153895
48.2719	106.8007	135.9714	204.6938	221.6232	286.1211	305.0756	322.6727	375.7151	427.0718	514.5403	608.0751	640.9045	644.9706	674.6026	726.7681	787.7792	812.0403	965.5467	1009.8668	1048.4095	1059.3904	1094.0477	1099.3293	1165.5312	1198.7153	1249.0383	1301.5445	1369.3156	1391.831	1408.3366	1409.2403	1431.0102	1468.5725	1483.8418	1486.1577	1489.4615	1505.1044	1518.7542	1547.3326	1664.3258	3025.9835	3042.7458	3050.842	3072.8444	3097.6158	3117.1297	3127.0448	3146.3973	3285.9123	3802.2324
CCN1C=C(O)N=C1C	CCn1cc(O)nc1C	
InChI=1S/C6H10N2O/c1-3-8-4-6(9)7-5(8)2/h4,9H,3H2,1-2H3	InChI=1S/C6H10N2O/c1-3-8-4-6(9)7-5(8)2/h4,9H,3H2,1-2H3
