18
gdb 23268	2.5675	1.49476	1.08436	1.5498	74.22	-0.2536	-0.0013	0.2523	1121.5041	0.147918	-439.041289	-439.033018	-439.032074	-439.074107	32.08	
O	-0.0129572937	 1.2884053548	 0.0693648763	-0.38953
N	 0.0275347485	-0.1115009989	 0.0940956034	-0.235237
C	-1.1236909038	-0.6359873066	-0.0114445114	 0.346148
C	-2.4709090842	 0.0085848361	-0.2202666079	-0.321918
C	-3.2825194404	-1.0970625138	-0.8875575332	-0.044097
C	-2.6767889077	-1.7320878273	-2.113251088	-0.283872
C	-2.5266963144	-2.4102985693	-0.7772466652	-0.042551
C	-1.2311805124	-2.1572683399	-0.0276466215	 0.061915
O	-0.1124391793	-2.7916809083	-0.6091017892	-0.439945
H	 0.9196338966	 1.5247756301	 0.1188871138	 0.308315
H	-2.9086196508	 0.2940618967	 0.745285984	 0.124911
H	-2.3820116708	 0.9243553932	-0.8123406406	 0.133938
H	-4.3619071048	-1.0708138065	-0.7953820383	 0.086528
H	-3.353246646	-2.1887958845	-2.8265571746	 0.113816
H	-1.7964780348	-1.2802794837	-2.5606920863	 0.123517
H	-3.0442894599	-3.3449110603	-0.5992321267	 0.088815
H	-1.3593985396	-2.5036245277	 1.0139830156	 0.081123
H	 0.6453475275	-2.2206089141	-0.4289507902	 0.288125
70.828	180.1866	192.8093	249.8587	294.9066	342.1454	359.5374	402.3225	515.7065	537.5805	555.2756	623.6441	717.7401	797.4663	826.372	831.2112	898.387	923.8734	975.3878	1006.977	1026.1363	1051.9256	1068.9958	1096.0543	1108.6198	1127.0182	1181.9859	1204.0547	1221.2741	1254.3424	1293.3556	1341.2442	1356.3847	1390.2828	1407.5762	1425.0052	1470.3888	1494.3	1765.7312	2933.6444	3028.9076	3084.8283	3130.2087	3176.1919	3186.6878	3217.5382	3768.0076	3815.4711
ON=C1CC2CC2C1O	ON=C1C[C@H]2C[C@H]2[C@H]1O	
InChI=1S/C6H9NO2/c8-6-4-1-3(4)2-5(6)7-9/h3-4,6,8-9H,1-2H2	InChI=1S/C6H9NO2/c8-6-4-1-3(4)2-5(6)7-9/h3-4,6,8-9H,1-2H2/t3-,4-,6-/m1/s1
