20
gdb 101775	2.70415	1.12584	0.90341	4.1511	73.05	-0.2337	0.0054	0.2391	1336.533	0.169679	-477.443542	-477.433324	-477.432379	-477.479457	36.937	
C	 0.4150898485	 1.4355870147	-0.234736509	-0.402985
C	 0.2803094807	-0.0797371499	-0.0819363153	 0.122162
C	-0.0800404714	-0.4984722557	 1.3514307187	-0.084632
O	-1.266655445	 0.0947887103	 1.8310967803	-0.437493
O	-0.5891065657	-0.6631657391	-1.0691677044	-0.273431
C	-1.9227116655	-0.2068584229	-1.1637023731	-0.18651
C	-2.8819896134	-1.3004663195	-0.6719587274	 0.425662
N	-3.6016612762	-1.9222688919	-1.6362988457	-0.503311
O	-2.9951533264	-1.595302839	 0.511018113	-0.374929
H	 1.2748198195	 1.7861046085	 0.3450697788	 0.118491
H	 0.5756335985	 1.7054830953	-1.2822845537	 0.112996
H	-0.4649139422	 1.9589330245	 0.1464725457	 0.138028
H	 1.2440729971	-0.5467648501	-0.3205291104	 0.080894
H	-0.1355753243	-1.5951681612	 1.3897580996	 0.096554
H	 0.7424909066	-0.1852022119	 2.0089099587	 0.093264
H	-1.9969096538	-0.4856223806	 1.5488276086	 0.308107
H	-2.1104038815	 0.6849778788	-0.5608653193	 0.139797
H	-2.1283828026	 0.0373273414	-2.2151755023	 0.090293
H	-3.4282374427	-1.7612187583	-2.6127782301	 0.269275
H	-4.1973059102	-2.6909801733	-1.3716881327	 0.267769
30.8743	83.4402	114.5232	195.5511	207.7867	237.2477	241.6824	287.9582	317.1224	373.7159	420.114	450.662	547.7968	610.6362	687.6617	729.9602	760.7272	785.9875	871.8683	901.7843	913.5793	998.5241	1009.7781	1060.3802	1110.2015	1121.0779	1143.2834	1172.6575	1270.4144	1282.6496	1343.5939	1359.8506	1381.9295	1397.4269	1415.7849	1425.388	1474.9089	1480.6367	1481.9401	1493.3666	1504.4074	1622.9457	1769.3909	2999.9848	3003.6888	3035.2217	3044.1272	3047.1492	3101.3769	3111.8945	3129.8493	3581.9148	3599.1059	3735.1589
CC(CO)OCC(N)=O	C[C@@H](CO)OCC(=O)N	
InChI=1S/C5H11NO3/c1-4(2-7)9-3-5(6)8/h4,7H,2-3H2,1H3,(H2,6,8)	InChI=1S/C5H11NO3/c1-4(2-7)9-3-5(6)8/h4,7H,2-3H2,1H3,(H2,6,8)/t4-/m0/s1
