17
gdb 75625	2.02749	1.87815	1.15421	1.1702	69.5	-0.2536	-0.038	0.2156	1064.4374	0.133741	-458.939116	-458.93013	-458.929186	-458.972703	33.073	
O	 0.6657342598	 0.652562945	-0.8178790199	-0.426331
C	 0.2157185166	-0.4304585077	-0.0664824115	-0.008275
C	 0.0886017751	-0.2177260413	 1.4464880422	 0.273388
O	 0.4499807616	 0.7099031683	 2.1239209351	-0.319316
C	-1.1766014058	-1.0760849166	 1.5603787208	-0.008275
O	-2.1451610274	-0.6508355378	 2.4665285772	-0.426336
C	-1.3005310424	-0.7546473927	 0.0445458693	 0.244977
C	-2.3775309993	 0.1059153631	-0.535660693	-0.305182
C	-2.2245621823	-1.3342861345	-0.976297902	-0.346963
H	 0.6580802163	 1.4256187395	-0.2383648553	 0.296547
H	 0.7904401141	-1.3212811785	-0.3442580253	 0.113351
H	-0.9787465428	-2.1416621396	 1.7229519205	 0.113346
H	-1.8997513599	 0.2394283426	 2.7506358516	 0.296548
H	-3.2152308699	 0.3531732754	 0.1078775716	 0.127235
H	-2.0719786818	 0.8833116792	-1.2279848134	 0.12723
H	-1.8279119425	-1.5245825777	-1.9686946894	 0.124028
H	-2.9657386693	-2.0522065267	-0.6391879285	 0.124028
87.9501	154.0427	164.3848	183.9508	206.6471	222.9687	304.2162	320.4436	402.5747	526.239	539.6601	639.6901	651.6315	785.3153	794.5607	816.5657	880.6053	928.1532	962.5688	982.5905	1012.9415	1048.5612	1081.7745	1096.0573	1126.6132	1160.8701	1191.7567	1228.3908	1240.3833	1303.7839	1338.8887	1372.0343	1410.5961	1426.2461	1455.7651	1498.0939	1843.0173	3044.1623	3052.8243	3123.4802	3130.1144	3206.3374	3224.122	3765.9277	3768.1333
OC1C(=O)C(O)C11CC1	O[C@H]1C(=O)[C@@H](O)C21CC2	
InChI=1S/C6H8O3/c7-3-4(8)6(1-2-6)5(3)9/h4-5,8-9H,1-2H2	InChI=1S/C6H8O3/c7-3-4(8)6(1-2-6)5(3)9/h4-5,8-9H,1-2H2/t4-,5+
