21
gdb 115720	2.6754	1.15112	0.98916	2.4203	75.24	-0.2473	0.0615	0.3088	1319.987	0.180604	-461.328194	-461.318238	-461.317294	-461.363428	36.012	
C	 0.0301817091	 1.5982023486	 0.3024215374	-0.238259
O	 0.6129997082	 0.3580311543	-0.0344038492	-0.230151
C	 0.7778079228	-0.493321317	 1.0579582702	 0.093815
C	-0.4368693335	-1.2994818572	 1.574479858	-0.117685
O	 0.279202909	-2.5465867007	 1.3893944717	-0.308042
C	 1.3788375179	-1.8733375912	 0.7130566295	 0.055364
C	 1.4359119955	-2.2831857658	-0.7679925635	 0.134402
C	 2.2525756466	-3.5656554426	-0.9569109575	-0.410881
O	 0.1240139467	-2.4327185832	-1.283105045	-0.438389
H	 0.6295800164	 2.1352502252	 1.0543564341	 0.106452
H	-0.0124369764	 2.1939960648	-0.6116805094	 0.135048
H	-0.9910210083	 1.4802964748	 0.6945793493	 0.111106
H	 1.3190371081	 0.018929289	 1.8674604722	 0.072328
H	-0.732320724	-1.1581669692	 2.6193262122	 0.105388
H	-1.3123672844	-1.2274612888	 0.9187063335	 0.113007
H	 2.3328527901	-2.0898783775	 1.2075266884	 0.080145
H	 1.8928221145	-1.4618182969	-1.3303043803	 0.101474
H	 1.8438130242	-4.3767785019	-0.3432455528	 0.1206
H	 2.2167282129	-3.876898483	-2.0039042025	 0.12342
H	 3.2999401376	-3.4180684422	-0.6715387627	 0.107867
H	-0.3419933929	-2.9682845696	-0.6266817037	 0.28299
66.8771	96.8154	108.028	127.8333	198.1475	238.9729	272.3168	293.9029	314.1517	419.8282	445.1823	483.4028	549.7946	630.6399	769.966	808.1688	883.5774	915.9402	974.6158	1001.7876	1019.7563	1045.995	1062.0814	1074.4926	1110.9319	1140.6513	1170.7968	1181.0108	1187.3976	1239.4688	1259.1764	1282.9411	1304.9106	1318.783	1344.8674	1383.8119	1400.6491	1408.3212	1433.837	1481.7742	1490.6028	1492.9396	1497.4379	1506.7879	1507.8148	2974.8368	2987.3875	3023.89	3027.9081	3028.8452	3042.3473	3061.6533	3084.2451	3098.5582	3121.391	3123.7579	3753.8611
COC1COC1C(C)O	CO[C@H]1CO[C@H]1[C@@H](C)O	
InChI=1S/C6H12O3/c1-4(7)6-5(8-2)3-9-6/h4-7H,3H2,1-2H3	InChI=1S/C6H12O3/c1-4(7)6-5(8-2)3-9-6/h4-7H,3H2,1-2H3/t4-,5+,6+/m1/s1
