16
gdb 51098	4.62233	0.93061	0.85153	0.9218	72.08	-0.258	-0.0362	0.2217	1320.3162	0.122473	-437.863198	-437.854886	-437.853941	-437.897381	30.094	
N	-0.0705410225	 1.1826772096	-0.1253530614	-0.55156
C	-0.0811753383	-0.0618372766	 0.0024856327	 0.452064
O	 0.9774396235	-0.963037838	 0.1712691142	-0.308247
C	 0.0469187259	-2.0809786055	 0.0285344983	 0.445371
C	 0.4949925917	-3.2358582239	-0.8113786584	-0.386889
C	 1.6276617401	-4.0173637641	-0.1585547797	 0.158598
O	 1.6528460282	-5.2164450837	-0.0729642148	-0.23045
C	-0.9036307098	-2.0488130515	 1.1713138073	-0.326813
C	-1.1260390482	-1.1255524444	-0.0362859447	-0.270554
H	 0.8789286259	 1.5549913386	-0.0726137716	 0.233643
H	-0.3343054033	-3.9209206681	-1.0053804194	 0.136435
H	 0.8630235686	-2.8531979061	-1.7735618442	 0.142256
H	 2.4561049998	-3.3882774523	 0.2335370734	 0.102617
H	-1.6091314945	-2.8724090214	 1.2276236005	 0.135951
H	-0.5936202161	-1.6355470753	 2.1255993294	 0.137974
H	-2.0293627711	-1.1300906572	-0.6280111817	 0.129603
48.2271	59.0849	124.268	184.7183	325.2734	346.246	420.4402	442.1664	492.8697	634.9908	683.4843	730.686	808.5344	843.3305	869.0039	899.2351	921.9832	973.4084	982.422	995.2554	1008.9605	1061.4925	1081.3237	1095.1008	1143.5769	1212.8147	1221.4978	1300.1751	1307.1434	1405.7916	1426.3824	1444.135	1492.3488	1836.463	1838.4468	2902.2909	3023.5416	3111.1676	3126.7702	3219.0094	3233.2415	3482.2882
N=C1OC2(CC=O)CC12	[NH][C]1O[C@@]2(CC=O)C[C@@H]12	
InChI=1S/C6H7NO2/c7-5-4-3-6(4,9-5)1-2-8/h2,4,7H,1,3H2	InChI=1S/C6H7NO2/c7-5-4-3-6(4,9-5)1-2-8/h2,4,7H,1,3H2/t4-,6-/m0/s1
