21
gdb 86802	4.33547	0.72628	0.69416	2.7181	79.63	-0.2415	-0.0086	0.2329	1684.604	0.179894	-424.238204	-424.228048	-424.227104	-424.274863	36.458	
C	-0.328250106	 1.4292374939	 0.00320918	-0.473047
C	-0.2501063074	-0.0834389273	 0.1202621895	 0.386712
O	-0.4223384603	-0.6513984958	 1.1749015554	-0.293734
C	 0.0598082164	-0.8453424872	-1.1645567959	-0.334524
C	-0.0304447597	-2.3547856859	-1.0182329617	 0.060351
C	-1.4313154904	-3.0159349515	-0.8861658076	-0.242089
C	-0.9241438167	-4.1701421627	-1.7714727137	 0.145258
O	-1.873954641	-4.6448143541	-2.6973825877	-0.431723
C	 0.2201346831	-3.2420340453	-2.2701058003	-0.301502
H	 0.5667434796	 1.8303124453	-0.4847404634	 0.133949
H	-1.183036443	 1.7099774286	-0.6232600031	 0.140863
H	-0.4444468317	 1.8735455296	 0.9924286228	 0.141959
H	-0.6118612528	-0.4852781461	-1.956731649	 0.112687
H	 1.0681277876	-0.5444349358	-1.4880245966	 0.119525
H	 0.6052625818	-2.6713354923	-0.1870294536	 0.086488
H	-1.8029335234	-3.2458365078	 0.1129415683	 0.111396
H	-2.1922140876	-2.4493677162	-1.4337813838	 0.102214
H	-0.5218498792	-4.9899432213	-1.1588145591	 0.066404
H	-1.4806149428	-5.3725971472	-3.1892562285	 0.28032
H	-0.0955398737	-2.7351367899	-3.1882429468	 0.098939
H	 1.2170691174	-3.6668284409	-2.416240095	 0.089555
30.6694	58.5725	90.353	101.4419	154.6413	266.4593	301.3834	310.5551	397.546	405.5862	463.5301	478.0977	553.584	639.7153	788.4402	807.7985	821.5927	829.8081	923.1959	939.9465	964.928	981.3073	1024.7813	1058.5603	1088.7243	1118.1959	1159.6278	1178.7339	1186.4737	1217.6061	1247.2573	1249.6591	1265.2806	1283.1103	1323.9056	1343.272	1380.263	1397.117	1430.6793	1445.4866	1464.3769	1471.4993	1475.894	1502.2761	1808.7107	2992.026	3001.3196	3032.1727	3036.2689	3044.2038	3055.3182	3074.6997	3096.3907	3104.5854	3129.6638	3151.3687	3815.5013
CC(=O)CC1CC(O)C1	CC(=O)C[C@H]1C[C@@H](O)C1	
InChI=1S/C7H12O2/c1-5(8)2-6-3-7(9)4-6/h6-7,9H,2-4H2,1H3	InChI=1S/C7H12O2/c1-5(8)2-6-3-7(9)4-6/h6-7,9H,2-4H2,1H3/t6-,7+
