15
gdb 125633	2.03693	1.87142	0.98126	1.8574	76.82	-0.2131	0.0167	0.2298	1138.0109	0.112037	-416.809471	-416.800736	-416.799791	-416.84273	32.284	
C	-0.0728802298	 1.4838436075	-0.0857810039	-0.505022
C	-0.0195329123	-0.0056005538	-0.0026568558	 0.268911
N	-0.0400429586	-0.7547022451	-1.092908832	-0.29172
N	 0.022635447	-2.0427239758	-0.6358492476	-0.266093
C	 0.0808839599	-2.1080499085	 0.7039383805	 0.362859
O	 0.1471054182	-3.2893337175	 1.3337765448	-0.421955
C	 0.0567715742	-0.8037875364	 1.1837502972	-0.067699
C	 0.1013866154	-0.4436720803	 2.5437970836	 0.179568
C	 0.1414355061	-0.1800893757	 3.7209134531	-0.457089
H	 0.8146198387	 1.9372793112	 0.3685320028	 0.135616
H	-0.1298941044	 1.7939396189	-1.1309267672	 0.141678
H	-0.9444369207	 1.8786109171	 0.4472771781	 0.135598
H	 0.0212353638	-2.8101976145	-1.2853782756	 0.281691
H	 0.1807610972	-3.1113912437	 2.2831641661	 0.317202
H	 0.1755897854	 0.0712726665	 4.7516969457	 0.186454
106.2622	110.0221	149.0879	206.8228	269.1638	355.5694	392.7653	393.6877	451.1731	476.7114	512.8341	539.4414	582.9598	671.3564	674.7612	681.2738	735.2244	802.1574	999.3378	1066.307	1068.9124	1124.8377	1189.9523	1265.208	1369.3653	1398.5078	1428.678	1479.6177	1481.0618	1520.8703	1602.5736	1621.9414	2219.0856	3038.7746	3091.5387	3137.863	3501.3772	3682.8655	3778.614
CC1=NNC(O)=C1C#C	Cc1n[nH]c(O)c1C#C	
InChI=1S/C6H6N2O/c1-3-5-4(2)7-8-6(5)9/h1H,2H3,(H2,7,8,9)	InChI=1S/C6H6N2O/c1-3-5-4(2)7-8-6(5)9/h1H,2H3,(H2,7,8,9)
