20
gdb 46373	3.56337	0.9246	0.80843	2.2964	80.45	-0.2615	0.028	0.2894	1457.3736	0.17159	-403.134966	-403.126242	-403.125298	-403.16931	32.42	
N	-0.1815479715	 1.0846954651	-0.5856954867	-0.542953
C	-0.0955155457	-0.090919786	-0.1564106346	 0.441879
O	 1.0026137777	-0.8113075715	 0.266687875	-0.254045
C	 0.1666014459	-1.9616179343	 0.6086784381	-0.112386
C	-1.0895952307	-1.2062270357	 0.1195930566	-0.121431
C	-2.2005788557	-0.9048054506	 1.1281783322	-0.244309
C	-3.2562860113	 0.021588771	 0.5624583167	 0.038573
C	-4.4178120603	-0.5419079154	-0.2193316189	-0.258617
C	-4.6410037789	 0.0457360962	 1.153663385	-0.281538
H	 0.732002506	 1.5413145242	-0.6088701739	 0.22726
H	 0.4650152957	-2.8452003021	 0.0397066979	 0.119861
H	 0.2099265711	-2.1664054617	 1.6821064006	 0.118825
H	-1.5136296836	-1.6184071158	-0.8003700901	 0.110203
H	-2.6656280271	-1.8503115425	 1.4374546945	 0.094759
H	-1.7566400581	-0.4639750504	 2.0306641842	 0.104027
H	-2.8611894084	 0.9697659143	 0.2111166646	 0.120154
H	-4.7762543609	 0.0082864207	-1.0820537176	 0.11524
H	-4.4889298801	-1.6206469651	-0.3215620964	 0.104147
H	-4.8585523036	-0.640302568	 1.9663789747	 0.106664
H	-5.1522966506	 0.9987667276	 1.2312012082	 0.113687
66.8271	78.1298	105.4937	157.7448	234.6348	310.6608	367.8725	405.9125	468.4901	662.0513	747.95	770.9569	803.5069	809.3077	844.3228	863.642	889.2524	930.7379	956.9566	966.3626	991.9234	1019.9534	1056.1164	1077.3152	1084.6227	1123.7156	1145.3008	1156.1834	1164.8665	1200.888	1224.3597	1231.0645	1240.225	1269.7272	1306.0575	1357.8292	1381.3979	1420.6595	1469.7413	1484.1463	1508.4955	1515.1324	1818.0082	3010.4067	3046.1664	3057.4858	3078.4684	3117.6948	3125.7953	3131.3711	3164.362	3204.9822	3220.4088	3473.5085
N=C1OCC1CC1CC1	[NH][C]1OC[C@H]1CC1CC1	
InChI=1S/C7H11NO/c8-7-6(4-9-7)3-5-1-2-5/h5-6,8H,1-4H2	InChI=1S/C7H11NO/c8-7-6(4-9-7)3-5-1-2-5/h5-6,8H,1-4H2/t6-/m1/s1
