18
gdb 123746	5.00031	1.01585	0.97487	3.4927	77.29	-0.257	0.0088	0.2658	1251.6045	0.151228	-398.143329	-398.135868	-398.134924	-398.176582	27.839	
C	-0.1210737013	 1.483273592	 0.0357809158	-0.21249
C	 1.411603802	 1.4960724217	-0.2193960301	-0.242988
C	 1.4850094502	 0.1302510583	 0.5136458058	 0.096417
C	-0.0342084804	-0.0525207825	 0.2552611675	-0.242986
N	 2.4178198973	-0.8793619772	 0.0613065606	 0.02122
C	 2.5921915962	-1.4185337868	-1.1646745537	 0.012359
N	 3.5601781035	-2.3172391073	-1.1489098664	-0.279051
C	 3.9597056217	-2.289566172	 0.1515320774	 0.034412
N	 3.3030693463	-1.4413031079	 0.9253685928	-0.249211
H	-0.3841361806	 2.0109465385	 0.9560510189	 0.114662
H	-0.7668393206	 1.8398591465	-0.7678272759	 0.109649
H	 1.6409011281	 1.3868616725	-1.2832085711	 0.112654
H	 2.0070810541	 2.3157171284	 0.1871687175	 0.114863
H	 1.6945946179	 0.2599742006	 1.5752863835	 0.117041
H	-0.6271203477	-0.5057507883	 1.0519690319	 0.11486
H	-0.2142880261	-0.6002023586	-0.6741576492	 0.112647
H	 2.004383944	-1.133834577	-2.0238861504	 0.139412
H	 4.7531405152	-2.9110975208	 0.5391063949	 0.12653
31.5552	121.3562	129.957	256.4522	384.2008	398.9393	557.4987	673.1367	695.9568	727.715	786.0262	855.3295	872.7603	905.1351	917.5644	926.5531	950.9141	974.1685	1012.8011	1046.8243	1047.0794	1128.4644	1172.1288	1202.3768	1217.314	1233.3784	1250.7114	1253.1018	1259.4472	1281.9485	1290.797	1316.5702	1386.5609	1405.2104	1470.0875	1476.9927	1488.2519	1509.9169	1548.9304	3063.5346	3067.105	3072.0945	3110.3606	3122.2077	3124.3908	3138.5148	3257.5624	3261.3522
C1CC(C1)N1C=NC=N1	C1CC(C1)n1cncn1	
InChI=1S/C6H9N3/c1-2-6(3-1)9-5-7-4-8-9/h4-6H,1-3H2	InChI=1S/C6H9N3/c1-2-6(3-1)9-5-7-4-8-9/h4-6H,1-3H2
