17
gdb 27110	2.91078	1.21793	0.91178	2.3277	79.07	-0.1827	-0.0217	0.161	1246.6318	0.136196	-418.046374	-418.03724	-418.036296	-418.081594	32.568	
N	 0.1772967187	 1.5154741989	 0.191210991	-0.610042
C	 0.0826599702	 0.1136358549	 0.078137715	 0.167238
C	-1.0796322008	-0.628091197	-0.0454121585	 0.23066
C	-2.5241885963	-0.232199226	-0.0699631265	-0.387588
C	-3.0849410729	-0.6461835494	-1.42091998	 0.155317
O	-3.688113707	-1.6744161555	-1.6072567134	-0.256888
N	-0.7018218173	-1.9538942359	-0.1948317874	-0.285031
C	 0.656466102	-2.0572148191	-0.1722634621	-0.078954
C	 1.1778516067	-0.7939468986	 0.0013995879	-0.214162
H	 1.056477048	 1.7976066939	 0.605566014	 0.241756
H	-0.5735066644	 1.9149218912	 0.7412448183	 0.237173
H	-3.1108369001	-0.7209431727	 0.7174899817	 0.121053
H	-2.6072573988	 0.8530591587	 0.046318781	 0.114636
H	-2.8274352176	 0.035736737	-2.2607737149	 0.088763
H	-1.3496819493	-2.7057577624	-0.3574512932	 0.269416
H	 1.1468927584	-3.0118046008	-0.2739802735	 0.119515
H	 2.2251028304	-0.5408038874	 0.0705363805	 0.087139
39.9919	55.7944	94.1499	160.6273	228.8365	273.8244	339.7974	436.0724	447.9753	491.6111	625.6915	638.5072	670.4285	710.7537	734.0082	783.8947	810.264	874.0443	913.4317	983.9392	1044.5454	1059.844	1092.4912	1142.0743	1188.7676	1227.8341	1280.9705	1300.7417	1334.8393	1415.5758	1453.5483	1459.5863	1494.5721	1520.6029	1640.9665	1657.7149	1813.3332	2895.1963	3024.7348	3091.8099	3241.3439	3270.2021	3528.0457	3615.1191	3674.9478
NC1=C(CC=O)NC=C1	Nc1c(CC=O)[nH]cc1	
InChI=1S/C6H8N2O/c7-5-1-3-8-6(5)2-4-9/h1,3-4,8H,2,7H2	InChI=1S/C6H8N2O/c7-5-1-3-8-6(5)2-4-9/h1,3-4,8H,2,7H2
