17
gdb 22400	7.04959	0.66073	0.62371	2.3529	74.86	-0.2369	-0.0312	0.2058	1691.7453	0.133035	-455.07086	-455.06163	-455.060686	-455.10604	32.444	
O	-0.1984090268	 1.4451283309	 0.0253497664	-0.391536
N	 0.0558262623	 0.0644313047	-0.0286307673	-0.224169
C	-1.0222285352	-0.5906894617	-0.0709648599	 0.413576
C	-2.5059543095	-0.2993501715	-0.1169149884	-0.262385
N	-2.7158138669	-1.7330469647	-0.4544865069	-0.099566
C	-3.7525454262	-2.4599454945	 0.2396731027	-0.241016
C	-3.9908977738	-3.820941124	-0.3982870173	 0.157414
O	-4.3071863247	-4.8098476768	 0.2081289364	-0.233122
C	-1.2953293125	-2.0738144315	-0.1538462985	-0.265979
H	 0.6903207395	 1.8167939178	 0.0368207512	 0.311055
H	-2.9094644017	 0.0044564307	 0.8616026736	 0.118381
H	-2.8528887231	 0.4078872554	-0.8774040046	 0.134838
H	-3.5747053862	-2.5995013092	 1.3210094852	 0.107829
H	-4.6944480918	-1.9018508148	 0.1316907502	 0.134643
H	-3.8573803001	-3.8187284304	-1.5035375023	 0.087679
H	-0.7830858803	-2.6410460234	-0.9374783177	 0.133128
H	-1.1584630631	-2.5918105671	 0.808956387	 0.119229
47.4614	62.0312	100.5571	166.8451	216.9873	263.9644	336.3842	379.0596	393.7041	461.065	477.2407	544.5227	700.8012	753.5861	823.2257	907.2754	953.0813	984.2641	1004.5935	1049.1215	1074.2164	1105.2578	1129.5459	1153.9463	1183.4588	1222.6448	1245.7101	1282.1265	1322.6926	1347.8212	1404.5932	1414.1606	1454.99	1480.0671	1504.3473	1814.5527	1840.4048	2887.1894	2950.0849	2979.7378	2989.8663	3027.5311	3067.935	3069.8881	3817.175
ON=C1CN(CC=O)C1	ON=C1CN(CC=O)C1	
InChI=1S/C5H8N2O2/c8-2-1-7-3-5(4-7)6-9/h2,9H,1,3-4H2	InChI=1S/C5H8N2O2/c8-2-1-7-3-5(4-7)6-9/h2,9H,1,3-4H2
