18
gdb 52199	3.27488	0.76388	0.66681	2.304	80.57	-0.2401	-0.024	0.2161	1645.8901	0.144433	-401.886484	-401.876848	-401.875904	-401.922358	34.081	
O	-0.1442678868	-0.1159239515	-0.1589947821	-0.234342
C	 0.0881953425	 1.0343989841	 0.1079605174	 0.156944
C	 1.3687064492	 1.7624319027	-0.2299669677	-0.270614
C	 1.102863698	 3.0513391497	-1.0191138325	-0.15122
N	 2.3384015421	 3.8222313657	-1.1262261378	-0.084863
C	 3.1844526227	 3.5582916852	-2.2784326269	-0.245419
C	 2.4266421876	 4.8499805437	-2.1829088215	-0.179556
C	 1.3325050652	 5.1150778187	-3.0766434751	 0.340318
C	 0.4119570716	 5.377026085	-3.8055322612	-0.467165
H	-0.6628460928	 1.6580499292	 0.6491031432	 0.072694
H	 1.8614103774	 2.0369125956	 0.7130613091	 0.132732
H	 2.0280299849	 1.0833472522	-0.7774660406	 0.122992
H	 0.6680097676	 2.8099625135	-2.0011136055	 0.113932
H	 0.3702148049	 3.6704024079	-0.487619167	 0.115414
H	 4.255607221	 3.5497911841	-2.0973275142	 0.126072
H	 2.8322708283	 2.8454795929	-3.0220643686	 0.125626
H	 2.9703285191	 5.7363608567	-1.8642350184	 0.122241
H	-0.3952273925	 5.6020794248	-4.4579848606	 0.204213
48.5296	70.4723	84.9198	115.1878	194.484	214.4033	308.6458	345.2171	398.7808	512.2097	532.4671	603.0849	626.3961	667.881	756.0857	782.2951	823.3559	869.1	909.9013	1003.3231	1034.4518	1038.8468	1091.4953	1115.151	1123.4477	1137.7264	1162.9537	1235.5317	1275.0551	1313.1221	1320.7208	1370.9759	1393.8891	1430.6185	1465.5168	1492.8627	1511.9313	1837.8243	2232.7972	2849.3964	2987.9375	3026.8146	3055.2008	3098.1125	3105.9533	3131.0203	3190.0459	3502.6544
O=CCCN1CC1C#C	O=CCCN1C[C@H]1C#C	
InChI=1S/C7H9NO/c1-2-7-6-8(7)4-3-5-9/h1,5,7H,3-4,6H2	InChI=1S/C7H9NO/c1-2-7-6-8(7)4-3-5-9/h1,5,7H,3-4,6H2/t7-,8?/m1/s1
