22
gdb 12732	2.60624	2.02151	1.66111	0.1664	81.38	-0.2547	0.0819	0.3366	951.9178	0.200286	-313.056242	-313.047865	-313.046921	-313.088666	32.776	
C	 0.1092194523	 1.5978382094	-0.0554145512	-0.416692
C	 0.0707034975	 0.079485555	 0.0459587776	 0.003019
C	 0.9462072049	-0.7777069933	-0.9180150994	-0.256995
C	 1.3737495336	-1.6898006008	 0.2681554589	-0.053272
C	 2.7630523125	-1.3676185011	 0.8571648009	-0.216616
C	 2.1385973288	-0.1915329853	 1.6653743741	-0.287519
C	 0.701508163	-0.6642678748	 1.2609571145	 0.373251
C	-0.2119520235	-1.0623667002	 2.4005539205	-0.496591
H	 1.1333012397	 1.9845434294	-0.0192218619	 0.113362
H	-0.3320348755	 1.9351727352	-1.0001710658	 0.112761
H	-0.4540059555	 2.0690303538	 0.7583750057	 0.111653
H	-0.9726721671	-0.2507955171	-0.0350088921	 0.06376
H	 0.4041488366	-1.2706648884	-1.7286617949	 0.094724
H	 1.784268968	-0.2276654203	-1.3604807735	 0.090549
H	 1.0679630708	-2.7360311055	 0.2035245095	 0.054499
H	 3.1383917111	-2.162592158	 1.5079271487	 0.095731
H	 3.5500017581	-1.1154992234	 0.1392747021	 0.090437
H	 2.331265504	-0.2206007739	 2.7410924966	 0.096034
H	 2.4107059453	 0.804395007	 1.3072704975	 0.095993
H	-0.5377617706	-0.1830864375	 2.9713336433	 0.112869
H	-1.1111362346	-1.5706809352	 2.0334743996	 0.109049
H	 0.2911977408	-1.7382620351	 3.1019608794	 0.109993
65.1152	195.2726	203.2686	221.2237	247.3253	305.8624	357.421	388.6911	474.1209	583.1637	609.1601	738.6737	755.8326	822.2425	854.8431	878.4978	885.6444	917.9683	947.5739	968.9421	1008.4191	1031.7431	1042.4584	1111.9561	1138.1055	1150.3108	1159.4218	1185.5752	1215.0939	1223.0862	1250.871	1258.1755	1272.8926	1281.7933	1308.4468	1330.2962	1380.3319	1405.7234	1410.6577	1474.6045	1479.0272	1489.8421	1491.7391	1492.6266	1496.082	1502.7339	3011.047	3016.6275	3023.0943	3039.2567	3043.2627	3058.7043	3072.7584	3078.0441	3082.799	3087.0522	3087.1365	3091.5447	3100.1271	3111.0935
CC1CC2CCC12C	C[C@H]1C[C@H]2CC[C@@]12C	
InChI=1S/C8H14/c1-6-5-7-3-4-8(6,7)2/h6-7H,3-5H2,1-2H3	InChI=1S/C8H14/c1-6-5-7-3-4-8(6,7)2/h6-7H,3-5H2,1-2H3/t6-,7+,8-/m0/s1
