20
gdb 26259	2.55926	1.43002	1.00597	0.7157	82.76	-0.201	0.0328	0.2339	1221.3958	0.171333	-403.186038	-403.17676	-403.175816	-403.219888	34.929	
C	 0.948604687	-1.0361492153	-1.0356363869	-0.396851
C	 0.1103935283	-0.4680949587	 0.1092698936	 0.004383
O	 0.2607979414	 0.9622140972	 0.1916895988	-0.428452
C	-1.3334032066	-0.8632765309	 0.0258811209	 0.275671
C	-2.0479753513	-1.4910681288	-0.977275513	-0.245836
C	-3.3967290695	-1.5982585285	-0.5500324744	-0.168608
C	-3.4670102118	-1.0304278213	 0.7010032435	-0.102724
N	-2.2190546523	-0.5829875184	 1.0492960511	-0.037591
C	-1.8795357863	 0.0382683149	 2.3164561145	-0.352366
H	 1.9794436065	-0.6879875185	-0.936901692	 0.121574
H	 0.9408602608	-2.129911581	-1.027387679	 0.122862
H	 0.5651869934	-0.6992117138	-2.0047526782	 0.114835
H	 0.5379783379	-0.8200298804	 1.0573798956	 0.089476
H	-0.2397683772	 1.3343745941	-0.5438370969	 0.276881
H	-1.6412133346	-1.8391678259	-1.9142402658	 0.092844
H	-4.2196346395	-2.0326355101	-1.0963352194	 0.092417
H	-4.2997694947	-0.9002389508	 1.3747541507	 0.111612
H	-1.3914184966	-0.6718843209	 2.9948219041	 0.132068
H	-1.2080311661	 0.881045692	 2.1440279647	 0.164797
H	-2.7941411488	 0.3960434652	 2.7931715782	 0.133007
76.4209	138.8107	151.907	198.1756	205.0921	258.812	305.884	344.0575	394.8574	440.4659	516.4825	608.5098	622.3283	700.6271	723.2223	735.4143	787.0398	840.2706	883.7326	906.7402	1018.4448	1024.6501	1078.4919	1090.9448	1092.6615	1114.3542	1154.7733	1188.9679	1260.4282	1275.0905	1329.3698	1362.023	1401.8054	1405.4654	1416.5775	1446.9912	1460.8522	1489.096	1490.8626	1498.2647	1519.7965	1532.3838	1586.9464	3018.2469	3029.3031	3040.156	3106.9685	3110.3651	3128.3218	3147.5594	3239.8964	3250.751	3265.0225	3791.9205
CC(O)C1=CC=CN1C	C[C@@H](O)c1cccn1C	
InChI=1S/C7H11NO/c1-6(9)7-4-3-5-8(7)2/h3-6,9H,1-2H3	InChI=1S/C7H11NO/c1-6(9)7-4-3-5-8(7)2/h3-6,9H,1-2H3/t6-/m1/s1
