15
gdb 30501	4.14649	1.15318	0.90735	2.6708	75.67	-0.2156	-0.0452	0.1704	1222.2441	0.11279	-453.9841	-453.975906	-453.974962	-454.018144	29.446	
C	 0.0027832163	 1.4592432038	 0.0501011532	-0.320524
N	-0.009952249	 0.0096170946	-0.0215919028	-0.323334
C	 0.5364901346	-0.6731649277	 0.8862970218	 0.42072
O	 1.1695773336	-0.0056545565	 1.9884178723	-0.228464
C	 1.7497959184	-0.7154484806	 2.9528451528	 0.143943
N	 1.8246923049	-1.9892078901	 3.0365846388	-0.365805
C	 1.2312718206	-2.6972494518	 2.0006868386	 0.432393
O	 1.3237191726	-4.0309288297	 2.1122552088	-0.408215
C	 0.6064622735	-2.1070717095	 0.956076062	-0.296636
H	 1.0234830381	 1.8655527426	 0.0591567775	 0.118189
H	-0.5166320875	 1.8621246853	-0.8224724529	 0.12171
H	-0.5001244173	 1.8347186723	 0.9518249625	 0.118202
H	 2.1857313483	-0.0785769252	 3.7179478306	 0.150007
H	 1.8073582384	-4.2071311657	 2.9304932382	 0.306373
H	 0.1509592044	-2.6777101817	 0.1599923185	 0.13144
24.43	109.6492	165.3595	200.9599	283.0425	379.5597	425.5968	455.5116	493.8388	537.9664	634.8774	693.7069	725.9718	751.373	854.4981	877.4822	959.2068	973.5386	1015.5713	1110.728	1133.5012	1163.4269	1213.8794	1241.5966	1318.6925	1396.2298	1438.8086	1445.112	1485.7272	1500.079	1639.0585	1719.4261	1782.7497	2997.2363	3045.5827	3106.0702	3183.5826	3244.7381	3780.7452
CN=C1OC=NC(O)=C1	C[N]C1=C[C@@H](N=CO1)O	
InChI=1S/C5H6N2O2/c1-6-5-2-4(8)7-3-9-5/h2-3,8H,1H3	InChI=1S/C5H7N2O2/c1-6-5-2-4(8)7-3-9-5/h2-4,8H,1H3/t4-/m0/s1
