16
gdb 42490	6.2081	0.57642	0.53258	3.1007	77.07	-0.2726	-0.0891	0.1835	1923.5523	0.120896	-400.737959	-400.728058	-400.727114	-400.774279	33.83	
O	-0.1835906703	-0.0777857887	 0.0024223779	-0.257775
C	-0.0647505009	 1.1204511434	 0.0064611105	 0.283483
C	 1.2461678897	 1.8714910145	-0.0017152779	-0.311355
C	 2.4675348562	 0.9537915207	-0.0172275676	-0.184351
C	 3.784668619	 1.7544407861	-0.0248776066	-0.366923
C	 4.9621586306	 0.8957163171	-0.0396991108	 0.287127
C	 5.9173079527	 0.1668304484	-0.0519811466	-0.421306
C	-1.2679169106	 1.9860974928	 0.0206102421	 0.229289
N	-2.1965163	 2.674986062	 0.0316690209	-0.292899
H	 1.2319594692	 2.547221976	-0.8694577868	 0.148874
H	 1.2476312523	 2.5384708064	 0.8729112275	 0.148903
H	 2.4439683695	 0.2931382219	 0.8541636037	 0.134828
H	 2.4284471228	 0.3020164441	-0.8947326214	 0.134798
H	 3.8067887917	 2.4196627028	-0.8985377342	 0.133834
H	 3.8223810849	 2.410746214	 0.8549697455	 0.133828
H	 6.7679050433	-0.4686584315	-0.0631359261	 0.199646
38.285	75.4252	77.9456	115.0993	145.3512	241.8989	275.1187	307.6132	347.3084	435.318	544.5408	571.8756	612.7026	624.6773	646.7892	739.7293	815.5844	851.7911	966.7749	1025.3663	1049.3299	1073.7497	1097.4598	1165.6383	1272.243	1288.935	1318.6589	1362.2022	1397.3616	1440.9303	1473.8216	1495.3213	1802.0267	2242.6585	2337.5262	3011.16	3013.5035	3038.4181	3041.8099	3067.3576	3110.6639	3507.0247
O=C(CCCC#C)C#N	O=C(CCCC#C)C#N	
InChI=1S/C7H7NO/c1-2-3-4-5-7(9)6-8/h1H,3-5H2	InChI=1S/C7H7NO/c1-2-3-4-5-7(9)6-8/h1H,3-5H2
