17
gdb 62300	3.40545	1.52516	1.2186	4.4216	77.11	-0.2528	0.0136	0.2664	1025.1851	0.136058	-380.786363	-380.778841	-380.777897	-380.818093	29.406	
C	-0.1482553928	 1.5757612271	 0.0349397805	-0.465745
C	-0.039298227	 0.0584931767	-0.0431825355	 0.178156
C	-1.3577434401	-0.5601853777	 0.1229764169	 0.254574
N	-2.4035676121	-1.0405868493	 0.2332571004	-0.341591
C	 0.8825345373	-0.613152398	-1.0756708313	-0.099288
C	 2.1188566702	-0.2613727235	-0.1970401315	-0.014576
C	 2.6345480084	-1.7006314377	-0.1531899739	-0.270784
C	 1.1106389515	-1.7994829394	-0.0925814736	-0.000686
N	 1.0282723385	-0.5778233454	 0.8727949378	-0.182283
H	 0.8253057277	 2.045459917	-0.1203371852	 0.128585
H	-0.8378033909	 1.9505418612	-0.7269634525	 0.14061
H	-0.5264319862	 1.8765074164	 1.0159210766	 0.14997
H	 0.7994126335	-0.6351361205	-2.166422589	 0.082704
H	 2.6780663535	 0.672935445	-0.1616845309	 0.095701
H	 3.1193425088	-2.0787523127	-1.0559645064	 0.109644
H	 3.172939197	-1.9909243925	 0.752210453	 0.120177
H	 0.4634310728	-2.6618695367	 0.0636406346	 0.114832
142.7213	164.9342	193.472	265.3052	270.7184	413.2276	464.9405	524.373	570.1478	633.9094	727.359	815.5462	829.7788	849.6126	854.681	892.0636	920.2388	940.5558	1019.5628	1027.1803	1028.5218	1089.4582	1117.968	1135.0744	1154.3226	1156.9212	1179.6799	1220.7041	1236.7377	1237.7439	1271.8475	1327.093	1412.1955	1486.0845	1489.5208	1492.4468	2348.8136	3050.3542	3061.8823	3065.6651	3120.0208	3122.128	3129.9506	3131.8498	3135.4165
CC1(C#N)C2C3CC2N13	C[C@@]1(C#N)[C@H]2[C@@H]3C[C@H]2N13	
InChI=1S/C7H8N2/c1-7(3-8)6-4-2-5(6)9(4)7/h4-6H,2H2,1H3	InChI=1S/C7H8N2/c1-7(3-8)6-4-2-5(6)9(4)7/h4-6H,2H2,1H3/t4-,5+,6-,7-/m1/s1
