16
gdb 25979	4.56192	1.02904	0.87239	3.2348	71.15	-0.2104	0.0138	0.2242	1276.444	0.126545	-434.148358	-434.140145	-434.139201	-434.182021	30.129	
N	 0.2295421611	 1.1842477542	-0.1772896156	-0.51461
C	-0.1175915429	 0.0065769425	 0.4017813587	 0.424514
O	 0.3493605624	-0.3522431966	 1.4723404149	-0.377297
C	-1.1743384644	-0.8023632593	-0.350866443	-0.43561
C	-0.9610275827	-2.2833238373	-0.2862231102	 0.355591
N	-1.2848812336	-3.138367299	-1.2343461345	-0.316984
C	-0.9552804562	-4.3764355382	-0.7302071422	-0.094999
C	-0.4278235617	-4.2598896724	 0.5291486241	-0.115542
N	-0.4463348396	-2.9129685792	 0.8048412775	-0.251768
H	 0.9082689512	 1.7649026925	 0.2882791433	 0.266801
H	-0.1034913203	 1.4571785654	-1.0846333452	 0.26827
H	-2.1381276444	-0.5374060217	 0.1090815245	 0.152904
H	-1.243152993	-0.5150082905	-1.4026326431	 0.13409
H	-1.115119431	-5.2768110557	-1.3036000252	 0.101095
H	-0.0486480692	-4.9818169258	 1.2329172325	 0.122858
H	-0.0670090058	-2.4091881489	 1.5945715635	 0.280687
48.8856	77.2185	173.2176	230.382	266.4962	336.4978	376.7852	509.9947	599.6241	622.4206	661.295	695.7809	722.1006	743.2919	797.0835	851.7783	868.502	936.5476	953.8271	999.1095	1090.3194	1101.6377	1135.6663	1177.5781	1197.4129	1282.7711	1285.4766	1391.8769	1404.6199	1453.685	1476.6662	1508.676	1583.8476	1620.5371	1774.4968	3005.0384	3104.7319	3248.1886	3280.8765	3603.2876	3606.5526	3742.2267
NC(=O)CC1=NC=CN1	NC(=O)Cc1ncc[nH]1	
InChI=1S/C5H7N3O/c6-4(9)3-5-7-1-2-8-5/h1-2H,3H2,(H2,6,9)(H,7,8)	InChI=1S/C5H7N3O/c6-4(9)3-5-7-1-2-8-5/h1-2H,3H2,(H2,6,9)(H,7,8)
