16
gdb 14926	4.58126	1.48356	1.19514	4.6847	65.96	-0.2337	0.0136	0.2473	975.0661	0.133023	-379.921873	-379.914781	-379.913837	-379.953206	26.765	
N	-0.0322812569	-1.1495928373	-0.0449068852	-0.312913
C	 0.0152642378	 0.0042902573	-0.0304195679	 0.277594
C	 0.0015688306	 1.4702917648	 0.021157372	-0.025006
C	-0.7549760866	 1.9870933956	 1.2698520525	-0.177087
N	-0.6742884113	 3.4370083362	 1.3913501718	-0.290416
C	 0.7090173468	 3.9094431615	 1.2801458493	-0.167143
C	 1.4186559645	 3.3485931477	 0.0473438972	-0.072863
O	 1.3443247548	 1.9251541035	 0.0213725554	-0.253065
H	-0.5183283704	 1.8370984448	-0.8822726804	 0.105278
H	-1.8025471898	 1.6748292377	 1.2302148834	 0.123334
H	-0.2985870866	 1.5311898471	 2.1559663174	 0.133019
H	-1.2455389947	 3.875339298	 0.6740403114	 0.219784
H	 0.7143928158	 5.0040135143	 1.2602764978	 0.10943
H	 1.2497524551	 3.5899382889	 2.1796750071	 0.122128
H	 0.9667266097	 3.7621756428	-0.8709691661	 0.087928
H	 2.4850862612	 3.5908419273	 0.0450828443	 0.119999
115.2812	156.4518	252.2142	283.765	381.1942	419.474	453.7759	539.874	557.0958	582.6241	773.0626	834.8866	879.7301	913.9307	973.4878	1001.286	1038.1549	1070.5809	1122.042	1146.1253	1156.2862	1221.4036	1284.4878	1300.7896	1343.5419	1361.4834	1368.5458	1397.0553	1407.294	1467.5911	1478.05	1483.9422	1493.4056	2365.1874	2945.3352	2960.334	3033.3438	3044.8235	3087.2657	3093.3459	3101.4565	3500.3355
N#CC1CNCCO1	N#C[C@H]1CNCCO1	
InChI=1S/C5H8N2O/c6-3-5-4-7-1-2-8-5/h5,7H,1-2,4H2	InChI=1S/C5H8N2O/c6-3-5-4-7-1-2-8-5/h5,7H,1-2,4H2/t5-/m0/s1
