17
gdb 109405	2.46736	1.43001	1.06198	3.5778	68.71	-0.249	-0.0386	0.2103	1149.0944	0.133636	-458.934934	-458.92608	-458.925136	-458.968631	32.417	
C	-0.0890394606	 1.5310744857	 0.1596152304	-0.506676
C	 0.1361956353	 0.0623704576	 0.0120505405	 0.401691
O	-0.7017689607	-0.8453187415	 0.7335901275	-0.274838
C	 0.728087022	-0.9237790082	 0.9592803246	-0.186061
C	 1.2165970789	-1.7506135272	-0.2257046209	 0.431748
O	 1.836268172	-2.7659829885	-0.3655390207	-0.317441
C	 0.6276828424	-0.720554432	-1.229336885	-0.214019
C	-0.3561748336	-1.2648964842	-2.2629231615	-0.084876
O	 0.2921711268	-2.1770249843	-3.1312060116	-0.421991
H	 0.7889216409	 2.0914399348	-0.1759090958	 0.13562
H	-0.9451263459	 1.8536818898	-0.44248748	 0.142416
H	-0.2930458063	 1.7824485359	 1.2034458531	 0.143144
H	 1.0802483746	-0.8295668306	 1.9798380062	 0.124384
H	 1.4627253996	-0.2166458725	-1.7323727434	 0.111125
H	-1.2106400252	-1.7232647913	-1.7454133008	 0.107962
H	-0.7421475432	-0.4581489129	-2.8954677789	 0.110301
H	 0.729087923	-2.840813671	-2.5838012437	 0.29751
98.0054	101.014	141.0718	195.8079	229.5616	246.0515	356.51	385.3195	410.4594	505.2998	542.5392	594.815	671.7001	741.1716	790.0644	834.2424	902.5666	977.4973	1001.3065	1041.4173	1054.9983	1064.3353	1084.0533	1124.037	1163.1222	1202.437	1221.828	1249.1006	1317.8003	1376.7416	1403.1095	1431.1349	1449.6072	1480.0567	1492.9969	1517.6688	1884.8374	3007.1152	3040.4622	3045.2461	3069.6322	3105.101	3127.4789	3193.9151	3786.0336
CC12OC1C(=O)C2CO	C[C@]12O[C@H]1C(=O)[C@H]2CO	
InChI=1S/C6H8O3/c1-6-3(2-7)4(8)5(6)9-6/h3,5,7H,2H2,1H3	InChI=1S/C6H8O3/c1-6-3(2-7)4(8)5(6)9-6/h3,5,7H,2H2,1H3/t3-,5+,6-/m1/s1
