16
gdb 103404	2.56001	1.4759	1.29474	5.2966	64.72	-0.2329	-0.014	0.2189	1030.259	0.122622	-474.980331	-474.97173	-474.970786	-475.01352	31.789	
O	-0.0236947001	 1.427291281	-0.0671678737	-0.423614
C	 0.095354421	 0.012358032	-0.0118688909	-0.146633
C	-1.3306872817	-0.5199804872	 0.0605531907	 0.308421
O	-2.0963860306	 0.0070526439	-0.9954768795	-0.473223
C	-1.5665549258	-2.0253039007	 0.1734617472	-0.078593
C	-1.1145207629	-2.5644026313	 1.4620042453	-0.264811
N	-2.4399318237	-1.8785778033	 1.4289877308	-0.176099
C	-2.1304706367	-0.4512346637	 1.406938062	 0.335308
O	-2.5358492388	 0.4097995962	 2.118332506	-0.289146
H	 0.8278113561	 1.8055890115	-0.3026095713	 0.301447
H	 0.567952483	-0.3888022664	-0.9213099054	 0.104815
H	 0.68607502	-0.3079361248	 0.8570244229	 0.09791
H	-1.8820301218	 0.949930241	-1.0233052003	 0.301195
H	-1.9112738144	-2.6320265996	-0.6538143819	 0.126143
H	-1.2112471043	-3.6314926801	 1.6326941543	 0.144923
H	-0.2983103091	-2.0981265184	 2.0072377741	 0.131958
96.5142	116.9577	182.1822	215.4551	225.0682	295.3427	311.4026	420.9831	455.4645	483.1873	518.8412	678.0253	695.7477	756.0844	777.8929	849.9184	920.3346	978.8601	1007.9775	1044.573	1060.5622	1082.4893	1118.0316	1139.2397	1147.1565	1178.3689	1229.5288	1248.3395	1275.9252	1344.2062	1422.319	1454.3292	1502.1809	1509.9906	1922.0941	2986.4039	3032.5117	3118.0681	3203.8529	3212.898	3760.3934	3845.2623
OCC1(O)C2CN2C1=O	OC[C@@]1(O)[C@H]2CN2C1=O	
InChI=1S/C5H7NO3/c7-2-5(9)3-1-6(3)4(5)8/h3,7,9H,1-2H2	InChI=1S/C5H7NO3/c7-2-5(9)3-1-6(3)4(5)8/h3,7,9H,1-2H2/t3-,5-,6?/m1/s1
