17
gdb 17735	6.06836	1.71197	1.62397	1.6477	73.61	-0.2248	0.0862	0.311	838.9354	0.143244	-326.600407	-326.594261	-326.593317	-326.630338	25.295	
C	 0.0269999272	 1.5716795835	-0.0074314506	-0.358559
C	 1.3349195489	 0.7883949132	-0.0202073374	-0.341743
C	 0.0261912077	 0.0797696653	 0.0070197075	 0.455608
C	-0.5725270423	-0.9434719756	 0.9510204229	-0.120078
C	-1.8241237596	-1.1836159538	 0.0480215463	-0.055898
C	-1.5261431586	-2.6771528788	 0.0578180513	-0.189833
N	-0.1066590801	-2.1159389357	 0.0303068102	-0.158936
C	-0.6012980315	-0.9613411648	-0.897949652	-0.120072
H	-0.2398147588	 2.0997316387	 0.9026197733	 0.114362
H	-0.268171055	 2.0820945593	-0.9187893954	 0.114362
H	 1.9102841733	 0.7761102555	-0.9402191074	 0.11689
H	 1.9386237454	 0.7937464234	 0.8815301415	 0.11689
H	-0.5018834762	-1.0321804505	 2.0367955262	 0.081035
H	-2.7724080243	-0.6357136832	 0.0574831746	 0.066652
H	-1.7518797369	-3.2454364724	 0.9663472059	 0.099143
H	-1.7798643932	-3.2628159621	-0.832099261	 0.099143
H	-0.5644419461	-1.071032672	-1.9834803559	 0.081035
164.3285	240.7301	258.1286	449.3706	500.571	579.822	708.6832	769.0389	791.2892	831.7471	836.1452	876.7327	878.7192	918.4316	920.2386	965.0196	1000.1661	1029.4783	1034.5441	1054.3168	1070.38	1075.4266	1102.5078	1115.3243	1159.344	1168.6904	1181.9631	1186.5823	1222.5515	1243.6124	1271.105	1288.7837	1436.8164	1462.3721	1518.7924	1524.4514	3032.0399	3048.1638	3091.9699	3096.9719	3102.9407	3123.2876	3128.4381	3201.0424	3215.798
C1CC11C2C3CN2C13	C1CC21[C@H]1[C@@H]3CN1[C@H]23	
InChI=1S/C7H9N/c1-2-7(1)5-4-3-8(5)6(4)7/h4-6H,1-3H2	InChI=1S/C7H9N/c1-2-7(1)5-4-3-8(5)6(4)7/h4-6H,1-3H2/t4-,5+,6-
