19
gdb 111771	2.64327	1.31542	1.04871	1.4462	72.29	-0.2271	0.0636	0.2907	1212.7377	0.156643	-460.080376	-460.070957	-460.070013	-460.115057	33.475	
C	-0.523471844	 0.9586410992	 0.0903642655	-0.235011
O	 0.5514562853	 0.0780431296	-0.194705387	-0.23827
C	 1.0409265513	-0.567299286	 0.9297078472	 0.017707
C	 0.2492474067	-1.6099889824	 1.6928033092	-0.049742
O	-0.6562971613	-2.2923064031	 0.8290878814	-0.284433
C	 0.4440950566	-2.7854522132	 0.0159066643	-0.141145
C	 1.4585279968	-2.0095752906	 0.8650456628	 0.297525
O	 2.6880808674	-2.4787049799	 1.2538520258	-0.276235
C	 3.727645965	-2.1750809311	 0.3314891497	-0.257758
H	-0.217135935	 1.7627188866	 0.7756415435	 0.103675
H	-0.8304137536	 1.4025420684	-0.8593863354	 0.126878
H	-1.3702254845	 0.4171210263	 0.529662806	 0.129583
H	 1.6807487225	 0.0324416794	 1.5832943936	 0.092738
H	 0.0381837951	-1.5954995102	 2.756020509	 0.113275
H	 0.5497634923	-3.8695287658	 0.1284541829	 0.113545
H	 0.33850366	-2.5058872352	-1.0358040214	 0.118226
H	 3.5654387366	-2.6664422761	-0.6375096624	 0.116571
H	 3.8103277141	-1.0928326082	 0.1666129451	 0.121977
H	 4.6560490285	-2.5481017375	 0.7684817203	 0.130894
71.3047	88.5793	140.8045	168.3076	179.1339	210.737	252.3268	314.897	377.8429	398.9009	495.7601	645.4702	688.337	801.3036	860.267	929.6004	937.9111	984.6254	1007.9083	1034.3854	1059.1878	1071.7179	1111.0188	1146.6174	1161.1946	1178.2774	1179.9116	1213.1093	1219.6368	1241.8069	1282.6603	1286.71	1342.1731	1442.6074	1478.4338	1487.8419	1488.8252	1493.2108	1501.8498	1503.6051	1512.2548	2992.5605	3000.6934	3042.949	3058.5889	3060.5135	3073.2419	3106.2208	3122.2847	3128.3282	3181.7137
COC1C2OCC12OC	CO[C@H]1[C@H]2OC[C@@]12OC	
InChI=1S/C6H10O3/c1-7-4-5-6(4,8-2)3-9-5/h4-5H,3H2,1-2H3	InChI=1S/C6H10O3/c1-7-4-5-6(4,8-2)3-9-5/h4-5H,3H2,1-2H3/t4-,5+,6+/m0/s1
