13
gdb 132637	3.19831	1.31875	0.9346	3.3577	64.67	-0.22	-0.0256	0.1944	1107.3438	0.089426	-502.055383	-502.048182	-502.047238	-502.086984	27.701	
N	-0.0070356644	 1.4130935546	 0.1541338501	-0.600833
C	-0.0141140977	 0.024048079	 0.048907668	 0.150044
C	-1.1765845278	-0.7475019642	 0.0275187291	-0.060613
N	-1.1924624101	-2.0853088854	-0.0105698637	-0.316976
C	-0.0387878673	-2.7040472611	-0.0295736367	 0.346896
F	-0.0706187469	-4.0358535784	-0.0650638	-0.07682
C	 1.2050911717	-2.0757119686	-0.0192645734	-0.416286
C	 1.1866954066	-0.6979992579	 0.019635456	 0.297457
F	 2.3322742706	-0.0073967796	 0.0200251041	-0.080237
H	 0.8437590046	 1.8440642024	-0.177862656	 0.258215
H	-0.8278899021	 1.8663314289	-0.2205272212	 0.255307
H	-2.1458507287	-0.254317704	 0.0437849005	 0.112189
H	 2.1333877113	-2.6302853157	-0.0441569569	 0.131656
147.7499	234.9944	273.5292	292.3813	350.5287	394.8067	455.6227	465.301	537.7911	586.5425	625.9672	676.393	753.1909	766.3691	811.5406	867.5003	921.6387	984.4364	1102.2253	1168.5772	1254.2394	1323.1899	1336.513	1382.0399	1450.6522	1544.335	1626.2372	1640.5233	1669.3959	3152.1915	3227.8083	3564.4925	3664.6529
NC1=CN=C(F)C=C1F	Nc1cnc(F)cc1F	
InChI=1S/C5H4F2N2/c6-3-1-5(7)9-2-4(3)8/h1-2H,8H2	InChI=1S/C5H4F2N2/c6-3-1-5(7)9-2-4(3)8/h1-2H,8H2
