20
gdb 75422	3.01002	1.23394	0.95334	3.8067	81.88	-0.2357	0.0156	0.2513	1267.8118	0.172467	-403.198678	-403.189864	-403.18892	-403.232443	33.432	
C	-0.0677997281	 1.5678078571	 0.0444472228	-0.473187
C	 0.0337323081	 0.0665137463	-0.0520931798	 0.307853
C	 0.0236395574	-0.5553740725	-1.233312849	-0.124458
C	 0.0435352073	-2.0304840983	-1.5372364121	-0.254183
C	-0.2417051195	-2.9809172017	-0.3617529046	-0.318583
C	 0.8681619753	-2.9606428261	 0.6779095196	 0.382218
O	 1.6281626873	-3.894853841	 0.8579353088	-0.371264
N	 0.9820917845	-1.7938356039	 1.3797176549	-0.281836
C	 0.1103399129	-0.6326442874	 1.2991931722	-0.275164
H	 0.8243986462	 1.9977921526	 0.5187972638	 0.123706
H	-0.1881838942	 2.0293153458	-0.9386660992	 0.124385
H	-0.9233887919	 1.8688249857	 0.6639827705	 0.12431
H	-0.0168081099	 0.0747192742	-2.1211896302	 0.080381
H	-0.7027302627	-2.2200340615	-2.3199904561	 0.110678
H	 1.0077678855	-2.3001751519	-1.9922628536	 0.125976
H	-1.2022138739	-2.7191037313	 0.0983511639	 0.111386
H	-0.3103975878	-4.0087700654	-0.7212977441	 0.123981
H	 1.7368351778	-1.7824599097	 2.048528631	 0.245579
H	 0.4874092563	 0.0844107931	 2.0341726325	 0.113903
H	-0.9066672009	-0.8868280441	 1.6379950386	 0.124319
44.6569	130.6472	190.5127	226.3178	266.7933	312.7247	338.6943	352.6983	454.652	496.4453	499.4054	594.4845	651.7127	736.1182	755.9223	829.3786	861.1992	900.1063	922.1038	974.8335	1017.4068	1046.7246	1071.83	1113.1213	1138.6509	1146.2345	1187.3916	1250.7367	1294.3973	1318.1862	1360.1917	1374.61	1396.3104	1407.3019	1415.3008	1464.3711	1475.1512	1480.8301	1485.747	1491.166	1501.6714	1749.3852	1791.9858	2975.0984	3005.1597	3009.7946	3028.8679	3045.1276	3053.4943	3077.1378	3114.9312	3122.4135	3129.2552	3624.6568
CC1=CCCC(=O)NC1	CC1=CCCC(=O)NC1	
InChI=1S/C7H11NO/c1-6-3-2-4-7(9)8-5-6/h3H,2,4-5H2,1H3,(H,8,9)	InChI=1S/C7H11NO/c1-6-3-2-4-7(9)8-5-6/h3H,2,4-5H2,1H3,(H,8,9)
