18
gdb 52094	5.39546	0.77002	0.75532	1.0548	73.5	-0.2521	-0.0341	0.218	1505.7183	0.1462	-438.999555	-438.991019	-438.990075	-439.034689	30.502	
O	-0.2498098013	 0.2266076872	 0.534897049	-0.235107
C	 0.0503977953	 1.1156451563	-0.2154082265	 0.13814
C	 1.3480235907	 1.8986116486	-0.1083040271	-0.184698
O	 1.3668835464	 2.8585726206	-1.1427438607	-0.295402
C	 2.4980967873	 3.6535519175	-1.1746135302	 0.395718
C	 3.9871335727	 3.2753047957	-1.3964459432	-0.236302
N	 4.0167716375	 4.8088549999	-1.3134843639	-0.134086
C	 2.7550087787	 4.7640850236	-2.1965134663	-0.224444
C	 3.0508101784	 4.6585177529	-0.1286491836	-0.236304
H	-0.6003437805	 1.4416179716	-1.0560749858	 0.100691
H	 1.398098161	 2.365190942	 0.88783634	 0.131792
H	 2.1921338815	 1.195477275	-0.1832539638	 0.131764
H	 4.5346776083	 2.7893040968	-0.5853548267	 0.105792
H	 4.2793488333	 2.8863476357	-2.3747814101	 0.109106
H	 2.9569892908	 4.476126417	-3.2306946677	 0.10922
H	 2.1484534132	 5.6705444499	-2.1359580204	 0.109222
H	 2.4691908814	 5.5604953841	 0.0762330791	 0.109105
H	 3.5316455254	 4.2710248356	 0.7727521379	 0.105794
42.7119	47.2503	90.4853	111.7714	287.2064	361.5232	370.136	526.3796	593.0933	595.89	677.9819	739.7555	788.6722	797.1214	892.1436	945.3326	963.2083	997.2807	1019.7407	1022.7503	1052.2701	1101.6459	1113.0113	1154.0842	1169.304	1174.4219	1190.0567	1190.4597	1201.8611	1240.279	1253.674	1305.5292	1361.3714	1408.6378	1478.7344	1507.1361	1510.0495	1564.9645	1845.9247	2904.1866	2983.4743	3018.3743	3055.5987	3058.8739	3067.8891	3126.2338	3131.5274	3134.5797
O=CCOC12CN(C1)C2	O=CCO[C@@]12CN(C1)C2	
InChI=1S/C6H9NO2/c8-1-2-9-6-3-7(4-6)5-6/h1H,2-5H2	InChI=1S/C6H9NO2/c8-1-2-9-6-3-7(4-6)5-6/h1H,2-5H2
