15
gdb 55556	3.13347	1.07391	0.8441	5.5352	63.98	-0.251	-0.0177	0.2333	1303.9233	0.112015	-491.11924	-491.110408	-491.109463	-491.153904	31.236	
N	-0.0331386648	 0.5584733229	 1.3534334265	-0.567618
C	 0.0761404223	-0.0866061598	 0.1337100348	 0.47607
O	 0.9606774209	 0.1208833868	-0.6562720734	-0.332957
N	-1.001309257	-0.9693476189	-0.0832076099	-0.416451
C	-1.2145876626	-1.7677229222	-1.1961393461	 0.398934
O	-0.5009160123	-1.8814258556	-2.1598365394	-0.318217
C	-2.5001467969	-2.5626825689	-1.0837349094	-0.026516
C	-2.6795882002	-3.5489739863	-0.0049764367	-0.168685
O	-3.3587482071	-2.2914668241	 0.0300888827	-0.238653
H	 0.7974339732	 1.0693197747	 1.6102975448	 0.269288
H	-0.5093001789	 0.1044058583	 2.1171621107	 0.253752
H	-1.7845023483	-0.9511186745	 0.5576360456	 0.265222
H	-2.9935478921	-2.7277069363	-2.0380492191	 0.135465
H	-3.3138507766	-4.4155791492	-0.1775504583	 0.140183
H	-1.8934632496	-3.6779043369	 0.7365382672	 0.130184
44.0565	90.6177	119.272	146.8234	240.6821	284.6034	378.0357	396.7819	495.2864	516.2957	522.3074	663.0089	686.5771	733.2861	783.2023	861.4281	883.0909	935.0481	957.7216	1046.9033	1092.9269	1107.4003	1151.9418	1165.376	1220.4426	1262.3042	1327.5147	1388.7417	1516.1429	1532.0908	1628.3782	1809.4669	1874.3312	3098.002	3159.7129	3192.3706	3571.8787	3584.0061	3700.8026
NC(=O)NC(=O)C1CO1	NC(=O)NC(=O)[C@H]1CO1	
InChI=1S/C4H6N2O3/c5-4(8)6-3(7)2-1-9-2/h2H,1H2,(H3,5,6,7,8)	InChI=1S/C4H6N2O3/c5-4(8)6-3(7)2-1-9-2/h2H,1H2,(H3,5,6,7,8)/t2-/m1/s1
