17
gdb 116109	3.66403	1.05912	0.85258	2.3812	64.88	-0.2689	0.0003	0.2692	1289.2506	0.136399	-496.130263	-496.121895	-496.120951	-496.163868	30.556	
O	 0.0856644123	 1.4139091755	 0.1685282787	-0.419475
C	 0.0458757591	 0.0168711842	-0.0164637795	-0.075047
C	-1.3831499486	-0.5081782367	-0.0328215634	 0.072009
C	-1.4915083049	-2.0183440404	-0.2327654268	-0.355404
C	-2.8370161621	-2.6008857688	 0.1837778546	 0.407126
O	-3.2182983225	-3.6820354067	-0.164188047	-0.314265
O	-3.5835906852	-1.8736177997	 1.0561752923	-0.227154
C	-3.2987597882	-0.4858338841	 1.2742455402	 0.019701
O	-1.9471223753	-0.1852098838	 1.2435806269	-0.247748
H	-0.4103582144	 1.5966446911	 0.9748329023	 0.29242
H	 0.5246931005	-0.1957903567	-0.9777018903	 0.119212
H	 0.6077484378	-0.5174517322	 0.7669179032	 0.09914
H	-1.949325162	 0.028445271	-0.8107608283	 0.090506
H	-1.30732173	-2.3128723036	-1.2683948428	 0.144689
H	-0.7402063489	-2.5247369765	 0.3865781143	 0.147968
H	-3.8503808725	 0.0897145285	 0.5143281213	 0.109032
H	-3.6743980251	-0.255965431	 2.2724871043	 0.137289
69.5355	115.2947	128.7951	198.1173	279.5863	349.3507	415.738	426.3548	471.252	488.135	559.1084	620.3007	758.6134	802.2267	836.0929	914.516	1034.7635	1039.1771	1087.0074	1095.795	1101.337	1111.8066	1162.729	1210.4368	1249.3693	1262.5388	1281.6447	1302.7944	1365.3611	1385.2778	1404.6177	1438.4461	1451.402	1462.2493	1494.9617	1522.0957	1857.2001	2974.4425	2983.5709	2990.9039	3042.0807	3084.1689	3116.4249	3123.1152	3803.5337
OCC1CC(=O)OCO1	OC[C@H]1CC(=O)OCO1	
InChI=1S/C5H8O4/c6-2-4-1-5(7)9-3-8-4/h4,6H,1-3H2	InChI=1S/C5H8O4/c6-2-4-1-5(7)9-3-8-4/h4,6H,1-3H2/t4-/m1/s1
