22
gdb 67218	2.70249	1.62831	1.28946	1.7437	85.57	-0.2298	0.0849	0.3147	1099.0594	0.193559	-367.16022	-367.151372	-367.150427	-367.192833	35.199	
C	 0.1701710411	 1.5662279037	 0.1428861513	-0.534168
C	-0.0262652929	 0.0994667721	-0.0335213863	 0.364642
C	 0.4485089351	-0.9085045411	-1.0066508928	-0.125869
N	 0.9239829736	-0.9558161958	 0.4311304963	-0.2041
C	-0.197744213	-1.6005924479	 1.1922187243	-0.174043
C	-1.2097954011	-0.9167539851	 0.2672690469	-0.165571
C	-0.9377516986	-1.5516595002	-1.140680187	 0.334241
C	-1.763840977	-0.846180351	-2.2218688134	-0.443167
C	-1.0317439078	-3.0680655679	-1.3117094299	-0.467962
H	 1.2018689819	 1.8350105578	-0.1045862798	 0.135658
H	-0.4995820569	 2.1416752941	-0.5057371394	 0.122837
H	-0.0187904718	 1.8739976467	 1.1776963811	 0.124374
H	 1.2290756862	-0.8247668954	-1.7542356364	 0.085392
H	-0.1760270965	-2.6934475137	 1.2526079896	 0.09355
H	-0.196719968	-1.1855536752	 2.2040147351	 0.103477
H	-2.2308320337	-0.6841551018	 0.5707307115	 0.063465
H	-1.7533250987	 0.2406881037	-2.0947200379	 0.115557
H	-1.3765430768	-1.0699234926	-3.2224590795	 0.112268
H	-2.8072851121	-1.1802003392	-2.1915418478	 0.11197
H	-2.0579444342	-3.4184766564	-1.1488619337	 0.111771
H	-0.7480893999	-3.3518657307	-2.3316771768	 0.113803
H	-0.3749077487	-3.612130344	-0.6300371856	 0.121874
148.9796	183.5268	190.4854	203.9307	244.1853	292.0646	326.6793	345.1193	375.3822	479.279	553.3248	580.3575	643.5668	746.0915	767.3504	819.4163	886.6421	896.0295	933.3717	949.4614	965.7326	974.5085	1009.214	1027.061	1040.2364	1063.5281	1099.4525	1136.3487	1146.7229	1185.0739	1193.871	1204.9576	1227.5219	1243.3317	1298.9021	1329.4938	1399.1759	1403.2811	1419.6963	1451.8231	1479.8991	1481.4048	1485.9698	1491.9291	1503.0422	1505.4627	1527.6917	3023.5548	3025.882	3029.1889	3046.0214	3082.9234	3085.8565	3087.8302	3094.8934	3103.2522	3106.1961	3111.9518	3123.8098	3180.7126
CC12C3N1CC2C3(C)C	C[C@@]12[C@H]3N1C[C@@H]2C3(C)C	
InChI=1S/C8H13N/c1-7(2)5-4-9-6(7)8(5,9)3/h5-6H,4H2,1-3H3	InChI=1S/C8H13N/c1-7(2)5-4-9-6(7)8(5,9)3/h5-6H,4H2,1-3H3/t5-,6+,8-,9?/m1/s1
