17
gdb 103063	2.43109	1.55719	1.13728	5.7543	72.94	-0.2518	0.0246	0.2763	1083.1397	0.137304	-417.959048	-417.951001	-417.950057	-417.99176	30.61	
O	 0.3125471832	 0.8431312411	 0.8344395692	-0.412313
C	-0.0463485161	 0.0678554072	-0.2812998587	-0.1481
C	-1.4598958796	-0.5398638194	-0.1559908586	 0.14526
C	-2.4911336149	 0.1206018296	-0.9151662486	 0.222283
N	-3.3102091109	 0.6533712021	-1.5353595595	-0.344176
C	-1.7355193642	-2.0449090229	 0.0248404579	-0.1239
C	-0.6303564122	-2.6870703809	 0.8668516707	-0.205494
N	-0.7687607917	-1.59901434	 1.9013410349	-0.356349
C	-1.9498469332	-1.0880882803	 1.1708625706	-0.041332
H	 0.2912559118	 0.2277681615	 1.5830420346	 0.293716
H	-0.0211286252	 0.7265610351	-1.153106342	 0.131254
H	 0.6744691011	-0.7407845984	-0.4685393777	 0.097536
H	-2.4368275478	-2.5618937246	-0.6154534551	 0.124465
H	-0.944792485	-3.6630563865	 1.2464209496	 0.124406
H	 0.3726406469	-2.7738878622	 0.4384435764	 0.125477
H	-1.0247331869	-1.9809032675	 2.8049795727	 0.240241
H	-2.8397079351	-0.7216311039	 1.6665194835	 0.127025
88.6662	150.8681	160.8357	218.9873	272.9992	358.819	425.7743	479.0486	548.9703	567.1943	616.0862	714.5645	754.6077	813.7034	850.4872	906.3056	945.2065	955.2423	984.7251	1002.5659	1025.2411	1036.2002	1088.3576	1096.7628	1122.1105	1172.7388	1238.8061	1248.3865	1261.2181	1308.2877	1345.1394	1380.2571	1412.5951	1461.915	1494.7388	1514.9828	2346.7638	2998.9144	3050.5486	3095.4483	3100.8184	3198.7841	3213.5346	3541.9696	3699.2565
OCC1(C#N)C2CNC12	OC[C@@]1(C#N)[C@H]2CN[C@@H]12	
InChI=1S/C6H8N2O/c7-2-6(3-9)4-1-8-5(4)6/h4-5,8-9H,1,3H2	InChI=1S/C6H8N2O/c7-2-6(3-9)4-1-8-5(4)6/h4-5,8-9H,1,3H2/t4-,5+,6-/m0/s1
