19
gdb 84695	2.97757	1.6554	1.42728	1.8429	74.63	-0.2425	0.0059	0.2484	987.5439	0.16177	-423.038553	-423.031239	-423.030295	-423.070039	29.399	
C	-0.0397313221	 1.5774237003	 0.0127313558	-0.406195
C	 0.0087447476	 0.040427013	 0.0005801027	-0.025068
C	 0.6774955637	-0.4850664822	-1.2536524683	-0.084935
C	 1.8345322049	-1.1423033971	-1.1968515829	-0.063218
C	 2.4755096991	-1.3865939462	 0.1578758375	 0.135147
O	 1.9102968027	-2.5379750328	 0.7738833798	-0.259653
C	 0.6725642111	-2.0777650291	 1.3242050912	-0.108252
C	 0.7591198008	-0.5273473024	 1.2211722394	 0.034384
O	 2.164188828	-0.3245293005	 1.0346583846	-0.247817
H	 0.9734131636	 1.9858984224	 0.0608108653	 0.137693
H	-0.5205323675	 1.9626205211	-0.8920596389	 0.113594
H	-0.602994217	 1.9466095704	 0.8764093773	 0.11176
H	-1.0233025091	-0.3377377078	 0.032699832	 0.081073
H	 0.1874471573	-0.2883135066	-2.2041729394	 0.094211
H	 2.3182514526	-1.5500759154	-2.0784062417	 0.09665
H	 3.559320505	-1.5108188107	 0.1151222358	 0.092786
H	-0.1790036103	-2.478187818	 0.7615651286	 0.102821
H	 0.6102023569	-2.4223764602	 2.3606563847	 0.111685
H	 0.4654151428	-0.0227535681	 2.1444001166	 0.083333
128.5959	206.7342	226.0375	259.6095	348.4255	395.5439	491.9135	530.4553	604.0612	717.3042	739.8957	775.5047	805.6448	863.7286	900.1398	925.8833	954.27	975.8107	986.0688	992.4941	1019.9644	1033.6975	1064.0261	1102.2795	1129.5775	1141.6529	1192.2592	1213.8478	1282.4463	1305.0979	1323.0656	1337.1489	1342.2149	1368.9618	1390.3345	1395.4922	1414.3123	1493.2039	1504.2526	1517.5209	1705.1349	3001.1726	3031.4564	3034.5091	3078.1915	3091.8585	3101.2196	3105.1295	3120.1581	3152.4354	3188.2595
CC1C=CC2OCC1O2	C[C@H]1C=C[C@@H]2OC[C@H]1O2	
InChI=1S/C7H10O2/c1-5-2-3-7-8-4-6(5)9-7/h2-3,5-7H,4H2,1H3	InChI=1S/C7H10O2/c1-5-2-3-7-8-4-6(5)9-7/h2-3,5-7H,4H2,1H3/t5-,6+,7+/m0/s1
