21
gdb 114344	2.74499	1.33648	1.20884	0.795	78.56	-0.2342	0.0833	0.3175	1161.7497	0.182649	-424.214084	-424.205142	-424.204198	-424.247819	33.634	
C	-0.4884969132	 1.1385483464	-0.1678086787	-0.243918
O	-0.2397499582	-0.2535562419	-0.2653911068	-0.224761
C	 0.7720421011	-0.5804758686	-1.1757818597	 0.216066
C	 1.0109517183	-2.1061299879	-1.1375938786	-0.285242
C	 0.7335854959	-2.5913508468	-2.5529529668	-0.101373
C	-0.6640187522	-2.4215823341	-3.1423172217	-0.038839
C	-1.9200440569	-2.2211230839	-2.3250543296	-0.432994
C	 0.3916025018	-1.3627288627	-3.3459060657	 0.078851
O	 0.4043582147	-0.2323693835	-2.5084833276	-0.271439
H	 0.4236029198	 1.6840839548	 0.1177661944	 0.106468
H	-0.8611832383	 1.5463901282	-1.1139089407	 0.130936
H	-1.24235117	 1.2733695489	 0.6106961075	 0.125587
H	 1.6690009494	 0.0104087516	-0.9269576718	 0.072497
H	 2.0453601458	-2.3244267998	-0.8594400297	 0.108691
H	 0.3607119847	-2.5473565873	-0.3778406618	 0.123773
H	 1.3734480212	-3.367151728	-2.9571599513	 0.086501
H	-0.8129687241	-3.0362706378	-4.0286566208	 0.081925
H	-1.7607386361	-1.5384448829	-1.4891122211	 0.150786
H	-2.7173878226	-1.8052424898	-2.950881412	 0.113297
H	-2.2785023193	-3.175774258	-1.9238634154	 0.11066
H	 0.7874143184	-1.1455950467	-4.3324930322	 0.092527
71.1937	131.0258	157.4397	191.8388	199.9658	236.5172	279.4719	416.9709	452.7021	525.2536	580.2301	686.4817	730.0711	760.6239	774.3901	834.8199	898.2886	968.5625	988.0774	994.5262	1015.4877	1045.9718	1073.9008	1111.1704	1113.1469	1131.4299	1140.5395	1167.1605	1180.1124	1199.1616	1229.5049	1248.6751	1304.5569	1315.5931	1359.5411	1377.9884	1408.0369	1426.1339	1433.5878	1475.9399	1483.2577	1488.9462	1505.0544	1509.0402	1514.4826	2962.6734	2993.2371	3032.2832	3065.1217	3070.673	3085.8994	3107.9876	3115.578	3126.4316	3143.853	3159.3191	3173.7515
COC1CC2C(C)C2O1	CO[C@H]1C[C@H]2[C@@H](C)[C@H]2O1	
InChI=1S/C7H12O2/c1-4-5-3-6(8-2)9-7(4)5/h4-7H,3H2,1-2H3	InChI=1S/C7H12O2/c1-4-5-3-6(8-2)9-7(4)5/h4-7H,3H2,1-2H3/t4-,5+,6-,7-/m1/s1
