17
gdb 38157	2.32554	2.05405	1.37728	1.5133	81.72	-0.2118	-0.0411	0.1707	966.746	0.137382	-384.668508	-384.661314	-384.66037	-384.69976	28.805	
O	 0.1033502947	 1.2361527216	-0.351516679	-0.242249
C	 1.3718161759	 0.6556554644	-0.055863084	-0.004058
C	 2.1052509271	 1.0666797072	 1.1690224167	-0.048614
C	 1.6545287475	 1.7295498357	 2.2388029849	-0.117862
C	 0.2929666327	 2.1960623966	 2.5431833208	-0.090162
C	-0.8264131219	 1.4649924033	 2.5501802776	-0.090164
C	-0.949207592	 0.0290367962	 2.2550787258	-0.117861
C	-0.5327995151	-0.656253851	 1.1855184154	-0.048615
C	 0.1276062979	-0.1569494409	-0.0480826642	-0.004058
H	 2.013074234	 0.5400252544	-0.9321011797	 0.094257
H	 3.1633601007	 0.815257544	 1.1389297095	 0.091066
H	 2.3971142764	 2.000321107	 2.9898098387	 0.100115
H	 0.2246109561	 3.2311533525	 2.8759235957	 0.096384
H	-1.743769463	 1.9455979217	 2.8882283276	 0.096384
H	-1.4890316519	-0.5377419358	 3.0141002682	 0.100115
H	-0.7281530938	-1.7263265474	 1.1632649292	 0.091066
H	-0.0319525852	-0.7955995695	-0.9193129134	 0.094257
167.0229	203.1177	247.8625	250.453	348.3153	380.179	493.9673	598.6709	655.9519	672.727	728.7291	770.1933	799.0622	810.744	840.4788	919.3928	934.683	952.3342	961.3817	980.616	995.2559	1000.1757	1039.9082	1102.6796	1138.5276	1236.7645	1244.734	1266.1157	1301.8812	1378.7873	1413.0848	1432.7649	1455.3381	1463.0094	1705.1842	1715.0177	1728.1479	3077.9645	3090.4094	3112.6652	3114.7959	3123.1819	3142.9215	3153.5487	3155.147
O1C2C=CC=CC=CC12	O1[C@H]2C=CC=CC=C[C@@H]12	
InChI=1S/C8H8O/c1-2-4-6-8-7(9-8)5-3-1/h1-8H/b2-1-,5-3-,6-4-	InChI=1S/C8H8O/c1-2-4-6-8-7(9-8)5-3-1/h1-8H/b2-1-,5-3-,6-4-/t7-,8+
