16
gdb 75079	2.2878	1.79869	1.01974	4.1439	74.33	-0.2454	-0.0267	0.2187	1116.5525	0.124538	-434.118582	-434.110212	-434.109268	-434.151981	30.271	
C	 0.0006622938	 1.4714769966	 0.0621409357	-0.498341
C	-0.0158121648	-0.0219612727	 0.0100879545	 0.399296
N	-0.0598203101	-0.6842845617	-1.080986211	-0.294548
C	-0.0614636076	-2.0973918573	-0.7281636496	-0.297626
C	-0.0096710922	-2.1760875549	 0.7964645854	 0.399551
O	 0.0057922832	-3.1363415558	 1.510301594	-0.312283
N	 0.0174120068	-0.8035443574	 1.1907590742	-0.173751
C	 0.0664222967	-0.2919414018	 2.4899151499	 0.078408
N	 0.0948062795	-1.0255409907	 3.5217371804	-0.409695
H	 0.9063736309	 1.8478087285	 0.5495703574	 0.147374
H	-0.0310101889	 1.8427463504	-0.9620233498	 0.162919
H	-0.861519942	 1.8655198687	 0.6106451566	 0.147364
H	-0.9596902195	-2.5993443409	-1.1046658598	 0.154501
H	 0.7988958704	-2.6163416901	-1.1652187788	 0.154506
H	 0.0768003308	 0.8020474675	 2.4920435902	 0.107688
H	 0.1287517432	-0.4409487584	 4.3558452906	 0.234638
62.73	110.4156	211.3034	221.1925	223.0037	268.8531	318.878	469.9352	517.5117	531.1645	611.9173	637.3443	705.5319	745.8862	825.5843	959.1249	978.3542	1033.2977	1059.5895	1063.8384	1066.3911	1101.289	1184.7446	1190.2417	1284.7073	1347.2697	1364.9067	1410.8869	1440.0833	1441.8892	1479.9516	1482.2204	1702.7131	1729.0426	1877.5148	3040.9268	3051.1627	3075.2107	3084.4122	3098.6661	3159.3091	3496.9942
CC1=NCC(=O)N1C=N	CC1=NCC(=O)N1[CH][NH]	
InChI=1S/C5H7N3O/c1-4-7-2-5(9)8(4)3-6/h3,6H,2H2,1H3	InChI=1S/C5H7N3O/c1-4-7-2-5(9)8(4)3-6/h3,6H,2H2,1H3
