19
gdb 101491	3.93818	0.94606	0.89722	2.3637	67.31	-0.256	0.0687	0.3247	1336.0931	0.15972	-497.28704	-497.278099	-497.277154	-497.321456	32.578	
O	 0.0187943747	 1.4318343244	-0.0867249629	-0.425757
C	 0.0625657443	 0.033064186	 0.094938213	-0.069444
C	-1.3466945905	-0.5618954286	-0.0006767503	 0.080034
O	-1.95960551	-0.1377111006	-1.2143482073	-0.445587
C	-1.3651035969	-2.0856585138	 0.097867889	 0.068125
C	-2.7841293781	-2.7205792181	 0.0377607072	-0.128456
O	-2.7751784063	-3.5139884178	-1.1455652685	-0.233031
C	-1.4257810196	-3.7821856209	-1.4068876659	 0.016758
O	-0.7164764295	-2.6091883243	-1.0692078601	-0.270903
H	-0.5758021832	 1.5717166893	-0.8353290463	 0.28649
H	 0.711638986	-0.457096744	-0.6488149765	 0.096316
H	 0.4893877168	-0.1565828844	 1.0865758427	 0.102168
H	-1.9573940859	-0.143027508	 0.8083653532	 0.09701
H	-1.6145924028	-0.727946981	-1.898774255	 0.290416
H	-0.8286015801	-2.4104183862	 1.0004255479	 0.084889
H	-2.9786688702	-3.3390959098	 0.9237092909	 0.10199
H	-3.5711237404	-1.9708710517	-0.0649714348	 0.134609
H	-1.0612916628	-4.6321416093	-0.8008263329	 0.088296
H	-1.2939097554	-3.9899840514	-2.4717787332	 0.126077
57.9577	88.4127	119.0384	176.1452	247.7383	289.6439	310.543	350.3527	440.9533	510.4906	550.8541	681.1717	726.6133	746.9054	832.5314	890.9841	973.7943	985.9653	1009.668	1038.0704	1058.2637	1090.3078	1107.9486	1116.3846	1139.2431	1188.4508	1202.8909	1220.2339	1256.4681	1278.3695	1303.3209	1331.2345	1361.4679	1374.6606	1401.7458	1421.7328	1438.1221	1445.7205	1509.662	1512.2325	1540.2544	2935.9203	2977.7222	3001.6717	3021.624	3045.2651	3066.0599	3100.2901	3112.4435	3753.7447	3767.6603
OCC(O)C1COCO1	OC[C@@H](O)[C@H]1COCO1	
InChI=1S/C5H10O4/c6-1-4(7)5-2-8-3-9-5/h4-7H,1-3H2	InChI=1S/C5H10O4/c6-1-4(7)5-2-8-3-9-5/h4-7H,1-3H2/t4-,5-/m1/s1
