14
gdb 132779	2.30591	1.80092	1.01212	2.6711	69.	-0.2121	0.0051	0.2172	1061.4639	0.100881	-485.996481	-485.98906	-485.988116	-486.028115	29.026	
N	-0.0263816704	 1.4126775622	 0.1600412253	-0.596027
C	 0.0292915175	 0.0271431327	 0.0571659392	 0.218456
C	-1.160991121	-0.705748969	 0.037483676	 0.084255
F	-2.3278439245	-0.0405606208	 0.0491422021	-0.079622
C	-1.1531667228	-2.0921162467	-0.0056838092	 0.193838
F	-2.3234173732	-2.7328926363	-0.0261698172	-0.065462
C	 0.0411165857	-2.7975976506	-0.0326956611	-0.280603
C	 1.2331141383	-2.0767972023	-0.0187732067	-0.083016
C	 1.2343188285	-0.6873472901	 0.0255891094	-0.209283
H	 0.7652458891	 1.9008019903	-0.2310037486	 0.25258
H	-0.9072180112	 1.8148191823	-0.1250992064	 0.257869
H	 0.0163819937	-3.8792989413	-0.0654548527	 0.112249
H	 2.1774675424	-2.6090520773	-0.0421456967	 0.102977
H	 2.1707464379	-0.1395697032	 0.0418219967	 0.091789
155.4962	246.7771	285.1959	293.1064	299.5335	332.6165	490.5364	506.0896	542.3004	568.0573	573.6367	620.0915	702.6944	707.8933	773.9792	834.1615	854.5654	935.5057	1020.5411	1078.5508	1151.1051	1186.4875	1256.1757	1286.9221	1357.1508	1369.9762	1516.236	1554.0029	1634.7986	1640.4083	1671.1916	3176.634	3195.1349	3217.3647	3571.6984	3675.2232
NC1=C(F)C(F)=CC=C1	Nc1c(F)c(F)ccc1	
InChI=1S/C6H5F2N/c7-4-2-1-3-5(9)6(4)8/h1-3H,9H2	InChI=1S/C6H5F2N/c7-4-2-1-3-5(9)6(4)8/h1-3H,9H2
