16
gdb 67537	2.55195	1.85301	1.51942	4.4954	69.56	-0.2378	0.0232	0.261	920.6112	0.125375	-433.986185	-433.978863	-433.977919	-434.017618	29.256	
N	-0.0379364624	 1.4753966321	 0.1413449267	-0.60232
C	 0.0307149533	 0.0602569302	-0.0094066114	 0.206831
C	 1.2364126817	-0.6304987923	 0.6955314786	-0.079178
N	 0.9856046428	-2.0820578474	 0.7104163672	-0.318032
C	 1.5363990825	-1.4559660005	-0.5125695615	-0.086466
C	 0.3480066444	-0.8172465431	-1.271708169	 0.043456
O	-0.9315547315	-1.4928299478	-1.1269950805	-0.265752
C	-1.2765980786	-0.7296238175	-0.0196564388	 0.420275
N	-2.340061859	-0.6867113209	 0.6391921931	-0.553627
H	 0.8338426881	 1.9250505745	-0.118438933	 0.23338
H	-0.7862399558	 1.8757841397	-0.4136377006	 0.243763
H	 1.8873350679	-0.1526187959	 1.4178992339	 0.101519
H	 1.7632784189	-2.5239483785	 1.1993349098	 0.238027
H	 2.4813849592	-1.7786965771	-0.9307812046	 0.099423
H	 0.5175524547	-0.4341951001	-2.2773251893	 0.090374
H	-3.0202084261	-1.3657248655	 0.2920132993	 0.228329
132.1619	195.9809	262.8055	277.5503	323.8923	364.7564	470.363	578.2826	651.6866	682.1423	713.0498	776.7213	796.4671	829.9812	838.8336	870.7704	908.1118	933.5766	943.7122	969.1359	978.2979	1013.4435	1030.0497	1086.6204	1102.7886	1149.4857	1210.4547	1233.5912	1275.9351	1324.2986	1333.7967	1349.9943	1388.6991	1649.0216	1824.6245	3126.4253	3185.4113	3198.5243	3471.4018	3480.4517	3505.4231	3594.5656
NC12C3NC3C1OC2=N	N[C@]12[C@H]3N[C@H]3[C@H]1O[C]2[NH]	
InChI=1S/C5H7N3O/c6-4-5(7)2-1(8-2)3(5)9-4/h1-3,6,8H,7H2	InChI=1S/C5H7N3O/c6-4-5(7)2-1(8-2)3(5)9-4/h1-3,6,8H,7H2/t1-,2+,3-,5-/m1/s1
