20
gdb 14743	10.59022	0.54689	0.52859	0.8717	81.95	-0.2412	0.0631	0.3044	2108.6408	0.174012	-348.97484	-348.964143	-348.963199	-349.013086	35.006	
C	-0.0206311551	 1.4052635548	 0.0218143456	-0.22836
O	-0.0029186123	-0.0008482163	 0.0134686191	-0.231391
C	 0.6437283126	-0.5353429604	-1.1196524147	-0.049937
C	 0.6073186964	-2.0547296274	-1.0288267514	-0.18494
C	 1.295990051	-2.7227289711	-2.2347242224	-0.356917
C	 1.2736444896	-4.1800685058	-2.1697615322	 0.022288
C	 1.2423404957	-5.3812767164	-2.0934422905	 0.112956
C	 1.2102204697	-6.8349250609	-2.0112436518	-0.497002
H	 0.9969946714	 1.8283455755	 0.0273090255	 0.101828
H	-0.5540687921	 1.8140399801	-0.8516495838	 0.101822
H	-0.5385176046	 1.7219391743	 0.9305216307	 0.126379
H	 0.144818544	-0.1925307167	-2.044149687	 0.082013
H	 1.6879050316	-0.1772911635	-1.1707500101	 0.082009
H	 1.0962963425	-2.3709506266	-0.1019256589	 0.117157
H	-0.4342021235	-2.3859925412	-0.9676418232	 0.11717
H	 0.8106125124	-2.3891730036	-3.1623494048	 0.124247
H	 2.335988194	-2.3741066337	-2.2996092455	 0.124244
H	 1.7096972034	-7.2939620268	-2.8718273996	 0.145468
H	 1.7136318904	-7.1954393659	-1.1071926416	 0.14549
H	 0.1814127628	-7.2113827085	-1.9879734435	 0.145477
15.8446	48.5715	67.0357	89.2599	121.6749	174.5363	217.1482	230.445	280.5863	358.774	385.7802	418.8576	538.3135	753.7371	768.0078	866.0443	978.9747	1040.2757	1053.9662	1054.3944	1069.5607	1114.8436	1164.7939	1170.7209	1180.3189	1221.8185	1224.914	1279.1099	1298.5411	1307.4722	1369.6968	1415.5456	1427.7023	1475.8817	1479.2233	1480.0419	1481.1267	1484.6084	1496.6891	1506.221	1531.97	2375.3501	2934.1879	2958.7768	2966.441	3004.89	3007.2574	3025.0457	3030.9129	3054.6926	3084.7147	3084.7637	3100.4033	3112.0967
COCCCC#CC	COCCCC#CC	
InChI=1S/C7H12O/c1-3-4-5-6-7-8-2/h5-7H2,1-2H3	InChI=1S/C7H12O/c1-3-4-5-6-7-8-2/h5-7H2,1-2H3
