19
gdb 60892	3.5666	1.13672	0.99897	2.1966	77.53	-0.2468	0.0234	0.2701	1220.3149	0.159852	-419.149353	-419.14086	-419.139915	-419.183303	31.346	
C	-0.0522503541	 1.4393487176	-0.0449526112	-0.372132
N	-0.0100092005	-0.0152173001	-0.0146628222	-0.191062
C	 0.0262452839	-0.6722937379	 1.1851141107	 0.135433
O	 0.0262969407	-0.1436866389	 2.27605133	-0.340441
C	-0.0060729734	-0.7188608349	-1.2551064812	 0.37797
C	 1.0209764789	-0.6553892193	-2.417360036	-0.214047
N	-0.0002671635	-1.6841284759	-2.9257958212	-0.132687
C	 0.0356696968	-2.2413198828	-1.4922525875	-0.225039
C	-1.0661788958	-0.7169089646	-2.3890478936	-0.214061
H	 0.8190248983	 1.8443182526	-0.5717320808	 0.129867
H	-0.9590866481	 1.7931260643	-0.5480255412	 0.129864
H	-0.0485878216	 1.7906557198	 0.9866413471	 0.17268
H	 0.0562702688	-1.7691461795	 1.0499496383	 0.081444
H	 1.0622148305	 0.2512875741	-3.0257563837	 0.107566
H	 2.0159995978	-1.0741459987	-2.2467799975	 0.109553
H	 0.9595031757	-2.775234347	-1.2560404551	 0.113989
H	-0.8482845119	-2.8286391842	-1.231480621	 0.113983
H	-2.0298236059	-1.1933979328	-2.191895315	 0.109552
H	-1.1772278166	 0.1852723783	-2.995391669	 0.10757
43.5775	110.318	125.5601	169.629	299.4458	327.0746	393.1736	420.392	434.7805	589.0442	596.7374	783.6152	792.64	798.0925	873.5031	939.1873	969.7613	995.0772	1009.7026	1020.2524	1023.1799	1028.0156	1148.9944	1158.5719	1160.3992	1161.7985	1167.5015	1171.6488	1194.2188	1198.4776	1283.1371	1345.7786	1380.937	1437.8506	1441.9517	1497.9221	1507.3365	1509.5201	1513.498	1563.1356	1795.2428	2964.0132	3028.263	3053.5888	3053.9704	3064.0193	3082.3538	3122.5118	3128.3107	3129.3445	3159.7369
CN(C=O)C12CN(C1)C2	CN(C=O)[C@@]12CN(C1)C2	
InChI=1S/C6H10N2O/c1-7(5-9)6-2-8(3-6)4-6/h5H,2-4H2,1H3	InChI=1S/C6H10N2O/c1-7(5-9)6-2-8(3-6)4-6/h5H,2-4H2,1H3
