19
gdb 10195	2.96963	1.20267	0.90178	4.7466	73.75	-0.2335	0.0325	0.266	1303.4457	0.16543	-361.231377	-361.221787	-361.220843	-361.266008	33.362	
C	-0.1320730762	 1.4887330253	-0.0214066315	-0.317639
N	 0.1436521433	 0.0569744383	 0.0480870978	-0.290536
C	 0.6785577842	-0.4947018552	-1.1895499232	-0.154045
C	 0.6707993386	-2.0350256926	-1.1088925303	-0.126251
N	-0.6946723818	-2.5057998859	-0.9447596599	-0.275252
C	-0.8063396665	-3.9003636332	-0.5389143529	-0.325583
C	 1.2747680166	-2.6050752285	-2.3261580814	 0.305086
N	 1.7674716087	-3.0473968505	-3.2729264679	-0.329394
H	 0.7385936361	 2.1010988392	-0.3113640308	 0.104164
H	-0.9259037097	 1.670409136	-0.753397073	 0.13361
H	-0.4876391149	 1.8376798488	 0.9520264747	 0.125147
H	 0.7964685398	-0.1223702401	 0.8052505146	 0.222076
H	 0.0208899027	-0.1943739368	-2.0120204587	 0.134461
H	 1.6951688971	-0.1453195903	-1.4337402357	 0.103998
H	 1.3314301048	-2.337058901	-0.2693022819	 0.09247
H	-1.1235207467	-1.8889791137	-0.261068074	 0.233997
H	-0.4341188294	-4.5497376088	-1.3381306334	 0.143089
H	-0.2474163259	-4.146084674	 0.3820218205	 0.094832
H	-1.8597518508	-4.142749627	-0.3762312129	 0.125769
87.0549	102.9162	115.2636	134.4877	190.6404	238.6709	248.8978	297.825	318.1425	349.4612	474.5414	579.7128	589.8365	785.1457	804.4012	861.2357	961.9302	1004.0536	1039.8026	1048.2957	1135.2892	1138.0828	1157.4816	1170.8357	1188.6241	1230.4158	1292.8321	1315.943	1354.4933	1394.7719	1460.7824	1462.4407	1482.241	1484.7556	1491.6708	1495.0761	1507.4884	1517.992	1518.5288	2360.5655	2878.9693	2944.9575	2963.1608	2971.4026	3067.4539	3068.6705	3078.6373	3112.204	3115.5426	3506.1134	3515.6303
CNCC(NC)C#N	CNC[C@@H](NC)C#N	
InChI=1S/C5H11N3/c1-7-4-5(3-6)8-2/h5,7-8H,4H2,1-2H3	InChI=1S/C5H11N3/c1-7-4-5(3-6)8-2/h5,7-8H,4H2,1-2H3/t5-/m0/s1
