13
gdb 13478	3.27053	1.94282	1.3192	2.5941	55.73	-0.254	-0.0509	0.2031	871.0273	0.094136	-435.75509	-435.747549	-435.746605	-435.787629	26.732	
N	 0.0018107445	 1.2639070389	 0.2145132243	-0.52066
C	 0.0913216299	-0.0863403564	 0.0307981727	 0.354961
O	 1.117682009	-0.7027793509	-0.127274843	-0.328537
C	-1.2954691981	-0.7517226827	-0.0141800929	-0.084889
O	-1.2955624849	-2.1622444115	 0.2458095075	-0.263816
C	-2.135777686	-2.0508611823	 1.4157272962	-0.177146
C	-2.1782627528	-0.5338451376	 1.219360043	 0.328748
O	-2.6260563281	 0.4205838123	 1.7810617314	-0.282143
H	 0.8653801615	 1.7691776428	 0.3401392853	 0.267707
H	-0.8386940389	 1.6642699471	 0.6052607502	 0.275732
H	-1.7809345825	-0.4960467511	-0.9665241826	 0.140434
H	-3.0981560279	-2.5653218561	 1.3047317732	 0.141558
H	-1.6392193658	-2.3902850825	 2.3331198247	 0.148051
56.1024	108.6688	146.9368	261.5216	397.3374	411.1559	435.5415	487.5544	567.1592	592.9416	697.3588	731.5233	778.45	904.083	1002.8035	1010.6721	1067.1872	1088.1633	1109.3856	1136.1751	1206.0788	1263.5659	1300.3743	1336.6247	1476.5642	1629.6843	1832.3607	1908.3243	3016.5384	3027.0516	3074.3219	3563.466	3695.3065
NC(=O)C1OCC1=O	NC(=O)[C@H]1OCC1=O	
InChI=1S/C4H5NO3/c5-4(7)3-2(6)1-8-3/h3H,1H2,(H2,5,7)	InChI=1S/C4H5NO3/c5-4(7)3-2(6)1-8-3/h3H,1H2,(H2,5,7)/t3-/m0/s1
