20
gdb 72848	2.99412	1.20345	1.03311	4.3961	83.56	-0.2824	0.0302	0.3126	1227.0209	0.17151	-366.012387	-366.003839	-366.002895	-366.045858	32.788	
C	-0.7085662823	 1.5189417893	 0.0376288244	-0.493957
C	-0.1082522715	 0.1323253647	-0.024003456	 0.378959
C	-1.0923831145	-1.0755183795	 0.1110160732	-0.283837
C	-0.3154623812	-1.5821037985	 1.3641209554	-0.229658
C	 0.7605911673	-0.5013878069	 1.1295986809	-0.07435
C	 1.8370457565	-0.9086991259	 0.0629459846	-0.146716
C	 1.0416185923	-0.116472302	-1.0323047628	-0.298433
C	 3.1912713951	-0.4500266015	 0.3154132346	 0.264163
N	 4.2615258619	-0.0635253857	 0.5237326462	-0.331952
H	 0.0668087902	 2.287603584	 0.1269124497	 0.121717
H	-1.2885678461	 1.7338264438	-0.868503263	 0.120938
H	-1.3848578858	 1.623005982	 0.8935628561	 0.117333
H	-2.1282855556	-0.7883978032	 0.3067703467	 0.106173
H	-1.0878440019	-1.7566866463	-0.7448302421	 0.099906
H	-0.8684292752	-1.4190698755	 2.2924251952	 0.109956
H	 0.0276923223	-2.6206846145	 1.352428336	 0.102378
H	 1.1368866608	 0.0645041575	 1.9818635592	 0.086885
H	 1.8625327274	-1.9884044649	-0.1119537416	 0.118624
H	 0.8001236871	-0.6741311945	-1.9409216045	 0.108707
H	 1.5564826133	 0.8055021676	-1.3123037423	 0.123163
45.7551	154.8296	172.7141	224.9939	261.7336	326.1228	352.3471	370.8378	487.8733	544.4085	601.8172	651.2848	734.1017	792.0976	845.7497	886.5133	891.9499	925.5867	955.0379	965.8639	984.4878	1022.2262	1047.8353	1076.5014	1125.3973	1163.0175	1167.8439	1207.9257	1228.3824	1237.5833	1248.591	1256.6598	1279.8131	1286.1959	1339.327	1350.4716	1413.4083	1475.4116	1481.1157	1491.1044	1492.0712	1498.455	2349.935	3018.9607	3051.5121	3057.2745	3060.2764	3064.3249	3082.6921	3092.5589	3095.6229	3110.255	3116.0568	3119.3671
CC12CCC1C(C2)C#N	C[C@]12CC[C@H]1[C@@H](C2)C#N	
InChI=1S/C8H11N/c1-8-3-2-7(8)6(4-8)5-9/h6-7H,2-4H2,1H3	InChI=1S/C8H11N/c1-8-3-2-7(8)6(4-8)5-9/h6-7H,2-4H2,1H3/t6-,7-,8+/m0/s1
