17
gdb 48790	2.72033	1.49785	1.15643	3.2521	74.15	-0.2454	-0.0295	0.2158	1074.5883	0.134705	-421.784067	-421.776126	-421.775182	-421.816631	30.073	
O	-0.193690712	 0.1842932903	-0.6139672084	-0.280185
C	 0.0514088417	 1.0782703328	 0.1657764927	 0.055563
C	 1.2484509533	 1.9307818471	 0.0962331499	 0.161967
C	 2.1195309759	 2.0054357217	-1.1429316512	-0.326175
C	 2.734475968	 1.4309568097	 0.0778885548	-0.081486
C	 3.125359832	 2.5256084487	 1.0858099533	-0.325112
C	 1.6629718706	 3.0074746607	 1.0791172158	 0.373905
C	 1.0615905808	 4.3120351726	 1.359040501	-0.26786
O	 0.9492539298	 3.2124391212	 2.2837316739	-0.272693
H	-0.619418534	 1.3017837105	 1.021427613	 0.090519
H	 1.8270086249	 1.2936184844	-1.9076004086	 0.150433
H	 2.4241813384	 2.9838414103	-1.5060116266	 0.118311
H	 3.0348134624	 0.3926376932	 0.1332426021	 0.119336
H	 3.390355466	 2.1301658192	 2.0688494225	 0.131955
H	 3.895394304	 3.2302122822	 0.7567002007	 0.110702
H	 1.6865486503	 5.1360244365	 1.7000256279	 0.120868
H	 0.1352247782	 4.6015715089	 0.8650462473	 0.119952
103.6559	132.7869	170.0893	220.5212	299.3625	334.7605	402.4185	478.7919	531.4328	570.3534	725.5149	770.2057	828.0533	841.7273	867.1354	894.8161	934.1406	964.0874	1002.5341	1045.3757	1065.9656	1077.6487	1090.151	1121.8365	1134.8855	1163.7053	1167.0122	1242.5303	1266.7613	1280.5069	1371.9648	1421.7942	1441.8011	1469.8946	1487.1141	1534.0631	1789.9979	2916.5355	3054.1286	3084.0831	3114.4797	3119.7788	3172.8259	3203.1834	3218.2125
O=CC12CC1CC21CO1	O=C[C@]12C[C@H]1C[C@]12CO1	
InChI=1S/C7H8O2/c8-3-6-1-5(6)2-7(6)4-9-7/h3,5H,1-2,4H2	InChI=1S/C7H8O2/c8-3-6-1-5(6)2-7(6)4-9-7/h3,5H,1-2,4H2/t5-,6+,7+/m0/s1
