19
gdb 87736	2.93337	1.23511	1.03249	3.0195	78.52	-0.2321	0.0116	0.2437	1200.6131	0.158993	-423.01279	-423.004118	-423.003174	-423.046507	33.517	
O	-0.4651276594	 1.4355854785	-0.3004900699	-0.416649
C	-0.2233468672	 0.0627132368	-0.2091774689	 0.050917
C	-0.251158755	-0.6188594646	 1.1310280267	-0.386893
C	-1.407534169	-0.8030935251	 0.1605515935	 0.316042
C	-2.7923105829	-0.2053051728	 0.43342821	-0.336783
C	-3.7914504712	-1.0782294158	-0.3808697384	 0.0867
O	-4.3725478133	-0.4104907848	-1.5012999134	-0.432921
C	-2.9574986882	-2.2670731734	-0.8051525317	-0.129773
C	-1.662123743	-2.0884058789	-0.5397757665	-0.136761
H	 0.2873737336	 1.8990401867	 0.0819276136	 0.289884
H	 0.4632102526	-0.3289112918	-0.9608964388	 0.083639
H	 0.4229692347	-1.4510268978	 1.308609586	 0.110785
H	-0.4448818509	 0.0074435784	 1.9964624343	 0.115415
H	-3.0258072936	-0.260526116	 1.5011698479	 0.102471
H	-2.8624532255	 0.8420538963	 0.1333852565	 0.127777
H	-4.6550739636	-1.3654586985	 0.2274996977	 0.086443
H	-3.6590035906	-0.226281592	-2.1228897646	 0.275506
H	-3.3891407916	-3.1132068005	-1.3271861414	 0.097958
H	-0.8625301657	-2.7762047046	-0.7968056425	 0.096243
35.0356	141.9863	201.9322	255.9343	270.6744	325.3504	358.8732	393.7564	447.5413	476.9995	530.0049	597.5497	745.0831	795.4835	805.4994	818.3276	849.4929	892.7302	934.2286	957.4749	973.738	1008.2409	1038.0772	1051.449	1067.6838	1096.2229	1125.8178	1173.4581	1184.0713	1235.6154	1267.7085	1284.1065	1294.43	1308.803	1332.1537	1385.0473	1423.8099	1434.4925	1481.0244	1484.8935	1669.7949	3049.367	3064.351	3089.1205	3118.5294	3120.0876	3176.1129	3208.7529	3211.0645	3794.1143	3803.7732
OC1CC11CC(O)C=C1	O[C@H]1C[C@]21C[C@@H](O)C=C2	
InChI=1S/C7H10O2/c8-5-1-2-7(3-5)4-6(7)9/h1-2,5-6,8-9H,3-4H2	InChI=1S/C7H10O2/c8-5-1-2-7(3-5)4-6(7)9/h1-2,5-6,8-9H,3-4H2/t5-,6-,7+/m0/s1
