17
gdb 6739	5.80086	0.888	0.77807	2.5429	71.79	-0.2392	0.0108	0.25	1436.2351	0.142014	-397.229904	-397.22084	-397.219896	-397.264029	32.283	
C	-0.2013278513	 1.3172596868	-0.0085594919	-0.395678
C	-0.5111495064	-0.1749704642	-0.1556329611	-0.108344
N	 0.0575021061	-1.1058861166	 0.8071743221	-0.272346
C	 0.7945144562	-0.6809014347	 1.7434319351	 0.126909
N	 1.3314214624	-1.571321212	 2.6628631194	-0.364972
C	 2.1932093856	-1.1755351596	 3.6768353226	 0.472936
N	 2.6346345877	-2.221319944	 4.4653721302	-0.568861
O	 2.5540095679	-0.0262585501	 3.8305725489	-0.378236
H	 0.8722552365	 1.5204610919	-0.0822403724	 0.125464
H	-0.700339578	 1.875043961	-0.8066701548	 0.113085
H	-0.5568596738	 1.715841667	 0.947568691	 0.123474
H	-1.5996666729	-0.3230442978	-0.1376504107	 0.109343
H	-0.1953898776	-0.5144307954	-1.1516840535	 0.110267
H	 1.0883990248	 0.3487621046	 1.9491403937	 0.135607
H	 1.1311892945	-2.5467457786	 2.498084062	 0.251639
H	 2.0509075234	-3.0361697667	 4.5735532026	 0.25275
H	 3.099391035	-1.9161881815	 5.3063225467	 0.266962
63.3817	89.2205	112.6151	193.3356	255.5173	263.6424	329.1762	382.3955	389.4406	457.3761	513.7932	577.4335	612.3802	664.2475	772.3252	780.1244	880.609	1003.2399	1013.5212	1067.8936	1089.3476	1114.4912	1148.785	1263.6507	1296.5297	1311.4564	1359.0994	1386.8464	1410.8659	1482.2869	1495.6242	1504.5673	1522.9065	1627.5642	1760.7574	1815.7227	3010.9356	3028.9607	3033.8591	3102.5473	3107.9267	3137.0637	3583.2413	3618.6756	3701.5603
CCN=CNC(N)=O	CCN=CNC(=O)N	
InChI=1S/C4H9N3O/c1-2-6-3-7-4(5)8/h3H,2H2,1H3,(H3,5,6,7,8)	InChI=1S/C4H9N3O/c1-2-6-3-7-4(5)8/h3H,2H2,1H3,(H3,5,6,7,8)
