17
gdb 41289	2.91786	2.11989	1.9022	0.8411	70.74	-0.2426	0.0509	0.2934	813.3291	0.137848	-421.717805	-421.711849	-421.710905	-421.747643	25.986	
C	 0.0528287495	 1.5177171648	-0.0388378144	-0.195463
O	 1.5275560273	 1.520073605	-0.0083789073	-0.345593
C	 1.5372783918	 0.1958656543	 0.5503717626	 0.366904
C	 1.6876270529	-0.2853251932	 1.9812548387	-0.305049
C	 0.897710547	-1.4814615202	 1.3727999975	 0.065384
O	-0.4196000134	-0.9002186124	 1.1230282124	-0.318743
C	 0.0758535466	-0.0052588476	 0.1315746829	 0.30624
C	 0.5236510582	-0.935075224	-1.0306416289	-0.286256
C	 1.6484335694	-1.2601691921	-0.0417398978	-0.136137
H	-0.3600484511	 2.0685158331	 0.8135550068	 0.120919
H	-0.3299371004	 1.9211416434	-0.9800802833	 0.118323
H	 2.7161632698	-0.5539894532	 2.2377196419	 0.107024
H	 1.199504413	 0.2541313466	 2.7959365519	 0.109109
H	 0.8232803874	-2.4559547883	 1.8492518951	 0.09448
H	-0.1753986113	-1.7170633843	-1.3327095136	 0.103354
H	 0.8941895429	-0.3782816425	-1.8933550085	 0.118587
H	 2.5476999003	-1.8453131194	-0.2378429759	 0.076917
270.4833	323.9511	379.4008	443.813	492.2029	534.0293	593.4414	692.7321	734.0459	754.1871	795.6877	864.2555	882.285	891.4851	913.0562	931.5024	944.8754	972.6745	1022.6628	1034.0859	1051.7128	1074.0165	1102.0307	1133.5245	1145.2177	1168.8292	1185.3407	1217.5456	1231.3453	1266.2345	1269.5083	1281.9273	1295.833	1335.0217	1474.911	1486.2335	1501.3335	3038.4068	3061.8488	3073.6041	3105.0988	3110.0571	3127.6706	3140.0397	3160.1995
C1OC23CC4OC12CC34	C1O[C@@]23C[C@H]4O[C@@]12C[C@@H]34	
InChI=1S/C7H8O2/c1-4-5-2-7(4)6(1,9-5)3-8-7/h4-5H,1-3H2	InChI=1S/C7H8O2/c1-4-5-2-7(4)6(1,9-5)3-8-7/h4-5H,1-3H2/t4-,5-,6+,7-/m1/s1
