17
gdb 41635	2.89429	1.87726	1.53435	2.0996	66.16	-0.249	0.0401	0.2892	897.6688	0.13781	-458.913339	-458.90655	-458.905606	-458.945246	26.174	
C	 0.1641737843	 1.427298187	-0.4400073288	-0.099952
O	 1.5547863046	 1.4356265088	-0.0434517413	-0.271672
C	 1.4529273967	 0.1258036853	 0.5446059076	 0.058771
C	-0.0066626646	-0.0243289332	 0.0483300304	 0.051803
O	-0.0503540713	-1.0288798011	-0.9506875305	-0.271294
C	 1.239371975	-1.5418408426	-1.209996839	 0.045998
C	 2.1397489653	-0.8461172858	-2.2616952552	-0.104151
O	 3.106429619	-0.4928929404	-1.2452600695	-0.271241
C	 2.2530462038	-0.9703656673	-0.195877086	 0.074193
H	-0.4184713293	 2.1708158185	 0.1178421387	 0.105206
H	 0.026991956	 1.5810068952	-1.5154100595	 0.112191
H	 1.6358648595	 0.1441804074	 1.6233138864	 0.079558
H	-0.8097427952	-0.2091188445	 0.7647137744	 0.092588
H	 1.1648807971	-2.6258120794	-1.3155980567	 0.096382
H	 2.5791912694	-1.4956569509	-3.0267240877	 0.107257
H	 1.6887947796	 0.032498732	-2.7357983643	 0.11232
H	 2.77311275	-1.6473915188	 0.4880738009	 0.082044
55.9892	115.3199	264.8708	356.1589	415.3129	526.6278	645.1925	662.258	747.64	825.5321	847.6866	869.995	892.6475	920.6592	931.4917	1003.33	1018.2924	1030.6048	1040.0127	1062.4213	1076.3099	1106.3513	1142.8372	1160.6163	1178.8647	1210.3523	1232.6504	1251.2352	1268.2046	1311.9098	1329.0743	1340.9909	1351.8799	1366.2136	1388.8426	1506.7511	1516.0816	3021.1928	3030.0604	3052.8765	3069.6051	3076.2924	3081.1535	3090.8505	3098.4723
C1OC2C1OC1COC21	C1O[C@H]2[C@@H]1O[C@H]1CO[C@@H]21	
InChI=1S/C6H8O3/c1-3-5(7-1)6-4(9-3)2-8-6/h3-6H,1-2H2	InChI=1S/C6H8O3/c1-3-5(7-1)6-4(9-3)2-8-6/h3-6H,1-2H2/t3-,4+,5+,6-
