14
gdb 131695	2.9292	1.39139	0.94886	2.7616	69.3	-0.2766	-0.0774	0.1993	1147.794	0.100834	-469.973956	-469.966105	-469.965161	-470.007125	28.225	
O	 0.1296567174	 1.390608834	-0.1820434082	-0.416421
C	 0.0429345425	 0.0003949223	-0.1004543813	-0.118453
C	-1.3889677233	-0.4660329788	-0.0049296717	 0.415036
N	-2.3433157806	 0.3810078685	-0.0063397896	-0.352302
C	-3.6499818762	-0.1067616515	 0.0842363712	 0.319203
N	-4.6388158746	 0.698545304	 0.087582926	-0.481264
C	-3.7438073563	-1.5749695681	 0.1701352539	-0.004602
N	-2.7623015798	-2.3955383468	 0.1687745191	-0.05917
O	-1.4835185429	-1.8094283789	 0.0749430327	-0.252913
H	-0.7806631636	 1.7249715171	-0.1573463799	 0.305353
H	 0.4966316709	-0.4830218182	-0.9799337152	 0.133845
H	 0.5821219411	-0.3849398494	 0.779221128	 0.133876
H	-5.5184750077	 0.1842634112	 0.1587756681	 0.226368
H	-4.718968857	-2.0520690955	 0.243712047	 0.151444
69.4566	92.4076	172.5844	195.9142	342.3145	406.1698	419.8171	458.4061	547.367	578.5052	640.5942	734.3444	760.9956	870.1071	879.2286	956.5711	976.6906	1002.1796	1032.8146	1128.3315	1142.5831	1220.7286	1248.4539	1311.9287	1328.3844	1395.8122	1470.0372	1497.4241	1643.8613	1703.1283	1712.1195	2987.8648	3005.8757	3164.3435	3468.6865	3694.8352
OCC1=NC(=N)C=NO1	OC[C]1N=C([NH])C=NO1	
InChI=1S/C4H5N3O2/c5-3-1-6-9-4(2-8)7-3/h1,5,8H,2H2	InChI=1S/C4H5N3O2/c5-3-1-6-9-4(2-8)7-3/h1,5,8H,2H2
