21
gdb 106234	2.47062	1.46471	1.22166	1.0448	83.7	-0.2256	0.0191	0.2447	1151.6335	0.181976	-387.077519	-387.068555	-387.067611	-387.110787	34.401	
C	-0.3319140338	 1.3029816195	 0.1617489417	-0.252769
O	 0.2462571773	 0.0349684294	-0.0803591691	-0.284852
C	 0.8476658886	-0.5315930443	 1.0422730197	 0.399338
C	 2.231960093	-0.1076468949	 1.4182815245	-0.153824
C	 2.9771172601	-1.1475636906	 1.7987909637	-0.069293
C	 2.2134892451	-2.4539096787	 1.7195575803	-0.283997
C	 0.8215102703	-2.0329626291	 1.2484523567	-0.15012
C	-0.0296095933	-1.1315455507	 2.1307139798	-0.063186
C	 0.1747987073	-0.954337124	 3.6178623641	-0.419971
H	 0.4197364977	 2.0525468871	 0.4495124139	 0.10613
H	-0.8039272747	 1.6227196292	-0.7703671104	 0.12463
H	-1.0936423187	 1.2567438533	 0.9530700912	 0.106817
H	 2.5566230112	 0.9261349369	 1.3889282697	 0.093002
H	 3.998466453	-1.0907230224	 2.1592266046	 0.094158
H	 2.6841842889	-3.1540201169	 1.0173304591	 0.110861
H	 2.1877736618	-2.9669420926	 2.6903539441	 0.110761
H	 0.2967989807	-2.6579065421	 0.5357047217	 0.092478
H	-1.075113078	-1.1569677437	 1.8288731113	 0.088559
H	 1.2297043872	-0.8239670648	 3.8716559416	 0.123364
H	-0.3643109527	-0.0737365403	 3.9842055326	 0.113339
H	-0.199811161	-1.8241815503	 4.1695866994	 0.114575
99.8055	168.4924	181.0349	184.1689	213.7788	220.7616	336.8279	356.2207	401.2492	517.2526	526.6628	632.3722	721.0214	733.6187	755.9118	842.1821	890.4333	920.3499	941.574	958.3915	992.8373	1013.7511	1020.0057	1065.4992	1094.8457	1114.8371	1122.0038	1155.3941	1181.7161	1187.6197	1213.096	1241.7929	1256.6453	1307.8578	1337.2201	1377.4165	1411.7464	1428.9767	1474.9748	1481.1468	1490.6747	1498.5629	1501.4353	1507.2081	1667.1913	2987.2169	3017.4914	3030.0811	3037.3293	3042.4379	3085.0371	3112.2736	3115.836	3129.5202	3182.4488	3183.2627	3208.6234
COC12C=CCC1C2C	CO[C@]12C=CC[C@H]1[C@H]2C	
InChI=1S/C8H12O/c1-6-7-4-3-5-8(6,7)9-2/h3,5-7H,4H2,1-2H3	InChI=1S/C8H12O/c1-6-7-4-3-5-8(6,7)9-2/h3,5-7H,4H2,1-2H3/t6-,7+,8+/m1/s1
