18
gdb 121203	2.54565	0.9852	0.76752	5.4753	72.15	-0.2787	-0.0008	0.2778	1454.9969	0.146738	-439.063879	-439.054406	-439.053462	-439.099494	32.83	
O	-0.0327919868	 1.4465661808	 0.0694547071	-0.415174
C	 0.0326014105	 0.0324984395	 0.0457027889	-0.078225
C	-1.3978434396	-0.4927998104	-0.0248663854	-0.204493
C	-1.4501291447	-2.0121411305	-0.0482861877	-0.062172
C	-1.1619332519	-2.7874719056	 1.258611692	-0.081528
O	-2.421229537	-3.4969451508	 1.1699376183	-0.27027
C	-2.833080695	-2.7325224513	 0.0247038493	-0.031568
C	-4.0010722768	-1.8873338486	 0.3019600547	 0.289906
N	-4.920357288	-1.218215065	 0.5090249936	-0.324501
H	 0.8628552999	 1.7921069951	 0.1249218884	 0.289488
H	 0.6045905488	-0.3299797081	-0.8248838825	 0.08737
H	 0.5319942802	-0.3607859992	 0.947204978	 0.089668
H	-1.9604333275	-0.1044977186	 0.8312818021	 0.13153
H	-1.8751733366	-0.0852511323	-0.9234678819	 0.123577
H	-0.872609977	-2.4022131688	-0.8909144569	 0.096789
H	-0.3111340091	-3.4758786313	 1.2502859886	 0.115557
H	-1.1158780059	-2.1614419139	 2.1585997969	 0.116415
H	-3.0704147436	-3.3777374408	-0.8291898736	 0.12763
55.1456	86.5897	90.9191	107.284	187.2783	241.7723	258.0981	331.8154	360.7047	450.5024	538.5103	591.3265	783.7096	814.6556	822.7547	905.735	959.7617	974.0488	1020.0981	1032.3746	1049.5309	1092.7885	1125.4172	1157.1587	1175.3235	1213.8216	1236.6715	1255.4486	1274.5257	1311.7501	1323.0958	1354.8605	1357.7572	1396.9599	1465.9665	1489.0684	1525.7763	1527.5162	2353.9023	2952.8851	2977.3202	3023.3412	3040.2319	3043.4417	3065.591	3082.1072	3093.5379	3831.4773
OCCC1COC1C#N	OCC[C@H]1CO[C@H]1C#N	
InChI=1S/C6H9NO2/c7-3-6-5(1-2-8)4-9-6/h5-6,8H,1-2,4H2	InChI=1S/C6H9NO2/c7-3-6-5(1-2-8)4-9-6/h5-6,8H,1-2,4H2/t5-,6-/m0/s1
