20
gdb 71389	3.20624	1.39914	1.3242	0.8613	78.3	-0.2203	0.0675	0.2878	1068.6422	0.169836	-403.071235	-403.062857	-403.061913	-403.103302	34.037	
C	-0.0345502586	 1.4598052209	-0.0193310704	-0.426197
C	-0.0216568252	-0.0668904785	-0.0442525532	 0.34315
C	-1.4219392108	-0.6123232505	 0.2162300553	-0.464799
C	 0.8124751651	-0.6442393138	-1.1816691462	-0.146378
C	 2.0382815183	-0.5528234282	-0.3142633458	-0.125734
N	 1.1001034201	-0.5316518526	 0.9141049492	-0.200519
C	 1.0448986194	-2.0455035015	 0.8214750595	-0.249691
C	 1.4777436267	-1.9154815133	-0.6283475647	 0.352029
O	 1.9142117353	-2.8756332115	-1.5152598251	-0.461847
H	 0.9724499469	 1.8668421706	-0.1416466752	 0.117613
H	-0.6654004742	 1.8570048968	-0.8218655068	 0.107407
H	-0.4303326658	 1.8156110748	 0.9372410772	 0.118978
H	-2.1460844044	-0.0923598091	-0.4196644287	 0.116316
H	-1.5111301994	-1.6793235156	 0.0045007985	 0.121412
H	-1.7098562725	-0.4372919537	 1.2592225142	 0.124461
H	 0.7396875902	-0.4986152611	-2.2535917439	 0.089169
H	 3.0026245613	-0.0723519239	-0.3929930449	 0.098853
H	 1.8403909947	-2.4582191599	 1.45129762	 0.096894
H	 0.0929538025	-2.5088815284	 1.0944448378	 0.100773
H	 2.7046157206	-3.2892792914	-1.1503246069	 0.288112
160.5966	185.5099	224.7087	252.0381	305.7416	327.1589	372.5863	398.7689	419.3762	487.5523	538.9962	593.4492	649.3989	766.0704	787.8899	826.8711	856.3042	900.8017	907.547	940.7876	947.1795	965.5115	1011.9992	1014.5046	1046.6872	1078.4506	1111.7338	1142.5609	1160.0726	1178.5087	1233.9109	1255.1342	1280.5968	1302.6464	1332.9063	1398.9619	1414.1664	1434.1641	1477.6829	1483.8195	1495.7394	1505.1105	1531.1206	3032.564	3037.4028	3042.7904	3093.6406	3096.8697	3104.1331	3117.7804	3128.0212	3177.9403	3221.7976	3791.311
CC1(C)C2C3N1CC23O	CC1(C)[C@H]2[C@H]3N1C[C@@]23O	
InChI=1S/C7H11NO/c1-6(2)4-5-7(4,9)3-8(5)6/h4-5,9H,3H2,1-2H3	InChI=1S/C7H11NO/c1-6(2)4-5-7(4,9)3-8(5)6/h4-5,9H,3H2,1-2H3/t4-,5-,7-/m1/s1
