19
gdb 36154	4.08029	1.14243	1.1133	0.7872	83.78	-0.2471	0.052	0.299	1160.7565	0.159188	-348.670768	-348.662904	-348.66196	-348.703266	31.515	
C	-0.0072820736	-1.2043032132	 0.0256723221	-0.457573
C	-0.0421825368	-0.0028720761	 0.0091209567	 0.315044
C	-0.0445116475	 1.4571885252	-0.0106409994	-0.485993
C	 1.3573787111	 2.0372892631	-0.0115609755	 0.340737
C	 2.2997972576	 1.8781679204	 1.2167276251	-0.262607
C	 2.9542704364	 3.1752559348	 0.7493840523	-0.061931
C	 2.962191321	 3.15362942	-0.7877359507	-0.061953
C	 2.3123423732	 1.8438345485	-1.2251388884	-0.262596
C	 1.7291954556	 3.5841083128	-0.0314161018	-0.146345
H	 0.0100374392	-2.2657125652	 0.0400369944	 0.194873
H	-0.5893858358	 1.8106896041	-0.8964083337	 0.128519
H	-0.5980929631	 1.8344433961	 0.8597986943	 0.128517
H	 1.7586110351	 2.0225376965	 2.1570479241	 0.094603
H	 2.8995498376	 0.9630035045	 1.2738696923	 0.094145
H	 3.6290670469	 3.8193588549	 1.2984120402	 0.083792
H	 3.6427007293	 3.782130799	-1.3476855395	 0.083792
H	 2.9124885662	 0.9274948958	-1.2503678451	 0.094145
H	 1.7808723442	 1.9616408014	-2.1746587878	 0.094611
H	 1.1421848137	 4.4911289873	-0.0471840398	 0.08622
63.069	106.8234	271.0957	282.9528	350.4011	421.4675	435.8376	443.3492	619.8615	635.4113	681.3862	717.6164	753.7271	781.8075	802.3585	888.6797	900.2235	927.207	934.5704	970.7333	973.1646	992.0861	1006.2133	1025.7224	1042.2705	1093.9201	1095.8413	1143.935	1143.9533	1171.8776	1235.6871	1245.4571	1258.3697	1303.343	1313.3471	1348.5236	1367.5829	1469.2838	1490.8914	1509.2265	2237.0746	3010.5219	3031.3034	3038.1075	3040.8296	3088.3221	3091.7318	3192.2803	3198.3619	3220.9269	3506.7561
C#CCC12CC3C(C1)C23	C#CC[C@@]12C[C@H]3[C@@H](C1)[C@@H]23	
InChI=1S/C9H10/c1-2-3-9-4-6-7(5-9)8(6)9/h1,6-8H,3-5H2	InChI=1S/C9H10/c1-2-3-9-4-6-7(5-9)8(6)9/h1,6-8H,3-5H2/t6-,7+,8-,9+
