14
gdb 28045	4.26353	0.95802	0.8572	3.3385	68.66	-0.2158	-0.0028	0.213	1283.9938	0.102315	-432.905609	-432.897709	-432.896765	-432.939153	28.53	
O	 0.1404348019	 1.3616744131	-0.0605288714	-0.429739
C	 0.0849986556	 0.0156503383	-0.0685127035	 0.355643
C	 0.1539671504	-0.8062211124	-1.1634681001	-0.231638
N	 0.0437416981	-2.0890662754	-0.6356727514	 0.022355
C	 0.0699259951	-3.3280786445	-1.3791359829	-0.307234
C	 1.3940028613	-3.643936019	-1.9376334328	 0.278323
N	 2.425881745	-3.9003362349	-2.3875036985	-0.287586
C	-0.0763405237	-1.9603140819	 0.7125745141	 0.012597
N	-0.0604946301	-0.6991576625	 1.087384789	-0.352081
H	 0.0718585466	 1.6312271372	 0.8636669709	 0.304394
H	 0.2758292488	-0.620156128	-2.2155120517	 0.143456
H	-0.2349790154	-4.1391946513	-0.7115836672	 0.175475
H	-0.6559040025	-3.2926562581	-2.1994690546	 0.176441
H	-0.176955971	-2.8159629605	 1.3637585399	 0.139595
39.1791	78.6296	219.4744	283.2439	344.3257	371.3058	378.3339	454.8121	480.0241	624.2754	643.2417	684.0437	731.2476	791.5822	797.8091	927.7672	971.3168	1011.9534	1043.6042	1161.8547	1217.4119	1226.038	1279.6769	1358.4297	1387.1597	1423.0943	1452.4443	1461.0366	1537.3244	1663.2343	2369.2894	3049.5716	3101.7041	3250.2207	3294.2294	3802.419
OC1=CN(CC#N)C=N1	Oc1cn(CC#N)cn1	
InChI=1S/C5H5N3O/c6-1-2-8-3-5(9)7-4-8/h3-4,9H,2H2	InChI=1S/C5H5N3O/c6-1-2-8-3-5(9)7-4-8/h3-4,9H,2H2
