16
gdb 94338	2.84123	1.25509	1.07758	2.6548	69.72	-0.2701	-0.0144	0.2557	1143.5417	0.12246	-437.852247	-437.843697	-437.842753	-437.886006	30.626	
C	-0.3397972705	 1.3769353841	 0.12950656	-0.401557
C	 0.1311475468	-0.0472381378	-0.0766097583	 0.055454
O	 1.3961593621	-0.1433690746	-0.7916884346	-0.292358
C	 2.0593245994	-0.8135593069	 0.299082745	-0.155946
C	 0.7779942524	-0.7516361661	 1.1168568855	 0.358067
O	 0.6842012749	-0.322474791	 2.4555341252	-0.245158
C	 0.2197638036	-1.6468134957	 2.1422056085	-0.210302
C	-1.2086761298	-1.8622932559	 2.2185884306	 0.313222
N	-2.3487200651	-2.0481314866	 2.2583936927	-0.322953
H	 0.4074598707	 1.96392178	 0.6697793725	 0.130173
H	-0.5242962815	 1.8483934709	-0.8398982811	 0.135321
H	-1.2724563587	 1.3859941892	 0.7019902965	 0.139538
H	-0.6388984894	-0.6484844182	-0.5773051527	 0.103291
H	 2.4116098373	-1.8153989379	 0.0257472581	 0.118515
H	 2.8908595089	-0.2308580535	 0.7135333365	 0.127246
H	 0.8272376989	-2.4567497801	 2.5409561956	 0.147448
65.0079	97.0622	157.2407	198.4192	208.4702	289.2299	350.6199	402.2392	481.6018	534.3548	584.4394	624.3596	789.009	828.5854	874.9917	933.5482	983.9296	1010.008	1033.2965	1051.8282	1081.2967	1086.1954	1139.463	1158.1549	1184.8811	1279.3961	1308.796	1350.2492	1374.5089	1406.0128	1476.1983	1488.1432	1499.1225	1513.6308	2361.3929	3019.1402	3026.6773	3045.3771	3068.5976	3120.9224	3128.7735	3138.6409
CC1OCC11OC1C#N	C[C@H]1OC[C@]21O[C@H]2C#N	
InChI=1S/C6H7NO2/c1-4-6(3-8-4)5(2-7)9-6/h4-5H,3H2,1H3	InChI=1S/C6H7NO2/c1-4-6(3-8-4)5(2-7)9-6/h4-5H,3H2,1H3/t4-,5+,6-/m1/s1
