18
gdb 9491	2.97942	1.61681	1.51402	1.261	73.73	-0.2491	0.0431	0.2921	961.0215	0.151372	-347.757792	-347.749087	-347.748143	-347.790559	32.495	
C	-0.4833563126	 1.3850957062	 0.0213350072	-0.415741
C	 0.2224703997	 0.0506782241	-0.0636131068	 0.138116
O	 1.5338570913	 0.1350320975	-0.6647527455	-0.292759
C	 2.0760540483	-0.7906044297	 0.2918912663	-0.103975
C	 0.8277506281	-0.6419071966	 1.2118437038	 0.068247
C	 1.0834364753	 0.292901769	 2.4011923397	-0.453175
C	 0.173578221	-1.868903831	 1.6294392281	 0.272387
C	-0.3750502022	-2.8834741572	 1.9707115756	-0.460012
H	 0.101049289	 2.1218675819	 0.5770461587	 0.122971
H	-0.6475813927	 1.7737853693	-0.988785541	 0.13223
H	-1.4603829058	 1.2694524241	 0.5021814327	 0.124042
H	-0.4011411328	-0.6672563483	-0.6153502984	 0.077247
H	 2.1983159085	-1.7975784557	-0.1260925186	 0.105435
H	 3.0279053287	-0.4454633703	 0.7104838425	 0.105982
H	 1.6180328562	 1.1897831403	 2.0767673594	 0.127852
H	 0.1467633981	 0.5958353434	 2.8774127842	 0.127957
H	 1.693826856	-0.217449497	 3.1518398933	 0.128227
H	-0.8567792242	-3.78112891	 2.2702778588	 0.194968
88.9401	143.5463	175.1634	207.6831	240.3195	289.9365	333.6521	351.2445	477.393	525.2396	539.0913	598.1031	625.8717	632.2278	764.8887	875.7067	893.6826	932.1046	956.2649	1028.3212	1034.0056	1100.268	1117.7859	1158.703	1169.3683	1215.857	1243.4862	1297.0471	1351.4288	1387.9385	1409.5395	1410.3168	1478.3817	1487.0945	1498.2131	1502.3586	1523.0051	2231.8591	2997.8389	3017.7242	3040.281	3044.0161	3071.3917	3108.157	3116.1043	3121.0973	3130.0745	3501.7929
CC1OCC1(C)C#C	C[C@H]1OC[C@]1(C)C#C	
InChI=1S/C7H10O/c1-4-7(3)5-8-6(7)2/h1,6H,5H2,2-3H3	InChI=1S/C7H10O/c1-4-7(3)5-8-6(7)2/h1,6H,5H2,2-3H3/t6-,7+/m1/s1
