23
gdb 57536	3.31779	0.87912	0.82987	2.8581	81.5	-0.2386	0.0573	0.2958	1508.2236	0.203418	-425.409444	-425.399046	-425.398101	-425.445073	38.507	
C	 0.002964931	 1.5692073072	 0.2004572653	-0.415348
C	 0.0206566775	 0.0396691664	 0.0628281251	 0.339363
C	 0.737951216	-0.5983564306	 1.2611203096	-0.414168
O	-1.3242586713	-0.4545428303	-0.0092811993	-0.459589
C	 0.682601317	-0.4226228021	-1.2490873498	-0.209788
C	 0.0330956114	 0.1004731851	-2.5252525516	-0.026807
C	 0.4566845475	 1.4770132228	-3.0939319831	-0.084168
O	 0.8003996845	 0.8993862992	-4.3679719423	-0.274945
C	 0.5802604151	-0.4351209829	-3.8679577526	-0.093721
H	 1.0151935818	 1.9857426865	 0.1870918178	 0.116837
H	-0.5741192432	 2.0273188259	-0.6066451621	 0.129109
H	-0.4596450799	 1.8610864628	 1.150924375	 0.101878
H	 0.2475522028	-0.3148918197	 2.19988426	 0.10111
H	 0.7149824566	-1.6888356801	 1.1812950851	 0.121827
H	 1.7822863532	-0.2749011201	 1.321788631	 0.114217
H	-1.7926403971	-0.1529908025	 0.7761583324	 0.275583
H	 1.7453282416	-0.1495428097	-1.2300311938	 0.092246
H	 0.6389696778	-1.5190674203	-1.2615876181	 0.104034
H	-1.0504352846	-0.002788644	-2.4483451076	 0.101155
H	-0.3260317889	 2.2398033437	-3.1869932436	 0.099646
H	 1.331077614	 1.9272740348	-2.6019075743	 0.090233
H	 1.5202531984	-1.0001562617	-3.7839154406	 0.090469
H	-0.1170379911	-1.0016784802	-4.4964875325	 0.100826
55.5601	81.4836	103.4945	163.3675	229.4407	265.4063	274.7627	281.2814	303.0107	342.757	401.0361	412.2528	464.0514	521.8643	750.3673	769.1587	859.7961	878.5878	898.978	917.249	929.959	962.2408	992.3387	999.0889	1038.126	1047.9565	1083.1846	1131.2084	1159.1252	1162.4221	1167.5472	1194.6928	1216.546	1278.1377	1286.2694	1310.2345	1343.8423	1364.8837	1386.4768	1396.5475	1405.0077	1416.1277	1467.0562	1480.4462	1486.0093	1500.9441	1507.802	1512.9074	1538.6217	2987.2227	2998.3898	3019.3504	3024.6056	3032.0849	3042.8556	3047.6298	3059.2439	3088.9776	3096.4261	3106.1184	3114.9956	3122.8649	3809.6959
CC(C)(O)CC1COC1	CC(C)(O)CC1COC1	
InChI=1S/C7H14O2/c1-7(2,8)3-6-4-9-5-6/h6,8H,3-5H2,1-2H3	InChI=1S/C7H14O2/c1-7(2,8)3-6-4-9-5-6/h6,8H,3-5H2,1-2H3
