13
gdb 25302	3.2492	1.31335	0.9353	1.6865	67.18	-0.2526	-0.0988	0.1538	1136.6693	0.089	-456.608265	-456.600785	-456.599841	-456.640999	26.596	
O	-0.8589543253	 1.2983762141	 0.1907137987	-0.238519
C	 0.2605054413	 0.9587154189	-0.0900760175	 0.092776
C	 1.469897057	 1.8948616653	-0.234136646	 0.191311
O	 2.5302868902	 1.3718975054	-0.5246280938	-0.305302
C	 1.306091823	 3.3284068774	-0.0239965103	 0.141971
C	 0.1728258394	 4.0299026196	 0.3039851393	-0.069615
O	 0.4472242488	 5.340882897	 0.4055714846	-0.139225
C	 1.7832078993	 5.5016545183	 0.1396638685	 0.015893
C	 2.3578230663	 4.3092631826	-0.1288984672	-0.282289
H	 0.547181774	-0.0967909732	-0.2803734361	 0.114923
H	-0.8436077868	 3.7281104868	 0.4843151298	 0.183732
H	 2.1436005855	 6.5153315621	 0.1865160615	 0.152191
H	 3.3881884971	 4.1105505057	-0.3734135417	 0.142153
75.494	132.5666	173.8152	182.67	264.7205	439.3247	547.8156	561.0692	622.2473	666.837	687.2877	765.5408	849.6496	877.4246	889.2912	959.2198	1022.7767	1028.0606	1093.6239	1124.6533	1202.0336	1250.6047	1339.3878	1372.1851	1406.1512	1546.8279	1595.8241	1751.893	1824.7376	2930.189	3274.5051	3297.1214	3310.7704
O=CC(=O)C1=COC=C1	O=CC(=O)c1cocc1	
InChI=1S/C6H4O3/c7-3-6(8)5-1-2-9-4-5/h1-4H	InChI=1S/C6H4O3/c7-3-6(8)5-1-2-9-4-5/h1-4H
