18
gdb 77283	1.99996	1.23345	0.91101	3.2307	76.41	-0.2503	-0.0298	0.2206	1329.2098	0.145131	-439.073073	-439.063377	-439.062433	-439.108772	33.675	
C	-0.1973480474	 1.591065151	-0.0864748646	-0.414802
C	-0.0631602544	 0.0836552176	-0.0166082847	-0.073942
C	 1.1841320724	-0.6111808539	-0.41975003	 0.078122
O	 2.2456159418	 0.2051263276	-0.8338222431	-0.186391
C	 3.4866658	-0.3366682873	-0.749425138	 0.128018
N	 4.4812798185	 0.3368115684	-1.1269829705	-0.430181
C	 0.7807812674	-0.6294368462	 1.0580921238	-0.168128
C	 1.549526607	 0.1359877676	 2.0677972902	 0.154194
O	 1.6909237436	-0.235923184	 3.2089821216	-0.270346
H	 0.7654620219	 2.0956202496	 0.0020006595	 0.149928
H	-0.6281741222	 1.8772027578	-1.0510080902	 0.132037
H	-0.8604182116	 1.9600801532	 0.7015631179	 0.130473
H	-0.9762686697	-0.4544643612	-0.2546823139	 0.110837
H	 1.1191153611	-1.554827328	-0.9568363575	 0.117382
H	 3.4905794085	-1.3548915554	-0.340156276	 0.100061
H	 5.3360286996	-0.2019250568	-1.0035765619	 0.236765
H	 0.3933111082	-1.5670035553	 1.4429539045	 0.110897
H	 2.0022802452	 1.0852415954	 1.7168753029	 0.095075
52.3698	80.3702	99.5375	124.7304	180.7955	213.4921	223.3561	288.9712	417.6126	435.9888	499.5356	595.5432	644.6368	728.4336	827.2571	860.6807	918.3941	957.0466	982.4258	1025.7229	1045.9776	1053.0104	1085.0936	1102.0348	1149.2715	1176.5282	1190.0274	1252.5541	1279.9708	1332.2781	1367.8233	1414.8451	1419.164	1434.2061	1447.3404	1494.9358	1506.2297	1749.7941	1804.7454	2925.911	3041.6701	3048.5757	3108.0104	3127.5198	3139.9941	3155.2231	3173.5048	3521.8763
CC1C(OC=N)C1C=O	C[C@H]1[C@@H](O[CH][NH])[C@H]1C=O	
InChI=1S/C6H9NO2/c1-4-5(2-8)6(4)9-3-7/h2-7H,1H3	InChI=1S/C6H9NO2/c1-4-5(2-8)6(4)9-3-7/h2-7H,1H3/t4-,5+,6-/m1/s1
