21
gdb 82373	2.32837	1.90226	1.31501	1.8157	81.04	-0.2555	0.0819	0.3374	1049.2217	0.184672	-387.080141	-387.072318	-387.071374	-387.112029	31.764	
C	-1.0136155557	 1.0483371429	 0.0796494874	-0.385676
C	 0.088163359	-0.0213631373	 0.0060419011	-0.035443
C	 0.7316463148	-0.0769336219	-1.3747658301	-0.025285
C	 1.6375480562	 1.0208554865	-1.8884082916	-0.294294
C	 2.2098994776	-0.3362253137	-1.5504062976	-0.043506
C	 3.1077119944	-0.5411881377	-0.3413912703	-0.262751
C	 2.5173684982	-0.0956325417	 0.9771372581	 0.048977
O	 2.006498271	 1.2431783991	 1.0687914204	-0.262435
C	 1.0789518297	 0.1478870209	 1.140799576	 0.053803
H	-0.5860905253	 2.0469655177	-0.0481938247	 0.132308
H	-1.7589686036	 0.894636597	-0.7071163823	 0.110307
H	-1.5306984442	 1.0198274326	 1.0449700497	 0.107388
H	-0.3834318307	-1.0004502286	 0.1826319758	 0.075587
H	 0.0793972125	-0.5263132435	-2.1192311449	 0.078849
H	 1.5596876413	 1.2910818105	-2.9364353777	 0.099053
H	 1.8678116919	 1.8397340295	-1.2195058098	 0.138139
H	 2.4871056599	-0.95510297	-2.3990956696	 0.080004
H	 3.33892281	-1.6106144147	-0.2398636245	 0.10344
H	 4.0717064982	-0.0363513808	-0.4908222057	 0.111106
H	 3.0878168974	-0.4004770594	 1.8561763703	 0.086227
H	 0.6469293376	 0.0151480428	 2.1349140698	 0.084201
114.2261	211.175	238.0794	245.5281	318.5221	334.9317	409.5176	459.2004	502.5093	668.0375	682.4697	744.5935	756.8002	829.9986	844.2625	857.4719	884.0808	938.1708	962.8061	995.4972	1026.4858	1037.1312	1069.2599	1075.2972	1101.7455	1122.5484	1137.3404	1143.8386	1162.6852	1182.0456	1239.2806	1260.9356	1293.6187	1328.0463	1354.5927	1363.8502	1374.9595	1401.4179	1413.0945	1418.0655	1474.0331	1484.5957	1491.9825	1498.6084	1501.3425	2985.7867	3009.0299	3033.0651	3038.8269	3081.5797	3096.8411	3099.4534	3115.7874	3129.003	3134.8605	3144.6995	3238.0518
CC1C2CC2CC2OC12	C[C@H]1[C@H]2C[C@H]2C[C@H]2O[C@@H]12	
InChI=1S/C8H12O/c1-4-6-2-5(6)3-7-8(4)9-7/h4-8H,2-3H2,1H3	InChI=1S/C8H12O/c1-4-6-2-5(6)3-7-8(4)9-7/h4-8H,2-3H2,1H3/t4-,5-,6+,7+,8-/m0/s1
