17
gdb 43360	2.84301	1.72938	1.26786	1.8351	72.93	-0.2426	-0.0546	0.1879	985.4865	0.138691	-421.867216	-421.860199	-421.859255	-421.899009	27.307	
O	-0.0781389751	 0.0093419106	 0.2425044907	-0.332799
C	-0.0520262015	 1.2137568007	 0.1457020563	 0.375629
C	-1.2032929711	 2.1446872856	 0.2520473847	-0.179404
C	-0.7918578472	 3.4107794504	 0.128355961	-0.069663
C	 0.702855383	 3.5301088916	-0.1015947026	 0.056034
O	 1.3517370225	 4.2226023174	 0.9656247117	-0.259538
C	 1.7597611151	 3.248049954	 1.9241107401	-0.0915
C	 2.200224954	 2.033995746	 1.096123362	-0.226183
C	 1.2088308183	 2.0665473842	-0.0871738807	-0.169217
H	-2.2123929546	 1.795624482	 0.4336610236	 0.121586
H	-1.4159212997	 4.2945361483	 0.2059729683	 0.12408
H	 0.9255169914	 4.0812134262	-1.0209631389	 0.09388
H	 2.5570625214	 3.6916703714	 2.5249825717	 0.115337
H	 0.9272708627	 2.9844917644	 2.5944083245	 0.099148
H	 3.2219492186	 2.1752733022	 0.7335375676	 0.112364
H	 2.1566252711	 1.0911869204	 1.646337016	 0.125322
H	 1.6780772812	 1.7517535245	-1.0214417161	 0.104923
70.5585	179.3654	221.9096	293.0722	402.2511	494.303	541.8647	612.1989	702.6301	712.2085	785.8365	802.152	858.031	892.0929	908.2584	940.8365	954.923	995.7446	1016.1631	1045.2318	1075.3683	1092.4463	1110.4576	1170.6142	1202.5862	1220.0605	1261.6937	1272.7452	1298.1624	1340.6329	1341.2511	1360.802	1387.4844	1490.1922	1518.6514	1648.8241	1815.853	2989.2753	3055.385	3063.8262	3095.0981	3101.5991	3119.4117	3193.6124	3222.7662
O=C1C=CC2OCCC12	O=C1C=C[C@H]2OCC[C@@H]12	
InChI=1S/C7H8O2/c8-6-1-2-7-5(6)3-4-9-7/h1-2,5,7H,3-4H2	InChI=1S/C7H8O2/c8-6-1-2-7-5(6)3-4-9-7/h1-2,5,7H,3-4H2/t5-,7+/m0/s1
