27
gdb 118222	2.13325	0.86252	0.70791	1.0087	93.71	-0.2423	0.0809	0.3232	1815.6264	0.248389	-390.708728	-390.696495	-390.69555	-390.747185	44.038	
C	-0.0544099053	 1.6116281038	-0.1059217348	-0.380713
C	-0.0121182755	 0.0827095288	-0.0433259636	-0.168279
C	-1.4049221513	-0.5522073255	 0.0047226168	-0.16668
C	-1.3910385875	-2.081980883	 0.040224921	 0.131515
C	-2.7998118227	-2.6618033667	 0.200249133	-0.397926
O	-0.7991538359	-2.526317928	-1.1786513393	-0.274687
C	-0.1775903534	-3.8087725623	-1.1504481328	 0.152689
C	-0.2248144392	-4.3509827445	-2.5754557454	-0.386569
C	 1.2548926748	-3.7140440679	-0.6166043883	-0.384811
H	 0.9532162597	 2.037970214	-0.1405591421	 0.108861
H	-0.5914981648	 1.9563445647	-0.9967630546	 0.113559
H	-0.5636524158	 2.0335813107	 0.7682297274	 0.109308
H	 0.522317313	-0.3134025621	-0.9127199484	 0.111257
H	 0.5597812287	-0.23119109	 0.8406775833	 0.085677
H	-1.9500865683	-0.1888680342	 0.8855947277	 0.086872
H	-1.9844933674	-0.2376935183	-0.8736056148	 0.098382
H	-0.7706942558	-2.4069305403	 0.8916535517	 0.061305
H	-2.7852168673	-3.7558433484	 0.1933687675	 0.112918
H	-3.2480374624	-2.3402927136	 1.1461709503	 0.109785
H	-3.4409319946	-2.3251061036	-0.6206245346	 0.120302
H	-0.7544835491	-4.4827998904	-0.4979668463	 0.064563
H	 0.3107564472	-3.6776337648	-3.2525432642	 0.121592
H	 0.2406943124	-5.3397151176	-2.6322273123	 0.108942
H	-1.25884577	-4.429073022	-2.9214664993	 0.11754
H	 1.8596340837	-3.0751649565	-1.2682572197	 0.120361
H	 1.2789794457	-3.2912136674	 0.3921706969	 0.114759
H	 1.7193215113	-4.704949825	-0.5748817248	 0.109477
32.5482	61.425	74.3303	111.9797	167.6651	199.1463	212.5419	225.2298	246.7786	254.472	291.0493	332.652	388.6671	415.1322	460.0461	505.2864	519.1549	742.2634	802.0926	860.6144	869.4821	894.0345	924.3768	935.2655	944.8164	985.7959	1023.5293	1048.8782	1077.0558	1129.9243	1141.8788	1142.5538	1170.3064	1190.0219	1209.9527	1268.9248	1295.6566	1326.0544	1355.6691	1359.8848	1366.7723	1395.5165	1399.2235	1406.5995	1410.4814	1413.7925	1416.6762	1472.394	1479.0132	1483.9007	1490.1534	1493.15	1494.0233	1496.2294	1500.0344	1507.8948	1511.2293	2964.3642	2979.0884	3011.4409	3018.233	3026.9882	3033.5841	3035.5688	3040.4163	3052.325	3073.8985	3096.9653	3099.2634	3103.7635	3105.8152	3108.7495	3111.0135	3114.0387	3120.516
CCCC(C)OC(C)C	CCC[C@@H](C)OC(C)C	
InChI=1S/C8H18O/c1-5-6-8(4)9-7(2)3/h7-8H,5-6H2,1-4H3	InChI=1S/C8H18O/c1-5-6-8(4)9-7(2)3/h7-8H,5-6H2,1-4H3/t8-/m1/s1
