20
gdb 105954	3.04181	1.46107	1.16675	2.0755	81.69	-0.204	0.0705	0.2745	1134.6215	0.169674	-365.902537	-365.894013	-365.893069	-365.93559	32.803	
C	-0.0007085941	 1.5956745987	 0.0273382325	-0.382189
C	-0.0083238607	 0.0626006228	 0.0759478571	-0.326968
C	-1.3845241255	-0.5255406828	 0.0421447337	 0.312384
C	-2.6750075713	-0.1056905017	 0.7703743217	-0.17653
C	-2.6273528287	-0.1700024961	-0.7368013648	-0.070816
N	-3.1209175633	-1.6145502742	-0.7609978308	-0.223011
C	-3.1446531935	-1.5785072595	 0.7499474102	-0.11353
C	-1.9043085387	-2.0008327257	 0.0443313147	 0.281556
C	-1.223397549	-3.3191733895	-0.0984226137	-0.525887
H	 1.0233970883	 1.9790080267	 0.0443799993	 0.117306
H	-0.4806107831	 1.9659465336	-0.8845048386	 0.12225
H	-0.5314798001	 2.0227551656	 0.8843269529	 0.120621
H	 0.5728666456	-0.3292706343	-0.7700747378	 0.104578
H	 0.5105837411	-0.2754624312	 0.9834659649	 0.102115
H	-2.8473642735	 0.7237048167	 1.4416817402	 0.091802
H	-2.8316806689	 0.5644791024	-1.5065889666	 0.094337
H	-3.8706313364	-2.1388381301	 1.3286276477	 0.090243
H	-1.9705677619	-4.117000267	-0.1583134506	 0.134954
H	-0.6179441424	-3.3572087815	-1.011029163	 0.125812
H	-0.568477624	-3.5253010729	 0.7555061608	 0.120973
76.405	138.7909	181.9791	207.3556	246.5225	252.1598	313.2429	423.6913	573.747	639.1803	655.1916	743.2331	768.5354	793.6251	811.6946	858.0055	875.7294	897.2674	912.1137	945.8291	973.7515	992.4287	1006.6676	1025.5527	1063.8833	1089.874	1121.1756	1131.402	1181.7758	1207.2972	1247.9024	1252.6826	1294.2416	1365.6189	1392.6345	1406.7076	1424.779	1444.1971	1478.4737	1489.6675	1491.966	1498.9672	1509.6235	3004.8501	3026.2224	3031.4537	3037.3707	3089.0502	3104.6962	3105.3531	3111.4437	3169.1801	3178.7134	3214.3846
CCC12C3C1N1C3C21C	CC[C@@]12[C@H]3[C@@H]1N1[C@H]3[C@]21C	
InChI=1S/C8H11N/c1-3-8-4-5-7(8,2)9(5)6(4)8/h4-6H,3H2,1-2H3	InChI=1S/C8H11N/c1-3-8-4-5-7(8,2)9(5)6(4)8/h4-6H,3H2,1-2H3/t4-,5-,6+,7-,8-,9?/m1/s1
