19
gdb 127580	2.08016	1.67584	0.9923	1.577	79.69	-0.2288	0.0117	0.2405	1211.0001	0.159632	-419.230461	-419.220858	-419.219914	-419.265526	33.974	
C	-0.1069415539	 1.3966008346	 0.0830954134	-0.339366
N	-0.0677843482	-0.0527471883	 0.0973248908	-0.004855
N	-0.0767641232	-0.7333438892	-1.0619415615	-0.270274
C	 0.0069059378	-2.0124987688	-0.7055962807	-0.071798
C	 0.0672154813	-2.174336529	 0.6949648402	 0.098809
C	 0.1761039155	-3.457346458	 1.4626589296	-0.509578
C	 0.020743946	-0.8746407763	 1.1842133317	 0.238165
C	 0.019990716	-0.3555318066	 2.5859990716	-0.185424
O	-1.163865072	 0.3711002337	 2.92206521	-0.408511
H	 0.9017047431	 1.8217097525	 0.1433495918	 0.133978
H	-0.5640516848	 1.7080548696	-0.8560349714	 0.154405
H	-0.6996795839	 1.7488488315	 0.9285387686	 0.160657
H	 0.0086646336	-2.7811266858	-1.4657222651	 0.105856
H	 1.2154374576	-3.7948225847	 1.5574182508	 0.132051
H	-0.2256976546	-3.3642952865	 2.4763793791	 0.119947
H	-0.377154352	-4.2595378868	 0.9643761103	 0.129604
H	 0.1800005878	-1.1962833181	 3.2745398026	 0.10809
H	 0.8404671232	 0.3519286036	 2.7505001053	 0.122898
H	-1.9151013893	-0.1914392174	 2.7041734029	 0.285347
48.5393	95.817	128.5411	135.315	185.0849	253.7398	272.8454	289.8677	363.1042	409.3277	487.8755	587.4475	666.2661	679.4669	755.3907	779.3213	868.8584	940.7686	1000.862	1029.0877	1040.1848	1061.9688	1109.4593	1153.2808	1214.4255	1215.2552	1226.3235	1341.6922	1356.4788	1387.7154	1414.7098	1422.8815	1429.2199	1459.2311	1479.9422	1484.9862	1495.9376	1502.3205	1510.5053	1523.8762	1608.751	3015.483	3026.2621	3035.8542	3063.6361	3079.614	3103.3857	3120.5025	3166.9101	3235.0885	3806.7283
CN1N=CC(C)=C1CO	Cn1ncc(C)c1CO	
InChI=1S/C6H10N2O/c1-5-3-7-8(2)6(5)4-9/h3,9H,4H2,1-2H3	InChI=1S/C6H10N2O/c1-5-3-7-8(2)6(5)4-9/h3,9H,4H2,1-2H3
