15
gdb 33294	5.863	0.74614	0.70767	2.0935	94.12	-0.2266	-0.0324	0.1942	1558.6537	0.110841	-383.388111	-383.379965	-383.379021	-383.421164	30.714	
C	 0.0282910174	-3.7356514831	 0.0091294579	-0.588419
C	 0.033168514	-2.527381767	 0.0107005489	 0.273119
C	 0.0364166331	-1.1696291751	 0.0133128457	-0.110283
C	 0.0569167996	 0.0428211081	 0.0063136361	 0.354712
C	 0.0521481205	 1.4563240977	 0.0041846157	 0.184245
C	 0.2613086657	 2.3402280809	-1.2002935519	-0.331909
C	 1.1739017182	 2.5019540085	-0.0132871405	-0.176601
C	 0.4051116013	 3.1405293133	 1.1340733373	-0.095628
O	-0.6755747592	 2.1752479008	 1.0138337925	-0.313925
H	 0.0260633585	-4.7973200605	 0.0071431882	 0.193208
H	 0.7089221771	 1.8543112651	-2.0604129037	 0.134629
H	-0.4996645033	 3.0837841605	-1.4212245823	 0.126914
H	 2.242881279	 2.3497746839	-0.0622288724	 0.119113
H	 0.9017047549	 3.0386183787	 2.1048610857	 0.119749
H	 0.0568374131	 4.1705635583	 0.9976138629	 0.111075
79.6384	87.4071	207.1045	236.3981	338.258	382.952	440.7897	483.5661	497.2262	542.9269	563.8774	587.0962	619.4384	749.5136	819.8569	833.386	918.8472	969.2403	973.8845	1000.0086	1011.839	1060.8255	1077.5403	1119.178	1148.8789	1183.8146	1301.022	1339.8074	1393.6782	1470.4728	1518.9238	2179.3765	2341.4468	3031.4002	3082.2517	3119.9253	3214.0843	3223.5707	3504.2552
C#CC#CC12CC1CO2	C#CC#C[C@]12C[C@H]1CO2	
InChI=1S/C8H6O/c1-2-3-4-8-5-7(8)6-9-8/h1,7H,5-6H2	InChI=1S/C8H6O/c1-2-3-4-8-5-7(8)6-9-8/h1,7H,5-6H2/t7-,8-/m0/s1
