18
gdb 37103	3.68523	1.6443	1.55122	1.65	79.18	-0.1923	0.0165	0.2087	918.5409	0.149892	-364.721107	-364.714594	-364.71365	-364.751422	28.118	
C	 0.0271305512	 1.4277360954	-0.073703408	-0.368986
C	 1.3416547262	 0.7100287766	 0.02266889	 0.237043
C	 2.008333598	 0.4476703799	 1.3665515333	-0.35054
C	 0.9995212706	-0.4414685192	 2.0855809697	-0.057716
C	-0.0562304414	-0.7514089723	 1.3203073079	-0.16725
C	 0.0111392067	-0.0834503935	-0.0020552074	 0.20801
C	 0.4785633829	-0.7766761314	-1.3189726203	-0.115315
N	 0.7324442933	 0.2761358344	-2.3326685654	-0.335353
C	 1.7489752794	-0.0194322579	-1.2912716471	-0.113034
H	-0.3046225355	 1.9305044435	 0.8284950465	 0.11174
H	-0.2390683906	 1.9121224535	-1.0043259666	 0.144012
H	 2.9753004935	-0.0602180002	 1.2482219156	 0.105588
H	 2.2198400428	 1.3670515302	 1.9281143323	 0.111503
H	 1.1249497257	-0.7421130831	 3.1221015908	 0.08999
H	-0.8765642072	-1.390037681	 1.6329604604	 0.090966
H	 0.256597737	-1.7954808587	-1.6106058991	 0.090603
H	 1.0345042496	-0.1986321472	-3.1829905553	 0.230014
H	 2.7586010777	-0.3060654391	-1.5605518275	 0.088725
207.335	257.0427	316.0203	406.9876	466.4599	501.1123	549.3563	623.0224	701.1048	745.0248	775.6317	801.0765	829.6891	852.4068	859.0758	901.7007	911.3181	921.1647	939.414	949.8849	974.7592	1001.0923	1069.6394	1102.3615	1107.9349	1113.4842	1129.4606	1165.1664	1223.8421	1226.5883	1271.9227	1291.1827	1320.9892	1340.432	1368.0691	1377.5851	1450.191	1479.2038	1643.9836	3010.6948	3036.7643	3142.2402	3162.5376	3176.5576	3187.3194	3193.7391	3238.0928	3474.2614
C1C23CC=CC12C1NC31	C1[C@@]23CC=C[C@@]12[C@H]1N[C@@H]31	
InChI=1S/C8H9N/c1-2-7-4-8(7,3-1)6-5(7)9-6/h1-2,5-6,9H,3-4H2	InChI=1S/C8H9N/c1-2-7-4-8(7,3-1)6-5(7)9-6/h1-2,5-6,9H,3-4H2/t5-,6+,7-,8+/m0/s1
