18
gdb 125140	2.9043	1.33791	0.99329	3.2758	80.69	-0.2295	-0.0029	0.2266	1213.1166	0.148016	-401.942419	-401.934007	-401.933062	-401.976494	30.737	
C	 0.206773704	 1.5468733876	 0.1111725515	-0.515601
C	 0.0510619383	 0.0611962244	 0.0180907363	 0.035528
C	-0.1290924449	-0.7268167452	-1.0848354009	 0.38937
O	-0.2239390666	-2.021084168	-0.7142779979	-0.233464
N	-0.1056924921	-2.118567091	 0.672750228	-0.15057
C	 0.054665602	-0.886572006	 1.0815844761	-0.022831
C	-0.2315819948	-0.4323700468	-2.517684008	-0.116748
C	 0.3343345103	-1.3967716993	-3.5457946645	-0.261153
C	-1.1510051383	-1.2492284401	-3.4091871627	-0.261177
H	 1.1562832784	 1.8238622629	 0.5826364976	 0.13534
H	 0.1843682102	 2.0131687697	-0.8772541504	 0.129608
H	-0.5939904472	 2.0006950162	 0.7058771752	 0.135488
H	 0.1711212677	-0.7000681586	 2.1411174528	 0.126006
H	-0.1480128578	 0.6236183225	-2.747051747	 0.094688
H	 0.824632865	-0.9678054666	-4.4122920441	 0.118977
H	 0.7883640719	-2.3039489731	-3.1651474485	 0.138769
H	-1.6969332688	-2.0570610523	-2.9365626388	 0.138788
H	-1.696493937	-0.7173636462	-4.1804088447	 0.118982
52.69	62.2459	162.3519	165.4724	262.7157	269.1846	401.4799	465.0398	601.4737	645.5166	695.0039	721.9807	795.9695	823.6123	908.7538	909.8661	911.4463	927.7002	958.8536	1003.9497	1065.4485	1066.8849	1074.2093	1089.63	1123.8781	1145.0774	1204.9256	1204.9613	1221.1088	1285.6194	1377.891	1404.8558	1430.2726	1463.9653	1483.6289	1493.8902	1499.325	1527.6422	1672.7095	3031.5668	3081.2769	3113.6759	3141.7759	3144.8159	3176.8616	3227.2456	3230.9741	3242.0596
CC1=C(ON=C1)C1CC1	Cc1c(onc1)C1CC1	
InChI=1S/C7H9NO/c1-5-4-8-9-7(5)6-2-3-6/h4,6H,2-3H2,1H3	InChI=1S/C7H9NO/c1-5-4-8-9-7(5)6-2-3-6/h4,6H,2-3H2,1H3
