20
gdb 65521	3.72802	1.18135	1.14632	2.5747	78.86	-0.2364	0.0763	0.3127	1163.019	0.171681	-403.088124	-403.080039	-403.079095	-403.120641	32.57	
O	 0.121417804	 1.3623528408	 0.0682028112	-0.490911
C	 0.092964192	-0.0410361386	 0.0370377414	 0.425248
C	 0.2652528261	-0.7687991976	 1.4408351747	-0.29288
C	-1.1673513379	-1.2785963494	 1.3028017681	-0.034986
N	-2.0194718523	-0.0682373503	 1.1530591505	-0.364507
C	-1.3308700148	-0.642992394	-0.0303150091	-0.110603
C	 1.0315227297	-0.5397702909	-1.031220695	-0.031377
C	 1.2023464339	 0.2251910488	-2.3193546259	-0.275643
C	 2.3254562872	 0.180026083	-1.3113948179	-0.275157
H	-0.6266219355	 1.6155836434	 0.6276296211	 0.289113
H	 1.0167437421	-1.5606816785	 1.4032624632	 0.105028
H	 0.4583320169	-0.1100576676	 2.2909586773	 0.102244
H	-1.5914693073	-2.2006051639	 1.6799301933	 0.09363
H	-2.9920107638	-0.3695029918	 1.1197117401	 0.232597
H	-1.888326652	-0.9500889324	-0.9074354546	 0.09004
H	 1.0525082229	-1.6235983923	-1.1053246678	 0.076714
H	 1.3077366879	-0.3390809846	-3.2394755171	 0.101859
H	 0.6631147949	 1.1600867429	-2.4109711905	 0.126773
H	 2.5178506442	 1.0854755294	-0.7487993557	 0.129978
H	 3.2028169917	-0.4156581865	-1.5378784573	 0.102838
80.5635	146.5515	181.6461	266.1037	338.8473	354.1786	434.6671	475.239	521.8551	579.6594	680.4973	746.7673	797.0877	815.5219	826.1294	840.6868	873.1836	914.7976	936.2205	950.7082	981.6808	999.2278	1028.5455	1056.688	1062.0616	1069.1488	1087.1419	1101.0974	1119.7967	1139.0252	1148.2762	1203.9014	1210.9467	1226.891	1252.4856	1290.6461	1314.4531	1361.6788	1371.0304	1456.9322	1461.2176	1471.7056	1503.2283	3064.1325	3124.9253	3137.9131	3139.0725	3146.1361	3181.1505	3198.3714	3225.1846	3238.6484	3486.8386	3738.2978
OC1(CC2NC12)C1CC1	O[C@]1(C[C@H]2N[C@@H]12)C1CC1	
InChI=1S/C7H11NO/c9-7(4-1-2-4)3-5-6(7)8-5/h4-6,8-9H,1-3H2	InChI=1S/C7H11NO/c9-7(4-1-2-4)3-5-6(7)8-5/h4-6,8-9H,1-3H2/t5-,6-,7-/m1/s1
