20
gdb 86823	4.2498	0.72359	0.71607	2.9231	76.02	-0.2433	0.0343	0.2776	1629.7719	0.169562	-440.309517	-440.299273	-440.298329	-440.34737	36.177	
N	 0.0205938857	 1.1588280318	 0.4701016613	-0.523861
C	 0.1676401742	-0.1294754142	 0.0432769998	 0.420038
O	 1.2591433978	-0.6209475328	-0.1719246989	-0.363563
C	-1.1411839809	-0.8924258382	-0.1688732255	-0.346341
C	-0.967788653	-2.3915322607	 0.0199416962	 0.066691
C	-0.825954062	-2.9580273224	 1.4614343457	-0.247179
C	-1.6837881818	-4.1611935416	 1.025378565	 0.146915
O	-2.6018356	-4.5963247191	 2.0016998704	-0.43244
C	-2.1994204676	-3.3180793933	-0.1753778643	-0.301611
H	 0.8466474383	 1.7219844374	 0.588419295	 0.259133
H	-0.8778247259	 1.5672158945	 0.6555754993	 0.256863
H	-1.9250976099	-0.5058416629	 0.4945238163	 0.094452
H	-1.4727800975	-0.6823008761	-1.1957377501	 0.126512
H	-0.1261033367	-2.7210348638	-0.5934744798	 0.097638
H	 0.1759699811	-3.1454556177	 1.8506376765	 0.109536
H	-1.388847136	-2.3570296449	 2.1838758865	 0.101884
H	-1.0511968456	-4.990140485	 0.676531622	 0.067458
H	-3.0786887503	-5.3555909763	 1.6517388415	 0.280194
H	-3.1294141138	-2.8131530305	 0.1074764308	 0.097364
H	-2.3336262058	-3.8078035141	-1.1437578478	 0.090317
16.2246	46.6213	56.9148	87.296	155.3151	259.2515	300.7284	344.259	397.7995	418.7878	464.3635	512.0895	573.8275	630.4126	681.7852	799.2571	813.8463	853.2613	884.5952	937.2603	957.7482	1025.1243	1047.9587	1069.3836	1082.1609	1116.9125	1157.7572	1184.315	1216.919	1244.204	1250.0541	1265.13	1275.8299	1293.337	1331.6056	1362.0343	1408.668	1432.1378	1460.2719	1470.2563	1500.8496	1614.1233	1794.5368	2994.1348	3012.311	3043.2518	3050.6169	3053.8783	3086.2473	3105.5273	3124.485	3604.5999	3743.5626	3815.4901
NC(=O)CC1CC(O)C1	NC(=O)C[C@H]1C[C@@H](O)C1	
InChI=1S/C6H11NO2/c7-6(9)3-4-1-5(8)2-4/h4-5,8H,1-3H2,(H2,7,9)	InChI=1S/C6H11NO2/c7-6(9)3-4-1-5(8)2-4/h4-5,8H,1-3H2,(H2,7,9)/t4-,5+
