22
gdb 11394	4.9056	1.13538	1.00602	0.1799	84.43	-0.2341	0.0273	0.2614	1267.037	0.200728	-313.094593	-313.085828	-313.084883	-313.127936	33.204	
C	 0.0945576269	 1.5990472285	-0.0884155114	-0.386618
C	 0.0265944528	 0.0708431376	-0.0126498969	-0.176438
C	-1.4015173514	-0.492010134	 0.0765083793	-0.005507
C	-1.4610406851	-2.0415394688	 0.0122796949	-0.240733
C	-2.6249912045	-2.4785061921	 0.9402823194	-0.009933
C	-2.3703889666	-3.7914654018	 1.6887518624	-0.395073
C	-2.7878745244	-1.2659979895	 1.8324413971	-0.07247
C	-2.1345059645	-0.2017985528	 1.3709591218	-0.077103
H	 1.1295483192	 1.9447835643	-0.1740704274	 0.111147
H	-0.4546059165	 1.9764135605	-0.9584712166	 0.113114
H	-0.3354405764	 2.0692654898	 0.802119789	 0.116682
H	 0.5132403104	-0.3551293952	-0.8998828803	 0.092382
H	 0.6016337158	-0.2850442638	 0.8523986742	 0.093212
H	-1.9766875794	-0.0624509711	-0.7603562655	 0.070603
H	-1.565353282	-2.4194431926	-1.0088349579	 0.090983
H	-0.52183462	-2.4462123701	 0.4113239547	 0.094069
H	-3.5444713086	-2.6053252701	 0.3470016352	 0.075026
H	-1.4717468259	-3.7171979782	 2.3112279101	 0.113763
H	-3.2113836765	-4.0473505229	 2.3424321847	 0.109411
H	-2.2281826251	-4.6225768867	 0.9895910282	 0.111241
H	-3.4058854017	-1.2843713845	 2.724982246	 0.084457
H	-2.1440108165	 0.7810304834	 1.830194259	 0.087785
57.7707	108.1615	194.1426	219.6544	237.9209	262.9829	305.3317	382.6865	424.3429	553.9024	580.1251	722.6296	764.4602	791.8768	849.5419	853.6683	915.6329	927.1793	961.2962	975.5312	998.4332	1035.0237	1069.9449	1080.7901	1116.8163	1132.1726	1153.9393	1173.8385	1209.9066	1273.6515	1281.4552	1308.725	1323.4926	1334.5723	1353.6097	1375.8159	1391.9617	1410.5059	1413.6864	1484.79	1488.3653	1497.4539	1499.5798	1501.5478	1507.2519	1683.5758	2961.3004	2971.7468	3012.8661	3024.2708	3028.1455	3031.2134	3047.2845	3085.8777	3094.5457	3096.5518	3097.1426	3101.7321	3169.4394	3197.4281
CCC1CC(C)C=C1	CC[C@H]1C[C@@H](C)C=C1	
InChI=1S/C8H14/c1-3-8-5-4-7(2)6-8/h4-5,7-8H,3,6H2,1-2H3	InChI=1S/C8H14/c1-3-8-5-4-7(2)6-8/h4-5,7-8H,3,6H2,1-2H3/t7-,8+/m0/s1
