20
gdb 95025	2.88219	1.52329	1.20917	2.2843	76.8	-0.2274	0.0609	0.2883	1074.1011	0.173373	-403.102384	-403.094873	-403.093929	-403.134129	30.741	
O	 0.0087118801	 1.4177988365	-0.0801635245	-0.442581
C	 0.0826788835	 0.0010124368	-0.0124119114	 0.101937
C	 0.6653079819	-0.5314158248	 1.3229362158	-0.235563
C	 0.0522805487	-1.9364580701	 1.5209129924	-0.253931
C	-1.3596545969	-1.8018775281	 0.9165276889	 0.037893
C	-1.3353186358	-0.5901775683	-0.0439300292	-0.01818
C	-1.7766601778	-1.5671083343	-1.1401303413	-0.044389
C	-0.8648090939	-2.7166385859	-1.2736832568	-0.247059
N	-1.8458930704	-2.7470960656	-0.1743182976	-0.155187
H	 0.9055626411	 1.7659740648	-0.0538474355	 0.28086
H	 0.6739029258	-0.3853034122	-0.8567867306	 0.064781
H	 1.7603891312	-0.5303334448	 1.3437837872	 0.089555
H	 0.3200247639	 0.144345317	 2.1148754226	 0.109264
H	 0.6349789084	-2.6974187795	 0.991868611	 0.110335
H	 0.0320656499	-2.2333531214	 2.5725489966	 0.104461
H	-2.1355891696	-1.7645369822	 1.6823622201	 0.084888
H	-2.067564402	 0.1893548244	 0.1696039338	 0.088896
H	-2.575241618	-1.3789085978	-1.8503719906	 0.094513
H	-1.0947439319	-3.4462983165	-2.0443793578	 0.12121
H	 0.1976664018	-2.619441378	-1.067956493	 0.108296
114.5881	167.2725	275.7303	309.1786	318.5249	403.7948	464.5792	521.3285	553.5943	610.2416	717.0541	759.4514	786.2192	818.359	849.0708	912.4206	938.7093	959.7089	981.6155	1007.8622	1036.6004	1059.0419	1072.3907	1092.3953	1100.0169	1115.0752	1150.8971	1164.5132	1189.4805	1218.7108	1232.4355	1245.1611	1273.2175	1307.5728	1310.1895	1321.4225	1345.2298	1354.4186	1368.9073	1440.2221	1485.8616	1496.3212	1513.9043	2980.1722	3033.3163	3054.3768	3079.3059	3088.0903	3103.0686	3110.7945	3116.0684	3161.5236	3195.5281	3816.6189
OC1CCC2C1C1CN21	O[C@H]1CC[C@H]2[C@@H]1[C@H]1CN21	
InChI=1S/C7H11NO/c9-6-2-1-4-7(6)5-3-8(4)5/h4-7,9H,1-3H2	InChI=1S/C7H11NO/c9-6-2-1-4-7(6)5-3-8(4)5/h4-7,9H,1-3H2/t4-,5+,6-,7+,8?/m0/s1
