17
gdb 14299	3.78304	1.80243	1.71312	1.1684	68.2	-0.2331	0.0236	0.2567	860.6213	0.142447	-363.872759	-363.865197	-363.864253	-363.904531	28.146	
C	-0.087534495	 1.5594710235	 0.0630989829	-0.41119
C	 0.0705401782	 0.0572288129	 0.0638458577	-0.055477
C	 1.3629572626	-0.6542843256	-0.2267485058	 0.033636
O	 2.5602669123	 0.0892264802	-0.0569958399	-0.240058
C	 2.6162893758	 0.4089727877	 1.2736431678	 0.384832
C	 3.7862672507	 1.2348456035	 1.6806741147	-0.479058
N	 1.6805245675	-0.0248409931	 2.0250313969	-0.296687
C	 0.7610384553	-0.7339080912	 1.1703375011	-0.051078
H	 0.7406418973	 2.0599993005	 0.5685245508	 0.130671
H	-0.138513033	 1.9451270959	-0.9605021949	 0.120093
H	-1.0083482692	 1.8470761204	 0.5803892029	 0.123092
H	-0.7813785096	-0.4816111256	-0.3452964948	 0.093637
H	 1.4613932683	-1.4455731042	-0.9593319241	 0.105844
H	 3.746863722	 2.2206255041	 1.2060042753	 0.145612
H	 3.7859120855	 1.3562397942	 2.763420569	 0.153687
H	 4.7171685873	 0.7567786897	 1.3604618673	 0.145345
H	 0.2764150543	-1.603900963	 1.597260163	 0.097098
121.1224	133.7903	152.4004	213.2701	293.0817	338.0699	508.9772	554.7305	643.71	694.7402	736.6407	762.4739	811.1228	889.504	926.6772	975.1559	1000.5744	1025.7107	1037.0299	1068.5329	1079.3803	1128.0542	1133.1621	1152.168	1215.8331	1250.8629	1331.9556	1356.0071	1413.0269	1414.654	1423.6201	1474.158	1478.3698	1490.6302	1499.3037	1708.813	3041.015	3049.2989	3099.3138	3105.6796	3123.9704	3138.8442	3164.6759	3176.7344	3190.2681
CC1C2OC(C)=NC12	C[C@H]1[C@H]2OC(=N[C@@H]12)C	
InChI=1S/C6H9NO/c1-3-5-6(3)8-4(2)7-5/h3,5-6H,1-2H3	InChI=1S/C6H9NO/c1-3-5-6(3)8-4(2)7-5/h3,5-6H,1-2H3/t3-,5+,6-/m1/s1
