20
gdb 57627	3.15099	0.9431	0.90456	3.7217	79.47	-0.2807	0.038	0.3187	1380.9774	0.168973	-403.14706	-403.137155	-403.13621	-403.182201	36.074	
C	 0.164858884	 1.5606972385	 0.0762812378	-0.412027
C	-0.0195620354	 0.0268809478	 0.0274467142	 0.075756
C	 0.6539139057	-0.6325419578	 1.2526783527	-0.402996
C	-1.5239883908	-0.3692124348	-0.0762285765	-0.233383
C	-2.3894191705	 0.1152308655	 1.0626379147	 0.072252
C	-3.5259613775	-0.6766001613	 1.5509905039	-0.182259
O	-2.3112166583	-0.6041094007	 2.2981671303	-0.229295
C	 0.6381824751	-0.4750342437	-1.1922964277	 0.266861
N	 1.1473339245	-0.870767882	-2.1518164532	-0.343495
H	 1.2263145575	 1.8189791648	 0.0445429221	 0.13762
H	-0.3292606524	 2.0485112272	-0.7687804811	 0.130143
H	-0.2512010873	 1.9609512347	 1.0044924169	 0.129259
H	 0.178709643	-0.2854138762	 2.1720816522	 0.147853
H	 0.560456588	-1.7207205391	 1.2129738481	 0.133393
H	 1.7171507029	-0.3800711794	 1.2855113125	 0.127711
H	-1.9281475867	 0.0327901247	-1.0132940155	 0.121401
H	-1.5966844887	-1.4598944462	-0.1364579918	 0.121445
H	-2.4507318224	 1.1962362891	 1.1912522384	 0.099645
H	-4.3821753908	-0.1747202503	 1.9987421699	 0.120033
H	-3.7385391196	-1.643906421	 1.097863332	 0.120085
42.8334	104.8108	132.6853	186.8778	210.306	248.8811	263.8002	323.1661	325.7359	368.2844	397.1335	485.2352	580.8011	584.5167	724.2155	794.3413	860.4037	887.2078	917.5463	947.8598	954.7567	997.0336	1039.2035	1079.4511	1094.4671	1159.142	1163.402	1189.0696	1219.6766	1227.135	1296.1342	1300.7696	1348.6394	1403.1241	1426.3668	1447.7342	1466.4593	1481.1454	1488.9273	1501.8051	1510.1428	1529.8448	2351.2185	3036.9367	3046.3125	3053.4675	3083.728	3086.467	3109.322	3122.4971	3125.2972	3126.9505	3143.3162	3174.0533
CC(C)(CC1CO1)C#N	CC(C)(C[C@H]1CO1)C#N	
InChI=1S/C7H11NO/c1-7(2,5-8)3-6-4-9-6/h6H,3-4H2,1-2H3	InChI=1S/C7H11NO/c1-7(2,5-8)3-6-4-9-6/h6H,3-4H2,1-2H3/t6-/m0/s1
