18
gdb 36236	4.60969	1.07205	0.97437	1.1467	80.11	-0.2396	0.0508	0.2904	1219.5117	0.147886	-364.70496	-364.69732	-364.696376	-364.737314	30.121	
C	 0.0720038845	-1.2023750135	 0.1086706134	-0.443219
C	 0.0443796664	-0.0066974516	-0.0123372972	 0.301705
C	 0.0440719434	 1.4454404239	-0.1522166954	-0.385285
C	 1.4429778128	 2.0572242997	 0.0142532346	 0.0018
C	 1.4050079194	 3.5819088973	 0.1406717267	-0.050028
C	 1.3480990355	 3.5194965572	 1.6209231498	-0.055728
C	 1.9621695194	 2.0697845658	 1.4804214129	-0.081523
C	 3.3057171784	 2.7994063573	 1.3391459743	-0.156734
N	 2.5725491943	 4.0564748158	 0.9638796002	-0.157452
H	 0.0832369148	-2.2590770739	 0.2114497676	 0.195551
H	-0.3588022108	 1.716875309	-1.1369555052	 0.130377
H	-0.6362072033	 1.8883770374	 0.5872899526	 0.131817
H	 2.1253881758	 1.6257707913	-0.7271650181	 0.078608
H	 0.9736662612	 4.3084438313	-0.5365297784	 0.097825
H	 0.7772788189	 4.0481654712	 2.3723810936	 0.098609
H	 1.8118865882	 1.2050759821	 2.1234761797	 0.085804
H	 3.8150001918	 2.9744943933	 2.2900224923	 0.109547
H	 4.0215790794	 2.4305500964	 0.5947422566	 0.098327
76.4229	110.7737	224.3035	283.0761	350.9878	413.0428	450.99	569.7444	619.7014	641.559	752.1283	758.0744	786.3883	800.6192	827.9242	925.3403	935.2528	948.5249	971.4378	977.1615	996.783	1002.7751	1053.6907	1074.8795	1093.0762	1151.3923	1164.5595	1172.2284	1201.896	1226.6857	1236.6318	1269.0448	1297.7584	1309.3136	1350.6303	1384.0904	1470.7908	1510.2842	2238.0603	3014.8555	3030.2676	3037.2114	3052.5662	3103.597	3140.4127	3192.2446	3209.3618	3505.968
C#CCC1C2C3C1CN23	C#CC[C@H]1[C@H]2[C@H]3[C@@H]1CN23	
InChI=1S/C8H9N/c1-2-3-5-6-4-9-7(5)8(6)9/h1,5-8H,3-4H2	InChI=1S/C8H9N/c1-2-3-5-6-4-9-7(5)8(6)9/h1,5-8H,3-4H2/t5-,6-,7+,8-,9?/m1/s1
