19
gdb 53978	2.93449	1.1028	1.01109	0.8415	72.	-0.2445	-0.0416	0.203	1254.5455	0.154202	-460.198777	-460.188405	-460.187461	-460.234438	37.235	
C	 0.2859393298	 1.44429969	 0.1888845673	-0.474134
C	-0.157265719	 0.005427465	 0.0692973343	 0.373925
O	-0.6295711091	-0.6175463972	 0.9937941638	-0.325616
C	-0.014576243	-0.6720192203	-1.3097434602	 0.247952
C	-1.4273162607	-0.7507307576	-1.9261930444	-0.432995
O	 0.8468232576	 0.1277875929	-2.1027274308	-0.480058
C	 0.5862066213	-2.078082121	-1.1005808276	-0.315359
C	 0.9288770782	-2.8146375039	-2.369681647	 0.149714
O	 0.9491821615	-2.3264715315	-3.4775246584	-0.258844
H	 1.3610215837	 1.514243726	-0.0033737662	 0.155575
H	-0.1942828926	 2.0592759973	-0.5782488341	 0.14843
H	 0.0498381703	 1.815793347	 1.1863866938	 0.132984
H	-1.8212565155	 0.2577781219	-2.0806905866	 0.127318
H	-1.3905360774	-1.2533267702	-2.8960121695	 0.133458
H	-2.1066943354	-1.2948335139	-1.2647867043	 0.133724
H	 0.9478337246	-0.3431983996	-2.942118444	 0.294055
H	 1.5263551668	-2.006194452	-0.5323111594	 0.140899
H	-0.0731901901	-2.6973645486	-0.4831126543	 0.147814
H	 1.2030155989	-3.8828092742	-2.2283333122	 0.101161
37.9814	98.7818	152.3689	153.3649	170.5673	235.123	243.7498	272.5504	310.0927	355.2812	406.7257	473.6061	543.5493	567.5332	595.5485	642.8248	701.9865	828.1504	843.8365	907.6983	964.9624	970.8908	1003.6451	1027.5993	1110.8677	1140.9704	1202.848	1216.1329	1262.2721	1330.4602	1378.5545	1391.5795	1411.6149	1425.076	1433.2897	1453.7657	1461.9757	1496.5351	1501.1199	1800.0075	1807.2957	2898.8197	3012.737	3046.3288	3050.8888	3083.8983	3113.583	3122.9887	3131.5122	3159.7682	3733.3971
CC(=O)C(C)(O)CC=O	CC(=O)[C@@](C)(O)CC=O	
InChI=1S/C6H10O3/c1-5(8)6(2,9)3-4-7/h4,9H,3H2,1-2H3	InChI=1S/C6H10O3/c1-5(8)6(2,9)3-4-7/h4,9H,3H2,1-2H3/t6-/m0/s1
