16
gdb 93164	2.28187	1.68734	1.39279	1.8071	65.35	-0.2466	-0.0375	0.2092	981.0202	0.124352	-475.025409	-475.017327	-475.016383	-475.058346	30.013	
O	-0.0345111382	 1.5205609037	 0.050700009	-0.439318
C	 0.0239712252	 0.1045493612	 0.0372913979	-0.001208
C	-1.3584509789	-0.5742471419	 0.1240536715	-0.192039
N	-2.3106202786	-0.4092950963	-0.9603376604	-0.212275
C	-2.100008397	 0.1821041676	-2.0468346232	 0.084407
O	-0.9548803317	 0.8075989522	-2.5090951794	-0.248048
C	 0.258725869	 0.0500602941	-2.5461185956	-0.185281
C	 0.7841202033	-0.4081394792	-1.1840373201	 0.354306
O	 1.7306591765	-1.1522945378	-1.1230156237	-0.295889
H	-0.509606624	 1.8052185994	-0.7404830031	 0.300168
H	 0.5988063212	-0.1887595058	 0.9204108919	 0.116096
H	-1.2146503156	-1.651471676	 0.2794418032	 0.135722
H	-1.8526427592	-0.2004326826	 1.0293155853	 0.138538
H	-2.912910246	 0.3144314026	-2.7603744493	 0.135299
H	 0.1370942658	-0.8353780376	-3.1817541469	 0.149503
H	 1.0030320281	 0.6997065564	-3.014410517	 0.160019
58.0493	136.4494	205.3638	229.2734	303.053	342.3721	420.3021	460.054	470.4343	499.4161	581.1609	649.2075	773.3043	802.8168	861.2458	933.1227	948.6843	960.1356	1010.1571	1032.7983	1097.8811	1122.3167	1212.5528	1268.1276	1274.1763	1282.4208	1319.3949	1361.8308	1384.008	1411.9208	1432.1764	1450.6143	1459.6395	1764.9869	1829.0213	3026.1659	3041.928	3060.0913	3083.9432	3108.7872	3143.8524	3770.8836
OC1CN=COCC1=O	O[C@H]1CN=COCC1=O	
InChI=1S/C5H7NO3/c7-4-1-6-3-9-2-5(4)8/h3-4,7H,1-2H2	InChI=1S/C5H7NO3/c7-4-1-6-3-9-2-5(4)8/h3-4,7H,1-2H2/t4-/m0/s1
