20
gdb 61288	3.89553	0.75945	0.73727	2.3746	82.43	-0.2289	-0.0173	0.2116	1595.2152	0.166364	-403.113131	-403.102258	-403.101314	-403.150301	38.072	
C	 0.3343528265	 1.350821152	-0.4922684863	-0.334232
N	-0.1666402934	 0.0910549545	 0.0486408403	-0.073124
C	 0.5160095594	-0.285492421	 1.2895821754	-0.302204
C	 1.9426959768	-0.5362145864	 1.0993558307	 0.294271
C	 3.1188139408	-0.7412470369	 0.9645206088	-0.418176
C	-1.6126804891	 0.1214682335	 0.2160300767	-0.235871
C	-2.3757617557	 0.060412247	-1.1148910643	 0.364039
C	-1.8934568206	-0.9546049349	-2.1315349394	-0.465663
O	-3.3425915182	 0.7614335811	-1.2998681197	-0.292908
H	 1.4100782156	 1.2750861894	-0.6643822113	 0.140016
H	-0.1536736209	 1.5645805454	-1.4476044087	 0.128095
H	 0.1459260455	 2.2066509795	 0.1822789377	 0.101313
H	 0.3915037915	 0.4812274756	 2.0800750803	 0.113377
H	 0.0438288845	-1.1993068905	 1.6701425888	 0.133302
H	 4.1571707479	-0.9281611776	 0.8430128702	 0.199905
H	-1.9149565255	-0.7683774827	 0.7855813892	 0.115925
H	-1.9781943471	 1.005304074	 0.7669814158	 0.103652
H	-1.9748648416	-1.9637053689	-1.7099076667	 0.137268
H	-2.4988547378	-0.8853168185	-3.0357179782	 0.136797
H	-0.8348560785	-0.8043950748	-2.357687529	 0.154217
36.2037	54.9271	85.9168	112.159	132.3285	203.2474	239.8472	306.9497	345.0037	360.7999	380.2416	412.5578	488.616	536.4452	611.7092	619.4244	667.4411	784.6101	858.959	877.4213	971.1081	1000.2535	1017.4169	1057.147	1066.26	1151.3551	1169.4464	1206.8405	1234.159	1290.2692	1308.316	1352.1216	1381.9618	1401.8173	1455.0921	1457.9202	1468.0808	1471.0657	1483.1676	1495.835	1505.3025	1817.7791	2241.4478	2905.6716	2939.9265	2959.5102	3033.0617	3042.5399	3043.7679	3077.3212	3110.8637	3128.9707	3159.9375	3504.873
CN(CC#C)CC(C)=O	CN(CC#C)CC(=O)C	
InChI=1S/C7H11NO/c1-4-5-8(3)6-7(2)9/h1H,5-6H2,2-3H3	InChI=1S/C7H11NO/c1-4-5-8(3)6-7(2)9/h1H,5-6H2,2-3H3
