21
gdb 52580	2.02698	1.06367	0.7268	0.7342	93.78	-0.2462	0.0405	0.2867	1618.992	0.178096	-349.904644	-349.893175	-349.892231	-349.9427	40.389	
C	-0.0335029216	 1.503419909	 0.0476664721	-0.500649
C	-0.0039493882	 0.0478431717	 0.0126536777	 0.106677
C	 0.0131277463	-1.1555107415	-0.0078096462	 0.055996
C	 0.0271316852	-2.6234833705	-0.041818003	-0.347274
C	-1.3434255884	-3.1426569668	 0.0504373394	 0.328453
C	-2.4646825974	-3.5694487317	 0.1173588334	-0.447721
C	 0.7812598463	-3.1836259992	-1.2959012387	 0.043868
C	 2.2093276344	-2.6322738381	-1.3617600537	-0.398287
C	 0.7831298821	-4.7160732603	-1.2944308366	-0.400987
H	 0.8246952705	 1.9067950117	 0.5963918052	 0.147658
H	-0.0102459422	 1.9268174127	-0.9624705607	 0.148292
H	-0.9425937199	 1.8682975091	 0.5382659773	 0.15107
H	 0.5796783128	-2.9815275924	 0.8416892869	 0.125419
H	-3.4577455283	-3.93997394	 0.1839206866	 0.194021
H	 0.2271461525	-2.8323961069	-2.1748408096	 0.090895
H	 2.7952189794	-2.9604933223	-0.4943644112	 0.110258
H	 2.7169484549	-2.9972361823	-2.2600378006	 0.110858
H	 2.2178338874	-1.5400958382	-1.3815612425	 0.128616
H	-0.2313428966	-5.1204886625	-1.2680940481	 0.131518
H	 1.2815114067	-5.0965602916	-2.1914149836	 0.110867
H	 1.3260811841	-5.10537107	-0.424357794	 0.110451
19.4723	58.3165	82.7882	117.8715	152.645	217.5922	235.9751	262.9791	274.6577	336.7201	357.5545	378.5847	413.2341	468.8468	519.6179	550.4375	627.1694	636.8738	789.0542	848.2842	916.4087	936.0114	964.8651	999.3557	1053.2387	1054.0514	1120.8815	1133.7551	1174.7875	1187.4688	1267.8184	1309.4313	1352.4802	1353.0838	1399.6083	1414.5357	1419.7884	1478.3033	1478.743	1488.388	1490.1974	1501.1172	1511.7922	2236.1331	2372.6244	2974.2622	3026.6672	3026.9873	3028.4125	3038.4348	3087.9232	3088.553	3090.9448	3098.4339	3123.9814	3124.4658	3502.5563
CC#CC(C#C)C(C)C	CC#C[C@@H](C#C)C(C)C	
InChI=1S/C9H12/c1-5-7-9(6-2)8(3)4/h2,8-9H,1,3-4H3	InChI=1S/C9H12/c1-5-7-9(6-2)8(3)4/h2,8-9H,1,3-4H3/t9-/m1/s1
