17
gdb 31871	4.6837	0.94811	0.80843	1.3378	79.57	-0.2174	-0.0034	0.214	1365.3047	0.137344	-421.889956	-421.881805	-421.88086	-421.923048	31.177	
O	 0.2748318771	 1.1332278923	-0.6692821169	-0.40875
C	 0.0340710891	 0.0310922463	 0.1943709176	-0.153795
C	-1.3946210708	-0.4668938081	 0.1532370929	 0.22581
C	-2.0325303916	-0.9349146414	 1.3045049144	-0.187399
C	-3.3339800366	-1.4203304192	 1.2654208249	-0.178847
C	-4.0298157025	-1.4346647049	 0.0560900707	 0.378785
O	-5.3060558505	-1.9135589431	 0.0665379156	-0.441741
C	-3.4111818115	-0.9604574626	-1.1026879479	-0.248553
C	-2.1057628328	-0.4847419022	-1.0490754081	-0.163358
H	-0.3565910324	 1.8224039779	-0.4361827573	 0.280651
H	 0.7247375956	-0.7491035081	-0.1487759237	 0.12171
H	 0.312127127	 0.2644231298	 1.234252681	 0.090021
H	-1.5025971357	-0.9200143152	 2.2530068891	 0.092002
H	-3.828804536	-1.7819700358	 2.1594879277	 0.10338
H	-5.6660217559	-1.8683219909	-0.8252957658	 0.296505
H	-3.9523949963	-0.9652650229	-2.0457156177	 0.084414
H	-1.6280328462	-0.1113075119	-1.9485452063	 0.109165
50.9749	127.2014	213.0245	297.716	367.5134	375.7293	382.2036	421.5595	429.3264	512.0917	568.5493	651.0903	720.6627	768.1717	828.0185	846.6773	857.2056	945.2222	949.2292	990.9782	1023.6182	1061.889	1125.3526	1188.0887	1197.9763	1204.5966	1229.0957	1300.5271	1316.1675	1365.0745	1382.0797	1417.8326	1470.7554	1503.2324	1547.1446	1632.9583	1656.9938	2979.6585	3044.5683	3151.623	3163.938	3193.1865	3200.6266	3804.8527	3822.2489
OCC1=CC=C(O)C=C1	OCc1ccc(O)cc1	
InChI=1S/C7H8O2/c8-5-6-1-3-7(9)4-2-6/h1-4,8-9H,5H2	InChI=1S/C7H8O2/c8-5-6-1-3-7(9)4-2-6/h1-4,8-9H,5H2
