15
gdb 27744	2.30955	1.46164	0.89589	5.2741	76.36	-0.1917	-0.0193	0.1724	1207.4068	0.11329	-453.998115	-453.989661	-453.988717	-454.030906	31.824	
N	 0.0512496945	 1.4179275073	-0.13729537	-0.60544
C	 0.033191937	 0.0334345091	-0.0637200692	 0.234365
C	-1.1000679618	-0.7909483228	-0.0183348904	 0.166807
N	-0.6340792911	-2.111728341	-0.0320801244	-0.354683
C	 0.7067655042	-2.1114589488	-0.0795299747	 0.4304
O	 1.3534130448	-3.2918475703	-0.0965226621	-0.420474
C	 1.1765579919	-0.8034969645	-0.1007815319	-0.384878
C	-2.4982111561	-0.5316461203	 0.037063702	 0.051963
O	-3.3610194451	-1.40132569	 0.075643026	-0.354168
H	 0.8876112511	 1.8451704415	 0.2328932144	 0.251407
H	-0.7784749811	 1.8770253015	 0.2081303123	 0.255268
H	-1.2501822403	-2.907225705	-0.0052679322	 0.282436
H	 2.300392124	-3.1272240354	-0.1444710736	 0.314097
H	 2.2099773357	-0.4956321085	-0.1478302675	 0.092118
H	-2.7749973176	 0.5467026472	 0.0438467912	 0.040781
132.1255	156.8428	210.9243	240.3452	281.9971	299.0372	304.4376	421.7499	424.8973	504.0644	575.1935	588.8616	622.9236	679.6377	686.0673	687.574	738.5847	876.9368	1007.1014	1034.1086	1065.8886	1177.6697	1207.224	1222.1897	1272.3357	1385.5088	1401.5395	1498.9455	1552.5915	1605.5501	1620.6371	1662.0749	1729.1555	2862.5205	3242.6922	3568.3591	3665.2053	3672.6001	3842.6256
NC1=C(NC(O)=C1)C=O	Nc1c([nH]c(O)c1)C=O	
InChI=1S/C5H6N2O2/c6-3-1-5(9)7-4(3)2-8/h1-2,7,9H,6H2	InChI=1S/C5H6N2O2/c6-3-1-5(9)7-4(3)2-8/h1-2,7,9H,6H2
