17
gdb 113430	5.04354	0.82181	0.77361	0.8602	69.58	-0.2516	-0.0347	0.2169	1440.7227	0.133036	-458.940191	-458.931399	-458.930454	-458.974567	32.295	
O	 0.0063253193	 1.317798284	-0.7998510617	-0.414104
C	 0.0597765733	 0.251205155	 0.1300023219	-0.07978
C	-1.2953005103	-0.3836536319	 0.3122883191	-0.073776
O	-1.7358827227	-1.1923009585	-0.8040952445	-0.295358
C	-1.4935172977	-1.8280034824	 0.4381633835	 0.421134
C	-0.4681558991	-2.9634630219	 0.6200791705	-0.436264
C	-1.5251868345	-3.6748127415	 1.492229262	 0.405059
O	-1.5123465159	-4.6639989719	 2.1615030033	-0.282044
C	-2.5865584908	-2.5924283521	 1.2051225615	-0.435693
H	-0.3341080324	 0.9520031183	-1.6243012358	 0.294556
H	 0.7868645855	-0.5168242135	-0.1736611645	 0.094663
H	 0.4012727757	 0.6841601677	 1.076827497	 0.115954
H	-2.0695661054	 0.2801859429	 0.7002178885	 0.104541
H	-0.2458496688	-3.5011569272	-0.3076316534	 0.149536
H	 0.4724947468	-2.7282426311	 1.1253821309	 0.14025
H	-3.0198433501	-2.1104719495	 2.0857987075	 0.140468
H	-3.397680613	-2.9488925964	 0.5612353041	 0.150857
42.9033	77.9605	129.6677	200.9868	290.9108	344.6776	397.4322	409.3231	425.1825	488.8272	510.6974	587.2745	648.1424	722.1218	807.4136	859.2649	921.427	969.7242	992.5572	995.3069	1067.7192	1084.0072	1095.478	1112.816	1176.8978	1191.5356	1197.3888	1211.8779	1232.4016	1329.3006	1382.4913	1413.5539	1422.7515	1430.9397	1491.2672	1513.63	1905.3078	2995.6957	3054.6366	3059.5116	3071.5873	3106.3097	3112.1775	3113.9451	3800.8641
OCC1OC11CC(=O)C1	OC[C@H]1OC21CC(=O)C2	
InChI=1S/C6H8O3/c7-3-5-6(9-5)1-4(8)2-6/h5,7H,1-3H2	InChI=1S/C6H8O3/c7-3-5-6(9-5)1-4(8)2-6/h5,7H,1-3H2/t5-/m1/s1
