23
gdb 121373	3.23011	0.86506	0.75956	1.9277	81.66	-0.2577	0.0672	0.3249	1571.369	0.206043	-425.434637	-425.424464	-425.42352	-425.470658	37.108	
O	 0.0208188518	 1.4365009587	-0.2304031955	-0.421112
C	 0.0535380707	 0.0258664752	-0.0626972949	-0.080338
C	-1.3854927185	-0.4726125041	-0.0235302805	-0.189813
C	-1.496258694	-1.9952734211	 0.0724318194	 0.026774
C	-0.917245086	-2.6320532764	 1.3608695832	-0.204818
C	-1.6903384134	-3.9674889355	 1.5629885652	-0.202559
C	-2.7685987538	-3.9980642027	 0.4501035828	-0.235293
C	-2.9365105866	-2.5310722063	 0.033572639	 0.108792
O	-3.6909614207	-1.7964425172	 0.9959096856	-0.440911
H	 0.9257323164	 1.7610507911	-0.2167805528	 0.282689
H	 0.594477878	-0.4590149661	-0.8936156946	 0.076614
H	 0.5753072219	-0.2491654127	 0.8675277692	 0.085698
H	-1.9035896494	-0.0111840421	 0.822417605	 0.12179
H	-1.8900888266	-0.1193316929	-0.9313798774	 0.096868
H	-0.9847496462	-2.4391476249	-0.7940161251	 0.064005
H	 0.1627439257	-2.7870990758	 1.2890726652	 0.091009
H	-1.0891986279	-1.9616016979	 2.2084143324	 0.108795
H	-1.0324239464	-4.8385416938	 1.5017660136	 0.094458
H	-2.155004404	-3.9926773625	 2.5517370334	 0.104311
H	-2.4227487631	-4.5785851115	-0.4132329665	 0.095838
H	-3.7133737522	-4.4462161208	 0.7767855024	 0.082178
H	-3.3863611602	-2.4254122585	-0.9650882108	 0.053805
H	-4.5648798055	-2.1941477923	 1.0532708917	 0.28122
42.6871	89.4308	100.0987	123.4858	157.8819	262.4617	274.9827	283.2422	325.8845	343.7755	423.7475	549.7909	649.2912	706.0897	789.8897	803.4421	851.4918	860.4211	899.4788	926.2769	996.4759	1007.4964	1021.668	1028.2511	1062.4621	1073.0431	1111.9448	1130.4555	1188.7824	1199.8254	1212.5942	1236.9374	1245.3473	1273.6161	1296.9563	1302.822	1314.7569	1320.217	1329.8006	1355.6814	1361.8482	1393.4819	1423.5656	1464.4724	1481.0894	1486.1264	1495.1183	1509.8588	1528.3147	2951.6595	2984.0829	2988.5409	3000.1293	3034.6174	3037.0258	3050.1922	3063.9597	3069.8149	3086.3847	3096.2731	3108.8685	3823.9122	3830.2408
OCCC1CCCC1O	OCC[C@H]1CCC[C@H]1O	
InChI=1S/C7H14O2/c8-5-4-6-2-1-3-7(6)9/h6-9H,1-5H2	InChI=1S/C7H14O2/c8-5-4-6-2-1-3-7(6)9/h6-9H,1-5H2/t6-,7-/m1/s1
