19
gdb 86591	3.53052	0.99632	0.83935	1.5701	76.72	-0.241	-0.0243	0.2168	1393.4034	0.157471	-423.013073	-423.003947	-423.003003	-423.047993	32.857	
C	 0.0843976648	 1.7094805011	-0.1152398475	-0.407256
C	 0.0909720556	 0.1946052207	 0.0321512116	-0.086685
C	 0.6236797901	-0.7205264739	-1.1179475099	-0.277951
C	 1.41515363	-1.5872522092	-0.0853426256	-0.123489
C	 2.83455279	-1.9882572357	-0.3626915852	 0.089818
C	 3.4770090206	-3.10845916	 0.334223331	-0.176059
O	 3.0406499811	-3.2438714884	-1.0192220514	-0.241308
C	 1.1702021404	-0.4406561778	 0.923549955	 0.370759
O	 1.7282889696	-0.0916346707	 1.9235842123	-0.30118
H	 1.0591760585	 2.0750082607	-0.4541669927	 0.121315
H	-0.6696798694	 2.0329822454	-0.8393605742	 0.12194
H	-0.1351448648	 2.1874371802	 0.8439693612	 0.136584
H	-0.8917762614	-0.1618932642	 0.3680435616	 0.105318
H	-0.1211503806	-1.2431401629	-1.7181964404	 0.115311
H	 1.299440391	-0.175992721	-1.7843108873	 0.113517
H	 0.8389110553	-2.4718153671	 0.2096390612	 0.108016
H	 3.4786141493	-1.1878921478	-0.730989752	 0.0953
H	 4.555443111	-3.1026772298	 0.483303309	 0.11973
H	 2.9105814488	-3.6789579595	 1.0690137435	 0.116322
50.5485	60.4303	129.5668	179.5888	200.3874	248.8317	311.1918	344.9164	400.3746	544.0404	579.0524	678.2784	785.4079	802.1927	857.8293	884.1055	921.1937	928.1663	970.9643	975.5382	1037.2904	1075.7797	1100.5518	1126.8855	1141.3219	1154.3929	1165.104	1192.3473	1214.0548	1241.994	1251.922	1290.6542	1300.3385	1341.3759	1407.9735	1445.7687	1488.6854	1494.2172	1495.3243	1530.3443	1880.761	3027.0981	3037.3525	3051.0423	3065.0071	3086.2153	3097.21	3106.2314	3114.1112	3134.3318	3173.4218
CC1CC(C2CO2)C1=O	C[C@H]1C[C@@H]([C@H]2CO2)C1=O	
InChI=1S/C7H10O2/c1-4-2-5(7(4)8)6-3-9-6/h4-6H,2-3H2,1H3	InChI=1S/C7H10O2/c1-4-2-5(7(4)8)6-3-9-6/h4-6H,2-3H2,1H3/t4-,5-,6+/m0/s1
