18
gdb 7862	3.99023	1.2824	1.15577	2.7426	68.45	-0.2355	0.0328	0.2683	1078.1346	0.153248	-381.12148	-381.112645	-381.111701	-381.15534	32.051	
C	 0.5159664595	 1.9188018947	 0.4071262352	-0.320559
N	 0.0069827035	 0.5611535398	 0.2416775415	-0.091417
C	 0.9425664109	-0.4200703032	-0.2999451212	-0.262894
C	 0.4987562515	-0.5203035765	 1.1171988841	-0.006621
C	 1.4302159883	-0.2933129629	 2.2860653487	-0.329873
C	 0.7734904141	 0.1893536696	 3.5864326835	 0.401015
N	-0.5203016117	 0.6113254024	 3.4808264689	-0.521397
O	 1.3819088051	 0.1989170484	 4.6377767964	-0.365743
H	 1.5963895227	 1.9844886273	 0.6066026685	 0.106884
H	 0.3142824014	 2.473607865	-0.5143944515	 0.129981
H	-0.0115729391	 2.4172602206	 1.226311484	 0.122353
H	 0.5514382873	-1.0986530006	-1.0534783476	 0.118349
H	 1.9665998544	-0.0906685569	-0.4747528233	 0.11048
H	-0.2812660811	-1.2524144508	 1.3266724962	 0.100126
H	 1.9457516115	-1.2264203132	 2.5363499645	 0.139257
H	 2.2198779618	 0.4242516121	 2.0442446415	 0.132971
H	-1.0222273462	 0.6182424958	 2.6098853191	 0.277177
H	-0.975852304	 0.9444168682	 4.3144318513	 0.259912
43.866	97.9602	133.1593	195.7578	270.5292	296.6461	334.1568	402.9364	423.5356	485.0473	544.3379	571.4936	690.4962	747.5317	794.7569	848.5196	923.6236	961.072	1038.56	1068.5917	1105.2218	1122.2314	1136.2137	1147.3174	1175.9411	1209.5973	1239.8414	1298.0383	1332.9675	1348.3664	1423.9248	1446.2477	1459.6622	1489.7648	1505.2186	1513.2834	1618.9107	1800.3444	2984.4372	3061.4494	3071.1337	3087.1743	3092.2077	3105.7452	3107.9932	3174.7181	3600.6136	3736.8399
CN1CC1CC(N)=O	CN1C[C@H]1CC(=O)N	
InChI=1S/C5H10N2O/c1-7-3-4(7)2-5(6)8/h4H,2-3H2,1H3,(H2,6,8)	InChI=1S/C5H10N2O/c1-7-3-4(7)2-5(6)8/h4H,2-3H2,1H3,(H2,6,8)/t4-,7?/m1/s1
