19
gdb 91008	4.27248	1.41334	1.25266	1.2049	75.04	-0.2462	0.1016	0.3478	1046.31	0.161046	-422.98712	-422.9801	-422.979156	-423.018246	28.935	
C	 0.0942029449	 1.5348487884	 0.008399441	-0.405874
C	 0.0798112267	 0.0240080114	 0.0043280645	 0.225216
O	 0.7405725178	-0.4431270044	-1.1552183218	-0.290511
C	 1.0854482195	-1.8028583864	-1.0432132845	 0.15604
C	 0.315793055	-2.6828726867	 0.0003013596	-0.15136
C	 1.5610565186	-3.6031111661	 0.0134307177	-0.25135
C	 2.1567640572	-2.1744427324	 0.0245197386	-0.118237
C	 1.0591816828	-1.8082888977	 1.0671613983	 0.156041
O	 0.7115347163	-0.4491353477	 1.1775495268	-0.290512
H	 1.1268212424	 1.89150305	 0.0222966206	 0.132604
H	-0.403694502	 1.9135345773	-0.8873722338	 0.126681
H	-0.4260758406	 1.9089630574	 0.8933064801	 0.126678
H	-0.9537052222	-0.3651723915	-0.0095338245	 0.0656
H	 1.2162189491	-2.2039870358	-2.0509445465	 0.081325
H	-0.7298299615	-2.9915699101	-0.0135067934	 0.079348
H	 1.7096724782	-4.2002185162	 0.9164864678	 0.100021
H	 1.7321381685	-4.1955735912	-0.8887072452	 0.10002
H	 3.2053605111	-1.8781285636	 0.0383304067	 0.076945
H	 1.1648648784	-2.2146115547	 2.0757549881	 0.081325
134.4584	210.7368	287.8924	308.5164	412.8706	426.1121	468.0399	583.638	594.1799	739.1862	780.2478	809.9333	850.3408	853.0342	894.5277	912.7187	913.5049	994.6321	1005.815	1009.3392	1082.6079	1090.9318	1094.7888	1101.1137	1121.0883	1139.5987	1163.5464	1178.1149	1205.5746	1206.9238	1249.5229	1253.5243	1262.7576	1367.1686	1392.8253	1401.5703	1406.9762	1435.922	1482.4866	1488.8339	1511.8889	2942.9031	3056.7781	3057.5744	3085.9362	3087.2113	3110.5224	3120.661	3123.0335	3138.6463	3140.1954
CC1OC2C3CC2C3O1	C[C@H]1O[C@@H]2[C@H]3C[C@@H]2[C@H]3O1	
InChI=1S/C7H10O2/c1-3-8-6-4-2-5(6)7(4)9-3/h3-7H,2H2,1H3	InChI=1S/C7H10O2/c1-3-8-6-4-2-5(6)7(4)9-3/h3-7H,2H2,1H3/t3-,4-,5+,6-,7+
