18
gdb 30753	3.02732	1.25631	0.94604	2.635	76.34	-0.1794	0.0524	0.2318	1257.9294	0.146109	-439.103817	-439.093912	-439.092968	-439.138862	35.193	
C	 0.2765560019	 0.9400245025	-0.4551349434	-0.249598
O	-0.2707014773	 0.2554782361	 0.6769779262	-0.276891
C	-1.36270505	-0.5076157395	 0.4015958506	 0.221506
C	-1.4456289259	-1.8577084017	 0.1638359212	 0.157461
O	-0.4153094752	-2.755021087	 0.0981632766	-0.460953
C	-2.8193963607	-2.1942083363	-0.0217368135	 0.196415
C	-3.3607654275	-3.5585948328	-0.3147246038	-0.498188
C	-3.5260739806	-1.0191918387	 0.1155143982	-0.177058
N	-2.6437680696	 0.0082121724	 0.3553594208	-0.318512
H	 1.1626503527	 1.4722662522	-0.1020641758	 0.129601
H	 0.558117941	 0.2327579004	-1.2441379002	 0.125483
H	-0.4400095288	 1.6612468044	-0.866817687	 0.116979
H	 0.3745358496	-2.3127934083	 0.4289530176	 0.294171
H	-3.0663553487	-4.2817450516	 0.4544270898	 0.127652
H	-4.453624705	-3.5433711377	-0.3609467454	 0.11336
H	-2.9913878815	-3.948367269	-1.2706768529	 0.125668
H	-4.5876222871	-0.8392761477	 0.0589879747	 0.112926
H	-2.8878893673	 0.9391574424	 0.6430107664	 0.259979
53.3029	109.3053	118.7558	146.3939	224.1464	228.9882	268.5577	278.1689	336.4248	370.5198	429.8948	534.8806	562.7038	639.5677	685.7899	705.9095	745.0219	754.8028	976.6115	999.8276	1061.8192	1065.281	1104.0215	1172.9621	1206.4229	1220.8098	1260.4676	1273.1249	1353.8919	1419.4335	1443.7003	1459.3323	1479.1568	1484.9548	1492.6735	1502.8091	1524.9898	1586.2886	1677.3166	3012.0777	3024.823	3072.5891	3077.8426	3104.7522	3127.2609	3260.542	3687.9901	3807.3592
COC1=C(O)C(C)=CN1	COc1c(O)c(C)c[nH]1	
InChI=1S/C6H9NO2/c1-4-3-7-6(9-2)5(4)8/h3,7-8H,1-2H3	InChI=1S/C6H9NO2/c1-4-3-7-6(9-2)5(4)8/h3,7-8H,1-2H3
