20
gdb 97362	2.01131	0.85886	0.6249	3.3012	89.3	-0.2455	0.0262	0.2716	1839.6103	0.16677	-403.122927	-403.111538	-403.110594	-403.162234	38.119	
C	-0.0072104388	 0.9078692842	 0.7965103184	-0.313815
N	-0.2163003511	-0.0501983852	-0.2681516487	-0.208213
C	-1.1690945649	-0.8596709367	-0.136918015	 0.137044
O	-1.4318375069	-1.7694029535	-1.0997597057	-0.205583
C	-2.5396019265	-2.656961611	-0.8485019327	-0.060856
C	-2.8168559785	-3.3710409711	-2.1702322165	-0.39137
C	-2.2521015687	-3.5879010688	 0.2437140127	 0.133432
C	-2.0138181896	-4.3550195996	 1.1407576896	 0.013608
C	-1.7201063185	-5.2814055551	 2.2239751837	-0.497956
H	-0.0790884739	 1.9257511867	 0.3958927629	 0.125687
H	-0.7207003407	 0.8154071296	 1.6323582998	 0.093851
H	 1.006670546	 0.7967943106	 1.1980606985	 0.126229
H	-1.8472949957	-0.8996652467	 0.728873388	 0.080079
H	-3.4152096638	-2.0478328849	-0.5791728628	 0.10676
H	-3.0294571905	-2.6351951366	-2.9495643447	 0.130309
H	-1.9455518974	-3.9592857156	-2.4667120906	 0.141744
H	-3.6738608792	-4.0398865358	-2.0614985718	 0.127638
H	-2.3461757469	-5.0827338784	 3.1005276029	 0.151116
H	-1.8935690881	-6.3183972656	 1.9168619298	 0.153274
H	-0.6734486862	-5.1986352066	 2.5361552021	 0.157018
14.0882	42.1174	64.5145	114.735	141.5192	164.9085	207.4907	242.6618	292.4747	296.2623	329.5799	346.7433	436.4867	483.4557	567.8204	622.9421	732.7108	915.7955	975.5805	1008.8996	1050.5796	1051.8296	1053.6823	1094.6413	1127.2134	1141.3219	1152.4685	1189.5091	1244.8299	1342.98	1357.7223	1405.8519	1414.1052	1418.01	1451.5375	1475.9751	1477.5115	1481.1561	1482.6593	1495.2619	1506.345	1779.2065	2369.3613	2964.1285	2990.234	3005.4334	3030.4619	3055.243	3055.5388	3074.6465	3092.6048	3093.9092	3136.4471	3140.5677
CN=COC(C)C#CC	CN=CO[C@@H](C)C#CC	
InChI=1S/C7H11NO/c1-4-5-7(2)9-6-8-3/h6-7H,1-3H3	InChI=1S/C7H11NO/c1-4-5-7(2)9-6-8-3/h6-7H,1-3H3/t7-/m0/s1
