21
gdb 63656	4.22153	0.77861	0.72767	2.4001	80.19	-0.2585	0.0857	0.3441	1631.5643	0.179492	-424.194356	-424.18436	-424.183416	-424.23015	36.168	
C	 0.124878552	 1.4568347829	-0.3393890051	-0.455696
C	-0.0794618844	 0.0340122863	 0.1352314566	 0.39681
C	-1.2798022978	-0.6662710161	-0.468586196	-0.452383
O	 1.1086941492	-0.7779281583	 0.1943335987	-0.303988
C	 0.4442261068	-0.4539129201	 1.4255305963	 0.018739
C	 1.2241431043	 0.359762816	 2.4342458698	-0.280323
C	 2.2524746975	-0.4964599583	 3.139134202	 0.107639
C	 2.600624339	-0.299751724	 4.5502485269	-0.180018
O	 1.7540405191	-1.3791611436	 4.1507644419	-0.238136
H	 1.0362039713	 1.8985462257	 0.0657865969	 0.126337
H	 0.2014089314	 1.4766393717	-1.4320641351	 0.125625
H	-0.7258939963	 2.0855556961	-0.0549360094	 0.120549
H	-1.1970491171	-0.6927803772	-1.5607046289	 0.12352
H	-1.3525416862	-1.6944584026	-0.1064540864	 0.128735
H	-2.2067950071	-0.1399004442	-0.216079781	 0.118683
H	-0.0767670534	-1.3031526124	 1.8735831936	 0.096656
H	 1.7312967474	 1.196511483	 1.9447902198	 0.106782
H	 0.5336244428	 0.7711194918	 3.1803591546	 0.107037
H	 2.9973174646	-0.9518755201	 2.4854565203	 0.107746
H	 3.5865723979	-0.5865534499	 4.9132412784	 0.115077
H	 2.1118108589	 0.4924660633	 5.1169545661	 0.11061
43.483	66.6827	112.9398	150.4287	193.5319	215.1709	268.6839	323.8745	371.9918	399.5153	445.0111	486.9646	542.8999	703.8616	784.1971	810.0969	855.501	899.3468	942.6774	944.5337	959.5478	992.1298	1037.8976	1087.5527	1109.788	1128.3929	1145.483	1156.2294	1160.1183	1173.8173	1242.4152	1267.977	1292.153	1313.4968	1356.7101	1408.5144	1418.7956	1442.574	1452.1015	1465.8122	1473.674	1486.2049	1500.1701	1520.2668	1531.473	3032.3679	3037.5871	3040.7204	3079.893	3080.8621	3093.0932	3097.2611	3098.6371	3112.7004	3124.8799	3139.2256	3166.1114
CC1(C)OC1CC1CO1	CC1(C)O[C@H]1C[C@H]1CO1	
InChI=1S/C7H12O2/c1-7(2)6(9-7)3-5-4-8-5/h5-6H,3-4H2,1-2H3	InChI=1S/C7H12O2/c1-7(2)6(9-7)3-5-4-8-5/h5-6H,3-4H2,1-2H3/t5-,6-/m0/s1
