15
gdb 34802	4.26409	1.32715	1.24883	0.581	69.56	-0.2469	0.0356	0.2825	998.8818	0.112287	-420.516356	-420.509582	-420.508637	-420.547391	27.451	
C	-0.0303910627	-1.2074245521	-0.0559615087	-0.397667
C	-0.0237024871	-0.0059789476	-0.0259903424	 0.299086
C	-0.0485975135	 1.4397589055	-0.0233370039	-0.21439
C	-0.0440668488	 2.0930278028	 1.395130503	 0.024733
O	 1.3956528118	 1.8193296027	 1.4740040916	-0.29606
C	 1.3559780818	 2.1196356855	 0.0379794288	 0.024737
C	 1.0227441449	 3.6346629891	 0.0750425935	 0.020149
O	-0.332601748	 3.9671557382	-0.2667599195	-0.23578
C	-0.026409125	 3.6147230955	 1.0920563751	 0.020163
H	-0.031341803	-2.2689062543	-0.0772167747	 0.192034
H	-0.7572017586	 1.8425888793	-0.7464391438	 0.129796
H	-0.619292597	 1.7112409162	 2.2358835863	 0.096515
H	 2.2214318492	 1.7652352145	-0.5178088231	 0.096513
H	 1.7694198263	 4.4077335712	-0.0629066352	 0.120085
H	-0.2024929103	 4.3702569034	 1.8485982829	 0.120085
142.8022	149.8227	344.8344	387.4777	423.4918	495.398	576.7031	605.2189	630.061	635.4463	703.5956	790.3933	856.6874	859.1354	868.9694	889.4914	903.7308	943.0352	956.0663	986.7296	1061.9548	1074.4113	1076.8418	1164.16	1189.8139	1210.4434	1236.5034	1248.3463	1279.5472	1297.7524	1346.4651	1400.4308	2242.3204	3118.0649	3150.9846	3152.6043	3185.4093	3197.5135	3505.7796
C#CC1C2OC1C1OC21	C#C[C@H]1[C@H]2O[C@@H]1[C@H]1O[C@@H]21	
InChI=1S/C7H6O2/c1-2-3-4-6-7(9-6)5(3)8-4/h1,3-7H	InChI=1S/C7H6O2/c1-2-3-4-6-7(9-6)5(3)8-4/h1,3-7H/t3-,4+,5-,6-,7+
