18
gdb 52862	2.17613	0.90377	0.67471	1.7042	92.75	-0.2247	0.0252	0.2499	1717.4066	0.144593	-364.735425	-364.724649	-364.723704	-364.775082	36.144	
C	-0.0707696088	 1.447946535	-0.0609952585	-0.501337
C	-0.0214928032	-0.0059835212	-0.0230343976	 0.072661
C	 0.0281441828	-1.2093727718	 0.0064094348	 0.006254
C	 0.0754335891	-2.6524569573	 0.0239744959	 0.006934
C	-0.4664915337	-3.3467541393	 1.2467821105	-0.261059
N	-1.2291269132	-3.3909660542	 0.0034743052	-0.340046
C	 1.1473586148	-3.262695376	-0.7263998217	 0.023969
C	 2.0559730122	-3.7630457193	-1.3368633224	 0.098975
C	 3.1462871893	-4.3703896684	-2.0848948514	-0.502688
H	 0.7913242377	 1.853971447	-0.6014164732	 0.154358
H	-0.9752005754	 1.8038592803	-0.5668467577	 0.14985
H	-0.0621815633	 1.8763921066	 0.947347493	 0.148926
H	-0.0153137911	-4.2896752936	 1.5402978823	 0.131025
H	-0.8049449744	-2.7136344018	 2.0618563264	 0.1229
H	-1.9762719254	-2.7003631848	 0.0328493398	 0.239916
H	 2.7798493337	-5.1709885878	-2.7368850387	 0.151913
H	 3.6502756696	-3.6320034071	-2.7181934176	 0.150053
H	 3.8985997389	-4.803849876	-1.4165617593	 0.147395
8.1239	24.0769	59.2219	112.6876	139.3147	155.4535	288.4857	293.6751	303.08	326.5477	452.2795	475.7167	481.3126	573.0527	586.7167	791.4929	799.5793	905.037	978.6027	999.1593	1050.998	1051.7542	1053.6587	1053.9168	1082.1053	1121.9377	1147.1011	1260.4795	1316.7082	1367.9364	1413.575	1415.2952	1476.3169	1476.8846	1478.1146	1478.2043	1496.6984	2367.567	2376.1607	3026.8531	3027.2359	3087.0278	3087.2326	3089.4513	3090.3375	3114.3516	3209.3007	3498.269
CC#CC1(CN1)C#CC	CC#CC1(CN1)C#CC	
InChI=1S/C8H9N/c1-3-5-8(6-4-2)7-9-8/h9H,7H2,1-2H3	InChI=1S/C8H9N/c1-3-5-8(6-4-2)7-9-8/h9H,7H2,1-2H3
