25
gdb 89558	4.95739	0.80512	0.8048	0.1001	94.11	-0.2617	0.0879	0.3496	1610.935	0.228767	-352.349247	-352.339665	-352.338721	-352.383547	37.559	
C	-0.0153893896	 1.6274266889	 0.009034262	-0.407502
C	 0.0534788262	 0.1084804564	 0.0152036328	 0.064663
C	 1.0559456824	-0.6072824778	-0.9345615776	-0.316309
C	 1.3665643712	-1.6160679257	 0.1949463698	 0.388903
C	 0.7508286865	-0.609361472	 1.2056603117	-0.293235
C	 0.7462949909	-3.0405582315	 0.1800904702	-0.293225
C	 2.0157844873	-3.5650718808	 0.9094838179	 0.064655
C	 2.5944569647	-4.9116541086	 0.5046883436	-0.407499
C	 2.7437814779	-2.2643412403	 0.4650997642	-0.316332
H	 0.9796587164	 2.0646102383	 0.1528452624	 0.108527
H	-0.4102779381	 2.0055526032	-0.9409130169	 0.111642
H	-0.6622790167	 2.0023996281	 0.8104931338	 0.111218
H	-0.9495419003	-0.3087508158	-0.1287428603	 0.06925
H	 0.6749291602	-1.0094072924	-1.8785192032	 0.087653
H	 1.9214390723	 0.0301021522	-1.1523973072	 0.090493
H	 1.5217258443	 0.0276781253	 1.6551789926	 0.089346
H	 0.1203822387	-1.00940106	 2.0057716635	 0.089808
H	-0.2227711702	-3.1812010803	 0.6687736731	 0.089808
H	 0.6831350103	-3.4383338719	-0.8396844267	 0.089346
H	 1.8529044212	-3.5420816084	 1.9928978244	 0.069248
H	 2.764111757	-4.9550103788	-0.5775625393	 0.108528
H	 3.5545060788	-5.0988525563	 0.9992355693	 0.111643
H	 1.9190200376	-5.7335927203	 0.7685320539	 0.111218
H	 3.3033433868	-2.4199743274	-0.4652005225	 0.090494
H	 3.4010672841	-1.7688548439	 1.1864896685	 0.087658
66.4066	68.7753	223.1639	235.3669	248.4468	264.425	275.6505	327.8618	376.1256	430.6701	436.036	460.2611	650.0784	730.1858	801.5198	839.0969	855.802	863.7258	897.1389	897.8122	930.1896	934.9226	952.9345	956.7699	1017.8912	1063.9517	1082.3643	1100.5111	1135.4081	1135.8397	1190.8353	1202.1796	1203.7593	1231.6857	1235.42	1251.1781	1262.0102	1278.9868	1289.1848	1293.1791	1311.873	1371.2295	1373.2342	1410.973	1411.3675	1470.77	1473.2739	1490.574	1494.6558	1497.3778	1497.4788	1497.6559	1501.8714	3019.476	3019.8291	3025.8798	3026.5951	3029.3173	3032.6555	3036.3253	3037.05	3080.7246	3081.9439	3082.7402	3084.8479	3087.3809	3087.4197	3092.2533	3092.6344
CC1CC2(C1)CC(C)C2	C[C@H]1C[C@@]2(C1)C[C@@H](C)C2	
InChI=1S/C9H16/c1-7-3-9(4-7)5-8(2)6-9/h7-8H,3-6H2,1-2H3	InChI=1S/C9H16/c1-7-3-9(4-7)5-8(2)6-9/h7-8H,3-6H2,1-2H3/t7-,8-,9-/m0/s1
