16
gdb 28056	4.49789	0.86008	0.78007	3.1435	72.69	-0.2342	-0.0222	0.212	1440.8099	0.123007	-437.938041	-437.929286	-437.928342	-437.973109	30.199	
C	 0.2172898715	 1.4862426607	 0.020274726	-0.488789
C	 0.003618262	 0.0170270937	-0.0272420489	 0.38366
N	-1.1147962582	-0.6363625495	-0.0815834679	-0.341527
C	-0.74628333	-1.981487248	-0.1106020818	 0.222103
C	-1.7682077459	-3.0706301662	-0.1498096988	-0.390906
C	-2.5543661482	-3.1615836537	 1.1534854735	 0.160946
O	-2.8214162803	-4.1942237747	 1.7088567275	-0.235609
C	 0.6048384588	-2.0567612177	-0.0661523516	-0.121539
O	 1.1007743648	-0.7822738478	-0.0174381651	-0.168153
H	 0.7550052774	 1.7760465096	 0.9288235274	 0.149547
H	 0.8098351045	 1.8251307257	-0.8356471229	 0.14919
H	-0.7513767666	 1.9857781968	 0.0040076044	 0.158969
H	-2.4956022269	-2.8503775237	-0.9439842245	 0.143858
H	-1.3216132648	-4.0457594727	-0.3566352497	 0.12915
H	-2.8762859102	-2.1779034128	 1.5585510496	 0.098794
H	 1.3241544423	-2.8572574396	-0.0681029071	 0.150306
41.848	63.0512	96.5401	136.3477	223.3394	274.8216	369.7962	408.6563	447.6918	632.2271	665.5424	708.7858	734.8867	766.4233	820.1255	942.1521	992.638	1031.7749	1050.3274	1056.2381	1066.8112	1136.2886	1185.6602	1227.4286	1279.2438	1305.6576	1360.5471	1413.0052	1418.0192	1447.2985	1475.8375	1480.3116	1620.165	1636.6127	1835.8861	2905.2842	3020.0723	3046.3128	3101.3551	3115.8548	3159.723	3293.3331
CC1=NC(CC=O)=CO1	Cc1nc(CC=O)co1	
InChI=1S/C6H7NO2/c1-5-7-6(2-3-8)4-9-5/h3-4H,2H2,1H3	InChI=1S/C6H7NO2/c1-5-7-6(2-3-8)4-9-5/h3-4H,2H2,1H3
