20
gdb 32733	3.11502	0.98229	0.78942	3.029	83.03	-0.1793	0.0384	0.2177	1488.4132	0.172326	-399.376328	-399.366653	-399.365709	-399.412365	34.956	
C	 0.1550800395	 1.6370334356	 0.1470799775	-0.379436
C	 0.1922093325	 0.1073292898	 0.1405982629	-0.151853
C	 0.5091724508	-0.4774165893	-1.251416212	-0.319349
C	 0.5441921755	-1.9687462018	-1.2991097372	 0.254267
C	-0.281123716	-2.9052282503	-1.8822838434	 0.194332
N	-1.4585186171	-2.6938373132	-2.6182501629	-0.600311
N	 0.1443376315	-4.1828906883	-1.609818276	-0.306413
C	 1.2208328859	-4.0406748831	-0.8663798819	 0.000596
N	 1.5115703259	-2.7333677977	-0.652764889	-0.299566
H	 1.1158112258	 2.0600477169	-0.1680511628	 0.11152
H	-0.6117360493	 2.0161828837	-0.5377113853	 0.116856
H	-0.0688192562	 2.0265715166	 1.144867424	 0.11381
H	 0.941047091	-0.2455101733	 0.861950419	 0.084754
H	-0.7683798619	-0.2960953999	 0.4803991385	 0.113006
H	-0.2535696061	-0.1321064334	-1.9590469479	 0.106887
H	 1.4602586886	-0.0522056186	-1.6068780625	 0.096636
H	-1.3547252495	-1.9876130387	-3.3364865385	 0.236972
H	-1.7457550138	-3.5646525051	-3.0485213793	 0.245115
H	 1.8216279142	-4.8430337056	-0.4654015546	 0.123564
H	 2.2921713786	-2.3737464441	-0.1302309087	 0.258614
19.5242	78.0795	105.2102	157.073	237.2891	252.6955	282.4206	310.9395	361.2463	460.3769	478.9957	654.9878	676.4734	708.6999	738.3596	775.2938	787.3285	816.8823	866.6157	894.7295	958.5338	1040.4823	1046.6518	1082.5612	1108.9639	1131.4148	1213.074	1258.8318	1271.3126	1314.4546	1319.8476	1340.7702	1382.0719	1399.0733	1411.6224	1475.3397	1489.6346	1491.8132	1499.1162	1508.5343	1519.0435	1639.5692	1655.7472	2987.2533	3019.4511	3028.6156	3053.4888	3068.8786	3096.2363	3103.4031	3251.5871	3526.8734	3618.2455	3666.6689
CCCC1=C(N)N=CN1	CCCc1c(N)nc[nH]1	
InChI=1S/C6H11N3/c1-2-3-5-6(7)9-4-8-5/h4H,2-3,7H2,1H3,(H,8,9)	InChI=1S/C6H11N3/c1-2-3-5-6(7)9-4-8-5/h4H,2-3,7H2,1H3,(H,8,9)
