20
gdb 110263	2.84454	1.15556	0.91626	3.3578	76.58	-0.2244	0.0705	0.2948	1300.6553	0.169914	-440.184128	-440.175082	-440.174138	-440.218925	34.32	
C	 0.0027828362	 1.4505353002	-0.0680735667	-0.337127
N	 0.0260439637	-0.0041815091	-0.0370426057	-0.138543
C	-1.1276576765	-0.8018790794	 0.5548303911	-0.115204
C	-0.1210013793	-2.0041957942	 0.5126285374	 0.209457
O	 0.294863672	-2.4856054102	-0.7138490182	-0.453239
C	 0.6210196106	-0.7715233914	 1.1367415195	-0.11267
C	-0.6452848339	-0.5547255771	 2.0140683283	 0.067446
C	-0.9280461282	 0.7156485233	 2.8226714957	-0.146702
O	-1.2627970692	 0.2841197874	 4.1375236992	-0.428698
H	 1.0184614773	 1.8090567683	-0.2678164672	 0.123927
H	-0.6265340217	 1.7664314867	-0.9073255722	 0.12405
H	-0.3628610471	 1.9599264463	 0.8320911502	 0.104624
H	-2.1375070801	-0.7411467607	 0.1430192391	 0.079926
H	-0.3278094334	-2.8413695091	 1.1791407789	 0.090776
H	 0.4533388273	-1.6766852108	-1.2298084916	 0.27795
H	 1.6739030588	-0.6739722799	 1.4103912365	 0.080204
H	-0.8576467	-1.3938326961	 2.6862010018	 0.096994
H	-0.0485408901	 1.3749788063	 2.8479090961	 0.096613
H	-1.7583630134	 1.2869967608	 2.3806769032	 0.095691
H	-1.4356165329	 1.0641559288	 4.6735671648	 0.284524
16.8878	168.1281	180.1284	222.8414	247.9276	290.6454	294.117	361.3739	379.5769	434.9227	547.2863	642.7119	680.5404	726.0456	780.8936	793.4049	847.7986	892.5071	915.1868	1011.6486	1044.8313	1068.23	1070.6181	1102.1664	1123.2992	1137.3574	1148.0649	1164.5116	1196.1794	1211.7613	1212.4375	1233.3974	1258.3498	1275.5874	1293.4542	1316.2207	1382.8197	1443.558	1457.8355	1468.0909	1493.5435	1502.3204	1524.8498	2973.593	3007.2039	3019.9472	3046.2443	3075.9175	3090.7745	3092.519	3096.438	3127.4355	3664.9762	3824.6591
CN1C2C(O)C1C2CO	CN1[C@H]2[C@@H](O)[C@@H]1[C@H]2CO	
InChI=1S/C6H11NO2/c1-7-4-3(2-8)5(7)6(4)9/h3-6,8-9H,2H2,1H3	InChI=1S/C6H11NO2/c1-7-4-3(2-8)5(7)6(4)9/h3-6,8-9H,2H2,1H3/t3-,4+,5-,6+
