18
gdb 45568	3.20709	1.45481	1.25557	5.0915	70.72	-0.2552	0.0578	0.313	1038.2917	0.151157	-439.163055	-439.15567	-439.154725	-439.195566	28.518	
O	-0.0213696559	-0.0669143321	 0.0656422828	-0.396173
C	-0.0479449514	 1.1323616821	 0.0407175728	 0.47332
N	-1.1388358341	 1.9565884797	-0.0551373992	-0.364465
C	-0.8348735125	 3.3632742252	 0.0721961435	-0.011384
C	-1.2248820997	 3.9989895489	 1.4294625032	-0.218688
C	 0.008453061	 3.7971828503	 2.3277981209	-0.217332
C	 1.1821048602	 4.0058772036	 1.3560885626	-0.220226
C	 0.7318376336	 3.312313389	 0.0657707281	 0.110597
O	 1.0723580657	 1.9167421945	 0.0973659554	-0.256465
H	-2.06174867	 1.5662281211	 0.0238958885	 0.260459
H	-1.2407427328	 3.9299129527	-0.7717215775	 0.089237
H	-1.4108376031	 5.0693983693	 1.2821741067	 0.103892
H	-2.141512385	 3.5619740333	 1.8357022212	 0.101149
H	 0.0305111834	 4.4801893284	 3.1803285751	 0.10368
H	 0.0288153284	 2.7767395196	 2.7253164025	 0.123101
H	 1.3215995891	 5.0751647374	 1.1560467215	 0.102676
H	 2.1344680316	 3.6033346701	 1.7078077415	 0.122576
H	 1.1786807116	 3.7407871268	-0.8345918797	 0.094045
56.8582	96.1124	221.0511	344.6707	380.2763	418.3274	523.054	576.4196	588.0439	694.7996	766.6917	805.199	834.2303	858.1536	860.6641	908.5613	939.3346	943.5219	1010.6424	1012.158	1058.6478	1065.2196	1140.4711	1166.3872	1188.1506	1221.9812	1234.2051	1287.4817	1315.596	1333.4301	1338.7899	1357.8784	1371.2368	1404.3531	1427.337	1472.9258	1484.0873	1499.7408	1889.6547	3035.013	3039.3175	3050.9989	3053.6641	3080.9451	3092.9856	3106.6818	3115.5414	3678.7121
O=C1NC2CCCC2O1	O=C1N[C@H]2CCC[C@H]2O1	
InChI=1S/C6H9NO2/c8-6-7-4-2-1-3-5(4)9-6/h4-5H,1-3H2,(H,7,8)	InChI=1S/C6H9NO2/c8-6-7-4-2-1-3-5(4)9-6/h4-5H,1-3H2,(H,7,8)/t4-,5+/m0/s1
