23
gdb 113816	3.91056	0.79287	0.71258	1.7035	87.85	-0.2504	0.0865	0.3369	1695.1529	0.204128	-388.266014	-388.255811	-388.254867	-388.302156	37.383	
C	-0.0198697226	 1.6031544669	-0.1771615703	-0.375769
C	-0.0097140554	 0.117838889	 0.2032095954	-0.194412
C	-1.3802314321	-0.5172772175	 0.0761278347	 0.017865
C	-1.8567076864	-1.1008690839	-1.2291526485	-0.306351
C	-1.5993714502	-2.0129928503	-0.0470689528	-0.053863
C	-0.4589708217	-2.971897641	-0.0906816274	 0.063636
O	-0.0554810107	-3.5880805453	 1.1434723152	-0.27202
C	-0.5803294108	-4.4278818478	 0.1092476211	 0.06699
C	-1.8666081885	-5.1607257578	 0.3927766128	-0.418716
H	 0.9759365069	 2.0456796525	-0.0756292276	 0.110731
H	-0.3480657671	 1.742140317	-1.2126912845	 0.116541
H	-0.7032029878	 2.1703641406	 0.4645631831	 0.113758
H	 0.7113902986	-0.4110280406	-0.4302494888	 0.094895
H	 0.3503973968	 0.0030987613	 1.2334151421	 0.107819
H	-2.1438944114	-0.008801807	 0.6612831377	 0.082633
H	-2.8808120135	-0.9428461629	-1.5483995255	 0.110927
H	-1.1406650509	-1.1374069289	-2.0456818226	 0.109459
H	-2.4782239577	-2.3883035393	 0.465769467	 0.083766
H	 0.3836495814	-2.6432938978	-0.7020887929	 0.081701
H	 0.1818519243	-5.0444656312	-0.3744954003	 0.082558
H	-2.6030967263	-4.5195352702	 0.8807411883	 0.128646
H	-2.2988911551	-5.5474998088	-0.5366084219	 0.121034
H	-1.6745777897	-6.0137179371	 1.0522250156	 0.128173
30.4385	85.2431	104.0136	147.8035	195.4519	205.3709	235.3381	295.0003	351.2312	400.9949	460.9325	467.5719	602.5755	759.2869	768.9506	794.4679	816.7275	854.9434	885.802	948.2737	955.0128	973.5823	997.1916	1035.1709	1052.0725	1069.5596	1094.147	1111.7517	1141.2708	1153.6746	1171.6433	1197.3555	1205.235	1248.617	1295.9788	1306.783	1329.3603	1346.7275	1405.9487	1408.9528	1420.8894	1432.7767	1471.5312	1483.0404	1489.8204	1495.492	1497.997	1508.1997	1519.7756	3027.4486	3031.2063	3038.3864	3059.6422	3068.2746	3089.4238	3098.252	3099.3798	3104.6649	3123.1675	3124.4592	3133.3632	3165.5616	3208.7941
CCC1CC1C1OC1C	CC[C@H]1C[C@H]1[C@H]1O[C@H]1C	
InChI=1S/C8H14O/c1-3-6-4-7(6)8-5(2)9-8/h5-8H,3-4H2,1-2H3	InChI=1S/C8H14O/c1-3-6-4-7(6)8-5(2)9-8/h5-8H,3-4H2,1-2H3/t5-,6-,7+,8-/m0/s1
