20
gdb 97808	2.9544	0.72025	0.61947	1.0888	87.14	-0.2279	0.0203	0.2482	1838.4356	0.168877	-403.081966	-403.071547	-403.070602	-403.119292	36.505	
C	-0.1458469451	 1.5858301849	-0.1562114203	-0.376147
C	-0.0366474708	 0.1554740747	 0.3638282748	-0.113822
N	-1.3025114346	-0.5494344027	 0.1602426774	-0.077264
C	-1.4728252887	-1.249837959	-1.0983481407	-0.241092
C	-1.2947803656	-2.0251189433	 0.1765303687	-0.189016
C	-0.0929617922	-2.7806279058	 0.3991393728	 0.088367
C	 0.9016278028	-3.4280984972	 0.6179617736	 0.042135
C	 2.0882434196	-4.2228479976	 0.9288045697	-0.192981
O	 2.6473102125	-3.9410907727	 2.2050846385	-0.401562
H	 0.7829929902	 2.1329808696	 0.031407177	 0.11449
H	-0.3327876622	 1.59891334	-1.2351896114	 0.116741
H	-0.9675477487	 2.1146851873	 0.3348199362	 0.126969
H	 0.807999455	-0.3617489278	-0.1177606873	 0.097318
H	 0.1665976727	 0.1591963933	 1.4406214405	 0.10849
H	-2.4564284637	-1.1925747988	-1.5570884803	 0.120142
H	-0.6360569322	-1.2687548183	-1.7951112449	 0.117989
H	-2.1852218374	-2.4457287711	 0.638988896	 0.113041
H	 1.8414348055	-5.2921228263	 0.8264456554	 0.119179
H	 2.8838033794	-4.0141692936	 0.2047170456	 0.139903
H	 1.9337525934	-3.9959606853	 2.8493109285	 0.287122
20.4954	69.5872	86.7167	111.6123	185.3344	213.5811	236.0719	283.1727	331.8672	364.7046	413.3055	500.0532	524.3048	632.4316	723.3742	750.1988	809.6497	879.0566	936.6761	973.3005	993.9445	1042.1235	1046.891	1073.3685	1108.6996	1115.5442	1133.4783	1192.3683	1201.3999	1216.0935	1307.1348	1320.1355	1355.9893	1374.4223	1385.035	1409.9071	1418.7291	1487.5399	1488.7938	1489.827	1501.0856	1517.3241	2346.4349	2973.3739	2983.1544	3038.8504	3059.4955	3060.923	3091.8487	3107.8866	3119.2573	3123.1487	3182.161	3816.6921
CCN1CC1C#CCO	CCN1C[C@H]1C#CCO	
InChI=1S/C7H11NO/c1-2-8-6-7(8)4-3-5-9/h7,9H,2,5-6H2,1H3	InChI=1S/C7H11NO/c1-2-8-6-7(8)4-3-5-9/h7,9H,2,5-6H2,1H3/t7-,8?/m1/s1
