23
gdb 116293	2.26579	1.17958	0.83258	2.6069	81.54	-0.2518	0.0795	0.3313	1446.3321	0.206628	-425.432916	-425.423164	-425.42222	-425.468364	36.217	
C	 0.0411032928	 1.7227211821	-0.0522535316	-0.390652
C	-0.0719963853	 0.1950237341	-0.0166941214	-0.185835
C	 0.6820506079	-0.4877399119	-1.1687412589	-0.002014
C	 2.2249181175	-0.2953401856	-1.0773827085	-0.229754
C	 2.7877321266	-1.7071308834	-1.2968445133	-0.086684
O	 1.7835093789	-2.577397739	-0.8028749178	-0.270985
C	 0.537183085	-2.0391283512	-1.2518042465	 0.090069
C	-0.5487390436	-2.7259158338	-0.4358639486	-0.079423
O	-0.5132437713	-4.1268969214	-0.6335481626	-0.430116
H	 1.0815416647	 2.0537536851	 0.0299413626	 0.119037
H	-0.3602189168	 2.1252690039	-0.9893142677	 0.114503
H	-0.5167450558	 2.1781464568	 0.7716606014	 0.114608
H	 0.3087755895	-0.1782575356	 0.9424340002	 0.10287
H	-1.132866053	-0.0797551213	-0.0567340766	 0.100287
H	 0.3100048706	-0.0614101369	-2.107204748	 0.071208
H	 2.6112109835	 0.425026415	-1.8023733567	 0.103122
H	 2.4979171799	 0.0612111983	-0.0789945101	 0.106933
H	 2.9697183029	-1.8983044297	-2.3674471282	 0.089001
H	 3.7122303603	-1.9076348528	-0.7495066713	 0.107878
H	 0.3942876822	-2.32731107	-2.3068610329	 0.068749
H	-0.4293139573	-2.4702665016	 0.6274863869	 0.09019
H	-1.5380006717	-2.3843519682	-0.7576587675	 0.105831
H	 0.4061828225	-4.3874734928	-0.5035255627	 0.291176
30.2364	114.1604	140.8869	154.5161	216.4251	231.9019	249.1585	320.591	394.5678	435.3946	466.0216	485.5371	627.1613	730.9917	773.4035	807.549	860.312	880.6884	936.149	977.8361	993.1109	1023.2764	1043.2887	1060.9335	1073.4607	1105.5078	1120.2382	1147.7938	1176.3389	1216.9522	1231.7364	1259.1281	1288.9116	1304.9274	1323.6002	1328.7757	1349.1945	1357.4498	1389.8463	1395.4527	1411.362	1414.795	1445.1736	1483.2618	1493.5314	1500.4082	1501.0314	1508.202	1516.594	2955.388	2968.4145	2995.1779	3022.8599	3031.0876	3036.1323	3051.18	3059.6904	3078.5375	3094.4118	3098.5987	3105.0521	3107.1919	3797.5754
CCC1CCOC1CO	CC[C@H]1CCO[C@H]1CO	
InChI=1S/C7H14O2/c1-2-6-3-4-9-7(6)5-8/h6-8H,2-5H2,1H3	InChI=1S/C7H14O2/c1-2-6-3-4-9-7(6)5-8/h6-8H,2-5H2,1H3/t6-,7-/m0/s1
