20
gdb 71844	2.82663	1.93383	1.65999	1.3393	82.3	-0.2122	0.0102	0.2223	923.8598	0.173355	-365.969687	-365.962687	-365.961743	-366.000372	30.026	
C	-0.0273069337	 1.5350777796	 0.0096024706	-0.490393
C	-0.0097303217	 0.0254935422	-0.0226710926	 0.368294
C	 0.0031222192	-0.7169567279	-1.3576048613	-0.2765
C	-0.7441358507	-1.843592064	-0.5841923861	-0.053059
C	 0.3259387643	-2.7211217824	 0.0108385826	-0.073011
C	 1.1524624794	-2.0894617538	 0.8477866434	-0.08129
C	 0.7206585438	-0.6896155307	 1.197828663	-0.136365
C	-0.731695133	-0.862230587	 1.7524804228	-0.162565
N	-1.27783668	-0.7501086835	 0.3748278897	-0.172309
H	 0.9344883939	 1.9322222522	-0.3362703758	 0.118338
H	-0.8143597869	 1.9247148666	-0.6434551771	 0.123254
H	-0.2004084029	 1.9213902634	 1.0194833837	 0.117233
H	-0.6570426808	-0.2024842159	-2.0613286552	 0.10503
H	 0.9492274237	-0.9762360276	-1.8353061638	 0.096589
H	-1.5445077939	-2.3849960359	-1.0890538937	 0.071011
H	 0.4281671163	-3.7572996484	-0.2924386804	 0.089847
H	 2.0011263337	-2.5530672295	 1.3388018979	 0.092407
H	 1.4542010736	-0.1125360011	 1.7645269393	 0.058377
H	-0.9504016078	-1.7837968111	 2.297572298	 0.0998
H	-1.0856455864	 0.0007983948	 2.324217045	 0.105312
198.9217	230.5941	286.4413	371.2386	392.7322	424.2727	497.435	566.7234	604.2467	697.1054	721.917	740.5851	775.7677	807.309	868.0903	871.3248	914.8464	938.1549	953.2048	970.1439	977.5534	1004.8111	1047.213	1077.3828	1087.3562	1130.3405	1150.3981	1180.7271	1187.4777	1211.0776	1229.2984	1234.5318	1269.155	1285.5984	1317.1402	1342.5199	1378.2324	1407.7196	1473.0406	1481.3772	1491.365	1494.6055	1672.3933	3026.6408	3049.6448	3061.3333	3084.1757	3091.959	3103.4908	3104.8671	3109.6069	3126.924	3174.5746	3198.5477
CC12CC3C=CC1CN23	C[C@@]12C[C@H]3C=C[C@@H]1CN23	
InChI=1S/C8H11N/c1-8-4-7-3-2-6(8)5-9(7)8/h2-3,6-7H,4-5H2,1H3	InChI=1S/C8H11N/c1-8-4-7-3-2-6(8)5-9(7)8/h2-3,6-7H,4-5H2,1H3/t6-,7-,8-/m1/s1
