15
gdb 46864	2.35948	1.81852	1.27236	5.054	65.94	-0.2397	-0.0731	0.1667	984.3703	0.112493	-457.77439	-457.766795	-457.765851	-457.807059	27.896	
O	 0.1620601808	-0.03550733	 0.0652111781	-0.282494
C	 0.0346102433	 1.1602948752	 0.067541115	 0.310163
C	-1.297278253	 1.8942457284	 0.0990525155	-0.32601
C	-1.3781702744	 3.0154255006	 1.1613652237	-0.241977
C	-0.0498801898	 3.6629298786	 1.4990483902	 0.039212
O	 0.8671302752	 2.8446438578	 2.2097840318	-0.23157
C	 1.2390559635	 3.2549157979	 0.8809138182	-0.080654
C	 1.2467682668	 2.1113043429	-0.0821845688	 0.333449
O	 2.0962493867	 1.9452056637	-0.9209258929	-0.29567
H	-1.4064811848	 2.3464240934	-0.8974487656	 0.139285
H	-2.0989240204	 1.161749733	 0.2157481164	 0.136889
H	-2.0793072799	 3.7868698724	 0.8286335156	 0.120849
H	-1.7790788439	 2.6107290175	 2.0973234054	 0.141915
H	-0.0991226829	 4.6877204291	 1.8686360707	 0.1157
H	 2.0701619229	 3.9535850795	 0.8117653667	 0.120912
66.3461	103.5168	179.1866	323.4862	328.3328	354.6442	455.8152	479.521	558.1641	653.1615	715.1593	773.4841	800.5536	844.2028	910.9131	922.2218	982.7506	1044.6538	1060.3277	1100.8044	1141.4114	1209.0494	1224.232	1261.8924	1276.8203	1317.0732	1353.3615	1375.8972	1435.4708	1464.7705	1486.4208	1820.2305	1833.3586	3014.5066	3047.9786	3088.4449	3110.1031	3112.4763	3147.9929
O=C1CCC2OC2C1=O	O=C1CC[C@H]2O[C@H]2C1=O	
InChI=1S/C6H6O3/c7-3-1-2-4-6(9-4)5(3)8/h4,6H,1-2H2	InChI=1S/C6H6O3/c7-3-1-2-4-6(9-4)5(3)8/h4,6H,1-2H2/t4-,6-/m1/s1
