21
gdb 61644	4.13619	0.75602	0.71432	4.2851	81.94	-0.2347	0.0336	0.2683	1642.63	0.181814	-420.406849	-420.396579	-420.395634	-420.443418	36.108	
C	 0.0366417322	 1.5368395496	-0.1759495574	-0.394912
C	 0.0813815109	 0.0388972292	 0.0172386611	-0.002432
N	 1.4024122535	-0.6107673284	-0.0044209766	-0.33321
C	 0.6006152809	-0.6503629577	 1.2321917996	-0.012639
C	 1.1520079054	 0.072549466	 2.4457921573	-0.192728
N	 2.0615853753	-0.7439980345	 3.2327389524	-0.032562
C	 3.3899837967	-1.0174523024	 2.7061251539	-0.337934
C	 1.7057385497	-1.2176544473	 4.4606316998	 0.149979
O	 2.3960051474	-1.9032045488	 5.1859621604	-0.344613
H	 0.8929778258	 2.0286003145	 0.289940021	 0.128613
H	 0.056825644	 1.7809054517	-1.243342536	 0.124441
H	-0.8815739311	 1.9587949265	 0.2467400186	 0.119159
H	-0.7255203783	-0.4912604201	-0.4881600471	 0.086874
H	 1.3601627792	-1.5031705901	-0.4883315941	 0.2337
H	 0.1230563869	-1.5971550898	 1.4840473199	 0.089033
H	 1.6701498391	 0.984566816	 2.1301500477	 0.113254
H	 0.3214720834	 0.3705243991	 3.0961393903	 0.116867
H	 3.9394211964	-0.0815579453	 2.5479539214	 0.123688
H	 3.9150486459	-1.6309630294	 3.4381187165	 0.162979
H	 3.3342361796	-1.5420038587	 1.7484953138	 0.136689
H	 0.6805886572	-0.8984636801	 4.7372236974	 0.065755
33.7277	62.4684	90.2022	132.7889	169.8544	202.4859	274.8727	326.7366	337.5488	355.5245	396.1714	461.871	485.5659	709.7952	769.0479	848.578	862.8216	892.9109	948.8197	984.7592	1027.6253	1032.5197	1039.6836	1090.8747	1094.944	1153.983	1159.7376	1198.7533	1250.8891	1270.6477	1273.5917	1283.8563	1360.1575	1407.9604	1425.9506	1433.7579	1439.5332	1444.2734	1465.8068	1476.0296	1491.5963	1496.3657	1505.0115	1522.1252	1795.2405	2925.2881	3029.9077	3033.8549	3039.3929	3078.7789	3095.1979	3097.4953	3101.6504	3112.8218	3135.4572	3160.7449	3509.2508
CC1NC1CN(C)C=O	C[C@H]1N[C@H]1CN(C)C=O	
InChI=1S/C6H12N2O/c1-5-6(7-5)3-8(2)4-9/h4-7H,3H2,1-2H3	InChI=1S/C6H12N2O/c1-5-6(7-5)3-8(2)4-9/h4-7H,3H2,1-2H3/t5-,6+/m1/s1
