20
gdb 52626	2.79138	0.83614	0.7526	3.6518	87.52	-0.2517	0.0273	0.279	1629.4275	0.166586	-403.124974	-403.113737	-403.112793	-403.162919	38.89	
C	 0.0033999494	 1.4233233088	 0.0942459093	-0.501378
C	 0.0128730196	-0.0311115421	 0.041373194	 0.07808
C	 0.0295920539	-1.23366833	 0.0153063235	 0.083907
C	 0.0258890247	-2.6969236411	-0.0642308832	 0.145956
C	-1.4258991478	-3.2057586792	-0.1338208248	-0.407522
C	 0.8544589531	-3.1491726506	-1.2809426276	-0.407521
O	 0.659664483	-3.1326900348	 1.1741482862	-0.223927
C	 0.810148579	-4.4482695199	 1.408395716	 0.133639
N	 1.3591411142	-4.832063418	 2.4807920067	-0.447833
H	 0.563099019	 1.8564749649	-0.7417807343	 0.150149
H	-1.0178546276	 1.8172705779	 0.0534002797	 0.150149
H	 0.4613413047	 1.7818019154	 1.0223886456	 0.158444
H	-1.927198302	-2.7697966719	-1.0014908246	 0.132032
H	-1.4638808959	-4.2945263183	-0.230315548	 0.114477
H	-1.9671267159	-2.9097088337	 0.7673437097	 0.142713
H	 1.8881398176	-2.8140440791	-1.1720254817	 0.142713
H	 0.8427305569	-4.2372886123	-1.3906462666	 0.114477
H	 0.4393154793	-2.7110713249	-2.1919519621	 0.132032
H	 0.4289762545	-5.1048169414	 0.6182868802	 0.085589
H	 1.3950315606	-5.8493341198	 2.5019576323	 0.223822
19.7823	73.3873	78.9837	102.0852	139.2433	224.5543	243.4047	258.9414	296.3187	313.5012	341.4284	392.1938	398.6989	475.6821	558.0832	601.0527	707.0146	816.4532	846.0582	924.0344	952.2455	1019.2529	1043.9638	1051.1345	1055.204	1072.888	1107.0948	1170.1134	1185.114	1280.0038	1308.4329	1393.6119	1406.9947	1413.4622	1429.5438	1476.3812	1477.7273	1478.1791	1481.588	1495.5169	1503.0812	1734.7797	2378.6556	3029.7886	3043.6704	3046.804	3056.7698	3091.2773	3093.9392	3119.5212	3125.3719	3137.7339	3139.5161	3512.577
CC#CC(C)(C)OC=N	CC#CC(C)(C)O[CH][NH]	
InChI=1S/C7H11NO/c1-4-5-7(2,3)9-6-8/h6,8H,1-3H3	InChI=1S/C7H11NO/c1-4-5-7(2,3)9-6-8/h6,8H,1-3H3
