21
gdb 70822	2.23296	1.69201	1.50582	1.5524	83.13	-0.2215	0.0861	0.3076	1060.9732	0.179912	-387.028793	-387.019675	-387.018731	-387.061685	35.546	
C	 0.0633569731	 1.4085991647	-0.1396704053	-0.528454
C	 0.0029671586	-0.0788028389	-0.0061575568	 0.430042
O	 0.5474371711	-0.909265532	-1.0824876942	-0.395432
C	 0.0606473791	-1.8737179865	-0.0938647915	 0.430028
C	 0.2157334795	-3.3341197193	-0.3713910847	-0.528454
C	 0.499636337	-1.0192481584	 1.1372402673	-0.177825
C	-0.903259117	-1.0954921365	 1.7752034941	-0.335986
C	-1.2189545591	-1.0317115737	 0.2627723308	 0.224286
C	-2.5335732832	-1.0384435933	-0.4631649989	-0.529516
H	 1.1002365413	 1.7441856762	-0.240477851	 0.133917
H	-0.4923192047	 1.7398469124	-1.0227296001	 0.132005
H	-0.3709171141	 1.8890482892	 0.7430063046	 0.126061
H	 1.2715447402	-3.5907894914	-0.5028676285	 0.133936
H	-0.1824727884	-3.9250372755	 0.4597456597	 0.126063
H	-0.3217545491	-3.6131429584	-1.2832840957	 0.131979
H	 1.4847328638	-1.0104478378	 1.6051646292	 0.072827
H	-1.158122782	-2.0271839251	 2.2897405471	 0.092501
H	-1.2156066494	-0.2366152736	 2.3773010698	 0.092502
H	-3.1570133671	-0.1862793545	-0.1703297659	 0.119024
H	-2.3650677132	-0.9817778222	-1.5441435853	 0.131471
H	-3.1016857564	-1.9517693152	-0.2541618748	 0.119025
174.0847	191.0389	192.7692	199.0472	215.3942	222.9309	262.243	263.789	428.9471	493.6754	527.6821	593.5823	668.6808	689.0607	710.3575	764.5358	772.5028	841.4759	877.0209	923.2712	941.131	998.3286	1007.8392	1070.7182	1097.0975	1127.6529	1129.9092	1147.7309	1149.3307	1185.3913	1225.5147	1241.9312	1268.622	1328.1248	1388.005	1403.7663	1407.738	1442.7012	1473.1018	1474.6554	1488.2295	1490.2431	1493.8114	1496.9252	1515.8582	3024.8416	3035.3521	3035.3786	3042.416	3088.7835	3094.6151	3097.1204	3107.6526	3107.7112	3109.621	3109.6324	3112.6181
CC12OC3(C)C1CC23C	C[C@@]12O[C@@]3(C)[C@@H]1C[C@@]23C	
InChI=1S/C8H12O/c1-6-4-5-7(6,2)9-8(5,6)3/h5H,4H2,1-3H3	InChI=1S/C8H12O/c1-6-4-5-7(6,2)9-8(5,6)3/h5H,4H2,1-3H3/t5-,6+,7-,8+
