15
gdb 34839	3.56801	1.17504	0.98647	3.8973	75.02	-0.3245	-0.0023	0.3223	1151.4457	0.11433	-379.646367	-379.639062	-379.638118	-379.678383	27.598	
N	-0.0404800257	-1.2243178449	-0.0621367842	-0.323006
C	-0.022577513	-0.0690164792	-0.0234040474	 0.266646
C	-0.0128104536	 1.3833861659	 0.0129626858	-0.149293
C	 0.0578298058	 2.1002186684	 1.4062614513	-0.044236
C	 1.5370322341	 1.628512933	 1.512782152	-0.259002
C	 1.3686013656	 2.1254234427	 0.0476528334	-0.044235
C	 0.6079965831	 3.3564287298	 0.6485144132	-0.153393
C	-0.285964111	 4.1283278385	-0.1996483417	 0.268757
N	-0.9922054526	 4.752352623	-0.8694475066	-0.325945
H	-0.7478144122	 1.7837933054	-0.6887334772	 0.147106
H	-0.7136377293	 2.0953148298	 2.1743366695	 0.114452
H	 2.1915794103	 2.2205096639	 2.155265162	 0.113357
H	 1.6969756621	 0.5589170482	 1.6472510817	 0.144618
H	 2.1083629591	 2.1495788771	-0.7506547503	 0.114453
H	 1.2246785473	 4.0219138483	 1.2558286585	 0.12972
114.3822	150.4743	196.6204	198.3706	402.2541	467.5366	522.4326	529.6419	542.7307	609.0828	780.417	837.8294	846.3399	884.1724	906.696	927.9917	1010.3081	1025.1109	1050.0241	1071.3061	1094.7721	1102.3966	1128.4492	1187.6718	1195.1869	1224.6127	1232.233	1243.8897	1374.1818	1382.8888	1524.7078	2354.5454	2356.4843	3080.4943	3097.0581	3098.9651	3138.1047	3139.9401	3154.8371
N#CC1C2CC1C2C#N	N#C[C@H]1[C@H]2C[C@@H]1[C@H]2C#N	
InChI=1S/C7H6N2/c8-2-6-4-1-5(6)7(4)3-9/h4-7H,1H2	InChI=1S/C7H6N2/c8-2-6-4-1-5(6)7(4)3-9/h4-7H,1H2/t4-,5+,6-,7-
