20
gdb 12090	3.18504	1.63262	1.35202	2.3039	74.93	-0.2364	0.0674	0.3039	1009.6631	0.177163	-345.133654	-345.125059	-345.124115	-345.166994	32.521	
C	-1.4371880272	-0.9865989589	 1.873376086	-0.395496
C	-0.5408122268	-0.6642727965	 0.7023294011	 0.007162
N	-0.457982608	 0.7498015639	 0.3176498032	-0.332512
C	 0.7617438384	 0.0693017386	 0.7820029416	-0.127356
C	 1.4440673393	 0.5971668271	 2.0234847859	 0.340062
C	 1.5731230028	 2.1048009916	 2.0863505436	-0.432181
C	 1.4294281073	-0.193262343	 3.2853920771	-0.27204
N	 2.6528382166	-0.1334633275	 2.4637702121	-0.356235
H	-1.3508886834	-0.2288450044	 2.6542674892	 0.135436
H	-2.4817010077	-1.0137791575	 1.5442638525	 0.118617
H	-1.1976493037	-1.9654020181	 2.3030608108	 0.112767
H	-0.6009717106	-1.3882010132	-0.1112184692	 0.080809
H	-0.4454135307	 0.8623080489	-0.6916787012	 0.231106
H	 1.4799992218	-0.1914394616	 0.0014455609	 0.08449
H	 0.585339416	 2.5723598748	 2.1089654694	 0.130973
H	 2.1379805987	 2.4008774046	 2.9737510967	 0.118348
H	 2.1048252774	 2.4837489052	 1.2060542171	 0.110387
H	 1.4958406852	 0.321482637	 4.2408554738	 0.112871
H	 0.8749640094	-1.1251180936	 3.3143198846	 0.11087
H	 2.737210575	-1.0002808874	 1.9352736949	 0.221922
30.937	180.8366	209.9182	219.9371	248.1645	297.3262	347.4038	369.08	389.9998	485.1465	560.0998	702.8096	786.8623	821.5683	844.4598	906.3338	926.7975	956.9902	972.6286	1008.5324	1018.1066	1044.2795	1078.2136	1080.0944	1105.3223	1141.2977	1154.8544	1198.7882	1250.0759	1263.8082	1275.6275	1341.397	1364.3262	1400.3015	1412.8932	1426.4091	1462.1737	1481.497	1489.6742	1498.0665	1500.3649	1511.6285	3035.0674	3036.4329	3071.2054	3093.2161	3095.3511	3103.5824	3112.0054	3130.8214	3135.9613	3202.5718	3473.2652	3510.8509
CC1NC1C1(C)CN1	C[C@H]1N[C@H]1[C@@]1(C)CN1	
InChI=1S/C6H12N2/c1-4-5(8-4)6(2)3-7-6/h4-5,7-8H,3H2,1-2H3	InChI=1S/C6H12N2/c1-4-5(8-4)6(2)3-7-6/h4-5,7-8H,3H2,1-2H3/t4-,5-,6-/m1/s1
