18
gdb 71441	3.99247	1.37668	1.23659	2.7119	75.36	-0.2323	-0.0153	0.217	1043.4963	0.148398	-401.937186	-401.929761	-401.928816	-401.968805	29.606	
C	-0.0268469865	 1.5204938804	 0.0142416309	-0.493893
C	-0.0477958908	 0.0228925864	 0.0514407658	 0.342831
C	-1.3058973059	-0.8579818983	-0.0287370034	-0.303178
C	-0.496958945	-2.0141239939	 0.6684030361	-0.166339
C	 0.6122783692	-0.9702203981	 0.9596833445	-0.117182
N	 1.1633925475	-0.7054262259	-0.3750530196	-0.137822
C	 1.0041010071	-1.8899607169	-1.2233143223	-0.287006
C	 0.0762101308	-2.8570593441	-0.4591709255	 0.416007
O	-0.1457582824	-4.0078777407	-0.724344715	-0.321587
H	 0.9698011921	 1.8941020256	 0.2618896302	 0.136378
H	-0.2859837761	 1.8892466643	-0.9852570132	 0.124512
H	-0.7478721522	 1.9405758198	 0.7235806858	 0.118919
H	-2.0876282415	-0.4846905231	 0.636818193	 0.119445
H	-1.7442591272	-1.0592958467	-1.0126837385	 0.106036
H	-0.9855372023	-2.568484986	 1.4649380695	 0.093272
H	 1.2265248617	-0.862003276	 1.8459383823	 0.098263
H	 0.5896273877	-1.6461170058	-2.2071262116	 0.133237
H	 1.9809026337	-2.3574273608	-1.383852659	 0.138108
113.4475	187.6222	221.2814	292.4715	327.8107	437.3954	443.2082	506.7694	610.9444	667.655	723.8855	727.6486	767.629	818.6709	863.1778	914.7118	923.1485	963.5278	968.3861	1011.9164	1028.009	1050.1101	1115.6539	1136.8684	1158.4086	1183.9917	1192.3567	1222.0473	1243.1314	1244.6579	1277.2594	1292.9616	1398.4277	1434.8432	1461.252	1484.2084	1489.8386	1498.9722	1855.717	3030.2425	3039.8748	3052.4838	3090.3269	3093.4195	3107.1995	3123.1484	3159.649	3182.6387
CC12CC3C1N2CC3=O	C[C@]12C[C@@H]3[C@H]1N2CC3=O	
InChI=1S/C7H9NO/c1-7-2-4-5(9)3-8(7)6(4)7/h4,6H,2-3H2,1H3	InChI=1S/C7H9NO/c1-7-2-4-5(9)3-8(7)6(4)7/h4,6H,2-3H2,1H3/t4-,6+,7-,8?/m0/s1
