25
gdb 122426	5.26396	0.56161	0.54106	1.0858	91.26	-0.2492	0.0867	0.336	2164.6944	0.227735	-389.478354	-389.467651	-389.466706	-389.515038	38.728	
C	-0.0462369422	 1.4064453322	-0.007883543	-0.226818
O	 0.1533699425	 0.0176232211	-0.0903472211	-0.229031
C	 0.6544088412	-0.5379298698	 1.1068798353	-0.046998
C	 0.8318479189	-2.0386733172	 0.9152003758	-0.228226
C	 1.3634432727	-2.7375181209	 2.1592301994	 0.047467
C	 0.4475081706	-2.8806685878	 3.4100817005	-0.239268
C	 1.0237246943	-4.3083459954	 3.6268802849	 0.059271
C	 0.0963783451	-5.4203534402	 4.0909362124	-0.40669
C	 1.4996375907	-4.2852283462	 2.1466776793	-0.25768
H	 0.892083603	 1.9446385329	 0.2040447498	 0.100272
H	-0.4331947646	 1.7417041771	-0.973561375	 0.124359
H	-0.7736744831	 1.6713507585	 0.7767356004	 0.100423
H	 1.6186740257	-0.0684427033	 1.3723839028	 0.079727
H	-0.0389737906	-0.3345121629	 1.9418748831	 0.085557
H	-0.1347094673	-2.4717229167	 0.6281131922	 0.098374
H	 1.5126819479	-2.2041123351	 0.0706614376	 0.102306
H	 2.3198087372	-2.2884178447	 2.455427187	 0.066002
H	 0.554614594	-2.1537949798	 4.2197741819	 0.09057
H	-0.6090071166	-2.9233730969	 3.1191289084	 0.092935
H	 1.8949072317	-4.2522152765	 4.2901438057	 0.068531
H	-0.7828674767	-5.4950567274	 3.4406379724	 0.10946
H	 0.6019840974	-6.3927471149	 4.0794277223	 0.112416
H	-0.2594582727	-5.2437123349	 5.112455304	 0.111918
H	 0.7519869989	-4.739617622	 1.4858255874	 0.093589
H	 2.477166882	-4.7142645092	 1.9105890463	 0.091534
49.4513	72.3893	92.0164	114.2936	150.3223	227.0345	236.878	273.3855	297.4572	336.8985	389.1496	436.3889	485.6071	607.6404	780.2655	801.4623	811.1772	896.434	910.6506	947.8937	957.131	987.8	992.1754	1034.213	1080.7497	1099.42	1141.2575	1146.5813	1164.1361	1175.6766	1195.93	1224.0813	1229.5319	1234.0897	1258.5151	1266.3896	1274.3532	1295.4168	1311.0073	1323.629	1369.3944	1395.3968	1412.0502	1427.1461	1476.0951	1481.2721	1485.4995	1490.3146	1495.0846	1496.655	1503.3993	1506.6629	1531.7933	2938.3038	2963.8579	2965.6594	3004.7265	3019.8528	3020.9314	3024.9834	3030.377	3031.9089	3040.7717	3066.5299	3087.6443	3087.8108	3091.8326	3099.5006	3109.6508
COCCC1CC(C)C1	COCC[C@H]1C[C@@H](C)C1	
InChI=1S/C8H16O/c1-7-5-8(6-7)3-4-9-2/h7-8H,3-6H2,1-2H3	InChI=1S/C8H16O/c1-7-5-8(6-7)3-4-9-2/h7-8H,3-6H2,1-2H3/t7-,8+
