16
gdb 18138	3.39873	1.90587	1.52023	1.7048	70.03	-0.2379	0.0191	0.257	870.3645	0.129004	-346.519929	-346.512348	-346.511403	-346.551571	28.794	
C	-0.1093270162	 1.4980719996	-0.1852412879	-0.418445
C	 0.0372597523	 0.0061022958	 0.0130057588	-0.021627
C	 1.3212176516	-0.7425227519	-0.1502482386	 0.074685
O	 2.4425669715	 0.0384368376	 0.287176779	-0.291278
C	 1.9537571147	-0.0101272665	 1.6629724576	-0.059252
C	 1.9285833532	 1.2653673327	 2.3603369676	 0.324975
C	 1.9282202953	 2.2947251015	 2.9813204616	-0.43409
C	 0.6586478804	-0.6956607067	 1.2113516147	-0.167192
H	 0.8291241645	 2.0154411624	 0.0183778804	 0.146178
H	-0.3962584058	 1.7123113207	-1.2204430516	 0.112841
H	-0.8795375159	 1.9137034325	 0.4719351134	 0.118144
H	-0.8071116449	-0.5810864317	-0.3472768373	 0.091338
H	 1.5206563302	-1.5504755543	-0.844715698	 0.104376
H	 2.5795438224	-0.7153465345	 2.2254796085	 0.114347
H	 1.9181082033	 3.2107375909	 3.5189780657	 0.201852
H	 0.1481495533	-1.4600827179	 1.781131406	 0.103148
114.7569	148.616	179.8507	255.614	264.1132	397.0814	508.2121	541.14	615.2025	619.0689	677.875	726.5585	757.5181	812.723	869.816	931.8345	970.5183	998.7781	1013.597	1041.8551	1058.4938	1081.9599	1105.4383	1139.2215	1202.4474	1246.0107	1275.8231	1330.3804	1359.6138	1414.5556	1440.4676	1491.8724	1500.6171	2233.4614	3016.785	3039.4947	3097.1628	3116.3884	3146.6258	3178.674	3204.775	3501.2205
CC1C2OC(C#C)C12	C[C@H]1[C@H]2O[C@@H](C#C)[C@@H]12	
InChI=1S/C7H8O/c1-3-5-6-4(2)7(6)8-5/h1,4-7H,2H3	InChI=1S/C7H8O/c1-3-5-6-4(2)7(6)8-5/h1,4-7H,2H3/t4-,5+,6-,7-/m1/s1
