21
gdb 108517	2.56214	1.49314	1.20572	2.4792	77.09	-0.2458	0.076	0.3218	1121.2703	0.183993	-424.22369	-424.2153	-424.214356	-424.256828	32.696	
O	 0.1271036341	 1.3738366049	 0.259286589	-0.425149
C	 0.1061164977	-0.0410266812	 0.2133870226	-0.127644
C	-1.2877336964	-0.5659408385	-0.0649947423	 0.411245
C	-2.3522751448	-0.4041149321	 1.0622678245	-0.278346
C	-2.5799674393	-1.9434783247	 1.0626185305	-0.230821
C	-1.5518504152	-2.1071646379	-0.0959418726	-0.084911
C	-2.120852064	-2.3508625531	-1.5008203181	-0.233325
C	-2.60359788	-0.9533119847	-1.9235454529	-0.094692
O	-1.6815817682	-0.0433150896	-1.3332333282	-0.311907
H	-0.3018080465	 1.6704212794	-0.5520264621	 0.292606
H	 0.7926306924	-0.4320916524	-0.5555586318	 0.083102
H	 0.4547323495	-0.3953288498	 1.1891922852	 0.101031
H	-1.9573256443	 0.0134548353	 1.9907774466	 0.109932
H	-3.2147128358	 0.192962489	 0.7573032687	 0.105637
H	-2.2812037345	-2.4409003837	 1.987978476	 0.103602
H	-3.5964548399	-2.2660376593	 0.8193300801	 0.096396
H	-0.6999969727	-2.7529397387	 0.1275276435	 0.069342
H	-1.3279620991	-2.6898417671	-2.1749213888	 0.10739
H	-2.9220498822	-3.0955319412	-1.5179376101	 0.102257
H	-2.5945005189	-0.7878453917	-3.0039754224	 0.110211
H	-3.624941352	-0.7624466328	-1.5583771474	 0.094045
74.1192	109.8449	167.6676	213.4047	309.4377	335.4397	417.3004	428.7749	451.5031	598.7819	644.7295	677.9823	739.955	814.7545	842.1097	896.2397	903.9484	926.152	952.5928	965.1661	1001.8065	1041.5606	1049.8469	1077.8776	1095.3772	1130.4068	1140.7987	1157.1629	1219.7945	1224.8057	1230.7622	1250.7347	1257.8619	1278.1103	1311.6809	1321.4683	1337.8285	1376.299	1385.626	1437.507	1472.3517	1483.8847	1489.9767	1496.8959	1518.3868	2970.8481	2982.4618	3049.6096	3055.0536	3069.6026	3072.5288	3082.6208	3091.2722	3100.723	3105.4424	3127.0182	3797.508
OCC12CCC1CCO2	OC[C@]12CC[C@H]1CCO2	
InChI=1S/C7H12O2/c8-5-7-3-1-6(7)2-4-9-7/h6,8H,1-5H2	InChI=1S/C7H12O2/c8-5-7-3-1-6(7)2-4-9-7/h6,8H,1-5H2/t6-,7+/m0/s1
