18
gdb 113483	4.50687	0.94025	0.93209	2.7993	72.42	-0.2393	0.0653	0.3045	1304.7898	0.147184	-439.003744	-438.995489	-438.994544	-439.037024	31.39	
O	 0.0570549989	 1.2837206713	-0.5336318272	-0.418146
C	 0.0431025681	 0.1385897997	 0.3023784887	-0.080504
C	-1.329874311	-0.478292799	 0.3679419979	-0.074346
O	-1.7408002265	-1.1542612795	-0.8511680633	-0.313329
C	-1.5527906153	-1.9209024286	 0.3247887481	 0.482353
C	-0.5966183916	-3.140326104	 0.3567169196	-0.320194
C	-1.7545898585	-3.9420520355	 0.974689343	-0.043941
N	-2.1179074629	-3.2390009396	 2.2262815395	-0.334723
C	-2.6643354046	-2.7620064058	 0.9245878474	-0.172772
H	-0.2681772839	 0.9983322368	-1.3950947534	 0.29224
H	 0.769130783	-0.6165361521	-0.0338407519	 0.092306
H	 0.3466027491	 0.4783255806	 1.2984575552	 0.11677
H	-2.1069890264	 0.1567094621	 0.7948711185	 0.098847
H	-0.3511534615	-3.4541323139	-0.6606346611	 0.121361
H	 0.309165931	-3.0653841489	 0.9625325837	 0.114449
H	-1.9770955459	-4.9919114665	 0.8352170909	 0.101577
H	-2.8594417176	-3.7791903678	 2.6728753292	 0.23284
H	-3.7286931345	-2.6866490594	 0.7419335454	 0.105212
65.2508	113.4259	149.2377	203.4876	332.1657	386.3646	409.5437	441.004	475.499	505.3897	640.2718	765.4563	813.8611	825.1686	839.8789	891.5619	913.5803	956.1828	972.5051	997.9367	1029.3964	1058.0324	1081.758	1096.2938	1104.4066	1122.6713	1166.7974	1170.583	1216.3484	1225.4633	1291.6531	1314.0365	1327.0628	1361.4945	1387.5677	1424.6249	1462.6447	1490.835	1524.2718	2996.64	3067.9533	3075.6397	3111.782	3129.6764	3195.209	3207.9646	3466.794	3800.8842
OCC1OC11CC2NC12	OC[C@H]1O[C@]21C[C@H]1N[C@@H]21	
InChI=1S/C6H9NO2/c8-2-4-6(9-4)1-3-5(6)7-3/h3-5,7-8H,1-2H2	InChI=1S/C6H9NO2/c8-2-4-6(9-4)1-3-5(6)7-3/h3-5,7-8H,1-2H2/t3-,4-,5-,6+/m1/s1
