18
gdb 6613	4.36362	1.43541	1.33393	1.3194	68.2	-0.2549	0.0683	0.3232	980.9146	0.151568	-384.909549	-384.901437	-384.900493	-384.941854	31.335	
C	-0.2049584083	 1.5439494978	-0.0388228423	-0.451235
C	-0.0211951089	 0.0311949987	-0.0144463191	 0.415584
O	-1.251653144	-0.6472139688	-0.1753307226	-0.478932
C	 1.1641553515	-0.4701928318	-0.9157235243	-0.362662
C	 1.9875029962	-0.6401839504	 0.3622122761	 0.449669
C	 3.2737198554	-1.2855030133	 0.6088769387	-0.267237
O	 3.1508514349	 0.1452993742	 0.5983556798	-0.273091
C	 0.7414211861	-0.4934844317	 1.2369781547	-0.339591
H	 0.7437932467	 2.059945124	 0.1368605279	 0.136201
H	-0.5848881718	 1.8728230721	-1.0145939286	 0.105325
H	-0.9184302927	 1.8522772364	 0.7317469391	 0.124258
H	-1.7006763677	-0.2766421745	-0.9429522125	 0.274661
H	 0.9162455726	-1.4241854011	-1.3890016101	 0.107425
H	 1.5673462811	 0.2237523969	-1.6576438731	 0.106174
H	 3.4816652034	-1.7281619794	 1.5827250735	 0.113339
H	 3.8361604255	-1.7111456183	-0.2218012606	 0.112508
H	 0.8253867619	 0.1810777983	 2.0920624557	 0.111281
H	 0.3340364179	-1.454951039	 1.5600625077	 0.116321
51.2921	245.525	262.3245	279.2093	298.6421	317.8453	354.5442	370.87	435.3345	471.452	532.6811	704.9103	800.3858	826.8049	866.3131	893.5476	902.2166	930.4424	975.4785	983.8367	1049.0186	1108.5428	1123.7555	1134.0007	1168.4715	1178.1643	1204.9814	1210.2338	1256.9407	1291.0196	1374.9857	1409.0216	1433.1795	1448.4982	1475.0265	1493.7903	1497.7093	1538.8372	3020.8758	3056.2982	3065.3927	3075.744	3090.2305	3115.0169	3120.0393	3125.6217	3160.2596	3801.4493
CC1(O)CC2(CO2)C1	C[C@@]1(O)C[C@]2(CO2)C1	
InChI=1S/C6H10O2/c1-5(7)2-6(3-5)4-8-6/h7H,2-4H2,1H3	InChI=1S/C6H10O2/c1-5(7)2-6(3-5)4-8-6/h7H,2-4H2,1H3/t5-,6-
