18
gdb 109453	2.39869	1.49694	1.02441	1.7766	74.82	-0.2529	0.0155	0.2684	1188.2968	0.146133	-439.049983	-439.041175	-439.040231	-439.083743	32.392	
C	-0.2235637141	 1.3470784707	 0.2026040369	-0.247526
O	 0.4301715441	 0.1080742913	-0.0319652117	-0.243709
C	 0.8485755092	-0.5195737704	 1.1403151659	-0.100608
C	-0.194121973	-1.2936677675	 1.9510325054	 0.415057
N	-1.2551761025	-0.9935169764	 2.5468978702	-0.554642
O	 0.4408443861	-2.509579021	 1.784910226	-0.272514
C	 1.4439941306	-1.905257305	 0.9273692741	 0.428259
C	 1.9064296347	-2.5490708414	-0.3257673679	-0.320602
C	 2.8438812679	-2.3969707887	 0.8690561204	-0.344957
H	 0.4441187403	 2.05691277	 0.7144501627	 0.107077
H	-0.4913754663	 1.7506985771	-0.7758801703	 0.129694
H	-1.1281061711	 1.2139593997	 0.8071442279	 0.149377
H	 1.4602127067	 0.1500965481	 1.764240313	 0.095836
H	-1.7043282106	-1.8166203638	 2.9534576519	 0.230023
H	 1.531994047	-3.5436998073	-0.5406797181	 0.132459
H	 2.0466483175	-1.9099082147	-1.1902847687	 0.13808
H	 3.6449744112	-1.6667551702	 0.8190366466	 0.125871
H	 3.0776463824	-3.2926296505	 1.4340489959	 0.132824
85.2195	102.8526	149.1892	177.6515	232.3914	248.4478	328.5141	385.5526	446.4125	517.7634	546.1475	678.6027	759.2007	816.615	864.3438	877.1925	898.9043	933.2714	969.7288	1012.2735	1036.6487	1046.6887	1053.5806	1074.8774	1167.2704	1183.6039	1184.4937	1184.641	1227.8288	1242.1974	1306.8119	1363.5982	1409.1807	1449.8561	1480.3117	1486.2367	1504.7791	1513.0869	1826.5249	2987.5396	2992.2749	3069.1554	3130.2594	3132.8947	3140.399	3218.4967	3234.3362	3467.1153
COC1C(=N)OC11CC1	CO[C@H]1[C]([NH])OC21CC2	
InChI=1S/C6H9NO2/c1-8-4-5(7)9-6(4)2-3-6/h4,7H,2-3H2,1H3	InChI=1S/C6H9NO2/c1-8-4-5(7)9-6(4)2-3-6/h4,7H,2-3H2,1H3/t4-/m0/s1
