17
gdb 48942	3.79141	1.45777	1.26229	2.8376	72.35	-0.2441	-0.0388	0.2053	1000.3243	0.136062	-421.784739	-421.777639	-421.776695	-421.816377	27.868	
O	-0.7166444827	 0.9505682942	 0.5976361075	-0.258645
C	 0.3006038536	 0.8066784109	-0.0339486056	 0.06997
C	 1.4073240984	 1.8157745286	-0.0645678488	 0.348189
C	 1.6578284509	 2.7415130714	 1.1496994519	-0.272838
C	 2.0875094766	 3.8772754649	 0.1877125773	-0.057428
C	 3.4857517891	 3.6202699373	-0.4422244505	-0.240299
C	 2.8627916739	 2.5396033536	-1.3560741417	 0.102627
O	 2.624451726	 1.3019933891	-0.6438954473	-0.345246
C	 1.446036527	 3.0742101778	-1.0072754291	-0.139633
H	 0.4866862966	-0.0863869264	-0.6702398986	 0.09077
H	 0.6987417524	 2.9603752535	 1.6274200952	 0.129744
H	 2.3756064732	 2.3868155945	 1.8936737406	 0.106795
H	 1.8244187794	 4.9004968938	 0.4515623229	 0.078166
H	 3.8078119838	 4.4799113062	-1.0389093465	 0.106819
H	 4.3018416405	 3.3053895668	 0.2136254745	 0.107599
H	 3.2730018323	 2.362641712	-2.3516344688	 0.084255
H	 0.6620198391	 3.3940850818	-1.6879174831	 0.089155
88.8075	180.5001	205.3527	333.2357	350.2942	448.0361	483.1814	639.218	708.245	749.1655	793.5468	832.5625	838.0719	866.3214	896.4423	946.1018	959.0502	975.4719	993.0345	1024.5443	1081.0262	1106.5601	1117.4058	1136.5047	1143.5478	1168.7459	1214.3857	1227.7579	1249.0581	1268.0915	1297.5704	1308.0595	1333.1028	1398.0266	1462.1965	1474.8842	1817.803	2897.4113	3048.5923	3059.3086	3096.7099	3107.8832	3117.3555	3123.3796	3157.6843
O=CC12CC3CC(O1)C23	O=C[C@@]12C[C@H]3C[C@@H](O1)[C@@H]23	
InChI=1S/C7H8O2/c8-3-7-2-4-1-5(9-7)6(4)7/h3-6H,1-2H2	InChI=1S/C7H8O2/c8-3-7-2-4-1-5(9-7)6(4)7/h3-6H,1-2H2/t4-,5-,6+,7-/m1/s1
