14
gdb 33814	2.34058	1.54841	1.14336	4.3114	75.58	-0.2559	-0.027	0.2288	1065.1471	0.099433	-399.478482	-399.470556	-399.469612	-399.511032	29.724	
C	 0.0061766801	-1.2274774396	-0.0311727075	-0.388841
C	 0.005150935	-0.0245396093	-0.021003382	 0.212009
C	-0.0153148684	 1.3921064954	 0.0095255377	 0.016988
C	 0.2489998189	 2.2781324885	-1.1950328978	-0.363971
C	 1.1327037361	 2.4369933517	 0.0035839753	 0.300037
O	 0.5022245018	 3.2334549005	 0.9970101183	-0.308641
C	-0.5705767967	 2.2624082207	 1.1429143035	-0.129101
C	 2.5507818193	 2.2837586853	 0.0193871626	 0.243148
N	 3.6997356493	 2.1482670019	 0.0224548155	-0.340736
H	 0.0164653712	-2.2895801515	-0.0415066475	 0.202153
H	 0.6868659985	 1.7563050249	-2.0384589428	 0.157504
H	-0.4303692318	 3.0911699965	-1.4351132412	 0.137185
H	-1.558273959	 2.7074842285	 0.9883376619	 0.124338
H	-0.5138846943	 1.7745355465	 2.1195249539	 0.137927
85.9883	151.6139	173.705	216.8241	335.2431	413.7006	426.0934	507.951	536.1723	565.6737	603.8962	628.3717	667.7773	674.329	778.4863	819.7565	929.0502	971.0899	987.6193	1040.752	1085.2188	1113.4729	1152.4707	1197.4443	1271.4979	1331.4231	1385.9768	1470.1734	1515.4429	2238.5847	2349.8056	3050.7669	3112.8952	3124.9267	3231.5359	3500.1623
C#CC12CC1(OC2)C#N	C#C[C@]12C[C@]1(OC2)C#N	
InChI=1S/C7H5NO/c1-2-6-3-7(6,4-8)9-5-6/h1H,3,5H2	InChI=1S/C7H5NO/c1-2-6-3-7(6,4-8)9-5-6/h1H,3,5H2/t6-,7+/m1/s1
