20
gdb 110380	2.66086	1.52754	1.2936	2.3248	77.49	-0.2248	0.0562	0.2811	1062.8772	0.172401	-403.052688	-403.044658	-403.043714	-403.085468	31.638	
O	 0.1942935	 1.0411252374	 1.004543814	-0.428955
C	 0.1129341776	 0.0598361228	-0.0219961272	-0.101914
C	-1.2637544716	-0.5734779339	-0.0481397077	 0.000144
C	-1.7303408719	-1.9453466533	-0.3158343667	-0.08771
C	-0.9780608889	-3.1340276492	 0.3110483413	-0.021311
C	 0.5685145308	-3.1325768435	 0.4831160257	-0.252394
C	 0.4000024295	-2.3945793108	 1.8578464619	-0.257407
C	-1.1453417149	-2.4270151538	 1.6658342245	 0.036961
N	-1.953103326	-1.2820828438	 1.0647311376	-0.198075
H	-0.3140313359	 0.710310257	 1.7530237301	 0.294321
H	 0.2536924331	 0.5910476374	-0.9708227418	 0.108627
H	 0.9269567267	-0.660239545	 0.0608779209	 0.098619
H	-1.985288415	 0.1576381272	-0.417430826	 0.111013
H	-2.572352627	-2.103228355	-0.9857714366	 0.096748
H	-1.4559897258	-4.0905343996	 0.1019099354	 0.077291
H	 0.9673600675	-4.1430750699	 0.600172455	 0.105281
H	 1.1520421607	-2.6341948059	-0.2927367027	 0.109649
H	 0.7096468951	-3.0114269858	 2.7056132838	 0.104454
H	 0.8678658963	-1.4167413951	 1.9754105838	 0.119456
H	-1.7281728904	-2.8519329071	 2.4831415347	 0.085203
52.3193	146.2749	239.6434	271.2074	281.2698	316.0939	360.4993	534.8863	615.4265	648.1475	663.9479	694.8833	737.5021	837.0208	853.3242	871.5785	892.8684	915.7723	957.6198	984.9866	1021.9446	1047.503	1057.65	1084.392	1095.8735	1129.409	1153.5614	1176.8523	1213.9517	1228.7205	1237.6794	1266.0828	1271.0417	1290.4251	1306.4344	1319.946	1340.2916	1374.2322	1419.6132	1465.7286	1480.9754	1495.5134	1529.7899	3043.9873	3065.4705	3071.4293	3088.0755	3101.1158	3109.8084	3116.3337	3118.4423	3132.8038	3136.2663	3808.6369
OCC1C2C3CCC3N12	OC[C@H]1[C@H]2[C@H]3CC[C@H]3N12	
InChI=1S/C7H11NO/c9-3-6-7-4-1-2-5(4)8(6)7/h4-7,9H,1-3H2	InChI=1S/C7H11NO/c9-3-6-7-4-1-2-5(4)8(6)7/h4-7,9H,1-3H2/t4-,5+,6-,7+,8?/m0/s1
