15
gdb 26835	3.63255	1.12546	0.86361	5.515	79.07	-0.1998	-0.0381	0.1616	1260.7638	0.113173	-453.981257	-453.972811	-453.971867	-454.014261	31.168	
N	 0.1115149468	 1.338642129	 0.0835991935	-0.592877
C	-0.0192623002	-0.0188087733	 0.0248789537	 0.404224
C	-1.1587294354	-0.8038280378	 0.0201815782	 0.107879
N	-2.4679673347	-0.2491121876	-0.0099804331	-0.621561
C	-0.6832063894	-2.1403013183	 0.0236044763	-0.309764
C	 0.6898739682	-2.0910129303	 0.0233599994	 0.243838
O	 1.0909483348	-0.7623667784	 0.0351597332	-0.191403
C	 1.6853779343	-3.128168085	 0.0065903637	 0.056857
O	 2.8908923696	-2.972246665	 0.0025334611	-0.308571
H	 0.958228063	 1.7144321754	-0.3182005234	 0.269413
H	-0.7334772291	 1.8227756137	-0.187439982	 0.271535
H	-2.9273899612	-0.308785026	 0.8941329365	 0.245279
H	-3.0614902914	-0.7300849646	-0.6773832806	 0.243012
H	-1.2757862855	-3.0438281849	 0.0150493591	 0.120652
H	 1.22461208	-4.1423682268	-0.0027851255	 0.061488
105.2446	158.8972	161.391	233.6375	250.1979	287.5442	358.5176	384.68	424.2847	528.3574	589.7803	632.2053	660.2323	728.4043	738.3165	837.6397	850.3131	851.3878	960.2573	1009.7887	1086.5179	1146.7315	1198.9057	1244.262	1296.9087	1376.5279	1400.5956	1490.6794	1565.3907	1620.7937	1644.6323	1684.4252	1770.8684	2867.5455	3243.0699	3491.933	3559.5168	3564.3645	3672.3958
NC1=C(N)C=C(O1)C=O	Nc1c(N)cc(o1)C=O	
InChI=1S/C5H6N2O2/c6-4-1-3(2-8)9-5(4)7/h1-2H,6-7H2	InChI=1S/C5H6N2O2/c6-4-1-3(2-8)9-5(4)7/h1-2H,6-7H2
