12
gdb 23995	5.63458	0.96073	0.82078	3.5919	82.82	-0.2466	-0.0597	0.1869	1270.1504	0.078961	-394.551374	-394.543954	-394.54301	-394.583515	27.198	
C	 0.114333477	-1.1513657329	-0.0041860295	-0.370057
C	 0.0079962798	 0.0468458038	 0.0033265484	 0.251305
C	-0.0870160777	 1.4558086988	 0.0117323578	 0.210273
N	-1.202421989	 2.1796789358	 0.0309772852	-0.291286
C	-0.8030405318	 3.4755225661	 0.0319090251	-0.157186
C	 0.5792745057	 3.5638853474	 0.0130224781	 0.208003
N	 1.0187323201	 2.2572054501	 0.0003419358	-0.36064
C	 1.4522197946	 4.6703444183	 0.0063817542	 0.195703
N	 2.1741321778	 5.5771108456	 0.0008505	-0.333604
H	 0.1943384271	-2.2109015758	-0.0106401112	 0.210521
H	-1.5070511201	 4.2930973629	 0.0458622008	 0.144684
H	 1.9786969467	 1.95099204	-0.0146067046	 0.292283
115.6112	116.4417	199.8272	206.5887	436.3307	492.7424	518.6298	529.1109	573.0994	594.2243	608.8266	661.894	678.0603	694.6188	746.503	885.6056	1005.1436	1042.1326	1194.6001	1213.0489	1304.7221	1380.0838	1407.4604	1479.1748	1576.9166	2241.895	2340.2248	3262.8327	3498.1806	3655.4294
C#CC1=NC=C(N1)C#N	C#Cc1ncc([nH]1)C#N	
InChI=1S/C6H3N3/c1-2-6-8-4-5(3-7)9-6/h1,4H,(H,8,9)	InChI=1S/C6H3N3/c1-2-6-8-4-5(3-7)9-6/h1,4H,(H,8,9)
