20
gdb 23061	3.30985	1.08263	0.97374	0.4842	83.31	-0.2258	0.0132	0.239	1296.1364	0.169567	-403.085571	-403.076237	-403.075293	-403.12053	34.65	
C	 0.0550421965	 1.4877876353	 0.0338430615	-0.479261
C	 0.063641829	-0.0192668451	 0.0529955861	 0.223668
N	 0.0453067897	-0.7194771468	 1.1251108508	-0.185957
O	-0.0235083125	 0.0969744942	 2.2703541867	-0.402229
C	 0.0630613633	-0.7541506461	-1.2277182719	 0.328641
C	-1.1713683292	-1.4648931309	-1.7485328183	-0.308615
C	 0.0772196851	-2.2588130715	-1.5035076706	-0.097512
C	 1.0630153357	-2.053361173	-2.6594275657	-0.224881
C	 1.0349564655	-0.5099398532	-2.3969450386	-0.29732
H	 0.8326154413	 1.8834365455	 0.6934173597	 0.146149
H	 0.2036498858	 1.8721690949	-0.9768866375	 0.120846
H	-0.8997435255	 1.8656009263	 0.4158269398	 0.146368
H	 0.0037681045	-0.5530761486	 2.9798660932	 0.303674
H	-1.9568710585	-1.5949091146	-1.0121354679	 0.121144
H	-1.5207397203	-1.2804578703	-2.7632159022	 0.100671
H	 0.106449695	-3.0613446618	-0.7781425034	 0.099683
H	 2.0478818247	-2.4828745539	-2.4657904628	 0.106601
H	 0.7216768935	-2.3908656654	-3.6435996543	 0.096538
H	 0.664126848	 0.1241407464	-3.2090928976	 0.093663
H	 2.0061209984	-0.1295639414	-2.0721195471	 0.108129
41.926	60.3499	135.1963	146.7329	254.8591	288.4942	349.2341	379.0925	419.0231	437.3758	503.7148	579.5197	692.9347	732.6697	787.1274	845.0169	856.9678	920.0476	938.5199	959.5844	968.6074	1011.3144	1022.6907	1040.6823	1041.986	1079.3905	1102.3712	1128.6953	1178.0847	1215.7196	1224.0915	1241.306	1286.9608	1305.216	1367.7657	1397.9527	1431.9353	1474.0103	1478.282	1481.621	1490.0648	1510.2497	1708.8422	3041.0024	3043.2271	3050.1002	3096.9076	3097.5361	3102.4858	3116.1413	3136.561	3198.4893	3209.4224	3823.1231
CC(=NO)C12CC1CC2	CC(=NO)[C@]12C[C@H]1CC2	
InChI=1S/C7H11NO/c1-5(8-9)7-3-2-6(7)4-7/h6,9H,2-4H2,1H3	InChI=1S/C7H11NO/c1-5(8-9)7-3-2-6(7)4-7/h6,9H,2-4H2,1H3/t6-,7+/m1/s1
