12
gdb 27020	2.9211	1.37979	0.94264	3.9431	65.14	-0.2669	-0.0611	0.2058	1128.0918	0.07701	-472.689827	-472.682189	-472.681245	-472.722357	27.008	
C	 0.1528949621	 1.5193984256	 0.0590060822	-0.499492
C	-0.0179232879	 0.0523037759	 0.0386348022	 0.245364
C	-1.0871718004	-0.7509804834	-0.0898001336	 0.146797
O	-0.6687822368	-2.0753156318	-0.0397627879	-0.238859
C	 0.6860044469	-2.0631558124	 0.1225132132	 0.499955
O	 1.3966103755	-3.0050328755	 0.2077730884	-0.345329
O	 1.0905748738	-0.7420338494	 0.1714632141	-0.227509
C	-2.4526344361	-0.4540603223	-0.2531441172	 0.237575
N	-3.5708787659	-0.183024919	-0.3875017489	-0.325909
H	 0.8138531591	 1.8409142357	-0.7527874578	 0.168796
H	-0.8154518823	 2.0095765936	-0.0564108919	 0.169835
H	 0.6053848618	 1.8401927931	 1.003194017	 0.168776
130.0711	136.8326	161.7258	197.9394	282.8149	314.2111	467.6273	506.3427	560.3203	618.8224	657.6244	667.9607	770.8011	813.9366	938.5189	968.2144	1037.4962	1063.6926	1197.8119	1282.9589	1332.7513	1422.8584	1465.443	1478.2725	1727.8955	1961.3555	2346.59	3043.3985	3102.541	3146.5789
CC1=C(OC(=O)O1)C#N	Cc1c(oc(=O)o1)C#N	
InChI=1S/C5H3NO3/c1-3-4(2-6)9-5(7)8-3/h1H3	InChI=1S/C5H3NO3/c1-3-4(2-6)9-5(7)8-3/h1H3
