21
gdb 53485	3.81228	0.75178	0.73302	0.9158	94.16	-0.2443	0.0438	0.2882	1668.45	0.177889	-349.909348	-349.897893	-349.896949	-349.947759	40.723	
C	 0.1194757653	 1.5239655616	 0.0340466986	-0.49924
C	 0.0599566279	 0.0687115418	 0.0414064502	 0.082651
C	 0.024199765	-1.1355607313	 0.0479615864	 0.050448
C	-0.0211468006	-2.5933632203	 0.0560867754	-0.366961
C	-1.4677726523	-3.1910047029	-0.0106795292	 0.05216
C	-2.2894345076	-2.7312400675	 1.2128298967	-0.401935
C	-2.1654528912	-2.7489452738	-1.3150236263	-0.401893
C	-1.3428968211	-4.6519392913	 0.0056493314	 0.345243
C	-1.229058183	-5.8489800845	 0.0195838546	-0.491885
H	 0.8043915049	 1.8906932781	-0.7385602577	 0.148087
H	-0.8651270561	 1.961962142	-0.1638989472	 0.147167
H	 0.4667422278	 1.9145834252	 0.997016269	 0.147636
H	 0.5527405493	-2.988333041	-0.7907946323	 0.131778
H	 0.4667310494	-2.9758452013	 0.9606523639	 0.131794
H	-2.3599168534	-1.6401384782	 1.2255333096	 0.126406
H	-3.2988895184	-3.1495353897	 1.1758618476	 0.1202
H	-1.8195222266	-3.0595323694	 2.1444342163	 0.11976
H	-1.6064782098	-3.0892150435	-2.1915161196	 0.119793
H	-3.1736961476	-3.1679839315	-1.3715041602	 0.120228
H	-2.2343663729	-1.6582060899	-1.3494826314	 0.126415
H	-1.1368230389	-6.9067580225	 0.0314942941	 0.192148
8.6247	58.4921	81.9275	158.2054	182.7646	208.9865	240.2644	256.6213	271.666	345.0694	354.9852	377.687	390.2487	467.9461	550.6982	551.3882	625.4164	637.9655	728.3705	779.4767	887.1492	895.8557	952.1791	981.1481	1040.3569	1053.5808	1054.2758	1135.8523	1165.6947	1209.1087	1227.5133	1283.0688	1341.5363	1394.2434	1414.9789	1417.5064	1467.3857	1478.5319	1479.564	1483.9012	1485.1706	1500.2695	1508.3576	2230.4134	2367.6107	3025.7636	3026.7377	3040.2596	3044.3048	3060.7653	3086.0814	3086.1279	3115.5845	3117.9343	3121.1503	3125.1415	3502.4029
CC#CCC(C)(C)C#C	CC#CCC(C)(C)C#C	
InChI=1S/C9H12/c1-5-7-8-9(3,4)6-2/h2H,8H2,1,3-4H3	InChI=1S/C9H12/c1-5-7-8-9(3,4)6-2/h2H,8H2,1,3-4H3
