20
gdb 62802	3.40887	1.13894	1.05054	4.1915	81.53	-0.2307	0.0257	0.2564	1229.2613	0.17001	-403.141331	-403.132311	-403.131367	-403.174998	33.968	
C	 0.2622410764	 1.5363318324	 0.0254303844	-0.473919
C	 0.1481114912	 0.0269113234	-0.0370351193	 0.309729
C	-1.1268530787	-0.5243370625	 0.5813122744	-0.451382
C	 0.6409487967	-0.7877930152	-1.2192328638	-0.134445
C	 1.9548088373	-0.2445964671	-1.8076047849	-0.205879
N	 2.5488974706	-0.3376660896	-0.4633625372	-0.035902
C	 3.5634304507	 0.387498338	 0.0695589719	 0.131383
O	 4.3358891229	 1.0689486424	-0.5724003882	-0.332609
C	 1.3426104225	-0.8864862253	 0.1372837169	-0.080026
H	 1.205524624	 1.9080632062	-0.3799938152	 0.14221
H	-0.5522679717	 2.0058958663	-0.5375141254	 0.120341
H	 0.1894032671	 1.8825220057	 1.0626609093	 0.11935
H	-2.009358563	-0.1544955385	 0.0477067123	 0.123389
H	-1.1528668105	-1.618462696	 0.5489078173	 0.116986
H	-1.2164097566	-0.2165126004	 1.6288144889	 0.121967
H	 0.0213589091	-1.5303245071	-1.7037893688	 0.099297
H	 2.4313753219	-0.9304617627	-2.5142641907	 0.126194
H	 1.9508563108	 0.7644303684	-2.2304156704	 0.129036
H	 3.628740121	 0.2534210407	 1.1696061521	 0.067236
H	 1.3891418384	-1.7024750889	 0.8499115065	 0.107043
56.6024	154.1785	188.7838	228.7589	245.0092	255.8183	300.4502	346.1479	357.2373	444.8063	482.8646	596.638	670.6554	769.4452	830.3628	838.5177	903.4041	942.7126	970.5241	981.9414	1016.2075	1033.3884	1037.3922	1060.341	1081.2902	1145.3357	1160.4407	1184.1704	1212.692	1253.215	1299.9448	1308.652	1382.8824	1404.4752	1412.7685	1428.0134	1440.1547	1482.3264	1490.5092	1500.2107	1511.4978	1516.2884	1789.6235	2917.4462	3026.6778	3032.957	3050.9472	3088.158	3092.7583	3098.135	3099.3395	3125.7421	3171.0573	3205.7751
CC1(C)C2CN(C=O)C12	CC1(C)[C@H]2CN(C=O)[C@@H]12	
InChI=1S/C7H11NO/c1-7(2)5-3-8(4-9)6(5)7/h4-6H,3H2,1-2H3	InChI=1S/C7H11NO/c1-7(2)5-3-8(4-9)6(5)7/h4-6H,3H2,1-2H3/t5-,6+/m0/s1
