21
gdb 122311	4.99713	0.69332	0.66625	1.8937	79.71	-0.232	0.0733	0.3053	1736.4831	0.181184	-424.166167	-424.15673	-424.155786	-424.20139	34.132	
C	-0.2031130145	 1.3811074271	-0.0107456407	-0.229672
O	 0.0198347499	-0.0065195491	 0.0479876056	-0.228526
C	 0.5858998587	-0.5242264329	-1.1346917997	-0.041808
C	 0.7905651348	-2.0267859348	-0.9526752785	-0.33498
C	 1.3948247861	-2.6781039146	-2.1630941573	 0.285956
C	 0.6016121219	-3.1262203538	-3.3822890392	-0.341624
C	 1.4421780859	-4.1139128057	-2.6348820819	 0.039419
O	 2.8083667576	-4.0257630278	-3.0464771284	-0.286789
C	 2.8763114965	-2.6629457591	-2.5476999896	-0.127174
H	 0.7338314185	 1.9404375682	-0.1641490665	 0.102897
H	-0.8976194168	 1.6509905069	-0.8225199436	 0.10299
H	-0.641728277	 1.6838754144	 0.9432522983	 0.127137
H	-0.0731000956	-0.3319437687	-1.998728459	 0.089241
H	 1.548770365	-0.0275350159	-1.3500004617	 0.084087
H	 1.4268805253	-2.1886289483	-0.0739472206	 0.109404
H	-0.1800053953	-2.4828232493	-0.7260449149	 0.109211
H	-0.4693419415	-3.1994571907	-3.215646401	 0.113591
H	 0.8949355176	-2.8319776375	-4.3867439355	 0.113148
H	 1.0989178882	-5.0463102693	-2.2005418132	 0.105141
H	 3.2046272528	-1.9527872646	-3.316403778	 0.102631
H	 3.546032252	-2.6052906843	-1.6806810546	 0.105718
54.6072	86.5222	101.9936	119.6472	234.369	251.4679	295.6834	325.8399	357.7528	460.0775	470.1076	704.5368	757.6847	797.7284	852.6778	910.4258	930.1905	979.9241	998.5688	1000.6796	1001.8995	1035.8067	1054.4394	1073.1867	1083.428	1132.1465	1158.7251	1164.0481	1179.9559	1215.004	1229.2667	1259.6253	1284.1386	1294.4432	1329.8159	1336.2428	1410.2205	1427.97	1481.3539	1483.3546	1486.2297	1486.593	1504.6623	1517.928	1531.1746	2942.775	2968.325	2972.9633	3010.1565	3014.4172	3030.8922	3063.1963	3074.2842	3109.8874	3113.0539	3175.915	3202.564
COCCC12CC1OC2	COCC[C@]12C[C@H]1OC2	
InChI=1S/C7H12O2/c1-8-3-2-7-4-6(7)9-5-7/h6H,2-5H2,1H3	InChI=1S/C7H12O2/c1-8-3-2-7-4-6(7)9-5-7/h6H,2-5H2,1H3/t6-,7-/m1/s1
