17
gdb 93390	2.86039	1.60582	1.21809	2.7497	69.62	-0.256	0.0033	0.2593	1020.1346	0.138559	-455.126373	-455.118892	-455.117948	-455.158478	29.304	
O	 0.089455573	 1.407993291	-0.1188647013	-0.434714
C	 0.0390067289	 0.0037883309	-0.0141104282	 0.121952
C	 0.7929892676	-0.5091452217	 1.2135521564	-0.11195
O	 0.0910300688	-0.279271306	 2.4482122897	-0.256403
C	-1.1403787331	-0.8507193299	 2.574069043	 0.415344
N	-1.5948335056	-1.2708880292	 3.6777088298	-0.520249
C	-1.9818557787	-0.8994145229	 1.3440871572	-0.087633
N	-2.2930115969	 0.4221634608	 0.7500041286	-0.339916
C	-1.4116379132	-0.4969364896	 0.0270315857	-0.096555
H	-0.6658064372	 1.7287970835	 0.3971901518	 0.295677
H	 0.5400345694	-0.4039077051	-0.9002661568	 0.089499
H	 0.9987869446	-1.5840462736	 1.1105433594	 0.101744
H	 1.7385461317	 0.0256817351	 1.3169612963	 0.130914
H	-0.8905789647	-1.1543202172	 4.4101494268	 0.223852
H	-2.7761333216	-1.6360327609	 1.3855133341	 0.118969
H	-3.2320830524	 0.4207324317	 0.363795668	 0.249256
H	-1.7969996506	-0.9839382368	-0.8636728906	 0.100214
71.6355	173.4828	229.032	317.4501	370.2702	390.1711	482.7295	496.4316	514.0507	640.3615	703.2066	751.8052	794.3099	842.9785	871.8059	918.2601	930.9165	940.4249	957.0602	985.033	1060.3431	1108.7548	1109.5358	1143.3343	1161.106	1194.7026	1241.6057	1279.1436	1314.9895	1329.185	1342.0058	1390.7957	1414.8895	1441.6216	1455.5687	1490.493	1754.0558	3007.8393	3043.0179	3123.9544	3152.722	3184.8625	3459.9918	3525.8545	3708.5676
OC1COC(=N)C2NC12	O[C@H]1CO[C]([NH])[C@H]2N[C@@H]12	
InChI=1S/C5H8N2O2/c6-5-4-3(7-4)2(8)1-9-5/h2-4,6-8H,1H2	InChI=1S/C5H8N2O2/c6-5-4-3(7-4)2(8)1-9-5/h2-4,6-8H,1H2/t2-,3-,4-/m0/s1
