16
gdb 21072	3.45952	2.0283	1.30126	2.178	68.14	-0.1966	0.0417	0.2382	916.5246	0.132743	-376.111632	-376.103418	-376.102474	-376.143998	29.775	
C	-0.068849222	 1.414381825	-0.0228686339	-0.334618
N	 0.0027329323	-0.0253402986	 0.0411684166	-0.00305
N	 0.1285721947	-0.7607128918	-1.1001160922	-0.290977
C	 0.1646142822	-2.0206990522	-0.6828168983	-0.053861
C	 0.0872013015	-2.119582261	 0.7253510352	 0.035789
N	 0.0975508735	-3.2269369207	 1.6236628151	-0.622163
C	-0.0090694864	-0.8025399909	 1.1509710269	 0.372535
N	-0.1876915377	-0.3007260782	 2.4398381957	-0.611044
H	 0.9080072236	 1.8833429271	 0.1505838684	 0.127566
H	-0.4152622657	 1.6868422876	-1.0199265319	 0.158311
H	-0.7764790132	 1.7798275412	 0.7266815281	 0.145042
H	 0.2506653532	-2.8204578666	-1.4059065979	 0.097321
H	-0.7181525151	-3.8189452734	 1.4991907132	 0.2386
H	 0.9104501575	-3.8171366712	 1.4777020488	 0.237034
H	-0.1350518593	-1.0756147364	 3.0940976123	 0.257749
H	 0.4947231409	 0.40301617	 2.699553754	 0.245768
106.1294	136.6341	164.0478	250.8895	278.5155	282.8266	311.359	316.0203	520.6752	597.4722	649.8989	691.0522	752.7378	780.4892	835.5169	857.1911	870.7291	994.7297	1055.0827	1150.7791	1198.0192	1217.1186	1240.5379	1253.6818	1317.2885	1400.6179	1436.3179	1460.6591	1490.6893	1507.4923	1571.6429	1614.9948	1648.659	1674.5873	3021.6177	3094.9233	3155.9001	3227.2557	3489.8916	3501.2681	3553.5612	3587.9738
CN1N=CC(N)=C1N	Cn1ncc(N)c1N	
InChI=1S/C4H8N4/c1-8-4(6)3(5)2-7-8/h2H,5-6H2,1H3	InChI=1S/C4H8N4/c1-8-4(6)3(5)2-7-8/h2H,5-6H2,1H3
