14
gdb 33451	2.55238	1.60525	1.15088	6.1392	71.42	-0.2595	-0.013	0.2465	1031.6513	0.101694	-395.693107	-395.685433	-395.684489	-395.725389	28.395	
N	 0.1089600548	-1.1301385812	 0.0035391711	-0.338045
C	 0.0723761082	 0.0247157436	 0.007100894	 0.273847
C	 0.0224376722	 1.4658469213	 0.0373633044	 0.021789
C	-1.0669120027	 2.0711045657	-0.6872533666	 0.238959
N	-1.9242986986	 2.5909467405	-1.2627051931	-0.320594
C	 0.4470615118	 2.2580210468	 1.296356045	-0.120906
C	 1.6139391967	 1.5465565571	 1.9887836699	-0.203864
N	 2.3606876004	 1.4993100085	 0.6842540447	-0.321464
C	 1.3143548308	 2.3091097088	 0.0721390854	-0.030475
H	-0.2494217606	 2.9618952805	 1.7303667431	 0.13958
H	 2.0839709948	 2.2035354484	 2.7253049139	 0.130404
H	 1.4249859765	 0.5646620675	 2.430238287	 0.14625
H	 3.2509570801	 1.9808797575	 0.7241331571	 0.244421
H	 1.4845264257	 3.0673614649	-0.6818934361	 0.140097
131.1209	143.8793	155.1032	184.4292	333.0559	369.4947	496.537	500.9072	587.3444	591.2823	596.9648	726.8829	760.5128	839.055	906.1836	959.2139	973.5701	1007.0197	1016.6078	1046.8453	1088.9607	1120.3372	1176.0616	1249.1146	1269.8792	1285.789	1350.8816	1394.2132	1500.9029	2358.8303	2363.2048	3060.8728	3116.901	3200.1203	3216.865	3559.4075
N#CC1(C#N)C2CNC12	N#CC1(C#N)[C@H]2CN[C@@H]12	
InChI=1S/C6H5N3/c7-2-6(3-8)4-1-9-5(4)6/h4-5,9H,1H2	InChI=1S/C6H5N3/c7-2-6(3-8)4-1-9-5(4)6/h4-5,9H,1H2/t4-,5+/m0/s1
