17
gdb 121574	3.12279	0.70501	0.59493	2.8394	77.02	-0.2693	-0.0363	0.233	1852.5052	0.132883	-458.962843	-458.952317	-458.951373	-459.002378	34.707	
C	 0.1788631255	 1.3801454133	 0.0591281436	-0.508713
C	 0.129557157	-0.0710617119	 0.0366655791	 0.233857
C	 0.0866112652	-1.2748644136	 0.0166658446	-0.078665
C	-0.0460926538	-2.7097604579	-0.0039646295	 0.268671
O	-1.0934497086	-3.3076735032	 0.00260749	-0.353695
O	 1.1652222594	-3.3071721582	-0.035290512	-0.24843
C	 1.1535524571	-4.7507122686	-0.033433134	-0.079341
C	 2.6091157211	-5.1805872087	-0.0600888641	-0.070901
O	 3.3182808652	-4.7323772542	 1.0769271648	-0.41788
H	 1.201397792	 1.7431427203	 0.2043158177	 0.160756
H	-0.1970360819	 1.7932469828	-0.8831290629	 0.165415
H	-0.4433074911	 1.7780612801	 0.867780754	 0.165228
H	 0.6505143223	-5.1023088378	 0.8721321129	 0.132272
H	 0.6013184972	-5.1160539824	-0.9051011445	 0.1235
H	 2.6563821745	-6.2744294191	-0.0550756472	 0.117432
H	 3.0746867085	-4.8291105921	-0.9942877072	 0.09824
H	 3.2095882504	-3.775386379	 1.1092508646	 0.292253
6.2645	43.0856	58.8833	83.0291	139.9967	199.4903	231.9215	300.5515	330.8882	398.4789	400.5858	460.3487	497.5416	592.8364	771.5138	833.1639	866.0426	913.6415	1024.1276	1046.4269	1054.0966	1081.3495	1110.6492	1126.4328	1232.3903	1260.7205	1274.3856	1387.2447	1397.8583	1410.4401	1434.2056	1469.9393	1472.8865	1494.7555	1498.4539	1791.9434	2361.6734	2986.4601	3033.5961	3053.0639	3082.4998	3098.0901	3101.5945	3107.9596	3807.3138
CC#CC(=O)OCCO	CC#CC(=O)OCCO	
InChI=1S/C6H8O3/c1-2-3-6(8)9-5-4-7/h7H,4-5H2,1H3	InChI=1S/C6H8O3/c1-2-3-6(8)9-5-4-7/h7H,4-5H2,1H3
