18
gdb 83855	2.2043	1.81466	1.3493	3.757	71.63	-0.2407	0.0071	0.2479	1007.651	0.150618	-439.109306	-439.101655	-439.100711	-439.141386	30.192	
O	-0.1702770735	 1.4948815297	 0.0161416885	-0.417764
C	-0.0667539208	 0.1092979708	-0.0053250442	 0.123872
C	-1.284171926	-0.768523741	 0.04104857	-0.113933
C	-2.6474914865	-0.0831419049	 0.0359969312	-0.230652
C	-3.1601642678	 0.1806753956	-1.3812815585	-0.167599
N	-2.091493128	 0.7530044514	-2.2191363591	-0.341327
C	-0.9246722164	 0.0191906426	-2.432916887	 0.37358
O	-0.3234164703	 0.0611319389	-3.486264144	-0.359435
C	-0.435305566	-0.7187713581	-1.2349997714	-0.194873
H	-0.773316056	 1.7738238869	-0.6873479492	 0.294715
H	 0.818737155	-0.2067628842	 0.5351941168	 0.115042
H	-1.2080228927	-1.683601729	 0.6190467256	 0.096631
H	-3.3773984595	-0.69998709	 0.5669977797	 0.110455
H	-2.572356174	 0.8670999986	 0.5775664573	 0.122665
H	-3.5388295203	-0.7514000483	-1.8256154668	 0.113312
H	-3.9897784821	 0.8930405995	-1.3626119564	 0.115943
H	-2.4057567481	 1.1767947593	-3.0844465256	 0.245644
H	 0.2125053531	-1.5513896176	-1.4792717769	 0.113723
97.5248	159.3602	201.7168	268.1662	404.767	425.7409	445.3116	490.001	514.0063	596.7688	662.8808	741.389	752.6265	772.8148	807.7808	844.7531	918.4969	933.004	964.712	1039.4182	1048.9381	1079.8996	1106.5251	1120.529	1136.3427	1202.1171	1240.9248	1255.3008	1291.9288	1337.0592	1351.1071	1375.3435	1377.3128	1400.2898	1456.0886	1459.2568	1487.7126	1517.6607	1800.5492	2996.7755	3038.8383	3084.0012	3094.4947	3157.5852	3174.8311	3194.2412	3560.7744	3725.9943
OC1C2CCNC(=O)C12	O[C@H]1[C@H]2CCNC(=O)[C@@H]12	
InChI=1S/C6H9NO2/c8-5-3-1-2-7-6(9)4(3)5/h3-5,8H,1-2H2,(H,7,9)	InChI=1S/C6H9NO2/c8-5-3-1-2-7-6(9)4(3)5/h3-5,8H,1-2H2,(H,7,9)/t3-,4+,5-/m0/s1
