19
gdb 56203	3.74065	0.88266	0.79509	4.9729	72.1	-0.2244	0.0227	0.247	1452.0218	0.158999	-456.338521	-456.328761	-456.327816	-456.374985	34.144	
N	-0.3282730839	 1.013799171	-0.6366213299	-0.514787
C	-0.2335721671	-0.2806836647	-0.2257480014	 0.401466
O	 0.6297333894	-1.0393564672	-0.62633224	-0.358643
C	-1.2738644203	-0.7119866867	 0.8254774287	-0.284815
N	-1.3759810991	-2.1438174661	 1.0152504043	-0.274744
C	-2.1454220766	-2.8564382805	 0.020825593	 0.009926
C	-1.5558746272	-3.3183669891	-1.3459962038	-0.099984
O	-2.0353834965	-4.6624476425	-1.1200993764	-0.275287
C	-2.3464806395	-4.3672379039	 0.2542119592	-0.095062
H	 0.3739584451	 1.3766279412	-1.2606590129	 0.264699
H	-1.0273759672	 1.6413389967	-0.2797375599	 0.261823
H	-0.9808983549	-0.2371609027	 1.7730758608	 0.127855
H	-2.2604146291	-0.3073534121	 0.5697656043	 0.114077
H	-0.4356826847	-2.5276264183	 1.0610463742	 0.228708
H	-3.1001594383	-2.3366822863	-0.1080183781	 0.085076
H	-1.976036593	-2.8819790411	-2.2597286945	 0.093909
H	-0.4616192182	-3.2631689354	-1.385891796	 0.120614
H	-1.6083266625	-4.7947183668	 0.9496413129	 0.092653
H	-3.3462294065	-4.7114362154	 0.5419536356	 0.102517
32.3077	50.5535	94.5941	109.0661	151.0939	238.147	264.0576	344.9688	419.7964	489.2369	499.8894	627.8778	654.4063	676.883	774.2213	841.0436	869.9502	892.2765	977.9044	1006.9788	1026.5989	1034.3256	1081.3327	1097.7068	1147.9876	1156.7932	1183.5134	1188.8043	1262.0005	1284.0262	1296.9048	1312.8462	1349.1141	1384.4232	1406.4954	1465.8279	1508.0261	1527.6225	1536.2627	1619.7126	1792.246	2989.1426	3005.787	3023.3515	3048.4033	3061.6773	3064.6926	3079.2928	3508.9733	3599.1662	3734.1569
NC(=O)CNC1COC1	NC(=O)CNC1COC1	
InChI=1S/C5H10N2O2/c6-5(8)1-7-4-2-9-3-4/h4,7H,1-3H2,(H2,6,8)	InChI=1S/C5H10N2O2/c6-5(8)1-7-4-2-9-3-4/h4,7H,1-3H2,(H2,6,8)
