18
gdb 48442	2.36659	1.55439	1.18794	3.9513	71.79	-0.2468	-0.0319	0.2149	1091.3258	0.146794	-439.037792	-439.029111	-439.028167	-439.072009	31.195	
O	-0.282727553	 0.0648804393	 0.1647013556	-0.239238
C	-0.1143198582	 1.2422275452	 0.0035186789	 0.118601
C	 1.2351146882	 1.947290534	 0.0858851052	 0.301404
C	 1.4694653241	 2.5754148027	 1.4950752233	-0.339082
C	 2.5318056242	 1.4672700076	 1.6331952097	-0.066759
O	 2.3185733076	 1.0236440105	 0.2721636083	-0.305411
C	 1.4371760504	 2.8403531862	-1.1199113589	-0.053151
C	 2.8029268258	 3.2316090014	-1.5375176013	-0.246522
N	 2.0262392455	 2.26485467	-2.3368626558	-0.323236
H	-0.9642464306	 1.9379651429	-0.1945572817	 0.077055
H	 1.8599722385	 3.5929188587	 1.4582329245	 0.125045
H	 0.630511207	 2.5277605692	 2.1913356206	 0.123558
H	 3.5616933126	 1.8016117193	 1.7943170723	 0.113834
H	 2.2884776539	 0.6762436724	 2.3501665595	 0.124254
H	 0.6128333018	 3.5278622593	-1.305672973	 0.095663
H	 2.9657787481	 4.1948380182	-2.012159445	 0.119862
H	 3.6352743074	 2.8509611736	-0.9537972921	 0.122453
H	 2.3642099968	 1.3286555395	-2.1165377603	 0.251672
56.8943	82.3673	109.0317	197.6659	210.7596	271.4449	304.1954	428.8891	449.5479	616.644	714.419	783.531	832.7146	862.1945	877.3293	907.1818	946.9722	966.0669	974.8423	1012.5137	1023.3591	1078.1915	1116.3477	1146.6429	1154.7376	1181.3116	1188.273	1219.2618	1233.7254	1252.3754	1278.7139	1307.1917	1348.3482	1411.4269	1419.1924	1485.8778	1496.016	1525.8183	1844.2453	2851.1094	3038.3896	3082.0524	3084.9533	3113.4922	3118.4714	3141.6895	3207.1861	3481.4592
O=CC1(CCO1)C1CN1	O=C[C@]1(CCO1)[C@H]1CN1	
InChI=1S/C6H9NO2/c8-4-6(1-2-9-6)5-3-7-5/h4-5,7H,1-3H2	InChI=1S/C6H9NO2/c8-4-6(1-2-9-6)5-3-7-5/h4-5,7H,1-3H2/t5-,6-/m1/s1
