17
gdb 115124	2.89773	1.2386	0.96153	3.1534	69.51	-0.2363	-0.1017	0.1346	1228.4757	0.133994	-458.986483	-458.977588	-458.976644	-459.020919	31.662	
C	-0.0739674247	 1.5469422952	-0.1103960287	-0.389427
C	-0.0522298916	 0.0177593942	-0.0917169124	-0.184557
C	-1.4380458709	-0.5824892362	 0.1966462854	-0.008728
O	-2.417149774	-0.2049173397	-0.7835842697	-0.272609
C	-2.5916557022	-1.2264431311	-1.7599294841	-0.201694
C	-2.1678547439	-2.5267412792	-1.1042937269	 0.296655
O	-2.3391935278	-3.6534675261	-1.4780406297	-0.266538
C	-1.4069258098	-2.0996069944	 0.1818648763	 0.292292
O	-0.8761881725	-2.8439799026	 0.9598326486	-0.279624
H	 0.913306076	 1.9476619358	-0.3568111628	 0.120082
H	-0.7892399648	 1.9127407319	-0.8516941089	 0.136565
H	-0.3668237447	 1.9477352203	 0.8659760266	 0.121059
H	 0.3138751067	-0.3659106196	-1.0528217149	 0.101715
H	 0.633200114	-0.358476217	 0.6765353798	 0.125737
H	-1.7994682303	-0.223689048	 1.1675139796	 0.122176
H	-3.6413319491	-1.2521336884	-2.0673165567	 0.152188
H	-1.9786469303	-1.0480098151	-2.6583254814	 0.134709
50.2745	97.775	116.4849	165.6403	230.3016	287.3514	314.3916	375.1454	415.2378	537.997	625.3449	641.2412	664.8637	746.1132	788.4372	877.6288	935.4618	971.9721	1028.13	1069.8862	1078.6712	1105.8523	1140.7111	1157.3712	1206.1642	1267.2467	1288.4594	1321.2971	1359.7	1374.873	1410.7339	1471.4996	1481.7344	1496.2571	1508.2394	1852.0458	1868.6785	2979.4828	3025.1185	3040.9318	3047.5165	3072.9062	3086.6933	3109.5556	3125.0298
CCC1OCC(=O)C1=O	CC[C@H]1OCC(=O)C1=O	
InChI=1S/C6H8O3/c1-2-5-6(8)4(7)3-9-5/h5H,2-3H2,1H3	InChI=1S/C6H8O3/c1-2-5-6(8)4(7)3-9-5/h5H,2-3H2,1H3/t5-/m1/s1
