15
gdb 123600	4.22793	1.68719	1.4564	1.9424	69.96	-0.2404	-0.0003	0.2401	875.7897	0.117265	-412.907145	-412.901123	-412.900179	-412.937435	24.328	
C	-0.0215011996	 1.5020449299	-0.0850894383	-0.176982
C	 1.5421360786	 1.3555144196	-0.0000990068	-0.183637
C	 1.1491647345	 0.1496814861	 0.9300182571	-0.176986
N	-0.081082096	-0.0402682297	 0.0124624511	-0.228032
C	 0.6545407506	-0.3192728072	-1.2076181337	 0.387175
N	 0.6345318884	-1.1177071916	-2.2496236109	-0.350756
N	 1.7229089996	-0.681262783	-2.9245839566	-0.133293
N	 2.4264696325	 0.3398539897	-2.3759635641	-0.344263
C	 1.7377859077	 0.5664907102	-1.2771305493	 0.335054
H	-0.4744760361	 1.9423683381	 0.8063679744	 0.119477
H	-0.4607751505	 1.9149075839	-0.9948900053	 0.125203
H	 2.21416494	 2.1582738164	 0.2944737628	 0.09295
H	 1.8148552244	-0.7138477911	 0.97838408	 0.125182
H	 0.8184059445	 0.4487966899	 1.9274577843	 0.11947
H	 1.9972872816	-1.0968839912	-3.7979575648	 0.289438
139.8548	277.4575	321.5688	461.7484	505.5583	578.0158	672.6151	682.8513	717.8464	777.9183	815.0962	825.119	850.0965	911.8752	961.7718	993.2949	1023.9294	1058.8519	1092.5808	1106.8648	1129.9228	1138.9267	1169.5246	1208.2089	1235.1765	1242.218	1297.5803	1419.0832	1421.5067	1491.289	1513.4126	1544.0121	1627.2256	3063.9411	3071.6816	3138.1761	3142.0021	3149.4855	3695.2981
C1C2CN1C1=NNN=C21	C1[C@H]2CN1c1n[nH]nc21	
InChI=1S/C5H6N4/c1-3-2-9(1)5-4(3)6-8-7-5/h3H,1-2H2,(H,6,7,8)	InChI=1S/C5H6N4/c1-3-2-9(1)5-4(3)6-8-7-5/h3H,1-2H2,(H,6,7,8)
