17
gdb 68429	2.66293	1.66648	1.28557	3.7339	71.86	-0.2543	0.0084	0.2626	999.87	0.137633	-417.989139	-417.981524	-417.98058	-418.021016	30.06	
N	-0.0929207364	 1.4561062402	 0.0382160691	-0.608892
C	-0.0567816906	 0.0283129293	 0.0138441232	 0.280014
C	 0.3549236565	-0.8199361688	 1.2594364628	-0.274513
C	-0.3721580419	-1.9175919694	 0.4516442147	 0.109937
C	-1.3631135791	-0.8289374373	-0.01145524	-0.273635
O	 0.4883424457	-2.1043165093	-0.7010860018	-0.279816
C	 0.7726872275	-0.7482632245	-1.0689647639	-0.062341
C	 0.3474133246	-0.4481126637	-2.4401992768	 0.275973
N	 0.0032449473	-0.1544827752	-3.5039585586	-0.329162
H	 0.8392344142	 1.8463423814	 0.1467418177	 0.23431
H	-0.4714475835	 1.8213542157	-0.8320410838	 0.24678
H	 1.4175434543	-0.9681347183	 1.4676357069	 0.103788
H	-0.1842957059	-0.5017869442	 2.1520288917	 0.120179
H	-0.6570213209	-2.8901883233	 0.8438387471	 0.096722
H	-2.0577406173	-0.5118816221	 0.7665861704	 0.119215
H	-1.8731171127	-0.9800012896	-0.9650204665	 0.124405
H	 1.8478074382	-0.5448237509	-0.9847389123	 0.117035
128.3551	133.1074	233.7537	313.1813	328.3797	400.9221	455.3371	486.3238	525.121	581.4819	630.9168	697.0703	816.211	852.5343	856.787	895.7156	911.0511	934.5851	966.7694	988.6121	998.998	1043.0275	1056.8039	1121.4208	1150.0036	1198.9735	1215.7142	1230.4185	1239.6295	1309.1594	1320.6424	1349.1512	1362.4717	1474.839	1513.9255	1652.4653	2352.5387	3027.2818	3070.6651	3081.7033	3145.6602	3154.0703	3163.1229	3482.7686	3562.3098
NC12CC(C1)OC2C#N	N[C@@]12C[C@@H](C1)O[C@H]2C#N	
InChI=1S/C6H8N2O/c7-3-5-6(8)1-4(2-6)9-5/h4-5H,1-2,8H2	InChI=1S/C6H8N2O/c7-3-5-6(8)1-4(2-6)9-5/h4-5H,1-2,8H2/t4-,5-,6-/m0/s1
