18
gdb 8453	4.19498	1.7018	1.50424	1.5149	73.16	-0.217	0.0199	0.2369	906.4066	0.153829	-347.777803	-347.770426	-347.769482	-347.808836	29.531	
C	-0.0562353607	 1.4617077728	 0.0601924948	-0.516683
C	-0.0007906346	-0.024586794	-0.0103627034	 0.3686
C	-0.0183411518	-0.8741729342	-1.0418285279	-0.301041
C	 0.0626201518	-2.2597764192	-0.3663136565	 0.388772
O	-0.0014943192	-3.4153055655	-1.1388897153	-0.484083
C	-0.9575617985	-2.0705366224	 0.7931753119	-0.237219
C	 0.0883614762	-0.9741786692	 1.202212607	-0.126111
C	 1.1798070705	-1.9827865107	 0.7061496206	-0.270625
H	 0.8291987565	 1.8722686735	 0.5629314697	 0.12629
H	-0.1170771823	 1.9078039483	-0.9366595246	 0.124558
H	-0.9251142339	 1.8024180122	 0.638235446	 0.127453
H	-0.0901326425	-0.688109098	-2.1053768551	 0.091876
H	 0.6713625792	-3.3586131019	-1.8256096636	 0.278129
H	-1.963388362	-1.7385623025	 0.5272192775	 0.092947
H	-0.9872913814	-2.9210650759	 1.4811883593	 0.096188
H	 0.1122203155	-0.5429654803	 2.2016956801	 0.062449
H	 1.3369552386	-2.8257493756	 1.3863019435	 0.094242
H	 2.1291967586	-1.5672740876	 0.3588665959	 0.084256
166.8607	186.0336	227.6202	265.7553	340.2913	390.3574	509.7125	519.4356	571.5169	574.4169	656.4952	768.3776	790.4544	831.8516	863.6222	914.0788	939.6811	984.7073	1006.7021	1017.2789	1049.3565	1067.1667	1093.7467	1123.4445	1131.9362	1161.5728	1213.1481	1222.2456	1229.4826	1285.9921	1324.154	1365.5223	1413.4612	1474.3103	1477.6888	1486.5979	1515.7418	1697.3826	3012.5191	3043.162	3055.0356	3056.3343	3105.4131	3114.8387	3124.2599	3129.3536	3216.2655	3807.6935
CC1=CC2(O)CC1C2	CC1=C[C@]2(O)C[C@H]1C2	
InChI=1S/C7H10O/c1-5-2-7(8)3-6(5)4-7/h2,6,8H,3-4H2,1H3	InChI=1S/C7H10O/c1-5-2-7(8)3-6(5)4-7/h2,6,8H,3-4H2,1H3/t6-,7-
