23
gdb 114773	3.01917	1.3362	1.2138	0.2591	87.75	-0.2481	0.088	0.3361	1172.6024	0.208521	-351.142833	-351.134808	-351.133863	-351.175325	32.666	
C	 0.9320094479	-0.2826311823	-1.3473640628	-0.384176
C	 0.1168915734	 0.1060842555	-0.1096389238	-0.180756
C	 0.6589619499	-0.5009274846	 1.194419711	 0.017058
C	-0.1150680941	-0.07561542	 2.4835504695	-0.243515
C	-0.7892649374	-1.3604299349	 2.9864845514	-0.031931
C	-1.8039431781	-1.9122627971	 1.9338019088	-0.233822
C	-0.6827158146	-2.7894886138	 1.3742345921	-0.064915
C	 0.1768983026	-2.5208991956	 2.6017244364	-0.094198
C	 0.6351170395	-2.0313349488	 1.2614523972	-0.029214
H	 0.9126390602	-1.364527462	-1.5145972244	 0.117902
H	 0.5392041553	 0.1984916862	-2.2486429335	 0.108652
H	 1.9809442891	 0.0177235723	-1.2409549297	 0.109734
H	 0.1089514049	 1.1994403384	-0.0111209735	 0.089511
H	-0.9271202522	-0.1961546776	-0.2528336934	 0.099458
H	 1.7056295596	-0.1809034374	 1.28664088	 0.062587
H	 0.5819808059	 0.3062608825	 3.2377303665	 0.090475
H	-0.8453557066	 0.7171205576	 2.2855686063	 0.090764
H	-1.1516570563	-1.3082103038	 4.0133549058	 0.06129
H	-2.5739203775	-2.526572086	 2.4094004192	 0.096353
H	-2.2930253551	-1.1869014091	 1.2735338887	 0.085973
H	-0.8202700943	-3.7245562385	 0.8425910451	 0.075814
H	 0.7085496282	-3.1993970455	 3.255569955	 0.078981
H	 1.4233587496	-2.5865979756	 0.763700018	 0.077976
80.498	140.7923	189.6667	248.8562	315.5525	375.8429	392.6126	514.2448	626.5424	652.76	747.0203	755.4365	801.0928	812.2887	831.4237	855.7105	880.6912	933.13	954.0741	977.5916	987.1734	996.6801	1006.928	1031.8339	1060.3239	1066.6305	1074.3457	1097.0929	1129.0093	1131.2085	1159.0442	1199.9167	1233.433	1246.552	1254.9458	1283.4521	1293.1762	1303.3958	1322.1621	1339.9054	1367.408	1386.0564	1403.2867	1409.5881	1484.9924	1491.077	1499.9818	1502.585	1508.2205	3000.867	3020.187	3028.8342	3031.1423	3035.6705	3061.8222	3074.2263	3085.171	3096.0818	3102.8215	3107.3659	3160.8558	3169.8075	3199.2028
CCC1CC2CC3C2C13	CC[C@H]1C[C@H]2C[C@@H]3[C@H]2[C@H]13	
InChI=1S/C9H14/c1-2-5-3-6-4-7-8(5)9(6)7/h5-9H,2-4H2,1H3	InChI=1S/C9H14/c1-2-5-3-6-4-7-8(5)9(6)7/h5-9H,2-4H2,1H3/t5-,6-,7-,8+,9-/m0/s1
