16
gdb 21213	3.39694	1.8644	1.22495	1.4926	67.65	-0.2012	0.015	0.2162	970.9644	0.131988	-376.109195	-376.100978	-376.100034	-376.141927	29.007	
C	 0.0130673364	 1.4601490967	 0.0804311295	-0.316706
N	-0.1497761188	 0.0142861618	 0.1116365194	-0.382288
C	 0.5681605851	-0.7027877191	 1.0514972195	 0.310052
N	 1.188905455	-0.1304730648	 2.0832259518	-0.298022
N	 1.6828031277	-1.1825433549	 2.7481391584	-0.097136
N	 1.4414003414	-2.3751147856	 2.2294361948	-0.257469
C	 0.7257184744	-2.1112947514	 1.1361150128	 0.246672
C	 0.2140667654	-3.1733755415	 0.2218639114	-0.515443
H	 1.0509096367	 1.7786582636	-0.0967123807	 0.117422
H	-0.6261067198	 1.8701388661	-0.7050498446	 0.117205
H	-0.300942782	 1.8799947736	 1.0392536829	 0.148411
H	-0.1466578003	-0.4178550592	-0.8005980233	 0.238062
H	 2.2000341524	-1.0687128954	 3.6023738159	 0.285415
H	-0.8748538191	-3.1140822919	 0.1106612062	 0.133626
H	 0.6476821185	-3.0925168161	-0.7831309781	 0.123138
H	 0.4667115772	-4.1592259718	 0.6171378642	 0.14706
89.7419	124.6313	162.7975	182.3338	253.726	284.3471	332.6865	392.8665	491.2179	556.8434	653.3082	698.0326	755.7626	795.392	970.0574	1016.9477	1067.2663	1076.1582	1136.1415	1161.1361	1189.9874	1217.5087	1269.4754	1375.9178	1412.4574	1450.9964	1464.6673	1468.3015	1481.4033	1482.7742	1493.9221	1516.1938	1581.0473	1603.9355	2996.895	3021.0086	3069.3018	3087.5706	3129.5114	3132.5678	3597.4799	3691.6155
CNC1=NNN=C1C	CNc1n[nH]nc1C	
InChI=1S/C4H8N4/c1-3-4(5-2)7-8-6-3/h1-2H3,(H2,5,6,7,8)	InChI=1S/C4H8N4/c1-3-4(5-2)7-8-6-3/h1-2H3,(H2,5,6,7,8)
