16
gdb 63257	2.73858	1.45755	1.20187	3.6815	67.63	-0.2801	-0.0571	0.223	1072.1709	0.122853	-475.088158	-475.079735	-475.078791	-475.121283	31.308	
C	 0.0347649741	 1.5198934984	 0.0102619154	-0.406497
C	-0.0056373127	 0.0013902674	-0.0111950677	 0.414357
C	-1.4046137047	-0.5906193084	 0.0088248195	-0.406461
O	 0.689004589	-0.4715479447	-1.1794909162	-0.237766
C	 1.7612580294	-1.2042624625	-0.8100598682	 0.26654
N	 2.5532377396	-1.7444077691	-1.6249778515	-0.507496
C	 1.7924259922	-1.2263989074	 0.6995447096	 0.347323
O	 2.5853008306	-1.7681701903	 1.4095932048	-0.328542
O	 0.7323265295	-0.5026755847	 1.1217128226	-0.244907
H	 1.0705518179	 1.8668603155	-0.0017617854	 0.140397
H	-0.4809008108	 1.9148173747	-0.8681376633	 0.143686
H	-0.4559604591	 1.894696835	 0.9114870659	 0.141521
H	-1.9599891989	-0.2539075017	-0.869608453	 0.143684
H	-1.34949893	-1.6815763441	-0.0041855937	 0.140383
H	-1.9332597295	-0.2714531521	 0.9100252049	 0.141517
H	 3.2743936634	-2.2370120861	-1.0947000836	 0.252262
69.7783	120.4956	201.6506	239.7087	310.8566	329.2525	345.9276	351.5678	439.0519	511.654	601.5126	623.3652	635.9333	754.3297	795.4409	898.8909	902.9084	921.8383	934.6693	1002.9285	1007.2984	1047.3006	1135.193	1246.3613	1255.622	1263.4206	1381.4613	1407.291	1420.3749	1470.5317	1475.0978	1492.6421	1495.6054	1777.4327	1896.4833	3055.1985	3059.8313	3138.2073	3139.6357	3141.9734	3145.4153	3482.0468
CC1(C)OC(=N)C(=O)O1	CC1(C)O[C]([NH])C(=O)O1	
InChI=1S/C5H7NO3/c1-5(2)8-3(6)4(7)9-5/h6H,1-2H3	InChI=1S/C5H7NO3/c1-5(2)8-3(6)4(7)9-5/h6H,1-2H3
