16
gdb 124010	3.73396	1.60819	1.14166	1.3815	79.65	-0.1791	-0.0003	0.1788	1014.2451	0.129012	-396.959597	-396.952705	-396.951761	-396.990691	27.449	
C	 0.1484123233	 1.449504483	 0.3504550825	-0.22585
N	 1.1078701948	 2.1325097701	-0.5225812793	-0.394318
C	 2.1725682575	 1.390729128	-0.9903357946	 0.362199
N	 3.3266856867	 1.8805824746	-1.4145055298	-0.348853
N	 3.9894216672	 0.7698844226	-1.863812498	-0.197884
C	 3.2808273208	-0.3746490648	-1.7199613068	-0.169596
C	 2.0759401055	-0.0205404888	-1.1466748965	 0.196116
C	 0.8644569696	-0.6923789318	-0.7346210124	-0.169449
C	-0.0584327715	 0.0059730795	-0.0584270438	-0.089168
H	 0.4583159199	 1.4794535506	 1.4146336125	 0.099006
H	-0.8042224996	 1.9903221783	 0.2980898986	 0.111786
H	 1.3367620376	 3.078970327	-0.2562983287	 0.241038
H	 4.9178388041	 0.8793002575	-2.2292580808	 0.271191
H	 3.6780817884	-1.3306585696	-2.0238678777	 0.131651
H	 0.7048454583	-1.7375610645	-0.9805889944	 0.088858
H	-0.9787748526	-0.4615898218	 0.2750339792	 0.093274
129.503	195.1401	305.0646	355.9037	409.0806	435.0865	513.8729	579.5614	600.4988	627.7892	706.0086	758.9387	767.1959	803.3044	875.5089	911.3896	946.1539	980.3744	1029.704	1055.3772	1082.5212	1169.298	1186.1466	1247.7701	1262.7832	1304.2647	1328.8543	1405.5852	1425.3054	1477.1244	1486.1989	1509.8474	1574.1904	1640.0538	1700.5112	2884.2012	3033.4223	3170.287	3192.8434	3255.8741	3604.8729	3702.0975
C1NC2=NNC=C2C=C1	C1Nc2n[nH]cc2C=C1	
InChI=1S/C6H7N3/c1-2-5-4-8-9-6(5)7-3-1/h1-2,4H,3H2,(H2,7,8,9)	InChI=1S/C6H7N3/c1-2-5-4-8-9-6(5)7-3-1/h1-2,4H,3H2,(H2,7,8,9)
