16
gdb 25753	2.73574	1.48923	0.97476	3.0891	73.53	-0.2261	-0.0125	0.2136	1151.4326	0.124652	-437.960548	-437.952043	-437.951099	-437.994068	31.316	
C	 0.0826569174	 1.4854488011	-0.0056917092	-0.503587
C	-0.0639878024	 0.0097116567	 0.0517760807	 0.304597
C	-1.1477645988	-0.8323779479	 0.0736736806	 0.079003
C	-0.6116258961	-2.170679734	 0.1292169986	-0.315317
C	 0.7340935407	-2.0386509944	 0.1346470777	-0.010628
O	 1.0801521403	-0.7201258634	 0.0834261449	-0.178548
C	-2.5630193804	-0.4008825334	 0.0403130528	 0.304981
N	-3.4782212507	-1.4146412309	-0.1238681661	-0.534574
O	-2.9195170549	 0.759101159	 0.1759302638	-0.369191
H	 0.6342669343	 1.7901062421	-0.9023740989	 0.135224
H	-0.9084929708	 1.9369134193	-0.0116327777	 0.181949
H	 0.6408649265	 1.8535409133	 0.8624444664	 0.138788
H	-1.1572179122	-3.0992778394	 0.1928497959	 0.11326
H	 1.5536563899	-2.736241758	 0.1766937665	 0.140328
H	-3.1980922237	-2.289180697	-0.5349217594	 0.255438
H	-4.426124549	-1.116264273	-0.2943811167	 0.258279
58.6175	107.808	179.2221	204.2172	254.7132	321.8266	373.2226	420.4363	491.2319	535.5545	621.3902	651.4728	676.755	698.4691	741.7368	795.132	819.911	912.2102	969.731	1054.2098	1067.6516	1093.1956	1134.9451	1174.4084	1224.9491	1253.6088	1369.616	1400.4872	1436.4891	1475.354	1489.8671	1557.8706	1614.62	1635.0226	1767.1711	3033.4703	3084.0509	3169.3137	3250.0932	3287.5142	3590.1352	3718.1173
CC1=C(C=CO1)C(N)=O	Cc1c(cco1)C(=O)N	
InChI=1S/C6H7NO2/c1-4-5(6(7)8)2-3-9-4/h2-3H,1H3,(H2,7,8)	InChI=1S/C6H7NO2/c1-4-5(6(7)8)2-3-9-4/h2-3H,1H3,(H2,7,8)
