15
gdb 55995	3.51581	0.97826	0.87425	3.0006	63.63	-0.2539	0.0205	0.2745	1305.2478	0.112511	-491.139166	-491.130376	-491.129431	-491.174541	30.843	
N	-0.0938061917	 1.3356313653	 0.0215218834	-0.563463
C	 0.063334198	-0.0038185915	 0.20766443	 0.503707
O	 0.9611293721	-0.5353052645	 0.8138236199	-0.38955
O	-0.9845957942	-0.6649422438	-0.3734711876	-0.264758
C	-0.9651095153	-2.0707879818	-0.2698363471	-0.022256
C	-2.0346278033	-2.7166123181	 0.6613124233	-0.183253
N	-2.5531632126	-3.3884270311	-0.5344087594	-0.329593
C	-1.7110449948	-2.7849506255	-1.4363455716	 0.40599
O	-1.6143400152	-2.8218950823	-2.631153606	-0.349948
H	 0.7013788903	 1.9128804769	 0.2339202584	 0.27362
H	-0.743120207	 1.6559781819	-0.6768375128	 0.271595
H	 0.0510661336	-2.4249609634	-0.0947809833	 0.144006
H	-1.6486781988	-3.3881733013	 1.4333150523	 0.123444
H	-2.7204581956	-1.986340561	 1.1008458045	 0.123429
H	-3.3004990754	-4.0532953098	-0.663661644	 0.257032
18.8562	78.0218	119.0057	156.7484	247.5773	336.3479	351.5498	401.2327	499.1463	517.0534	542.2658	654.633	695.1084	753.2204	779.9926	869.2205	932.4976	965.6557	999.5326	1076.6911	1117.0114	1151.5872	1167.4386	1186.1288	1196.7905	1297.5546	1338.5739	1383.0867	1407.102	1522.3354	1612.2524	1845.4977	1906.2224	3049.5958	3101.8618	3125.5718	3614.838	3623.7923	3744.8947
NC(=O)OC1CNC1=O	NC(=O)O[C@H]1CNC1=O	
InChI=1S/C4H6N2O3/c5-4(8)9-2-1-6-3(2)7/h2H,1H2,(H2,5,8)(H,6,7)	InChI=1S/C4H6N2O3/c5-4(8)9-2-1-6-3(2)7/h2H,1H2,(H2,5,8)(H,6,7)/t2-/m0/s1
