18
gdb 8121	3.97899	1.68503	1.41618	2.8666	71.39	-0.2387	-0.0153	0.2234	927.0691	0.153857	-347.83453	-347.827105	-347.82616	-347.866012	29.049	
C	-0.2065024051	 1.5578150909	 0.1474034495	-0.480076
C	 0.0738789797	 0.0814527247	 0.0018524975	 0.352794
C	-0.7699455537	-0.9216547312	 0.7535813812	-0.331275
C	 0.6819681948	-0.7419510185	 1.1323091749	-0.074263
C	 1.6627224606	-1.7442025713	 0.5617187889	-0.330367
C	 1.4458567746	-1.694807626	-0.9597012747	 0.380043
O	 1.8300346095	-2.5174189092	-1.748460907	-0.30479
C	 0.6609394216	-0.4204809844	-1.3070987991	-0.383991
H	 0.6899728159	 2.154866788	-0.0583148259	 0.115187
H	-0.9889641941	 1.8867379525	-0.5465538752	 0.120509
H	-0.5426382344	 1.7979900665	 1.1613068055	 0.115564
H	-1.5169270065	-0.5303330548	 1.4359480437	 0.112648
H	-1.0671204131	-1.841945712	 0.2566531899	 0.113566
H	 0.9082686168	-0.2698987903	 2.0820943858	 0.085464
H	 2.7018387541	-1.4519025422	 0.7638723649	 0.128134
H	 1.543464669	-2.7699618935	 0.9241792503	 0.129221
H	-0.0726755506	-0.631344202	-2.0916211612	 0.127141
H	 1.3712327008	 0.3081732728	-1.7226190687	 0.124493
83.7155	201.7077	221.0182	292.4666	364.3033	394.3829	468.2042	476.9988	541.8341	623.6804	703.2395	785.3577	812.1853	825.4295	882.5291	916.3938	949.0703	989.7269	1046.5054	1056.5461	1060.5781	1098.8579	1101.3749	1152.18	1173.2519	1211.4423	1231.7007	1281.7191	1303.3531	1327.4849	1398.6015	1421.4721	1452.2746	1456.703	1487.7095	1493.9784	1503.1015	1848.1534	3018.5003	3021.7112	3030.305	3079.0603	3081.9516	3084.0088	3095.4629	3114.8282	3166.4058	3203.7879
CC12CC1CC(=O)C2	C[C@]12C[C@H]1CC(=O)C2	
InChI=1S/C7H10O/c1-7-3-5(7)2-6(8)4-7/h5H,2-4H2,1H3	InChI=1S/C7H10O/c1-7-3-5(7)2-6(8)4-7/h5H,2-4H2,1H3/t5-,7-/m1/s1
