18
gdb 88304	2.52415	1.10105	0.96361	3.3897	79.09	-0.2405	-0.0266	0.2139	1309.6124	0.144931	-401.904125	-401.894474	-401.89353	-401.939615	34.841	
C	 1.1793749355	 1.7064550496	-0.3837833641	-0.404588
C	 0.1039817895	 0.8172983561	 0.1869837765	 0.012469
N	 0.2997117318	-0.6224096208	 0.0906970086	-0.31446
C	 0.2843110371	-0.0130654224	 1.4357446399	-0.142418
C	 1.5696426305	-0.0214305297	 2.2027196505	 0.412393
O	 2.6597031081	-0.0969430664	 1.6902625259	-0.30342
C	 1.4397936714	 0.0530259377	 3.7404595362	-0.443541
C	 0.4837490447	 1.040507443	 4.2189712463	 0.297478
C	-0.3045524711	 1.865681988	 4.5966826461	-0.45539
H	 2.1657352263	 1.2797261936	-0.2004173363	 0.164709
H	 1.038386495	 1.8105092026	-1.4649315649	 0.119912
H	 1.1309931131	 2.7056150936	 0.0615773402	 0.116976
H	-0.9129296554	 1.1900226449	 0.0616592597	 0.091989
H	-0.5822322072	-1.1031673836	-0.0670176049	 0.237428
H	-0.6060867264	-0.1361686583	 2.0464329785	 0.097418
H	 1.1418081655	-0.948301465	 4.0850800567	 0.152856
H	 2.441889232	 0.241479517	 4.1361575188	 0.157458
H	-0.9950598003	 2.59604059	 4.9392792863	 0.202732
38.4812	53.2488	129.6126	174.0794	210.0468	251.6808	322.4431	336.0782	377.1216	430.7341	463.623	583.4344	623.4048	645.7054	697.7375	754.6929	809.571	845.132	931.3896	952.4424	981.9488	1001.1744	1020.5298	1080.5122	1113.5758	1150.0865	1192.7546	1217.1344	1238.8612	1261.2356	1290.1316	1398.7174	1432.0235	1446.8478	1461.4343	1495.0467	1500.8502	1812.4364	2236.9156	3010.3022	3040.1077	3091.2019	3099.6959	3101.4017	3146.4679	3157.5659	3503.1915	3504.7457
CC1NC1C(=O)CC#C	C[C@H]1N[C@H]1C(=O)CC#C	
InChI=1S/C7H9NO/c1-3-4-6(9)7-5(2)8-7/h1,5,7-8H,4H2,2H3	InChI=1S/C7H9NO/c1-3-4-6(9)7-5(2)8-7/h1,5,7-8H,4H2,2H3/t5-,7-/m1/s1
