19
gdb 104757	2.81726	1.08868	0.91448	3.2738	79.2	-0.2442	0.0381	0.2823	1311.6717	0.15704	-422.96876	-422.958915	-422.95797	-423.003325	36.655	
O	 0.2543437964	 1.2911981189	-0.4837405673	-0.427959
C	 0.0886746416	 0.0620752879	 0.1974649156	-0.132544
C	-1.332272576	-0.470749341	 0.0984817767	 0.308326
C	-2.3352907851	 0.2566175422	 0.9632012181	-0.157499
O	-2.3579557637	 1.6312316414	 0.5633848278	-0.42131
C	-1.7936289189	-1.0047138989	-1.2261388888	-0.303691
C	-1.5727234586	-1.9710982071	-0.0720430308	-0.278772
C	-0.4891105816	-2.9099309694	-0.0872905629	 0.32716
C	 0.4054141901	-3.7145979985	-0.0940446248	-0.44384
H	-0.4859803714	 1.8494200971	-0.212305944	 0.288758
H	 0.78668126	-0.6484625315	-0.2535126315	 0.114883
H	 0.3630054665	 0.1515350822	 1.2630761385	 0.07777
H	-3.3345364365	-0.1913193245	 0.8537966101	 0.091902
H	-2.0419214585	 0.1717152532	 2.020491386	 0.101034
H	-2.809650732	 2.1416947125	 1.2418807908	 0.295231
H	-2.8178391504	-0.8260598255	-1.5351936299	 0.11852
H	-1.0708005329	-1.0220598023	-2.0330844621	 0.13686
H	-2.4761158802	-2.3478313787	 0.4017609759	 0.109373
H	 1.1986454513	-4.4201216578	-0.1032334674	 0.195798
81.8762	109.2715	122.4566	161.6637	231.1815	263.7397	278.092	318.6067	370.9107	412.8821	440.2563	527.3107	532.6022	584.7595	634.5345	651.239	744.9838	825.4106	919.5266	934.5156	947.2423	972.9039	1009.0721	1046.758	1070.7381	1082.4069	1093.0337	1135.5701	1206.4435	1236.3697	1248.4579	1297.239	1351.1488	1377.0956	1409.3599	1458.8554	1466.3985	1486.7393	1505.6134	1520.6656	2235.5416	2951.6876	2975.8513	3012.7339	3089.9756	3129.3649	3139.9236	3231.5401	3504.7942	3760.7085	3832.5909
OCC1(CO)CC1C#C	OCC1(CO)C[C@H]1C#C	
InChI=1S/C7H10O2/c1-2-6-3-7(6,4-8)5-9/h1,6,8-9H,3-5H2	InChI=1S/C7H10O2/c1-2-6-3-7(6,4-8)5-9/h1,6,8-9H,3-5H2/t6-/m1/s1
