23
gdb 83876	2.00169	1.76743	1.27088	1.379	84.7	-0.2463	0.0672	0.3135	1135.3735	0.207828	-388.295165	-388.286383	-388.285439	-388.327988	35.18	
C	-0.0650920536	 1.5634715316	-0.0412780659	-0.401846
C	 0.0109938778	 0.0305492531	-0.0200029383	 0.028601
C	 0.5377244228	-0.5383393443	-1.3518472522	-0.195088
C	 0.7997730103	-2.0451159403	-1.2600531636	-0.200219
C	 1.9144280198	-2.3531628722	-0.2484246728	-0.207026
C	 1.6874010603	-1.691282889	 1.1084421651	-0.10653
C	 2.2584594703	-0.3103887729	 1.3765954584	 0.077172
O	 2.9687099453	 0.3610049808	 0.3732228799	-0.407438
C	 0.7778647956	-0.4721835466	 1.200516207	-0.055773
H	 0.9342318694	 1.9947394854	-0.1496737143	 0.136013
H	-0.6837833842	 1.913594455	-0.8751989946	 0.101446
H	-0.5022215176	 1.9524937446	 0.8849780949	 0.101328
H	-1.0129279231	-0.3552523	 0.0970230482	 0.066349
H	-0.1983964561	-0.3273952211	-2.1368182646	 0.082101
H	 1.462633936	-0.0232576951	-1.632624898	 0.108354
H	-0.1227325238	-2.557616611	-0.9542316604	 0.089118
H	 1.0708915757	-2.446971932	-2.2430431156	 0.085238
H	 2.0028539374	-3.4349834433	-0.1078927395	 0.092157
H	 2.8710557852	-2.0191555981	-0.6721677123	 0.081203
H	 1.677869977	-2.3665531508	 1.9588603423	 0.078882
H	 2.6191435456	-0.1055188144	 2.3848112846	 0.078388
H	 3.8455056674	-0.0337298743	 0.3110853677	 0.287982
H	 0.2127198825	-0.375110325	 2.1245743539	 0.079588
105.7225	158.2632	212.426	244.3535	280.6721	292.4879	303.3347	390.8703	414.7669	446.0762	560.0433	623.4233	660.1013	722.7301	773.7643	795.5383	863.9974	883.3709	894.1583	963.8065	985.9063	1001.9527	1030.7998	1054.2991	1065.8485	1091.483	1117.2024	1128.5611	1153.8001	1172.2988	1197.0718	1235.8674	1261.6997	1289.3092	1294.8592	1332.1659	1345.6906	1369.7959	1372.8029	1374.5709	1384.1996	1394.8472	1411.3569	1459.5912	1481.258	1488.5873	1494.4209	1500.4565	1508.3193	2982.2522	3009.3649	3014.7683	3027.0805	3031.8723	3059.8227	3069.3468	3082.3224	3089.4074	3090.0694	3115.6624	3125.2655	3145.833	3793.9646
CC1CCCC2C(O)C12	C[C@H]1CCC[C@H]2[C@@H](O)[C@@H]12	
InChI=1S/C8H14O/c1-5-3-2-4-6-7(5)8(6)9/h5-9H,2-4H2,1H3	InChI=1S/C8H14O/c1-5-3-2-4-6-7(5)8(6)9/h5-9H,2-4H2,1H3/t5-,6+,7-,8+/m0/s1
