18
gdb 93597	4.56454	0.93481	0.80162	4.2604	80.75	-0.2635	-0.0384	0.2251	1373.4925	0.148992	-401.986996	-401.978571	-401.977626	-402.020036	31.895	
O	-0.1019251517	 1.452218193	-0.0190791629	-0.43573
C	 0.0089828229	 0.0381154214	-0.0004983766	 0.124871
C	-1.4048616079	-0.5331358025	 0.0453194155	-0.212211
C	-1.379726309	-2.0622802929	 0.1576690749	-0.313584
C	-0.3792334594	-2.6810135729	-0.8008948886	 0.163867
C	 0.5701523558	-1.9704559427	-1.4285064016	-0.122958
C	 0.7528848359	-0.4926331707	-1.2349851794	-0.286964
C	-0.4787049584	-4.0911280555	-1.0170656077	 0.216392
N	-0.5885439238	-5.234767241	-1.1662411346	-0.335872
H	 0.7849998858	 1.8264506344	-0.0134485412	 0.283249
H	 0.548412309	-0.292359139	 0.9032204851	 0.073144
H	-1.9473591213	-0.0964936543	 0.8884761057	 0.114077
H	-1.9303200957	-0.2302390924	-0.8682501277	 0.114143
H	-1.1281945798	-2.371325245	 1.1811433129	 0.129393
H	-2.3748059777	-2.474710306	-0.0395891354	 0.130777
H	 1.2459416559	-2.4762224605	-2.1119531555	 0.116799
H	 0.3853337077	 0.0467959462	-2.1201101992	 0.1328
H	 1.8249476617	-0.2628225696	-1.1682781838	 0.107807
78.6606	151.5726	200.8667	208.8267	280.7371	343.1199	361.8455	386.0058	449.8378	506.7146	567.9706	586.2691	635.5049	763.7828	819.0659	864.4907	938.4965	947.996	982.8371	1041.4257	1081.6923	1096.8067	1101.8168	1148.0855	1159.9493	1210.519	1253.837	1291.6114	1325.1103	1338.2318	1350.0671	1381.3936	1393.805	1442.3899	1470.3065	1479.6432	1499.8646	1696.4942	2334.8532	2957.5509	3006.6993	3022.6713	3037.6853	3043.0521	3072.0347	3097.3153	3175.5864	3814.6383
OC1CCC(=CC1)C#N	O[C@H]1CCC(=CC1)C#N	
InChI=1S/C7H9NO/c8-5-6-1-3-7(9)4-2-6/h1,7,9H,2-4H2	InChI=1S/C7H9NO/c8-5-6-1-3-7(9)4-2-6/h1,7,9H,2-4H2/t7-/m1/s1
