17
gdb 66064	2.21662	1.45577	1.0886	2.257	76.33	-0.253	-0.0452	0.2077	1148.6242	0.132985	-421.789214	-421.78015	-421.779206	-421.823155	33.701	
O	 0.0398495414	 1.460426805	 0.1445006343	-0.465782
C	 0.0428792503	 0.0717453243	 0.0792479597	 0.325688
C	 0.19022085	-0.5751199284	 1.4863502458	-0.277035
C	-1.3474297374	-0.7376404635	 1.5687021365	-0.233581
C	-1.4193180087	-0.5820721221	 0.0185322377	-0.259918
C	-2.4760758032	 0.1919149273	-0.5849330492	 0.341529
C	-3.3518314981	 0.8469907078	-1.0848075195	-0.435878
C	 0.9510133098	-0.4044835428	-1.0247215501	 0.108225
O	 1.4680076372	 0.3590217753	-1.8042196409	-0.267931
H	 0.4352893452	 1.7670277411	-0.6866037187	 0.295059
H	 0.714913356	-1.5346091525	 1.4463472959	 0.105994
H	 0.6737166049	 0.0733269289	 2.2175106203	 0.127831
H	-1.7439720772	-1.6663524355	 1.9825612254	 0.108912
H	-1.8192151703	 0.1103615799	 2.0670279002	 0.133564
H	-1.3503582106	-1.5689974149	-0.4544110769	 0.103383
H	-4.1258422096	 1.4267500299	-1.5232986742	 0.198178
H	 1.0944212103	-1.5028748097	-1.0999084461	 0.091761
67.4792	96.1359	145.9409	189.2434	280.6697	299.2196	345.4839	356.1754	442.4168	460.5573	522.5449	585.7962	620.7718	638.1709	693.2523	745.5306	834.4217	883.2701	920.3903	956.0903	970.4832	1044.2426	1083.7506	1094.1172	1102.914	1185.0924	1224.9627	1265.3589	1267.3411	1302.9293	1347.0986	1389.4005	1436.687	1467.5619	1492.8238	1807.355	2234.9951	2916.6513	3033.2721	3059.9185	3081.11	3131.6284	3145.5935	3504.7176	3700.2043
OC1(CCC1C#C)C=O	O[C@]1(CC[C@H]1C#C)C=O	
InChI=1S/C7H8O2/c1-2-6-3-4-7(6,9)5-8/h1,5-6,9H,3-4H2	InChI=1S/C7H8O2/c1-2-6-3-4-7(6,9)5-8/h1,5-6,9H,3-4H2/t6-,7-/m1/s1
