17
gdb 123800	5.40168	0.93682	0.82496	3.2957	75.15	-0.2196	0.0041	0.2237	1356.5318	0.137384	-417.979963	-417.972182	-417.971237	-418.013166	29.317	
C	-0.3587430492	 1.0378093147	-0.3383825191	-0.25044
C	 1.0204274128	 1.1613557699	 0.2573991028	-0.285432
C	 0.4110516182	-0.1988707589	 0.0613626875	 0.029095
N	-0.0012237516	-0.9032960641	 1.2393396048	-0.382902
C	-0.9826009511	-1.8690103176	 1.1592221468	 0.451171
N	-1.036972277	-2.8442684051	 2.0456638373	-0.251397
O	-2.1750352964	-3.5890626875	 1.7060869158	-0.167689
C	-2.7419267943	-3.0410135549	 0.6276932221	 0.08948
C	-2.0533259306	-1.9500661989	 0.2134075168	-0.330671
H	-1.1980820337	 1.3155132252	 0.2879625029	 0.12762
H	-0.4872398457	 1.2375173091	-1.3962052627	 0.116546
H	 1.8440108101	 1.4462538584	-0.3867083677	 0.119547
H	 1.0905925328	 1.525318023	 1.2760021802	 0.124699
H	 0.8131998254	-0.8049299857	-0.7514306922	 0.093817
H	 0.7454286503	-1.1586822335	 1.8718896441	 0.249003
H	-3.6319270714	-3.5313716962	 0.262920945	 0.145789
H	-2.2625732586	-1.299886418	-0.6176550244	 0.121765
67.1958	71.4303	133.3664	303.9285	335.9179	358.9494	490.9844	590.0481	600.4616	727.5272	748.4675	775.7384	784.1008	842.3476	847.3024	867.0409	910.7469	938.0921	967.7163	990.5696	1044.2394	1061.4523	1081.7005	1091.4719	1136.0108	1174.4951	1196.2396	1197.9455	1249.1221	1334.5594	1389.2769	1406.9096	1458.0932	1491.2881	1497.8729	1531.205	1640.464	3086.1028	3141.0255	3145.6861	3225.5888	3239.1126	3257.4941	3296.2832	3579.1256
C1CC1NC1=NOC=C1	C1CC1Nc1nocc1	
InChI=1S/C6H8N2O/c1-2-5(1)7-6-3-4-9-8-6/h3-5H,1-2H2,(H,7,8)	InChI=1S/C6H8N2O/c1-2-5(1)7-6-3-4-9-8-6/h3-5H,1-2H2,(H,7,8)
