19
gdb 108336	2.63488	1.60799	1.29699	3.0527	73.48	-0.2421	0.0536	0.2958	1050.2945	0.158668	-422.951376	-422.943452	-422.942508	-422.983752	30.9	
C	 0.0325955255	 1.5327815002	 0.2318539648	-0.386633
C	-0.1185494828	 0.0364776061	-0.0730443075	-0.294788
C	 0.6822501738	-0.4457865316	-1.2658732186	 0.254478
C	 0.9440161203	-1.9635249722	-1.4504568341	-0.130981
O	 2.3788876051	-1.755199256	-1.5278196712	-0.285193
C	 2.2263285557	-0.3383495863	-1.3896723706	 0.03937
C	 2.0456901454	 0.4606060366	-2.7163834133	 0.002977
O	 1.2860910861	-0.3543554563	-3.6103637558	-0.224575
C	 0.5760835737	 0.3569638383	-2.5980854991	-0.044524
H	 1.0772996809	 1.7937924994	 0.4314520186	 0.120391
H	-0.3113264139	 2.1561087805	-0.5995165519	 0.120753
H	-0.5521346455	 1.8080320339	 1.1142895651	 0.119672
H	 0.1817127491	-0.5440475889	 0.8079794015	 0.107057
H	-1.1794049536	-0.1960319323	-0.2429918058	 0.103857
H	 0.68244538	-2.5713914156	-0.5754863104	 0.095319
H	 0.5475846349	-2.4198914837	-2.3613257344	 0.115434
H	 2.8783836109	 0.11421914	-0.6371632097	 0.077923
H	 2.6823057854	 1.2187166201	-3.1595565154	 0.106149
H	-0.2140643211	 1.0250244776	-2.9236812321	 0.103314
94.3121	155.8226	195.846	245.4642	287.3451	321.3796	389.6014	478.9786	542.7596	681.8073	724.4824	772.8733	816.0019	841.2194	848.3495	890.6094	905.7634	954.6303	992.2184	1000.4709	1008.2156	1023.2077	1045.5084	1053.3434	1135.8959	1152.3155	1165.5692	1194.177	1214.9995	1238.722	1286.6306	1296.2099	1319.4078	1356.9506	1372.2527	1384.156	1413.9415	1484.0943	1501.7059	1502.8957	1506.4041	3008.5534	3022.6587	3038.2359	3048.5126	3072.2745	3094.8815	3104.8593	3110.5384	3167.6315	3182.5279
CCC12COC1C1OC21	CC[C@]12CO[C@H]1[C@H]1O[C@@H]21	
InChI=1S/C7H10O2/c1-2-7-3-8-5(7)4-6(7)9-4/h4-6H,2-3H2,1H3	InChI=1S/C7H10O2/c1-2-7-3-8-5(7)4-6(7)9-4/h4-6H,2-3H2,1H3/t4-,5+,6-,7+/m1/s1
