16
gdb 10039	3.42315	1.25044	0.98498	5.9315	69.25	-0.3291	0.013	0.3421	1169.3527	0.129826	-342.820932	-342.812078	-342.811134	-342.854942	30.479	
C	-0.0425740411	 1.5575746664	 0.0632275621	-0.403593
C	 0.0335291149	 0.0315457277	-0.0052677033	-0.186169
C	 0.7088440853	-0.4950494771	-1.2926677096	-0.137336
C	 0.8293737413	-2.0426530736	-1.2604262315	-0.353176
C	 1.6218238854	-2.5847469514	-2.3611496952	 0.269251
N	 2.2650621028	-3.004753659	-3.2235913257	-0.289804
C	-0.0267247759	-0.0601021982	-2.4846931626	 0.295134
N	-0.6330684943	 0.2873209515	-3.4048763872	-0.31602
H	 0.9556762297	 2.0065133204	 0.0276385948	 0.125424
H	-0.6251974688	 1.9637309586	-0.7685407728	 0.151693
H	-0.5183781879	 1.8743828002	 0.9951931111	 0.128636
H	 0.6066650403	-0.3540847907	 0.8458918089	 0.112219
H	-0.971321293	-0.4005210821	 0.0669197485	 0.123035
H	 1.7194829905	-0.0742736445	-1.3591434403	 0.147939
H	 1.3000796374	-2.3353475862	-0.3158557216	 0.161409
H	-0.1680840165	-2.4939228821	-1.2789700354	 0.171359
63.0969	92.8332	129.6126	162.7151	217.7106	261.2254	285.4561	376.1602	390.8107	491.5353	549.895	618.0072	758.7524	826.8697	905.0563	941.9453	988.5785	1028.6046	1066.4741	1120.1465	1132.9892	1221.9839	1271.7063	1297.3326	1350.3291	1368.2897	1377.3741	1420.4141	1463.9201	1487.1646	1499.5145	1506.4938	2360.2976	2368.8319	3033.4996	3042.2231	3044.0997	3055.146	3075.1813	3098.6825	3112.9139	3123.2643
CCC(CC#N)C#N	CC[C@@H](CC#N)C#N	
InChI=1S/C6H8N2/c1-2-6(5-8)3-4-7/h6H,2-3H2,1H3	InChI=1S/C6H8N2/c1-2-6(5-8)3-4-7/h6H,2-3H2,1H3/t6-/m0/s1
