14
gdb 123967	3.87653	1.64671	1.16576	1.7634	68.53	-0.21	-0.0068	0.2032	957.5529	0.105604	-429.054666	-429.048071	-429.047127	-429.085875	25.153	
C	-0.001270284	 1.5390387043	-0.0414384229	-0.275659
N	 1.3706003258	 2.0607324202	 0.038462987	-0.2587
C	 2.3622567555	 1.2874224011	 0.2474656935	 0.090209
N	 2.3451668141	-0.0842358868	 0.4364763642	-0.420542
C	 1.1237383052	-0.7023443547	 0.2186417038	 0.370492
C	-0.0051549269	 0.0414942909	-0.0055772697	 0.272421
N	-0.9525427898	-0.9125865118	-0.1751844697	-0.283004
N	-0.4381372864	-2.1547333919	-0.0612563917	-0.12365
N	 0.8443354523	-2.0239316596	 0.181984712	-0.293503
H	-0.5851138542	 1.969356479	 0.7868503453	 0.12535
H	-0.4653043533	 1.9266896624	-0.9597152328	 0.124329
H	 3.3584446542	 1.724230107	 0.3053671568	 0.123053
H	 3.1971019895	-0.6192520347	 0.4051290529	 0.267308
H	-1.938157712	-0.8118031253	-0.3583937288	 0.281897
81.1742	233.6113	323.3965	328.0786	401.7249	493.3514	552.8077	564.718	639.7589	699.6887	740.2547	766.4724	894.0463	945.2268	956.7128	1025.9204	1034.674	1068.6961	1110.3893	1204.9476	1243.5486	1254.5253	1315.895	1344.8058	1379.2876	1413.0328	1449.8869	1501.6265	1570.9927	1649.8569	1730.888	2978.1622	3000.396	3143.0177	3655.6203	3657.7347
C1N=CNC2=C1NN=N2	C1N=CNc2c1[nH]nn2	
InChI=1S/C4H5N5/c1-3-4(6-2-5-1)8-9-7-3/h2H,1H2,(H2,5,6,7,8,9)	InChI=1S/C4H5N5/c1-3-4(6-2-5-1)8-9-7-3/h2H,1H2,(H2,5,6,7,8,9)
