21
gdb 88618	3.55309	1.12927	1.02391	1.3659	82.33	-0.2362	0.0667	0.3029	1243.181	0.183029	-387.009551	-387.001112	-387.000168	-387.044031	32.563	
O	-0.9353211479	 0.0734898505	 2.4215160035	-0.423439
C	-0.4185261632	-0.5753348026	 1.2934921658	 0.129009
C	-1.0271825107	-1.8293864467	 0.7439402049	-0.338893
C	-1.1362406067	-0.5207873687	-0.0344062658	-0.108861
C	-2.4354749419	 0.25351049	-0.1213881987	 0.030609
C	-3.1912726262	 0.3701747482	-1.4840803185	-0.058751
C	-3.6504871624	-1.1063734567	-1.3015654745	-0.215188
C	-3.8339207786	-0.4282222809	 0.0878524909	-0.058358
C	-4.4470480479	 0.7845978589	-0.6677541783	-0.225977
H	-1.8576677299	-0.1788048652	 2.5276697472	 0.28608
H	 0.662732903	-0.4863992139	 1.2960976121	 0.103843
H	-0.3797854756	-2.6159674345	 0.3705153517	 0.113253
H	-1.9329531594	-2.1948788902	 1.220526593	 0.109842
H	-0.4985442873	-0.4353557332	-0.9112229693	 0.087351
H	-2.3377831411	 1.2114955817	 0.4033559261	 0.075688
H	-2.8138345891	 0.8367813056	-2.3961021267	 0.066542
H	-4.5674637393	-1.3971801433	-1.8217860287	 0.086447
H	-2.8849665737	-1.8791025878	-1.3814773287	 0.103703
H	-4.2193048433	-0.8899048382	 1.0005522085	 0.058918
H	-4.4089269965	 1.7533145542	-0.1615725331	 0.089258
H	-5.4158193824	 0.6178351428	-1.1458301814	 0.088924
17.8305	117.5456	133.035	179.4514	263.4931	358.8264	440.4076	502.518	579.1209	603.9723	773.1474	775.9346	797.721	809.2815	871.3152	896.7755	900.9571	906.0918	933.7625	996.3178	1005.2361	1019.8091	1029.1017	1040.5485	1053.0941	1087.6204	1107.0788	1114.6396	1123.4602	1134.6857	1149.2119	1169.9253	1195.3084	1216.4967	1229.1414	1249.0834	1250.6251	1271.5004	1322.293	1363.907	1400.5924	1436.3259	1483.3072	1498.396	1536.5809	3030.8558	3048.2357	3057.4975	3074.2805	3093.8316	3114.662	3117.5755	3126.5728	3131.2076	3167.1563	3203.6629	3829.2687
OC1CC1C1C2CC1C2	O[C@H]1C[C@H]1[C@H]1[C@H]2C[C@@H]1C2	
InChI=1S/C8H12O/c9-7-3-6(7)8-4-1-5(8)2-4/h4-9H,1-3H2	InChI=1S/C8H12O/c9-7-3-6(7)8-4-1-5(8)2-4/h4-9H,1-3H2/t4-,5+,6-,7+,8-/m1/s1
