16
gdb 44638	2.89088	1.88202	1.58615	3.1808	67.73	-0.2443	-0.0068	0.2375	875.4299	0.125823	-437.841071	-437.83443	-437.833486	-437.872207	26.189	
O	-0.1270676106	 0.0324555566	 0.3475902984	-0.320982
C	-0.1297031496	 1.200132363	 0.088692707	 0.394701
C	-1.2052986086	 2.2942673128	-0.115628398	-0.386373
C	-0.0224220826	 3.2804342818	-0.0255449776	 0.000017
C	 0.525819963	 3.7227671972	 1.3574851552	 0.08686
O	-0.0711645308	 3.0319048994	 2.4719025595	-0.29432
C	 1.0379099777	 2.0917895845	 2.5549742955	-0.094349
C	 1.6229800195	 2.6242840482	 1.2442719817	-0.053386
N	 0.948237687	 2.1309491047	-0.0122913627	-0.157735
H	-1.7369754414	 2.2768095104	-1.0690491395	 0.134436
H	-1.9169539552	 2.3289706863	 0.7107187794	 0.155552
H	 0.1054163273	 4.008644655	-0.829819459	 0.088426
H	 0.6929635496	 4.7846580069	 1.5524681747	 0.088352
H	 1.6697884054	 2.3085566449	 3.4249439808	 0.108864
H	 0.7071843195	 1.050487311	 2.5791197868	 0.146557
H	 2.6955724898	 2.7810908373	 1.1446865178	 0.103381
97.097	192.698	246.0453	382.5024	443.2479	520.2781	539.2115	643.4748	711.2612	760.99	819.3295	863.8254	888.6846	913.9979	950.9342	980.927	996.1545	1016.2793	1037.4202	1057.6297	1084.3326	1129.7671	1135.0884	1170.3232	1197.9857	1209.2872	1219.9258	1239.2345	1294.7906	1307.1845	1330.5221	1355.4863	1431.1825	1514.6499	1882.3463	3028.5698	3077.6885	3084.2438	3091.9334	3107.1221	3128.005	3148.3878
O=C1CC2C3OCC3N12	O=C1C[C@H]2[C@H]3OC[C@H]3N12	
InChI=1S/C6H7NO2/c8-5-1-3-6-4(2-9-6)7(3)5/h3-4,6H,1-2H2	InChI=1S/C6H7NO2/c8-5-1-3-6-4(2-9-6)7(3)5/h3-4,6H,1-2H2/t3-,4+,6+/m0/s1
