20
gdb 59896	2.247	1.0001	0.81924	3.1149	82.62	-0.2429	0.033	0.2758	1503.9373	0.167822	-403.161134	-403.150391	-403.149446	-403.198708	38.273	
C	-0.6451590833	 0.9258636095	 1.0329423152	-0.382502
C	-0.0826724439	-0.1815728169	 0.1343635922	 0.046783
C	 1.1278594579	-0.8778824998	 0.7668580114	-0.382499
N	-1.1212659055	-1.1542220277	-0.1932361044	-0.324498
C	-1.5492536786	-1.3885448899	-1.4561762085	 0.430953
O	-1.1261794246	-0.8258763489	-2.4496438204	-0.382426
C	-2.6577417391	-2.4564211923	-1.6051277835	-0.483883
C	-3.1263944122	-3.0974338648	-0.3863119623	 0.28821
C	-3.4960254127	-3.612125839	 0.6363365741	-0.431327
H	 0.1233748119	 1.6750588835	 1.2469065557	 0.119738
H	-1.4897344283	 1.4263193623	 0.5516870729	 0.126927
H	-0.9896005799	 0.5192771696	 1.991395597	 0.109655
H	 0.2103687306	 0.2483581615	-0.8270559019	 0.126193
H	 0.8558700339	-1.3583647137	 1.7143504457	 0.109656
H	 1.5290062711	-1.6446273991	 0.0986145074	 0.126926
H	 1.9214055179	-0.1541800873	 0.9772065055	 0.119738
H	-1.5478001448	-1.6838255967	 0.5533977952	 0.249434
H	-3.4871952572	-1.9627497856	-2.1238174679	 0.164817
H	-2.2683885463	-3.2023253379	-2.3071055919	 0.16482
H	-3.8359983669	-4.078269747	 1.5280673186	 0.203286
18.8184	44.8627	91.3749	107.5178	209.362	224.1319	258.5399	297.8882	330.9949	408.5268	418.2394	452.5025	495.7072	522.8085	623.9273	630.7118	633.407	660.6094	859.4643	900.0838	931.6221	945.8645	951.0616	987.8618	1012.969	1146.6352	1181.6225	1191.9935	1216.0764	1249.0016	1301.5064	1365.7573	1372.3921	1399.6751	1419.4796	1444.5452	1483.7994	1489.0116	1497.4794	1506.0597	1552.1539	1780.6533	2231.9682	3028.0562	3032.1225	3048.1253	3081.6884	3082.1405	3094.3309	3110.3603	3117.7756	3120.5383	3502.3778	3599.1907
CC(C)NC(=O)CC#C	CC(C)NC(=O)CC#C	
InChI=1S/C7H11NO/c1-4-5-7(9)8-6(2)3/h1,6H,5H2,2-3H3,(H,8,9)	InChI=1S/C7H11NO/c1-4-5-7(9)8-6(2)3/h1,6H,5H2,2-3H3,(H,8,9)
