18
gdb 6957	2.53627	2.27668	1.66422	1.6432	67.38	-0.2385	-0.0223	0.2161	873.139	0.152327	-384.975788	-384.967493	-384.966549	-385.008222	30.884	
C	 0.0036815807	 1.5308232887	-0.0075161855	-0.417681
C	-0.0264900696	-0.006642574	-0.0034740136	 0.264057
C	-1.4540482537	-0.5453720469	-0.0274509172	-0.4176
O	 0.6868184138	-0.5386758841	-1.1234360065	-0.290402
C	 2.0502794068	-0.7483335431	-0.7545765812	-0.100002
C	 2.0109617179	-1.2087062028	 0.7042622247	-0.335792
C	 0.7466099684	-0.5259926468	 1.2247623616	 0.369514
O	 0.4021529976	-0.3990430541	 2.3701739159	-0.322006
H	 1.0295619617	 1.9120641722	-0.0218603973	 0.116588
H	-0.5124452104	 1.9061877206	-0.8956384599	 0.125685
H	-0.4901499524	 1.9205163096	 0.8867882921	 0.136426
H	-1.9928209824	-0.1544963793	-0.8953033547	 0.123132
H	-1.450560812	-1.6369626699	-0.087486384	 0.120558
H	-1.9776395891	-0.2444514253	 0.8835581816	 0.136004
H	 2.4649152666	-1.4869839113	-1.4438823525	 0.116837
H	 2.633558237	 0.179656644	-0.8569455831	 0.099272
H	 1.8636607976	-2.2927897936	 0.7762400413	 0.141669
H	 2.8834846215	-0.9459907337	 1.3053323285	 0.133741
77.1678	186.2523	194.6759	207.5984	225.4647	288.0002	334.6243	416.3384	506.8779	539.7246	598.5377	675.215	689.2555	834.0533	846.85	923.862	945.0076	974.1125	994.5865	1037.0703	1062.0082	1114.3332	1176.189	1203.5997	1209.3494	1240.7577	1282.5583	1286.6157	1385.7585	1388.4457	1407.8554	1447.0922	1474.9207	1479.3671	1494.1848	1504.4076	1524.4147	1851.4079	2986.1204	3039.4837	3046.1593	3050.6267	3101.6946	3110.5592	3120.1172	3122.5596	3125.3056	3132.6615
CC1(C)OCCC1=O	CC1(C)OCCC1=O	
InChI=1S/C6H10O2/c1-6(2)5(7)3-4-8-6/h3-4H2,1-2H3	InChI=1S/C6H10O2/c1-6(2)5(7)3-4-8-6/h3-4H2,1-2H3
