19
gdb 109659	2.12889	1.35812	1.04595	1.9671	75.96	-0.2324	-0.0306	0.2017	1230.299	0.155629	-460.146503	-460.13642	-460.135476	-460.181488	35.981	
C	-0.0485619491	 1.0626544543	 0.5409768114	-0.235451
O	-0.1976071509	 0.044945244	-0.4392701364	-0.223656
C	-1.3807358209	-0.6511212036	-0.3290934067	 0.034057
C	-1.3836172765	-2.077858274	-0.768008795	-0.151185
C	-0.1374797376	-2.7266999158	-1.3272553145	-0.398866
C	-1.4405381592	-1.7778218546	 0.735271052	 0.312033
O	-0.2997878814	-1.9965024882	 1.4915789412	-0.464772
C	-2.6921112053	-1.9818877516	 1.4736232985	 0.08775
O	-2.6966454615	-2.3081962217	 2.6436228749	-0.300462
H	 0.8969901554	 1.5658360915	 0.3292902871	 0.13245
H	-0.865743734	 1.7962078108	 0.4793833183	 0.106548
H	-0.018613794	 0.6350540049	 1.5490129433	 0.131453
H	-2.2843414346	-0.0541386503	-0.4730597068	 0.089854
H	-2.3202935163	-2.4220900975	-1.2005611637	 0.096311
H	 0.7553021013	-2.3416242099	-0.835878447	 0.154746
H	-0.1722667408	-3.8105859306	-1.1837355472	 0.122289
H	-0.0564286928	-2.5257588277	-2.4000835563	 0.123144
H	-0.6398858323	-2.2547893944	 2.364264034	 0.297459
H	-3.6316534296	-1.8136062155	 0.9086448528	 0.0863
82.2481	116.6703	143.2914	154.8454	170.7396	196.1676	241.909	269.0181	309.5265	380.8272	416.8002	442.541	553.3718	611.8574	670.0512	716.9079	831.8659	871.5843	975.0863	1016.1813	1032.8645	1038.6194	1062.3744	1120.2908	1144.3283	1168.0844	1180.3163	1220.4603	1260.117	1337.7062	1356.5916	1363.7968	1406.9118	1415.4689	1462.8561	1484.8776	1486.6526	1492.8841	1500.8226	1506.9216	1771.3868	2924.3659	2997.1493	3048.3201	3068.0952	3076.5551	3107.9944	3130.9098	3131.7286	3163.1168	3679.0643
COC1C(C)C1(O)C=O	CO[C@H]1[C@@H](C)[C@]1(O)C=O	
InChI=1S/C6H10O3/c1-4-5(9-2)6(4,8)3-7/h3-5,8H,1-2H3	InChI=1S/C6H10O3/c1-4-5(9-2)6(4,8)3-7/h3-5,8H,1-2H3/t4-,5+,6-/m1/s1
