13
gdb 24520	4.04915	1.77317	1.23316	1.1517	71.59	-0.2542	-0.0473	0.2069	909.509	0.094233	-415.695058	-415.689495	-415.688551	-415.724944	22.331	
O	-0.0660777672	 1.3070149382	 0.009555417	-0.191573
C	 1.2338265092	 1.7174217892	-0.0003451624	 0.067023
N	 2.1376526478	 0.796885251	-0.0140521318	-0.330533
C	 1.3930020966	-0.3831086751	-0.0133589534	 0.237005
C	 0.0288421033	-0.0607876454	 0.0012686819	 0.391837
N	-1.002419953	-0.869959763	 0.0066152279	-0.341127
C	-0.6519100607	-2.1656329077	-0.0037130593	-0.032493
C	 0.6708112394	-2.627992047	-0.0187130286	-0.098912
C	 1.7365509142	-1.729068277	-0.0239002589	-0.215932
H	 1.3868746464	 2.7863724949	 0.0039911384	 0.160171
H	-1.4727548482	-2.8767606234	 0.0001683941	 0.118804
H	 0.8540622174	-3.696223363	-0.0262528274	 0.109642
H	 2.7699584547	-2.0551477518	-0.0354408977	 0.126088
242.997	261.0767	441.1407	456.6558	555.8828	603.4703	647.0904	651.1112	797.3671	809.0434	839.154	889.1314	890.382	934.6667	962.3791	986.5232	1054.84	1103.0669	1135.9231	1186.1646	1275.6365	1298.685	1336.5193	1377.81	1425.5136	1507.5767	1555.6175	1638.0087	1649.0969	3172.5651	3197.7382	3212.1792	3268.2765
O1C=NC2=C1N=CC=C2	o1cnc2c1nccc2	
InChI=1S/C6H4N2O/c1-2-5-6(7-3-1)9-4-8-5/h1-4H	InChI=1S/C6H4N2O/c1-2-5-6(7-3-1)9-4-8-5/h1-4H
