18
gdb 104706	2.94208	1.13371	0.97617	1.6941	69.25	-0.2608	0.0212	0.282	1239.2749	0.146712	-476.21263	-476.203487	-476.202543	-476.247093	33.775	
O	 0.4461719964	 0.7461521344	-1.2584547798	-0.421163
C	 0.1016415539	 0.335589642	 0.0485916547	-0.119374
C	-1.2300384598	-0.4239125555	 0.0965163183	 0.353058
C	-2.3008147165	 0.2284303136	-0.7652144612	-0.132371
O	-2.3320409934	 1.6413508921	-0.6205761071	-0.425574
C	-1.2001835475	-1.9680125343	 0.0340663061	-0.423747
C	-1.6366073205	-1.8883229821	 1.4803557138	 0.435357
N	-1.897824414	-2.7264844232	 2.3737095835	-0.538881
O	-1.6645637924	-0.505195813	 1.5114024554	-0.297696
H	-0.1316375523	 1.4901729553	-1.4669906159	 0.299897
H	 0.9092536812	-0.3075964189	 0.411812393	 0.116444
H	 0.0242590231	 1.1857169461	 0.7394273035	 0.104097
H	-2.0666032047	 0.0353381512	-1.8160997155	 0.133825
H	-3.2764525096	-0.2255945957	-0.5425517442	 0.108543
H	-2.5829266934	 1.8364393474	 0.289326788	 0.298366
H	-1.9311722161	-2.4325263334	-0.631616948	 0.136691
H	-0.2204186294	-2.4167542193	-0.1352262471	 0.144256
H	-2.1702262653	-2.2692737867	 3.2456370423	 0.228272
64.5911	73.6283	103.6809	204.4897	268.0721	323.7389	369.1542	392.1059	418.6863	431.4366	502.3691	522.0324	549.245	719.9098	790.9595	843.8377	869.1474	913.9014	940.3838	967.9014	998.1234	1047.2139	1068.4125	1091.4631	1102.1912	1136.8205	1204.3358	1220.7574	1264.3548	1286.2949	1305.0921	1376.8234	1404.894	1415.8745	1426.9778	1463.3387	1484.9084	1497.3143	1827.6604	3014.2677	3017.598	3081.8931	3084.8739	3096.8218	3138.0829	3475.9935	3791.3164	3806.1806
OCC1(CO)CC(=N)O1	OCC1(CO)C[C]([NH])O1	
InChI=1S/C5H9NO3/c6-4-1-5(2-7,3-8)9-4/h6-8H,1-3H2	InChI=1S/C5H9NO3/c6-4-1-5(2-7,3-8)9-4/h6-8H,1-3H2
