17
gdb 72324	3.3203	1.82326	1.39638	3.6124	71.5	-0.2505	-0.0241	0.2264	932.8112	0.137627	-417.946277	-417.939345	-417.938401	-417.977265	27.744	
C	-0.0564663748	 1.5443170419	-0.0006390013	-0.479836
C	-0.0112133342	 0.0367857702	-0.011538496	 0.281914
C	-0.3434399685	-0.6760410497	-1.3368529024	-0.226208
N	-0.6373193937	-2.064540524	-0.9332188289	-0.247299
C	-0.7385937603	-2.0005360341	 0.3285727252	 0.294611
O	-0.1897739956	-2.8977817675	 1.1935939864	-0.242869
C	 1.0645675706	-2.1542660665	 1.3785019908	-0.10492
C	 0.663555427	-0.6589224269	 1.1875874496	-0.134677
N	-0.8007070178	-0.7007662018	 0.9890839941	-0.15173
H	 0.7454754934	 1.9544214093	-0.6238762311	 0.128123
H	-1.0117177701	 1.9004221678	-0.4003379349	 0.133761
H	 0.0575701494	 1.9456230249	 1.0094640005	 0.131099
H	-1.1927142018	-0.167652307	-1.8147277586	 0.11845
H	 0.475915567	-0.6998578933	-2.0631465947	 0.123123
H	 1.4030847038	-2.3285290831	 2.4017417667	 0.135398
H	 1.8023772604	-2.5231110641	 0.6610448995	 0.133647
H	 1.0270309552	 0.016760564	 1.959275845	 0.10741
172.9636	209.4121	255.7191	294.2066	322.363	436.5903	553.5538	568.3044	667.1659	678.1541	737.651	821.505	827.8387	894.3745	916.624	928.5796	955.8366	986.8824	1015.9905	1027.3289	1056.8259	1091.8036	1111.7527	1158.5482	1206.3331	1221.7941	1224.6347	1293.3662	1311.6135	1343.9284	1399.381	1418.086	1483.6358	1488.4779	1491.6805	1496.8438	1683.0585	3011.4762	3037.4116	3062.6465	3068.4978	3101.9239	3119.0459	3123.2184	3134.2493
CC12CN=C3OCC1N23	C[C@@]12C[N][C]3OC[C@@H]1N23	
InChI=1S/C6H8N2O/c1-6-3-7-5-8(6)4(6)2-9-5/h4H,2-3H2,1H3	InChI=1S/C6H8N2O/c1-6-3-7-5-8(6)4(6)2-9-5/h4H,2-3H2,1H3/t4-,6+,8?/m0/s1
