12
gdb 53778	4.17536	0.73473	0.64087	3.544	69.06	-0.2667	-0.1071	0.1596	1607.5181	0.074585	-472.633981	-472.624647	-472.623703	-472.669784	30.723	
N	 0.0014593704	 1.3199198404	-0.0774799357	-0.539268
C	 0.0994833267	-0.0238861665	-0.132433529	 0.36494
O	 1.0939364193	-0.676752854	-0.3716992044	-0.342941
C	-1.250855886	-0.7105933086	 0.1577157159	 0.093673
O	-2.2519728592	-0.0822541656	 0.4252815833	-0.286045
C	-1.2242548758	-2.1525993367	 0.0899939838	 0.11478
C	-1.2690644025	-3.3607265925	 0.0377560603	 0.100703
C	-1.2954172877	-4.8049954443	 0.0026328829	 0.024221
O	-1.6064158693	-5.4462009552	-0.97144717	-0.210606
H	 0.8128104388	 1.8895775505	-0.2481135024	 0.276663
H	-0.8883753957	 1.7409904553	 0.1362639096	 0.284387
H	-1.001603159	-5.281990553	 0.9583164357	 0.119494
52.3903	54.5267	87.9414	112.1428	223.3584	257.3239	309.32	330.6864	381.5671	446.8336	470.7923	610.7158	641.4407	643.8107	732.0387	837.6022	964.0075	1014.5325	1090.9334	1184.2129	1373.2983	1415.3424	1592.9491	1758.2848	1774.3389	1812.2432	2297.0729	2937.2205	3596.3079	3736.0018
NC(=O)C(=O)C#CC=O	NC(=O)C(=O)C#CC=O	
InChI=1S/C5H3NO3/c6-5(9)4(8)2-1-3-7/h3H,(H2,6,9)	InChI=1S/C5H3NO3/c6-5(9)4(8)2-1-3-7/h3H,(H2,6,9)
