22
gdb 76144	2.12723	1.39045	1.11638	3.4236	84.35	-0.2355	0.0198	0.2552	1253.3971	0.190615	-404.371741	-404.360863	-404.359919	-404.40738	39.312	
C	 0.0340658773	 1.326278359	-0.3282191205	-0.421704
C	-0.0460188027	-0.1539327824	-0.0318566613	-0.051533
N	 1.0752736668	-1.0538325886	-0.2455973774	-0.11099
C	 2.3174372193	-0.8495747713	-0.8202072632	 0.371948
C	 2.2776224304	-0.3510214894	-2.2555272138	-0.477179
O	 3.3512176171	-1.1260092048	-0.2457690327	-0.356451
C	 0.6683474938	-0.8281110534	 1.1272417655	 0.286908
C	 1.5742808493	-0.0394503889	 2.0535999859	-0.445591
C	-0.013675833	-2.011056401	 1.7908959527	-0.443169
H	 0.9996440246	 1.75677317	-0.0548724585	 0.129557
H	-0.1303494157	 1.5181041003	-1.39371286	 0.129023
H	-0.7462297237	 1.8595381419	 0.2252541704	 0.129206
H	-1.0054947716	-0.5936557654	-0.3092610569	 0.090196
H	 3.2095647027	-0.6264774463	-2.7502933574	 0.145302
H	 1.423834601	-0.7604257364	-2.8009372678	 0.133056
H	 2.1919820385	 0.7411724638	-2.2688541226	 0.138571
H	 2.0332508723	 0.822022552	 1.567157198	 0.123617
H	 1.0057115332	 0.3133874171	 2.9207321789	 0.112979
H	 2.3871958434	-0.677598987	 2.4096870011	 0.146881
H	 0.7314074022	-2.7037408265	 2.1961221659	 0.131165
H	-0.6491550949	-1.6771740168	 2.6183357233	 0.116243
H	-0.6315493004	-2.5588716259	 1.0749173704	 0.121965
78.1397	93.9626	137.0837	151.4977	161.7266	201.6755	203.0569	242.3817	277.4614	314.8283	378.7566	428.8029	483.3848	503.135	586.983	624.4471	673.6103	733.6975	823.0299	955.5598	972.2558	979.832	998.1252	1029.2996	1039.5556	1051.9035	1121.3688	1147.6913	1162.0369	1170.929	1261.3562	1292.647	1379.9217	1397.9061	1409.352	1412.5694	1427.0966	1451.6987	1470.4895	1473.3973	1478.5426	1482.628	1488.1203	1499.0896	1502.7766	1515.3666	1772.4167	3034.1407	3038.854	3046.5846	3047.2617	3086.6852	3097.3884	3100.1485	3114.504	3115.2241	3120.7422	3128.2868	3143.1073	3155.6053
CC1N(C(C)=O)C1(C)C	C[C@H]1N(C(=O)C)C1(C)C	
InChI=1S/C7H13NO/c1-5-7(3,4)8(5)6(2)9/h5H,1-4H3	InChI=1S/C7H13NO/c1-5-7(3,4)8(5)6(2)9/h5H,1-4H3/t5-,8?/m1/s1
