19
gdb 114772	3.13519	1.3102	1.14726	2.1863	76.99	-0.2383	0.0102	0.2485	1132.3688	0.160218	-423.006637	-422.998596	-422.997652	-423.039354	31.435	
O	-0.1495200346	 1.4901336828	 0.2035416214	-0.421795
C	-0.0080687688	 0.0941335118	 0.0489679221	-0.066356
C	-1.3658344411	-0.6000768101	-0.0604584947	 0.049972
O	-2.0170355217	-0.3092901669	 1.183865114	-0.293098
C	-3.3785567228	-0.6306043617	 1.2655818314	 0.102827
C	-4.3559558985	 0.5125253875	 1.2280742127	-0.305595
C	-4.2240904699	-0.4355173205	 0.0411981482	-0.098323
C	-3.4983929108	-0.0271616947	-1.1860415494	-0.10442
C	-2.1719739033	-0.1201387641	-1.2443214205	-0.052708
H	-0.7948463696	 1.6048881269	 0.911743321	 0.287918
H	 0.5670392388	-0.0769181592	-0.8673044589	 0.10557
H	 0.5470445203	-0.3537033331	 0.887688688	 0.092314
H	-1.194153679	-1.6877976845	-0.1420996812	 0.080262
H	-3.5810347022	-1.4721934548	 1.9247580643	 0.09221
H	-5.2511701991	 0.453313028	 1.8376323612	 0.113434
H	-3.9315831388	 1.5039243503	 1.1169753829	 0.122269
H	-5.0488381496	-1.1274149686	-0.1066501821	 0.098271
H	-4.0761759215	 0.3323155594	-2.0330555483	 0.096281
H	-1.6203692177	 0.1507751714	-2.1392204421	 0.100968
78.0208	113.8668	208.1157	244.682	305.8682	389.8552	438.9947	478.2274	510.397	539.1167	677.2473	714.7737	772.0067	822.7557	832.2224	864.1684	919.0719	926.2375	981.8662	1002.1632	1024.1882	1036.9612	1049.6776	1094.9362	1103.4446	1115.3154	1125.6797	1174.8811	1193.1194	1233.8858	1242.4332	1308.2236	1326.2393	1362.0586	1393.3795	1399.8044	1425.24	1437.1157	1474.2573	1499.7734	1713.0358	2947.8398	2990.1694	3075.3403	3120.097	3134.312	3142.6629	3159.8591	3185.8873	3229.7726	3788.2078
OCC1OC2CC2C=C1	OC[C@H]1O[C@H]2C[C@H]2C=C1	
InChI=1S/C7H10O2/c8-4-6-2-1-5-3-7(5)9-6/h1-2,5-8H,3-4H2	InChI=1S/C7H10O2/c8-4-6-2-1-5-3-7(5)9-6/h1-2,5-8H,3-4H2/t5-,6+,7+/m1/s1
