15
gdb 82692	2.88603	1.62684	1.25822	4.3959	70.36	-0.2685	0.0064	0.2748	979.9009	0.113505	-416.746299	-416.739048	-416.738104	-416.777932	27.949	
O	 0.05429721	 1.4544048993	 0.2576358496	-0.42457
C	-0.0046213215	 0.0673823066	 0.103026879	 0.074455
C	 0.2024008698	-0.7434792401	 1.3997128613	-0.134132
C	-0.9451676787	-0.2402667671	 2.293057446	-0.149602
N	-1.9353214943	-0.8961140214	 1.3654256744	-0.175686
C	-0.857382384	-1.7670592601	 0.849250071	-0.099928
C	-1.3630727379	-0.6529323371	-0.010866384	 0.212299
C	-2.243558923	-0.6682887305	-1.1310148625	 0.169175
N	-2.9110484612	-0.6467441404	-2.075819087	-0.345736
H	-0.0860128806	 1.8738818189	-0.5976122295	 0.299335
H	 0.6551783316	-0.2966924314	-0.6949451612	 0.096851
H	 1.2049935474	-0.9451076184	 1.7671968138	 0.094459
H	-1.0024633589	-0.7595588924	 3.2516604116	 0.122556
H	-1.0633689067	 0.8374247637	 2.4221445523	 0.133986
H	-0.9185176221	-2.8393147395	 0.7271298052	 0.126539
129.462	160.1015	234.8668	258.4266	318.5662	447.1059	509.7981	543.5734	577.695	629.6853	719.4182	799.6748	813.0872	854.5082	915.9722	937.4162	969.1793	994.2364	1008.2638	1041.5119	1113.2912	1142.8675	1154.5593	1162.7539	1186.2048	1225.7665	1279.0944	1283.9597	1307.2737	1371.7735	1428.5551	1500.9929	2353.4511	3030.7209	3075.7866	3140.3716	3157.2462	3224.6637	3821.2665
OC1C2CN3C2C13C#N	O[C@H]1[C@H]2CN3[C@H]2[C@]13C#N	
InChI=1S/C6H6N2O/c7-2-6-4-3(5(6)9)1-8(4)6/h3-5,9H,1H2	InChI=1S/C6H6N2O/c7-2-6-4-3(5(6)9)1-8(4)6/h3-5,9H,1H2/t3-,4+,5-,6+,8?/m0/s1
