15
gdb 47174	2.49362	1.96061	1.17448	5.3382	67.42	-0.2497	-0.0226	0.2271	990.1872	0.113232	-457.757544	-457.750383	-457.749439	-457.789435	26.875	
O	 0.0782373202	-0.0597756956	-0.0740210092	-0.312839
C	-0.0012554714	 1.1192328057	 0.1102551628	 0.403793
O	-1.1966221761	 1.6975113513	 0.4110977812	-0.239238
C	-1.3178231493	 3.0860247823	 0.8097729712	-0.105675
C	-0.1104741318	 3.5988116519	 1.5611385409	-0.264627
C	 1.0432523629	 3.1365431414	 1.1161562204	 0.267193
C	 2.4774026587	 2.8247949373	 1.4564584832	-0.167333
O	 2.4394739011	 1.7035337884	 0.5218826788	-0.287021
C	 1.1452951067	 2.1147913684	 0.0288685336	-0.067143
H	-1.5279406053	 3.6830954999	-0.0876177231	 0.133176
H	-2.2118816491	 3.1105543448	 1.4370752693	 0.140309
H	-0.2455205828	 4.2278581397	 2.4333028161	 0.118564
H	 3.2183559103	 3.5743772388	 1.1500775972	 0.123579
H	 2.6829283196	 2.5066689986	 2.4843009462	 0.136664
H	 1.2081054063	 2.4987403172	-1.0013272287	 0.120597
98.9256	144.4619	224.7424	256.0909	344.6019	476.1335	478.8944	536.2328	604.5229	714.0654	763.6252	812.3463	880.3219	929.253	945.2903	989.02	1016.5586	1019.1567	1035.8585	1077.9499	1135.9516	1137.3697	1169.9967	1224.6261	1253.5941	1296.8109	1323.7597	1345.4431	1404.2482	1498.9437	1503.7145	1794.6082	1868.2278	2984.2056	3018.8147	3019.237	3073.0065	3102.8752	3199.7399
O=C1OCC=C2COC12	O=C1OC[CH][C]2CO[C@@H]12	
InChI=1S/C6H6O3/c7-6-5-4(3-9-5)1-2-8-6/h1,5H,2-3H2	InChI=1S/C6H6O3/c7-6-5-4(3-9-5)1-2-8-6/h1,5H,2-3H2/t5-/m1/s1
