23
gdb 117851	2.55017	1.03038	0.90432	2.8611	78.79	-0.2494	0.0666	0.316	1432.5438	0.202231	-462.535262	-462.523969	-462.523025	-462.571418	40.567	
C	 0.0820870038	 1.3588473707	 0.0275611582	-0.228305
O	 0.1399600198	-0.0485663937	 0.026530342	-0.231823
C	 0.6446893407	-0.5752554108	-1.1789298745	-0.105707
C	 0.5846415374	-2.1053772751	-1.1419544941	 0.291804
C	-0.8542038818	-2.5918870461	-0.9608330163	-0.405814
C	 1.2050982451	-2.6781974059	-2.4361144506	-0.069069
O	 1.2946317989	-4.0847715552	-2.3726325035	-0.42953
O	 1.3015757148	-2.6772413224	-0.0314855026	-0.290365
C	 2.5332106638	-2.0867708139	 0.3396880957	-0.251061
H	 1.076882624	 1.8095385221	-0.1162268615	 0.10461
H	-0.583317422	 1.739314357	-0.7633046796	 0.107006
H	-0.3093320466	 1.6688026959	 0.999240633	 0.131212
H	 0.0466819351	-0.2276732147	-2.0383759688	 0.093718
H	 1.6762740351	-0.2247345512	-1.3474766712	 0.086595
H	-1.4868987027	-2.2296473564	-1.7770771014	 0.106218
H	-0.8774157008	-3.6831392751	-0.9679955585	 0.127374
H	-1.2532734875	-2.2248106953	-0.0144637568	 0.134598
H	 0.5810956125	-2.4255076209	-3.3001618149	 0.1044
H	 2.1969544769	-2.2246199393	-2.6039774555	 0.0779
H	 1.5674333654	-4.2774022416	-1.4650717675	 0.285663
H	 2.9625294236	-2.7342949679	 1.1086371059	 0.1268
H	 3.2478646518	-2.0235185304	-0.4933181833	 0.106917
H	 2.3860360827	-1.0866422298	 0.7636892759	 0.126858
80.7796	107.8516	114.8971	137.223	157.71	214.949	228.4905	238.4844	281.4727	300.9779	338.5246	349.7902	382.0442	417.3446	497.0175	503.4907	655.961	760.0606	877.5433	897.4682	962.6034	986.3714	1021.6082	1088.5077	1108.4519	1150.4236	1168.7019	1180.3266	1185.4144	1192.1736	1199.4935	1234.4866	1236.7707	1262.8607	1307.7681	1374.2952	1402.0202	1420.9579	1439.7721	1473.0148	1480.5603	1486.0746	1489.3214	1489.7168	1492.8168	1499.8783	1510.7215	1519.4326	1530.208	2952.8911	2959.4996	2973.182	2984.428	2999.0387	3015.9847	3053.3827	3064.7761	3067.7085	3111.2682	3117.6353	3127.604	3153.6228	3751.1449
COCC(C)(CO)OC	COC[C@@](C)(CO)OC	
InChI=1S/C6H14O3/c1-6(4-7,9-3)5-8-2/h7H,4-5H2,1-3H3	InChI=1S/C6H14O3/c1-6(4-7,9-3)5-8-2/h7H,4-5H2,1-3H3/t6-/m1/s1
