20
gdb 100469	4.40011	0.5941	0.54731	1.0724	87.16	-0.2307	0.0376	0.2682	2021.207	0.169576	-403.088631	-403.078151	-403.077207	-403.126151	36.613	
C	 0.0330762486	 1.5311773309	 0.0803044982	-0.382138
C	-0.0425497284	-0.0050641295	-0.0191168743	-0.142027
C	-1.4994787394	-0.4993334554	-0.018524414	-0.066834
O	-2.0844611026	-0.1061737893	 1.2123007337	-0.41962
C	 0.6603352941	-0.5068638433	-1.1981015612	 0.052373
C	 1.2290830103	-0.9077351444	-2.1837120064	 0.085638
C	 1.8898039311	-1.3977574755	-3.36085209	-0.159695
C	 3.265428941	-1.9728481876	-3.2616739575	-0.226207
N	 2.125962601	-2.8544434628	-3.5326154123	-0.308211
H	 1.0711932965	 1.8640739086	 0.1556840159	 0.120149
H	-0.4082406134	 1.9944796682	-0.807921931	 0.118799
H	-0.5166219241	 1.8695776133	 0.9607673603	 0.135695
H	 0.4292906507	-0.4296361772	 0.8778648257	 0.112588
H	-2.0289154718	-0.0616068377	-0.8789606051	 0.095099
H	-1.5113458639	-1.5923616445	-0.1392099501	 0.09532
H	-3.0128841129	-0.3547924171	 1.1993256549	 0.290228
H	 1.61484519	-0.904071797	-4.2896371082	 0.114474
H	 3.9537423168	-1.8438681212	-4.0922133927	 0.123809
H	 3.7262749894	-1.992000634	-2.2786752089	 0.122477
H	 1.852225877	-3.3286106045	-2.6750559969	 0.238084
16.5277	72.6346	79.3857	134.639	190.5268	198.7938	221.595	237.5344	304.6276	392.9625	457.7939	503.7132	516.5874	562.301	725.293	810.0005	840.1963	892.2449	930.9554	959.7087	984.1032	1017.5139	1078.6562	1082.3869	1110.3577	1122.7399	1148.273	1169.6346	1218.074	1237.3195	1255.8189	1262.9575	1298.4907	1328.4159	1344.6629	1395.265	1398.5807	1451.3437	1492.9518	1500.5264	1504.3114	1520.7466	2355.1915	2979.1598	3007.2687	3024.1376	3046.3996	3114.0588	3117.3026	3135.4694	3140.4626	3204.7268	3502.1614	3837.5546
CC(CO)C#CC1CN1	C[C@@H](CO)C#C[C@H]1CN1	
InChI=1S/C7H11NO/c1-6(5-9)2-3-7-4-8-7/h6-9H,4-5H2,1H3	InChI=1S/C7H11NO/c1-6(5-9)2-3-7-4-8-7/h6-9H,4-5H2,1H3/t6-,7+/m1/s1
