17
gdb 60905	2.99512	1.30387	1.09089	1.5871	68.68	-0.2411	-0.0401	0.201	1124.5602	0.134145	-458.91968	-458.911344	-458.9104	-458.953226	30.952	
O	-1.0813347709	 0.2666849596	-0.138202012	-0.427916
C	 0.1420147965	-0.4116816554	-0.129896123	-0.057862
C	 1.1908049378	 0.3782111657	-0.8959127346	 0.13345
O	 0.9132014425	 1.418302968	-1.4434248889	-0.264839
C	 0.621866195	-0.6675464036	 1.2800460134	 0.445215
C	-0.2183230545	-0.7367187102	 2.5099876304	-0.335727
C	 0.9696910184	 0.2096312048	 2.4639846154	-0.188051
C	 2.2546796706	-0.607748074	 2.5165173358	-0.091217
O	 1.8094429809	-1.4583675695	 1.4162397738	-0.333492
H	-0.9272479969	 1.061672944	-0.6749470239	 0.298249
H	 0.0582725622	-1.3976825704	-0.6259384749	 0.108116
H	 2.2106994091	-0.0480692726	-0.9104042136	 0.121139
H	-1.1815344013	-0.2466878739	 2.4258654665	 0.141014
H	-0.1889326654	-1.6331066915	 3.1242488163	 0.115027
H	 0.8816676734	 1.2779276357	 2.6047227432	 0.111645
H	 3.1507772008	-0.0491035918	 2.2253917697	 0.112922
H	 2.4554427519	-1.1863021349	 3.4252637264	 0.112328
55.4168	91.2385	168.9624	215.887	297.2475	333.487	382.9349	429.8145	481.656	512.8419	636.8304	750.279	776.1203	839.0407	857.0357	895.7372	954.6369	972.911	988.626	992.7889	1023.9232	1061.4677	1075.6646	1130.3672	1137.0003	1167.3894	1184.6214	1259.1735	1276.5032	1315.1477	1352.2233	1380.8872	1385.3526	1443.4329	1483.6535	1516.3968	1810.8026	2930.1495	2976.5709	3029.7876	3080.5856	3117.0425	3209.8033	3227.2988	3674.1637
OC(C=O)C12CC1CO2	O[C@@H](C=O)[C@]12C[C@H]1CO2	
InChI=1S/C6H8O3/c7-2-5(8)6-1-4(6)3-9-6/h2,4-5,8H,1,3H2	InChI=1S/C6H8O3/c7-2-5(8)6-1-4(6)3-9-6/h2,4-5,8H,1,3H2/t4-,5-,6-/m0/s1
