17
gdb 126175	4.05196	0.91637	0.89381	2.6529	70.3	-0.2772	-0.0457	0.2315	1354.2112	0.134737	-455.122465	-455.113637	-455.112693	-455.156899	31.648	
C	 0.007318181	 1.5542180108	 0.0784928238	-0.386979
C	-0.0704365623	 0.0336064742	-0.0660159462	-0.187707
C	 0.7499348124	-0.4899424451	-1.258442639	-0.002032
O	 2.116327631	-0.1026750365	-1.1768298638	-0.426228
C	 0.6349395043	-1.9801561036	-1.3971572598	 0.283593
C	 0.0588267936	-2.7904409291	-2.3208631956	-0.069705
O	 0.2551575113	-4.0617545254	-1.9728494719	-0.160548
N	 1.0076791794	-4.0315638284	-0.7626026033	 0.000348
N	 1.2026861904	-2.8263438683	-0.4638858029	-0.188192
H	 1.0462183168	 1.878611226	 0.1749949335	 0.133849
H	-0.418774443	 2.0570092936	-0.7970105811	 0.113751
H	-0.545242695	 1.8923682478	 0.9597003695	 0.114532
H	 0.2954147635	-0.4580176725	 0.8447222707	 0.111572
H	-1.1115080131	-0.2887778888	-0.1921004901	 0.099613
H	 0.3756405051	-0.0266445951	-2.1788826678	 0.096347
H	 2.5144405232	-0.6080658001	-0.4576705473	 0.294773
H	-0.4925889486	-2.6079419694	-3.2284295886	 0.173013
44.962	97.6316	117.63	188.4488	227.2504	285.1036	341.3014	365.062	438.3233	514.733	644.0133	650.444	741.9391	751.8615	797.5264	853.6453	901.0261	985.4897	986.661	1041.1428	1062.3201	1109.5421	1118.6037	1149.1771	1241.8643	1256.4189	1272.4843	1331.9817	1357.5181	1384.4771	1406.4294	1428.0015	1463.6406	1483.0202	1494.7737	1508.3642	1617.8104	3024.2668	3038.1589	3044.7655	3065.9673	3104.5279	3127.9456	3285.3074	3791.3035
CCC(O)C1=CON=N1	CC[C@@H](O)c1conn1	
InChI=1S/C5H8N2O2/c1-2-5(8)4-3-9-7-6-4/h3,5,8H,2H2,1H3	InChI=1S/C5H8N2O2/c1-2-5(8)4-3-9-7-6-4/h3,5,8H,2H2,1H3/t5-/m1/s1
