12
gdb 15466	3.08715	2.12431	1.49196	3.7749	55.51	-0.2952	-0.0169	0.2783	808.6044	0.084935	-414.668519	-414.661758	-414.660814	-414.700014	23.705	
N	-0.0344338323	 1.2713559175	-0.2209662857	-0.514672
C	 0.0086995985	 0.0370093353	-0.0038395789	 0.404338
O	 1.1025991265	-0.7356276637	 0.2386487935	-0.226977
C	 0.6683538063	-2.0741386961	 0.4797992466	 0.012004
O	-0.6147045566	-2.1883296721	-0.092443656	-0.227279
C	-1.2003695685	-0.9028712136	 0.0077890262	-0.128058
C	-1.9944767582	-0.7524526737	 1.2429550902	 0.294925
N	-2.6094048712	-0.6610735738	 2.2161267139	-0.310587
H	 0.8919130689	 1.6969126527	-0.1759516541	 0.242838
H	 1.342606515	-2.7703010907	-0.0222137912	 0.147816
H	 0.6474290079	-2.2523095921	 1.5639966021	 0.133387
H	-1.8408930063	-0.7326184897	-0.8596638167	 0.172265
86.237	148.0021	171.5402	272.6811	401.4159	454.143	552.4958	657.5846	693.9145	751.2358	883.6628	904.2701	948.3538	998.1113	1001.4337	1059.7695	1127.4417	1173.5074	1218.4997	1258.4835	1288.8901	1340.4068	1437.642	1539.7084	1808.9988	2362.8731	3013.9476	3108.7622	3123.7794	3494.2767
N=C1OCOC1C#N	[NH][C]1OCO[C@H]1C#N	
InChI=1S/C4H4N2O2/c5-1-3-4(6)8-2-7-3/h3,6H,2H2	InChI=1S/C4H4N2O2/c5-1-3-4(6)8-2-7-3/h3,6H,2H2/t3-/m0/s1
