23
gdb 101783	2.62435	0.8582	0.68399	3.3494	84.07	-0.243	-0.0095	0.2335	1734.1395	0.20093	-425.447189	-425.435573	-425.434629	-425.485662	40.291	
C	 0.0940499391	 1.4848803306	 0.3438729335	-0.392221
C	-0.0193924897	-0.0144633865	 0.0578832846	-0.173594
C	-1.4672342568	-0.4929444404	-0.0608089505	 0.156676
C	-1.5679944253	-1.9792018887	-0.4100365542	-0.404256
O	-2.0858042886	-0.2049418795	 1.1912427175	-0.234574
C	-3.4767875652	-0.1689078107	 1.2005519353	-0.168567
C	-3.9768225396	 0.6635446569	 2.382843954	 0.366544
C	-5.4710483963	 0.5688621352	 2.6424018085	-0.482745
O	-3.239811725	 1.34203704	 3.0522200261	-0.273816
H	 1.1383782473	 1.7826345651	 0.4772942643	 0.106977
H	-0.3166941939	 2.0763696393	-0.4827933192	 0.103614
H	-0.4604533015	 1.7406476429	 1.2498660326	 0.152801
H	 0.5058507786	-0.2703749435	-0.87022333	 0.090511
H	 0.4614299106	-0.5867464585	 0.8610117583	 0.10513
H	-1.9746813087	 0.096843554	-0.8452326558	 0.060597
H	-2.6097827434	-2.3042201115	-0.492804431	 0.111233
H	-1.0800726962	-2.1823934979	-1.3685654164	 0.116004
H	-1.0808837154	-2.5836902542	 0.361767502	 0.124986
H	-3.8841899531	 0.2978132479	 0.2839065057	 0.105853
H	-3.9325026065	-1.173205698	 1.2579497626	 0.103565
H	-5.696301389	-0.3881210063	 3.1281506067	 0.14718
H	-5.7817676551	 1.3799231315	 3.3018803192	 0.14701
H	-6.0460255762	 0.5993667825	 1.7107333461	 0.131091
28.8881	48.1182	93.2847	104.0955	116.8781	164.8312	210.7878	227.815	241.4779	280.4255	347.5154	406.1824	470.3174	486.8121	504.3269	598.5734	776.7913	811.7046	851.5505	864.7806	902.8312	963.2694	986.3175	1003.3395	1037.0288	1092.8829	1125.3509	1150.7448	1172.4517	1191.5811	1208.1099	1262.0631	1299.7553	1327.7793	1368.6116	1380.8445	1392.6676	1402.603	1406.6131	1416.4863	1463.7694	1474.2567	1476.0215	1483.391	1491.1156	1496.7682	1501.0091	1514.1949	1834.7737	2935.0398	2942.3826	2963.184	3027.2897	3033.622	3035.8616	3036.8619	3065.3884	3096.8071	3098.3834	3105.9354	3112.2618	3130.642	3152.6936
CCC(C)OCC(C)=O	CC[C@@H](C)OCC(=O)C	
InChI=1S/C7H14O2/c1-4-7(3)9-5-6(2)8/h7H,4-5H2,1-3H3	InChI=1S/C7H14O2/c1-4-7(3)9-5-6(2)8/h7H,4-5H2,1-3H3/t7-/m1/s1
