15
gdb 124145	6.79456	0.75953	0.68903	2.5119	83.	-0.2575	-0.0476	0.2099	1615.9783	0.111326	-416.800655	-416.791691	-416.790747	-416.83741	30.297	
C	-0.0737159894	 1.4389822774	 0.0514266368	-0.51495
C	 0.0011798475	-0.0101390358	 0.0174816895	 0.327955
C	 0.0684566742	-1.2129868047	-0.009333854	-0.121939
C	 0.1334412937	-2.6198316851	-0.042662684	 0.24054
N	 1.179472842	-3.3908268452	 0.07410902	-0.350548
C	 0.630780474	-4.6475710572	-0.0368738382	 0.325245
C	 1.4358873817	-5.898562555	 0.0333253414	-0.501498
N	-0.6675371175	-4.6571464665	-0.2107304443	-0.150442
O	-1.0141582873	-3.3059553395	-0.2166132476	-0.203018
H	 0.8946674298	 1.8866646956	-0.1945584628	 0.166028
H	-0.8129848353	 1.8095909766	-0.6663488287	 0.165527
H	-0.3654929334	 1.7913647071	 1.0467759334	 0.165712
H	 1.9598405967	-5.9578601135	 0.9918129996	 0.150479
H	 0.7905990948	-6.7708479874	-0.0790370004	 0.150431
H	 2.1934704785	-5.9055736768	-0.7558258306	 0.150478
5.3874	84.4093	88.4339	134.8656	230.4636	282.7096	340.4901	364.1473	465.6493	474.2993	548.3901	684.8379	706.5572	770.7053	943.6274	972.984	996.8395	1047.0579	1047.8444	1052.205	1071.8862	1095.2794	1287.659	1368.3242	1410.1146	1420.5826	1470.0476	1470.1747	1474.1979	1475.7607	1556.3078	1603.1418	2370.2697	3033.1823	3052.777	3097.1295	3102.6781	3113.6232	3151.5942	5.4091	84.4085	88.4336	134.8645	230.4636	282.7099	340.491	364.1476	465.6492	474.3008	548.3901	684.8381	706.5571	770.7053	943.6289	972.9839	996.8394	1047.0581	1047.8446	1052.2052	1071.8864	1095.2795	1287.659	1368.3242	1410.1145	1420.5828	1470.0475	1470.1747	1474.1983	1475.761	1556.3082	1603.1418	2370.2699	3033.1822	3052.777	3097.1295	3102.6781	3113.6232	3151.5942
CC#CC1=NC(C)=NO1	CC#Cc1nc(C)no1	
InChI=1S/C6H6N2O/c1-3-4-6-7-5(2)8-9-6/h1-2H3	InChI=1S/C6H6N2O/c1-3-4-6-7-5(2)8-9-6/h1-2H3
