18
gdb 68469	2.48861	1.93327	1.31608	2.0275	70.92	-0.2265	-0.0275	0.199	978.1745	0.148937	-439.081214	-439.073556	-439.072612	-439.115503	30.017	
O	-0.0004872219	 1.4093326635	-0.0553659461	-0.48756
C	-0.0015732746	 0.0328614554	 0.0286573455	 0.313703
C	 0.1828154664	-0.701441169	 1.3907192534	-0.23916
N	-0.716704294	-1.791672293	 0.8884827706	-0.104335
C	-1.3233643542	-0.7879215564	-0.0473521791	-0.239661
C	 0.0788041602	-2.7607562906	 0.115414305	-0.184325
C	 1.0330109858	-2.1191636388	-0.9403052808	-0.336105
C	 0.9733093014	-0.5957009051	-0.9495019941	 0.362975
O	 1.6444906012	 0.1019273628	-1.6777186969	-0.357049
H	 0.6524366199	 1.6292441323	-0.7411745861	 0.291594
H	 1.1837017902	-1.0158401987	 1.7025362898	 0.106644
H	-0.2992299024	-0.1491997535	 2.2026299458	 0.123841
H	-2.144935557	-0.2559123535	 0.4409704141	 0.123927
H	-1.660131862	-1.1791920573	-1.0123867267	 0.106537
H	 0.654664817	-3.3566644237	 0.8296622467	 0.116125
H	-0.620463494	-3.4436893134	-0.3759863977	 0.115818
H	 2.0782549812	-2.4010480527	-0.7751360501	 0.143223
H	 0.799870777	-2.4532409082	-1.9571533034	 0.143809
5.2694	156.605	313.8932	352.3452	395.9759	399.9742	418.2832	500.1811	517.1962	594.04	597.7741	677.9625	781.5551	787.3744	814.7921	931.7505	940.1626	946.993	985.802	1004.8055	1040.7887	1074.1761	1112.0463	1117.2978	1189.5334	1222.896	1230.8913	1239.6571	1276.2311	1290.0917	1308.759	1350.3347	1377.0913	1426.3386	1449.0405	1491.6275	1496.1103	1522.2183	1801.9238	3041.5039	3044.936	3047.291	3056.561	3077.9971	3097.7096	3102.3916	3104.0497	3663.6069	5.2951	156.6059	313.8933	352.3453	395.9761	399.9744	418.2833	500.1802	517.1963	594.04	597.774	677.9626	781.5555	787.3745	814.7925	931.7508	940.1625	946.9932	985.8019	1004.8054	1040.7888	1074.1758	1112.0462	1117.2974	1189.5334	1222.8955	1230.8909	1239.657	1276.231	1290.0915	1308.7579	1350.3345	1377.0906	1426.3388	1449.04	1491.6272	1496.1093	1522.218	1801.9237	3041.5041	3044.9362	3047.2911	3056.5611	3077.9973	3097.7097	3102.3917	3104.0498	3663.6064
OC12CN(C1)CCC2=O	O[C@@]12CN(C1)CCC2=O	
InChI=1S/C6H9NO2/c8-5-1-2-7-3-6(5,9)4-7/h9H,1-4H2	InChI=1S/C6H9NO2/c8-5-1-2-7-3-6(5,9)4-7/h9H,1-4H2
