18
gdb 72390	2.77853	2.02785	1.471	2.2408	74.44	-0.2412	0.0206	0.2619	927.4905	0.149811	-401.934337	-401.927329	-401.926385	-401.965295	28.654	
C	 0.0391055209	 1.4242611663	-0.0564011471	-0.461114
C	-0.0763616064	-0.0749975558	 0.0393264302	 0.4328
O	 0.9693435641	-0.6758456855	-0.7330076989	-0.274877
C	 0.6655705208	-1.8203593185	-1.3966041121	 0.112926
N	-0.2973362039	-2.6123027889	-1.1797104391	-0.263945
C	-1.1454308314	-2.2355831466	-0.0562127909	-0.011136
C	-0.4174633927	-2.1935770949	 1.3367984498	-0.25359
C	-0.5455767039	-0.6713595594	 1.3390320963	-0.114674
C	-1.4136881358	-0.7208362254	 0.0610593928	-0.153875
H	 1.0203840177	 1.7545640571	 0.2980223779	 0.132381
H	-0.0794626617	 1.7561926658	-1.0922159766	 0.128868
H	-0.7285568244	 1.9085757814	 0.5527890884	 0.124072
H	 1.3949352287	-2.0084838605	-2.1817089283	 0.122916
H	-2.042381093	-2.8536705309	-0.0567436948	 0.085053
H	-1.0197903494	-2.6587963253	 2.1207040758	 0.108155
H	 0.591899684	-2.6125916922	 1.3636703454	 0.109324
H	-0.6651410274	-0.0457312782	 2.2162673352	 0.085998
H	-2.3305511562	-0.2093893885	-0.204432094	 0.090717
178.123	214.193	247.6543	317.5652	335.6821	479.4363	511.9642	538.7184	602.8325	664.499	743.7217	820.544	838.6351	853.6826	894.6849	929.1444	953.7256	969.3517	990.1793	1014.9054	1024.2197	1046.1693	1092.8398	1104.7953	1139.2132	1171.2053	1202.5314	1222.1016	1251.4516	1264.0762	1283.9879	1344.7694	1398.4758	1415.8193	1429.454	1481.3728	1491.5146	1503.3956	1706.3146	3042.04	3059.463	3106.0793	3109.6985	3118.0444	3123.0405	3164.0183	3173.7487	3190.2178
CC12OC=NC3CC1C23	C[C@@]12O[CH][N][C@H]3C[C@@H]1[C@@H]23	
InChI=1S/C7H9NO/c1-7-4-2-5(6(4)7)8-3-9-7/h3-6H,2H2,1H3	InChI=1S/C7H9NO/c1-7-4-2-5(6(4)7)8-3-9-7/h3-6H,2H2,1H3/t4-,5+,6-,7-/m1/s1
