16
gdb 7922	3.53964	1.69234	1.19774	1.7027	64.63	-0.2417	-0.0419	0.1997	972.0942	0.128914	-383.797226	-383.789361	-383.788417	-383.83032	28.588	
C	-0.4747727856	 1.4955872744	 0.0822543708	-0.399406
C	 0.1453950872	 0.1058514455	-0.0273047818	-0.097759
C	 1.0570009348	-0.1548720342	-1.2402484268	-0.334226
C	 2.0714739313	-1.2138567687	-0.793572506	 0.388589
O	 2.758328104	-1.8760640353	-1.5254631867	-0.298914
C	 2.0669652754	-1.2827943895	 0.7346005672	-0.436928
C	 1.0188560138	-0.2680926429	 1.1829213769	 0.386696
O	 0.8992293131	 0.1849469206	 2.2913514444	-0.30651
H	 0.299068403	 2.2696307254	 0.0461812745	 0.122898
H	-1.1782455662	 1.6799871142	-0.7344807473	 0.118408
H	-1.0042727113	 1.6000101784	 1.0321133333	 0.14218
H	-0.6587115616	-0.6473302477	-0.0349227606	 0.113035
H	 0.5402924874	-0.4705363236	-2.1491198554	 0.13647
H	 1.6253761042	 0.7515881208	-1.4933812579	 0.138282
H	 1.7848556426	-2.2913795279	 1.0612501079	 0.164494
H	 3.052297708	-1.0803179693	 1.1640445173	 0.162692
38.4069	82.5355	197.2521	248.6094	320.8018	388.0729	437.9006	503.2383	540.1878	580.6769	596.5908	728.5155	787.0354	822.4289	903.3424	915.1319	986.2473	1034.2972	1131.7115	1136.2501	1163.7234	1174.3221	1214.6245	1227.4319	1266.6885	1301.3088	1345.602	1398.7907	1411.085	1454.626	1494.6732	1496.0778	1832.3394	1866.9522	2987.217	3022.8269	3042.9375	3050.4453	3104.373	3109.4436	3112.0177	3130.0025
CC1CC(=O)CC1=O	C[C@H]1CC(=O)CC1=O	
InChI=1S/C6H8O2/c1-4-2-5(7)3-6(4)8/h4H,2-3H2,1H3	InChI=1S/C6H8O2/c1-4-2-5(7)3-6(4)8/h4H,2-3H2,1H3/t4-/m0/s1
