22
gdb 123229	6.17491	0.44166	0.43568	3.4435	82.47	-0.2511	0.0328	0.2838	2529.0574	0.192348	-441.507504	-441.496315	-441.495371	-441.54638	37.685	
C	-0.1712751215	 1.5016323829	 0.2588516731	-0.384672
C	-0.0567971565	 0.0027016178	 0.0392263957	-0.029909
O	-1.35612366	-0.5531418545	 0.0362073328	-0.243887
C	-1.3665675911	-1.9482628289	-0.1596305195	-0.046229
C	-2.8114981743	-2.4296912665	-0.1218608914	-0.204385
C	-2.925933045	-3.9364248277	-0.3729741346	-0.160995
N	-4.3019986355	-4.4053763027	-0.3421210752	-0.275897
C	-4.7730572033	-5.2742064719	 0.5923858866	 0.154213
O	-4.1156386971	-5.7818482389	 1.4760736113	-0.321697
H	 0.8207196674	 1.9629734983	 0.2668162038	 0.114933
H	-0.7625100461	 1.9621795249	-0.537750549	 0.125587
H	-0.6606277741	 1.7127091505	 1.213871197	 0.127682
H	 0.4504204663	-0.2110880184	-0.9173980022	 0.083915
H	 0.552513654	-0.4598614644	 0.8343611317	 0.086801
H	-0.9000218215	-2.2051661957	-1.1277682365	 0.082052
H	-0.7743924879	-2.4542225101	 0.622840842	 0.09144
H	-3.2482743152	-2.1854580365	 0.8521173296	 0.12192
H	-3.3826961284	-1.8751704225	-0.8770200056	 0.100156
H	-2.4719559728	-4.1946916086	-1.3389815242	 0.108125
H	-2.4006140377	-4.5019763352	 0.400518703	 0.15237
H	-4.9556666215	-4.0337627491	-1.0132013115	 0.245742
H	-5.853500728	-5.477480803	 0.4511146728	 0.072735
23.1588	54.7229	64.6102	90.6036	121.9314	144.2147	196.7063	246.2506	249.0701	303.2837	344.6747	467.1382	508.0814	538.3488	740.958	788.4974	821.4519	887.5367	900.1863	985.3347	1030.0176	1038.8613	1059.8582	1080.5336	1150.0653	1162.3777	1170.0441	1189.7015	1213.4394	1239.734	1294.9949	1296.273	1308.4557	1324.0507	1389.2114	1403.3065	1411.3336	1431.7475	1455.307	1483.5671	1488.2672	1498.8178	1501.5123	1518.6018	1536.7912	1539.6326	1807.4074	2932.6069	2937.1127	2954.1574	2966.1655	2975.6149	3016.6379	3032.9938	3044.6682	3083.9807	3114.9508	3119.2019	3121.1761	3631.2343
CCOCCCNC=O	CCOCCCNC=O	
InChI=1S/C6H13NO2/c1-2-9-5-3-4-7-6-8/h6H,2-5H2,1H3,(H,7,8)	InChI=1S/C6H13NO2/c1-2-9-5-3-4-7-6-8/h6H,2-5H2,1H3,(H,7,8)
