16
gdb 51766	2.54973	1.15167	0.87572	6.5053	71.16	-0.2917	-0.0064	0.2853	1294.1827	0.123553	-437.906763	-437.898116	-437.897172	-437.941539	30.126	
O	-0.6746845043	 0.2551953554	-0.3285644315	-0.257667
C	-0.3769245269	 1.3971109357	-0.1731320532	 0.170593
O	 0.882127359	 1.7888126861	 0.1376585141	-0.180123
C	 1.1424009435	 3.1661585884	 0.289705811	 0.153928
C	 2.0894435341	 3.5534081059	 1.4392924938	-0.255449
C	 2.7452801387	 4.596129141	 0.4939906224	-0.230487
C	 2.1239197132	 3.8402297276	-0.7323356756	-0.227635
C	 3.0453889152	 2.9162502776	-1.3734014188	 0.296827
N	 3.7937428902	 2.2001573633	-1.8863201726	-0.313841
H	-1.0795427207	 2.249887108	-0.2538295759	 0.082154
H	 0.2037538505	 3.7318041914	 0.3177031194	 0.101767
H	 1.6378512738	 3.9040562101	 2.3682993383	 0.118715
H	 2.7697447426	 2.7264597848	 1.6556241182	 0.148399
H	 2.3113696352	 5.5927965432	 0.5934913406	 0.123613
H	 3.8314255149	 4.6728609491	 0.5102702932	 0.140231
H	 1.651020361	 4.4594275225	-1.4984941233	 0.128975
40.3707	77.8203	122.6889	154.4079	210.2526	280.5865	356.8583	400.8725	487.9593	563.1717	669.2777	717.9139	785.196	829.9789	901.8249	932.1081	975.5564	1025.0863	1039.4446	1085.4302	1105.907	1133.8912	1167.1366	1205.2739	1239.7605	1258.3113	1269.1191	1277.3423	1346.421	1385.8305	1440.4633	1481.5217	1497.1205	1879.6084	2359.4298	2944.1023	3038.5058	3080.5085	3082.027	3090.8189	3137.3981	3156.021
O=COC1CCC1C#N	O=CO[C@H]1CC[C@H]1C#N	
InChI=1S/C6H7NO2/c7-3-5-1-2-6(5)9-4-8/h4-6H,1-2H2	InChI=1S/C6H7NO2/c7-3-5-1-2-6(5)9-4-8/h4-6H,1-2H2/t5-,6-/m0/s1
