22
gdb 107456	2.48979	1.32493	1.16184	1.2033	81.77	-0.2203	0.0567	0.277	1201.6054	0.193027	-404.306006	-404.296219	-404.295275	-404.34019	37.339	
C	-0.0733457516	 1.5405276794	 0.0930200727	-0.451128
C	-0.012453343	 0.0185469625	-0.0020846714	 0.279541
C	-1.3744987847	-0.5798292207	-0.3574481687	-0.450974
C	 1.1328724857	-0.5814860871	-0.9126469538	-0.270503
C	 1.6955793339	-1.2912862998	 0.3185927889	-0.099491
N	 2.0454032022	-0.2117409616	 1.2845112616	-0.389095
C	 0.6523746969	-0.7091137718	 1.2007376036	 0.317749
C	-0.038431377	-1.2648975791	 2.4181984902	-0.226824
O	 0.8611259297	-1.9819099591	 3.2612722434	-0.411516
H	 0.8961171903	 1.9429659717	 0.3947525081	 0.137027
H	-0.3468852054	 1.9792635927	-0.8735594843	 0.107085
H	-0.8250358797	 1.8631414998	 0.8238442937	 0.100459
H	-1.7079856752	-0.2136755955	-1.3347505415	 0.114808
H	-1.3341372414	-1.6734753568	-0.4082359095	 0.11227
H	-2.1404438233	-0.3040630632	 0.3769316723	 0.109461
H	 0.7437637426	-1.2576522748	-1.67784514	 0.095558
H	 1.8103484876	 0.1427704556	-1.3726876735	 0.101478
H	 2.1941985367	-2.2511677338	 0.3751291175	 0.095442
H	 2.4522813867	-0.6944897506	 2.087510908	 0.216783
H	-0.5345283398	-0.4539470148	 2.972364835	 0.100436
H	-0.8216605915	-1.9696949732	 2.1173110553	 0.118268
H	 1.1698301103	-1.3820197899	 3.9453939222	 0.293167
64.136	142.9632	172.5811	214.3786	226.7666	237.8168	282.9744	305.7145	331.567	360.3582	451.4505	468.6771	538.5925	621.3995	682.088	799.2267	843.9252	856.6167	911.6656	934.6367	956.6328	977.4846	995.2464	1012.5003	1019.8665	1043.0205	1081.3271	1099.6341	1172.9755	1182.7371	1210.3194	1229.5492	1245.9184	1270.4943	1302.2572	1341.3173	1386.6041	1395.5672	1412.485	1415.2529	1430.746	1478.533	1484.463	1490.5536	1498.0854	1502.5187	1512.8023	2990.1703	3018.8338	3023.9646	3056.7681	3058.8715	3079.0015	3086.5508	3092.5007	3113.9011	3125.9999	3189.0155	3452.3737	3844.5247
CC1(C)CC2NC12CO	CC1(C)C[C@H]2N[C@@]12CO	
InChI=1S/C7H13NO/c1-6(2)3-5-7(6,4-9)8-5/h5,8-9H,3-4H2,1-2H3	InChI=1S/C7H13NO/c1-6(2)3-5-7(6,4-9)8-5/h5,8-9H,3-4H2,1-2H3/t5-,7-/m1/s1
