15
gdb 24035	4.56653	1.04728	0.85637	3.1802	77.39	-0.264	-0.0375	0.2265	1255.4439	0.115249	-379.744704	-379.737253	-379.736308	-379.77831	27.194	
N	-0.6501392825	-0.2718458184	 1.6993404977	-0.305602
C	-0.3140264306	 0.3683126865	 0.7985380199	 0.275071
C	 0.1166552323	 1.1793815591	-0.3375170656	-0.449414
C	 1.4719536007	 1.8479801865	-0.1621561935	 0.292636
C	 2.248470281	 1.7058581717	 0.9832190262	-0.19621
C	 3.4775609484	 2.3611237157	 1.0448448997	 0.010471
N	 3.9660313626	 3.1253311558	 0.0670954217	-0.265032
C	 3.211819321	 3.2550492913	-1.0287395476	 0.013627
C	 1.9734535777	 2.645510525	-1.1917551687	-0.189762
H	 0.1318501876	 0.540243159	-1.2289269756	 0.174604
H	-0.6502528704	 1.9409099039	-0.5253624212	 0.174596
H	 1.910218269	 1.0987711022	 1.8152054026	 0.13197
H	 4.0983569899	 2.2617725421	 1.9320627303	 0.11853
H	 3.6186137249	 3.8800010863	-1.8201524473	 0.115142
H	 1.4115940383	 2.7928503734	-2.1089627686	 0.099374
16.5184	129.0034	193.3069	319.879	372.2728	388.331	438.7639	496.6028	622.9036	680.6739	750.4079	814.1629	816.8765	899.9186	955.416	960.625	996.6479	1005.8802	1010.5877	1098.3142	1115.9909	1208.6375	1231.3383	1251.6452	1281.4773	1322.6979	1372.5485	1446.1936	1454.1722	1528.6376	1608.5292	1635.9793	2368.3696	3035.1298	3066.2258	3154.7792	3158.1845	3179.9048	3200.7823
N#CCC1=CC=NC=C1	N#CCc1ccncc1	
InChI=1S/C7H6N2/c8-4-1-7-2-5-9-6-3-7/h2-3,5-6H,1H2	InChI=1S/C7H6N2/c8-4-1-7-2-5-9-6-3-7/h2-3,5-6H,1H2
