20
gdb 63895	2.4677	1.65092	1.34278	3.6308	77.98	-0.2429	-0.0049	0.238	1056.5271	0.170934	-403.166535	-403.157899	-403.156955	-403.199533	33.364	
C	-0.3388102965	 1.6263337669	 0.0025019009	-0.42877
C	 0.0089904926	 0.1383429186	-0.0398574871	 0.195527
C	-1.2735910821	-0.7210845225	-0.0025283879	-0.425086
C	 0.9144888583	-0.2813086962	-1.227882728	-0.299001
C	 1.8293847436	-1.3604822829	-0.6385479904	-0.022591
C	 2.9854127432	-0.9494513683	 0.1984040613	-0.247229
N	 1.7132091754	-1.3556280439	 0.8298818003	-0.119794
C	 0.8636504539	-0.2620301432	 1.1832696296	 0.352233
O	 0.8226994144	 0.234450794	 2.2758843345	-0.32849
H	 0.5604456593	 2.2477600861	-0.055347325	 0.113543
H	-0.9938228391	 1.8976405089	-0.8320019783	 0.110348
H	-0.8487028062	 1.868012715	 0.9387879551	 0.138326
H	-1.9034402426	-0.492237681	-0.8688551317	 0.117352
H	-1.0422542953	-1.7906317167	-0.0226030718	 0.128466
H	-1.8487021262	-0.5160800407	 0.9052163648	 0.134729
H	 0.3307052782	-0.6721503899	-2.0648706093	 0.110038
H	 1.491304043	 0.5697252487	-1.6050184563	 0.108707
H	 1.8396345943	-2.3435942955	-1.0994442527	 0.10205
H	 3.814975895	-1.6282297862	 0.3726184075	 0.130743
H	 3.2467056369	 0.1059244187	 0.2318280145	 0.128901
63.9435	192.7137	205.86	231.565	263.7387	294.407	307.419	361.306	399.9257	509.8114	568.0069	680.8359	688.3695	777.8006	811.5378	854.1094	868.0358	906.462	943.6657	960.931	990.939	1011.758	1042.2537	1075.4874	1097.0132	1121.8236	1158.966	1172.2597	1210.452	1237.5043	1266.6788	1290.009	1326.6534	1380.5989	1396.8347	1418.609	1480.7824	1485.8813	1495.5271	1501.9583	1508.6033	1512.9605	1847.4903	3031.4076	3035.7982	3048.3784	3096.6814	3101.3934	3103.9294	3106.9802	3114.1521	3121.1841	3153.1694	3196.5918
CC1(C)CC2CN2C1=O	CC1(C)C[C@H]2CN2C1=O	
InChI=1S/C7H11NO/c1-7(2)3-5-4-8(5)6(7)9/h5H,3-4H2,1-2H3	InChI=1S/C7H11NO/c1-7(2)3-5-4-8(5)6(7)9/h5H,3-4H2,1-2H3/t5-,8?/m0/s1
