16
gdb 50275	2.16488	1.51966	1.05002	3.1811	77.48	-0.2279	-0.0345	0.1933	1143.4396	0.122374	-400.667833	-400.659381	-400.658436	-400.701386	31.528	
O	-0.5799523135	 1.0029814729	 0.8693678545	-0.243637
C	 0.1843536716	 0.909018122	-0.0561593869	 0.170275
C	 1.4595721862	 1.7166157427	-0.1772349946	-0.124882
N	 2.5799113776	 1.0356288422	-0.895656326	-0.340131
C	 2.7302746083	 2.1963026829	-1.791769435	-0.06036
C	 1.5151854554	 2.3041476561	-2.6388499342	-0.309295
C	 1.4631245785	 2.8697960245	-1.2204275999	 0.12359
C	 1.1501965486	 4.2214005801	-0.928163977	 0.191461
C	 0.8848214185	 5.3651673592	-0.6614955966	-0.400833
H	-0.0061548958	 0.2209538543	-0.908778808	 0.082304
H	 1.7351001038	 2.1027848788	 0.8076903025	 0.106224
H	 3.3783984892	 0.919017038	-0.282356089	 0.23588
H	 3.6924593791	 2.6294790095	-2.0351630938	 0.116785
H	 1.5320133576	 3.0792422297	-3.3969848918	 0.136013
H	 0.9646298049	 1.4069997093	-2.9027014282	 0.12577
H	 0.6462363201	 6.3729804779	-0.4277675161	 0.190835
56.8635	105.382	161.2954	186.7745	269.2826	399.0101	432.9059	450.7531	500.8655	523.6289	565.4915	601.092	661.5167	730.4988	797.1953	816.8524	891.2039	943.349	980.2415	1011.0817	1033.0827	1043.3167	1077.2342	1098.439	1115.366	1192.0514	1199.3344	1253.056	1323.5536	1361.9612	1400.0166	1417.5256	1480.0831	1829.151	2230.6092	2894.8139	3081.5026	3130.2342	3195.8999	3226.3966	3502.0295	3545.0241
O=CC1NC2CC12C#C	O=C[C@H]1N[C@H]2C[C@@]12C#C	
InChI=1S/C7H7NO/c1-2-7-3-5(7)8-6(7)4-9/h1,4-6,8H,3H2	InChI=1S/C7H7NO/c1-2-7-3-5(7)8-6(7)4-9/h1,4-6,8H,3H2/t5-,6+,7+/m0/s1
