18
gdb 122804	6.83433	0.52333	0.49055	2.6024	71.9	-0.2698	-0.0758	0.1941	2120.5949	0.145183	-476.224349	-476.214117	-476.213173	-476.261078	34.549	
O	-0.244972642	 1.4623456859	 0.01255845	-0.418524
C	-0.0357508235	 0.0601464173	 0.0025255486	-0.073035
C	-1.4067450077	-0.6059623567	 0.0122376672	-0.191021
C	-1.3038972642	-2.121229111	 0.0024263373	-0.066518
O	-2.6416189699	-2.6478223936	 0.0125663059	-0.241811
C	-2.7557535578	-3.9823782689	 0.0063897006	 0.310396
N	-1.7774662136	-4.788268571	-0.0075884012	-0.507618
C	-4.2138764153	-4.3897217223	 0.0185213035	 0.10701
O	-4.5519948223	-5.5440459443	 0.0155477532	-0.235082
H	 0.6135656383	 1.8953953343	 0.0070387637	 0.288423
H	 0.5270448338	-0.2545212052	-0.8916705603	 0.090562
H	 0.5445127759	-0.264614915	 0.881818787	 0.090566
H	-1.9564157633	-0.2774962423	 0.9006675948	 0.119821
H	-1.9738457327	-0.2672710558	-0.8612736178	 0.11983
H	-0.7846059211	-2.4975146482	-0.8863924127	 0.126191
H	-0.7671979667	-2.5077728533	 0.8763718562	 0.126209
H	-2.1485237294	-5.7411963795	-0.0090979298	 0.24654
H	-4.9360175484	-3.5495329804	 0.0301691939	 0.108061
44.3323	71.547	87.7324	116.9714	140.2452	209.6187	225.1465	270.1467	270.3197	345.8788	456.6835	519.5133	571.0438	736.0396	774.9143	878.8319	906.4574	937.087	991.7551	1035.3187	1040.8466	1071.4476	1100.1679	1134.1162	1173.745	1232.199	1245.5871	1298.5175	1309.1951	1318.762	1343.5326	1403.3281	1448.6729	1468.9087	1498.4087	1515.2879	1532.3458	1716.2353	1831.4571	2948.0558	2960.6309	2985.7721	3036.964	3052.2576	3072.2952	3102.6858	3465.6308	3831.5371
OCCCOC(=N)C=O	OCCCO[C]([NH])C=O	
InChI=1S/C5H9NO3/c6-5(4-8)9-3-1-2-7/h4,6-7H,1-3H2	InChI=1S/C5H9NO3/c6-5(4-8)9-3-1-2-7/h4,6-7H,1-3H2
