19
gdb 115465	3.84751	0.92887	0.78184	2.5079	80.36	-0.2312	-0.068	0.1632	1464.8304	0.159715	-419.237697	-419.22867	-419.227725	-419.27197	32.717	
C	 0.3863273163	 1.6187564963	 0.156975453	-0.382329
C	 0.0591508768	 0.1262675546	 0.0796591665	-0.178773
C	 0.5830105908	-0.5403679618	-1.1935931235	 0.054174
C	 0.3414716008	-2.0800654918	-1.2599665153	-0.20809
N	 0.0282608772	-2.2551746564	-2.6816815741	-0.342972
C	-0.3320654477	-1.0105314783	-3.1473648726	 0.269713
C	-1.018020697	-0.8713282526	-4.4572876373	 0.113015
O	-1.3627541972	-1.8214693042	-5.1187371352	-0.263295
N	-0.0540408251	 0.004811091	-2.4131753117	-0.295695
H	 1.4692587629	 1.7854396868	 0.1655925109	 0.111919
H	-0.0260682984	 2.1476686645	-0.7059287547	 0.141952
H	-0.0269012257	 2.0649556929	 1.0664468332	 0.109831
H	 0.4848794832	-0.3988351723	 0.9448852873	 0.095441
H	-1.0268497898	-0.0237960038	 0.1263079444	 0.099054
H	 1.6609240646	-0.3340879191	-1.2785830793	 0.091849
H	 1.2181904801	-2.6616307649	-0.9646901109	 0.116815
H	-0.5024558154	-2.3774464613	-0.6190200361	 0.102593
H	-0.4961409821	-3.0519112937	-3.011873573	 0.25586
H	-1.2009031844	 0.1775941441	-4.7579749914	 0.108938
71.1923	96.8074	149.8158	164.168	217.2398	246.0315	258.8696	397.7069	435.4242	503.0034	551.0887	639.1123	700.3327	749.8064	793.6307	862.9838	950.7924	962.6544	984.2934	1021.7013	1031.2452	1057.782	1093.4132	1127.1737	1158.2946	1211.3172	1271.3696	1284.3093	1288.8992	1338.2807	1345.7845	1382.8944	1389.3118	1409.5108	1481.2136	1482.2934	1496.3566	1509.4907	1526.9702	1675.3081	1802.8211	2966.2019	2983.2993	2990.2863	3018.9732	3037.3485	3056.0638	3088.1523	3102.0648	3125.7043	3617.8933
CCC1CNC(C=O)=N1	CC[C@H]1CN[C](C=O)[N]1	
InChI=1S/C6H10N2O/c1-2-5-3-7-6(4-9)8-5/h4-5H,2-3H2,1H3,(H,7,8)	InChI=1S/C6H10N2O/c1-2-5-3-7-6(4-9)8-5/h4-5H,2-3H2,1H3,(H,7,8)/t5-/m0/s1
