21
gdb 73699	2.63639	1.92511	1.32704	1.2961	82.07	-0.2405	0.096	0.3365	1018.0051	0.184991	-387.046304	-387.038897	-387.037953	-387.077654	30.688	
C	 0.0297170505	 1.5513714238	-0.1325606438	-0.491269
C	-0.0111527	 0.0336688824	 0.0179262119	 0.339743
C	 0.2348072636	-0.6060239476	-1.3562068229	-0.146052
O	-0.2557848272	-1.9255961207	-1.4603833155	-0.244066
C	 0.0619607931	-2.6940057276	-0.3162988484	-0.121926
C	-0.1528305405	-1.8987549211	 0.9590337299	-0.00382
C	 0.7363097619	-0.6441469964	 1.2218381664	-0.096543
C	-0.3940267329	-0.1471588671	 2.1638594667	-0.249081
C	-1.1195857242	-0.6677675968	 0.8931076459	-0.09032
H	 0.9454997341	 1.851876987	-0.6564258668	 0.117112
H	-0.8158857376	 1.9029726561	-0.7346786509	 0.119352
H	 0.0100380214	 2.0898764352	 0.816005064	 0.119571
H	-0.2797804647	-0.0353025803	-2.136791589	 0.102023
H	 1.3171067147	-0.5680242355	-1.5824763018	 0.08148
H	-0.596862479	-3.5684901647	-0.3455424292	 0.105692
H	 1.1032751271	-3.0620761475	-0.3641466933	 0.082539
H	-0.284278365	-2.5518749363	 1.8275041139	 0.063894
H	 1.8127894925	-0.6347354394	 1.4107523767	 0.061918
H	-0.5472044096	-0.7375098299	 3.0717427452	 0.088168
H	-0.4495798567	 0.9183622374	 2.3845617276	 0.092297
H	-2.1940704314	-0.685693771	 0.7019925033	 0.069288
179.9595	188.1789	211.0967	326.1727	354.1323	376.4312	452.2252	486.3281	571.5506	651.0133	752.5106	762.2959	796.9553	848.6326	885.4428	898.8886	929.5279	969.0425	995.4905	1017.8919	1019.2073	1036.5359	1066.8885	1091.6021	1100.83	1112.5901	1160.8892	1171.3685	1188.9853	1210.9355	1225.7807	1231.7887	1248.4678	1266.5439	1292.6088	1314.7257	1377.622	1392.4335	1415.4728	1430.1132	1491.1468	1496.7581	1498.8085	1507.4008	1533.5069	2927.6493	2940.118	3028.4183	3053.0444	3060.4012	3060.6071	3067.5622	3080.2245	3080.8348	3097.7088	3126.0819	3142.0639
CC12COCC3C1CC23	C[C@@]12COC[C@H]3[C@@H]1C[C@@H]23	
InChI=1S/C8H12O/c1-8-4-9-3-5-6(8)2-7(5)8/h5-7H,2-4H2,1H3	InChI=1S/C8H12O/c1-8-4-9-3-5-6(8)2-7(5)8/h5-7H,2-4H2,1H3/t5-,6-,7+,8+
