17
gdb 26065	3.25418	1.1725	0.92536	4.2148	78.4	-0.2177	0.0323	0.25	1242.9451	0.137537	-380.92658	-380.918119	-380.917175	-380.960391	31.309	
C	-0.4290734375	 1.3838458411	 0.0684172523	-0.380392
C	 0.1225738763	-0.0548703481	-0.0807088415	-0.271275
C	 1.0207244162	-0.1300640583	-1.2399708606	 0.290248
N	 1.7334277013	-0.1716331348	-2.1489584452	-0.342188
C	 0.8104972245	-0.5464508225	 1.171445114	 0.282056
C	 2.157599535	-0.7702022267	 1.3481751931	-0.164453
N	 2.3474105186	-1.1841709704	 2.6404311562	-0.248219
C	 1.1452066247	-1.2329860773	 3.2969393481	-0.065958
C	 0.1694530755	-0.842239161	 2.4117588221	-0.256658
H	 0.3860189746	 2.0847636708	 0.263540799	 0.137938
H	-0.9554837613	 1.6977840734	-0.8369578614	 0.129989
H	-1.1239117812	 1.4205821471	 0.9108175519	 0.128369
H	-0.725029069	-0.7176638166	-0.3017747333	 0.130611
H	 2.9789531341	-0.6777938984	 0.6564704461	 0.14461
H	 3.2358282183	-1.4308917357	 3.0396165384	 0.266044
H	 1.0845828638	-1.541523703	 4.328016669	 0.12447
H	-0.8871562839	-0.7772872495	 2.6239402718	 0.094806
37.4369	123.0494	159.2438	211.3289	233.7986	339.3718	380.7114	477.644	491.7718	566.5276	640.4422	663.9592	697.5225	711.4938	789.1436	828.8677	853.5823	906.4055	954.5291	1017.3283	1075.3161	1082.8152	1097.1767	1117.6615	1166.4286	1232.3426	1294.9212	1313.6118	1339.4631	1406.7854	1416.2745	1466.2903	1490.5723	1496.365	1524.6842	1607.7747	2357.2747	3017.3912	3049.5814	3128.4492	3135.2805	3242.2798	3269.8339	3272.6841	3686.471
CC(C#N)C1=CNC=C1	C[C@@H](C#N)c1c[nH]cc1	
InChI=1S/C7H8N2/c1-6(4-8)7-2-3-9-5-7/h2-3,5-6,9H,1H3	InChI=1S/C7H8N2/c1-6(4-8)7-2-3-9-5-7/h2-3,5-6,9H,1H3/t6-/m0/s1
