17
gdb 89605	4.37362	0.92987	0.89937	4.0875	72.53	-0.2529	0.0201	0.273	1300.6111	0.136398	-417.973313	-417.965041	-417.964097	-418.006739	31.093	
O	-0.075102217	 1.4421554744	-0.1224317697	-0.432088
C	-0.0093265626	 0.049082758	-0.0856691791	 0.165391
C	 0.4573656253	-0.6498974985	 1.254899724	-0.316998
C	-0.9171739751	-1.3207976149	 1.3255216406	 0.362846
C	-1.2454355864	-2.6773138083	 1.8921310437	-0.474114
C	-1.2034944358	-2.7086198128	 3.3578360454	 0.270393
N	-1.1671827685	-2.7271276973	 4.5121698039	-0.298366
N	-1.8965398619	-0.2071095944	 1.3414981091	-0.379584
C	-1.3498184701	-0.6959515567	 0.0458791857	-0.161011
H	-0.7158633425	 1.6907574	 0.5582486784	 0.292868
H	 0.5824126646	-0.2740164826	-0.9444873133	 0.095549
H	 1.2777239714	-1.353547227	 1.0928741192	 0.108293
H	 0.6993185114	 0.0212679944	 2.0814122645	 0.119702
H	-2.2430803049	-2.9959075025	 1.5654997932	 0.151082
H	-0.536425304	-3.4228936916	 1.5125882188	 0.161779
H	-2.8317136371	-0.5977158623	 1.4513446825	 0.23503
H	-2.0132987669	-1.0570671277	-0.7313277568	 0.099229
60.7588	86.078	161.4536	252.4857	324.2998	388.839	400.8062	430.2947	450.3378	516.6694	629.2012	677.0013	714.8406	825.1575	876.4197	889.2428	922.0006	933.4521	980.6123	980.859	1004.7608	1058.0377	1110.8923	1123.4954	1148.8299	1189.1487	1212.7222	1249.7495	1282.7473	1309.1628	1334.7184	1365.678	1424.0798	1445.3105	1452.9841	1478.901	2365.6914	3032.3384	3067.5531	3071.2808	3096.9741	3130.9103	3184.528	3478.419	3752.0094
OC1CC2(CC#N)NC12	O[C@H]1C[C@@]2(CC#N)N[C@@H]12	
InChI=1S/C6H8N2O/c7-2-1-6-3-4(9)5(6)8-6/h4-5,8-9H,1,3H2	InChI=1S/C6H8N2O/c7-2-1-6-3-4(9)5(6)8-6/h4-5,8-9H,1,3H2/t4-,5-,6+/m0/s1
