15
gdb 97358	2.80673	1.0441	0.88031	11.3439	87.31	-0.174	-0.0606	0.1134	1303.3321	0.112905	-412.976907	-412.967518	-412.966573	-413.011804	33.005	
N	 0.2426708414	 0.9993072395	 0.656580477	-0.485108
C	 0.5062757571	 0.0020745123	-0.1927084504	 0.207526
N	 0.4028331237	-1.2706151081	 0.0794298906	-0.214047
H	 0.2779415887	-1.5397726564	 1.0505974362	 0.270107
C	 1.136129186	-2.3159625631	-0.7684500926	-0.288327
C	 2.5535105103	-2.3798020798	-0.3449074396	-0.10154
C	 3.2134158798	-1.1619240844	-0.5144977956	 0.19516
N	 3.5422548967	-0.0548915952	-0.7077322233	-0.432522
C	 3.0246378096	-3.4339324972	 0.4488047859	 0.166106
N	 3.3799390327	-4.3348751909	 1.0975314796	-0.392523
H	 0.1260581737	 0.8231512316	 1.6428048352	 0.289147
H	 0.5247489303	 1.9318211838	 0.4006539437	 0.30663
H	 0.7846527108	 0.2775656445	-1.2031035909	 0.196107
H	 0.6073321009	-3.2580054561	-0.6243547126	 0.148016
H	 0.9798028282	-1.9726279506	-1.7977233333	 0.135269
51.6803	80.5253	143.2892	156.6804	184.7446	228.6992	332.8396	383.5345	441.5362	507.6184	508.7323	534.413	555.5451	604.154	619.7995	735.9992	745.3269	840.7268	968.4138	976.5187	1085.8652	1187.7915	1208.1453	1328.0206	1342.5133	1355.7548	1402.7619	1438.5221	1471.9213	1646.92	1727.6884	2230.4961	2290.1653	3033.5836	3142.9903	3226.7893	3540.1091	3591.2235	3707.4453
NC=[NH+]C[C-](C#N)C#N	[NH2]=CNC[C](C#N)C#N	
InChI=1S/C5H5N4/c6-1-5(2-7)3-9-4-8/h4H,3H2,(H2,8,9)/q-1/p+1	InChI=1S/C5H6N4/c6-1-5(2-7)3-9-4-8/h4,9H,3,8H2
