16
gdb 58175	2.24264	1.35902	0.93112	3.0774	67.49	-0.2766	-0.099	0.1777	1227.2797	0.120852	-475.034179	-475.024312	-475.023368	-475.069319	34.789	
C	 0.0170505075	 1.5667282664	 0.1498041567	-0.419051
C	 0.0253896295	 0.0453537316	 0.0672010168	 0.118633
O	 0.722180507	-0.5614030203	 1.1410426632	-0.421566
C	-1.4273056849	-0.5093507676	-0.0455639579	-0.008186
O	-2.0550238271	-0.0064570922	-1.1908564611	-0.423677
C	-1.4191088481	-2.0308605513	-0.0973643093	 0.287034
O	-1.6898040672	-2.6231831278	-1.1170364522	-0.296377
C	-1.1172770892	-2.7609290515	 1.1373425119	 0.268552
N	-0.9624184436	-3.3510271328	 2.1195993732	-0.307312
H	 1.0423395847	 1.945542357	 0.1626436201	 0.133002
H	-0.5140779503	 1.9937255817	-0.7032649112	 0.152205
H	-0.4874635253	 1.900291206	 1.0659339715	 0.112046
H	 0.5532810676	-0.2716287915	-0.8398849405	 0.109485
H	 0.4330890961	-0.1587159607	 1.9677258034	 0.290121
H	-1.9852191041	-0.2034115757	 0.8548131102	 0.10266
H	-2.1430841227	-0.7512740813	-1.805760595	 0.302432
51.5466	79.3245	138.5615	175.8334	238.667	261.2739	312.8705	323.2994	335.2167	369.9756	394.1867	409.9524	467.2731	547.4071	616.3758	711.8076	864.59	886.8192	948.7225	1061.5671	1083.8468	1114.0707	1128.0226	1155.3956	1249.6864	1280.2297	1318.8886	1365.3131	1399.9031	1409.9255	1429.7951	1488.904	1497.1313	1772.9058	2341.1101	2979.8155	3027.2923	3052.5528	3107.0584	3142.8888	3704.8179	3803.2823
CC(O)C(O)C(=O)C#N	C[C@@H](O)[C@@H](O)C(=O)C#N	
InChI=1S/C5H7NO3/c1-3(7)5(9)4(8)2-6/h3,5,7,9H,1H3	InChI=1S/C5H7NO3/c1-3(7)5(9)4(8)2-6/h3,5,7,9H,1H3/t3-,5-/m1/s1
