14
gdb 50417	2.22529	1.8124	1.1651	2.5497	67.61	-0.2564	-0.0366	0.2198	1018.2522	0.099464	-436.656281	-436.648206	-436.647262	-436.689935	28.721	
O	-0.1901764338	 0.0266188527	-0.0023044398	-0.227624
C	-0.0039333166	 1.1924384712	 0.2089575434	 0.146838
C	 1.3315101719	 1.897607553	-0.0033615674	-0.024217
O	 2.3570212289	 0.9416821709	-0.2974435399	-0.198115
C	 2.7373460582	 1.1851520273	-1.5737202148	 0.131599
N	 2.2679004645	 2.1795707796	-2.2007837251	-0.248069
C	 1.3569964736	 2.8636643179	-1.2538518511	-0.200376
C	 0.0461809489	 3.1344527522	-1.8350509312	 0.348464
C	-1.0380237375	 3.368442631	-2.2957547331	-0.44451
H	-0.8013417469	 1.8652443535	 0.589990268	 0.095563
H	 1.5973238598	 2.4287398321	 0.9165385016	 0.122382
H	 3.4582817772	 0.4786277452	-1.9680846794	 0.157624
H	 1.8170673883	 3.8194320494	-0.9745122161	 0.13007
H	-1.9938169164	 3.5669527139	-2.7150454752	 0.21037
43.7866	83.3034	160.3523	201.9719	265.0487	332.4472	440.4108	499.6539	563.7031	645.6194	668.384	706.9102	738.0385	798.3767	869.4878	904.3219	966.3961	991.3192	1020.1612	1070.4122	1078.3562	1136.3406	1231.1646	1283.9785	1311.5703	1340.7748	1366.7915	1417.6185	1705.8984	1847.3496	2242.8168	2909.4891	3025.5145	3063.5525	3227.9764	3500.3678
O=CC1OC=NC1C#C	O=C[C@H]1OC=N[C@H]1C#C	
InChI=1S/C6H5NO2/c1-2-5-6(3-8)9-4-7-5/h1,3-6H	InChI=1S/C6H5NO2/c1-2-5-6(3-8)9-4-7-5/h1,3-6H/t5-,6+/m0/s1
