21
gdb 39333	2.75754	1.76186	1.29843	1.6206	81.06	-0.2392	0.0858	0.3249	1039.4198	0.186001	-387.101324	-387.093952	-387.093008	-387.133011	30.155	
C	-0.1052497688	 1.4163708023	 0.0821490137	-0.377035
C	 1.301351675	 0.8661195995	 0.0350006745	-0.101157
C	 1.9928938794	 0.5638514762	 1.3504646982	-0.100671
O	 1.065652597	-0.2024225075	 2.1214197562	-0.277314
C	 0.1637583852	-0.8672802627	 1.2459835455	 0.081236
C	 0.5718789969	-2.2650850232	 0.7445920049	-0.242021
C	-0.2287364261	-2.4098695067	-0.5651230012	-0.206627
C	-0.2401584645	-0.9884620692	-1.2057106403	-0.322634
C	 0.1102431869	-0.0618523285	-0.0492137547	 0.362022
H	-0.4831469551	 1.7971217965	 1.0275627879	 0.115622
H	-0.4490072032	 1.9591035552	-0.7927521851	 0.10922
H	 1.9130607055	 1.0662488821	-0.8380325663	 0.085603
H	 2.9206670594	-0.0006299456	 1.1649074733	 0.090368
H	 2.2512118818	 1.4485464741	 1.9439053135	 0.104858
H	-0.7963026689	-0.9158641935	 1.775879213	 0.076134
H	 1.6493131201	-2.2689205636	 0.5405374114	 0.100403
H	 0.3676512258	-3.0594609234	 1.4669527409	 0.096849
H	 0.1845770173	-3.169689632	-1.2332147776	 0.098996
H	-1.2552978715	-2.7161597551	-0.334235737	 0.103505
H	 0.4936337828	-0.910223523	-2.0148052174	 0.100764
H	-1.2174522947	-0.757807962	-1.6413169233	 0.101878
98.0648	186.989	211.0352	313.0646	367.8516	408.443	506.341	540.1903	624.4215	710.6598	752.7709	808.4019	824.7576	862.4926	883.7258	904.1541	925.6781	958.5612	963.8707	992.5702	1010.4849	1056.4002	1068.5691	1084.7135	1098.5402	1107.508	1127.2074	1176.4676	1188.9886	1229.6906	1240.682	1249.8299	1274.5595	1298.4604	1311.8617	1337.8975	1345.32	1368.735	1381.0343	1413.5059	1486.3772	1490.3953	1492.143	1510.4857	1519.9243	2974.1526	3022.2514	3038.0134	3041.6798	3044.541	3051.5407	3074.3732	3095.7191	3103.8776	3113.5162	3169.7627	3201.8855
C1C2COC3CCCC123	C1[C@H]2CO[C@@H]3CCC[C@]123	
InChI=1S/C8H12O/c1-2-7-8(3-1)4-6(8)5-9-7/h6-7H,1-5H2	InChI=1S/C8H12O/c1-2-7-8(3-1)4-6(8)5-9-7/h6-7H,1-5H2/t6-,7+,8-/m0/s1
