17
gdb 32476	3.14483	1.16062	0.8814	2.5389	74.72	-0.182	0.0426	0.2245	1308.5526	0.134588	-455.146788	-455.137321	-455.136377	-455.181915	32.893	
C	 0.0370275711	 1.3437287259	-0.1083351227	-0.255057
O	-0.2068369452	 0.1782413099	 0.6940678275	-0.265959
C	-1.2492803558	-0.5620123507	 0.3232937774	 0.388869
C	-1.3652707054	-1.8578881105	 0.0210471674	-0.221767
N	-2.7238217674	-2.0821587211	-0.2653739291	-0.37395
C	-3.4358396528	-0.9184944623	-0.0401104701	 0.514229
O	-2.4920326842	 0.0568662672	 0.2702589101	-0.258594
N	-4.6863663754	-0.7694290591	-0.1009719394	-0.37683
C	-5.2471669807	 0.5385996776	 0.1829030637	-0.320651
H	 0.9152092647	 1.8266723791	 0.3211099445	 0.140898
H	 0.2387707474	 1.0573531171	-1.1469959404	 0.126889
H	-0.816840506	 2.0259009386	-0.0739174549	 0.146574
H	-0.6127929266	-2.6205178642	-0.0641365421	 0.146727
H	-3.187382316	-2.972461412	-0.2121618799	 0.269174
H	-4.7085882081	 1.0842394389	 0.9700243224	 0.110999
H	-5.2511750334	 1.1756497752	-0.7131945401	 0.11241
H	-6.2879238862	 0.4196733103	 0.4984427259	 0.11604
63.0506	67.1004	136.0796	149.9533	161.112	208.1981	254.4123	339.4483	404.5188	445.5043	554.6904	602.5965	646.3999	720.4727	733.5883	763.9757	912.2152	946.641	1031.8845	1070.5855	1081.0457	1128.5877	1141.1512	1173.5784	1185.307	1212.454	1306.5661	1352.8829	1401.5008	1448.6764	1476.5769	1486.2119	1493.6347	1503.2387	1503.7669	1756.0725	1825.8431	2990.6389	3029.3096	3037.4509	3087.4414	3108.6615	3152.3534	3301.7336	3680.1796
COC1=CNC(O1)=NC	COc1c[nH]c(=NC)o1	
InChI=1S/C5H8N2O2/c1-6-5-7-3-4(8-2)9-5/h3H,1-2H3,(H,6,7)	InChI=1S/C5H8N2O2/c1-6-5-7-3-4(8-2)9-5/h3H,1-2H3,(H,6,7)
