19
gdb 99379	7.84335	0.52972	0.50254	2.9408	76.98	-0.2555	0.0219	0.2774	2134.7865	0.157378	-456.372712	-456.36177	-456.360825	-456.411899	35.661	
C	 0.0935528678	 1.4020632711	 0.04400958	-0.334756
N	-0.0779162709	-0.0371053354	-0.0095244385	-0.316388
C	-1.3008394873	-0.6305571475	-0.1038130954	 0.423912
O	-2.349149335	-0.0064266568	-0.1182880183	-0.377577
C	-1.2624729995	-2.1528365612	-0.2103547568	-0.337379
C	-2.5967537804	-2.7607646279	 0.1936322155	-0.067751
O	-2.4999386163	-4.171848324	-0.013623315	-0.187867
C	-3.6523320025	-4.8635741844	 0.0546346807	 0.126943
N	-3.6403244135	-6.1229106208	-0.0337213879	-0.441055
H	 0.6068302437	 1.7072301519	 0.9623555587	 0.127937
H	 0.6649296546	 1.7692921123	-0.8158177539	 0.128093
H	-0.9016135142	 1.8473708419	 0.026742602	 0.173261
H	 0.7407209829	-0.6226734932	-0.0014414393	 0.248167
H	-1.0456074608	-2.4293507946	-1.2494665206	 0.144185
H	-0.4563485956	-2.5725854712	 0.4008626814	 0.121556
H	-2.8152897558	-2.5499230072	 1.247844116	 0.118922
H	-3.4010822107	-2.3280476689	-0.4095541626	 0.134091
H	-4.5396888088	-4.2268372022	 0.1790299428	 0.087463
H	-4.5914662678	-6.481449482	 0.0198618114	 0.228243
26.5756	30.0207	61.759	83.9225	91.6648	125.2149	171.7474	238.3788	282.5032	351.0057	452.1852	481.8775	618.6444	621.3637	723.8624	810.0349	824.3909	903.576	1008.8812	1038.8038	1046.0775	1075.0431	1116.4985	1141.659	1154.7711	1172.0273	1211.556	1233.5887	1291.6205	1310.1287	1347.2943	1408.0442	1432.3572	1439.7491	1471.6241	1494.5575	1500.3023	1514.9738	1564.6591	1748.6536	1773.4941	3015.6384	3028.9741	3029.4634	3041.3688	3073.3883	3081.5207	3094.9312	3155.8202	3518.2796	3646.5866
CNC(=O)CCOC=N	CNC(=O)CCO[CH][NH]	
InChI=1S/C5H10N2O2/c1-7-5(8)2-3-9-4-6/h4,6H,2-3H2,1H3,(H,7,8)	InChI=1S/C5H10N2O2/c1-7-5(8)2-3-9-4-6/h4,6H,2-3H2,1H3,(H,7,8)
