15
gdb 123455	5.45239	0.93704	0.82456	4.7748	67.36	-0.2693	-0.0362	0.2331	1312.3409	0.112133	-453.897579	-453.889868	-453.888924	-453.931387	27.411	
C	 0.0650398771	 1.3852038503	 0.5612543519	-0.355884
C	-0.0711235614	-0.0590592755	 0.1302391838	 0.090215
C	-1.3437659516	-0.6068975993	-0.350889195	-0.178992
O	-0.2921346371	-0.2802724895	-1.263278363	-0.229389
C	 1.3674191787	 1.9775649143	 0.1294162646	 0.40279
C	 2.1759744292	 1.7676999578	-0.946826623	-0.189383
N	 3.2458373768	 2.6198059476	-0.8148656465	-0.108593
N	 3.1459889442	 3.3093772022	 0.228570902	-0.013227
O	 1.922134711	 2.921276711	 0.8880127798	-0.218651
H	-0.7589912504	 1.9701185843	 0.1352401399	 0.143059
H	-0.0172877225	 1.4603078242	 1.6508775427	 0.141273
H	 0.6488676518	-0.7445420988	 0.5785612152	 0.110268
H	-1.5511991345	-1.6693364513	-0.2378034157	 0.125962
H	-2.2211793171	 0.0363421094	-0.40068542	 0.122237
H	 2.0664387357	 1.0942964634	-1.7784729066	 0.158313
36.0622	71.7777	129.4893	267.7992	300.0102	353.3416	452.7369	622.2148	664.935	701.8632	743.9586	798.3242	842.8661	872.1505	940.2827	955.3573	991.4384	1051.7627	1094.0306	1108.2085	1121.2064	1161.3462	1168.4153	1221.2462	1248.372	1294.0381	1314.9281	1395.0239	1446.5518	1455.7058	1460.0993	1530.2781	1601.1485	3038.9172	3083.7181	3089.117	3111.6172	3177.9153	3302.5598
C(C1CO1)C1=CN=NO1	C([C@H]1CO1)c1cnno1	
InChI=1S/C5H6N2O2/c1(5-3-8-5)4-2-6-7-9-4/h2,5H,1,3H2	InChI=1S/C5H6N2O2/c1(5-3-8-5)4-2-6-7-9-4/h2,5H,1,3H2/t5-/m0/s1
