14
gdb 54446	3.48416	1.29559	1.06418	1.4101	63.	-0.2687	-0.0238	0.2449	1077.0996	0.100368	-473.854737	-473.846837	-473.845893	-473.887534	29.234	
N	 0.0290011769	 0.8277998069	-0.8912453718	-0.539953
C	-0.0393981655	 0.0183918897	 0.1940874916	 0.319435
O	 0.8102316674	-0.0712915668	 1.0595438174	-0.368911
C	-1.2833181563	-0.8034469229	 0.2554545729	 0.365768
C	-1.8727906238	-1.4416748769	 1.4563373903	-0.323889
C	-1.4232223031	-2.3176973082	 0.286449382	-0.299566
C	-2.3647306259	-2.0977241274	-0.8660853491	 0.457273
O	-2.965171941	-2.7379255397	-1.661165937	-0.309751
O	-2.2946934954	-0.6993716528	-0.7893160088	-0.313027
H	 0.8428128833	 1.407026505	-1.0138220687	 0.271338
H	-0.71004173	 0.8421478351	-1.5736985213	 0.281404
H	-1.2139070505	-1.4932407331	 2.3164176562	 0.166688
H	-2.9285453286	-1.3012016675	 1.6611043445	 0.143811
H	-0.6711557176	-3.0872232415	 0.3758881318	 0.14938
75.2887	110.5377	182.3199	269.154	289.3065	369.778	442.6485	471.8703	508.4294	599.5569	657.3741	693.7808	737.8083	770.7819	845.5109	891.795	941.9519	958.9716	991.7588	1017.4072	1070.6752	1094.9965	1103.5347	1190.2809	1233.2727	1307.3614	1431.6071	1479.6627	1610.0164	1797.6583	1954.243	3137.6358	3236.7167	3241.5773	3601.1822	3739.8554
NC(=O)C12CC1C(=O)O2	NC(=O)[C@]12C[C@H]1C(=O)O2	
InChI=1S/C5H5NO3/c6-4(8)5-1-2(5)3(7)9-5/h2H,1H2,(H2,6,8)	InChI=1S/C5H5NO3/c6-4(8)5-1-2(5)3(7)9-5/h2H,1H2,(H2,6,8)/t2-,5-/m0/s1
