19
gdb 101495	2.41026	1.03027	0.80888	5.7441	77.58	-0.2457	-0.069	0.1768	1443.7506	0.156599	-456.347131	-456.336693	-456.335749	-456.383012	37.19	
C	 0.3393331231	 1.5802014883	-0.0138400111	-0.381876
C	 0.0013312119	 0.0870911392	 0.1379005573	 0.003267
C	-1.5229242757	-0.1367843259	 0.1584701566	-0.052622
O	-2.1006088983	 0.2029176283	-1.0816405143	-0.421805
N	 0.4983373263	-0.6652596086	-1.0074057232	-0.262246
C	 1.6937180127	-1.1030841898	-1.0340378259	 0.268793
N	 2.6638356944	-0.9993445345	-0.0583211348	-0.560746
C	 2.1492925969	-1.8962794588	-2.2420205444	 0.134772
O	 1.478185168	-2.1028935329	-3.212994761	-0.224245
H	 1.4155238122	 1.7449046133	-0.1281823401	 0.099173
H	-0.1666152675	 1.9779659527	-0.8961428767	 0.146932
H	-0.0017825066	 2.1384929132	 0.8637317931	 0.116779
H	 0.4146926909	-0.2912446655	 1.0888406065	 0.057162
H	-1.7214482909	-1.1880550314	 0.4222327288	 0.084189
H	-1.9895629349	 0.4952153321	 0.9224065392	 0.096588
H	-1.5498237406	-0.2448972645	-1.740415103	 0.294621
H	 2.5590251047	-0.3013152402	 0.6585115064	 0.270644
H	 3.6171233648	-1.2029181965	-0.3131718196	 0.260413
H	 3.1925252285	-2.2864298783	-2.1619861137	 0.070206
56.341	92.5626	105.0051	146.6939	167.3749	231.7142	250.9935	275.8624	360.4564	367.8923	389.8905	423.4862	485.8723	536.8623	643.6496	651.234	684.5711	831.5478	866.953	932.0325	958.6186	1012.4596	1015.5579	1083.4798	1115.0507	1132.2111	1159.8804	1231.117	1306.8268	1327.1395	1353.615	1388.8542	1405.0155	1439.1325	1445.6162	1486.107	1503.0289	1508.5691	1637.9072	1728.1031	1851.0698	2842.4426	2944.4206	2976.4875	3037.6333	3065.6654	3102.5235	3135.8882	3599.6352	3711.2922	3732.5461
CC(CO)N=C(N)C=O	C[C@@H](CO)N=C(N)C=O	
InChI=1S/C5H10N2O2/c1-4(2-8)7-5(6)3-9/h3-4,8H,2H2,1H3,(H2,6,7)	InChI=1S/C5H10N2O2/c1-4(2-8)7-5(6)3-9/h3-4,8H,2H2,1H3,(H2,6,7)/t4-/m0/s1
