16
gdb 45686	3.85779	1.34269	1.03993	3.3669	72.5	-0.2245	-0.0188	0.2057	1089.0454	0.126397	-437.898222	-437.891056	-437.890112	-437.929896	27.86	
O	-0.0064404194	-0.0960620145	-0.0170618377	-0.34974
C	-0.0229727993	 1.1155215936	-0.0226400817	 0.39319
C	-1.3144498549	 1.9466994773	 0.0600389345	-0.35223
C	-1.176355886	 3.2114993548	-0.77731831	 0.079745
O	-1.8896799551	 4.4037111709	-0.3319871208	-0.305465
C	-0.655553237	 5.1774237078	-0.2854854998	-0.157212
C	 0.1228241835	 3.9048581172	-0.4864811852	 0.174272
C	 1.2027657281	 3.2574101302	-0.0689010786	-0.135551
N	 1.1514205899	 1.8519619014	-0.0630392969	-0.326239
H	-2.1443963408	 1.3001128358	-0.22738825	 0.134949
H	-1.4508867765	 2.2377035531	 1.1092642831	 0.137312
H	-1.3879810333	 3.0165032123	-1.8387130348	 0.092485
H	-0.6101805732	 5.9056084665	-1.1071022948	 0.111749
H	-0.5279856038	 5.7033830594	 0.6677005591	 0.12133
H	 2.1083871562	 3.7089183243	 0.3196087346	 0.124716
H	 1.9983131916	 1.3037302797	-0.0514094108	 0.256691
109.419	151.5346	266.3685	336.161	363.4736	451.6197	455.9994	540.1674	550.9685	639.0675	698.1299	780.3812	828.9678	850.3994	860.3753	955.5056	979.2937	1005.638	1031.9126	1073.1573	1112.2508	1136.6205	1166.6505	1178.8667	1228.388	1275.7954	1298.0158	1337.6522	1367.6382	1390.4652	1442.8752	1466.3512	1515.5915	1779.8991	1806.2936	2993.4324	3004.0386	3044.6071	3056.3135	3131.5577	3194.9731	3625.1511
O=C1CC2OCC2=CN1	O=C1C[C@H]2OC[C]2[CH]N1	
InChI=1S/C6H7NO2/c8-6-1-5-4(2-7-6)3-9-5/h2,5H,1,3H2,(H,7,8)	InChI=1S/C6H7NO2/c8-6-1-5-4(2-7-6)3-9-5/h2,5H,1,3H2,(H,7,8)/t5-/m1/s1
