21
gdb 85049	2.44175	1.41363	1.07068	2.7451	77.76	-0.2506	-0.026	0.2246	1200.5684	0.181633	-424.266868	-424.257518	-424.256574	-424.300537	35.836	
C	-0.1563101004	 1.5427577128	-0.029751931	-0.413817
C	 0.0229753213	 0.0279815445	 0.0435412744	 0.024797
C	 0.7220557365	-0.5912483311	-1.1931366036	-0.342688
C	 1.4670725411	-1.799781986	-0.6444155391	 0.370775
O	 2.2811381323	-2.4960450962	-1.201908226	-0.335651
C	 1.1191502208	-1.9516986972	 0.8339994565	 0.059533
O	 2.1061281414	-2.6449428259	 1.5414762357	-0.445268
C	 0.8449592164	-0.4945018987	 1.2644526711	-0.052063
C	 2.1469867892	 0.2653979784	 1.5383600551	-0.401596
H	 0.8038226604	 2.0558074193	-0.1439553913	 0.12212
H	-0.7839978972	 1.8200426816	-0.8830550146	 0.116621
H	-0.6370234086	 1.9283605368	 0.8756943129	 0.117565
H	-0.9741386459	-0.4246708411	 0.1220001654	 0.080216
H	 0.0346241108	-0.8771157023	-1.9950713212	 0.13293
H	 1.4567644886	 0.0881100761	-1.6414111743	 0.136786
H	 0.1569018399	-2.4983049914	 0.8720161153	 0.090123
H	 2.6621250966	-3.0645915724	 0.8666386934	 0.291535
H	 0.2265830485	-0.4700914765	 2.1674062159	 0.078199
H	 2.7749622124	 0.3476534161	 0.6432574575	 0.114678
H	 1.9473294793	 1.2778613657	 1.8989462296	 0.115212
H	 2.7301299365	-0.2641045922	 2.2948349783	 0.139996
90.2476	116.2905	214.0126	233.278	235.6866	270.5995	273.8524	306.6038	408.9435	445.036	464.8447	507.9574	553.4435	613.3827	700.3991	747.4284	774.7087	885.9876	898.4012	938.1076	1009.0839	1031.4541	1037.4763	1070.2539	1095.8866	1142.4568	1177.632	1191.377	1207.7174	1218.2693	1268.2739	1290.5757	1328.6269	1360.3886	1375.9689	1385.5049	1410.2058	1413.7783	1421.9569	1449.3808	1491.1344	1495.4428	1502.7051	1506.059	1833.7221	2918.8047	3012.0196	3031.5626	3036.0356	3048.2595	3054.6595	3091.2826	3098.2077	3103.7911	3104.8806	3131.5273	3702.2189
CC1CC(=O)C(O)C1C	C[C@H]1CC(=O)[C@@H](O)[C@H]1C	
InChI=1S/C7H12O2/c1-4-3-6(8)7(9)5(4)2/h4-5,7,9H,3H2,1-2H3	InChI=1S/C7H12O2/c1-4-3-6(8)7(9)5(4)2/h4-5,7,9H,3H2,1-2H3/t4-,5-,7-/m0/s1
