19
gdb 90940	2.93317	1.42201	1.39029	2.3936	73.79	-0.2375	0.0719	0.3094	1026.206	0.160427	-422.996077	-422.988296	-422.987352	-423.027837	31.62	
O	-0.0320085194	 1.4682868872	-0.0511185532	-0.43858
C	 0.0189957325	 0.0533716495	 0.0081387979	 0.136979
C	 0.6501044655	-0.5207964641	 1.3135875984	-0.283585
C	-0.2187020717	-1.7316208607	 1.631860301	-0.122564
C	-1.7191134812	-1.5098141642	 1.898351448	-0.117897
C	-2.1622695664	-0.1651764454	 1.3187010866	-0.228467
C	-1.398408923	-0.5249882115	 0.0018847371	-0.122337
C	-1.2364978945	-1.9775341923	 0.5506554961	 0.374035
O	-1.5099338413	-3.1660900759	-0.0930936974	-0.465812
H	 0.8673509779	 1.8047269172	 0.0088435181	 0.282326
H	 0.5663777335	-0.3433648014	-0.8640742684	 0.054858
H	 1.6992786171	-0.8004892575	 1.1719768819	 0.090492
H	 0.6171607167	 0.2412674739	 2.1006163516	 0.10488
H	 0.200071098	-2.5949972798	 2.1373353651	 0.083211
H	-2.217380795	-2.0794141059	 2.6740113476	 0.086256
H	-3.2426969134	-0.1340340709	 1.1607666195	 0.103211
H	-1.8474098721	 0.7505149637	 1.826398108	 0.104365
H	-1.9422035811	-0.3823213124	-0.9309029402	 0.074842
H	-0.7336144921	-3.4260697496	-0.6013180078	 0.283787
128.8106	218.9531	267.6457	282.3047	292.0463	325.7094	414.1522	460.6476	530.8862	582.2809	606.898	692.3976	715.2892	814.8482	842.8187	895.5743	915.8742	950.1078	970.0417	988.9532	1022.2209	1046.0309	1057.3053	1090.5707	1110.0664	1124.2926	1151.9615	1171.2108	1202.2312	1222.2569	1243.8618	1274.79	1282.0975	1294.0289	1320.1338	1324.9362	1362.2781	1424.3514	1468.8578	1492.1377	1512.9537	2946.245	3035.881	3061.1268	3076.5481	3111.0258	3127.0924	3172.9274	3183.9	3788.8756	3820.8583
OC1CC2C3CC1C23O	O[C@H]1C[C@H]2[C@H]3C[C@@H]1[C@@]23O	
InChI=1S/C7H10O2/c8-6-2-4-3-1-5(6)7(3,4)9/h3-6,8-9H,1-2H2	InChI=1S/C7H10O2/c8-6-2-4-3-1-5(6)7(3,4)9/h3-6,8-9H,1-2H2/t3-,4+,5+,6+,7+/m1/s1
