14
gdb 43536	2.55115	1.51253	1.09477	2.5455	68.86	-0.2805	-0.0185	0.262	1068.33	0.101341	-432.838154	-432.830412	-432.829468	-432.870808	28.26	
N	-0.1189267529	 1.2227198466	-0.5719381225	-0.551322
C	-0.0595884637	 0.0741552714	-0.0846050971	 0.403072
O	 0.9951470435	-0.6443693536	 0.471476739	-0.274167
C	 0.1699862048	-1.8440082262	 0.6314433843	-0.068315
C	 0.1017204346	-2.2966576161	 2.0151502587	 0.293211
N	 0.0175858515	-2.6707768904	 3.1047469676	-0.311397
C	-1.0280427761	-1.0486755489	 0.0832810386	 0.183791
C	-2.4561020097	-0.9885829116	 0.460647236	-0.287325
N	-2.032558859	-1.5228865948	-0.8422014246	-0.353373
H	 0.7729194328	 1.7162740757	-0.5388572393	 0.245526
H	 0.518943752	-2.6467572003	-0.023006254	 0.156862
H	-2.8529652636	-1.726753055	 1.1511920772	 0.151452
H	-2.9068943284	-0.0015308577	 0.509707344	 0.150458
H	-2.1628257558	-0.8356776892	-1.5826352779	 0.261527
88.2795	119.1962	215.3826	230.5099	232.8012	343.998	426.2463	517.6488	592.1201	618.4557	690.4706	764.4492	844.0076	858.9079	917.7391	935.7349	950.488	994.1311	1001.0221	1029.6177	1083.9188	1130.3572	1176.405	1243.0677	1266.0768	1287.21	1354.8777	1429.4833	1510.3066	1843.9814	2365.5528	3091.2316	3118.9533	3214.005	3494.3172	3502.7392
N=C1OC(C#N)C11CN1	[NH][C]1O[C@@H](C#N)[C@]21CN2	
InChI=1S/C5H5N3O/c6-1-3-5(2-8-5)4(7)9-3/h3,7-8H,2H2	InChI=1S/C5H5N3O/c6-1-3-5(2-8-5)4(7)9-3/h3,7-8H,2H2/t3-,5-/m0/s1
