18
gdb 15177	8.2044	0.64916	0.62895	1.5421	79.09	-0.2299	0.0553	0.2852	1770.4159	0.152657	-347.759925	-347.750664	-347.74972	-347.796036	32.08	
O	-0.0797114474	 1.3886232994	 0.1373718549	-0.415934
C	-0.0646145511	-0.0229154842	 0.2713435993	-0.061716
C	-1.3256696567	-0.5532256062	-0.4197298325	-0.324296
C	-1.4376340331	-2.0044496278	-0.3526366439	 0.022694
C	-1.5085042756	-3.2062201518	-0.28312832	 0.098443
C	-1.598807168	-4.636192885	-0.2128591075	-0.154895
C	-1.5063421506	-5.347029643	 1.1287808358	-0.251982
C	-2.8196952412	-5.2992700098	 0.4062442688	-0.251022
H	 0.7081984094	 1.7404225797	 0.5611455482	 0.288092
H	 0.8241743315	-0.4681139985	-0.2001592973	 0.096778
H	-0.0697475734	-0.3323427291	 1.327266257	 0.095249
H	-2.198716345	-0.0780199307	 0.0447741698	 0.133931
H	-1.3136505478	-0.2171535481	-1.4640512436	 0.134908
H	-1.1561401065	-5.1650680625	-1.0523357977	 0.107026
H	-0.9628271025	-6.2847381356	 1.1577719409	 0.116389
H	-1.3845410976	-4.7245248506	 2.0070686496	 0.123929
H	-3.5912133031	-4.6442869436	 0.7927679513	 0.125557
H	-3.1864369712	-6.2038806724	-0.0656756529	 0.11685
14.3564	73.986	79.6789	144.3498	194.2224	241.2763	311.3538	361.3392	420.7936	507.7816	544.8229	714.7525	791.6605	796.9724	821.2355	896.5468	910.7684	999.6987	1060.6529	1061.7183	1078.4044	1078.7213	1087.0257	1119.1724	1183.2522	1201.3467	1221.1753	1227.9488	1239.5695	1303.5607	1333.0285	1393.8362	1453.5073	1466.2983	1476.1899	1496.9373	1527.2575	2363.2863	2982.6272	3012.9675	3026.8189	3063.5152	3139.5617	3139.9943	3145.6108	3224.1821	3239.3572	3835.7692
OCCC#CC1CC1	OCCC#CC1CC1	
InChI=1S/C7H10O/c8-6-2-1-3-7-4-5-7/h7-8H,2,4-6H2	InChI=1S/C7H10O/c8-6-2-1-3-7-4-5-7/h7-8H,2,4-6H2
