16
gdb 5693	4.68054	2.03936	1.45986	1.5286	71.09	-0.17	0.0552	0.2252	835.0856	0.134989	-342.808753	-342.802358	-342.801414	-342.839049	25.394	
C	 0.0017864159	 1.3950463244	-0.1525115227	-0.160415
C	 1.4653379763	 1.8965523841	 0.1173581681	-0.360351
C	 2.2247777972	 0.6020754876	-0.0019386076	 0.279981
C	 1.3281784534	-0.4287466938	 0.0130193222	 0.325691
N	-0.0417320566	-0.092586514	 0.0433399858	-0.414177
N	 1.9888032984	-1.6179460637	-0.0561326553	-0.364355
C	 3.350236827	-1.3429736588	-0.1080151012	-0.083126
C	 3.5240488866	 0.0249349951	-0.0767117477	-0.327263
H	-0.745283881	 1.8776171517	 0.4821882317	 0.100607
H	-0.2628025664	 1.5989702594	-1.1951454676	 0.117408
H	 1.7444723154	 2.6603355774	-0.6153871373	 0.105531
H	 1.5697244349	 2.3562220532	 1.11088276	 0.097657
H	-0.4645148704	-0.3186145716	 0.9410381922	 0.224737
H	 1.5730240035	-2.5303068627	-0.1179506268	 0.258622
H	 4.0677235315	-2.1448467318	-0.1698589157	 0.111156
H	 4.4774345245	 0.5308274935	-0.1043635582	 0.088296
139.2733	219.2818	260.3872	416.7059	441.541	598.2452	620.0217	639.5707	677.6233	701.4971	751.2042	797.679	813.1822	908.6023	924.6089	938.2842	983.2577	1056.3955	1070.6485	1081.0544	1153.7248	1191.2685	1237.2265	1262.2182	1296.4483	1344.7024	1359.1443	1402.7555	1436.6719	1490.0143	1496.9381	1508.2767	1541.2366	1629.5057	2994.6611	3044.4403	3066.8906	3103.966	3240.7906	3270.4733	3457.3981	3685.6811
C1CC2=C(N1)NC=C2	C1Cc2c(N1)[nH]cc2	
InChI=1S/C6H8N2/c1-3-7-6-5(1)2-4-8-6/h1,3,7-8H,2,4H2	InChI=1S/C6H8N2/c1-3-7-6-5(1)2-4-8-6/h1,3,7-8H,2,4H2
