19
gdb 74551	4.35573	1.19755	0.98396	1.692	88.46	-0.208	-0.0142	0.1938	1220.9873	0.160568	-385.909012	-385.901243	-385.900299	-385.941147	30.375	
C	 0.0290604077	 1.4733951632	 0.0197848822	-0.487341
C	-0.0216152237	-0.0184145056	-0.0170120176	 0.307402
C	-0.0579306582	-0.8031682451	-1.11597811	-0.30223
C	-0.0230268507	-2.1962758751	-0.7101484918	 0.348857
C	 0.4298582533	-3.3936610132	-1.0801862878	-0.294869
C	 0.4524536602	-4.2801720525	 0.1518143245	-0.112963
O	 0.2565290601	-3.3933323169	 1.2643400185	-0.281315
C	-0.3852812462	-2.2379982202	 0.7562448354	 0.083193
C	 0.0466076431	-0.8503090911	 1.2640192632	-0.35176
H	 0.9362508777	 1.823999885	 0.5288363724	 0.132079
H	 0.0108913575	 1.9058158595	-0.9841826535	 0.126078
H	-0.8182876242	 1.882215983	 0.5854404725	 0.130934
H	-0.0357871011	-0.4412973446	-2.1371139096	 0.097887
H	 0.8030402394	-3.7080478315	-2.0457871015	 0.098578
H	-0.3379219003	-5.0516283175	 0.1344028952	 0.096581
H	 1.4103542405	-4.7982580859	 0.2867452335	 0.111106
H	-1.480607165	-2.3296492743	 0.8751604435	 0.073309
H	 1.0787653033	-0.8866764068	 1.6391394136	 0.121688
H	-0.5815249034	-0.4523581103	 2.0674050973	 0.102786
119.9558	149.1769	182.9243	263.9093	284.8058	391.8698	432.5785	473.0638	524.7105	658.4577	698.8288	767.8161	786.9109	826.685	861.6637	874.5494	933.2193	968.5082	996.2991	1004.6626	1024.7849	1044.6885	1078.5932	1118.1557	1157.0684	1172.0641	1196.0186	1205.6259	1251.856	1285.134	1307.9985	1336.7456	1365.3343	1383.9322	1411.8251	1475.2411	1478.0368	1482.7434	1512.6186	1654.1902	1726.8285	2925.5921	2943.7278	3014.9561	3021.0091	3036.0086	3060.7733	3075.4339	3111.802	3201.3433	3220.5784
CC1=CC2=CCOC2C1	CC1=CC2=CCO[C@H]2C1	
InChI=1S/C8H10O/c1-6-4-7-2-3-9-8(7)5-6/h2,4,8H,3,5H2,1H3	InChI=1S/C8H10O/c1-6-4-7-2-3-9-8(7)5-6/h2,4,8H,3,5H2,1H3/t8-/m0/s1
