17
gdb 66512	3.04023	1.91806	1.6721	1.1007	78.53	-0.1878	-0.0298	0.158	864.1392	0.136164	-384.559846	-384.553247	-384.552303	-384.59018	28.289	
O	-0.0285070844	 1.2884504363	-0.1201872827	-0.458114
C	 0.0815120534	-0.0761389244	-0.0347455335	 0.38182
C	-1.0605768515	-1.0507445165	 0.0339418422	-0.144838
C	-0.3260204296	-1.0317666806	-1.2775143991	-0.187933
C	 0.6192874567	-2.1422358608	-0.8966011665	 0.083198
C	 1.9659558743	-2.0759217171	-0.9175522762	-0.140315
C	 2.3906321433	-1.5073238621	 0.4439061147	-0.266263
C	 1.0122244465	-0.9219185534	 0.9175961759	-0.09515
C	 0.0264080433	-2.0491462355	 0.534210188	-0.095188
H	 0.7217280914	 1.6299368212	-0.621120122	 0.288895
H	-2.1030512927	-0.921921051	 0.2874222112	 0.097146
H	-0.5917084584	-0.557018048	-2.2147543313	 0.09327
H	 2.5357610498	-1.8416414791	-1.8117066647	 0.086758
H	 2.7610895927	-2.2127932092	 1.2020654597	 0.107177
H	 3.1882733779	-0.7689608644	 0.294588758	 0.100271
H	 0.9787386817	-0.5297759009	 1.9396943755	 0.069425
H	-0.1494954446	-2.9294631045	 1.1478516206	 0.079839
226.601	258.2059	331.6666	367.7632	404.5909	511.0796	542.6891	589.3127	656.3828	693.4076	741.4891	768.3	841.4794	872.5668	878.3074	891.7707	919.9937	926.4376	940.5873	954.4741	988.5497	1024.4525	1047.9121	1096.2215	1110.2506	1143.8207	1154.2373	1199.7215	1219.2013	1232.209	1261.0798	1275.36	1288.1618	1328.4301	1427.775	1473.753	1589.0799	2994.3836	3047.8429	3062.2538	3142.5587	3163.7868	3186.4284	3219.5628	3775.1501
OC12C3C1C1=CCC2C31	O[C@@]12[C@H]3[C@@H]1[C]1[CH]C[C@@H]2[C@@H]31	
InChI=1S/C8H8O/c9-8-4-2-1-3-5(4)7(8)6(3)8/h1,4-7,9H,2H2	InChI=1S/C8H8O/c9-8-4-2-1-3-5(4)7(8)6(3)8/h1,4-7,9H,2H2/t4-,5+,6+,7-,8-/m1/s1
