19
gdb 110328	1.89079	1.5947	1.06558	0.4483	71.59	-0.2428	0.0652	0.308	1177.9489	0.157732	-460.112385	-460.103003	-460.102059	-460.146614	35.27	
O	 0.3518472082	 0.6029429954	 0.9243642758	-0.422605
C	-0.0365800342	 0.2290769212	-0.3966168878	-0.100403
C	-1.3886406709	-0.4515943584	-0.4132356354	-0.103332
C	-1.8952599245	-1.4644020322	-1.4286328147	-0.160428
C	-0.8235465003	-2.4597367748	-1.8524243256	 0.12327
O	 0.221970218	-1.90531733	-2.6259581468	-0.425482
C	-0.5561723319	-2.8255405853	-0.3479217508	-0.3599
C	-1.6768595751	-1.8521149027	 0.0371219075	 0.387682
O	-2.6625935917	-2.149847113	 0.9622187284	-0.462283
H	-0.2604152882	 1.2801419282	 1.2289268888	 0.277326
H	-0.0521077799	 1.1012086221	-1.0679878603	 0.087758
H	 0.7425447804	-0.4363083728	-0.7671561971	 0.125546
H	-2.2057084243	 0.2098501863	-0.1205006023	 0.079754
H	-2.8195537199	-1.2901278832	-1.9657898272	 0.090506
H	-1.2779655942	-3.311607013	-2.3749930096	 0.079404
H	 0.8445100527	-2.6086630497	-2.8371231304	 0.284594
H	-0.8174033469	-3.8614851498	-0.1209900465	 0.106522
H	 0.4429892549	-2.6070919196	 0.0402819059	 0.104334
H	-2.3587316423	-1.8490423484	 1.8258894881	 0.287735
52.7171	130.0906	154.9874	209.7516	255.1567	290.8444	305.7027	318.4515	385.133	415.9725	447.0574	506.9103	567.0519	658.2902	718.4858	797.5872	873.4272	912.538	961.0603	966.5532	982.5948	1006.4106	1042.4179	1071.7985	1092.3943	1113.1251	1163.6314	1175.0615	1216.5701	1230.1111	1249.9611	1265.532	1321.3637	1329.9782	1342.6455	1378.9508	1403.6845	1427.0884	1470.0963	1495.7805	1512.6648	2989.3368	3010.5657	3054.8477	3098.8284	3116.4418	3139.22	3187.0229	3794.2568	3812.7822	3813.3845
OCC1C2C(O)CC12O	OC[C@H]1[C@H]2[C@@H](O)C[C@@]12O	
InChI=1S/C6H10O3/c7-2-3-5-4(8)1-6(3,5)9/h3-5,7-9H,1-2H2	InChI=1S/C6H10O3/c7-2-3-5-4(8)1-6(3,5)9/h3-5,7-9H,1-2H2/t3-,4-,5-,6+/m0/s1
