18
gdb 80626	2.48895	1.84772	1.40277	2.7081	70.86	-0.23	0.057	0.2869	967.4724	0.149188	-439.021493	-439.014104	-439.013159	-439.053049	29.767	
O	-0.035101685	 1.4442966508	 0.0263822956	-0.431387
C	-0.007593802	 0.0296990689	 0.0649178609	 0.007303
C	 0.4431012002	-0.5986326469	 1.4133558447	 0.031826
C	-0.7425999157	-0.3308875652	 2.3611174643	-0.239207
C	-1.3573553272	-1.3494526426	 1.3735966369	 5.*^-6
O	-0.0274886636	-1.9695278215	 1.2480121285	-0.298207
C	-1.432982976	-0.5565887686	 0.0771592448	 0.393007
C	-2.6115182438	 0.1412349376	-0.4708136427	-0.306485
N	-2.1142741928	-1.1087744155	-1.0887749451	-0.385836
H	 0.8706928448	 1.7610181642	-0.0520212918	 0.287774
H	 0.5872408039	-0.3838697954	-0.7613902345	 0.078858
H	 1.4908393091	-0.5105721134	 1.7044093571	 0.074422
H	-0.5799401022	-0.7599676397	 3.3498876291	 0.111395
H	-1.1588189604	 0.677118174	 2.4098125891	 0.113454
H	-2.1638520927	-2.0407691169	 1.6116749908	 0.089648
H	-3.5786141632	 0.053661982	 0.0178060434	 0.115851
H	-2.4362580581	 1.0863050534	-0.9759857967	 0.127542
H	-1.591964525	-0.8926685452	-1.9352225843	 0.230036
119.0973	234.7426	242.9512	287.7202	304.3118	373.8814	463.2771	532.4075	551.6428	603.4433	772.1752	819.1897	850.3263	863.4609	901.2032	920.2801	932.1824	954.7841	980.5275	985.4018	1025.8577	1043.1618	1072.7145	1095.9687	1121.7508	1140.8932	1183.4816	1208.9485	1227.0066	1249.583	1262.3181	1272.8372	1286.1366	1316.7306	1336.0388	1399.309	1442.8118	1481.5744	1517.9533	3008.1119	3080.5484	3110.0431	3111.2203	3144.0624	3154.5171	3199.3216	3487.5079	3812.7438
OC1C2CC(O2)C11CN1	O[C@H]1[C@H]2C[C@H](O2)[C@]21CN2	
InChI=1S/C6H9NO2/c8-5-3-1-4(9-3)6(5)2-7-6/h3-5,7-8H,1-2H2	InChI=1S/C6H9NO2/c8-5-3-1-4(9-3)6(5)2-7-6/h3-5,7-8H,1-2H2/t3-,4+,5+,6+/m1/s1
