17
gdb 97296	3.37166	1.11185	0.90678	4.8583	80.27	-0.2349	-0.015	0.2198	1305.196	0.13511	-417.993854	-417.985384	-417.98444	-418.027534	30.722	
C	 0.2340573673	 1.4138676989	 0.0177921446	-0.309243
N	 0.043253321	-0.0183068964	 0.0841899293	-0.183644
C	 0.4171049541	-0.7026410006	-0.9088044746	 0.076589
N	 0.2717789118	-2.0807196223	-0.9869206973	-0.135726
C	 0.9051592474	-2.9934881569	-1.9432047856	-0.014629
C	 2.1444343689	-3.5878445329	-1.3549013739	-0.288644
C	 0.7716891406	-4.1222890153	-0.9400965805	-0.218443
C	 0.1068031762	-3.1109781	-0.0149448976	 0.435608
O	-0.3832055186	-3.1221223588	 1.0712246529	-0.321183
H	 0.8618106502	 1.7397921124	 0.8552161392	 0.129976
H	 0.698296165	 1.7604675264	-0.9209651928	 0.092505
H	-0.7322802993	 1.9185616642	 0.1326265139	 0.130494
H	 0.869201678	-0.2835500429	-1.8219297401	 0.082188
H	 0.6276484607	-2.9874557264	-2.9884584239	 0.127
H	 2.7125540809	-4.2604994585	-1.9912833153	 0.132028
H	 2.7378152942	-3.0096502652	-0.6533409423	 0.137827
H	 0.4713630915	-5.1479145258	-1.0943630659	 0.127296
73.434	108.4213	124.8831	202.2032	217.8475	316.5158	325.6002	444.3312	497.2137	500.4411	686.9069	753.0228	800.9646	829.9133	879.711	921.3057	954.5016	979.7597	1000.7316	1036.1789	1047.9032	1080.6969	1097.5475	1135.8188	1140.2402	1169.0187	1193.8671	1263.6683	1301.1532	1376.6011	1407.3271	1448.0917	1477.9424	1480.3496	1503.4641	1754.6168	1909.7996	2960.3534	2988.4208	3056.9957	3076.1797	3121.5746	3208.8521	3214.6811	3237.4027
CN=CN1C2CC2C1=O	CN=CN1[C@H]2C[C@H]2C1=O	
InChI=1S/C6H8N2O/c1-7-3-8-5-2-4(5)6(8)9/h3-5H,2H2,1H3	InChI=1S/C6H8N2O/c1-7-3-8-5-2-4(5)6(8)9/h3-5H,2H2,1H3/t4-,5+/m1/s1
