15
gdb 129935	3.22255	1.39094	1.00088	2.5867	71.36	-0.1905	0.0023	0.1929	1111.1712	0.115655	-450.166905	-450.15901	-450.158066	-450.199451	29.763	
N	 0.6165472403	 0.8985053179	-0.9097678948	-0.627897
C	 0.2188991758	-0.2909252292	-0.2992165959	 0.124892
C	-1.0595383497	-0.8039724936	-0.1557712806	-0.090491
N	-0.9553853668	-1.9186899937	 0.6188849844	-0.192398
N	 0.3034919221	-2.1901110929	 0.9816459553	-0.307319
C	 1.0210324938	-1.2118734552	 0.4295327527	 0.393659
N	 2.4035010799	-1.2102334129	 0.688229836	-0.382325
C	 3.4043627527	-0.7142338112	-0.0825296017	 0.147487
O	 3.2808371828	-0.1065780513	-1.1304180493	-0.328294
H	 1.5612193555	 0.8190915993	-1.2803323343	 0.272885
H	-0.0284059812	 1.2049906912	-1.6259022128	 0.235002
H	-2.0081443244	-0.4503515794	-0.5263589835	 0.124856
H	-1.6919601518	-2.5317357488	 0.9193753102	 0.275955
H	 2.6728888842	-1.7760353952	 1.480409407	 0.26433
H	 4.3928587969	-0.921462545	 0.3667703972	 0.089656
64.0102	205.1536	219.1288	266.9407	319.3016	369.1299	374.8513	425.6216	473.2977	596.9242	613.2445	648.6017	707.27	726.3626	743.3085	827.0825	870.4454	944.6255	1016.8716	1081.4975	1118.0071	1175.3683	1231.5035	1293.788	1358.2244	1393.3213	1433.3216	1487.8535	1517.8612	1571.4978	1634.8947	1665.2711	1787.3512	2967.6311	3264.0826	3463.8724	3605.371	3610.8822	3692.7869
NC1=CNN=C1NC=O	Nc1c[nH]nc1NC=O	
InChI=1S/C4H6N4O/c5-3-1-7-8-4(3)6-2-9/h1-2H,5H2,(H2,6,7,8,9)	InChI=1S/C4H6N4O/c5-3-1-7-8-4(3)6-2-9/h1-2H,5H2,(H2,6,7,8,9)
