18
gdb 10193	2.45132	1.27262	0.87984	3.7795	69.01	-0.2413	0.0295	0.2709	1280.2984	0.152643	-381.109122	-381.099377	-381.098433	-381.144304	33.476	
C	 0.0829939722	 1.3043144741	-0.570848031	-0.32946
N	-0.1366937579	 0.2042083838	 0.3568993378	-0.271763
C	-1.3737535915	-0.5521587912	 0.201973949	-0.139615
C	-1.2734106734	-1.8612278457	-0.6188274202	-0.211624
C	-0.9010354651	-1.6521573827	-2.0890517045	-0.067469
O	-0.8053654306	-2.8768279448	-2.7920917592	-0.413786
C	-1.9256249677	-0.8735422501	 1.5371168272	 0.29848
N	-2.3565821199	-1.1496270974	 2.5730499665	-0.324393
H	 1.036057912	 1.782163204	-0.3280294868	 0.133247
H	 0.1048458884	 1.027681855	-1.6378299183	 0.105323
H	-0.7014641934	 2.0568157776	-0.4362699175	 0.134038
H	 0.6625665339	-0.4141850766	 0.4136935323	 0.229489
H	-2.102987233	 0.1098635653	-0.283212422	 0.126429
H	-0.536815003	-2.5244195959	-0.1504282866	 0.124393
H	-2.2394839424	-2.3799069726	-0.5612252233	 0.111808
H	-1.6200485091	-0.9654227581	-2.5658167011	 0.090891
H	 0.087715161	-1.1913869728	-2.1715999721	 0.118977
H	-1.6743310203	-3.2912847519	-2.7902757603	 0.285035
62.4565	94.7013	116.5634	128.4245	161.08	211.1458	264.1234	308.2297	345.0914	377.5686	431.3606	557.6825	567.3224	666.9317	779.4362	906.8022	951.592	1032.3733	1049.6206	1067.7979	1085.7644	1142.1933	1156.675	1166.0607	1230.6579	1264.2988	1318.7564	1342.6089	1366.6871	1400.7621	1425.9587	1462.2733	1475.0896	1493.8436	1495.1229	1514.3088	1520.9748	2356.7245	2966.3923	2971.7796	3024.5492	3031.0114	3063.8376	3070.4689	3092.2671	3111.3139	3557.8655	3814.0764
CNC(CCO)C#N	CN[C@@H](CCO)C#N	
InChI=1S/C5H10N2O/c1-7-5(4-6)2-3-8/h5,7-8H,2-3H2,1H3	InChI=1S/C5H10N2O/c1-7-5(4-6)2-3-8/h5,7-8H,2-3H2,1H3/t5-/m0/s1
