16
gdb 9477	3.08574	1.75349	1.5332	3.1415	65.21	-0.2581	0.0187	0.2768	889.8453	0.130296	-379.908957	-379.900792	-379.899848	-379.941344	29.984	
C	-0.0294556088	 1.5290087216	-0.00217348	-0.430448
C	 0.0603484982	 0.0088162464	 0.0289127099	 0.101134
N	 1.124112614	-0.5871000743	-0.8238976443	-0.341021
C	 1.4540639753	-1.5955693494	 0.2125006218	-0.218282
C	 0.7775974719	-0.6858478742	 1.2667972609	 0.13215
O	 1.635036868	 0.1463049425	 1.9915964373	-0.423955
C	-1.2577769069	-0.6002606378	-0.2025801537	 0.251351
N	-2.2795529271	-1.1050218495	-0.4029519029	-0.341524
H	 0.9379373915	 1.9619753907	 0.2573590781	 0.120029
H	-0.3085361303	 1.8726841606	-1.0023899297	 0.134833
H	-0.7780177587	 1.8885691584	 0.7091771223	 0.14039
H	 0.8204960654	-0.9438260196	-1.7240709919	 0.234375
H	 0.9387880625	-2.5579836544	 0.1018533583	 0.120565
H	 2.5259337285	-1.7738947151	 0.3472599233	 0.10997
H	 0.111260803	-1.1597156219	 1.9866883755	 0.11497
H	 2.3275185935	 0.4593319762	 1.3981231351	 0.295464
92.0418	146.7604	172.217	205.8673	256.3512	353.431	375.5072	420.0549	467.4326	540.7692	576.1213	646.4281	723.4332	843.3564	871.3554	922.2187	965.8255	996.5364	1046.8162	1117.7533	1140.4618	1161.2553	1167.7232	1210.2452	1240.5589	1305.5235	1313.0452	1377.3638	1411.9876	1438.8187	1477.1506	1485.7279	1512.6952	2336.4616	3021.6777	3051.4087	3077.1316	3123.7734	3128.0037	3142.4148	3530.858	3798.9701
CC1(NCC1O)C#N	C[C@]1(NC[C@H]1O)C#N	
InChI=1S/C5H8N2O/c1-5(3-6)4(8)2-7-5/h4,7-8H,2H2,1H3	InChI=1S/C5H8N2O/c1-5(3-6)4(8)2-7-5/h4,7-8H,2H2,1H3/t4-,5+/m1/s1
