23
gdb 53559	3.34351	0.74226	0.67959	0.1755	94.94	-0.2377	0.065	0.3027	1795.9267	0.203256	-351.126449	-351.115081	-351.114137	-351.164913	39.739	
C	-0.8364145125	-0.1274072983	-4.1426073211	-0.496252
C	-0.5976145281	-1.1507036596	-3.1342500841	 0.075984
C	-0.3926944026	-1.9972618661	-2.3026443843	 0.061022
C	-0.1712403097	-3.0194339092	-1.2810864663	-0.381679
C	-1.4721018052	-3.5249457225	-0.6667362697	-0.012714
C	-2.2928349706	-4.6360854267	-1.287115908	-0.007243
C	-1.9000859437	-5.334246775	-2.5725281997	-0.407248
C	-1.5798292383	-4.8650843397	 0.0335787581	-0.044995
C	-0.4134196329	-5.8189184433	 0.1924506554	-0.403829
H	-0.4303694649	-0.4227542688	-5.116680369	 0.144104
H	-1.9080207718	 0.0592684094	-4.2758303112	 0.144541
H	-0.3686611646	 0.8241992529	-3.8657796805	 0.14416
H	 0.4034053841	-3.8449346172	-1.7142538627	 0.12027
H	 0.4635716777	-2.6056291538	-0.4852532052	 0.1232
H	-2.0482530852	-2.7181915727	-0.2214780261	 0.085821
H	-3.3681887244	-4.4979973738	-1.2015300641	 0.078109
H	-0.8241897836	-5.5060501152	-2.6539306681	 0.11336
H	-2.3904681023	-6.3112099388	-2.6483583851	 0.113579
H	-2.2004155072	-4.7407960551	-3.4425850939	 0.124859
H	-2.2306824887	-4.8595090768	 0.905205851	 0.079154
H	 0.2413071292	-5.8450223033	-0.6817431614	 0.114633
H	 0.2041379238	-5.5412421062	 1.0542066605	 0.116021
H	-0.7697094784	-6.8414748502	 0.3603121855	 0.115142
21.619	35.4245	75.9303	140.3518	151.7601	177.5993	196.3308	232.671	273.9633	285.4042	379.8811	413.272	470.9132	500.5942	540.8043	745.6723	759.472	785.7143	841.9233	906.4916	959.1899	981.3988	1024.2717	1049.4709	1053.8959	1055.1657	1109.1836	1135.7174	1150.3156	1160.3866	1165.4363	1191.0978	1243.8872	1272.0204	1319.0338	1378.8132	1392.741	1415.6471	1417.4565	1424.0109	1452.2054	1471.2766	1479.8004	1480.0344	1491.0422	1495.3803	1502.5687	1514.4671	2372.5505	3011.5441	3023.9795	3030.5766	3035.1816	3063.6358	3083.055	3083.2282	3083.6855	3090.8525	3105.2568	3115.7484	3123.984	3129.3548	3144.6535
CC#CCC1C(C)C1C	CC#CC[C@H]1[C@@H](C)[C@H]1C	
InChI=1S/C9H14/c1-4-5-6-9-7(2)8(9)3/h7-9H,6H2,1-3H3	InChI=1S/C9H14/c1-4-5-6-9-7(2)8(9)3/h7-9H,6H2,1-3H3/t7-,8+,9-
