17
gdb 44562	3.14709	1.61799	1.44149	3.6301	71.75	-0.2278	0.0194	0.2472	948.8153	0.139082	-417.983381	-417.976624	-417.97568	-418.014549	27.597	
N	 0.2778538433	 0.9703079319	 0.6061913272	-0.548486
C	 0.093330804	-0.1616862774	 0.1022322304	 0.433767
O	 0.94344644	-0.9682053323	-0.6312407781	-0.264672
C	-0.061966013	-2.037304745	-0.7352607784	 0.08109
C	 0.1445408532	-3.2321040476	 0.1592451437	-0.074403
C	 0.6705349174	-2.9510815698	 1.5572584993	-0.296517
C	-0.8048493834	-3.0431061704	 1.3458626879	 0.005105
N	-1.5545875793	-1.8033520787	 1.2100364989	-0.294049
C	-1.0902650445	-1.1248430463	 0.0126261868	-0.145455
H	 1.2283375994	 1.3037885445	 0.4337548801	 0.226985
H	-0.2291626917	-2.2898571738	-1.7824274909	 0.091335
H	 0.3232431437	-4.1999000868	-0.2921762472	 0.090413
H	 1.1524927632	-3.7784928755	 2.0659879376	 0.117296
H	 1.1149473662	-1.9832818851	 1.7588085923	 0.143281
H	-1.3559468687	-3.866666785	 1.7850810998	 0.096019
H	-2.5413500312	-2.0114589496	 1.1298939455	 0.229523
H	-1.9163366785	-0.7072841232	-0.5657935549	 0.108768
94.7473	212.1495	262.4127	406.0754	409.1314	531.959	627.6005	648.1055	674.4404	745.5445	767.5389	789.1813	824.4917	845.2482	875.9015	896.5302	927.7883	936.6325	975.876	1015.8964	1037.2006	1058.7808	1066.4529	1088.1527	1098.9324	1166.6613	1187.0671	1199.1391	1213.3331	1277.3739	1308.2124	1344.9282	1350.0404	1416.8357	1465.2083	1498.484	1822.139	3099.0059	3115.4759	3142.1381	3176.6559	3189.1335	3230.0131	3469.2795	3562.1568
N=C1OC2C3CC3NC12	[NH][C]1O[C@H]2[C@H]3C[C@H]3N[C@@H]12	
InChI=1S/C6H8N2O/c7-6-4-5(9-6)2-1-3(2)8-4/h2-5,7-8H,1H2	InChI=1S/C6H8N2O/c7-6-4-5(9-6)2-1-3(2)8-4/h2-5,7-8H,1H2/t2-,3+,4+,5-/m0/s1
