21
gdb 70899	3.05239	1.57757	1.44722	1.1512	81.16	-0.2249	0.0879	0.3128	1033.2197	0.183706	-387.111487	-387.103654	-387.10271	-387.143039	32.476	
C	-0.0048614273	 1.4428861707	-0.0849012485	-0.499746
C	 0.006837017	-0.049422814	 0.0030925018	 0.467848
O	 0.2032439821	-0.7243950382	-1.230176281	-0.326169
C	 0.15940173	-2.0976142871	-0.7846814387	 0.365379
C	 0.3493964179	-3.0408843329	-1.9448654489	-0.482488
C	 1.2058859055	-2.0960834765	 0.3602512076	-0.252633
C	 0.6340844573	-0.8924121836	 1.0928101255	-0.155247
C	-0.88480082	-0.9178265976	 0.8647269357	-0.155243
C	-1.1765144137	-2.1360629385	 0.0026221339	-0.252637
H	 0.9448165135	 1.8190242234	-0.4794645909	 0.125993
H	-0.8078679779	 1.7896243892	-0.7436865434	 0.126006
H	-0.1614174039	 1.8810353317	 0.9048104065	 0.119253
H	 1.3153093797	-2.8684355175	-2.4286099524	 0.125002
H	 0.3157518298	-4.0794887413	-1.6024109184	 0.116951
H	-0.4374242986	-2.8983106575	-2.6914057036	 0.124992
H	 1.1897887264	-3.0214068446	 0.9440531117	 0.095205
H	 2.2178813628	-1.9249066489	-0.0193066547	 0.098773
H	 1.0809630735	-0.4613205014	 1.9791150119	 0.082391
H	-1.5860976621	-0.5059312933	 1.5785911402	 0.082389
H	-2.0375566752	-1.9963678775	-0.65812511	 0.098768
H	-1.3021272367	-3.0631995443	 0.5700294456	 0.095212
200.7028	201.6822	226.0486	237.9033	292.8784	341.582	438.1805	465.4298	576.9849	581.3997	616.9969	704.415	713.5672	799.4234	845.041	869.4672	876.3209	885.4598	941.9325	957.594	983.064	983.6705	1017.3694	1024.09	1041.0415	1121.2195	1125.1719	1137.569	1162.5647	1182.4311	1211.3234	1237.8425	1261.6498	1283.2245	1292.5649	1360.	1406.0885	1415.6354	1457.474	1475.8499	1478.1096	1484.0591	1496.2743	1497.9009	1505.3981	3035.083	3041.7003	3047.8645	3054.2843	3098.072	3098.1724	3102.0979	3114.7153	3115.1524	3116.1834	3195.3685	3204.1261
CC12OC3(C)CC1C2C3	C[C@@]12O[C@@]3(C)C[C@@H]1[C@@H]2C3	
InChI=1S/C8H12O/c1-7-3-5-6(4-7)8(5,2)9-7/h5-6H,3-4H2,1-2H3	InChI=1S/C8H12O/c1-7-3-5-6(4-7)8(5,2)9-7/h5-6H,3-4H2,1-2H3/t5-,6+,7+,8-
