23
gdb 86200	2.35402	1.36279	1.10966	2.347	80.02	-0.2498	0.0524	0.3022	1225.2087	0.205904	-425.442789	-425.433071	-425.432127	-425.476806	37.829	
C	-0.3378543832	 1.4853091129	-0.062247083	-0.414487
C	-0.0102435	-0.0012565045	 0.0681541969	 0.039126
C	 0.6257485487	-0.6209252651	-1.2017475494	-0.258387
C	 1.4141609971	-1.8632742144	-0.7316604625	 0.088063
O	 2.7922820635	-1.8657471233	-1.121999776	-0.442579
C	 1.2845258753	-1.8653636631	 0.8247484166	 0.118812
O	 2.411113984	-2.4261432964	 1.4520609659	-0.446186
C	 0.9613596587	-0.3974440674	 1.2070398483	-0.03558
C	 2.2160664077	 0.477202151	 1.3224955729	-0.407172
H	 0.559235358	 2.0768933941	-0.2726013431	 0.115251
H	-1.0464838806	 1.6590863009	-0.8792777029	 0.113121
H	-0.7889540955	 1.8762624337	 0.8559827706	 0.114798
H	-0.9514867529	-0.5351687546	 0.2587372891	 0.074837
H	-0.1206489625	-0.8601742461	-1.9640612616	 0.106433
H	 1.3194521403	 0.0898176212	-1.6695591416	 0.092856
H	 1.0193833284	-2.7917656586	-1.1515056985	 0.092796
H	 3.1260156233	-0.9643970669	-1.0600678703	 0.285557
H	 0.4097334889	-2.4758286415	 1.0898072266	 0.07363
H	 3.0936472398	-2.4543582519	 0.7645198304	 0.282864
H	 0.4462551665	-0.3717463661	 2.1737710289	 0.069285
H	 2.7028867166	 0.6558792636	 0.3554234755	 0.0854
H	 1.980110033	 1.4597689554	 1.7409462398	 0.116689
H	 2.9439196248	-0.0105758527	 1.9753406677	 0.134873
71.7568	121.1647	215.7831	224.9261	250.2098	271.6977	282.0247	300.1552	319.4844	416.0398	456.392	501.8422	556.9047	573.5215	584.9661	757.1608	766.8277	793.9639	856.0176	893.8469	952.0286	986.8397	1015.4408	1051.9811	1054.9022	1073.8504	1083.316	1125.1563	1152.0836	1180.1339	1199.1043	1236.5759	1269.5384	1288.482	1307.2844	1316.9001	1337.3311	1359.7346	1379.7059	1386.7091	1412.1215	1418.2602	1428.347	1445.7832	1487.1147	1494.9019	1496.6535	1503.6298	1507.6189	2997.2727	3002.8842	3021.658	3027.1702	3031.467	3042.8373	3073.5428	3089.8977	3094.1996	3094.9961	3100.905	3124.918	3702.3889	3811.2244
CC1CC(O)C(O)C1C	C[C@H]1C[C@@H](O)[C@@H](O)[C@H]1C	
InChI=1S/C7H14O2/c1-4-3-6(8)7(9)5(4)2/h4-9H,3H2,1-2H3	InChI=1S/C7H14O2/c1-4-3-6(8)7(9)5(4)2/h4-9H,3H2,1-2H3/t4-,5-,6+,7-/m0/s1
