20
gdb 110470	4.0634	1.2726	1.25413	2.0299	79.96	-0.226	0.0756	0.3016	1098.9048	0.172707	-365.93035	-365.923057	-365.922113	-365.962257	29.382	
C	 0.0587373651	 1.5600251721	-0.0918345172	-0.37766
C	 0.0461065	 0.0427790904	 0.1258034372	-0.20547
C	-1.3494429654	-0.5602430156	 0.0535725631	 0.022973
C	-2.1113183271	-0.6585533677	-1.301596626	-0.090097
C	-1.3329748442	-1.6537520459	-2.1878404115	-0.04328
C	-0.9358446856	-2.6831690353	-1.1859315838	-0.043603
C	-1.5543156939	-2.1000983716	 0.1026598354	-0.106077
C	-2.8175737639	-1.960663454	-0.8057795333	 0.012855
N	-2.2336652562	-2.8288320422	-1.9291816009	-0.183289
H	 1.0747374271	 1.9623945725	-0.0339278069	 0.112991
H	-0.3474835873	 1.8237037686	-1.074317689	 0.116795
H	-0.5463369987	 2.0732916755	 0.6637876816	 0.114066
H	 0.6847653865	-0.4436617306	-0.6223271638	 0.098913
H	 0.4871233222	-0.1913512042	 1.1038116242	 0.094437
H	-2.0120290549	-0.0920756154	 0.7946626821	 0.068975
H	-2.6206434365	 0.1825858535	-1.7670658428	 0.071368
H	-0.8537547965	-1.5028497957	-3.1471967019	 0.093473
H	-0.1253330451	-3.3907039972	-1.3093437293	 0.093582
H	-1.5095331635	-2.67810334	 1.0236530272	 0.069873
H	-3.8565106922	-2.0655384673	-0.5021010043	 0.079177
81.2193	155.9314	183.1717	259.6797	356.055	521.0879	598.0038	708.4521	753.511	788.9323	801.0042	806.091	814.3858	848.8131	854.7647	890.453	915.507	924.8979	950.5739	979.3076	996.3991	1037.9283	1043.7942	1055.6444	1080.2443	1096.7532	1140.2257	1156.5617	1169.0897	1180.8943	1214.4669	1224.4077	1239.4154	1269.0071	1292.7921	1313.7076	1338.0313	1355.4131	1399.923	1411.1407	1484.8891	1499.916	1506.3214	3015.8454	3017.2942	3030.9754	3051.6519	3097.5432	3103.4062	3131.6159	3135.9167	3147.213	3183.8227	3195.5079
CCC1C2C3C4C1C2N34	CC[C@H]1[C@H]2[C@H]3[C@H]4[C@@H]1[C@@H]2N34	
InChI=1S/C8H11N/c1-2-3-4-6-5(3)8-7(4)9(6)8/h3-8H,2H2,1H3	InChI=1S/C8H11N/c1-2-3-4-6-5(3)8-7(4)9(6)8/h3-8H,2H2,1H3/t3-,4+,5-,6+,7-,8+,9?
