21
gdb 90409	2.27655	1.52142	1.28224	1.1959	79.03	-0.2198	0.0619	0.2817	1131.6807	0.179661	-424.186244	-424.176539	-424.175595	-424.219714	37.376	
C	-0.1858283324	 1.4609549068	-0.3141236299	-0.421434
C	 0.2197719887	 0.0058641934	-0.1958528667	 0.093762
O	 1.3805961749	-0.3991805897	-0.9842874888	-0.305583
C	 1.9035583336	-1.1555350927	 0.1141318452	-0.046928
C	 2.3057289528	-0.2537260675	 1.2608506713	 0.256701
C	 2.924346522	-1.0088856066	 2.4290861529	-0.444307
C	 2.9149831432	 1.1135298866	 1.0128570167	-0.471062
C	 0.8411351461	-0.6076769881	 1.0600196848	 0.239469
O	 0.100263003	-1.1422852876	 2.0963924951	-0.451195
H	-0.4380458833	 1.6985685864	-1.352781786	 0.127098
H	-1.0788471707	 1.6349842672	 0.2959608135	 0.123571
H	 0.5958217518	 2.1441924515	 0.018516116	 0.12895
H	-0.6307047463	-0.6270025305	-0.5013469875	 0.067723
H	 2.3075026539	-2.1415467402	-0.0887053371	 0.10061
H	 4.0084778529	-1.0866927931	 2.2939543896	 0.112083
H	 2.7370427566	-0.4860696712	 3.3728561619	 0.124983
H	 2.5138842258	-2.0162379626	 2.5317062116	 0.118963
H	 2.6640143588	 1.4817962722	 0.017452907	 0.137117
H	 2.5854095458	 1.8467348889	 1.7573800433	 0.113556
H	 4.00719912	 1.0485671274	 1.0761125918	 0.110056
H	-0.5086728772	-1.7948243907	 1.7314306351	 0.285865
153.2699	172.9087	182.1233	192.1381	221.1637	257.2365	270.1056	309.3043	333.1861	355.1062	402.1496	446.4688	550.2376	573.3025	643.1981	681.6058	735.498	848.1728	918.8412	936.0367	954.124	973.1467	994.952	1027.6433	1059.9612	1101.5293	1119.4103	1148.5795	1166.5111	1211.4222	1238.0377	1274.5516	1307.8014	1326.8906	1394.3137	1402.3491	1405.0689	1420.3334	1459.8689	1481.2438	1487.4426	1488.161	1496.966	1514.7774	1515.3814	2955.3298	3029.5466	3035.2215	3042.9907	3084.4853	3095.7717	3103.6892	3119.5934	3137.3527	3150.1745	3171.3461	3783.88
CC1OC2C(C)(C)C12O	C[C@H]1O[C@H]2C(C)(C)[C@@]12O	
InChI=1S/C7H12O2/c1-4-7(8)5(9-4)6(7,2)3/h4-5,8H,1-3H3	InChI=1S/C7H12O2/c1-4-7(8)5(9-4)6(7,2)3/h4-5,8H,1-3H3/t4-,5+,7-/m1/s1
