21
gdb 52712	4.03446	0.69835	0.62403	0.919	89.45	-0.2357	0.0463	0.2821	1855.4877	0.179123	-387.041329	-387.030569	-387.029625	-387.07933	37.69	
C	-0.1081501853	 1.4827614813	 0.1469769068	-0.499591
C	-0.0435901091	 0.032081623	 0.0471804671	 0.099222
C	 0.0234397524	-1.1663918303	-0.0385148518	 0.051362
C	 0.0620139987	-2.6250597072	-0.1319676155	-0.043839
C	-1.2927434974	-3.1945862358	-0.5811551757	-0.391068
O	 1.1235201065	-2.9759786277	-1.0266422097	-0.259447
C	 1.5894975603	-4.2824220121	-0.8860596807	 0.162237
C	 1.0841035077	-5.3770560987	-1.7960649961	-0.2863
C	 2.4681675852	-4.7864636235	-1.9830349409	-0.297944
H	 0.6275281585	 1.9539845984	-0.5140419605	 0.152519
H	-1.0970971927	 1.8599088975	-0.1358906098	 0.147269
H	 0.0987044814	 1.8226588591	 1.167755008	 0.147606
H	 0.2987528144	-3.0336505042	 0.864991059	 0.090201
H	-1.2612131345	-4.2863452996	-0.6031162701	 0.123568
H	-2.0783807584	-2.8809739296	 0.1119273723	 0.122363
H	-1.5394301003	-2.824069424	-1.5794426004	 0.128746
H	 1.8432035537	-4.5548658315	 0.1397296949	 0.082387
H	 0.9908025534	-6.3837231861	-1.402321483	 0.109522
H	 0.3324209765	-5.099409798	-2.525620252	 0.120117
H	 2.6091394448	-4.1204699178	-2.8266014958	 0.127653
H	 3.3360968942	-5.3808759832	-1.7212880462	 0.113416
22.7725	36.6112	73.3004	105.7215	142.4906	214.801	258.7313	294.0763	303.7623	364.0418	390.5023	455.728	532.9776	542.3317	740.137	765.1164	809.8805	826.4492	893.9852	963.2531	995.9034	1026.8875	1051.9882	1052.8671	1055.1004	1071.2037	1091.6934	1108.6964	1125.4961	1187.8258	1195.0904	1204.2416	1241.0047	1343.0333	1355.5045	1396.9092	1413.8603	1414.9471	1452.9521	1477.1121	1478.9413	1488.2157	1493.9527	1499.1642	2377.187	2956.5304	3027.6949	3049.118	3085.4694	3087.9949	3090.0523	3125.5545	3133.9725	3135.0779	3141.76	3220.8751	3235.1915
CC#CC(C)OC1CC1	CC#C[C@@H](C)OC1CC1	
InChI=1S/C8H12O/c1-3-4-7(2)9-8-5-6-8/h7-8H,5-6H2,1-2H3	InChI=1S/C8H12O/c1-3-4-7(2)9-8-5-6-8/h7-8H,5-6H2,1-2H3/t7-/m1/s1
