14
gdb 21957	7.03483	1.06668	0.98416	2.2378	58.63	-0.2734	-0.0278	0.2456	1124.6161	0.107943	-415.854064	-415.846702	-415.845758	-415.886761	25.501	
O	 0.1220550107	 1.4141360221	 0.018162975	-0.411128
C	 0.0812380511	 0.0015081037	 0.0714744797	-0.064809
C	-1.3401621438	-0.5436692808	-0.1680632754	-0.319214
C	-1.3888659305	-2.032230381	-0.0998346447	 0.362952
N	-1.6585064861	-2.7818826074	-1.1368810615	-0.171595
O	-1.5771450324	-4.0880397677	-0.630277747	-0.150864
C	-1.2642206754	-3.962824332	 0.6580677696	 0.109356
N	-1.1306791984	-2.7412560663	 1.0617748155	-0.306733
H	-0.3342631776	 1.7557545183	 0.7937328992	 0.285487
H	 0.7458114246	-0.3509917177	-0.723587873	 0.126077
H	 0.4686106586	-0.3868782727	 1.0237603128	 0.11397
H	-2.0102526605	-0.1383149118	 0.600243222	 0.118677
H	-1.7018422844	-0.2105472696	-1.14337108	 0.140333
H	-1.1569491059	-4.8733582371	 1.2295342977	 0.16749
58.6241	93.5432	124.5438	296.3328	336.205	361.9689	380.1972	633.2176	713.1249	783.555	805.297	904.4227	907.7144	982.1001	994.662	1017.5201	1054.9694	1083.8018	1150.5214	1161.699	1288.006	1300.3588	1314.2186	1367.8287	1401.4439	1416.204	1473.1242	1512.8867	1524.3508	1603.7346	3011.1671	3037.3108	3084.219	3120.6418	3265.5985	3816.4958
OCCC1=NOC=N1	OCCc1nocn1	
InChI=1S/C4H6N2O2/c7-2-1-4-5-3-8-6-4/h3,7H,1-2H2	InChI=1S/C4H6N2O2/c7-2-1-4-5-3-8-6-4/h3,7H,1-2H2
