18
gdb 31523	3.14915	1.12851	0.8842	2.0659	76.85	-0.188	0.0194	0.2074	1338.7532	0.14857	-435.306536	-435.297246	-435.296302	-435.340925	34.202	
C	 0.3148418375	 1.4498614541	-0.1718716905	-0.377461
C	-0.0633648441	-0.0086820396	 0.1365683094	-0.286885
C	 0.6028973125	-0.5422775702	 1.358878654	 0.388754
N	 0.0369103186	-0.9434126389	 2.4594079927	-0.354316
C	 1.0901026488	-1.3182561159	 3.2793896754	 0.25659
N	 0.8572997264	-1.8719104137	 4.5312903499	-0.598802
C	 2.2704160212	-1.1188207419	 2.6353442755	 0.179431
N	 3.5894002787	-1.3288874201	 3.0171640828	-0.607764
O	 1.9474120031	-0.6186792883	 1.3654599643	-0.21045
H	 1.3943080454	 1.5505047144	-0.3140704655	 0.129622
H	-0.1832231621	 1.7903093317	-1.0842672218	 0.116561
H	 0.0173317521	 2.112235184	 0.6465874177	 0.126615
H	-1.1403789885	-0.1046922898	 0.2937478666	 0.131418
H	 0.1993105245	-0.6411204458	-0.7207211595	 0.119229
H	 0.0283593352	-1.4931774072	 4.9692680562	 0.250074
H	 1.6633574904	-1.8111773768	 5.1389157135	 0.249389
H	 4.0487463488	-2.0765117479	 2.5057834359	 0.244836
H	 4.1650492214	-0.4955844882	 2.9507495235	 0.24316
40.0668	120.3889	197.8369	218.2402	241.9648	268.0522	285.9638	315.7279	326.2564	415.3016	523.365	605.9648	653.8565	677.1514	731.3864	761.9977	767.4363	800.1671	824.9058	965.8146	1014.619	1048.1626	1082.0888	1106.0752	1110.5151	1213.0222	1271.328	1321.0647	1335.6183	1368.8949	1408.0181	1428.7959	1474.4021	1497.0631	1507.0308	1604.4983	1628.3317	1657.8027	1746.393	3033.167	3043.1992	3102.2923	3115.1835	3125.9567	3484.9577	3546.5426	3548.8833	3648.982
CCC1=NC(N)=C(N)O1	CCc1nc(N)c(N)o1	
InChI=1S/C5H9N3O/c1-2-3-8-4(6)5(7)9-3/h2,6-7H2,1H3	InChI=1S/C5H9N3O/c1-2-3-8-4(6)5(7)9-3/h2,6-7H2,1H3
