18
gdb 123903	3.43817	1.53266	1.10336	3.2617	77.62	-0.1907	0.0299	0.2206	1074.4268	0.153138	-398.157173	-398.15009	-398.149146	-398.188525	28.503	
C	-0.0100653279	 1.5283414872	-0.0182465035	-0.201702
C	 1.438414115	 2.0583022621	 0.0088436576	-0.163128
N	 2.2016330129	 1.6758129783	 1.2026924471	-0.403317
C	 1.9368435661	 0.3542588874	 1.6175566971	 0.165697
C	 0.9527282102	-0.4455757018	 1.0681174565	 0.340667
C	-0.0342964873	-0.0152001393	 0.0327426341	-0.338764
N	 1.0665208823	-1.6503792959	 1.6896388314	-0.300917
N	 2.0456480245	-1.6802461996	 2.615561608	-0.228913
C	 2.5856373103	-0.4637165884	 2.5713079369	-0.101605
H	-0.5567142597	 1.9297837247	 0.843578904	 0.102582
H	-0.5181028395	 1.8849223353	-0.9200261457	 0.09866
H	 1.9708190993	 1.6728107097	-0.8717752565	 0.110149
H	 1.4476223865	 3.1493039862	-0.0667808267	 0.101677
H	 2.0798533781	 2.3440218673	 1.9543925345	 0.227962
H	-1.0442100175	-0.3729046958	 0.2665908956	 0.108527
H	 0.2193992973	-0.4263722007	-0.9543579633	 0.114761
H	 0.5247790494	-2.4823846278	 1.5304017973	 0.264668
H	 3.4094700498	-0.2150819688	 3.2241158055	 0.102997
111.2337	215.28	303.8748	324.2274	384.5236	448.6375	453.3741	510.5989	618.9478	676.6932	693.2261	702.7346	763.917	859.7721	870.3516	877.0389	941.635	961.5896	999.6107	1064.2214	1105.1542	1126.2383	1173.9658	1209.5552	1217.8792	1249.0519	1280.3611	1304.66	1358.0721	1365.8418	1381.4623	1399.6073	1446.8563	1460.5139	1479.0058	1483.2219	1494.5511	1545.1179	1635.8168	3004.3688	3011.8738	3032.568	3051.7443	3084.1231	3088.0155	3243.743	3531.7438	3673.2703
C1CNC2=C(C1)NN=C2	C1CNc2c(C1)[nH]nc2	
InChI=1S/C6H9N3/c1-2-5-6(7-3-1)4-8-9-5/h4,7H,1-3H2,(H,8,9)	InChI=1S/C6H9N3/c1-2-5-6(7-3-1)4-8-9-5/h4,7H,1-3H2,(H,8,9)
