17
gdb 14134	4.29344	1.62929	1.43245	1.8924	68.55	-0.2331	0.0251	0.2582	918.5626	0.142763	-363.865031	-363.85764	-363.856696	-363.896828	27.707	
C	 0.0141463685	 1.5605814292	-0.1684235588	-0.411139
C	 0.0066010935	 0.0580807105	-0.00023142	-0.066107
C	 1.2843694959	-0.760104694	-0.1334654634	-0.35634
C	 0.6209162586	-0.5997547432	 1.1972366636	 0.408855
C	 1.2104685784	 0.0961825403	 2.430051118	-0.259003
N	 0.7925261149	-0.7474452062	 3.5649894626	-0.265642
C	 0.1233245123	-1.695379762	 3.05639011	 0.109681
O	-0.0641840418	-1.7535223208	 1.7168679197	-0.246676
H	 0.9346612098	 2.0051326115	 0.2242171991	 0.119104
H	-0.0556717439	 1.8339276386	-1.2265420198	 0.124013
H	-0.8287429861	 2.0266337479	 0.3535533957	 0.12445
H	-0.8860661951	-0.4415411328	-0.3674242699	 0.101168
H	 1.2200872753	-1.7302741357	-0.6134554433	 0.125461
H	 2.2199856224	-0.2312985627	-0.293544035	 0.114864
H	 2.3040577711	 0.1593702989	 2.3970108119	 0.118913
H	 0.8284869458	 1.114618222	 2.5651828012	 0.119707
H	-0.3394520896	-2.5063858116	 3.6076274182	 0.13869
72.9475	172.8791	193.8541	215.8542	351.4697	417.8423	453.9967	525.811	537.6651	787.2515	800.6961	856.0284	887.2865	902.7229	936.9547	959.649	980.8808	1010.6293	1033.9174	1073.6689	1108.0007	1125.4581	1148.4174	1178.5448	1206.7115	1216.4377	1292.4791	1336.5843	1346.4978	1408.3002	1423.4455	1484.8674	1490.6767	1499.025	1507.5333	1707.0631	3028.3564	3032.0751	3060.1714	3094.3066	3096.8333	3121.6909	3147.3753	3215.951	3216.8515
CC1CC11CN=CO1	C[C@H]1C[C@]21CN=CO2	
InChI=1S/C6H9NO/c1-5-2-6(5)3-7-4-8-6/h4-5H,2-3H2,1H3	InChI=1S/C6H9NO/c1-5-2-6(5)3-7-4-8-6/h4-5H,2-3H2,1H3/t5-,6+/m0/s1
