19
gdb 89859	2.83779	1.16773	0.9694	1.9138	82.34	-0.2562	0.0189	0.2751	1277.7889	0.156808	-385.829086	-385.820091	-385.819147	-385.862935	34.271	
C	 0.7268517525	 1.3741106283	-0.0055558273	-0.392085
C	-0.0265389555	 0.0485587242	-0.002957071	 0.028437
C	 0.5683838301	-1.0346415534	-0.9638884593	-0.335837
C	 1.152646361	-1.7245729078	 0.2658933395	 0.479959
C	 0.3006669036	-0.8803241219	 1.2139409932	-0.334976
O	 1.3945330039	-3.1079902444	 0.393645124	-0.27959
C	 2.5307616105	-2.2182717755	 0.4697460878	-0.277546
C	 3.4823013564	-2.2639257448	-0.6054901811	 0.351961
C	 4.2903263307	-2.2746134089	-1.495948591	-0.432823
H	 1.8025499034	 1.2187415264	 0.1368716299	 0.118811
H	 0.5918106526	 1.902216638	-0.9555323692	 0.117373
H	 0.3757224337	 2.0310794715	 0.7975464205	 0.115433
H	-1.095186177	 0.2257711088	-0.1452298833	 0.074827
H	-0.1968084655	-1.6499021417	-1.4451879686	 0.114231
H	 1.2804984245	-0.6955930151	-1.7208877803	 0.114391
H	 0.8031551645	-0.4218904908	 2.0702531389	 0.10399
H	-0.5694773864	-1.4387278155	 1.5710221663	 0.115427
H	 2.9575238269	-2.1377744629	 1.4692957129	 0.115061
H	 5.00325723	-2.2960494246	-2.2829882523	 0.202958
55.9851	123.0968	132.6312	244.7186	277.1852	310.6807	326.6889	372.4351	393.0614	512.0171	555.281	586.2493	619.541	669.9824	782.8896	807.2779	827.6089	857.2012	884.9483	923.4549	954.576	1009.5426	1037.391	1046.708	1078.5383	1132.8109	1157.4102	1169.2336	1213.1559	1229.157	1262.0349	1280.5467	1336.9853	1364.3965	1412.8463	1458.6154	1463.3944	1491.1699	1497.541	1499.4138	2237.5751	3025.5861	3053.2161	3058.3737	3070.045	3095.7118	3096.4853	3108.0731	3111.1117	3113.8503	3502.1146
CC1CC2(C1)OC2C#C	C[C@H]1C[C@@]2(C1)O[C@H]2C#C	
InChI=1S/C8H10O/c1-3-7-8(9-7)4-6(2)5-8/h1,6-7H,4-5H2,2H3	InChI=1S/C8H10O/c1-3-7-8(9-7)4-6(2)5-8/h1,6-7H,4-5H2,2H3/t6-,7-,8-/m0/s1
