21
gdb 81957	2.36257	1.67368	1.38994	2.3738	76.82	-0.2515	0.0557	0.3072	1048.6308	0.183615	-424.218907	-424.210398	-424.209453	-424.251319	34.459	
C	-0.2021582234	 1.5537414745	-0.0130097321	-0.432718
C	 0.0800647482	 0.053659203	-0.0055986859	-0.004189
C	 0.9407384834	-0.4821852504	-1.1831097133	 0.096134
O	 2.0539796472	 0.3546202666	-1.4583052569	-0.440482
C	 1.2980583188	-1.9087545216	-0.7173710634	-0.046432
C	 2.5457737971	-2.0989725479	 0.0966812935	-0.287138
C	 1.2293025326	-1.9116079612	 0.8024895943	-0.033715
C	 0.8277503301	-0.4995626326	 1.233329363	 0.052783
O	 2.0077945042	 0.2714013398	 1.519952723	-0.436463
H	 0.7211180819	 2.1379983372	-0.0506891531	 0.118767
H	-0.7890653286	 1.8340565368	-0.8931892263	 0.123821
H	-0.7729270459	 1.8558164314	 0.8730797125	 0.105182
H	-0.8728956639	-0.4910815736	-0.0438436673	 0.075152
H	 0.370047758	-0.5147658435	-2.1155273963	 0.076488
H	 2.4819919476	 0.5316720643	-0.610419094	 0.28445
H	 0.9236063068	-2.743729054	-1.2985712082	 0.08011
H	 2.9700088891	-3.0972406055	 0.1190167588	 0.108803
H	 3.2831539261	-1.3075664117	 0.1359258025	 0.123482
H	 0.8081323882	-2.7433268063	 1.3546935599	 0.082085
H	 0.1869874289	-0.5262551506	 2.1240204456	 0.065156
H	 1.7225456435	 1.1393524654	 1.8241592637	 0.288724
122.1358	191.3125	192.3428	257.6218	258.8234	325.9817	351.5309	435.1305	477.9714	498.3634	531.1177	611.3283	678.3718	728.1309	769.99	808.2871	844.5134	884.0677	903.3576	941.9941	980.5396	998.9023	1018.0681	1040.973	1052.5263	1060.2135	1105.1365	1130.4147	1136.9265	1160.8028	1192.8687	1218.6342	1240.1813	1292.2913	1310.6726	1327.0344	1349.6825	1359.8078	1389.8039	1404.3198	1417.95	1458.8982	1494.6595	1497.0899	1506.8787	3011.651	3023.5667	3032.8461	3070.6049	3095.9412	3115.8364	3141.6815	3167.4968	3177.8254	3229.1563	3757.5702	3815.8454
CC1C(O)C2CC2C1O	C[C@H]1[C@@H](O)[C@H]2C[C@H]2[C@H]1O	
InChI=1S/C7H12O2/c1-3-6(8)4-2-5(4)7(3)9/h3-9H,2H2,1H3	InChI=1S/C7H12O2/c1-3-6(8)4-2-5(4)7(3)9/h3-9H,2H2,1H3/t3-,4-,5+,6+,7-
