15
gdb 79560	2.58369	1.74699	1.24738	6.3772	69.76	-0.2729	0.0142	0.2871	981.2714	0.113488	-416.746403	-416.738983	-416.738039	-416.778259	28.544	
O	-0.1256853946	 1.391378482	-0.042825156	-0.411857
C	-0.0766421174	 0.0037919158	 0.0419641661	 0.11729
C	-0.4641979071	-0.7630856065	 1.2835752755	-0.158665
C	-1.5756367673	-0.0622279023	 2.0309765351	-0.09338
N	-2.8388815041	-0.7857537469	 2.0036783622	-0.353365
C	-2.441831216	-0.0652032556	 0.7871875612	 0.205955
C	-3.3120384645	 0.9537348715	 0.2797594298	 0.264791
N	-4.0133128664	 1.7627056892	-0.1563477417	-0.350792
C	-1.3529149321	-0.7710032635	 0.0020626174	-0.19815
H	 0.6489277716	 1.7531370065	 0.4009433956	 0.293517
H	 0.7344724402	-0.4606278651	-0.523157479	 0.101305
H	 0.1378578296	-1.5739243819	 1.6783963487	 0.105604
H	-1.4729010663	 0.7402625731	 2.7501049307	 0.126809
H	-2.712729666	-1.7901496934	 1.8943363184	 0.23981
H	-1.5268394995	-1.576826173	-0.701503784	 0.111129
111.3157	153.6729	221.6494	277.141	300.1004	424.654	502.9596	530.478	581.1437	597.6475	703.4388	744.4193	793.5327	826.182	870.0641	945.5441	972.3921	999.6126	1002.0965	1046.5605	1077.7524	1094.3395	1119.326	1125.0584	1210.1802	1241.9122	1268.352	1279.661	1307.3964	1329.2069	1395.5465	1461.0563	2362.7117	3084.829	3174.9514	3186.9031	3205.7402	3477.4726	3808.3918
OC1C2C3NC3(C#N)C12	O[C@H]1[C@H]2[C@@H]3N[C@]3(C#N)[C@@H]12	
InChI=1S/C6H6N2O/c7-1-6-3-2(4(3)9)5(6)8-6/h2-5,8-9H	InChI=1S/C6H6N2O/c7-1-6-3-2(4(3)9)5(6)8-6/h2-5,8-9H/t2-,3+,4-,5-,6+/m0/s1
