15
gdb 30466	5.03791	1.06638	0.88492	0.9284	76.96	-0.2077	-0.0707	0.137	1249.6112	0.112143	-453.959215	-453.951015	-453.950071	-453.992346	29.901	
C	 0.1983232637	 1.4267627209	 0.1472749125	-0.324607
N	 0.1810008774	-0.0243658785	 0.1101025323	-0.314819
C	 0.4016896367	-0.600303223	-0.9992561457	 0.383518
O	 0.6554873757	 0.0997446689	-2.1621726994	-0.235946
C	 0.8864021781	-0.5774652295	-3.3283249711	-0.050359
C	 0.8705913135	-1.9214012736	-3.3632090936	 0.341745
O	 1.0965654649	-2.6115072383	-4.5064843684	-0.427531
N	 0.6227383228	-2.6801038559	-2.2343377162	-0.306644
C	 0.4042624939	-2.0526827866	-1.1319585896	-0.035089
H	 1.1704782537	 1.8323747517	-0.166130081	 0.124733
H	-0.5555984726	 1.8620301104	-0.5235335622	 0.12475
H	-0.006835736	 1.7627853386	 1.1657457932	 0.12298
H	 1.0725356609	 0.0734334391	-4.169633526	 0.146137
H	 1.0314043713	-3.5458560996	-4.2711005011	 0.30236
H	 0.2057342557	-2.6154336647	-0.2239881537	 0.148773
67.7069	104.7131	192.5224	209.7885	314.7929	379.4558	385.4654	398.1654	418.6781	586.5973	589.7329	619.1834	750.1993	795.0992	811.7239	819.1634	943.4077	964.0932	1047.1801	1102.3721	1144.8854	1175.5043	1217.1212	1242.4865	1317.9805	1363.924	1418.2932	1434.3735	1483.1093	1494.7794	1615.8052	1712.469	1733.1623	2995.932	3043.1831	3113.9738	3178.9418	3246.6594	3792.5749
CN=C1OC=C(O)N=C1	C[N]C1=C[N]C(=CO1)O	
InChI=1S/C5H6N2O2/c1-6-5-2-7-4(8)3-9-5/h2-3,8H,1H3	InChI=1S/C5H6N2O2/c1-6-5-2-7-4(8)3-9-5/h2-3,8H,1H3
