15
gdb 98043	5.70237	0.56571	0.51794	4.659	78.6	-0.2591	-0.0502	0.2089	2003.1965	0.107985	-420.559036	-420.548745	-420.547801	-420.597469	34.459	
O	 0.1176408314	 1.3875837114	 0.007895253	-0.394175
C	 0.0004893891	-0.0077269962	 0.0011713896	-0.175136
C	-1.4734961911	-0.3972928756	 0.0146779833	 0.233185
O	-2.3758469286	 0.4044995067	 0.0287344565	-0.25883
C	-1.6979111431	-1.8332463117	 0.0090926183	 0.014078
C	-1.8893497027	-3.0238138034	 0.0045419707	 0.115438
C	-2.1205825559	-4.4678371481	-0.0009634768	-0.50375
C	-3.535309059	-4.8404269741	 0.0093509971	 0.315784
C	-4.6921556862	-5.1585539339	 0.0177201643	-0.426804
H	 1.0533066515	 1.6088500114	-0.0018243097	 0.295168
H	 0.4525633479	-0.4775077406	-0.8899481883	 0.116186
H	 0.4714373632	-0.4875937204	 0.877021316	 0.116172
H	-1.6294931305	-4.9041234361	-0.8820516922	 0.172183
H	-1.6143796826	-4.9131475919	 0.8669613145	 0.172205
H	-5.7185157133	-5.4315457175	 0.0252280837	 0.208299
6.3291	55.859	77.6958	126.55	150.9732	211.854	267.8768	314.4059	321.7723	373.1109	407.9916	530.9559	576.1402	623.1924	635.1794	662.2808	779.1726	925.3045	926.5374	986.0618	1013.0331	1128.3209	1180.2821	1228.9593	1242.5136	1242.8255	1332.394	1440.4703	1441.8513	1488.6675	1790.2303	2251.9082	2341.6777	2952.7376	2975.649	3009.7185	3034.7207	3505.9955	3838.596
OCC(=O)C#CCC#C	OCC(=O)C#CCC#C	
InChI=1S/C7H6O2/c1-2-3-4-5-7(9)6-8/h1,8H,3,6H2	InChI=1S/C7H6O2/c1-2-3-4-5-7(9)6-8/h1,8H,3,6H2
