21
gdb 65737	3.62708	0.97396	0.93758	2.7766	83.42	-0.2449	-0.0207	0.2241	1334.6617	0.181338	-387.115749	-387.106538	-387.105594	-387.150202	34.581	
C	-0.095461673	 1.4894136702	 0.0667875812	-0.430802
C	 0.0464349346	-0.0387969206	-0.0510286375	 0.301365
C	-1.3416930367	-0.68501725	-0.2620312561	-0.331225
C	-2.0536857292	-0.2167544254	-1.5113557878	 0.160444
O	-3.1577695352	 0.2650233929	-1.535639751	-0.246416
C	 1.0660468624	-0.3810458368	-1.1872628379	-0.295258
C	 2.3672461033	-0.592165108	-0.4528021057	-0.063593
C	 2.1852457058	-0.7053555251	 0.8608266934	-0.059873
C	 0.7306651814	-0.5907240816	 1.2408756242	-0.296554
H	 0.8796299935	 1.95107925	 0.2512863921	 0.12203
H	-0.5073675119	 1.9276544648	-0.8486874734	 0.120506
H	-0.761807328	 1.7599020093	 0.8928593298	 0.118525
H	-1.2139286789	-1.7738157594	-0.3510346698	 0.113398
H	-1.9977724288	-0.4912409137	 0.5926727932	 0.116632
H	-1.4769547793	-0.3555544589	-2.4556135256	 0.073649
H	 0.7821874037	-1.2938496286	-1.731345321	 0.100371
H	 1.1240025018	 0.4151627021	-1.9390215623	 0.104285
H	 3.3196706109	-0.6693656975	-0.9654536979	 0.093687
H	 2.9664810505	-0.8887916316	 1.5901468782	 0.093742
H	 0.5600451679	 0.0683960533	 2.1007007429	 0.103231
H	 0.3263076251	-1.5728727456	 1.5248767708	 0.101856
52.2705	86.7572	109.1088	197.6564	270.2178	314.6356	321.8082	372.8205	396.0944	433.0459	481.0337	626.8646	697.4276	770.8333	772.654	831.9593	912.7076	927.1726	943.1455	956.8503	978.2398	984.2805	990.5429	1005.0577	1064.8528	1120.8332	1129.5864	1152.2345	1173.9873	1197.8431	1237.366	1292.5282	1305.0541	1313.3776	1340.0237	1368.1705	1410.5925	1436.1321	1460.7507	1482.527	1485.0578	1498.5204	1501.2041	1690.8222	1830.4566	2860.5949	2997.4007	3002.0341	3010.4809	3029.0866	3046.0546	3047.9089	3086.4621	3097.2605	3105.3168	3182.5251	3207.8973
CC1(CC=O)CC=CC1	C[C@@]1(CC=O)CC=CC1	
InChI=1S/C8H12O/c1-8(6-7-9)4-2-3-5-8/h2-3,7H,4-6H2,1H3	InChI=1S/C8H12O/c1-8(6-7-9)4-2-3-5-8/h2-3,7H,4-6H2,1H3
