14
gdb 43328	2.70902	1.8937	1.19671	6.0504	70.53	-0.2422	-0.0874	0.1548	965.8809	0.101899	-436.698304	-436.691267	-436.690322	-436.730066	26.575	
O	-0.0080804538	-0.0316254166	-0.4816164339	-0.294986
C	-0.0382238568	 1.131997934	-0.1582153507	 0.298522
C	-1.2854005749	 1.8613196909	 0.1592880888	-0.175698
C	-1.304352256	 3.1976901825	 0.2786803055	-0.055759
C	-0.0978464237	 4.0038589114	 0.0102604917	-0.074367
C	 1.0046382827	 4.2348968943	 1.014231611	-0.240297
N	 1.1703886786	 3.3145291119	-0.1048916529	-0.107085
C	 1.2568407757	 1.9301055751	 0.1204348505	 0.273215
O	 2.2439258114	 1.3972760674	 0.5547513964	-0.29647
H	-2.1772800459	 1.2547444727	 0.2820890946	 0.130847
H	-2.2298926286	 3.729778654	 0.484272677	 0.126554
H	-0.2425901299	 4.7971819539	-0.7241516842	 0.126824
H	 1.5766512548	 5.1567089425	 0.9685898415	 0.142376
H	 0.9005051163	 3.793540716	 2.0015816946	 0.146325
70.2081	188.584	259.5407	330.2944	367.9751	449.0778	470.9244	506.8939	592.2317	671.7048	749.3012	792.1099	868.0338	874.9579	931.2453	956.1016	1017.7716	1050.8896	1071.0147	1096.8993	1119.2779	1157.1298	1171.823	1232.2676	1351.4784	1384.1927	1425.3676	1507.1107	1666.8356	1796.3476	1815.3269	3100.6331	3117.4837	3162.607	3191.839	3213.0762
O=C1C=CC2CN2C1=O	O=C1C=C[C@H]2CN2C1=O	
InChI=1S/C6H5NO2/c8-5-2-1-4-3-7(4)6(5)9/h1-2,4H,3H2	InChI=1S/C6H5NO2/c8-5-2-1-4-3-7(4)6(5)9/h1-2,4H,3H2/t4-,7?/m0/s1
