20
gdb 99666	2.69349	1.16467	0.9592	3.7371	78.86	-0.2597	0.0347	0.2944	1316.5562	0.170523	-403.15148	-403.141894	-403.14095	-403.186725	33.978	
C	 0.0709477911	 1.5177925714	 0.1913735985	-0.401906
C	 0.0149690824	 0.0031546884	-0.0123217751	-0.175663
C	 0.6931389458	-0.4798967896	-1.3154951782	-0.163769
C	 2.1085271466	-0.0952235569	-1.3528323509	 0.295647
N	 3.2247764837	 0.2028010657	-1.3919736574	-0.34684
C	 0.5380100941	-2.0006487887	-1.4858244707	 0.146268
C	 1.3737506007	-2.7328503003	-2.5582765421	-0.317455
C	 1.9567829026	-3.5119642393	-1.3614090729	-0.057687
O	 1.1761639772	-2.7321241627	-0.4230404114	-0.28782
H	 1.1040352201	 1.8735242998	 0.2487807873	 0.144767
H	-0.4218514271	 2.0495708934	-0.6302045975	 0.115868
H	-0.4331799054	 1.7991850692	 1.1203045333	 0.121975
H	 0.4865965157	-0.5174155592	 0.8265623985	 0.138882
H	-1.0281465703	-0.3325575936	-0.047452808	 0.104048
H	 0.2030748926	 0.0013340643	-2.1740411547	 0.121259
H	-0.5387425534	-2.2186683661	-1.5252697963	 0.081749
H	 0.8008484768	-3.3184021054	-3.2778499403	 0.114407
H	 2.091645631	-2.1041228471	-3.08676708	 0.133923
H	 1.6930567303	-4.574956295	-1.3173977802	 0.106951
H	 3.0308697656	-3.3958633384	-1.1864355117	 0.125392
69.1112	72.0732	100.6043	144.7451	172.1736	194.6298	259.9859	325.0122	375.9972	416.7786	570.1061	669.2891	741.8104	772.7785	806.2016	852.7255	906.3535	939.3286	953.6843	983.8276	1025.5041	1052.819	1072.0134	1105.904	1130.8778	1147.3579	1170.4203	1220.1892	1247.7319	1266.8603	1278.1511	1304.0271	1334.0844	1361.9753	1366.8142	1397.4965	1417.6301	1489.3502	1490.2875	1499.3773	1506.6895	1528.8754	2353.7747	2999.5696	3017.2006	3031.83	3036.1149	3040.524	3082.2849	3087.8069	3088.3105	3109.4365	3117.4285	3145.1467
CCC(C#N)C1CCO1	CC[C@@H](C#N)[C@H]1CCO1	
InChI=1S/C7H11NO/c1-2-6(5-8)7-3-4-9-7/h6-7H,2-4H2,1H3	InChI=1S/C7H11NO/c1-2-6(5-8)7-3-4-9-7/h6-7H,2-4H2,1H3/t6-,7+/m0/s1
