18
gdb 114935	4.15529	0.86856	0.80623	4.7094	80.56	-0.2604	-0.0397	0.2207	1418.1247	0.148661	-401.978288	-401.969631	-401.968687	-402.012072	31.938	
O	 0.3479893364	 0.9956002529	-0.6958084996	-0.413507
C	 0.0037882004	-0.2984698625	-0.2321882756	-0.068125
C	-1.4749653991	-0.4288380566	 0.162899613	-0.030584
C	-2.4020407262	-0.0765787029	-1.0328428518	-0.266309
C	-2.8356831398	-1.4159875776	-1.5581715504	-0.1456
C	-2.518720884	-2.410621595	-0.7183252374	 0.214373
C	-1.8119869526	-1.9009318533	 0.5266213096	-0.33751
C	-2.8217845559	-3.785764048	-0.9108228168	 0.19504
N	-3.0523108651	-4.9145004416	-1.0350447814	-0.336245
H	 0.260197446	 1.6095888486	 0.0405743116	 0.28396
H	 0.2224370106	-0.9785666868	-1.0638330041	 0.119391
H	 0.6380985979	-0.6038634851	 0.6141843107	 0.094559
H	-1.6624524599	 0.2338800177	 1.0147504589	 0.069063
H	-3.2785541993	 0.5081074062	-0.7214117127	 0.117365
H	-1.8778039562	 0.5311296875	-1.7778491001	 0.136438
H	-3.364206211	-1.5489072017	-2.4947743334	 0.120945
H	-0.9178647689	-2.4886498204	 0.7645107973	 0.12184
H	-2.4730209334	-1.9747334014	 1.398201242	 0.124906
58.9697	122.2018	165.2431	174.0566	244.5979	318.8887	347.2669	377.1195	454.8847	556.1871	570.8336	573.6825	733.7481	814.1374	857.3936	880.2205	902.7312	936.4866	982.8509	1009.2349	1052.7668	1081.5326	1098.3564	1150.9142	1160.4664	1186.2138	1247.0303	1269.5324	1284.4189	1325.1433	1335.6569	1366.305	1392.6615	1416.9565	1482.0949	1492.9424	1503.9266	1678.3054	2336.693	2986.4369	3014.8672	3031.6873	3045.2014	3065.9653	3070.4656	3074.9565	3210.1458	3812.338
OCC1CC=C(C1)C#N	OC[C@H]1CC=C(C1)C#N	
InChI=1S/C7H9NO/c8-4-6-1-2-7(3-6)5-9/h1,7,9H,2-3,5H2	InChI=1S/C7H9NO/c8-4-6-1-2-7(3-6)5-9/h1,7,9H,2-3,5H2/t7-/m0/s1
