22
gdb 120442	3.4319	0.85149	0.81479	2.6407	79.83	-0.2178	0.0676	0.2854	1522.2402	0.192227	-441.452883	-441.442657	-441.441712	-441.488621	37.947	
C	-0.120853454	 1.5479396853	-0.0147093496	-0.451133
C	-0.1012460927	 0.0272845515	-0.0754477598	 0.394446
O	-1.3640014043	-0.5060937085	-0.4085421399	-0.470934
C	 1.1295588125	-0.5599003834	-0.8307840504	-0.223219
N	 1.8004792038	-0.7465561452	 0.4721844161	-0.094978
C	 2.6182348843	-1.935143367	 0.6465445528	-0.139475
C	 3.4809698496	-1.8654025152	 1.9044906413	-0.067447
O	 2.7176823549	-1.789786216	 3.1004348851	-0.416016
C	 0.49848513	-0.6549187588	 1.1738544204	-0.211543
H	 0.8556707575	 1.9325226976	 0.2925702057	 0.133421
H	-0.3538311109	 1.9741179805	-0.9990474807	 0.106382
H	-0.8767993993	 1.8933605828	 0.6977391224	 0.12341
H	-1.7316430245	 0.0146095175	-1.1305835105	 0.276233
H	 0.8530575598	-1.5054860374	-1.321784331	 0.090558
H	 1.6689743952	 0.0797917492	-1.5394170468	 0.090646
H	 2.0023886453	-2.8539622279	 0.6754686215	 0.084695
H	 3.2852439561	-2.0158616576	-0.221761046	 0.097115
H	 4.0805509104	-2.7790898796	 1.982971548	 0.104113
H	 4.1723853348	-1.0141348383	 1.8220508801	 0.091081
H	 2.3557213004	-0.9005228237	 3.1534060396	 0.289953
H	 0.4992632931	-0.0823357442	 2.1087727999	 0.084993
H	 0.0248696881	-1.6316703616	 1.3486837919	 0.107698
33.3568	81.1823	109.8011	222.9019	249.5737	269.0952	287.0501	303.8106	324.3632	345.446	397.0351	440.679	454.7182	509.0504	615.8393	741.7481	874.7493	887.0395	904.3652	928.7324	960.8586	982.6479	991.3604	1054.0942	1070.8533	1118.0258	1121.2114	1134.0836	1159.4092	1171.2047	1212.0061	1242.3092	1267.223	1283.5053	1311.6622	1328.4074	1392.7826	1398.9343	1403.5395	1406.8678	1417.287	1473.1822	1489.5046	1491.6966	1492.9616	1499.7424	1522.6774	2927.8506	2983.1513	2998.5304	3000.5908	3021.8452	3044.0693	3049.7157	3050.5419	3072.215	3090.309	3119.2218	3805.6155	3835.7832
CC1(O)CN(CCO)C1	CC1(O)CN(CCO)C1	
InChI=1S/C6H13NO2/c1-6(9)4-7(5-6)2-3-8/h8-9H,2-5H2,1H3	InChI=1S/C6H13NO2/c1-6(9)4-7(5-6)2-3-8/h8-9H,2-5H2,1H3
