19
gdb 37412	3.51913	1.79604	1.65616	1.8859	76.29	-0.2537	0.0919	0.3456	882.6173	0.16391	-385.864132	-385.858322	-385.857378	-385.893892	26.04	
C	-0.0390770619	 1.5615584153	 0.0512205656	-0.242858
C	 1.5058403086	 1.4163474324	-0.0004132601	-0.042771
C	 1.7665018525	 0.7951477513	 1.3889790402	-0.221077
C	 0.824838068	-0.4492092349	 1.2446230354	-0.076741
C	 1.7459894515	-1.5299181381	 0.6810323545	 0.053448
O	 1.2665875993	-2.2550889695	-0.4530947339	-0.264068
C	 2.086307811	-1.0859820679	-0.675741259	 0.012188
C	 1.2500902957	 0.1485506887	-0.9218787733	-0.036738
C	 0.001207139	 0.0173002559	 0.0024071707	-0.015774
H	-0.4747145328	 2.0570303204	 0.9238796465	 0.08781
H	-0.4614532084	 1.9821703836	-0.8649307172	 0.096878
H	 2.1540013763	 2.2328657278	-0.3188196878	 0.061029
H	 2.8077056382	 0.5095846723	 1.5659096786	 0.092509
H	 1.4609797649	 1.4749209036	 2.1892554	 0.096501
H	 0.2563861078	-0.7178402263	 2.1353607498	 0.064644
H	 2.4403915929	-2.0618814457	 1.3264527832	 0.093874
H	 3.0460015116	-1.2687723012	-1.1495875539	 0.092742
H	 1.040410123	 0.4083560761	-1.96007649	 0.072541
H	-0.8558160673	-0.5897776439	-0.2779048393	 0.075864
288.815	324.9038	379.7523	477.2713	496.0071	612.5136	720.7234	756.0852	798.0552	830.0325	834.2211	863.3222	876.8646	887.993	902.1164	944.6414	953.6314	966.8991	986.6682	1004.49	1011.7949	1035.5728	1069.3115	1093.6844	1095.6807	1113.344	1160.1443	1182.4526	1198.032	1225.7195	1241.8123	1258.6894	1271.9913	1280.9386	1303.3139	1312.7249	1329.4922	1338.8973	1421.668	1494.3914	1514.6301	3049.4046	3052.5951	3092.2027	3105.4174	3106.7353	3108.9478	3116.4236	3144.9012	3149.1419	3163.2692
C1C2CC3C4OC4C2C13	C1[C@H]2C[C@@H]3[C@H]4O[C@H]4[C@H]2[C@H]13	
InChI=1S/C8H10O/c1-3-2-5-4(1)6(3)8-7(5)9-8/h3-8H,1-2H2	InChI=1S/C8H10O/c1-3-2-5-4(1)6(3)8-7(5)9-8/h3-8H,1-2H2/t3-,4+,5-,6+,7+,8-/m0/s1
