15
gdb 51041	2.29983	1.33919	0.98528	3.3481	68.32	-0.2722	-0.0092	0.263	1183.3077	0.109325	-457.713234	-457.704315	-457.703371	-457.748027	30.965	
O	-0.0277038344	-0.0266955582	-0.0064831089	-0.263831
C	-0.0296134799	 1.1657009544	 0.0206599794	 0.162364
O	 1.1116921391	 1.8854518568	-0.0990674129	-0.225958
C	 1.0133264858	 3.3151469378	-0.0063894305	 0.140977
C	 0.9054658987	 3.8625845412	 1.4484093599	-0.106795
O	 2.2244701599	 4.4243771271	 1.3829841642	-0.260944
C	 2.4357986826	 3.927365076	 0.0502358047	-0.105319
C	 0.0999509021	 3.8721658568	-0.9876881052	 0.311012
C	-0.6504192964	 4.3476432972	-1.7969633909	-0.463613
H	-0.9319082534	 1.7914525181	 0.1370959443	 0.09739
H	 0.1329435533	 4.6217564662	 1.6075047123	 0.121983
H	 0.8207705843	 3.0707917324	 2.2021133316	 0.120476
H	 3.2209099473	 3.1657963131	-0.0003038638	 0.131936
H	 2.6292102619	 4.727459742	-0.6702671181	 0.124031
H	-1.312644011	 4.764474099	-2.5162126562	 0.216289
51.0282	77.9205	114.1114	160.5525	179.0121	226.3163	378.4557	398.9945	502.7221	520.0819	548.8346	647.0636	683.5332	748.0483	849.2887	935.2527	959.0556	986.1249	1042.5548	1053.5601	1064.4398	1137.5798	1148.6201	1161.0431	1172.2571	1260.6856	1308.038	1374.9005	1432.7316	1496.2857	1521.5942	1868.6352	2237.0571	2987.7044	3025.9906	3043.4613	3086.9955	3101.7531	3495.9752
O=COC1(COC1)C#C	O=COC1(COC1)C#C	
InChI=1S/C6H6O3/c1-2-6(9-5-7)3-8-4-6/h1,5H,3-4H2	InChI=1S/C6H6O3/c1-2-6(9-5-7)3-8-4-6/h1,5H,3-4H2
