13
gdb 132815	2.43364	1.82013	1.04132	1.5016	64.15	-0.2256	-0.0124	0.2132	1021.875	0.089833	-497.913627	-497.906449	-497.905504	-497.945087	27.781	
O	 0.1684150513	 1.3204002161	 0.1654725172	-0.443813
C	 0.1101608948	-0.0336687151	 0.0628402936	 0.335068
N	 0.0786196357	-0.5877258428	-1.1324973994	-0.360982
C	 0.0214946532	-1.9268107954	-1.1937161214	-0.017252
C	-0.005076351	-2.7353870004	-0.0692406207	-0.26097
C	 0.0296729631	-2.1175807429	 1.1782899421	 0.246914
F	 0.0065090347	-2.8446199326	 2.2908888662	-0.058372
C	 0.0887872659	-0.7349980404	 1.2783509823	 0.14277
O	 0.1230961659	-0.1141969729	 2.4825522669	-0.437881
H	 0.1773606969	 1.6642524237	-0.7377479463	 0.305763
H	-0.0037534925	-2.3615651084	-2.1876423037	 0.118217
H	-0.0512241345	-3.8147934142	-0.1354580413	 0.116097
H	 0.1638385565	 0.8360632252	 2.3157979644	 0.314441
148.1726	257.4106	280.0181	308.4435	323.12	403.5806	472.8991	497.5259	540.3146	573.7295	575.6786	630.9264	725.0812	770.1851	826.9584	858.5413	948.257	1032.0831	1085.7866	1180.9017	1272.9139	1301.3915	1333.7434	1341.5222	1405.4863	1496.2248	1549.8067	1648.2742	1667.4304	3180.9346	3220.1582	3783.6335	3791.0967
OC1=NC=CC(F)=C1O	Oc1nccc(F)c1O	
InChI=1S/C5H4FNO2/c6-3-1-2-7-5(9)4(3)8/h1-2,8H,(H,7,9)	InChI=1S/C5H4FNO2/c6-3-1-2-7-5(9)4(3)8/h1-2,8H,(H,7,9)
