17
gdb 40331	4.62854	1.3116	1.25936	1.124	74.79	-0.2115	0.0615	0.273	1027.0247	0.136971	-380.710805	-380.703893	-380.702949	-380.742499	27.388	
C	 1.0352086266	 1.1265250839	 0.1277403417	-0.228273
N	 0.5444508818	 0.0473981873	-0.7446889486	-0.313192
C	-0.2997433852	 0.5170342878	 0.3708155214	-0.214887
C	-0.5157970663	-0.4714810763	 1.4410308399	 0.475364
C	-1.2072359861	-1.8148001679	 1.4802297343	-0.175071
C	-1.6039408104	-1.4949877537	 2.9419492099	-0.054286
C	-0.1759074392	-1.3631907954	 3.3282670886	-0.054672
C	 0.2717007737	-1.6780230915	 1.8789563231	-0.165951
N	-0.9405920155	-0.1428800143	 2.8808965841	-0.226039
H	 1.8702418563	 0.8502548618	 0.7641969994	 0.122652
H	 1.0674250571	 2.1407228507	-0.2606663005	 0.114616
H	 0.2010299119	 0.4350956026	-1.619058624	 0.236033
H	-1.1661104218	 1.1308523614	 0.1284453339	 0.090362
H	-1.6454127581	-2.4083133223	 0.6910412766	 0.097867
H	-2.4980769426	-1.6707957207	 3.5281040114	 0.095208
H	 0.3206869899	-1.4109368068	 4.2902533012	 0.094856
H	 1.1399447678	-2.1436293666	 1.4368560175	 0.105413
72.1975	155.5647	166.7921	356.7258	432.9907	594.3013	674.4595	762.9484	775.9353	792.3317	833.8993	848.6778	864.1048	867.3358	891.3352	895.7759	910.5354	949.4823	962.5048	973.5338	990.6809	1013.4813	1043.615	1069.4176	1103.2584	1119.0055	1155.6976	1162.137	1189.1708	1219.6372	1243.0813	1270.5576	1285.8719	1320.1744	1395.0171	1492.4188	1512.0273	3112.7291	3117.1833	3172.1951	3186.5834	3203.7249	3220.9053	3232.7513	3510.3782
C1NC1C12C3C4C(C13)N24	C1N[C@H]1[C@@]12[C@@H]3[C@H]4[C@@H]([C@H]13)N24	
InChI=1S/C7H8N2/c1-2(8-1)7-3-4(7)6-5(3)9(6)7/h2-6,8H,1H2	InChI=1S/C7H8N2/c1-2(8-1)7-3-4(7)6-5(3)9(6)7/h2-6,8H,1H2/t2-,3-,4+,5-,6+,7+,9?/m1/s1
