21
gdb 41024	3.17504	1.75471	1.48063	0.2137	87.58	-0.2246	0.0793	0.3039	977.6686	0.184638	-349.828895	-349.822039	-349.821095	-349.859573	29.866	
C	 0.0519975942	 1.5553824132	 0.2785272895	-0.215503
C	 1.5395157854	 1.5636587015	-0.1870284688	-0.325588
C	 1.3860252623	 0.1252010654	-0.7122218586	 0.356077
C	-0.1004642326	 0.0595808525	-0.0712274644	-0.10947
C	 0.4728162967	-0.8898725705	 1.0661099715	-0.357192
C	 1.7099917216	-1.0839546695	 0.1651538157	 0.286951
C	 3.2139845685	-0.9288295974	-0.2218081172	-0.320186
C	 2.3623522725	-0.7360501371	-1.5635495596	-0.161399
C	 1.5411641628	-1.9606320637	-1.116232003	-0.23765
H	-0.1356129534	 1.8185932168	 1.3236197741	 0.094412
H	-0.5753854202	 2.1896042674	-0.3534822576	 0.100126
H	 1.7398499101	 2.2998308133	-0.9709051999	 0.100832
H	 2.2851663749	 1.7113037575	 0.6028457399	 0.093594
H	-1.0208568835	-0.2627088267	-0.5600727063	 0.066024
H	 0.6456506642	-0.3460564085	 1.9996298391	 0.10253
H	-0.0925242839	-1.7984404467	 1.2902729666	 0.100163
H	 3.7310618169	-0.0464472836	 0.1604432843	 0.09918
H	 3.8625995054	-1.810820852	-0.1911584221	 0.090183
H	 2.7779516348	-0.5431659199	-2.5576346334	 0.062951
H	 2.0529363994	-2.9270693531	-1.1066566862	 0.083068
H	 0.531114444	-2.0449697791	-1.5239316637	 0.090899
160.3354	246.4417	311.925	360.8806	439.3496	466.8082	539.593	575.8471	677.1111	741.0597	751.2725	780.1238	811.5392	842.9695	867.3545	916.8124	934.7137	946.1209	960.6576	970.5935	996.024	1017.2873	1051.0681	1057.9702	1093.6847	1107.4892	1113.6577	1147.263	1151.0129	1167.8625	1191.92	1198.9669	1220.8144	1229.3963	1238.0262	1247.8624	1269.4609	1270.2009	1295.1495	1303.0543	1475.2508	1479.0696	1493.7469	1498.5697	1530.1045	3031.1859	3041.334	3047.1153	3048.9477	3051.0259	3062.244	3077.3572	3092.8619	3101.0976	3108.7889	3117.3004	3121.0376
C1CC23C1CC21CC3C1	C1C[C@]23[C@H]1C[C@@]12C[C@H]3C1	
InChI=1S/C9H12/c1-2-9-6(1)3-8(9)4-7(9)5-8/h6-7H,1-5H2	InChI=1S/C9H12/c1-2-9-6(1)3-8(9)4-7(9)5-8/h6-7H,1-5H2/t6-,7-,8+,9-/m1/s1
