18
gdb 71172	2.56084	1.64578	1.33479	4.3159	79.18	-0.2676	0.0254	0.2931	1020.0613	0.148472	-364.7855	-364.777839	-364.776895	-364.817411	30.268	
C	 0.0009873864	 1.5614174493	 0.0309001552	-0.512633
C	 0.0441443447	 0.0588576787	 0.0823218424	 0.312149
C	-1.2493985304	-0.7972070445	 0.2184101219	-0.284079
C	-0.3597597673	-1.8659428994	 0.8450330717	-0.055495
C	 0.981106765	-1.8420949396	 0.1009036579	-0.073836
C	 0.7000676452	-0.8556090476	 1.2068927976	-0.151026
C	 0.9048224711	-0.7439502915	-0.9617561533	-0.181344
C	 0.336555383	-1.0241399844	-2.2770236457	 0.267306
N	-0.1279915498	-1.2413770001	-3.3137326866	-0.340114
H	 1.0071666652	 1.9941586395	 0.0423682159	 0.121383
H	-0.5009543742	 1.9017478408	-0.8822269667	 0.137012
H	-0.5496392508	 1.9666858728	 0.8861419958	 0.12539
H	-1.9239318158	-0.3597701081	 0.9598508181	 0.103339
H	-1.8030727923	-1.0285144593	-0.6974706025	 0.118994
H	-0.6558448173	-2.7428259266	 1.4053653836	 0.094792
H	 1.6556322837	-2.6872817516	 0.1122326087	 0.102445
H	 1.2273207713	-0.6345901565	 2.1229935825	 0.099293
H	 1.881279502	-0.266139982	-1.0858193966	 0.116421
122.7519	144.6906	214.2633	272.3769	295.5631	399.2831	423.1405	544.9116	553.9344	620.0832	733.9032	764.2828	799.1778	813.8147	820.9558	919.6247	932.9096	945.5868	976.3111	996.4657	1010.2718	1031.477	1044.0861	1079.2403	1123.5117	1141.372	1150.3948	1175.1219	1206.7991	1244.9959	1295.8871	1314.746	1362.1666	1365.9716	1417.1556	1487.7	1493.194	1502.0704	2347.4811	3026.9836	3046.4518	3069.7261	3093.7641	3098.7509	3103.7342	3202.5714	3210.756	3231.192
CC12CC3C(C13)C2C#N	C[C@]12C[C@H]3[C@H]([C@@H]13)[C@H]2C#N	
InChI=1S/C8H9N/c1-8-2-4-6(7(4)8)5(8)3-9/h4-7H,2H2,1H3	InChI=1S/C8H9N/c1-8-2-4-6(7(4)8)5(8)3-9/h4-7H,2H2,1H3/t4-,5+,6-,7-,8+/m0/s1
