22
gdb 117222	3.71517	0.80281	0.72114	3.0052	84.66	-0.2402	0.016	0.2562	1681.3104	0.191994	-404.36353	-404.352974	-404.35203	-404.40042	37.36	
C	-0.0763491211	 1.4488240349	-0.1633687405	-0.387194
C	-0.0472763621	-0.080600284	-0.1178299159	-0.153626
C	-1.4401863311	-0.6908095005	 0.0455425107	-0.288468
C	-1.4284851044	-2.2142513868	 0.0463923239	 0.37701
O	-0.4679201816	-2.8777054792	-0.2845715208	-0.353046
N	-2.5870180944	-2.7967517896	 0.5451499511	-0.082915
C	-3.954513835	-2.5955587297	 0.1155690392	-0.262351
C	-3.2845325943	-3.9414009641	 0.0069972481	 0.018964
C	-2.9121606642	-4.5165522079	-1.3393815262	-0.401329
H	 0.9315889727	 1.8594749431	-0.2768723474	 0.114819
H	-0.6793062057	 1.8124034947	-1.0034956859	 0.110367
H	-0.5044497475	 1.8684848873	 0.7540837518	 0.111962
H	 0.4095420263	-0.4817333037	-1.0277071398	 0.1163
H	 0.5892014448	-0.420099107	 0.7069454467	 0.109601
H	-1.9238556782	-0.3419799585	 0.9660143343	 0.119562
H	-2.0964704115	-0.359549874	-0.7727901874	 0.114193
H	-4.683303239	-2.3998030546	 0.8984541059	 0.122758
H	-4.1240070812	-2.0526126097	-0.8126600327	 0.122164
H	-3.5483026508	-4.6811489529	 0.7619981749	 0.100862
H	-2.7662234877	-3.7287112706	-2.0839172387	 0.12048
H	-1.9804172236	-5.0835989824	-1.27261561	 0.151717
H	-3.7052706306	-5.1829131446	-1.693435111	 0.118169
32.3617	57.5861	103.268	121.3698	161.4879	193.4335	241.2075	248.9316	333.5547	371.3372	388.4747	452.7045	579.7159	625.1629	747.3434	779.4005	832.8436	885.1819	887.7773	909.6175	938.2383	1042.0835	1051.2747	1062.2267	1099.2096	1111.2971	1123.0466	1137.8111	1160.5131	1177.3371	1191.6698	1249.072	1306.0264	1322.8707	1375.7161	1397.8843	1411.8091	1413.0012	1438.3396	1458.4794	1484.1141	1488.1433	1490.8093	1499.3962	1508.4608	1513.5489	1777.1162	3009.161	3026.9131	3043.1413	3049.4415	3055.09	3077.7873	3094.2213	3101.267	3103.7745	3104.2024	3119.4263	3128.2763	3180.8102
CCCC(=O)N1CC1C	CCCC(=O)N1C[C@H]1C	
InChI=1S/C7H13NO/c1-3-4-7(9)8-5-6(8)2/h6H,3-5H2,1-2H3	InChI=1S/C7H13NO/c1-3-4-7(9)8-5-6(8)2/h6H,3-5H2,1-2H3/t6-,8?/m1/s1
