14
gdb 20230	4.68875	2.7837	2.42733	3.8489	64.38	-0.2074	-0.052	0.1555	611.9619	0.108708	-341.434396	-341.429348	-341.428403	-341.463059	21.587	
C	-0.017486886	 1.635876429	-0.0992636667	-0.182363
N	 1.2861328306	 1.9705964503	 0.5687872622	-0.218475
C	 1.9007570275	 0.8655160556	 0.4344190405	 0.213536
C	 1.4270445486	-0.2445762486	-0.5391615518	-0.14904
C	 1.7399998728	-1.2161226493	 0.6203843255	-0.045761
C	 0.5919918213	-0.5953130826	 1.3368810465	-0.034272
C	 0.0073398281	 0.0660666075	 0.0176805661	-0.061343
N	 2.0688879207	-0.0930838222	 1.5284219375	-0.165456
H	-0.8033981552	 2.1409132573	 0.4704291631	 0.126076
H	-0.1202146315	 1.9332570495	-1.1540180046	 0.11187
H	 1.6666214723	-0.3121565377	-1.5955927412	 0.094615
H	 2.1965394725	-2.193635928	 0.6825650672	 0.110019
H	 0.0773277532	-0.8802944627	 2.2450402413	 0.115831
H	-0.8486917448	-0.492386348	-0.3711293557	 0.084763
308.0521	428.8224	524.8267	574.1108	637.0959	651.2909	747.925	805.0258	818.8463	828.2308	881.7723	891.2474	911.4312	931.9241	960.2966	999.0474	1008.3222	1024.95	1046.2029	1094.7678	1138.9724	1161.7891	1184.8324	1195.2372	1249.6536	1257.4699	1285.5365	1311.5044	1479.8248	1618.2279	2990.6243	3080.3641	3085.0241	3171.3023	3207.0655	3225.7625
C1N=C2C3C4C(C13)N24	C1[N][C]2[C@H]3[C@@H]4[C@H]([C@@H]13)N24	
InChI=1S/C6H6N2/c1-2-3-5-4(2)8(5)6(3)7-1/h2-5H,1H2	InChI=1S/C6H6N2/c1-2-3-5-4(2)8(5)6(3)7-1/h2-5H,1H2/t2-,3+,4-,5+,8?/m0/s1
