25
gdb 117981	2.68542	0.85473	0.7792	0.1576	85.32	-0.2458	0.0663	0.3121	1658.5449	0.224935	-426.639051	-426.627149	-426.626205	-426.675773	44.054	
C	 0.103867802	 1.5626141901	-0.0568772874	-0.382711
C	 0.0380951222	 0.0333975478	-0.0596782143	-0.167128
C	-1.3935971212	-0.5052668278	 0.0407571535	-0.198152
C	-1.4557432689	-2.0335198366	 0.113834098	 0.098945
O	-0.8344064863	-2.5320316489	 1.2991302641	-0.437221
C	-2.8841559293	-2.6261734796	-0.0738581149	 0.328913
C	-2.8080674346	-4.1571679617	-0.0837600828	-0.42302
C	-3.8618179762	-2.1406598733	 0.9984665839	-0.41063
O	-3.4182806181	-2.1534524654	-1.3175953084	-0.457045
H	 1.1358998454	 1.9180505748	-0.1382956314	 0.111009
H	-0.4620114772	 1.9863336374	-0.8941990478	 0.113575
H	-0.3177552435	 1.9764655481	 0.8662814186	 0.110599
H	 0.5024360473	-0.3519743539	-0.9772402408	 0.092011
H	 0.6301589559	-0.3691822891	 0.7701645951	 0.104364
H	-1.8778798313	-0.0822343511	 0.9338031616	 0.080629
H	-1.9895366698	-0.1740251858	-0.815970938	 0.113467
H	-0.8436797245	-2.4429547534	-0.7038797919	 0.066984
H	-1.1913621889	-2.0375184154	 2.0447302247	 0.279825
H	-2.3851746752	-4.5330530803	 0.8502292314	 0.132592
H	-3.8033851183	-4.5860694172	-0.2304784025	 0.114298
H	-2.1609392071	-4.5044864492	-0.899284431	 0.098647
H	-4.0029067735	-1.0586065591	 0.9415919346	 0.1253
H	-4.8367651483	-2.6138192782	 0.8547967214	 0.123222
H	-3.5039802679	-2.4009436135	 1.9990932719	 0.10585
H	-2.9250337227	-2.5772044087	-2.0286425576	 0.275679
65.2304	92.5501	93.3255	143.4211	209.6005	235.8188	250.9993	266.1202	281.7752	298.2946	302.1882	306.3342	350.9229	368.6186	422.0419	491.8482	529.9618	559.0366	750.267	773.5388	854.4773	903.6258	907.322	932.5102	962.6397	1000.0285	1007.861	1049.6875	1084.3311	1099.2901	1114.6255	1149.6277	1210.1358	1239.1778	1241.2115	1277.196	1301.266	1334.0566	1345.4644	1374.7664	1394.7051	1403.2346	1411.8315	1413.4286	1423.875	1481.2555	1483.8928	1487.594	1495.4196	1500.0123	1501.758	1508.398	1512.4069	2989.9085	3001.9599	3021.8281	3025.964	3027.6427	3048.0566	3056.9135	3082.2846	3095.7322	3096.5734	3100.5968	3117.8889	3126.6652	3136.4809	3801.2103	3806.3155
CCCC(O)C(C)(C)O	CCC[C@@H](O)C(C)(C)O	
InChI=1S/C7H16O2/c1-4-5-6(8)7(2,3)9/h6,8-9H,4-5H2,1-3H3	InChI=1S/C7H16O2/c1-4-5-6(8)7(2,3)9/h6,8-9H,4-5H2,1-3H3/t6-/m1/s1
