17
gdb 87378	2.15453	1.55847	1.12262	4.7744	69.27	-0.2649	0.0095	0.2744	1121.6341	0.134362	-458.973671	-458.96491	-458.963966	-459.00717	32.201	
C	-0.268974728	 1.506337168	 0.0302215565	-0.407783
C	 0.1051524538	 0.043429866	-0.018858878	 0.087789
O	 1.3721056151	-0.1797535248	-0.7544877023	-0.278746
C	 1.9728398233	-0.7509312646	 0.34226821	 0.431608
O	 3.0788902421	-1.1812409468	 0.4371964833	-0.349181
C	 0.7549709652	-0.5985530706	 1.2015111248	 0.089585
C	 0.6645871956	-0.2732445065	 2.6722625016	-0.38596
C	 0.1811446578	-1.5997326978	 2.1569718778	 0.039188
O	-1.1880466832	-1.8218417051	 2.009041419	-0.418624
H	 0.5312739134	 2.1010067279	 0.4796813775	 0.130384
H	-0.4623950513	 1.8847100364	-0.9775783136	 0.137307
H	-1.1800150767	 1.6376382561	 0.6232732808	 0.128808
H	-0.6806746593	-0.5666856598	-0.470833981	 0.114712
H	 1.5932736164	-0.2344587821	 3.2316748995	 0.140555
H	-0.091516146	 0.4497307064	 2.9606961932	 0.128185
H	 0.7866168605	-2.4814351129	 2.3647564687	 0.11538
H	-1.5566587787	-2.0184494699	 2.8769803422	 0.296793
101.6325	123.5683	155.8578	177.6763	226.9919	270.0379	297.8696	392.4373	422.7635	517.2562	582.3855	620.8839	715.7771	746.743	844.6589	853.6043	869.1845	934.6092	1004.9626	1038.1707	1046.1722	1080.1923	1099.722	1122.0578	1139.9344	1176.671	1217.793	1277.9318	1297.9041	1359.4215	1387.2508	1411.1352	1424.0435	1482.9551	1488.5382	1496.7843	1930.509	3041.5382	3085.6432	3113.1502	3114.3388	3125.743	3130.0226	3224.9805	3806.394
CC1OC(=O)C11CC1O	C[C@H]1OC(=O)[C@]21C[C@H]2O	
InChI=1S/C6H8O3/c1-3-6(2-4(6)7)5(8)9-3/h3-4,7H,2H2,1H3	InChI=1S/C6H8O3/c1-3-6(2-4(6)7)5(8)9-3/h3-4,7H,2H2,1H3/t3-,4-,6+/m1/s1
