19
gdb 104829	1.85845	1.57756	1.33981	3.1212	71.11	-0.2604	-0.0019	0.2586	1120.7065	0.15733	-460.178539	-460.168947	-460.168003	-460.213055	34.227	
C	 0.060723309	 1.6062224009	-0.0313106758	-0.392155
C	 0.0935631867	 0.0757369684	 0.0032630362	-0.233536
C	 0.7406940455	-0.5397309471	-1.2392826272	 0.235095
C	 0.4496345623	-2.056051888	-1.4326977699	-0.141736
O	-0.4395995362	-1.7503775839	-2.5525056828	-0.239854
C	-0.1435950488	-0.4104488075	-2.5140624012	 0.400038
O	-0.5118177741	 0.4381646277	-3.2613052964	-0.334573
O	 2.0593215391	-0.0863663328	-1.296862423	-0.284332
C	 2.7592323642	-0.3079273746	-2.5115092957	-0.270204
H	 1.0732641713	 2.0114512677	-0.0884866248	 0.135143
H	-0.4982509865	 1.9669649309	-0.8994374388	 0.142345
H	-0.4171995974	 1.9981905775	 0.8709513783	 0.113214
H	 0.6621004568	-0.275441909	 0.8730416144	 0.111989
H	-0.9215329161	-0.3263211169	 0.1008379203	 0.110263
H	 1.2944442344	-2.6633565295	-1.7618303896	 0.126134
H	-0.0931968306	-2.5530969981	-0.6267893436	 0.125654
H	 2.8990157016	-1.377156219	-2.721996729	 0.114599
H	 2.2477455696	 0.1595605515	-3.3616272665	 0.143672
H	 3.741587059	 0.1515457619	-2.387830415	 0.138246
103.6448	106.2817	118.5014	148.1326	191.8734	202.6343	273.4365	283.4305	337.5751	389.698	486.6789	556.1168	691.9399	730.0085	773.959	798.903	894.4711	934.6658	966.1216	1003.8628	1017.4591	1099.7753	1119.2733	1142.1687	1153.885	1180.0925	1188.0508	1234.7429	1247.3282	1306.9585	1357.4049	1370.3737	1411.6634	1475.7303	1484.0761	1492.2635	1496.4087	1505.6077	1511.6712	1518.6999	1924.058	3004.6532	3031.3019	3050.4189	3068.9113	3071.4438	3078.2598	3119.4057	3131.4521	3135.1103	3139.4079
CCC1(COC1=O)OC	CC[C@]1(COC1=O)OC	
InChI=1S/C6H10O3/c1-3-6(8-2)4-9-5(6)7/h3-4H2,1-2H3	InChI=1S/C6H10O3/c1-3-6(8-2)4-9-5(6)7/h3-4H2,1-2H3/t6-/m1/s1
