23
gdb 93820	2.3374	1.39333	1.06155	1.1108	89.05	-0.2339	0.0262	0.2601	1275.192	0.205487	-388.31417	-388.304571	-388.303627	-388.348087	36.917	
C	-0.0650502168	 1.5825160206	-0.0313724049	-0.385149
C	 0.0179634956	 0.0458441447	-0.01316337	-0.026534
C	 0.7668100285	-0.5033234165	-1.2319864926	-0.093983
O	 2.1580884909	-0.2686022733	-1.1110233386	-0.262969
C	 2.7643881561	-0.9956186482	-0.0521800747	 0.058072
C	 4.1691463095	-0.4120721479	 0.102969392	-0.402474
C	 1.94689836	-0.9605996092	 1.2281000345	 0.300197
C	 2.584345374	-1.5417243773	 2.4619819717	-0.483581
C	 0.705077157	-0.4706814203	 1.2261348875	-0.177411
H	 0.9376163331	 2.0093277829	-0.1241869129	 0.128455
H	-0.6697688607	 1.9334791445	-0.8749005428	 0.106939
H	-0.5147104151	 1.9674783544	 0.8894602368	 0.109208
H	-1.0058041339	-0.354510141	-0.0350444885	 0.070592
H	 0.5681796283	-1.5822603664	-1.3407548825	 0.083282
H	 0.4530364782	-0.0047728048	-2.1548113902	 0.098234
H	 2.863781113	-2.0566683088	-0.3576891477	 0.067616
H	 4.1162898357	 0.6157946507	 0.4741008169	 0.122939
H	 4.7735612834	-1.0061040319	 0.7926679918	 0.115186
H	 4.6640357763	-0.4026878759	-0.8714971727	 0.125518
H	 3.4479541122	-0.9538773392	 2.7946297191	 0.12827
H	 1.8693451445	-1.5866149901	 3.2876830102	 0.120725
H	 2.9516309093	-2.5598791741	 2.2777546181	 0.121382
H	 0.1401678011	-0.4420119328	 2.1565205895	 0.075486
74.6515	144.8937	198.6211	207.6957	225.0207	237.6364	297.3125	333.3059	351.5045	412.1001	422.6983	499.3341	516.355	605.7912	697.5762	793.723	823.6586	868.9556	879.3213	962.7437	975.875	993.5017	1023.0442	1045.3662	1079.8405	1091.9907	1112.4874	1125.3915	1154.9743	1175.6738	1194.7134	1290.5623	1324.654	1340.9889	1345.8296	1357.206	1380.3116	1393.0022	1403.2576	1415.7095	1418.7651	1478.5456	1485.9495	1489.9185	1495.1037	1500.077	1501.1101	1503.2067	1733.1786	2896.7729	2968.2823	3003.0949	3018.4	3030.6608	3046.959	3067.8225	3072.8611	3097.3007	3110.3872	3116.5376	3122.3594	3129.6809	3134.168
CC1COC(C)C(C)=C1	C[C@H]1CO[C@@H](C)C(=C1)C	
InChI=1S/C8H14O/c1-6-4-7(2)8(3)9-5-6/h4,6,8H,5H2,1-3H3	InChI=1S/C8H14O/c1-6-4-7(2)8(3)9-5-6/h4,6,8H,5H2,1-3H3/t6-,8+/m1/s1
