21
gdb 55258	2.87695	1.11325	0.96525	2.3808	85.99	-0.2209	-0.0102	0.2108	1342.2458	0.181275	-387.13742	-387.127704	-387.12676	-387.172789	35.309	
C	 0.1151789975	 1.3459047359	 0.3873273931	-0.479276
C	 0.0405779303	-0.1467955515	 0.1174853096	 0.386515
O	 1.0305286106	-0.8413539808	 0.1002323907	-0.301296
C	-1.3639978428	-0.7250416545	-0.1184132042	-0.137659
C	-1.3402997032	-2.1790391318	-0.6491355861	-0.228652
C	-1.5870927291	-3.0775691317	 0.586851481	-0.294061
C	-2.1862620242	-2.1352433684	 1.6097986088	 0.352875
C	-2.7784431015	-2.6371011371	 2.8880912469	-0.491833
C	-2.0805723004	-0.8640469192	 1.2155911577	-0.195286
H	 1.1333638615	 1.6261100171	 0.6598260778	 0.140156
H	-0.18520162	 1.8970616038	-0.5118423379	 0.139212
H	-0.5780137252	 1.6366536607	 1.1833456826	 0.137875
H	-1.8980343686	-0.0391698003	-0.7897447774	 0.077475
H	-2.1511035236	-2.3090742809	-1.371460368	 0.096031
H	-0.397142207	-2.4051174573	-1.148056663	 0.119148
H	-2.2490969775	-3.9235944942	 0.3654157428	 0.09689
H	-0.6532646149	-3.5095878742	 0.970746132	 0.118767
H	-2.0359936305	-3.1994699133	 3.4688377807	 0.130149
H	-3.1519827141	-1.8216934589	 3.5134045828	 0.121831
H	-3.6080201354	-3.3290643418	 2.6949604085	 0.125705
H	-2.4184827018	-0.0077339918	 1.7898380917	 0.085433
48.6081	69.7342	115.5307	125.8525	186.2052	246.9921	300.7356	322.3186	371.2608	451.2169	544.3109	567.6972	616.5213	712.5616	763.6303	844.0578	851.7734	889.5897	917.6936	946.5493	964.8141	1011.1745	1027.0901	1039.3472	1068.4939	1090.0751	1166.2153	1182.4699	1185.3792	1242.5723	1270.5814	1285.9292	1310.0523	1347.7876	1362.9044	1380.1253	1413.8181	1462.4167	1472.0629	1476.8215	1479.2765	1487.6214	1491.0837	1716.1962	1808.9851	3010.7943	3015.8689	3020.6742	3037.0158	3045.598	3063.712	3068.1044	3098.9679	3110.2109	3128.9312	3151.2778	3183.4134
CC(=O)C1CCC(C)=C1	CC(=O)[C@H]1CCC(=C1)C	
InChI=1S/C8H12O/c1-6-3-4-8(5-6)7(2)9/h5,8H,3-4H2,1-2H3	InChI=1S/C8H12O/c1-6-3-4-8(5-6)7(2)9/h5,8H,3-4H2,1-2H3/t8-/m0/s1
