16
gdb 71099	2.63468	1.59368	1.34394	5.6667	74.95	-0.2559	0.0168	0.2727	992.4392	0.124675	-400.714759	-400.707067	-400.706123	-400.747064	29.435	
O	-0.035283174	 1.4435426778	 0.0215287041	-0.463117
C	-0.0090352811	 0.0673536332	 0.0073626332	 0.326487
C	 0.4062469909	-0.7510812672	-1.2517600526	-0.296894
C	-0.5670421305	-1.8149365391	-0.7463905947	-0.115358
C	-0.4894571193	-1.8292717306	 0.7778148156	-0.115187
C	 0.5311570358	-0.7741777514	 1.2017176707	-0.298001
C	-1.3479027306	-0.79047292	 0.0670221499	 0.245581
C	-2.7180959314	-0.4679870558	 0.1402285804	 0.125918
N	-3.8424018547	-0.1939372275	 0.2003884097	-0.369385
H	 0.8702364281	 1.7750769783	 0.0136249489	 0.290589
H	 0.0364624392	-0.2754373384	-2.1630024398	 0.122209
H	 1.463690003	-1.0169170402	-1.3581141992	 0.095994
H	-0.9955519624	-2.6423330495	-1.2950362415	 0.116421
H	-0.8606601364	-2.667089643	 1.3518441018	 0.116461
H	 1.5937464965	-1.0407521361	 1.1946446621	 0.096312
H	 0.256183657	-0.3170708405	 2.1550849413	 0.121971
99.9712	127.7671	133.9868	314.8534	355.6648	406.9366	451.4938	534.8349	550.272	585.8592	642.2978	703.8246	783.5537	832.8221	890.8989	898.4241	907.6927	968.4719	1004.3857	1012.9658	1070.5208	1089.0154	1099.5044	1122.8551	1167.6473	1209.3983	1239.0938	1253.5259	1282.924	1297.4217	1373.5487	1426.7164	1487.8475	1509.1062	2340.3889	3038.3063	3044.9578	3115.8321	3118.1778	3212.8459	3221.8493	3797.7105
OC12CC3C(C1)C23C#N	O[C@@]12C[C@H]3[C@@H](C1)[C@@]23C#N	
InChI=1S/C7H7NO/c8-3-7-4-1-6(7,9)2-5(4)7/h4-5,9H,1-2H2	InChI=1S/C7H7NO/c8-3-7-4-1-6(7,9)2-5(4)7/h4-5,9H,1-2H2/t4-,5+,6-,7-
