18
gdb 121522	5.52356	0.4962	0.45924	4.786	81.61	-0.2554	-0.0188	0.2365	2334.0029	0.144368	-439.076494	-439.065426	-439.064481	-439.115372	36.466	
C	-0.0441613448	 1.5053344431	 0.0197065844	-0.387211
C	-0.0354346598	-0.0127791803	 0.0049363522	-0.020443
O	-1.3777674291	-0.4660817869	 0.0105285804	-0.235574
C	-1.4715633389	-1.8720037642	-0.0022499218	-0.209745
C	-2.8679724758	-2.2859797186	 0.0022367562	-0.027775
C	-4.0154053157	-2.6536469575	 0.004954587	 0.138078
C	-5.4231317545	-3.0267565803	 0.0100016962	 0.262263
N	-5.6340706762	-4.3762467341	 0.0142367453	-0.521818
O	-6.3210916701	-2.2081859427	 0.0004054656	-0.330459
H	 0.979715176	 1.8906946712	 0.0157486502	 0.11653
H	-0.5665666029	 1.893679857	-0.858769971	 0.133278
H	-0.5532563659	 1.8765559909	 0.9132780057	 0.133074
H	 0.4881675995	-0.3913607196	-0.8895151958	 0.088551
H	 0.5013966324	-0.4085372192	 0.8840046512	 0.088327
H	-0.9711272785	-2.2912856394	-0.89348429	 0.121263
H	-0.9596430804	-2.3079145686	 0.8743776057	 0.120529
H	-4.8743099338	-5.0282095331	 0.0996552461	 0.2648
H	-6.5828642415	-4.7074113874	 0.0764439622	 0.266333
19.2606	56.2789	63.6691	105.1686	113.9383	152.3211	156.3285	245.1968	265.1521	355.2254	374.2042	479.4832	517.4481	561.6653	621.9438	733.9686	771.451	822.7737	906.6146	1020.4847	1029.9625	1082.8837	1088.3339	1136.7685	1160.7088	1188.0524	1254.0876	1295.7798	1348.0988	1377.3481	1406.173	1446.775	1483.0156	1490.7949	1500.0737	1530.6104	1607.7772	1776.5693	2352.2094	2939.986	2954.9421	2957.1939	2978.1676	3047.2446	3121.709	3126.1271	3602.1245	3744.1263
CCOCC#CC(N)=O	CCOCC#CC(=O)N	
InChI=1S/C6H9NO2/c1-2-9-5-3-4-6(7)8/h2,5H2,1H3,(H2,7,8)	InChI=1S/C6H9NO2/c1-2-9-5-3-4-6(7)8/h2,5H2,1H3,(H2,7,8)
