20
gdb 41192	2.79024	1.79	1.62003	0.8461	80.07	-0.1916	0.0651	0.2567	944.7051	0.173089	-403.043442	-403.03638	-403.035436	-403.074501	29.448	
C	-0.0071373546	 1.5181975838	-0.2775302289	-0.190541
C	 1.5474010156	 1.3781992031	 0.0411508668	-0.318515
C	 1.0634818507	 0.2129888729	 0.9753340734	 0.283353
C	 1.0056078623	-1.3434878121	 1.1370048167	-0.308539
C	-0.5532033715	-1.0702270348	 0.9140145786	-0.049194
C	-1.2285247081	-0.6449245942	 2.2164392124	-0.073367
O	-0.7016243563	 0.5902911985	 2.6750976932	-0.255472
C	 0.676279061	 0.7910964795	 2.3847115215	-0.112306
N	-0.0645941613	 0.0831217928	 0.1018042332	-0.058136
H	-0.5112159967	 2.2266993701	 0.3943372742	 0.11118
H	-0.2951669833	 1.7227148751	-1.3119395262	 0.103756
H	 2.091131497	 1.0293895494	-0.8379004925	 0.113931
H	 2.0538478145	 2.2333697607	 0.4962356522	 0.095808
H	 1.4293497024	-1.8933002363	 0.2964580808	 0.109554
H	 1.3064327144	-1.7854696839	 2.0918386031	 0.090538
H	-1.1334009049	-1.8234794855	 0.3738056226	 0.078009
H	-2.3005918475	-0.477897464	 2.0635171937	 0.107294
H	-1.1179097504	-1.4359748559	 2.9782469363	 0.087469
H	 1.3152886589	 0.329426433	 3.1552276298	 0.084545
H	 0.826095778	 1.8727949577	 2.4393489789	 0.100634
144.1313	208.1616	266.8778	335.2086	404.9516	437.9395	481.0676	541.8016	659.8482	686.2567	746.7356	777.9487	831.944	844.7773	889.2049	911.075	922.3705	950.9965	985.4842	1016.6945	1023.7022	1076.9209	1108.7218	1132.5707	1146.1688	1147.2524	1164.9894	1182.0745	1207.3553	1219.636	1229.4076	1236.4531	1255.9998	1279.9282	1295.185	1328.4123	1368.2956	1409.362	1472.2175	1479.4217	1503.6503	1511.178	1526.7488	2953.3842	2967.6831	3006.661	3054.0972	3057.7533	3066.3042	3072.9296	3080.7998	3088.951	3139.131	3140.6076
C1CC23CC(COC2)N13	C1C[C@@]23C[C@@H](COC2)N13	
InChI=1S/C7H11NO/c1-2-8-6-3-7(1,8)5-9-4-6/h6H,1-5H2	InChI=1S/C7H11NO/c1-2-8-6-3-7(1,8)5-9-4-6/h6H,1-5H2/t6-,7+/m0/s1
