20
gdb 58367	2.08444	1.16433	0.90639	3.4556	84.96	-0.2787	0.0198	0.2985	1368.4969	0.168264	-366.004756	-365.994286	-365.993342	-366.040399	37.947	
C	-1.5190883626	-0.4082411352	-0.0418026527	-0.400137
C	-0.0185211046	-0.1278653077	 0.1060129905	 0.023956
C	 0.5266125892	-0.7071304588	 1.4175502616	-0.400215
C	 0.751910352	-0.630834386	-1.1503440817	-0.178314
C	 2.2431022592	-0.1817150563	-1.1839347447	-0.356159
C	 2.3968104163	 1.2705004369	-1.1398679548	 0.26431
N	 2.5037929825	 2.4208844114	-1.1086273533	-0.313311
C	 0.6948931515	-2.082982795	-1.305161008	 0.330383
C	 0.6734013859	-3.278834015	-1.4276850218	-0.454096
H	-1.9236709354	 0.047603951	-0.9517139904	 0.114485
H	-1.7148945923	-1.4844584991	-0.0883485671	 0.129525
H	-2.0711842998	-0.0008301067	 0.8104289199	 0.117341
H	 0.1230231536	 0.9599385737	 0.124156881	 0.105575
H	 0.4522383538	-1.7993589539	 1.4256241119	 0.129575
H	 1.5729559997	-0.4362629336	 1.5897202031	 0.115071
H	-0.0490380456	-0.323743824	 2.2652407241	 0.120498
H	 0.2658845431	-0.177202889	-2.0241077293	 0.122856
H	 2.7902777489	-0.6245837744	-0.3465385229	 0.163334
H	 2.7119319978	-0.5560607699	-2.0991528517	 0.162925
H	 0.6401203769	-4.3341073384	-1.5443243238	 0.202399
52.9627	88.487	121.642	144.3523	211.6296	234.6567	248.8617	260.7494	346.4826	364.538	396.6905	428.2514	502.5619	573.8774	605.3693	637.1237	658.1025	741.8468	902.1042	930.1655	934.7587	956.5855	972.5733	1000.3574	1042.6395	1110.6995	1150.0664	1201.1381	1225.7253	1280.4204	1320.824	1340.8862	1368.8251	1386.296	1403.9726	1425.4783	1465.0092	1488.5544	1494.3856	1507.4311	1511.5662	2232.8997	2360.1968	3020.2987	3033.3629	3035.0096	3039.3622	3063.8984	3101.2398	3103.432	3107.0616	3108.4137	3113.9493	3501.8032
CC(C)C(CC#N)C#C	CC(C)[C@@H](CC#N)C#C	
InChI=1S/C8H11N/c1-4-8(5-6-9)7(2)3/h1,7-8H,5H2,2-3H3	InChI=1S/C8H11N/c1-4-8(5-6-9)7(2)3/h1,7-8H,5H2,2-3H3/t8-/m1/s1
