18
gdb 22110	4.34285	0.74505	0.7096	1.7044	72.93	-0.2439	0.0089	0.2528	1620.7691	0.143914	-476.219219	-476.208606	-476.207662	-476.2567	35.961	
C	 0.0917379926	 1.3311151938	 0.1947381855	-0.239712
O	 0.1648697423	-0.0858024883	-0.0133181974	-0.229217
C	 0.7353850194	-0.4704759878	-1.1713924734	 0.450129
O	 1.1609315135	 0.2999922646	-1.9944782469	-0.352834
C	 0.7503009736	-1.9891680908	-1.2630294597	-0.411684
C	 1.4478014613	-2.5190442776	-2.4893062674	 0.384659
C	 0.8636568689	-2.2379274336	-3.8435768378	-0.494666
N	 2.5030595749	-3.1983064061	-2.2450545861	-0.166672
O	 3.1200157817	-3.6852730007	-3.4043990693	-0.395327
H	 1.0917122201	 1.7718340194	 0.1984893784	 0.143524
H	-0.4982481608	 1.806494098	-0.5928969446	 0.140944
H	-0.3878882791	 1.4634662702	 1.1644533964	 0.134882
H	 1.2351532486	-2.3832809325	-0.3660280587	 0.151499
H	-0.2937325821	-2.3281670719	-1.2322695978	 0.13724
H	 0.9376021829	-1.1667958843	-4.0536964636	 0.166688
H	 1.3802675331	-2.7976429059	-4.6211636326	 0.152386
H	-0.2008772844	-2.4995201243	-3.8573572056	 0.12194
H	 3.8690480335	-4.1700102022	-3.0428240096	 0.306221
25.1155	61.1622	73.4931	113.5956	144.2784	167.4542	268.7675	303.6395	332.5876	349.7293	380.3657	394.1728	517.1811	593.0239	657.7551	715.6612	827.8735	898.6263	926.4823	990.8227	1028.6353	1050.3803	1065.3891	1178.9402	1199.4233	1205.7987	1218.1651	1282.0451	1353.9308	1394.3751	1405.3694	1442.0701	1473.5295	1481.6648	1483.5976	1491.003	1497.4008	1737.4541	1818.8614	3032.6406	3041.8578	3052.9362	3103.7541	3105.8637	3127.8707	3160.5082	3170.4771	3825.0747
COC(=O)CC(C)=NO	COC(=O)CC(=NO)C	
InChI=1S/C5H9NO3/c1-4(6-8)3-5(7)9-2/h8H,3H2,1-2H3	InChI=1S/C5H9NO3/c1-4(6-8)3-5(7)9-2/h8H,3H2,1-2H3
