20
gdb 105497	2.00081	1.70889	1.17567	3.8688	75.23	-0.2338	0.0266	0.2604	1136.9583	0.169321	-440.294573	-440.284577	-440.283633	-440.330051	36.195	
C	 0.871625574	-0.0070127143	-1.2619260975	-0.261011
O	 0.0479527634	 0.0603248582	-0.1099900003	-0.271136
C	 0.4994373505	-0.662911342	 0.9976152682	 0.340494
C	-0.604139496	-0.727347628	 2.098426569	-0.259778
C	-0.4114504952	-2.2636565701	 2.2000912	-0.228507
C	 0.4170225517	-2.2262128578	 0.8856261634	-0.296131
C	 1.8217441994	-0.0812385009	 1.5428384076	 0.329556
N	 2.5260927061	-0.8812183694	 2.3990691733	-0.528294
O	 2.2028383214	 1.0346545477	 1.2508944543	-0.366093
H	 1.0280932942	-1.0466769336	-1.5870669454	 0.096959
H	 0.3403282231	 0.5265781632	-2.0533079753	 0.125428
H	 1.8412516342	 0.471479771	-1.0923936423	 0.137783
H	-0.4437167596	-0.1309532384	 2.9983638014	 0.112305
H	-1.5592267288	-0.4491020525	 1.6490926748	 0.124875
H	 0.1718242271	-2.5620983128	 3.0763867326	 0.097082
H	-1.3167897857	-2.8730729706	 2.1857475119	 0.109208
H	-0.1886116786	-2.4929540172	 0.0168594992	 0.119395
H	 1.3510917517	-2.7918202908	 0.8460195027	 0.098412
H	 2.2132612124	-1.7884343954	 2.6927166634	 0.25876
H	 3.3369374048	-0.4825927564	 2.8436632689	 0.260693
36.6384	77.9986	136.483	159.894	193.7103	220.313	242.1395	287.7615	372.5134	442.0474	452.4024	509.9545	563.1457	672.496	695.5657	755.1253	790.6996	822.5836	886.9046	941.0324	962.9259	1039.0601	1057.1053	1060.1941	1092.4189	1152.9702	1179.3212	1192.3969	1214.2124	1230.1827	1246.0287	1262.7215	1273.5057	1280.5009	1360.1722	1469.4158	1474.0117	1485.2977	1487.2368	1507.8559	1514.4154	1615.2019	1789.9043	2991.7248	3056.8315	3065.5208	3077.3672	3080.7198	3105.1816	3123.6959	3124.5744	3138.0276	3607.1238	3746.1346
COC1(CCC1)C(N)=O	COC1(CCC1)C(=O)N	
InChI=1S/C6H11NO2/c1-9-6(5(7)8)3-2-4-6/h2-4H2,1H3,(H2,7,8)	InChI=1S/C6H11NO2/c1-9-6(5(7)8)3-2-4-6/h2-4H2,1H3,(H2,7,8)
