19
gdb 52780	3.45422	0.8391	0.76675	3.0522	85.82	-0.2369	-0.0205	0.2164	1552.4069	0.155727	-385.882389	-385.872318	-385.871374	-385.919144	35.916	
C	 0.2273773951	 1.6027442268	-0.2974076273	-0.500276
C	 0.1250002096	 0.157527919	-0.1509454004	 0.088901
C	 0.0406361473	-1.0384360556	-0.0302045469	 0.00708
C	-0.0592918106	-2.4818662112	 0.1133598032	 0.122072
C	 0.883851403	-3.2145326146	-0.8529602822	-0.439404
C	 0.074562004	-3.021772093	 1.5895969781	-0.374109
C	-1.2346826818	-3.7923854425	 1.3777626841	 0.403402
O	-1.7892314299	-4.6636649909	 1.9811562436	-0.289022
C	-1.5248879996	-3.063134217	 0.0598823809	-0.374117
H	 1.0178148921	 1.8754642455	-1.0053888343	 0.149094
H	-0.7099731649	 2.0336967077	-0.6664361138	 0.148567
H	 0.4591649278	 2.0851668462	 0.658657633	 0.148539
H	 1.9239814579	-2.932696171	-0.6661621775	 0.127937
H	 0.7947431779	-4.2997402834	-0.7304845632	 0.116846
H	 0.6437686609	-2.9657445225	-1.8905815622	 0.127956
H	 0.9624466194	-3.6149856244	 1.8234464303	 0.129922
H	-0.0375688065	-2.2369177395	 2.3432101062	 0.138341
H	-2.2936848553	-2.2952241161	 0.1854558	 0.138359
H	-1.7816746565	-3.6859318835	-0.8009950113	 0.129914
19.9722	45.0342	104.8742	117.4239	258.9893	278.109	290.6461	324.9901	336.8273	408.5642	444.1472	473.3997	552.7584	556.2661	685.3951	714.9185	840.4029	873.4887	877.1272	947.1258	1009.4118	1052.7201	1053.4605	1070.8224	1081.1848	1118.6475	1149.4237	1188.9531	1204.5585	1240.2603	1317.3361	1411.2342	1415.1567	1422.5129	1442.6967	1478.4319	1478.6089	1488.9881	1498.5482	1896.2111	2366.43	3026.4884	3032.7869	3059.8593	3064.8558	3086.7603	3087.5927	3104.0572	3117.246	3119.8371	3120.7881
CC#CC1(C)CC(=O)C1	CC#CC1(C)CC(=O)C1	
InChI=1S/C8H10O/c1-3-4-8(2)5-7(9)6-8/h5-6H2,1-2H3	InChI=1S/C8H10O/c1-3-4-8(2)5-7(9)6-8/h5-6H2,1-2H3
