20
gdb 18285	3.1853	1.92348	1.65472	0.2494	79.75	-0.2256	0.0242	0.2498	903.3841	0.179534	-311.874681	-311.867286	-311.866342	-311.905997	29.447	
C	-0.1262791363	 1.5800557721	 0.0461293699	-0.408045
C	-0.0002461316	 0.0746292861	-0.0084437961	-0.014235
C	 0.6755161025	-0.6609431781	-1.1515434073	-0.049961
C	 1.3808659146	 0.0880534189	-2.2819384023	-0.22732
C	 2.9155924558	 0.0975944266	-2.1282857297	-0.244352
C	 3.3437223327	 0.4165159167	-0.715178512	-0.057118
C	 2.6074506475	 0.0840481821	 0.3472086497	-0.065336
C	 1.3216410014	-0.646245532	 0.2173406098	-0.086864
H	 0.8055953207	 2.0789765972	-0.231420001	 0.123658
H	-0.9160334204	 1.9384841915	-0.6243699893	 0.112351
H	-0.3813634439	 1.9071544499	 1.0602120777	 0.112496
H	-0.861401432	-0.4454461515	 0.4048678968	 0.078275
H	 0.2053146597	-1.593899173	-1.4465672757	 0.076821
H	 1.1088799451	-0.3610518125	-3.2427962526	 0.093357
H	 1.0319369503	 1.1253932321	-2.3254980501	 0.103773
H	 3.3269372758	-0.8808651237	-2.4178373257	 0.108621
H	 3.3532273253	 0.8196766529	-2.8271468889	 0.096623
H	 4.296656077	 0.9218312918	-0.5792535487	 0.083004
H	 2.9523646748	 0.3260748554	 1.3501927211	 0.081132
H	 1.2579935611	-1.5568634327	 0.8089149544	 0.083121
110.4644	172.4259	202.2346	272.6756	355.9139	468.1044	473.8029	519.1592	557.4416	721.2975	740.3079	761.0833	786.1485	840.2684	892.0735	938.5289	956.2031	977.1705	998.2333	1011.7555	1055.5527	1066.4631	1099.0309	1104.1836	1144.5107	1148.4994	1199.8061	1216.6389	1245.0067	1268.7843	1338.807	1348.6702	1371.3864	1390.5917	1416.9129	1422.9222	1435.2008	1479.0035	1490.2612	1500.1501	1508.8615	1707.0293	2997.6513	3028.4733	3037.6136	3054.3048	3074.5442	3083.4822	3110.9999	3120.0819	3130.6645	3139.7661	3149.7555	3165.2833
CC1C2CCC=CC12	C[C@H]1[C@H]2CCC=C[C@@H]12	
InChI=1S/C8H12/c1-6-7-4-2-3-5-8(6)7/h2,4,6-8H,3,5H2,1H3	InChI=1S/C8H12/c1-6-7-4-2-3-5-8(6)7/h2,4,6-8H,3,5H2,1H3/t6-,7+,8-/m1/s1
