16
gdb 34062	3.94821	1.41533	1.21007	3.9464	81.45	-0.2338	-0.0546	0.1792	1010.8093	0.125506	-363.527427	-363.520546	-363.519602	-363.558523	27.558	
N	-0.0455671412	-1.0639962452	-0.0384008437	-0.344883
C	-0.0344313981	 0.0942816229	-0.0286030929	 0.209635
C	-0.0529225285	 1.523407422	 0.0098218914	 0.152528
C	-1.3851011129	 2.3522337688	 0.2325806194	-0.307258
C	-0.5321393631	 3.4744606576	-0.3718767068	 0.029999
C	 0.1650526421	 4.226575001	 0.5025904922	-0.090352
C	 1.5720462038	 3.6650971309	 0.6657389657	-0.267001
C	 1.3624133193	 2.2906001914	 0.0072063049	-0.083347
C	 0.3915303657	 2.4699135799	-1.0883894936	-0.12977
H	-2.1666677314	 1.9201745704	-0.4008414861	 0.127433
H	-1.7540228321	 2.4996192509	 1.2500551779	 0.119389
H	-0.3134341951	 4.740552601	 1.3310581987	 0.109304
H	 2.4008012898	 4.192018436	 0.1715658336	 0.123115
H	 1.8106708961	 3.6275351955	 1.7346968622	 0.125396
H	 2.1916860127	 1.5947404422	-0.098924093	 0.109607
H	 0.4820775829	 2.2717513448	-2.1478764698	 0.116206
142.178	158.5319	278.7255	361.8791	401.6012	495.7796	530.246	551.1312	621.3672	689.3115	741.3349	796.9807	861.7214	887.9311	909.4417	917.4809	925.0822	969.0313	998.3924	1018.7237	1041.0441	1070.5966	1099.2936	1139.6187	1180.7899	1194.3639	1232.4357	1244.2435	1289.2024	1297.3779	1380.4521	1470.5672	1503.3941	1596.925	2335.4271	3005.4904	3044.4887	3064.8498	3114.9658	3148.7995	3170.8788	3208.8757
N#CC12CC3=CCC1C23	N#C[C@@]12C[C]3[CH]C[C@@H]1[C@@H]23	
InChI=1S/C8H7N/c9-4-8-3-5-1-2-6(8)7(5)8/h1,6-7H,2-3H2	InChI=1S/C8H7N/c9-4-8-3-5-1-2-6(8)7(5)8/h1,6-7H,2-3H2/t6-,7+,8+/m1/s1
