14
gdb 11491	5.49201	1.16123	1.03319	1.9176	66.53	-0.2775	-0.0422	0.2353	1113.1009	0.104877	-382.51098	-382.503033	-382.502089	-382.54434	28.153	
O	 0.052867056	-0.0111042058	-0.4682583295	-0.350977
C	 0.0479478152	 1.1310719422	-0.0854154417	 0.297395
O	 1.1353226802	 1.824269153	 0.3087397957	-0.234842
C	 2.3721828938	 1.13101846	 0.2328059393	 0.150331
C	 3.315050305	 1.515297448	-0.8670589367	-0.278949
C	 3.5731376073	 1.9519468818	 0.5625465681	-0.300934
C	-1.1409327566	 1.9480986449	 0.0272001498	 0.224311
C	-2.1607859014	 2.579290876	 0.0964223379	-0.361017
H	 2.2998556909	 0.0964001157	 0.5423853097	 0.127645
H	 3.9306005385	 0.7378838342	-1.3048257266	 0.126905
H	 2.9754743944	 2.2756907915	-1.560714938	 0.129745
H	 3.4012459428	 2.995628516	 0.7990075405	 0.132935
H	 4.3736757159	 1.4830999013	 1.1229812439	 0.124623
H	-3.0629553721	 3.1377517512	 0.1583725276	 0.212829
39.8961	86.4769	129.9468	238.8803	272.5762	363.1516	419.7374	523.3228	606.1469	658.357	698.2506	755.45	770.8568	817.4655	844.8723	894.1943	976.4878	1005.8192	1059.7873	1077.1763	1115.5004	1171.6274	1192.8331	1232.4379	1254.0768	1391.7776	1456.2395	1498.1698	1795.9306	2237.4838	3142.847	3145.5124	3197.7016	3226.7107	3240.551	3497.5992
O=C(OC1CC1)C#C	O=C(OC1CC1)C#C	
InChI=1S/C6H6O2/c1-2-6(7)8-5-3-4-5/h1,5H,3-4H2	InChI=1S/C6H6O2/c1-2-6(7)8-5-3-4-5/h1,5H,3-4H2
