21
gdb 111790	2.49363	1.43092	1.16751	1.9129	78.19	-0.2405	0.0752	0.3157	1158.6421	0.183533	-424.202362	-424.193778	-424.192834	-424.235479	33.261	
C	 0.0698443221	 1.3420508557	-0.2108385162	-0.244171
O	 0.0073399123	 0.0395828266	 0.3255797457	-0.254627
C	-1.2469176279	-0.5637153027	 0.1720040085	 0.18182
C	-1.617318216	-1.2682178334	-1.1777677073	-0.129979
C	-0.4013734797	-2.1828033843	-1.4067995829	-0.217212
C	-0.2209132666	-2.7349887172	 0.0506119029	-0.216707
C	-1.3806047149	-1.9961388431	 0.7437871441	-0.092741
C	-2.5224047571	-2.1833553256	-0.2913653568	 0.141122
O	-3.7355522823	-1.6177614984	 0.1574660899	-0.448609
H	 1.0705849667	 1.7313853075	-0.0082817995	 0.125195
H	-0.0991243343	 1.3497060536	-1.2982246583	 0.105876
H	-0.6721465811	 2.0082036012	 0.2562263943	 0.105867
H	-2.0489262112	 0.0955893433	 0.5179955608	 0.081269
H	-2.0238471526	-0.7261611436	-2.0337085103	 0.049532
H	-0.6113349571	-2.9724283018	-2.1343050157	 0.090454
H	 0.4744099132	-1.6272303968	-1.7480615702	 0.10589
H	-0.3357058847	-3.821139131	 0.1071242776	 0.091839
H	 0.7458238856	-2.4653583342	 0.4780158438	 0.114599
H	-1.5483999445	-2.1768632973	 1.8050733442	 0.067208
H	-2.6723117174	-3.207873751	-0.6599359033	 0.061181
H	-4.3173354726	-1.5233280376	-0.6033179413	 0.282191
76.6231	161.0158	172.5686	259.0318	273.663	285.4439	314.7794	344.5924	439.9141	493.8308	594.8898	697.2507	794.6901	837.8211	867.0584	891.9921	896.9158	909.9899	968.892	1004.7968	1006.9166	1015.6666	1062.9349	1083.997	1119.7469	1156.317	1168.5103	1183.2771	1188.8531	1199.0157	1216.1684	1243.3757	1256.7115	1273.9049	1279.4254	1301.8643	1329.0034	1339.5032	1398.0822	1424.3449	1482.6957	1484.1741	1487.1475	1504.5253	1510.3468	2975.599	2997.7147	3022.2543	3055.3403	3063.3912	3066.1073	3096.2802	3104.8122	3113.1269	3123.8576	3126.266	3814.5061
COC1C2CCC1C2O	CO[C@H]1[C@H]2CC[C@@H]1[C@H]2O	
InChI=1S/C7H12O2/c1-9-7-4-2-3-5(7)6(4)8/h4-8H,2-3H2,1H3	InChI=1S/C7H12O2/c1-9-7-4-2-3-5(7)6(4)8/h4-8H,2-3H2,1H3/t4-,5+,6-,7-
