15
gdb 131396	3.21114	1.31363	0.99844	2.4977	68.08	-0.2243	-0.0105	0.2138	1136.528	0.115402	-450.099548	-450.091878	-450.090934	-450.132343	28.295	
O	 0.3671395242	 1.342226859	-0.0292122852	-0.424452
C	 0.1619149532	 0.0134952168	 0.0118245984	 0.302183
N	 0.1796224074	-0.7676589068	-1.0608424639	-0.301819
N	-0.0691767118	-1.9736147339	-0.5437554519	-0.086503
N	-0.2378846713	-2.0262262645	 0.767222376	-0.296545
C	-0.100883831	-0.7578088787	 1.1647270116	 0.273382
C	-0.2078109516	-0.3340878418	 2.5724264199	-0.114946
C	-1.3026163676	-0.8673838828	 3.4346842792	-0.23068
N	 0.083394913	-1.298427957	 3.6491232196	-0.319707
H	 0.5414036235	 1.5872371135	-0.9462542725	 0.310844
H	-0.1003210976	-2.7979889632	-1.119013569	 0.294768
H	 0.1588506947	 0.6709240958	 2.7592577996	 0.105153
H	-1.7197308744	-0.244960042	 4.2216543153	 0.120357
H	-1.99867199	-1.5603003028	 2.9704071921	 0.122661
H	 0.2182595893	-2.2145547916	 3.2250125506	 0.245303
53.3163	159.0694	175.9708	299.5461	319.1641	361.099	380.2558	484.5148	529.9937	641.0339	698.9208	763.8925	775.9585	833.0703	891.9677	975.6458	986.1124	1015.7051	1106.1453	1140.1157	1146.1415	1185.5435	1197.52	1227.699	1273.6661	1278.4732	1310.2009	1407.8359	1414.5193	1481.3621	1506.4111	1585.9912	1603.8744	3109.1633	3154.5078	3200.8628	3492.0574	3684.8715	3803.5426
OC1=NNN=C1C1CN1	Oc1n[nH]nc1[C@H]1CN1	
InChI=1S/C4H6N4O/c9-4-3(2-1-5-2)6-8-7-4/h2,5H,1H2,(H2,6,7,8,9)	InChI=1S/C4H6N4O/c9-4-3(2-1-5-2)6-8-7-4/h2,5H,1H2,(H2,6,7,8,9)/t2-/m1/s1
