18
gdb 33175	3.421	1.03122	0.84468	4.6208	73.64	-0.2122	0.0233	0.2355	1378.7142	0.147842	-439.144241	-439.135431	-439.134487	-439.179185	31.654	
C	-0.0660968145	 1.5549832184	-0.0104466936	-0.380513
C	-0.089967381	 0.0253103332	 0.0267435129	-0.17442
C	 0.7552606739	-0.5342942068	 1.1769511124	-0.163747
N	 0.7547586804	-1.9854789855	 1.2390486058	-0.12164
C	-0.2463402328	-2.820735606	 1.7357067413	-0.129584
C	 0.1708119487	-4.0782162729	 1.5495453846	-0.037191
O	 1.4070040864	-4.0722041838	 0.9418231672	-0.215239
C	 1.7820439729	-2.757352056	 0.7368285805	 0.486758
O	 2.8123816121	-2.4110559921	 0.2209647999	-0.415512
H	 0.9534273621	 1.9319615935	-0.1445812483	 0.126727
H	-0.67331195	 1.937256041	-0.8356422709	 0.12197
H	-0.4591287329	 1.983567014	 0.9183400993	 0.116287
H	-1.1224398611	-0.3317933335	 0.1285365183	 0.099868
H	 0.2916612734	-0.3828471274	-0.9158378264	 0.123309
H	 1.8007621214	-0.2364880925	 1.0581736626	 0.149015
H	 0.4023254218	-0.1428539898	 2.1385093659	 0.112818
H	-1.1489631204	-2.4372378302	 2.1798133557	 0.148041
H	-0.2569380003	-5.0380266136	 1.7773346826	 0.153053
33.0017	81.7853	85.021	234.0164	242.6741	276.2497	303.0319	362.7334	548.3698	592.9617	681.715	698.9425	750.0193	769.4677	779.8123	800.9284	876.0262	899.4126	916.5508	1024.2015	1048.1213	1074.24	1122.5596	1127.0255	1161.4881	1244.0731	1279.4231	1313.0354	1332.745	1383.9161	1406.0134	1416.6299	1439.92	1480.8931	1491.4322	1500.6748	1509.0809	1653.4488	1872.9854	3028.9213	3032.8327	3038.0706	3068.6799	3098.162	3110.2416	3112.5854	3280.4289	3310.7345
CCCN1C=COC1=O	CCCn1ccoc1=O	
InChI=1S/C6H9NO2/c1-2-3-7-4-5-9-6(7)8/h4-5H,2-3H2,1H3	InChI=1S/C6H9NO2/c1-2-3-7-4-5-9-6(7)8/h4-5H,2-3H2,1H3
