17
gdb 56609	2.02175	1.37152	0.86609	2.0504	81.2	-0.2538	-0.0389	0.2149	1304.859	0.130724	-384.62727	-384.616948	-384.616004	-384.66321	36.526	
C	-0.0132200681	 1.569682128	 0.0317266078	-0.403409
C	 0.0082439663	 0.028355443	 0.0460979662	-0.180992
C	 0.7557935722	-0.4706545288	 1.1958618538	 0.328848
C	 1.3640729154	-0.846958162	 2.1613338031	-0.446958
C	-1.4447839706	-0.5624020179	 0.0358272149	-0.239159
C	-2.1896688383	-0.0884133018	-1.2192766393	 0.156273
O	-3.137649365	 0.647271313	-1.207308204	-0.240292
C	-1.4509801891	-2.019313816	 0.0266787938	 0.296038
C	-1.4791754414	-3.2180088587	-0.0572451669	-0.424314
H	 1.0076714559	 1.9579672472	 0.0314708496	 0.133355
H	-0.5293517025	 1.9504608396	-0.8538618383	 0.132607
H	-0.524493163	 1.955751709	 0.9181427485	 0.137928
H	 0.5042809684	-0.3268255234	-0.8673461194	 0.120008
H	 1.9071999744	-1.1943577503	 3.0051636007	 0.199743
H	-1.9878358391	-0.1759763955	 0.9047965734	 0.132798
H	-1.7695989284	-0.4962304758	-2.165750056	 0.09278
H	-1.497674947	-4.2792185095	-0.0982267878	 0.204746
44.6608	65.8401	109.4997	164.2791	182.8276	199.982	242.0054	284.8543	348.1559	425.0432	456.9633	500.6508	539.4749	589.5824	635.2268	644.1207	647.2543	653.619	827.9453	909.5812	943.1811	1006.6675	1056.0076	1086.1376	1097.9649	1137.0092	1221.6605	1282.8323	1325.7469	1346.4831	1413.4988	1417.1917	1487.8229	1498.0256	1838.5622	2234.4561	2239.0057	2886.0646	3016.2003	3048.2846	3064.8245	3122.8728	3131.4468	3503.124	3504.5646
CC(C#C)C(C=O)C#C	C[C@@H](C#C)[C@@H](C=O)C#C	
InChI=1S/C8H8O/c1-4-7(3)8(5-2)6-9/h1-2,6-8H,3H3	InChI=1S/C8H8O/c1-4-7(3)8(5-2)6-9/h1-2,6-8H,3H3/t7-,8+/m0/s1
