17
gdb 64702	4.52085	0.81558	0.78831	1.4062	74.73	-0.2622	-0.0435	0.2187	1432.5291	0.133995	-418.006774	-417.997418	-417.996474	-418.041556	33.189	
C	-0.1508318441	 1.6812938521	 0.2059958383	-0.457438
C	 0.015094306	 0.1843152971	 0.0376425869	 0.313234
C	-1.2581443476	-0.5494591539	-0.3976823776	-0.410149
C	-1.7107261738	-0.1402871789	-1.7290907671	 0.272102
N	-2.055035305	 0.1881914403	-2.7818696005	-0.300472
N	 1.2916115826	-0.2700226244	-0.4917274017	-0.347804
C	 0.9471751283	-0.6279422507	 0.9005122202	-0.174513
C	 1.7918445917	-0.0167731777	 1.9684281902	 0.167926
O	 1.8687160986	-0.4654171152	 3.0840571887	-0.25203
H	 0.8066672396	 2.1585133838	 0.4168300696	 0.140736
H	-0.5483803531	 2.1199380282	-0.7148494522	 0.152295
H	-0.8461669286	 1.9097841697	 1.020417644	 0.129897
H	-1.0932373923	-1.6324685396	-0.4037164069	 0.153487
H	-2.0653321406	-0.3554824162	 0.3184024053	 0.166403
H	 1.1942801515	-1.0746727282	-1.1061162618	 0.24721
H	 0.6325851006	-1.6436794326	 1.1311282417	 0.105342
H	 2.3578292063	 0.8849305159	 1.6524353429	 0.093774
53.3468	97.9217	103.1802	185.5723	192.0689	264.5953	340.579	377.5391	389.7213	411.6906	420.8515	511.9985	577.4552	734.733	817.5469	904.3443	919.4905	954.6089	966.802	1015.6512	1041.8688	1081.516	1088.0725	1119.7289	1208.0903	1220.8724	1252.3607	1332.9483	1347.7971	1394.8302	1421.9996	1448.4298	1458.5364	1489.3831	1501.9557	1823.0638	2363.1654	2913.0465	3041.8548	3045.0976	3083.7953	3107.7953	3137.9665	3147.1301	3506.1744
CC1(CC#N)NC1C=O	C[C@@]1(CC#N)N[C@H]1C=O	
InChI=1S/C6H8N2O/c1-6(2-3-7)5(4-9)8-6/h4-5,8H,2H2,1H3	InChI=1S/C6H8N2O/c1-6(2-3-7)5(4-9)8-6/h4-5,8H,2H2,1H3/t5-,6-/m0/s1
