16
gdb 47175	2.45306	1.61938	1.08854	4.0177	73.87	-0.2535	-0.0641	0.1894	1084.3263	0.124834	-437.906592	-437.898715	-437.897771	-437.939824	29.131	
N	 0.1030596069	 1.2018968224	 0.6264795371	-0.466416
C	-0.0287941905	 0.0362928943	 0.1622284129	 0.332354
C	-1.351933521	-0.6454281884	 0.0108834992	-0.344248
C	-1.5465202087	-1.9382640561	 0.8144261434	 0.352091
O	-2.6742598251	-2.3662056577	 0.9536650562	-0.314112
C	-0.4242449435	-2.6767878311	 1.4471668071	-0.142296
C	 0.9008467484	-2.493594001	 1.3909666386	-0.045858
C	 1.7158723044	-1.4910866712	 0.6354267883	-0.154949
O	 1.0171930448	-0.7288827104	-0.3315124236	-0.251257
H	 1.0865475088	 1.4830925096	 0.6095369208	 0.22518
H	-2.1635165503	 0.0323769046	 0.2776998855	 0.157415
H	-1.4779434328	-0.920814829	-1.0442096079	 0.155218
H	-0.800901992	-3.4959994227	 2.0537785726	 0.116331
H	 1.5196991423	-3.1651745142	 1.9858433491	 0.118088
H	 2.2207928051	-0.8298491456	 1.3609305853	 0.122597
H	 2.5089306233	-2.0117859634	 0.0865578354	 0.13986
48.8172	93.6039	164.347	299.4996	329.7775	383.6506	418.1986	468.7286	561.8923	584.9069	646.9945	735.9789	769.1752	823.9953	866.3221	913.9706	943.8443	970.8516	1026.2808	1045.9561	1056.1136	1138.0257	1183.7739	1200.7672	1275.2987	1291.1275	1301.6906	1333.6872	1410.9629	1414.0712	1436.4643	1473.6362	1703.9555	1749.1199	1766.9438	2962.4458	3041.7258	3061.5915	3133.1385	3136.6029	3173.742	3453.9178
N=C1CC(=O)C=CCO1	[NH][C]1CC(=O)C=CCO1	
InChI=1S/C6H7NO2/c7-6-4-5(8)2-1-3-9-6/h1-2,7H,3-4H2	InChI=1S/C6H7NO2/c7-6-4-5(8)2-1-3-9-6/h1-2,7H,3-4H2
