16
gdb 44211	3.89279	1.1906	1.11103	2.9426	69.15	-0.2504	-0.0022	0.2481	1098.0459	0.124822	-437.843155	-437.835753	-437.834809	-437.875484	27.945	
O	 0.0554732223	 0.0843449867	-0.2354447669	-0.335181
C	 0.0651803725	 1.2667635815	-0.0547559394	 0.427437
N	-0.9802307899	 2.2126966926	 0.0279734595	-0.342361
C	-0.0430898591	 3.3338932429	 0.1490766441	-0.090967
C	 1.1220915781	 2.3498176001	 0.1376653094	-0.313266
C	 0.9260304748	 3.3632001137	-0.9806334085	 0.282142
C	 0.7142409841	 3.1910606034	-2.4834233257	-0.14364
O	 1.5763332245	 4.3221328969	-2.7449555194	-0.271906
C	 1.8848160946	 4.4946539016	-1.34677076	-0.151069
H	-1.776606109	 2.2069440169	-0.6000598348	 0.246123
H	-0.2329569708	 4.1483716365	 0.8366732438	 0.119114
H	 2.0154663704	 2.3135260629	 0.7454210467	 0.122883
H	 1.1088795985	 2.2629487011	-2.9145367064	 0.122461
H	-0.3064339736	 3.3575027448	-2.8497201573	 0.105857
H	 1.6159600336	 5.49390359	-0.9806568351	 0.11081
H	 2.944490129	 4.3053834383	-1.13223029	 0.111563
81.5229	123.4408	185.5773	242.7026	372.3968	416.5292	494.3753	544.7619	622.1133	723.1178	770.7116	836.7482	860.4559	864.078	921.0422	959.0838	988.9899	1012.9781	1018.1127	1031.1821	1056.8313	1119.1336	1130.5475	1140.6652	1152.0773	1162.4225	1225.2174	1269.9588	1309.1153	1326.4211	1359.9179	1434.8535	1506.5225	1531.2685	1901.4687	3004.8478	3017.686	3049.1001	3060.145	3196.8293	3221.0432	3544.5708
O=C1NC2C1C21COC1	O=C1N[C@H]2[C@@H]1C12COC1	
InChI=1S/C6H7NO2/c8-5-3-4(7-5)6(3)1-9-2-6/h3-4H,1-2H2,(H,7,8)	InChI=1S/C6H7NO2/c8-5-3-4(7-5)6(3)1-9-2-6/h3-4H,1-2H2,(H,7,8)/t3-,4-/m0/s1
