17
gdb 19940	3.68811	2.33623	1.89696	3.0956	66.5	-0.2338	0.0678	0.3016	754.8225	0.145494	-363.824827	-363.818793	-363.817849	-363.854829	24.533	
C	 0.1145041951	 1.5899164905	 0.1423436492	-0.073045
O	 1.4630571959	 1.5354271471	-0.3695023287	-0.288946
C	 1.3721767308	 0.11520406	-0.6051935179	 0.125695
C	 2.3625674924	-0.7470475664	 0.2023544596	-0.233519
C	 1.6094552394	-1.1786240327	 1.4521415269	-0.034531
N	 1.1535937653	-0.0566104561	 2.2917206596	-0.320686
C	 0.1944696807	-0.7134003829	 1.3773160077	-0.058017
C	-0.0217379034	 0.0524045899	 0.0829715823	-0.079147
H	 0.0761538034	 2.031596438	 1.1421924521	 0.113897
H	-0.5531917154	 2.1339323307	-0.5378052427	 0.089018
H	 1.4126831813	-0.1021944768	-1.6798003201	 0.070803
H	 2.6572094577	-1.630749904	-0.374785575	 0.095074
H	 3.2647419571	-0.1721355894	 0.431570098	 0.123911
H	 1.8737839048	-2.1139067995	 1.936706912	 0.083978
H	 0.9929800682	-0.3854261198	 3.2405180994	 0.230322
H	-0.6193646064	-1.2910946848	 1.8037021539	 0.082774
H	-0.8579003567	-0.3426632337	-0.4955796163	 0.072419
134.807	245.4272	353.0852	379.8467	505.864	641.8634	680.1051	758.4781	821.4302	826.5718	861.7478	875.555	894.8241	917.5861	953.9202	1003.3723	1016.6877	1048.3204	1054.9964	1075.8861	1100.4178	1122.95	1168.2707	1176.8224	1197.9295	1216.2778	1240.8638	1264.2587	1319.9762	1322.7076	1350.1763	1365.9294	1388.2323	1425.39	1463.0881	1508.7573	3014.3675	3020.9496	3047.4726	3087.0637	3098.3195	3101.4925	3149.9359	3162.9807	3499.6863
C1OC2CC3NC3C12	C1O[C@H]2C[C@H]3N[C@H]3[C@@H]12	
InChI=1S/C6H9NO/c1-4-6(7-4)3-2-8-5(1)3/h3-7H,1-2H2	InChI=1S/C6H9NO/c1-4-6(7-4)3-2-8-5(1)3/h3-7H,1-2H2/t3-,4+,5-,6-/m0/s1
