15
gdb 8328	6.29089	1.28048	1.27122	1.8951	61.82	-0.2545	0.0263	0.2808	956.7393	0.118917	-399.794862	-399.787722	-399.786778	-399.826821	26.185	
O	 0.1127875298	-0.0628163411	 0.0016381867	-0.352258
C	-0.0052816084	 1.1302669959	 0.009403739	 0.441909
C	-1.1732812917	 2.1479034148	 0.031650437	-0.471841
C	-0.0700081953	 3.2412809122	 0.0210944481	 0.326843
C	-0.0455949116	 4.3879164985	-1.0117566077	-0.126955
O	-0.1530547677	 5.374103707	 0.0332108375	-0.2686
C	-0.0152337419	 4.3773055888	 1.0644562409	-0.126955
N	 0.9077819346	 2.1636976336	 0.001286319	-0.378483
H	-1.8132179829	 2.1195917305	-0.8522508738	 0.136951
H	-1.7871239547	 2.1105008578	 0.9335372548	 0.136952
H	 0.8982962056	 4.471522381	-1.5679918359	 0.102883
H	-0.883736595	 4.4338778561	-1.71694293	 0.112348
H	-0.8323903564	 4.4159315217	 1.7942813194	 0.112348
H	 0.944530375	 4.4553656178	 1.5936802064	 0.102881
H	 1.9177728207	 2.1690095654	-0.0133668514	 0.251978
72.4376	77.1168	272.2716	319.4223	376.0789	428.676	464.0332	509.1784	564.3772	774.4392	832.8285	885.2796	900.7011	957.0472	969.1561	996.588	1036.3176	1060.4099	1113.7462	1149.208	1153.2106	1186.0069	1186.8595	1210.3738	1277.7712	1301.9246	1366.135	1406.5104	1457.8627	1501.4219	1528.6612	1906.1744	2999.1914	3010.9262	3058.5576	3059.2286	3084.3003	3142.8525	3601.3431
O=C1CC2(COC2)N1	O=C1CC2(COC2)N1	
InChI=1S/C5H7NO2/c7-4-1-5(6-4)2-8-3-5/h1-3H2,(H,6,7)	InChI=1S/C5H7NO2/c7-4-1-5(6-4)2-8-3-5/h1-3H2,(H,6,7)
