18
gdb 14400	3.33231	2.54411	2.03571	1.6855	70.75	-0.2362	0.0959	0.3321	755.191	0.155507	-347.767245	-347.760949	-347.760005	-347.797142	26.333	
C	 0.0109270579	 1.5581585196	-0.047915485	-0.510927
C	-0.01041957	 0.0524447722	-0.0646340105	 0.328105
C	 0.4495973792	-0.8179499894	-1.2476337092	-0.287523
C	-0.2546027307	-1.933280605	-0.448703716	 0.076002
O	 0.6074746407	-2.073932432	 0.6931687533	-0.27051
C	 0.3755006326	-0.7708729067	 1.2481764853	 0.046413
C	-1.1223278613	-0.8424843937	 1.6232124669	-0.248169
C	-1.2912517034	-0.8640414301	 0.0982892581	-0.101658
H	 1.0409797088	 1.9337787312	-0.0656167037	 0.121618
H	-0.5077774906	 1.9724363298	-0.9193090004	 0.118417
H	-0.4697553232	 1.9639197076	 0.8491394775	 0.118187
H	-0.0901663814	-0.5424489267	-2.1589375776	 0.094509
H	 1.5155383169	-0.9525357812	-1.4515339365	 0.096511
H	-0.526958825	-2.9046481466	-0.8576551516	 0.076176
H	 1.1702508854	-0.4876241864	 1.9374653892	 0.073656
H	-1.4349602066	-1.7015823474	 2.2214507927	 0.09944
H	-1.5051224288	 0.0875003462	 2.0510660363	 0.09986
H	-2.2264942204	-0.7084716116	-0.4373464688	 0.069894
207.3401	252.3345	273.4337	427.164	439.5859	525.412	583.193	660.466	716.1397	801.8806	838.5673	848.1108	904.5461	915.2982	930.5136	933.8823	969.1207	990.5723	1001.3903	1039.3579	1067.4425	1085.4428	1137.8757	1159.8126	1168.8057	1192.9783	1212.2767	1235.831	1244.8298	1261.0922	1275.8426	1316.5726	1349.782	1412.6373	1477.8979	1481.2088	1490.7568	1494.1697	3022.1433	3048.9259	3062.6372	3083.9763	3090.7576	3110.3092	3123.2497	3126.4882	3128.3553	3139.1252
CC12CC3OC1CC23	C[C@@]12C[C@H]3O[C@@H]1C[C@@H]23	
InChI=1S/C7H10O/c1-7-3-5-4(7)2-6(7)8-5/h4-6H,2-3H2,1H3	InChI=1S/C7H10O/c1-7-3-5-4(7)2-6(7)8-5/h4-6H,2-3H2,1H3/t4-,5-,6-,7+/m1/s1
