20
gdb 104288	2.10962	1.36165	1.13731	3.9782	75.97	-0.2286	-0.0197	0.2089	1207.7954	0.168257	-440.25591	-440.245998	-440.245054	-440.291047	35.631	
C	-0.1428452882	 1.3560981287	 0.0042662747	-0.252115
O	-0.0812683619	-0.0503884844	-0.1088107819	-0.284492
C	 0.6867012793	-0.5635581053	-1.1823199398	 0.410474
C	 0.1590526709	-0.1409251127	-2.5445446539	-0.465326
C	 2.2265382793	-0.4750333157	-0.9414467961	-0.218009
N	 2.2096131743	-1.8592599902	-0.4187845807	-0.324298
C	 0.8522057639	-2.1045479452	-0.9443824142	-0.11896
C	-0.1081207332	-2.7235615492	 0.0553854324	 0.179481
O	-1.0946664374	-3.3374466885	-0.2603369587	-0.258847
H	 0.8561329362	 1.8153092512	 0.0149446696	 0.108605
H	-0.7305232161	 1.8157941922	-0.8014072412	 0.114419
H	-0.6328673161	 1.5701813268	 0.9567947669	 0.13537
H	 0.2758880583	 0.9354683888	-2.7058984651	 0.12202
H	 0.7027836144	-0.65400928	-3.3422779614	 0.121712
H	-0.9026956947	-0.392052367	-2.6313286774	 0.139536
H	 2.7905645386	-0.3357394332	-1.8730668981	 0.093024
H	 2.5610182838	 0.2702370654	-0.212068562	 0.107558
H	 2.9315948858	-2.472096108	-0.7779370788	 0.223761
H	 0.7894346396	-2.6671618644	-1.8843162969	 0.079887
H	 0.1846808434	-2.5612537293	 1.1137819526	 0.0862
67.5889	77.7459	113.9339	174.0096	188.9235	222.4776	264.093	309.8892	356.1057	380.4222	447.2543	489.6747	519.7821	625.199	692.5035	849.673	895.6958	923.1667	954.6772	996.4782	1021.9786	1040.5017	1084.8487	1112.5546	1150.0003	1166.3656	1180.6176	1189.7313	1217.4906	1232.2738	1268.9997	1311.4367	1340.6947	1381.1577	1401.9759	1407.8502	1474.9206	1485.7489	1488.3021	1502.0168	1506.6308	1513.2292	1828.2355	2918.8821	2993.4565	3010.694	3027.9927	3039.1945	3048.8693	3065.8111	3108.9854	3119.2031	3119.8003	3546.3602
COC1(C)CNC1C=O	CO[C@@]1(C)CN[C@H]1C=O	
InChI=1S/C6H11NO2/c1-6(9-2)4-7-5(6)3-8/h3,5,7H,4H2,1-2H3	InChI=1S/C6H11NO2/c1-6(9-2)4-7-5(6)3-8/h3,5,7H,4H2,1-2H3/t5-,6-/m0/s1
