17
gdb 33005	5.18435	0.9624	0.82002	1.7792	79.5	-0.2394	-0.0405	0.1989	1383.1361	0.137485	-418.061982	-418.053953	-418.053009	-418.095236	29.329	
C	-0.103744774	 1.5173737999	 0.0112849377	-0.391456
C	 0.0197354355	 0.0058131827	 0.0030470219	-0.03959
O	-1.313553563	-0.5321446139	 0.0095700927	-0.270866
C	-1.4442188134	-1.8663789402	 0.0044868119	 0.420558
C	-2.7553220508	-2.3877642632	 0.0113169521	-0.079294
N	-2.9781132816	-3.689862489	 0.0070508172	-0.227274
C	-1.8987069552	-4.4902482007	-0.0040405179	-0.028783
C	-0.6159286907	-3.9705650191	-0.0106346216	-0.020995
N	-0.377819893	-2.6507006575	-0.0064239082	-0.335084
H	 0.8923502257	 1.9697505139	 0.0065181418	 0.122623
H	-0.6473493684	 1.8691712059	-0.8699362448	 0.130645
H	-0.6349533054	 1.8605419844	 0.9033998422	 0.13064
H	 0.5502001091	-0.3566768688	-0.88397653	 0.119629
H	 0.5623224304	-0.3653322876	 0.8790825061	 0.119645
H	-3.6071041442	-1.7134903302	 0.0202927616	 0.121734
H	-2.0742960461	-5.5613342618	-0.0076171885	 0.112542
H	 0.2539849353	-4.6222959049	-0.0196102041	 0.115326
61.7135	107.0162	159.4247	213.7081	260.7365	343.9186	437.2464	439.9443	555.1606	620.1273	677.5228	783.8328	810.864	850.6974	867.7297	940.7729	951.4435	977.9175	1018.8772	1059.3455	1089.1198	1128.7121	1181.5417	1198.8659	1254.6706	1289.8362	1320.2702	1345.6573	1387.2701	1414.9864	1456.2916	1485.6369	1496.7094	1503.4632	1521.9156	1581.8908	1622.1452	3042.386	3047.1433	3080.1004	3121.9209	3126.6595	3158.6116	3169.7345	3185.3404
CCOC1=CN=CC=N1	CCOc1cnccn1	
InChI=1S/C6H8N2O/c1-2-9-6-5-7-3-4-8-6/h3-5H,2H2,1H3	InChI=1S/C6H8N2O/c1-2-9-6-5-7-3-4-8-6/h3-5H,2H2,1H3
