15
gdb 28978	3.0841	1.49503	1.00765	2.9363	86.13	-0.2132	-0.0417	0.1716	1106.0065	0.114198	-379.701425	-379.693707	-379.692763	-379.73331	30.218	
N	-0.0055850991	 1.3871245502	 0.1340707612	-0.611598
C	 0.0169926314	 0.0105731821	 0.0428850045	 0.214362
C	-1.1712041326	-0.7405245908	 0.0282218997	-0.040057
N	-1.2228089084	-2.0655314999	-0.0049646112	-0.266531
C	-0.0643289674	-2.7373706364	-0.0257915286	-0.015882
C	 1.1699192124	-2.106904867	-0.0207213968	-0.204097
C	 1.2334722909	-0.7080171534	 0.0100265663	 0.111
C	 2.4724759151	-0.0108675136	 0.0035912489	 0.191555
C	 3.5025298733	 0.6155347484	-0.0104635782	-0.395013
H	 0.8424978191	 1.8598639351	-0.1421196514	 0.257814
H	-0.8485662655	 1.842452637	-0.1795156939	 0.253665
H	-2.1253433826	-0.2147168342	 0.0467009427	 0.096156
H	-0.1320422313	-3.8209410805	-0.0497819247	 0.105349
H	 2.087657354	-2.6827604348	-0.0456125871	 0.105567
H	 4.4229768107	 1.1454254177	-0.0127219714	 0.197712
127.7443	143.3829	229.1906	355.4263	375.244	385.84	458.9685	480.1015	525.2739	554.2583	575.8611	615.9355	623.0383	660.1968	752.6232	787.7895	848.0082	864.6916	932.0869	967.3285	1077.2356	1084.1875	1209.3288	1235.0371	1273.8422	1326.0785	1355.8965	1461.744	1520.7547	1580.9462	1621.6438	1650.5311	2216.3477	3128.0992	3169.2315	3204.1267	3499.2663	3569.88	3679.7671
NC1=CN=CC=C1C#C	Nc1cnccc1C#C	
InChI=1S/C7H6N2/c1-2-6-3-4-9-5-7(6)8/h1,3-5H,8H2	InChI=1S/C7H6N2/c1-2-6-3-4-9-5-7(6)8/h1,3-5H,8H2
