16
gdb 69719	4.01005	1.34143	1.23524	2.3655	69.08	-0.2536	0.0209	0.2746	1014.41	0.124368	-437.831253	-437.823969	-437.823025	-437.862754	29.034	
O	-0.0040283969	 1.3920825136	 0.0377340028	-0.458173
C	-0.0066382081	 0.0123705374	 0.0348520173	 0.375633
C	-0.2991451638	-0.8186207709	-1.1779181318	-0.362855
C	-1.20802527	-0.9386138531	 0.0234059666	-0.118338
C	-0.5622173809	-1.7891623283	 1.151208871	-0.151495
C	 0.6376529299	-0.8306551807	 1.1587291252	 0.021343
O	 1.5293461818	-1.920907931	 0.7411288749	-0.277217
C	 0.4734386667	-2.829580648	 0.758762083	 0.420179
N	 0.4681764382	-4.0635333022	 0.54190561	-0.549952
H	 0.6822967166	 1.6994212512	-0.5652562842	 0.292374
H	-0.7355947753	-0.2442764992	-1.9893038135	 0.121566
H	 0.3468480009	-1.6325542461	-1.4913527594	 0.136971
H	-2.2657280776	-0.7206042543	-0.038692206	 0.109475
H	-1.1758807309	-1.9841630014	 2.0272674295	 0.107913
H	 1.0034881573	-0.2980070772	 2.0351418007	 0.104308
H	 1.4040693922	-4.4069183896	 0.317186194	 0.228268
118.0515	184.6983	267.2602	297.9761	346.8134	422.7511	448.6841	500.8346	628.2289	665.8247	725.6993	785.4321	810.4932	871.0357	887.7971	889.5449	917.395	927.2106	969.6808	980.3487	997.6187	1040.3958	1072.1701	1077.9334	1173.6898	1185.0568	1200.5515	1225.3008	1252.3559	1268.2752	1311.3411	1322.5412	1408.2331	1495.3833	1819.9495	3126.2357	3135.5975	3151.6302	3205.8658	3215.0092	3469.9126	3790.5566
OC12CC1C1C2OC1=N	O[C@]12C[C@H]1[C@@H]1[C@H]2O[C]1[NH]	
InChI=1S/C6H7NO2/c7-5-3-2-1-6(2,8)4(3)9-5/h2-4,7-8H,1H2	InChI=1S/C6H7NO2/c7-5-3-2-1-6(2,8)4(3)9-5/h2-4,7-8H,1H2/t2-,3+,4+,6+/m0/s1
