18
gdb 124861	3.57695	1.27265	1.02015	2.7031	77.87	-0.2502	-0.0089	0.2413	1173.9796	0.148059	-401.937157	-401.929153	-401.928209	-401.970398	30.645	
C	-0.0246211148	 1.4888945892	-0.0158413927	-0.479905
C	 0.0467761018	-0.0252713526	-0.054937321	 0.241575
C	 1.4131471547	-0.675968627	-0.2015397143	-0.288549
C	 0.6988732373	-0.7438276348	 1.1156799023	-0.288577
C	-1.1010902808	-0.7015981001	-0.7122586301	 0.353757
N	-1.1571019773	-2.0133229996	-0.810151265	-0.22508
O	-2.3468685016	-2.3034267241	-1.4703736796	-0.162235
C	-2.9740439973	-1.1553163538	-1.7515303437	 0.079324
C	-2.2525870881	-0.0976687296	-1.305734161	-0.356978
H	 0.8576276477	 1.8977589069	 0.4844548714	 0.117398
H	-0.0618816186	 1.9168039923	-1.0240776271	 0.121138
H	-0.9074467665	 1.8367558352	 0.5324745934	 0.121129
H	 1.4627184783	-1.5801525544	-0.7963138831	 0.137716
H	 2.2674271921	-0.0134658836	-0.2942245176	 0.110141
H	 1.0595992218	-0.1284113518	 1.93324128	 0.110153
H	 0.2673542199	-1.6937663099	 1.4075438592	 0.137721
H	-3.9171775178	-1.2479293072	-2.267740795	 0.150291
H	-2.4948870308	 0.9481429648	-1.3833466362	 0.120983
31.2726	178.2017	190.3511	240.6724	307.5556	325.7142	428.1859	444.6535	536.7481	609.4469	737.4023	792.6658	798.8353	833.9637	847.0055	866.4885	917.6987	949.1779	962.0809	962.5244	992.3385	1048.2558	1074.8274	1081.7828	1087.5458	1120.8633	1164.6578	1200.768	1214.5394	1304.1849	1347.1069	1414.5394	1436.0381	1460.7137	1481.6845	1490.5299	1493.6043	1509.6658	1602.8659	3025.9274	3086.3149	3107.9806	3133.2459	3136.4122	3223.3958	3236.828	3261.6023	3291.3656
CC1(CC1)C1=NOC=C1	CC1(CC1)c1nocc1	
InChI=1S/C7H9NO/c1-7(3-4-7)6-2-5-9-8-6/h2,5H,3-4H2,1H3	InChI=1S/C7H9NO/c1-7(3-4-7)6-2-5-9-8-6/h2,5H,3-4H2,1H3
