17
gdb 128128	3.17189	1.23107	0.90598	2.013	72.63	-0.1869	0.0544	0.2414	1253.3577	0.137474	-451.330783	-451.321342	-451.320397	-451.364975	34.079	
C	 0.2240967686	 1.4153811337	-0.1104882468	-0.335552
N	-0.2122173306	 0.0599827874	 0.1861842282	-0.383353
C	 0.5173398652	-0.710779564	 1.0666046572	 0.461464
C	 0.6683701365	-2.091761539	 1.0735529029	-0.059957
N	 0.1418506253	-2.9562525256	 0.0745821804	-0.63558
C	 1.4509981569	-2.3338852327	 2.2281043649	 0.38035
O	 1.8611160966	-3.5569328924	 2.6327151372	-0.438165
N	 1.7768731444	-1.2360283957	 2.8844643293	-0.360073
N	 1.1961928599	-0.233972225	 2.1357641437	-0.304264
H	 1.2731263877	 1.4809158854	-0.4376985591	 0.120493
H	-0.4135263103	 1.8264615888	-0.8959913543	 0.134022
H	 0.1007392209	 2.0572954498	 0.7694038051	 0.125214
H	-0.4524029747	-0.4943326013	-0.6264223119	 0.25058
H	-0.590235882	-3.5554481941	 0.4455567363	 0.239566
H	 0.860139741	-3.5753111556	-0.2888803708	 0.240261
H	 2.3961887982	-3.4222875723	 3.4250841938	 0.298961
H	 1.2124185864	 0.7031758425	 2.4931138239	 0.266034
65.5072	133.7415	181.4281	191.0522	216.7393	251.1514	252.0702	291.2156	347.0404	416.2547	454.4062	565.8295	580.8537	679.3509	703.0729	746.2773	776.2205	792.2678	870.4845	1021.8604	1095.6654	1122.4183	1155.3168	1187.279	1221.0171	1228.5647	1282.9874	1344.3623	1436.0368	1462.929	1489.035	1501.0233	1519.425	1562.832	1601.5584	1650.3296	1687.9937	2985.2139	3057.5181	3122.2418	3484.4373	3545.6114	3566.2999	3704.6537	3792.4603
CNC1=C(N)C(O)=NN1	CNc1c(N)c(O)n[nH]1	
InChI=1S/C4H8N4O/c1-6-3-2(5)4(9)8-7-3/h5H2,1H3,(H3,6,7,8,9)	InChI=1S/C4H8N4O/c1-6-3-2(5)4(9)8-7-3/h5H2,1H3,(H3,6,7,8,9)
