22
gdb 59116	1.90555	1.64395	1.06969	3.0053	78.88	-0.2304	0.0694	0.2998	1225.8741	0.193648	-441.463491	-441.453879	-441.452935	-441.49759	36.679	
C	 0.1607910602	 1.5053662003	-0.0421842193	-0.405717
C	 0.0407908605	-0.0056417183	 0.152939868	 0.119033
O	 0.5313524302	-0.3943248432	 1.4401042615	-0.44456
C	-1.3919247126	-0.5383996561	 0.0088039465	-0.038353
C	-1.5634592816	-2.0910310547	 0.1237886614	 0.121332
O	-0.4284143391	-2.8284478477	 0.4792232998	-0.441546
C	-2.6120562736	-1.7940571411	 1.2322363802	-0.206808
N	-2.1861258777	-0.3748929798	 1.2547738467	-0.092677
C	-3.2178334859	 0.6412539136	 1.3190722561	-0.33289
H	 1.1976415185	 1.8195983267	 0.104344805	 0.127944
H	-0.1529108826	 1.7986713438	-1.0497671084	 0.11223
H	-0.4587900591	 2.0458624144	 0.6814175168	 0.118099
H	 0.6714422977	-0.5212359582	-0.5807254066	 0.099909
H	-0.2322380892	-0.2430311105	 2.0261637786	 0.277337
H	-1.8806169285	-0.1215357929	-0.8838850585	 0.059272
H	-1.9811178922	-2.5674980002	-0.7655984352	 0.090363
H	 0.108203083	-2.267444437	 1.0634822581	 0.289905
H	-3.6493639126	-1.9271253895	 0.8896608313	 0.089602
H	-2.4763079404	-2.3261850953	 2.1797926065	 0.106729
H	-3.7362392982	 0.5800324281	 2.2816956797	 0.12662
H	-2.7756561797	 1.6387236031	 1.2405353559	 0.12593
H	-3.9723268472	 0.5356250345	 0.518325206	 0.098244
86.1477	108.3281	186.9986	205.1005	226.1944	240.6372	288.3857	317.5626	351.696	407.1694	433.0946	520.2765	588.2904	639.2384	710.331	737.5266	817.6325	847.1523	895.6738	941.095	978.8072	995.3206	1022.9512	1047.5688	1084.2282	1124.195	1130.3049	1167.9185	1179.4748	1196.1676	1218.9392	1260.7078	1271.3135	1287.0399	1311.4385	1345.9089	1357.2921	1378.3598	1401.713	1438.4059	1453.5931	1484.1336	1486.8203	1490.4156	1496.8413	1501.6859	1511.0069	2942.9949	2987.4341	2997.7368	3034.0891	3047.8745	3063.8946	3066.3904	3088.6717	3103.1899	3107.6272	3118.3929	3615.6607	3656.6115
CC(O)C1C(O)CN1C	C[C@@H](O)[C@H]1[C@@H](O)CN1C	
InChI=1S/C6H13NO2/c1-4(8)6-5(9)3-7(6)2/h4-6,8-9H,3H2,1-2H3	InChI=1S/C6H13NO2/c1-4(8)6-5(9)3-7(6)2/h4-6,8-9H,3H2,1-2H3/t4-,5+,6+/m1/s1
