21
gdb 68485	2.70666	1.6987	1.31044	0.8422	77.63	-0.2375	0.0855	0.323	1050.7557	0.184168	-424.224271	-424.216361	-424.215417	-424.256031	32.201	
C	-0.0416626667	 1.5625023292	 0.0211555067	-0.459317
C	 0.0576396762	 0.0510053954	-0.0405614607	 0.38934
C	 0.7703650932	-0.605095521	-1.2443377296	-0.308707
C	-0.5030218139	-1.472628426	-1.3287607428	 0.115509
C	-0.3926007981	-2.862312087	-0.6953876595	-0.228097
C	-0.2015362487	-2.7925428593	 0.827560822	-0.064752
O	 0.8499320543	-1.9229284029	 1.2279528011	-0.254502
C	 0.4965284283	-0.5543106001	 1.2991176004	-0.11435
O	-1.2097594459	-0.553636976	-0.4525822504	-0.334366
H	 0.9433971952	 2.0107519629	 0.1888102168	 0.118787
H	-0.4481270407	 1.9507316783	-0.916243756	 0.124207
H	-0.7040853044	 1.8772503768	 0.8350433719	 0.124375
H	 0.8772368818	 0.0766097827	-2.0903837684	 0.098796
H	 1.7127586369	-1.1150927115	-1.0446812002	 0.113897
H	-0.9817679488	-1.525412785	-2.3120946212	 0.073578
H	-1.3023475884	-3.4423080902	-0.8950662038	 0.100244
H	 0.4409821113	-3.4001388378	-1.1638413939	 0.103096
H	-1.1433267785	-2.4788508516	 1.2972499965	 0.103864
H	 0.0596587636	-3.7831948935	 1.2134663035	 0.099731
H	 1.3903775218	-0.0388066835	 1.6675456602	 0.102647
H	-0.3172922685	-0.40091572	 2.0269489174	 0.096021
184.6092	190.1422	236.8925	249.8952	335.2769	360.8935	385.02	405.6434	411.37	580.1965	584.9824	686.3125	788.6263	825.3299	858.7046	870.0706	902.2407	935.4592	948.7811	965.6074	995.3079	1022.2812	1068.4965	1083.8917	1114.6036	1149.4949	1163.2916	1215.0639	1225.4342	1265.5269	1270.9654	1288.784	1322.9159	1326.8522	1361.3613	1379.5574	1404.0743	1404.2952	1421.5499	1469.3763	1471.2127	1481.0669	1482.4013	1493.4392	1496.8616	2974.5057	3015.3887	3023.9667	3033.7395	3049.1621	3066.0965	3069.338	3078.5288	3081.0467	3101.8342	3119.7768	3142.9206
CC12CC(CCOC1)O2	C[C@@]12C[C@@H](CCOC1)O2	
InChI=1S/C7H12O2/c1-7-4-6(9-7)2-3-8-5-7/h6H,2-5H2,1H3	InChI=1S/C7H12O2/c1-7-4-6(9-7)2-3-8-5-7/h6H,2-5H2,1H3/t6-,7-/m1/s1
