20
gdb 92786	3.28336	0.92726	0.79714	3.9713	85.43	-0.2494	0.0049	0.2543	1478.3705	0.171432	-366.052799	-366.043736	-366.042792	-366.08732	33.534	
C	 0.1254822842	 1.5668022582	 0.062448324	-0.404446
C	 0.1417244494	 0.0396059608	 0.0680759527	 0.045053
C	 0.7388498861	-0.6045396664	-1.2148481586	-0.260388
C	 1.399568293	-1.8588042293	-0.7023576401	-0.170678
C	 1.5137783336	-1.8582038125	 0.6257904004	 0.336557
C	 2.1485200051	-2.9423355592	 1.4602359445	-0.447702
C	 3.2918304397	-2.4564414968	 2.2407270129	 0.264835
N	 4.1868481335	-2.0575707232	 2.8531205792	-0.313206
C	 0.948863487	-0.5932188999	 1.2340072536	-0.317268
H	 1.1412963013	 1.9694532638	-0.0231288866	 0.11784
H	-0.4590330265	 1.9548978349	-0.7785781323	 0.114189
H	-0.3137734365	 1.9648209143	 0.9833299224	 0.115721
H	-0.890944467	-0.3195886186	 0.1576896303	 0.078668
H	-0.0230643212	-0.797947196	-1.9784553282	 0.104501
H	 1.4838507498	 0.0548326201	-1.6851933789	 0.108968
H	 1.7717263598	-2.641456236	-1.355750001	 0.092852
H	 1.4196917041	-3.3597657519	 2.1686284038	 0.155476
H	 2.485081824	-3.7687025549	 0.8254753057	 0.155032
H	 1.7639339118	 0.064873323	 1.5687306247	 0.12238
H	 0.3284402287	-0.7830992205	 2.1184634216	 0.101615
56.5567	70.6729	116.5426	237.3661	253.3763	267.4037	361.4731	388.8334	416.4667	440.1096	468.2854	604.9298	696.1775	826.6268	838.1236	870.9875	906.2314	915.3564	934.4383	946.6285	971.911	1006.1142	1063.5792	1108.1966	1145.233	1149.398	1197.6852	1209.8895	1237.8622	1284.9074	1304.9746	1323.867	1332.7162	1361.7144	1374.019	1414.2197	1454.9091	1485.6292	1491.6623	1498.1185	1501.0901	1722.3396	2360.8936	2997.7124	3006.689	3019.6722	3020.0951	3027.3078	3048.2503	3057.3817	3079.899	3095.3616	3097.0631	3182.9084
CC1CC=C(CC#N)C1	C[C@H]1CC=C(CC#N)C1	
InChI=1S/C8H11N/c1-7-2-3-8(6-7)4-5-9/h3,7H,2,4,6H2,1H3	InChI=1S/C8H11N/c1-7-2-3-8(6-7)4-5-9/h3,7H,2,4,6H2,1H3/t7-/m0/s1
