17
gdb 31295	2.18004	1.56039	0.91978	0.9832	89.47	-0.1704	0.0114	0.1818	1241.6647	0.136053	-380.870939	-380.86184	-380.860895	-380.904721	33.863	
C	 0.0787540329	 1.4273701614	 0.1032402467	-0.325016
N	-0.2150727186	 0.0308556114	-0.1567247071	-0.407847
C	 0.5078302564	-0.6437058228	-1.1278171381	 0.217767
C	 0.6683680029	-2.0315185968	-1.1900760288	 0.10381
N	 1.4030847071	-2.2999036991	-2.3411435865	-0.322694
C	 1.7053119936	-1.1397063483	-2.9769657359	-0.084418
C	 1.171767529	-0.0892733244	-2.2555452852	-0.217937
C	 0.2165365777	-3.0214861937	-0.3087211895	 0.234076
C	-0.1745325896	-3.8557344216	 0.4738379998	-0.461029
H	 1.1331579325	 1.6191413802	 0.3599886762	 0.110001
H	-0.1689035879	 2.0345818289	-0.7741102787	 0.130647
H	-0.5484026166	 1.7741203643	 0.9280628651	 0.122341
H	-0.3606829315	-0.5225288888	 0.67558428	 0.237886
H	 1.6672120016	-3.223361597	-2.6342674659	 0.265196
H	 2.2773623605	-1.1371963642	-3.8909430507	 0.120354
H	 1.2477210431	 0.9545211369	-2.5137235188	 0.095331
H	-0.534881803	-4.5915761165	 1.1482543674	 0.181531
76.2891	118.7857	155.3942	172.8736	232.7295	311.9636	367.776	392.5366	402.6132	482.8582	510.1619	585.3888	617.06	631.4044	692.0112	697.3009	741.9308	746.0289	804.3255	913.1873	1039.3484	1103.2303	1111.639	1153.9179	1158.22	1216.5029	1258.9844	1335.8779	1419.5919	1458.5141	1481.5492	1489.3956	1494.9564	1520.5557	1536.4151	1619.3928	2203.2726	2972.6305	3062.4491	3116.0925	3254.7538	3272.8434	3503.5491	3590.0268	3693.8577
CNC1=C(NC=C1)C#C	CNc1c([nH]cc1)C#C	
InChI=1S/C7H8N2/c1-3-6-7(8-2)4-5-9-6/h1,4-5,8-9H,2H3	InChI=1S/C7H8N2/c1-3-6-7(8-2)4-5-9-6/h1,4-5,8-9H,2H3
