23
gdb 100955	2.08755	1.20652	0.98694	2.7551	81.51	-0.2462	0.0733	0.3194	1347.5347	0.203215	-425.40759	-425.396687	-425.395743	-425.44319	40.58	
C	 0.2427035497	-0.1077557585	-1.29223303	-0.405656
C	-0.3304809596	-0.3235335309	 0.1140530943	-0.042697
C	-1.5131558088	-1.3084332602	 0.0928063916	-0.076859
O	-2.588892273	-0.8524794068	-0.7176692703	-0.423095
C	 0.7268654441	-0.7455123157	 1.1356828076	 0.332887
C	 1.435368208	-2.0679332416	 0.8925515381	-0.472314
C	 1.5479453176	 0.3653742758	 1.7753455118	-0.381137
C	 0.4930830446	-0.3617917123	 2.5740761874	 0.054796
O	-0.7103328021	 0.2827481917	 2.8900674945	-0.422927
H	 0.6731949686	-1.0295917743	-1.6986101025	 0.111195
H	-0.5523048012	 0.2084473305	-1.9720627551	 0.124206
H	 1.0264935235	 0.6562989496	-1.2894959958	 0.106054
H	-0.7413594834	 0.6308989705	 0.4660130198	 0.0684
H	-1.209614124	-2.2657493785	-0.3452608633	 0.102848
H	-1.8466344491	-1.501797552	 1.1222749898	 0.101954
H	-2.947783441	-0.0632575001	-0.2991269167	 0.281142
H	 1.9985094443	-2.0541985907	-0.0463377318	 0.122328
H	 2.1481128203	-2.2803545218	 1.6956297204	 0.111152
H	 0.73176109	-2.9061606857	 0.8494531254	 0.122789
H	 2.5941455666	 0.1854585624	 2.0018603296	 0.105777
H	 1.3174742775	 1.3836499835	 1.4780398656	 0.108994
H	 0.834019315	-1.0655275754	 3.3342464679	 0.081977
H	-0.5200444777	 0.9636093006	 3.5435610817	 0.288184
57.327	97.7436	159.463	180.6958	217.6411	227.676	249.9654	278.0344	283.8315	308.0663	314.5315	382.9356	447.1049	463.3641	494.6204	574.667	729.7764	800.2578	866.8274	890.9139	909.8661	939.8003	957.0938	1023.406	1040.7099	1046.5536	1061.1353	1105.6023	1113.9376	1123.0527	1146.9736	1173.7049	1227.5882	1271.4544	1277.8795	1325.6513	1358.7803	1366.5466	1395.2702	1407.139	1416.848	1429.1095	1431.0402	1486.0179	1491.8999	1493.7429	1503.6912	1508.3455	1511.4064	3005.015	3026.8084	3032.2245	3036.6161	3071.3384	3090.1505	3096.1783	3099.7531	3102.0151	3121.7158	3121.9247	3209.2942	3805.903	3812.3857
CC(CO)C1(C)CC1O	C[C@@H](CO)[C@@]1(C)C[C@H]1O	
InChI=1S/C7H14O2/c1-5(4-8)7(2)3-6(7)9/h5-6,8-9H,3-4H2,1-2H3	InChI=1S/C7H14O2/c1-5(4-8)7(2)3-6(7)9/h5-6,8-9H,3-4H2,1-2H3/t5-,6+,7+/m0/s1
