16
gdb 83054	2.7003	1.53496	1.26392	6.1824	74.22	-0.2461	-0.0016	0.2445	1027.138	0.125389	-396.939153	-396.931117	-396.930173	-396.971653	30.1	
C	-0.078979558	 1.5266645182	 0.0814117861	-0.41544
C	 0.0625171151	 0.0298431313	-0.0511170105	-0.069383
C	 0.6684114074	-0.6592634963	-1.2371229736	-0.081468
N	 1.5738785328	 0.1211679008	-2.0326683385	-0.278341
C	 2.6560310994	 0.4463789423	-1.2389983812	 0.027971
N	 2.6234189846	 0.0488203157	-0.0176865519	-0.282847
C	 1.4008399463	-0.6934471422	 0.1479723234	 0.173725
C	 1.443064377	-1.8456603792	 1.0063693873	 0.237509
N	 1.4382476488	-2.7846458516	 1.6819259053	-0.350909
H	 0.8040396408	 2.0576955402	-0.2774425953	 0.138905
H	-0.9420233021	 1.8769038676	-0.4941979738	 0.124579
H	-0.2326706092	 1.8022798774	 1.1287150406	 0.135431
H	-0.7595457466	-0.5405342869	 0.3727042026	 0.115243
H	 0.1928063234	-1.5117513013	-1.7061302702	 0.124841
H	 1.691688425	-0.0732962635	-3.0147137667	 0.259952
H	 3.4641541955	 1.0414254275	-1.6507561534	 0.140234
116.4291	134.5284	169.0705	220.8433	233.8974	378.9679	436.35	465.6813	520.7102	563.6393	585.2144	686.5102	701.3355	776.6474	868.6937	912.3138	935.4704	968.9616	991.8645	1017.0304	1090.8928	1100.6643	1120.4918	1141.333	1232.5834	1250.9547	1319.2435	1368.292	1403.0395	1422.6276	1457.9215	1488.3882	1497.3673	1638.7762	2352.8134	3046.2602	3108.3605	3135.488	3154.7584	3191.8169	3205.003	3628.3757
CC1C2NC=NC12C#N	C[C@H]1[C@H]2NC=N[C@@]12C#N	
InChI=1S/C6H7N3/c1-4-5-6(4,2-7)9-3-8-5/h3-5H,1H3,(H,8,9)	InChI=1S/C6H7N3/c1-4-5-6(4,2-7)9-3-8-5/h3-5H,1H3,(H,8,9)/t4-,5+,6-/m0/s1
