16
gdb 80231	2.29732	1.8215	1.33757	3.2824	71.03	-0.2461	-0.0355	0.2106	989.3262	0.124698	-437.886942	-437.879428	-437.878483	-437.918863	28.963	
C	-0.1075151893	 1.6002205684	-0.0190755684	-0.433466
C	 0.027357834	 0.0859051606	 0.0154664269	 0.000493
C	 1.2048084833	-0.6030531285	-0.7359994298	-0.055941
O	 2.3761053033	 0.0076997749	-0.1315378126	-0.259419
C	 2.0624024662	 0.0114154215	 1.2226692755	 0.457973
N	 2.7843000996	 0.4375720845	 2.1586658549	-0.571751
C	 0.6944385834	-0.6174647917	 1.2731842753	-0.268731
C	 0.9471372985	-1.7705195446	 0.2488913211	 0.444557
O	 0.81781871	-2.9502709634	 0.2169763093	-0.296363
H	 0.845228055	 2.0966389755	 0.1766728045	 0.147944
H	-0.4685761152	 1.9258306708	-0.9995243633	 0.128916
H	-0.8276994351	 1.936560184	 0.73251984	 0.134783
H	-0.9192342842	-0.4052139563	-0.229925229	 0.10933
H	 1.3181429693	-0.6719054646	-1.8139525437	 0.113065
H	 3.6758876922	 0.7881946051	 1.8034991271	 0.230096
H	 0.219995859	-0.7410160862	 2.2403809422	 0.118514
131.3548	159.6399	189.4671	248.877	289.4508	410.066	474.52	535.6211	612.7673	658.5382	683.3305	735.501	791.2758	814.5622	865.1637	879.7631	933.5117	963.9821	1015.835	1044.6633	1063.4067	1077.8577	1098.6201	1122.5434	1174.4873	1197.012	1226.8376	1271.4748	1329.9488	1386.3649	1414.1423	1492.496	1496.4807	1804.8719	1929.9687	3047.1856	3071.0572	3111.7442	3135.6792	3176.434	3196.9019	3472.5978
CC1C2OC(=N)C1C2=O	C[C@H]1[C@H]2O[C]([NH])[C@@H]1C2=O	
InChI=1S/C6H7NO2/c1-2-3-4(8)5(2)9-6(3)7/h2-3,5,7H,1H3	InChI=1S/C6H7NO2/c1-2-3-4(8)5(2)9-6(3)7/h2-3,5,7H,1H3/t2-,3+,5-/m1/s1
