16
gdb 65341	3.94971	1.04305	0.96054	3.8234	70.46	-0.2792	0.017	0.2962	1218.4178	0.122565	-437.855575	-437.846828	-437.845884	-437.889317	31.731	
O	 0.1975571893	 1.627665338	 0.0618756613	-0.450183
C	 0.0297326442	 0.2536925829	-0.0794885815	 0.376347
C	 0.9932767253	-0.4285293528	-0.9883048397	-0.328226
C	 1.0998032373	-0.6701990956	 0.5159060743	-0.250639
C	 2.1547495291	-0.0742061013	 1.27940595	 0.280366
N	 2.9764473654	 0.4284569543	 1.9210794981	-0.335086
C	-1.3987390058	-0.2048792005	 0.0002556895	 0.0025
C	-2.1935670355	-0.4757595015	-1.2029417222	-0.169964
O	-1.6542040239	-1.5441576531	-0.4127568138	-0.231461
H	 0.2393512242	 1.8492966029	 0.9998220064	 0.301914
H	 0.6438320411	-1.2720643706	-1.5706453249	 0.147013
H	 1.7486547372	 0.199639017	-1.4431465318	 0.149972
H	 0.7602490165	-1.6369424816	 0.8714769779	 0.151653
H	-1.9218741985	 0.1017949415	 0.9079778628	 0.101347
H	-3.2762624348	-0.3756696647	-1.1673846956	 0.128158
H	-1.7374147709	-0.3461036349	-2.1821676808	 0.126288
74.9166	107.7816	130.4622	199.7212	236.7213	267.3752	327.481	396.8881	446.9365	500.6418	554.7732	652.5131	697.9944	811.9807	860.6533	886.5406	892.4667	936.5158	988.4969	1023.2539	1074.9323	1092.5694	1101.403	1127.9377	1155.9592	1168.9667	1243.1001	1257.2554	1281.3309	1350.4402	1399.5134	1441.2059	1469.8684	1524.5888	2350.902	3094.1121	3099.3595	3156.6723	3177.3348	3190.0572	3258.0975	3790.2008
OC1(CC1C#N)C1CO1	O[C@]1(C[C@H]1C#N)[C@H]1CO1	
InChI=1S/C6H7NO2/c7-2-4-1-6(4,8)5-3-9-5/h4-5,8H,1,3H2	InChI=1S/C6H7NO2/c7-2-4-1-6(4,8)5-3-9-5/h4-5,8H,1,3H2/t4-,5+,6-/m0/s1
