16
gdb 54888	2.62604	1.55632	1.03602	2.099	70.7	-0.2459	-0.0363	0.2096	1106.8522	0.124536	-437.953526	-437.945474	-437.94453	-437.986714	30.359	
N	 0.5239181148	 0.2933099581	 0.9446576393	-0.522206
C	-0.054477518	 0.3304139879	-0.2846184698	 0.391314
O	 0.3306767825	 1.0180545618	-1.2077544756	-0.356114
C	-1.3265064368	-0.5379648042	-0.4020909277	-0.277943
C	-1.7883578541	-0.7777737313	-1.8130851677	-0.047946
C	-2.0152907107	-2.0676612077	-2.0624498325	-0.090934
C	-1.7381252505	-2.9470331922	-0.872311589	-0.359759
C	-1.2061843322	-1.9619936992	 0.1718177812	 0.387094
O	-0.7542428523	-2.2485997753	 1.2547141384	-0.324027
H	 1.4078944917	 0.7650816907	 1.0520923856	 0.259532
H	 0.2844601742	-0.4593034447	 1.5766893261	 0.276993
H	-2.0893107524	-0.0168693065	 0.198245319	 0.142088
H	-1.8937626698	 0.0356458381	-2.5176242071	 0.126616
H	-2.3572145332	-2.4659389387	-3.0101592646	 0.108391
H	-2.6312334049	-3.4506816914	-0.4776298862	 0.14284
H	-1.0008981982	-3.7386565053	-1.0559653494	 0.144061
60.4771	81.8238	200.6532	221.7754	376.3175	409.7597	440.7667	479.5813	546.2424	562.5007	605.801	652.7593	705.1179	717.1662	783.6538	808.1485	895.7775	969.8386	976.6962	984.2809	1052.5278	1119.0376	1131.4285	1135.6938	1162.6449	1213.7536	1248.1396	1288.141	1341.397	1375.2273	1440.7508	1622.8877	1683.272	1805.1804	1825.4017	2990.7177	3023.7485	3055.3333	3203.5577	3239.0899	3538.2476	3689.7144
NC(=O)C1C=CCC1=O	NC(=O)[C@H]1C=CCC1=O	
InChI=1S/C6H7NO2/c7-6(9)4-2-1-3-5(4)8/h1-2,4H,3H2,(H2,7,9)	InChI=1S/C6H7NO2/c7-6(9)4-2-1-3-5(4)8/h1-2,4H,3H2,(H2,7,9)/t4-/m0/s1
