17
gdb 24158	5.27314	0.92528	0.84392	1.1895	73.64	-0.2374	0.0078	0.2452	1349.3021	0.137522	-418.00019	-417.992485	-417.99154	-418.033511	28.336	
C	-0.091776191	 1.6271334101	 0.2222223147	-0.274214
N	-0.3154274148	 0.3314023747	-0.4079421058	-0.066053
C	-0.2085576657	-0.8336089294	 0.4673108801	-0.218487
C	-1.5355397039	-0.364255491	-0.0174925969	-0.218201
C	 1.3467652523	 2.023224379	 0.1248642021	 0.253332
C	 2.3451596178	 1.4765145605	-0.6093310051	-0.093521
O	 3.4881992677	 2.1953287936	-0.3746029821	-0.141473
C	 3.1050744456	 3.1495866249	 0.4995187001	 0.070077
N	 1.8587664047	 3.1062911866	 0.8379186213	-0.310268
H	-0.7145979496	 2.3697824786	-0.2933930823	 0.126078
H	-0.3987932359	 1.6465522315	 1.2834265953	 0.101949
H	 0.2590937711	-1.7119731075	 0.0323727329	 0.117483
H	 0.0291612715	-0.6613161917	 1.5156924613	 0.116784
H	-2.186641627	 0.1191070525	 0.7093061141	 0.112703
H	-2.053807211	-0.8922299468	-0.8126653654	 0.119148
H	 2.4173718303	 0.6521550996	-1.2948381036	 0.155775
H	 3.864262358	 3.8425495449	 0.8269049692	 0.148887
58.0461	74.5445	134.835	263.8064	333.4067	356.8501	431.291	637.0365	677.9078	737.1806	774.7681	776.6045	841.5354	846.8164	906.8165	936.3487	998.4056	1015.3868	1034.8133	1059.0435	1092.3513	1116.8531	1121.0343	1134.8068	1172.5959	1182.7569	1239.7913	1244.6418	1268.1974	1324.1623	1338.5255	1404.0734	1484.0709	1494.5452	1522.5097	1555.6996	1634.4336	2944.0692	3034.3744	3096.0842	3100.9145	3179.6161	3193.9487	3274.7826	3314.8436
C(N1CC1)C1=COC=N1	C(N1CC1)c1cocn1	
InChI=1S/C6H8N2O/c1-2-8(1)3-6-4-9-5-7-6/h4-5H,1-3H2	InChI=1S/C6H8N2O/c1-2-8(1)3-6-4-9-5-7-6/h4-5H,1-3H2
