12
gdb 132701	3.20675	1.42856	0.98829	2.4276	60.07	-0.2441	-0.0375	0.2066	1052.7001	0.078749	-513.975954	-513.969126	-513.968182	-514.00729	26.107	
O	 0.1049747938	 1.2865240555	-0.0302252645	-0.389652
C	 0.0775667652	-0.0541978032	-0.037557858	 0.45503
N	-0.0238287372	-0.6268627144	-1.227211643	-0.299665
C	-0.0495425571	-1.9657304226	-1.2145512392	-0.091622
C	 0.0236817535	-2.7029052214	-0.0525652934	 0.144425
F	-0.0030467822	-4.0352033437	-0.0547530746	-0.060695
C	 0.128726987	-1.9896005745	 1.1476612274	 0.323914
O	 0.2033579179	-2.6494419989	 2.307841492	-0.395597
N	 0.1554966711	-0.6651461828	 1.1527266142	-0.438838
H	 0.1803083994	 1.5601447033	 0.89298408	 0.306829
H	-0.1320572629	-2.4761514898	-2.1705805531	 0.138076
H	 0.2693749113	-1.9802725375	 3.0041350622	 0.307795
133.6889	237.191	284.5952	367.3973	382.0894	460.6979	487.3253	529.6284	556.0488	569.0389	606.1482	737.6735	788.1476	799.0002	811.1556	977.0306	1011.474	1175.1231	1226.5727	1280.1671	1306.5741	1361.9825	1413.5519	1482.3034	1532.6368	1635.3631	1679.7543	3172.4588	3763.2529	3798.6255
OC1=NC=C(F)C(O)=N1	Oc1ncc(F)c(O)n1	
InChI=1S/C4H3FN2O2/c5-2-1-6-4(9)7-3(2)8/h1H,(H2,6,7,8,9)	InChI=1S/C4H3FN2O2/c5-2-1-6-4(9)7-3(2)8/h1H,(H2,6,7,8,9)
