17
gdb 66815	3.6365	1.78216	1.77908	1.3404	72.62	-0.2302	0.0812	0.3114	838.885	0.138088	-384.623523	-384.617546	-384.616602	-384.653369	26.45	
O	-0.1311327403	 1.419406044	 0.0686038255	-0.469076
C	 0.0127324658	 0.047413479	 0.0491069818	 0.394121
C	-0.0817050436	-0.844773492	-1.1699601295	-0.165912
C	 0.968964047	-1.9416937773	-1.0919186899	-0.072207
C	 0.6929758633	-2.829599718	 0.1002357558	-0.084583
C	 1.7857875086	-1.7754604077	 0.1791035848	-0.093391
C	 0.8640657761	-0.8425038337	 1.0034844996	-0.152786
C	-0.2682913314	-1.9293805708	 0.9246133511	-0.057232
C	-1.0739990079	-1.0006935631	-0.0159574069	-0.142758
H	 0.6058984692	 1.8078745515	-0.4164670015	 0.283333
H	-0.4286555738	-0.429381434	-2.1073928256	 0.084662
H	 1.4300237606	-2.3553109518	-1.9793756154	 0.082473
H	 0.7592132686	-3.9103722964	 0.0899695707	 0.082292
H	 2.8619788424	-1.8855749422	 0.2359872709	 0.080398
H	 1.1862957731	-0.4408586855	 1.9609487001	 0.071697
H	-0.7292255744	-2.3142227416	 1.8308034602	 0.069717
H	-2.1469953134	-0.9019367605	-0.1255503116	 0.089251
236.5087	298.4851	338.2932	552.9047	559.1533	598.0237	688.4619	744.838	756.0929	770.3824	782.3117	813.9862	842.8427	865.7189	895.3789	911.5718	912.8894	933.9045	943.3249	962.7006	1011.3968	1016.6328	1040.6807	1050.1607	1056.134	1116.1136	1140.8715	1165.8944	1194.1217	1219.515	1223.6395	1255.479	1267.8821	1288.8985	1308.1931	1353.0163	1452.8126	3144.0254	3152.6603	3177.7197	3185.4849	3188.9358	3199.7398	3211.0221	3784.7558
OC12C3C4C5C4C1C5C23	O[C@@]12[C@H]3[C@@H]4[C@H]5[C@@H]4[C@@H]1[C@H]5[C@@H]23	
InChI=1S/C8H8O/c9-8-5-2-1-3(2)6(8)7(8)4(1)5/h1-7,9H	InChI=1S/C8H8O/c9-8-5-2-1-3(2)6(8)7(8)4(1)5/h1-7,9H/t1-,2+,3-,4+,5-,6+,7-,8-/m1/s1
