20
gdb 40601	3.52852	1.30413	1.15333	1.5513	81.8	-0.2113	0.0627	0.274	1133.6656	0.171691	-365.892818	-365.885124	-365.884179	-365.925382	30.955	
C	-0.8369851939	 1.2397029936	-0.6775672894	-0.245067
C	 0.2765372009	 1.6524278096	 0.248017428	-0.288772
C	 0.0347933086	 0.1885577656	-0.0299099123	-0.033416
C	-0.4741384604	-0.6782828811	 1.0959022476	-0.004908
C	-1.7333149695	-1.452850648	 1.2617259185	-0.066183
C	-2.2725050955	-2.2618200344	 0.068196722	-0.072004
C	-1.4528916498	-2.1166161997	-1.1843558123	-0.299475
C	-0.9037338988	-2.8909424927	-0.015521769	-0.00432
N	-0.3935866867	-2.1563860987	 1.2114656149	-0.179105
H	-1.8552741481	 1.3287885537	-0.3142929495	 0.119762
H	-0.7247121432	 1.4247398234	-1.7408859638	 0.112119
H	 1.1593395597	 2.1182938201	-0.1754994376	 0.113801
H	 0.0021983543	 2.027684892	 1.2293541793	 0.112896
H	 0.7675196315	-0.2939163288	-0.6692680316	 0.106238
H	-0.1517677482	-0.28987938	 2.0638023127	 0.101693
H	-2.2876801692	-1.4183773752	 2.1962156623	 0.092354
H	-3.2445242021	-2.7356795594	 0.0896364881	 0.093126
H	-1.7856244293	-2.7751573923	-1.9829812777	 0.110867
H	-1.0685897414	-1.1704337256	-1.530473828	 0.128846
H	-0.6091405688	-3.929459982	-0.0924959522	 0.101545
51.127	139.7563	184.39	297.14	336.5352	395.7672	522.6541	626.2543	670.2131	699.236	741.6394	757.1177	790.2157	830.2675	845.7237	888.9661	899.3248	929.9353	946.105	964.9669	1010.4846	1019.7203	1055.895	1060.2207	1068.734	1070.8721	1083.063	1083.888	1120.2695	1142.7645	1153.7125	1194.4547	1201.2875	1223.7607	1265.3049	1284.6635	1332.3689	1366.7763	1371.3045	1437.5653	1467.6156	1486.7903	1502.3202	3081.2485	3125.399	3130.2639	3135.6749	3136.474	3151.7033	3190.6248	3204.2755	3205.3573	3221.4002	3260.2249
C1CC1C1C2C3CC3N12	C1CC1[C@H]1[C@H]2[C@H]3C[C@H]3N12	
InChI=1S/C8H11N/c1-2-4(1)7-8-5-3-6(5)9(7)8/h4-8H,1-3H2	InChI=1S/C8H11N/c1-2-4(1)7-8-5-3-6(5)9(7)8/h4-8H,1-3H2/t5-,6+,7-,8+,9?/m0/s1
