16
gdb 75697	2.22029	2.10095	1.18016	1.1932	71.97	-0.2525	-0.0226	0.2299	1012.7943	0.126292	-434.088468	-434.08074	-434.079796	-434.120688	29.073	
C	-0.0198333979	 1.4428349028	-0.1229913034	-0.368539
N	-0.0170848174	-0.0007029197	-0.0223136507	-0.141906
C	-1.178363477	-0.7837306769	 0.0316285815	 0.427916
N	-2.390741515	-0.4182713677	 0.1055037206	-0.550992
C	-0.7266159459	-2.2119003623	 0.0164935537	-0.112903
N	 0.0432221293	-2.5229650983	-1.212019564	-0.33081
C	 0.7543646703	-2.1929340544	 0.0492471355	-0.18652
C	 1.1640331418	-0.7409176587	 0.0621295776	 0.465678
O	 2.2743969806	-0.2753254044	 0.1441854241	-0.371532
H	 1.0206221725	 1.7684590915	-0.1499080033	 0.172502
H	-0.5307019324	 1.7681085694	-1.035184708	 0.144022
H	-0.5142609692	 1.896276591	 0.7431159927	 0.138452
H	-2.4855991679	 0.5984085686	 0.1058832242	 0.219733
H	-1.3416704403	-2.9655297616	 0.4893391533	 0.124038
H	 0.0604396319	-3.5353932564	-1.3285409558	 0.246793
H	 1.3761844767	-2.924900463	 0.547324022	 0.124068
122.5321	154.3995	175.3519	216.7234	296.2654	359.4723	376.1764	509.1153	598.37	640.7073	700.734	744.9236	778.8615	859.1924	869.6396	876.117	916.702	931.6644	1017.883	1038.7871	1110.1744	1141.265	1155.8862	1159.2101	1235.468	1275.7533	1295.4113	1358.7085	1383.7197	1417.0621	1458.6233	1494.0342	1513.0725	1750.2926	1843.714	3032.7408	3091.7482	3153.827	3209.6875	3219.0926	3470.488	3482.1574
CN1C(=N)C2NC2C1=O	CN1[C]([NH])[C@H]2N[C@H]2C1=O	
InChI=1S/C5H7N3O/c1-8-4(6)2-3(7-2)5(8)9/h2-3,6-7H,1H3	InChI=1S/C5H7N3O/c1-8-4(6)2-3(7-2)5(8)9/h2-3,6-7H,1H3/t2-,3+/m0/s1
