18
gdb 94789	2.73142	1.51096	1.15446	2.8986	72.63	-0.236	-0.0314	0.2046	1097.498	0.147483	-439.075316	-439.066867	-439.065922	-439.108704	31.419	
C	 0.3906309106	 1.4321100086	-0.2136007703	-0.402734
C	-0.0930347521	 0.0264076706	 0.1533169039	 0.014649
O	 0.0492590379	-0.9072096859	-0.9186731546	-0.267037
C	 1.2671907079	-1.634804082	-0.767659736	-0.192499
C	 1.514516492	-1.7021260547	 0.7275105236	 0.196761
C	 1.6951620852	-2.963476442	 1.5025479991	-0.268097
N	 2.8106859006	-2.0275498776	 1.3402199224	-0.334097
C	 0.7198079199	-0.5610231103	 1.3105985341	 0.339189
O	 0.7145792514	-0.1914610693	 2.455091487	-0.316531
H	 1.4522598536	 1.4305669643	-0.480671456	 0.122504
H	-0.1791170979	 1.8128618896	-1.0649562616	 0.130366
H	 0.2532387954	 2.1029695192	 0.6391880249	 0.141362
H	-1.1542735453	 0.0565313515	 0.4232785804	 0.113351
H	 1.132317294	-2.6117611197	-1.2406633688	 0.118413
H	 2.0993658787	-1.1181280599	-1.274455213	 0.101552
H	 1.2937555624	-3.0132140446	 2.5107541993	 0.143613
H	 1.6945910278	-3.8975091391	 0.9461295612	 0.121864
H	 3.4417244979	-2.3629888387	 0.6136645046	 0.23737
54.0119	124.7249	210.0243	225.0392	246.8216	262.7094	342.3743	386.9898	463.8816	561.2013	646.4651	690.0092	747.886	840.7536	858.8511	885.4902	949.0442	972.045	979.003	994.2736	1041.3182	1090.5549	1109.0219	1124.1098	1141.5235	1152.6998	1227.8022	1267.349	1298.1449	1311.1361	1341.5216	1360.9658	1395.3104	1415.5004	1486.9567	1494.5551	1497.0094	1518.3171	1855.0138	2962.4917	3042.1378	3053.78	3078.7611	3106.5996	3116.9628	3129.5328	3201.7322	3475.0797
CC1OCC2(CN2)C1=O	C[C@H]1OC[C@]2(CN2)C1=O	
InChI=1S/C6H9NO2/c1-4-5(8)6(2-7-6)3-9-4/h4,7H,2-3H2,1H3	InChI=1S/C6H9NO2/c1-4-5(8)6(2-7-6)3-9-4/h4,7H,2-3H2,1H3/t4-,6-/m1/s1
