18
gdb 105299	2.51552	1.06687	0.92173	2.1387	76.19	-0.2649	-0.06	0.2049	1327.0361	0.144818	-439.081577	-439.072032	-439.071088	-439.116515	33.863	
C	 0.1214280812	 1.5590297953	 0.2793947731	-0.390722
C	-0.2403933406	 0.1169824777	-0.0982403114	-0.252886
C	 0.6368904542	-0.4187590804	-1.2133543587	 0.214598
N	 2.0318897824	-0.7436794816	-0.8993595074	-0.352123
C	 1.1591867453	-1.8472650313	-1.2837807006	-0.175025
C	 0.8282029665	-2.8444936496	-0.2198367467	 0.170462
O	 0.4089147738	-3.9463384198	-0.4631447397	-0.246711
C	 0.3957539593	 0.1390302193	-2.5831715507	 0.132403
O	-0.4988586316	 0.8888266644	-2.8735825175	-0.251179
H	 1.1651722583	 1.6224542835	 0.6017976651	 0.12784
H	-0.0243304393	 2.2354108809	-0.5664730088	 0.139385
H	-0.5095464627	 1.9075069471	 1.1017239391	 0.11943
H	-0.1501963338	-0.5249279881	 0.781203026	 0.106211
H	-1.2811418089	 0.0655312753	-0.4337999777	 0.126329
H	 2.6615646701	-0.4979847671	-1.6621654966	 0.2472
H	 1.2495277965	-2.2856503224	-2.2763636246	 0.113929
H	 1.0177372508	-2.4948158561	 0.8160731774	 0.099385
H	 1.1441253384	-0.2014733071	-3.3407316004	 0.071476
74.3434	86.4125	97.2703	193.7468	207.6433	229.9485	259.7536	305.0398	373.1936	422.9962	468.1633	541.842	562.2456	739.784	794.4785	810.9993	935.3244	966.8039	990.4161	999.7505	1031.5918	1068.5821	1095.6464	1105.3649	1118.8779	1217.559	1229.9139	1308.9528	1345.3953	1373.5358	1378.1524	1406.55	1425.1729	1450.7872	1474.587	1499.721	1511.1953	1820.6844	1828.9805	2831.1477	2921.3737	3046.721	3061.5581	3102.0973	3117.1451	3131.4433	3131.9268	3472.9294
CCC1(NC1C=O)C=O	CC[C@]1(N[C@H]1C=O)C=O	
InChI=1S/C6H9NO2/c1-2-6(4-9)5(3-8)7-6/h3-5,7H,2H2,1H3	InChI=1S/C6H9NO2/c1-2-6(4-9)5(3-8)7-6/h3-5,7H,2H2,1H3/t5-,6-/m0/s1
