17
gdb 24253	4.00571	1.55096	1.21999	2.5461	78.84	-0.1901	0.0394	0.2295	999.6311	0.140207	-380.873708	-380.867135	-380.86619	-380.904393	27.197	
C	 0.0836935659	 1.4944336045	-0.0360556851	-0.234054
C	 1.3403614257	 0.6863282852	 0.000925885	-0.186785
N	-0.0013570173	 0.0326565669	-0.0154204274	-0.095622
C	-0.1992319458	-0.6156465335	-1.3514656294	-0.297648
C	 1.0560593169	-0.3103866186	-2.1269330403	 0.26834
C	 1.9189681914	 0.3884883111	-1.3233988957	 0.322188
N	 3.0614246038	 0.6518847657	-2.0229817615	-0.385346
C	 2.9264471288	 0.1184883266	-3.2908258118	-0.075481
C	 1.6865231381	-0.4815404744	-3.3886383238	-0.32968
H	-0.2872861047	 1.9787877657	 0.8646144369	 0.110961
H	-0.1308552574	 2.0186998378	-0.9654918983	 0.111687
H	 1.9221551711	 0.5961268742	 0.9149086927	 0.094315
H	-0.3526325139	-1.6896983288	-1.1887019433	 0.113116
H	-1.1166474745	-0.2258724382	-1.8084090315	 0.112024
H	 3.8606066646	 1.1645244157	-1.6944236381	 0.261089
H	 3.729130925	 0.1957533636	-4.0069173411	 0.116567
H	 1.3076574523	-0.9909496035	-4.2616295573	 0.09433
143.5782	230.5147	343.2635	413.9247	431.9265	466.7663	594.6197	626.0205	680.9082	694.4101	713.6732	737.9217	799.56	817.9644	836.5377	933.9067	956.9263	1013.3541	1026.9037	1062.2255	1077.0627	1094.9778	1112.8495	1147.1766	1165.9809	1206.1753	1243.6288	1253.8198	1300.2887	1314.9271	1387.108	1443.7078	1479.6011	1488.2987	1503.6151	1535.6788	1603.0242	3019.4906	3051.668	3088.1597	3133.3998	3176.8196	3242.3419	3265.7177	3683.2375
C1C2N1CC1=C2NC=C1	C1[C@H]2N1Cc1c2[nH]cc1	
InChI=1S/C7H8N2/c1-2-8-7-5(1)3-9-4-6(7)9/h1-2,6,8H,3-4H2	InChI=1S/C7H8N2/c1-2-8-7-5(1)3-9-4-6(7)9/h1-2,6,8H,3-4H2/t6-,9?/m1/s1
