19
gdb 33566	2.2347	1.48048	1.16905	0.8784	86.4	-0.2553	0.0333	0.2886	1151.8472	0.158165	-348.69946	-348.690273	-348.689329	-348.733409	34.968	
C	-0.2599731108	-1.3231491483	-0.5387987425	-0.413807
C	-0.1330767229	-0.1616126621	-0.2586065614	 0.247921
C	 0.0441233256	 1.2422606436	 0.1144828925	-0.078572
C	-0.4289512182	 1.5384630874	 1.5733375946	-0.221761
C	 0.2728050382	 2.8589728776	 1.950264212	-0.216431
C	 1.5523057087	 2.9329259921	 1.0646034205	-0.216453
C	 1.5485390783	 1.6524684943	 0.2051796619	-0.221745
C	-0.6626662349	 2.1133798588	-0.8345177735	 0.345215
C	-1.2304438215	 2.8520156311	-1.5936288981	-0.491782
H	-0.3796650196	-2.3461151061	-0.7970315054	 0.190643
H	-1.5170615306	 1.5814107052	 1.6475802324	 0.114181
H	-0.0811860407	 0.7141374264	 2.2036426608	 0.110262
H	-0.3814108791	 3.7091127418	 1.7413001271	 0.113997
H	 0.5038367021	 2.8895207472	 3.0181053636	 0.101346
H	 1.5190020739	 3.8187009452	 0.4253074715	 0.114009
H	 2.4664484543	 3.0034387007	 1.6595514708	 0.101335
H	 2.0795893021	 0.8388359835	 0.7088980758	 0.110255
H	 1.9949295418	 1.7836576317	-0.7821744639	 0.114177
H	-1.7380455068	 3.4899495798	-2.2741517489	 0.197211
64.688	124.4689	133.6721	152.2414	181.4632	286.507	425.5582	463.2754	497.4347	550.3709	566.9929	625.2439	626.4277	641.1811	644.2563	648.9173	684.4407	801.4263	814.3407	888.4449	924.8692	957.0999	1011.1511	1043.7341	1051.642	1089.5221	1097.5195	1214.117	1224.4382	1259.4021	1259.6888	1303.9689	1332.5491	1342.1044	1350.0492	1481.3324	1489.9766	1493.7852	1514.1754	2232.6877	2239.6654	3054.4336	3059.1699	3059.2717	3070.0358	3090.3732	3108.5368	3119.5485	3125.2532	3501.7765	3503.1045	64.6913	124.469	133.6721	152.242	181.4639	286.5074	425.5583	463.2761	497.4348	550.3715	566.9936	625.2454	626.4287	641.1824	644.2572	648.9172	684.441	801.4263	814.3407	888.4449	924.8692	957.1	1011.1513	1043.7341	1051.6419	1089.522	1097.5195	1214.1167	1224.438	1259.4018	1259.6885	1303.9688	1332.5488	1342.1041	1350.049	1481.332	1489.9761	1493.7848	1514.175	2232.6878	2239.6658	3054.4336	3059.1699	3059.2717	3070.0359	3090.3732	3108.5368	3119.5485	3125.2532	3501.7768	3503.1043
C#CC1(CCCC1)C#C	C#CC1(CCCC1)C#C	
InChI=1S/C9H10/c1-3-9(4-2)7-5-6-8-9/h1-2H,5-8H2	InChI=1S/C9H10/c1-3-9(4-2)7-5-6-8-9/h1-2H,5-8H2
