19
gdb 87531	2.51353	1.55409	1.15418	3.2852	81.16	-0.2349	-0.007	0.228	1120.5049	0.158722	-385.872339	-385.863968	-385.863024	-385.905244	32.128	
C	-0.0366620781	 1.566657048	-0.0099535135	-0.405411
C	-0.01749163	 0.0561381236	 0.0575034725	-0.059201
C	 1.2534362176	-0.7080143173	-0.2000732467	-0.363182
C	 0.6807721882	-0.6498183138	 1.193734016	 0.238367
C	 1.3163870098	-0.1091796679	 2.468897444	-0.153945
C	 0.2619642629	 0.0496317755	 3.5087006745	-0.285862
C	 0.8073357254	-1.3509071193	 3.249874898	-0.177514
C	 0.2437661282	-1.8863144344	 1.9576818773	 0.368229
O	-0.2233814344	-2.9387890856	 1.6177729393	-0.338019
H	 0.8978362615	 1.9920839872	 0.3704338836	 0.11574
H	-0.1635465063	 1.9116298294	-1.0417755621	 0.123599
H	-0.8566634331	 1.9827297062	 0.5848561585	 0.121388
H	-0.928973709	-0.4332854061	-0.2780434747	 0.100692
H	 1.1971309666	-1.6635901645	-0.711141863	 0.133203
H	 2.1582542323	-0.1381661994	-0.3899340788	 0.11566
H	 2.3029148174	 0.3282691594	 2.5437980559	 0.106309
H	 0.5725442144	 0.468799764	 4.4608287193	 0.124129
H	-0.7547026091	 0.3002763658	 3.220258161	 0.1247
H	 1.2832490154	-1.9234334508	 4.0354277487	 0.111118
104.5788	129.3607	167.9059	190.8873	240.8575	287.419	391.3416	423.2965	551.1279	605.5694	650.4432	725.4155	796.2548	811.0901	843.1882	887.5646	896.6481	920.1715	939.1114	957.2997	987.6702	1031.1412	1047.5326	1068.9505	1088.4598	1097.9732	1109.164	1131.7942	1172.5141	1190.3313	1215.6789	1255.9455	1297.8638	1348.8358	1410.6499	1428.4399	1481.3665	1489.8846	1490.9049	1504.0303	1873.2768	3030.0959	3094.214	3097.4541	3119.2057	3122.8974	3137.4662	3200.2395	3201.3812	3212.7605	3213.4061
CC1CC11C2CC2C1=O	C[C@H]1C[C@]21[C@H]1C[C@H]1C2=O	
InChI=1S/C8H10O/c1-4-3-8(4)6-2-5(6)7(8)9/h4-6H,2-3H2,1H3	InChI=1S/C8H10O/c1-4-3-8(4)6-2-5(6)7(8)9/h4-6H,2-3H2,1H3/t4-,5+,6-,8-/m0/s1
