18
gdb 18367	3.18462	2.31162	1.64016	2.0295	67.04	-0.2459	0.0767	0.3227	835.7963	0.155288	-384.931627	-384.92459	-384.923646	-384.962765	27.037	
C	 0.1141252126	 1.566788939	 0.0234962389	-0.407775
C	 0.1803281775	 0.0517560846	-0.0251750141	 0.120074
O	 1.0773237467	-0.349772091	-1.0645811582	-0.263557
C	 1.4206931465	-1.7049280886	-0.8142823937	-0.097185
C	 1.5682738542	-1.8152500654	 0.7043056796	-0.098884
C	 2.7533348455	-1.0458484203	 1.3229075853	-0.074146
O	 1.8920413086	 0.0178711514	 1.7820886523	-0.287508
C	 0.7232353668	-0.6289792305	 1.2385968155	 0.107139
H	 1.0838473536	 1.9705148221	 0.3211143289	 0.141376
H	-0.1550833162	 1.9648526298	-0.9581655023	 0.124058
H	-0.6388391685	 1.8928562044	 0.7476410641	 0.113961
H	-0.8211467009	-0.3718584176	-0.2252775538	 0.05923
H	 0.6275878998	-2.3838665181	-1.1698795184	 0.089304
H	 2.338436746	-1.9275394411	-1.366821727	 0.109813
H	 1.3799627104	-2.8130020351	 1.0995246855	 0.0817
H	 3.2556210491	-1.5466475489	 2.1592367391	 0.100525
H	 3.5056671589	-0.6870199992	 0.6097937907	 0.107042
H	-0.0412084006	-0.8011715656	 2.0031451576	 0.074832
117.8493	188.0812	218.6388	244.7009	340.6271	377.6276	523.2931	623.5598	710.2794	808.3674	826.2525	865.8887	889.2468	904.8773	958.6413	975.6429	1021.9594	1030.8171	1054.5771	1100.8924	1117.6046	1140.164	1158.1185	1168.2571	1206.6598	1242.6414	1263.0622	1317.73	1324.642	1339.7488	1369.1064	1372.4701	1397.0796	1409.7766	1485.735	1497.9085	1505.6989	1517.9021	2933.6841	2965.698	3015.7905	3049.7843	3058.2971	3060.8152	3082.085	3118.8635	3120.0196	3142.4682
CC1OCC2COC12	C[C@H]1OC[C@H]2CO[C@@H]12	
InChI=1S/C6H10O2/c1-4-6-5(2-7-4)3-8-6/h4-6H,2-3H2,1H3	InChI=1S/C6H10O2/c1-4-6-5(2-7-4)3-8-6/h4-6H,2-3H2,1H3/t4-,5+,6+/m1/s1
