18
gdb 50912	2.3863	1.10513	0.83497	3.6413	78.46	-0.2501	-0.0323	0.2178	1372.5322	0.145012	-401.88874	-401.879153	-401.878208	-401.924259	34.07	
O	-0.0063525246	-0.1670594333	 0.0343725689	-0.232205
C	 0.0616199269	 1.0297920659	-0.0546465007	 0.15687
C	 1.3480307103	 1.8219286298	-0.1659061497	-0.275855
C	 1.2643410178	 2.9365818102	-1.2429485487	-0.226909
C	 2.3827038086	 3.8656624511	-1.1050717315	 0.282847
C	 3.3262081842	 4.602801	-0.992449177	-0.424245
C	 1.1780423581	 2.3296153133	-2.6471361024	 0.028318
C	 1.5477788334	 3.09466184	-3.8588672899	-0.256105
N	 2.3823555485	 1.9660683863	-3.4007828813	-0.314169
H	-0.8606580143	 1.6599505753	-0.0360233707	 0.073308
H	 1.5157511123	 2.292796669	 0.8121106889	 0.136314
H	 2.179276144	 1.1399193189	-0.3602112601	 0.141582
H	 0.3322890011	 3.4959810596	-1.0686102291	 0.118795
H	 4.1463199732	 5.2692220757	-0.8829170109	 0.205468
H	 0.3811499736	 1.5918817865	-2.7309792578	 0.106413
H	 1.0145640372	 2.9247175461	-4.7896253232	 0.120963
H	 1.9299616229	 4.102204301	-3.7220763817	 0.123774
H	 3.2018186968	 2.3399980847	-2.9239401131	 0.234835
56.6043	67.1564	94.8682	144.2388	157.6301	218.2288	302.6918	356.7282	427.7398	452.5694	577.9169	622.0975	638.1499	660.8515	707.1291	806.321	849.9048	908.7495	961.4076	972.8032	993.9347	1030.3112	1076.0623	1102.4066	1131.3295	1148.7985	1193.5411	1206.4094	1261.7977	1270.8895	1310.0492	1328.5604	1351.9657	1412.5515	1429.5804	1454.7403	1507.5047	1840.7557	2232.3824	2838.7605	2990.1065	3030.4269	3113.2543	3115.7751	3117.1722	3202.7908	3477.041	3500.1229
O=CCC(C#C)C1CN1	O=CC[C@@H](C#C)[C@H]1CN1	
InChI=1S/C7H9NO/c1-2-6(3-4-9)7-5-8-7/h1,4,6-8H,3,5H2	InChI=1S/C7H9NO/c1-2-6(3-4-9)7-5-8-7/h1,4,6-8H,3,5H2/t6-,7-/m1/s1
