15
gdb 29008	3.05307	1.55102	1.03496	2.3554	77.19	-0.2531	-0.0837	0.1694	1082.0483	0.113361	-416.87287	-416.865212	-416.864267	-416.905235	28.015	
C	-0.3889306914	 1.4112368799	 0.2177095715	-0.467429
C	-0.1454620841	-0.0666819707	 0.127084075	 0.269027
N	-0.1937930045	-0.6148795823	-1.095425018	-0.283872
C	 0.0198843963	-1.9254853385	-1.1949020849	-0.005725
C	 0.2866375693	-2.7231865249	-0.0832094309	-0.031503
N	 0.3391254466	-2.2011211175	 1.1364464965	-0.285643
C	 0.1256130308	-0.8830588519	 1.2483480252	 0.181176
C	 0.2028813586	-0.3826365597	 2.6486803559	 0.101195
O	 0.0464180839	 0.7639774985	 2.9969244069	-0.266148
H	 0.465261924	 1.9249677798	 0.6678621695	 0.151723
H	-0.5725915539	 1.8001619854	-0.7846527386	 0.133539
H	-1.2412351358	 1.6316417764	 0.8667128882	 0.15172
H	-0.0224684143	-2.3559272331	-2.1925516724	 0.126466
H	 0.4587553952	-3.7914104047	-0.1818188506	 0.124339
H	 0.4268737595	-1.1979829168	 3.3673325368	 0.101134
97.0778	146.2243	182.8205	232.7445	279.4875	373.2231	455.3498	463.0662	523.9148	588.1117	679.5033	742.9417	795.699	883.435	908.4006	997.4704	999.998	1040.7325	1068.8377	1094.7031	1186.9314	1240.0174	1273.9687	1292.776	1396.1506	1406.7964	1428.9877	1452.1243	1475.2423	1493.1292	1583.3277	1594.0005	1803.0127	2929.0084	3053.5276	3111.3725	3151.9191	3156.7454	3176.736
CC1=NC=CN=C1C=O	Cc1nccnc1C=O	
InChI=1S/C6H6N2O/c1-5-6(4-9)8-3-2-7-5/h2-4H,1H3	InChI=1S/C6H6N2O/c1-5-6(4-9)8-3-2-7-5/h2-4H,1H3
