17
gdb 48556	3.60109	1.47092	1.36517	3.5171	77.08	-0.2323	-0.0141	0.2182	977.6882	0.137456	-384.663216	-384.656566	-384.655622	-384.694315	27.01	
O	-0.1402956977	 0.014866899	-0.0316401472	-0.281636
C	 0.0125767688	 1.215346948	-0.0815883882	 0.022368
C	 1.2898361849	 1.8973177736	 0.0581650138	 0.296584
C	 1.459941472	 3.3379067359	 0.5723475987	-0.136181
C	 2.6842547496	 3.4000670557	 1.4679919762	-0.236003
C	 3.5502165753	 2.3811957074	 0.7490147023	-0.076699
C	 3.2461192781	 2.379709409	-0.7384345933	-0.080919
C	 2.6969950473	 1.2810246947	 0.1515844551	-0.155156
C	 1.847726878	 3.0307674092	-0.8374549498	-0.132719
H	-0.8496476974	 1.9012580201	-0.2575013925	 0.05663
H	 0.5667933588	 3.9189513167	 0.7699563041	 0.100021
H	 3.1307826283	 4.4005635454	 1.4768905485	 0.107895
H	 2.4595795126	 3.1071557984	 2.4988546386	 0.111502
H	 4.5548221217	 2.1491971431	 1.080527339	 0.094005
H	 3.9842379279	 2.3257184417	-1.5255325537	 0.095976
H	 2.9201058031	 0.2248334571	 0.1736054882	 0.109386
H	 1.3819254286	 3.4514844952	-1.7176768698	 0.104946
103.7864	173.0316	271.1763	387.4708	458.7645	555.2951	662.1185	695.7819	721.9958	757.6638	772.9084	829.1754	857.2367	880.0829	896.6873	915.1847	951.2666	977.4801	988.0754	1003.8698	1031.8555	1042.0136	1051.0938	1072.3122	1079.0966	1146.1516	1188.8512	1204.7562	1243.5326	1275.8413	1277.4621	1331.0693	1375.1213	1401.3821	1444.5931	1489.8443	1789.5529	2848.3878	3043.6282	3087.925	3190.5466	3196.2109	3211.8923	3220.6671	3233.5042
O=CC12C3CC4C(C14)C23	O=C[C@@]12[C@H]3C[C@@H]4[C@@H]([C@H]14)[C@@H]23	
InChI=1S/C8H8O/c9-2-8-4-1-3-5(6(3)8)7(4)8/h2-7H,1H2	InChI=1S/C8H8O/c9-2-8-4-1-3-5(6(3)8)7(4)8/h2-7H,1H2/t3-,4+,5+,6-,7+,8-/m1/s1
