16
gdb 85387	2.00958	1.77742	0.9746	3.3129	66.9	-0.2721	-0.0217	0.2504	1155.6694	0.125242	-475.119646	-475.111648	-475.110703	-475.152446	29.742	
C	-0.0190791987	 1.5094380552	 0.0793326417	-0.40168
C	 0.018160449	-0.0035619795	-0.0371928736	 0.112409
C	 0.796521968	-0.5126221164	-1.2449758457	-0.337667
C	 0.9384569126	-2.0202550616	-1.1983084935	 0.409343
O	 1.0588154338	-2.7403621934	-2.1593193213	-0.33573
N	 0.9345577446	-2.5236091024	 0.0974204638	-0.400514
C	 0.9236442297	-1.801991828	 1.2948581249	 0.480408
O	 1.1720301373	-2.3104801016	 2.3520238201	-0.361643
O	 0.626420442	-0.4933942718	 1.1827656773	-0.247528
H	 0.9954693123	 1.914978828	 0.1331025089	 0.135453
H	-0.5234726869	 1.9409172013	-0.7899379362	 0.129131
H	-0.5596313985	 1.8079348157	 0.9805987693	 0.142538
H	-1.0058186942	-0.399996688	-0.0720911494	 0.106266
H	 0.3069494394	-0.2414991038	-2.1824028956	 0.146956
H	 1.8018655767	-0.0724815416	-1.2534644343	 0.145821
H	 1.1175202631	-3.5130354023	 0.2008261736	 0.276438
120.1523	132.7501	138.9614	234.0844	274.9894	369.9875	442.4959	457.5574	483.5018	575.9072	602.4292	652.6954	718.2844	775.4143	871.547	895.9309	924.2091	940.7299	1028.3775	1071.9274	1128.6773	1155.8922	1216.8867	1260.2041	1298.2516	1352.8007	1387.7731	1401.4274	1409.9529	1417.1597	1454.8202	1484.76	1498.8853	1830.8734	1866.7725	3016.2613	3043.6363	3049.3531	3121.8198	3126.9812	3132.8159	3607.0885
CC1CC(=O)NC(=O)O1	C[C@H]1CC(=O)NC(=O)O1	
InChI=1S/C5H7NO3/c1-3-2-4(7)6-5(8)9-3/h3H,2H2,1H3,(H,6,7,8)	InChI=1S/C5H7NO3/c1-3-2-4(7)6-5(8)9-3/h3H,2H2,1H3,(H,6,7,8)/t3-/m0/s1
