22
gdb 31768	2.86092	1.2544	0.94638	1.9521	91.52	-0.1832	0.0479	0.2312	1331.5281	0.193967	-367.263417	-367.253361	-367.252417	-367.298527	36.726	
C	-0.2915287565	 1.5317341868	-0.1137745998	-0.367567
C	 0.1078584617	 0.0489238297	 0.0101068793	-0.301908
C	 0.8193951536	-0.5056606067	-1.1849091835	 0.276369
C	 2.1622308802	-0.7566717709	-1.3585133972	-0.232623
C	 2.3490588147	-1.24649276	-2.6780932767	-0.227038
C	 1.1162024611	-1.2882405212	-3.2876014074	 0.278616
C	 0.7392543404	-1.7255643796	-4.6647246527	-0.504375
N	 0.1823959019	-0.8379520228	-2.3708128484	-0.088323
C	-1.2317301699	-0.700284525	-2.6466859992	-0.342284
H	 0.5898666532	 2.1509845932	-0.3046598108	 0.124605
H	-0.9937856498	 1.6947809243	-0.9375890567	 0.11204
H	-0.768600598	 1.8862861378	 0.8059954141	 0.108696
H	 0.7783363266	-0.0671141876	 0.8680193254	 0.112161
H	-0.782983181	-0.5480393282	 0.2498761729	 0.099293
H	 2.9229646053	-0.6080914355	-0.6063969548	 0.083505
H	 3.2799366821	-1.5468256798	-3.1357798725	 0.083659
H	 0.0669522469	-2.5940273992	-4.6664876212	 0.122798
H	 0.2418371104	-0.9339915809	-5.240167843	 0.121447
H	 1.6406823759	-2.0115413513	-5.2117303494	 0.133038
H	-1.5890378724	-1.5520768058	-3.2311161373	 0.135771
H	-1.7920753294	-0.6752323456	-1.7112611311	 0.140659
H	-1.4557141869	 0.2170378983	-3.2058889501	 0.13146
70.7361	87.1842	103.7543	168.8076	190.9891	209.8438	241.5772	288.86	322.3527	387.3019	467.6882	573.577	636.4844	670.2194	709.5717	720.5906	764.6396	788.8202	807.6423	941.2808	975.3062	1007.3729	1044.792	1060.6292	1064.6187	1081.4063	1146.936	1166.3131	1213.2574	1235.4967	1291.6673	1332.1334	1356.3079	1399.7374	1406.195	1417.7712	1443.9393	1467.6077	1479.115	1486.5042	1492.4097	1496.1895	1502.3078	1506.7398	1516.1192	1546.9833	1615.6256	3007.0228	3008.6756	3021.5424	3033.9611	3047.7814	3068.3654	3094.0212	3102.1963	3113.29	3119.0662	3141.3348	3231.6965	3247.5324
CCC1=CC=C(C)N1C	CCc1ccc(C)n1C	
InChI=1S/C8H13N/c1-4-8-6-5-7(2)9(8)3/h5-6H,4H2,1-3H3	InChI=1S/C8H13N/c1-4-8-6-5-7(2)9(8)3/h5-6H,4H2,1-3H3
