18
gdb 79643	2.12774	2.09117	1.67202	3.8346	69.14	-0.2378	0.0542	0.292	909.1677	0.150612	-439.040563	-439.033653	-439.032709	-439.071495	29.099	
O	 0.2420286926	 1.4068848264	-0.1324622447	-0.436723
C	 0.0224872514	 0.0291710419	-0.0753758665	 0.097605
C	-1.3442583065	-0.6185908846	 0.0627483868	-0.115106
C	-2.5898339264	 0.1778138974	-0.2704202975	-0.04372
N	-2.338810643	 1.602106901	-0.6360383402	-0.367161
C	-2.5447349069	 0.585803414	-1.6929816931	-0.066144
C	-1.2523362579	 0.0409750355	-2.3376480234	 0.114755
O	-0.4424612788	 1.0171973673	-2.9574198522	-0.441576
C	-0.5373670977	-0.7567728662	-1.231458901	-0.149629
H	-0.6494624193	 1.817421291	-0.1993220135	 0.309484
H	 0.820253687	-0.4641313686	 0.4745112322	 0.102989
H	-1.459907519	-1.4388722642	 0.7617168821	 0.087761
H	-3.515789881	-0.0571576905	 0.2421738929	 0.097856
H	-3.1806198929	 2.1573726825	-0.5156374995	 0.24207
H	-3.4343101336	 0.6841343251	-2.3057299568	 0.09742
H	-1.5576528862	-0.6465486045	-3.1347663715	 0.088588
H	 0.0310093673	 1.4686200215	-2.2438617246	 0.293863
H	-0.054817139	-1.685504265	-1.5159711694	 0.087669
163.4813	199.5519	312.888	351.2045	404.2356	504.9997	547.3654	572.6671	634.2228	703.2398	718.2202	754.242	770.1776	819.4272	837.4878	856.4129	879.0612	917.3578	970.8479	1017.9438	1037.4227	1044.7153	1070.7409	1078.0307	1107.5212	1118.1279	1128.5376	1159.2518	1219.1218	1252.7205	1287.0046	1313.1132	1332.9397	1365.9663	1367.7958	1376.8507	1432.9418	1472.67	1514.8752	3045.1455	3134.5361	3162.515	3167.6182	3172.5085	3183.8569	3386.4961	3517.388	3725.5719
OC1C2C3NC3C(O)C12	O[C@H]1[C@H]2[C@H]3N[C@H]3[C@@H](O)[C@@H]12	
InChI=1S/C6H9NO2/c8-5-1-2(5)6(9)4-3(1)7-4/h1-9H	InChI=1S/C6H9NO2/c8-5-1-2(5)6(9)4-3(1)7-4/h1-9H/t1-,2-,3-,4-,5+,6+/m1/s1
