21
gdb 38281	3.57477	1.4308	1.24029	0.0749	88.17	-0.1988	0.0316	0.2305	1096.5919	0.186625	-349.933273	-349.926186	-349.925242	-349.964792	29.242	
C	-0.0282215465	 1.5597565083	-0.1040544138	-0.203923
C	 1.5270488838	 1.3345454689	 0.0017817755	-0.164446
C	 1.1588458849	 0.1847560691	 1.008382939	-0.200614
C	-0.0391075805	-0.0111440926	 0.0097010272	-0.164446
C	 0.7420957487	-0.3674766483	-1.2589175248	 0.299578
C	 1.7543254345	 0.5022620388	-1.2640358104	 0.29958
C	 2.608679424	 0.4178434981	-2.490891455	-0.373146
C	 2.0670393014	-0.8967081766	-3.1513870105	-0.192009
C	 0.6897923109	-1.2309229627	-2.4811886639	-0.373147
H	-0.4569389911	 2.0638520352	 0.769450015	 0.087867
H	-0.4102215146	 1.998895724	-1.0292234566	 0.088642
H	 2.2154428199	 2.1375619645	 0.2630850896	 0.058982
H	 1.8682023323	-0.6402186792	 1.1098179995	 0.088594
H	 0.8459157156	 0.5547346225	 1.9906337838	 0.087663
H	-0.935074006	-0.5694584599	 0.2790156088	 0.058982
H	 2.4719308831	 1.2905100522	-3.1462803022	 0.100611
H	 3.6851384382	 0.3570686425	-2.2892113977	 0.09926
H	 1.9848653212	-0.8074649173	-4.2378035361	 0.096318
H	 2.7684672973	-1.7118717235	-2.9507386678	 0.105785
H	 0.5889884198	-2.3032380528	-2.2735558619	 0.09926
H	-0.1561389905	-0.9676078759	-3.1329915778	 0.100611
112.1901	131.8812	212.5377	357.5356	454.7689	511.8542	601.1264	609.12	666.4924	712.2617	804.398	819.925	827.641	850.4204	889.3326	899.1706	916.9121	931.4472	994.0943	997.338	1004.299	1051.5621	1067.3825	1088.6262	1104.2303	1105.7525	1157.0562	1185.1389	1187.4336	1210.7446	1226.6672	1227.0147	1228.4383	1248.1832	1274.4492	1285.5998	1318.79	1334.9585	1376.1827	1477.3047	1483.2547	1495.9361	1507.921	1514.9101	1703.8511	2994.9437	2995.2822	3031.9617	3032.5596	3035.5402	3043.7256	3059.839	3100.987	3104.8618	3111.8941	3119.6234	3121.3559
C1C2CC1C1=C2CCC1	C1[C@H]2C[C@@H]1C1=C2CCC1	
InChI=1S/C9H12/c1-2-8-6-4-7(5-6)9(8)3-1/h6-7H,1-5H2	InChI=1S/C9H12/c1-2-8-6-4-7(5-6)9(8)3-1/h6-7H,1-5H2/t6-,7+
