20
gdb 73721	2.62207	1.91587	1.41247	0.5576	77.97	-0.2287	0.0873	0.316	987.4681	0.173177	-403.112702	-403.105239	-403.104295	-403.144064	30.456	
C	 0.0292070115	 1.4621884391	-0.0019062711	-0.457111
C	 0.0738476651	-0.0532597911	 0.0259978236	 0.295315
C	 0.067957912	-0.6564299795	-1.3719077227	-0.148618
O	-0.0440742368	-2.0640236713	-1.4264474214	-0.243834
C	-1.0547664543	-2.5470022701	-0.557722909	-0.094197
C	-0.7617077813	-2.1243685355	 0.8683352548	 0.010732
C	 0.7379551458	-2.1750918207	 1.2634994188	-0.267007
C	 0.7032616744	-0.6528700303	 1.2293705519	-0.072042
N	-0.818567554	-0.6154137807	 1.0670068908	-0.19413
H	 0.9332080118	 1.8728719937	-0.4655430785	 0.115794
H	-0.8378790383	 1.8143914428	-0.5703575585	 0.122349
H	-0.0529040805	 1.8605657391	 1.0120838793	 0.131395
H	-0.7695814587	-0.1942980072	-1.9247722322	 0.090954
H	 0.9929916555	-0.3989200836	-1.8992264278	 0.113253
H	-2.0485353198	-2.1794840761	-0.865606466	 0.095851
H	-1.0444779684	-3.6373262194	-0.6539131622	 0.110292
H	-1.4419990466	-2.6090634513	 1.571560812	 0.082196
H	 0.8800157073	-2.5494176368	 2.2792938231	 0.107094
H	 1.4259017002	-2.683482748	 0.5856954282	 0.11516
H	 1.1971464751	-0.0161052532	 1.958675017	 0.086552
173.0536	195.9448	258.2919	298.312	321.6855	371.2487	407.3127	470.3834	539.3234	613.1461	715.377	745.2932	811.7248	839.8782	876.2295	893.2295	937.9451	981.3538	1002.5133	1021.9477	1029.865	1061.3661	1086.5818	1092.8357	1121.0401	1150.6385	1160.901	1209.208	1251.5637	1272.538	1282.2718	1300.6119	1328.0869	1358.8828	1382.7999	1412.1074	1412.3862	1440.46	1481.2146	1484.5557	1491.1761	1493.9432	1501.5743	2945.5493	2968.1993	3032.8838	3064.468	3071.1997	3076.7003	3088.4486	3097.0512	3122.5488	3125.3106	3142.5928
CC12COCC3CC1N23	C[C@@]12COC[C@H]3C[C@@H]1N23	
InChI=1S/C7H11NO/c1-7-4-9-3-5-2-6(7)8(5)7/h5-6H,2-4H2,1H3	InChI=1S/C7H11NO/c1-7-4-9-3-5-2-6(7)8(5)7/h5-6H,2-4H2,1H3/t5-,6+,7-,8?/m1/s1
