23
gdb 95338	2.96047	1.33582	1.0772	1.1848	85.47	-0.2399	0.0817	0.3216	1224.7378	0.208147	-388.296411	-388.288117	-388.287173	-388.328945	33.427	
C	-0.0799041876	 1.5236888918	 0.0802463811	-0.401559
C	-0.0084241006	 0.0057340605	 0.0021364668	 0.139887
C	 0.7466124884	-0.4943613739	-1.2348227216	-0.203898
C	 0.8890031789	-2.0285180866	-1.2537509626	-0.028891
C	 2.3147687929	-2.507413422	-1.6517918947	-0.227315
C	 2.6776972387	-2.5558986546	-0.1418274755	-0.23303
C	 1.1571931139	-2.6141532141	 0.17044214	 0.026634
C	 0.5684729661	-1.8489096895	 1.3454942106	-0.112035
O	 0.6540432758	-0.4442409765	 1.1815614465	-0.256226
H	 0.9279687736	 1.9500444786	 0.1070933935	 0.121535
H	-0.6055424489	 1.9310311756	-0.7887929888	 0.110883
H	-0.6065235768	 1.8359791688	 0.9859706903	 0.120358
H	-1.0341895913	-0.40697784	-0.0059979562	 0.055785
H	 0.2484968069	-0.1494068871	-2.1481992482	 0.091545
H	 1.7367497952	-0.0222954321	-1.2192931224	 0.097787
H	 0.0535026488	-2.4785505793	-1.7978041935	 0.058787
H	 2.298204767	-3.5085400832	-2.092318404	 0.096333
H	 2.8991878027	-1.8494552204	-2.3010218232	 0.092317
H	 3.2995854696	-3.383149361	 0.2086059651	 0.091308
H	 3.1167129018	-1.6160200718	 0.2042393817	 0.111656
H	 0.825789849	-3.6572466792	 0.2185076529	 0.067177
H	-0.4884810078	-2.139774604	 1.4816807643	 0.079607
H	 1.0984632737	-2.0818288201	 2.2760112879	 0.101356
107.766	157.3564	215.1469	231.3356	289.3801	333.3269	371.0953	453.4552	467.1683	490.0828	640.5247	696.9631	761.6674	803.4114	841.0299	877.1444	890.1228	920.2448	933.5928	937.1756	992.9528	1016.3049	1038.4156	1086.7094	1101.797	1126.421	1146.4211	1157.1285	1173.4874	1200.9065	1236.7699	1247.393	1258.3362	1269.3812	1276.3484	1308.4655	1323.5422	1357.5579	1366.1141	1377.6773	1392.7968	1408.9274	1418.7211	1475.0345	1483.1581	1487.1324	1488.8	1501.2024	1502.4497	2930.5536	2945.9458	3025.3602	3040.2484	3040.8953	3047.2969	3055.0494	3059.4756	3062.7917	3073.2022	3097.3267	3112.7586	3116.5833	3120.218
CC1CC2CCC2CO1	C[C@H]1C[C@H]2CC[C@H]2CO1	
InChI=1S/C8H14O/c1-6-4-7-2-3-8(7)5-9-6/h6-8H,2-5H2,1H3	InChI=1S/C8H14O/c1-6-4-7-2-3-8(7)5-9-6/h6-8H,2-5H2,1H3/t6-,7+,8-/m0/s1
