17
gdb 28872	2.38828	1.81333	1.04402	1.6248	77.67	-0.2483	-0.0229	0.2254	1112.2994	0.136928	-418.09303	-418.084574	-418.083629	-418.126295	31.112	
C	-0.0406912722	 1.4968606727	 0.0754743477	-0.484546
C	 0.0003534942	-0.0045577641	-0.0085317364	 0.26153
C	 0.0370317025	-0.6568343955	-1.2443673121	 0.135766
C	 0.0383426861	 0.0744321988	-2.5599271858	-0.512496
C	 0.0729485032	-2.0553989926	-1.1699737757	 0.376934
O	 0.1099207625	-2.778032872	-2.3054548925	-0.410435
N	 0.0729774786	-2.7328311413	-0.0257032192	-0.356357
C	 0.0360721155	-1.996069325	 1.0840337866	 0.058168
N	-0.0002657633	-0.6723783658	 1.1606710163	-0.316241
H	 0.835227364	 1.945442674	-0.4072592322	 0.134529
H	-0.9221184382	 1.8991834099	-0.4370433898	 0.134485
H	-0.0664087888	 1.803601799	 1.1212194499	 0.145026
H	 0.9026275991	 0.7433510239	-2.6446798545	 0.133367
H	 0.0697160909	-0.6256807041	-3.3950143568	 0.149917
H	-0.8567433552	 0.6972123321	-2.6720894034	 0.133365
H	 0.1301464331	-3.7051051456	-2.0285500486	 0.300982
H	 0.0357551379	-2.5425139444	 2.0245463566	 0.116006
80.6557	120.4488	126.4391	229.4363	287.9032	293.907	330.7492	503.9543	521.8878	526.0044	555.1569	565.2707	646.8354	694.4345	814.4458	878.9476	941.8224	986.8961	994.912	1041.714	1077.108	1102.7174	1158.9963	1235.6454	1308.7248	1315.9361	1356.7821	1401.9527	1417.6019	1453.8801	1470.5782	1480.8827	1486.284	1498.2796	1499.0715	1601.6428	1648.6271	3031.0375	3033.4525	3076.6956	3084.2006	3148.3694	3151.8516	3160.5837	3761.8406
CC1=C(C)C(O)=NC=N1	Cc1c(C)c(O)ncn1	
InChI=1S/C6H8N2O/c1-4-5(2)7-3-8-6(4)9/h3H,1-2H3,(H,7,8,9)	InChI=1S/C6H8N2O/c1-4-5(2)7-3-8-6(4)9/h3H,1-2H3,(H,7,8,9)
