16
gdb 44200	4.15834	1.19603	1.13948	2.3956	71.17	-0.2389	0.0162	0.2552	1095.1972	0.124225	-437.824818	-437.817427	-437.816483	-437.857097	28.172	
N	-0.2192234621	 1.2057009508	-0.0738174242	-0.5565
C	-0.1544464531	-0.044448993	-0.0618358219	 0.460691
O	 0.9628614224	-0.8904396151	-0.1260834355	-0.270902
C	 0.1133044086	-2.0460352013	 0.0759448196	-0.030439
C	-1.1321171185	-1.1611264145	 0.0444110919	-0.305035
C	-0.8115489126	-2.1616756401	-1.0733284111	 0.459014
C	-0.6198508946	-2.0056062828	-2.5752981947	-0.359274
C	-1.543481001	-3.2433832184	-2.6439739317	-0.081736
O	-1.6540904008	-3.2914233178	-1.1937150395	-0.315152
H	 0.7087314138	 1.6250056126	-0.150376394	 0.231804
H	 0.441357461	-2.8187825929	 0.7577859574	 0.131295
H	-2.0623003656	-1.1944637869	 0.5916553272	 0.132314
H	-1.0271528103	-1.0891095759	-3.0029867173	 0.13465
H	 0.4013538863	-2.154944508	-2.9268567349	 0.131657
H	-2.5207289638	-3.0874653874	-3.1107205414	 0.119423
H	-1.0892535897	-4.1583645493	-3.0363489801	 0.118191
80.7806	116.3633	189.7432	251.1529	388.1226	438.5671	469.7081	564.2054	670.2292	753.8204	791.8501	809.2717	858.7151	872.3573	877.761	931.6584	956.6464	967.455	977.2401	1001.8488	1021.3307	1053.1692	1109.7085	1136.3247	1163.1048	1167.0853	1207.8339	1217.0869	1251.6877	1289.506	1353.0466	1427.9017	1488.1502	1529.8742	1829.4939	3044.9971	3091.9443	3093.9244	3148.9516	3214.1238	3238.847	3482.9798
N=C1OC2C1C21CCO1	[NH][C]1O[C@H]2[C@@H]1[C@]12CCO1	
InChI=1S/C6H7NO2/c7-5-3-4(9-5)6(3)1-2-8-6/h3-4,7H,1-2H2	InChI=1S/C6H7NO2/c7-5-3-4(9-5)6(3)1-2-8-6/h3-4,7H,1-2H2/t3-,4-,6-/m0/s1
