16
gdb 41071	4.09489	1.87975	1.66155	2.5444	69.39	-0.2222	0.0611	0.2832	819.5986	0.126435	-400.598109	-400.592499	-400.591555	-400.62773	24.352	
C	 0.0066304434	 1.4661057198	 0.2549091012	-0.154558
O	 1.3830070807	 1.5858882992	-0.2688221981	-0.35654
C	 1.1734171836	 0.3286633088	-0.8722531875	 0.49138
C	 1.9184580101	-0.8940116512	-1.4216121707	-0.176746
C	 0.6937046362	-1.7562181056	-1.6247519506	-0.032279
C	-0.5033133426	-0.8055207029	-1.2508899079	-0.121274
C	 0.0027003686	-0.0800340549	 0.0150817583	-0.111562
C	 0.2958234752	 0.1653094077	-2.1701263592	-0.069758
N	 1.2213009047	-0.9097576977	-2.7455695067	-0.170241
H	-0.0368904798	 1.785670583	 1.2976210362	 0.12397
H	-0.6923787752	 2.0519291397	-0.3506922629	 0.117496
H	 2.9215175355	-1.2758468796	-1.2784012163	 0.103713
H	 0.7091492084	-2.8395528702	-1.6697981644	 0.100372
H	-1.5135346348	-1.170329879	-1.4289236544	 0.079357
H	 0.1724040347	-0.6612085159	 0.9232087703	 0.085485
H	-0.0830529186	 0.964118139	-2.8019441573	 0.091186
246.3505	338.777	383.1116	528.331	550.9153	685.8138	756.6098	776.3228	783.2232	798.3429	840.0379	869.9647	881.4444	890.9456	916.4946	936.225	964.3699	997.5326	1025.7982	1031.1253	1061.1253	1085.6255	1102.3488	1131.9283	1155.041	1171.6965	1188.483	1206.7468	1226.6162	1250.3315	1289.5426	1314.3501	1333.6223	1357.3656	1504.8052	3049.5762	3093.4425	3122.4913	3126.9241	3155.96	3172.5995	3196.2952
C1OC23C4C5C(C12)C3N45	C1O[C@@]23[C@H]4[C@H]5[C@@H]([C@H]12)[C@@H]3N45	
InChI=1S/C7H7NO/c1-2-3-4-6-7(2,9-1)5(3)8(4)6/h2-6H,1H2	InChI=1S/C7H7NO/c1-2-3-4-6-7(2,9-1)5(3)8(4)6/h2-6H,1H2/t2-,3+,4+,5-,6+,7-,8?/m0/s1
