20
gdb 18477	3.48261	1.49787	1.3166	1.5052	75.05	-0.2307	0.0873	0.318	1048.4853	0.176497	-348.966834	-348.958506	-348.957561	-348.999508	31.46	
C	-0.3755619772	 1.6933746157	 0.2434511938	-0.381216
C	-0.1603388129	 0.1946668487	-0.0022607542	-0.21016
C	 0.4933839482	-0.479512564	 1.1882437448	-0.000941
C	-0.2605227156	-1.1891241552	 2.2669543181	 0.076839
O	-1.3787652578	-1.909408558	 1.7343299336	-0.305492
C	-0.4729980811	-2.8313363318	 1.051876699	 0.159645
C	-0.8480859487	-3.1556436439	-0.3805505025	-0.413939
C	 0.7322539792	-1.9666367067	 1.4245935695	-0.202854
H	 0.5753627523	 2.2098287159	 0.4168591769	 0.110382
H	-0.8606204412	 2.1690521439	-0.6144388333	 0.110795
H	-1.0085887919	 1.8593764796	 1.1213886918	 0.12115
H	-1.1252049206	-0.2811074204	-0.1958657549	 0.118665
H	 0.4558313276	 0.0531436118	-0.8992366268	 0.092663
H	 1.3309951044	 0.0848055102	 1.6007203982	 0.083298
H	-0.2871933959	-0.9310522631	 3.3198909447	 0.097425
H	-0.4412203351	-3.761371915	 1.6371830209	 0.081397
H	-1.8527146698	-3.5901359576	-0.4149842063	 0.126459
H	-0.827591904	-2.2771616273	-1.0265376742	 0.126539
H	-0.1483282575	-3.8965716721	-0.7826227867	 0.117245
H	 1.7091975977	-2.3544248306	 1.6825156278	 0.0921
79.8496	150.4742	177.3483	209.1869	241.9822	264.8791	330.436	407.9003	547.6484	605.5427	716.1949	735.9721	791.6728	811.9484	860.1253	894.0265	926.8456	965.3646	1012.1747	1023.4329	1043.2726	1057.4044	1086.6046	1091.1866	1110.3527	1146.5886	1157.295	1214.2877	1263.372	1292.2505	1315.4508	1327.145	1365.6358	1395.7736	1407.4372	1410.2624	1451.0193	1482.9988	1491.8367	1495.9396	1499.2155	1505.9139	2998.067	3026.0099	3030.2709	3041.7031	3082.5405	3099.3844	3102.0608	3105.617	3110.0394	3148.4805	3170.1378	3194.7237
CCC1C2OC(C)C12	CC[C@H]1[C@H]2O[C@@H](C)[C@@H]12	
InChI=1S/C7H12O/c1-3-5-6-4(2)8-7(5)6/h4-7H,3H2,1-2H3	InChI=1S/C7H12O/c1-3-5-6-4(2)8-7(5)6/h4-7H,3H2,1-2H3/t4-,5+,6-,7+/m0/s1
