20
gdb 116617	2.22001	1.18679	0.84081	2.2746	79.09	-0.2556	0.0191	0.2747	1421.023	0.170592	-440.2795	-440.269893	-440.268948	-440.315187	34.266	
C	 0.6591724356	 0.0571520818	 0.4822560326	-0.364419
C	-0.6073118669	 0.5855574194	-0.1912813031	-0.152389
N	-1.7058470936	-0.3648792814	-0.022365091	-0.348348
C	-2.3823882705	-0.7260326277	-1.0141050477	 0.476351
O	-2.2926996779	-0.3971319273	-2.3533876217	-0.265984
C	-3.3062924179	-1.4000369016	-2.6936909819	-0.111085
C	-3.4780819479	-1.7495369815	-1.1983465244	-0.182322
C	-3.0829021524	-3.1327215071	-0.6754493139	-0.068423
O	-2.9178974755	-3.0959981859	 0.7234775154	-0.420504
H	 1.4672369431	 0.7918847902	 0.412434698	 0.112587
H	 0.4722649984	-0.1553913543	 1.5388884877	 0.125266
H	 0.996977079	-0.8684478644	 0.0057857566	 0.118254
H	-0.9062071829	 1.5268188068	 0.2870531395	 0.1124
H	-0.413744355	 0.8068338443	-1.2487331393	 0.112868
H	-4.1609024303	-0.9384135586	-3.1921829655	 0.12605
H	-2.8744553358	-2.1840092152	-3.3218776094	 0.12435
H	-4.4362128677	-1.4449090542	-0.7708140716	 0.115779
H	-3.8651165933	-3.86886416	-0.89012584	 0.109061
H	-2.165322371	-3.4654954608	-1.1906751932	 0.085607
H	-2.3350100975	-2.3455307125	 0.916515423	 0.294902
33.9737	84.5476	118.361	146.3635	184.5188	219.4663	267.8997	320.7386	392.7661	439.1013	539.0917	551.5028	690.7238	745.9812	802.6459	836.0595	895.5769	918.7187	959.6861	1005.7116	1057.3912	1080.3632	1090.903	1106.914	1134.7019	1141.7364	1163.6138	1182.8503	1200.9498	1260.0576	1301.6013	1316.1643	1364.2161	1381.8841	1389.423	1408.3214	1461.3717	1490.1793	1493.0381	1510.0344	1512.4461	1515.8352	1828.5762	2955.4161	3014.9134	3039.2106	3050.9015	3062.6979	3064.6098	3092.0057	3111.3716	3117.9944	3125.4052	3700.6061
CCN=C1OCC1CO	CCN=C1OC[C@H]1CO	
InChI=1S/C6H11NO2/c1-2-7-6-5(3-8)4-9-6/h5,8H,2-4H2,1H3	InChI=1S/C6H11NO2/c1-2-7-6-5(3-8)4-9-6/h5,8H,2-4H2,1H3/t5-/m1/s1
