21
gdb 110579	3.12357	1.25578	1.05283	1.4122	82.86	-0.2518	0.073	0.3248	1232.2215	0.182146	-387.020324	-387.011778	-387.010834	-387.053361	33.544	
C	 0.0652949764	 1.611775485	 0.1126399388	-0.375387
C	-0.1868710076	 0.1117454495	-0.0806961668	-0.218842
C	 0.5860083514	-0.4782574735	-1.2537117152	-0.061312
C	 2.0932358314	-0.8087934029	-1.1079182012	-0.054101
C	 1.8453440806	-2.1494781384	-0.3355832848	-0.119428
C	 2.7309516275	-2.959366564	-1.3042167591	-0.277915
C	 2.0311866639	-1.9252208192	-2.2083936481	-0.079094
C	 0.6955081119	-2.0124040614	-1.4139210238	 0.393623
O	-0.2916086095	-2.9330693935	-1.7148011554	-0.477948
H	 1.1234268592	 1.8129396691	 0.3109879892	 0.117338
H	-0.215464266	 2.1766663498	-0.7830913791	 0.115476
H	-0.513015135	 2.009593838	 0.9524111872	 0.110616
H	 0.0724176772	-0.4242508461	 0.841568924	 0.091138
H	-1.2611856995	-0.0546200226	-0.2412278489	 0.090612
H	 0.3367928105	 0.0449007015	-2.1874739571	 0.060022
H	 2.9310692939	-0.1335409551	-0.9452868962	 0.074701
H	 1.7271139313	-2.2640872455	 0.7428211428	 0.066645
H	 3.8137463639	-2.855237045	-1.1834315862	 0.08803
H	 2.4572850424	-4.0065921669	-1.4592313685	 0.101136
H	 2.1177172723	-1.7619205406	-3.2836916739	 0.070293
H	-0.9253044463	-2.9499358882	-0.9894509977	 0.284399
79.1204	146.5648	182.8065	239.1852	259.4144	288.7839	332.0994	378.347	510.9295	532.2913	642.7808	722.9075	764.3144	813.317	853.0639	874.6214	890.6464	913.1758	921.329	933.2174	984.7201	1004.0493	1040.7537	1055.5989	1073.4255	1094.3588	1104.174	1132.2669	1153.4116	1156.2912	1183.9955	1203.3163	1226.5215	1244.616	1274.3564	1280.9103	1305.3917	1348.4951	1379.8825	1409.7067	1427.13	1485.6706	1499.5002	1506.2688	1506.6785	3007.7615	3010.7293	3031.2452	3044.3015	3045.6866	3098.1134	3100.5661	3102.2022	3103.94	3105.4558	3136.7579	3805.7784
CCC1C2C3CC2C13O	CC[C@H]1[C@H]2[C@@H]3C[C@H]2[C@]13O	
InChI=1S/C8H12O/c1-2-4-7-5-3-6(7)8(4,5)9/h4-7,9H,2-3H2,1H3	InChI=1S/C8H12O/c1-2-4-7-5-3-6(7)8(4,5)9/h4-7,9H,2-3H2,1H3/t4-,5-,6+,7-,8-/m0/s1
