15
gdb 10028	3.34071	1.13627	0.87973	3.4214	71.37	-0.2722	-0.0056	0.2666	1298.7958	0.115789	-362.628717	-362.619186	-362.618242	-362.664746	31.143	
C	-0.0585305741	 1.4444611694	 0.1510665537	-0.245068
O	 0.2994142747	 0.0941124773	-0.0995742859	-0.226386
C	 0.7029152926	-0.6051222556	 1.0584285438	-0.18267
C	-0.4363964053	-0.7909013611	 1.9998561502	 0.280625
N	-1.3254121999	-0.8960731574	 2.729838483	-0.327426
C	 1.2715377258	-1.8952300552	 0.682131766	 0.008391
C	 1.7549053794	-2.9574883086	 0.3942673578	 0.185996
C	 2.329588471	-4.244113317	 0.0356792534	-0.503404
H	 0.7773966399	 2.0033386342	 0.597466354	 0.114252
H	-0.305859024	 1.8818400038	-0.8173424432	 0.142513
H	-0.9301755785	 1.5187360753	 0.814603652	 0.137412
H	 1.4622797624	-0.0180247144	 1.6055631047	 0.136553
H	 3.4013073955	-4.2765701646	 0.2578262096	 0.15626
H	 1.8452148824	-5.056889801	 0.5868197882	 0.161411
H	 2.2017117881	-4.4419658251	-1.0337332872	 0.161541
21.6992	79.3406	93.3309	121.6012	174.4805	231.7249	279.6915	298.2398	373.0593	384.018	480.6401	541.5811	601.7468	837.1243	910.812	980.251	1050.9506	1053.7491	1118.0728	1179.932	1184.4181	1212.4874	1331.2762	1347.0438	1412.688	1473.7457	1475.3334	1476.5369	1487.3189	1507.6874	2355.8262	2385.6955	2944.3481	2991.8033	3034.626	3054.3639	3099.4271	3100.3857	3138.3117
COC(C#N)C#CC	CO[C@@H](C#N)C#CC	
InChI=1S/C6H7NO/c1-3-4-6(5-7)8-2/h6H,1-2H3	InChI=1S/C6H7NO/c1-3-4-6(5-7)8-2/h6H,1-2H3/t6-/m1/s1
