25
gdb 122975	3.72771	0.52554	0.47673	1.8511	87.13	-0.2489	0.0828	0.3316	2350.7541	0.225869	-426.620197	-426.608144	-426.6072	-426.658882	41.823	
C	-0.154910743	 1.4187965759	 0.0837948624	-0.232968
O	 0.1030055089	 0.0397983953	-0.0208866715	-0.243153
C	 0.6846291879	-0.553315379	 1.1367072911	 0.138565
C	-0.3511777718	-0.7639111884	 2.2450111853	-0.402462
C	 1.3172871216	-1.8711770468	 0.686601118	-0.187977
C	 2.4371612896	-1.695848796	-0.3437169647	-0.188448
C	 3.0396658005	-3.0264387075	-0.8026384445	-0.166313
C	 4.1497526527	-2.8516018911	-1.8300037312	-0.074007
O	 4.6369222818	-4.139976198	-2.1779021207	-0.42241
H	 0.7531519621	 1.9844277971	 0.3473527773	 0.100826
H	-0.5056236681	 1.7563756418	-0.8951465939	 0.124517
H	-0.9307967202	 1.6532154883	 0.8274442595	 0.104572
H	 1.4811944804	 0.1136076468	 1.5128694782	 0.057677
H	-1.1505251192	-1.4251759426	 1.8954924555	 0.122372
H	 0.1155728637	-1.219042871	 3.1243664304	 0.113893
H	-0.8028951644	 0.1802716045	 2.5625580439	 0.113585
H	 1.7025053604	-2.3921965785	 1.5721447707	 0.091018
H	 0.5249581911	-2.5056962589	 0.2683722909	 0.102281
H	 2.0379163683	-1.146838838	-1.2036358325	 0.112062
H	 3.2278748209	-1.0644519397	 0.0863348631	 0.085168
H	 3.4461227826	-3.5775289599	 0.0548943177	 0.099991
H	 2.260531113	-3.6632978558	-1.2396003153	 0.104035
H	 3.7571082824	-2.3220130794	-2.7137329785	 0.083292
H	 4.9521765881	-2.2242187077	-1.4070907196	 0.080351
H	 5.3322988608	-4.0309461315	-2.8328332615	 0.283534
54.1805	59.139	66.3591	102.4388	137.0647	141.0524	188.9389	213.1025	251.6885	263.4045	274.5891	310.2184	393.9553	443.9554	511.9776	538.8621	742.1241	784.686	832.7001	907.2588	925.7036	1003.1386	1015.6773	1021.8979	1065.8762	1074.7026	1115.6757	1119.4825	1153.1679	1176.3686	1185.5885	1202.6226	1230.7899	1239.4764	1286.4143	1289.1602	1316.2271	1330.4189	1337.8621	1379.0515	1387.6997	1402.2538	1407.6478	1463.0917	1472.5004	1478.2859	1482.7979	1492.4167	1493.9374	1503.3073	1507.385	1513.599	1529.3301	2940.5918	2955.635	2973.1301	2980.5765	3006.7871	3020.0637	3020.6165	3028.2299	3038.8536	3054.3643	3062.2209	3084.1632	3105.6992	3109.3015	3112.8108	3830.6885
COC(C)CCCCO	CO[C@@H](C)CCCCO	
InChI=1S/C7H16O2/c1-7(9-2)5-3-4-6-8/h7-8H,3-6H2,1-2H3	InChI=1S/C7H16O2/c1-7(9-2)5-3-4-6-8/h7-8H,3-6H2,1-2H3/t7-/m0/s1
