18
gdb 93313	2.07881	1.68324	1.11092	3.8632	77.74	-0.2381	0.0201	0.2581	1131.8813	0.147597	-401.964867	-401.955961	-401.955017	-401.998435	33.388	
C	-0.2038662268	 1.5506009987	-0.0944616607	-0.415123
C	 0.0472124029	 0.0495791159	-0.0196375852	 0.015958
C	 0.9402748537	-0.5058745105	-1.151234215	-0.173663
N	 1.4313890894	-1.7467693949	-0.5808294652	-0.302048
C	 1.3849300461	-1.8191479164	 0.782254206	 0.406545
O	 1.7683578213	-2.731856493	 1.473402925	-0.372875
C	 0.7485187252	-0.4811269562	 1.2642755788	-0.305466
C	 1.7982038664	 0.3909611699	 1.7756693423	 0.359393
C	 2.674108519	 1.1083673761	 2.1803730586	-0.490684
H	 0.7290082395	 2.1124092177	 0.0027421525	 0.136528
H	-0.6686758662	 1.8152857506	-1.0502579236	 0.114322
H	-0.8761375998	 1.8770270873	 0.7047961981	 0.123491
H	-0.9112429357	-0.4793726942	-0.0798043472	 0.093249
H	 0.3716240672	-0.6844323232	-2.0692625646	 0.114501
H	 1.7588287523	 0.1895526011	-1.387043178	 0.114699
H	 1.9213404858	-2.452720479	-1.1070235426	 0.2544
H	 0.0329307602	-0.7002712111	 2.0618944268	 0.125664
H	 3.4471117296	 1.7317616312	 2.5565978039	 0.201109
70.8021	134.5557	165.3466	186.4512	217.5076	279.6744	379.9916	409.6749	452.8685	491.585	546.6159	623.6412	625.3868	638.8672	694.1658	720.1959	829.9485	890.0633	921.846	962.6137	984.6225	1065.2235	1086.5573	1140.0788	1160.09	1200.8195	1231.1526	1262.7818	1299.3475	1336.7141	1358.6626	1373.9543	1414.5065	1447.4689	1493.718	1499.2383	1527.894	1843.1863	2231.1609	3000.3754	3035.1028	3038.6162	3070.4248	3073.8378	3103.1233	3121.6889	3502.8581	3642.4308
CC1CNC(=O)C1C#C	C[C@H]1CNC(=O)[C@H]1C#C	
InChI=1S/C7H9NO/c1-3-6-5(2)4-8-7(6)9/h1,5-6H,4H2,2H3,(H,8,9)	InChI=1S/C7H9NO/c1-3-6-5(2)4-8-7(6)9/h1,5-6H,4H2,2H3,(H,8,9)/t5-,6-/m0/s1
