23
gdb 92352	2.686	1.44664	1.28554	1.4304	83.52	-0.2549	0.0737	0.3286	1115.7459	0.210219	-388.323715	-388.315943	-388.314999	-388.355411	32.682	
O	-0.1529767993	 1.5277539892	 0.160647077	-0.443137
C	 0.0056948838	 0.1190352641	 0.0228596524	 0.140428
C	 0.8239689738	-0.4859692463	 1.1778501125	-0.237746
C	 0.7020997976	-2.0222198952	 1.2333922605	 0.003775
C	 1.0011131929	-2.6849724303	-0.1376047424	-0.211785
C	-0.3641855891	-2.6858421018	-0.8969255665	-0.212122
C	-1.3718589673	-2.0231082195	 0.0799494279	-0.001633
C	-0.7766454668	-2.3915513306	 1.4515010394	-0.208762
C	-1.3988678068	-0.4886183069	-0.0605745426	-0.201424
H	 0.7245080557	 1.9229570659	 0.1831679565	 0.275769
H	 0.5301034265	-0.0959928251	-0.9220363891	 0.064141
H	 1.8763631889	-0.1872776592	 1.0750823271	 0.076911
H	 0.4596848059	-0.0541140859	 2.1184386851	 0.098033
H	 1.3560793771	-2.4101519767	 2.0201197807	 0.057744
H	 1.7869707891	-2.1573114842	-0.6869491351	 0.092239
H	 1.3554948831	-3.7093606182	 0.0113342022	 0.093679
H	-0.3128417719	-2.1576220401	-1.8538527909	 0.095272
H	-0.675606833	-3.710908037	-1.1192972398	 0.093313
H	-2.3837631243	-2.4149046181	-0.0590475402	 0.058786
H	-0.8833230617	-3.4654417326	 1.6455947495	 0.083992
H	-1.2394998256	-1.8511510708	 2.2836890724	 0.088328
H	-2.0073063423	-0.0552182816	 0.7427932627	 0.09986
H	-1.8629198365	-0.188338489	-1.0067066995	 0.094339
151.9489	186.2106	283.6261	314.5038	338.9097	348.5038	409.1465	457.0827	471.4184	515.4683	728.4869	750.0401	792.9042	818.7668	827.8003	880.9273	886.3736	898.6254	959.1328	969.2948	991.9879	1002.4515	1037.555	1039.8518	1063.6266	1092.2925	1117.6446	1139.7002	1172.8707	1180.6507	1216.0851	1226.7928	1261.4686	1277.7172	1293.7029	1311.1233	1314.4428	1327.9031	1351.5261	1354.0278	1364.3128	1376.4399	1403.2961	1444.7009	1484.5373	1489.4331	1492.7106	1501.0031	1518.0494	2964.2902	3006.9945	3029.1406	3029.7315	3041.0773	3049.6234	3055.1796	3058.5207	3066.5451	3072.1338	3075.2646	3080.4972	3096.9847	3812.3194
OC1CC2CCC(C2)C1	O[C@H]1C[C@@H]2CC[C@@H](C2)C1	
InChI=1S/C8H14O/c9-8-4-6-1-2-7(3-6)5-8/h6-9H,1-5H2	InChI=1S/C8H14O/c9-8-4-6-1-2-7(3-6)5-8/h6-9H,1-5H2/t6-,7+,8+
