20
gdb 39312	2.61077	1.86643	1.38186	0.7333	77.24	-0.2199	0.0779	0.2978	989.8104	0.174121	-403.106536	-403.099323	-403.098378	-403.138443	29.207	
C	 0.0943147516	 1.4392247975	-0.3948568987	-0.26225
C	 1.315095901	 0.6614867415	-0.059020923	 0.013358
C	 2.0407163	 0.850372801	 1.2607589139	-0.24535
C	 1.9315004019	-0.4414989001	 2.0852695039	-0.214093
C	 0.4737802977	-0.7588865991	 2.3726666531	 0.134646
O	-0.1298742976	 0.2215785034	 3.2540205787	-0.294894
C	-1.1581339684	 0.5335286987	 2.2953159722	-0.089219
C	-0.5545641094	-0.4303667379	 1.2452034756	-0.037858
N	-0.0135662674	 0.0270756002	-0.0356161986	-0.106731
H	-0.2148818521	 2.2006711504	 0.3179778948	 0.1113
H	-0.1602640453	 1.6677952738	-1.4270515164	 0.113847
H	 1.9392547563	 0.2992557666	-0.8752023795	 0.086875
H	 3.087374939	 1.1101539465	 1.0779169797	 0.100354
H	 1.6024274117	 1.6697516052	 1.8397033338	 0.11498
H	 2.3846474733	-1.281616788	 1.5435687947	 0.100563
H	 2.4599719505	-0.3447741782	 3.0400460569	 0.109532
H	 0.3639857848	-1.7688865681	 2.786613905	 0.071997
H	-2.1537669577	 0.2387100247	 2.6502619264	 0.100701
H	-1.1786233543	 1.600462768	 2.0468235854	 0.101262
H	-1.2235020658	-1.2648602159	 1.021980272	 0.090981
53.4062	193.4581	288.7769	334.9737	388.0311	453.8296	470.6999	521.2168	600.414	714.2815	781.0362	800.5061	848.2929	860.9408	906.4946	935.2284	955.505	990.2644	993.8987	1026.8753	1047.0369	1087.2698	1104.1537	1115.1465	1123.0409	1145.838	1163.8075	1175.3996	1203.8919	1217.3803	1263.8722	1293.9408	1329.3554	1341.4236	1354.7794	1363.1238	1383.742	1386.8032	1416.9614	1469.658	1492.0255	1505.8747	1529.9275	3014.65	3018.8794	3034.0097	3050.5084	3056.8949	3071.8475	3077.4071	3089.3144	3097.945	3109.6015	3176.7258
C1C2CCC3OCC3N12	C1[C@H]2CC[C@H]3OC[C@H]3N12	
InChI=1S/C7H11NO/c1-2-7-6(4-9-7)8-3-5(1)8/h5-7H,1-4H2	InChI=1S/C7H11NO/c1-2-7-6(4-9-7)8-3-5(1)8/h5-7H,1-4H2/t5-,6-,7-,8?/m1/s1
