20
gdb 92001	2.57131	1.52385	1.17273	2.5023	77.5	-0.2389	-0.0272	0.2117	1107.603	0.17117	-403.136859	-403.128325	-403.127381	-403.170094	32.411	
C	 1.0236273071	 1.2603962581	-0.4909300488	-0.415998
C	 0.3364026343	-0.0350496228	-0.0339888737	-0.017939
C	 0.4696419941	-1.2095133889	-1.0453597947	-0.239704
C	 1.4593728004	-2.1836953925	-0.4246705053	-0.0091
C	 2.7580359205	-1.6599285555	 0.0663204843	-0.260432
N	 1.6438628561	-1.8904214097	 1.0075747659	-0.108814
C	 0.8470003157	-0.6857099057	 1.3020359106	-0.078427
C	 1.5670523395	 0.2074928417	 2.2954044026	 0.151819
O	 1.232461865	 1.3309397506	 2.5743560656	-0.252716
H	 2.0931643957	 1.1334683534	-0.6848154579	 0.116418
H	 0.5648818881	 1.6061124259	-1.4232566075	 0.113161
H	 0.9112190943	 2.0459251835	 0.2581985277	 0.150313
H	-0.7219968067	 0.2054921763	 0.0976065214	 0.091131
H	-0.4918059293	-1.7161764515	-1.1796859875	 0.10762
H	 0.7884062524	-0.8604496269	-2.0327717294	 0.108925
H	 1.3776932569	-3.233973798	-0.6907475413	 0.093031
H	 3.5968006719	-2.3364785312	 0.2006540353	 0.120453
H	 3.0406848566	-0.6421901709	-0.1844551658	 0.118829
H	-0.0364961565	-1.0452496112	 1.8514240603	 0.117609
H	 2.4333210636	-0.2818946248	 2.7936118183	 0.09382
84.8414	104.9545	175.3077	215.6819	228.3999	315.8768	365.5952	381.3407	454.0157	573.4555	654.7367	717.4275	728.0062	761.6283	857.8769	866.6973	920.9055	932.7014	961.7996	1014.9362	1036.9379	1058.4689	1094.9758	1101.4519	1108.2333	1131.0296	1148.2063	1170.3572	1230.9571	1252.9848	1284.241	1296.6124	1322.1497	1336.1758	1377.3868	1390.6691	1408.8951	1418.4317	1487.4706	1497.9239	1502.1953	1516.5683	1825.5677	2889.2829	2990.3408	3039.9887	3043.8332	3061.5136	3084.4772	3101.3325	3120.6036	3140.064	3144.4731	3204.7917
CC1CC2CN2C1C=O	C[C@H]1C[C@H]2CN2[C@H]1C=O	
InChI=1S/C7H11NO/c1-5-2-6-3-8(6)7(5)4-9/h4-7H,2-3H2,1H3	InChI=1S/C7H11NO/c1-5-2-6-3-8(6)7(5)4-9/h4-7H,2-3H2,1H3/t5-,6-,7-,8?/m0/s1
