18
gdb 88247	3.36957	0.73475	0.67796	0.9037	87.5	-0.2242	0.031	0.2552	1695.9927	0.144877	-364.712347	-364.702429	-364.701485	-364.749174	35.227	
C	-0.9147587029	 0.5135593466	 0.6684850019	-0.312034
N	 0.2162610611	-0.1289037071	 0.010453677	-0.079358
C	 1.3291091467	 0.7228253925	-0.3660375682	-0.238535
C	 1.479030828	-0.2534748625	 0.7651552223	-0.176368
C	 1.6089880843	 0.2208063687	 2.1162878578	 0.117973
C	 1.7138529537	 0.577225235	 3.2620971466	 0.062233
C	 1.8501317181	 1.022310472	 4.6502465707	-0.492779
C	 1.4496411119	 2.4154545317	 4.858895463	 0.316871
C	 1.1207082308	 3.5554389715	 5.0415984656	-0.44373
H	-0.6323246416	 1.3462229547	 1.3289815508	 0.118555
H	-1.5919125817	 0.8910552573	-0.1037665845	 0.123047
H	-1.4528694014	-0.229665149	 1.2643648588	 0.126212
H	 1.7954717732	 0.5111908844	-1.3247675087	 0.119152
H	 1.2882317322	 1.775679291	-0.0917360733	 0.119139
H	 2.0011563877	-1.1864230918	 0.5639305168	 0.113469
H	 1.2560762799	 0.3733067731	 5.3088628887	 0.161654
H	 2.8926789138	 0.8933243243	 4.9731891066	 0.163311
H	 0.8304505063	 4.5644499876	 5.1999669281	 0.201186
13.3704	59.813	104.2237	165.7436	197.9716	260.3805	309.414	321.6093	374.5867	379.6982	436.6523	556.3361	614.3337	622.9722	650.2102	720.7053	771.3752	872.8726	933.2483	937.1758	982.8458	1028.5852	1067.6117	1115.1409	1127.0857	1162.1861	1197.138	1208.8039	1228.86	1320.2305	1334.6208	1377.5693	1450.4381	1453.0202	1489.5496	1494.0912	1508.7624	2247.3288	2365.1176	2997.5329	3006.1219	3029.7888	3079.0448	3094.0204	3110.0261	3125.0226	3183.5056	3506.8698
CN1CC1C#CCC#C	CN1C[C@H]1C#CCC#C	
InChI=1S/C8H9N/c1-3-4-5-6-8-7-9(8)2/h1,8H,4,7H2,2H3	InChI=1S/C8H9N/c1-3-4-5-6-8-7-9(8)2/h1,8H,4,7H2,2H3/t8-,9?/m1/s1
