15
gdb 44125	2.55029	1.60812	1.3132	5.9253	69.18	-0.2567	0.0024	0.259	983.9597	0.114578	-416.852357	-416.844986	-416.844042	-416.884521	27.981	
O	 0.0089628474	-0.0275309476	-0.0466017749	-0.348793
C	-0.0380006617	 1.1741023169	 0.0217983616	 0.405332
C	-1.296569493	 2.0617803378	 0.0662211873	-0.36523
C	-0.7764796704	 3.4868999081	 0.0304898164	-0.072928
C	 0.7233829639	 3.4076372391	 0.0393906307	-0.015754
N	 1.0542183611	 2.0253513086	 0.0609320391	-0.300321
C	 0.004003705	 3.9645774805	-1.1979272646	-0.221636
C	-0.0181981756	 3.2275103164	-2.4264978343	 0.304133
N	-0.0364175526	 2.625958817	-3.4147346231	-0.334505
H	-1.9426292865	 1.7986317822	-0.7754423304	 0.161324
H	-1.8535558418	 1.8612895065	 0.9857486472	 0.142795
H	-1.289963522	 4.2565894061	 0.5920567632	 0.117759
H	 1.3488397467	 4.0804139713	 0.6143851638	 0.124347
H	 1.9698557261	 1.6731682783	-0.1715685499	 0.264101
H	 0.0502515936	 5.0418207888	-1.3221384621	 0.139376
82.3282	130.4612	167.3762	338.3989	390.1087	463.2201	470.9113	564.4422	601.6382	638.1226	657.3116	736.8184	763.846	797.2723	849.9265	933.7964	949.0607	994.9019	1023.83	1051.9802	1084.0795	1131.5884	1188.5767	1202.0664	1233.434	1284.2946	1348.8141	1371.9128	1381.3962	1429.8283	1460.1213	1851.1848	2352.7158	3071.4393	3114.6336	3165.4236	3179.7897	3197.7685	3639.0383
O=C1CC2C(N1)C2C#N	O=C1C[C@H]2[C@@H](N1)[C@H]2C#N	
InChI=1S/C6H6N2O/c7-2-4-3-1-5(9)8-6(3)4/h3-4,6H,1H2,(H,8,9)	InChI=1S/C6H6N2O/c7-2-4-3-1-5(9)8-6(3)4/h3-4,6H,1H2,(H,8,9)/t3-,4+,6-/m1/s1
