19
gdb 86643	3.33412	1.15673	0.88598	5.4251	79.78	-0.2344	-0.0125	0.2219	1313.587	0.160091	-419.256843	-419.247921	-419.246977	-419.290852	32.572	
C	-0.7609223724	 1.2544983875	-0.0591806851	-0.408702
C	 0.2139775203	 0.0821145039	-0.0037593798	 0.011298
C	 1.2920262839	 0.1138119452	-1.1041706207	-0.181922
N	 2.3944768343	-0.6726690523	-0.547382237	-0.096654
C	 3.4072344149	-1.145431198	-1.3758905401	 0.080795
N	 4.4383205202	-1.7636975554	-0.9719284005	-0.41435
C	 2.3171307494	-0.7775315041	 0.8544098567	 0.412374
O	 3.0957866596	-1.3418063127	 1.5745170508	-0.328198
C	 1.0561630177	-0.0207948839	 1.2748858339	-0.340197
H	-0.2361441418	 2.2089297492	 0.0614407465	 0.120306
H	-1.296040877	 1.2839537888	-1.0145253156	 0.119077
H	-1.5074960341	 1.1807520903	 0.7373387648	 0.125849
H	-0.3453759537	-0.8548222787	-0.1173935412	 0.092871
H	 0.9433460806	-0.3184715782	-2.0470922135	 0.119177
H	 1.6123617133	 1.1465677217	-1.3063386482	 0.111222
H	 3.1847235515	-0.912448331	-2.425960783	 0.088394
H	 5.0179902762	-2.0130198646	-1.7722435882	 0.227105
H	 1.3620882082	 0.9727460174	 1.6295667992	 0.127816
H	 0.5677304789	-0.529929355	 2.1072440907	 0.133739
67.5061	110.0959	134.3491	205.2688	225.6249	239.5051	285.2715	403.9479	468.5127	483.6149	527.0019	614.5202	723.4629	758.2925	821.4562	862.8761	900.9808	946.9102	970.1498	1059.3652	1064.7707	1078.6079	1116.5664	1172.6352	1180.2487	1191.8692	1236.6963	1266.346	1276.6413	1313.6442	1355.679	1381.1127	1411.8102	1422.9212	1439.6906	1467.9427	1497.6336	1499.0587	1522.3624	1718.1941	1852.0581	2994.3218	3020.2316	3024.3485	3029.699	3036.6151	3073.5403	3096.7021	3106.6934	3121.5229	3492.7409
CC1CN(C=N)C(=O)C1	C[C@H]1CN([CH][NH])C(=O)C1	
InChI=1S/C6H10N2O/c1-5-2-6(9)8(3-5)4-7/h4-5,7H,2-3H2,1H3	InChI=1S/C6H10N2O/c1-5-2-6(9)8(3-5)4-7/h4-5,7H,2-3H2,1H3/t5-/m1/s1
