16
gdb 5748	4.76014	1.84428	1.43969	3.6513	71.08	-0.2144	0.0422	0.2566	872.1266	0.133005	-342.791166	-342.784336	-342.783392	-342.8225	25.497	
C	-0.2630533671	 1.5500247701	 0.0597817592	-0.397612
C	-0.0032661349	 0.048412638	 0.0316791339	-0.143079
C	 0.6848606342	-0.5381042124	-1.27494936	-0.188188
N	 1.7923288259	-0.9665056317	-0.3991187735	 0.016678
C	 3.004327089	-1.5299384227	-0.0749621851	-0.178559
C	 3.088897369	-1.3198426037	 1.2902336251	-0.090879
N	 1.9826016737	-0.6535288153	 1.8012365731	-0.376837
C	 1.2467093992	-0.4750509968	 0.730648484	 0.380714
H	 0.6321769493	 2.1114483128	-0.2253625901	 0.125849
H	-1.0744960817	 1.8210008074	-0.6236795395	 0.118441
H	-0.5498227568	 1.8668406122	 1.0667393929	 0.13965
H	-0.9130679661	-0.5017397384	 0.2933207357	 0.102538
H	 0.1601898494	-1.3643773902	-1.7618661353	 0.128589
H	 0.9764837923	 0.2105190518	-2.0169769731	 0.128174
H	 3.6657027639	-2.0037888676	-0.7793984044	 0.129266
H	 3.8990857907	-1.6179186537	 1.9393407071	 0.105256
69.9272	142.7906	229.1612	274.1569	426.5994	489.9732	621.7626	687.1978	713.7095	739.3875	753.4391	833.9117	844.0998	917.2611	946.262	1028.2484	1067.7539	1084.1807	1123.9421	1136.0643	1144.4602	1175.4757	1227.7056	1257.5943	1280.171	1346.8444	1405.5816	1417.51	1431.9005	1471.0789	1493.2804	1496.4829	1515.0011	1576.3899	3036.4676	3054.054	3056.5527	3107.3322	3111.1297	3116.258	3243.53	3287.7304
CC1CN2C=CN=C12	C[C@H]1Cn2ccnc12	
InChI=1S/C6H8N2/c1-5-4-8-3-2-7-6(5)8/h2-3,5H,4H2,1H3	InChI=1S/C6H8N2/c1-5-4-8-3-2-7-6(5)8/h2-3,5H,4H2,1H3/t5-/m0/s1
