20
gdb 73429	2.98668	1.89208	1.42169	1.247	81.03	-0.2103	0.0702	0.2805	970.8409	0.172927	-365.945836	-365.938503	-365.937559	-365.977625	30.088	
C	-0.0281301398	 1.4519879315	 0.0840988158	-0.461159
C	-0.018324148	-0.062655212	 0.0040673392	 0.309487
C	-1.2494740849	-0.6509581328	-0.658122354	-0.29174
C	-1.2028029863	-2.1946348155	-0.7210158718	-0.157254
N	-0.0102360662	-2.8087479582	-0.1459892268	-0.093513
C	 1.311070543	-2.2364506343	-0.2803124534	-0.07725
C	 0.6306015319	-2.3112074317	 1.0511762349	-0.07725
C	 0.656510382	-0.7523783265	 1.1659202584	-0.123577
C	 1.3482800661	-0.6763803165	-0.1876811369	-0.123583
H	 0.8768760291	 1.8336018325	 0.5679393257	 0.11356
H	-0.0874683048	 1.8951470278	-0.9167242964	 0.116002
H	-0.8920600416	 1.806728811	 0.6579822551	 0.116002
H	-2.1374799608	-0.3177908818	-0.1073169029	 0.096703
H	-1.3405403446	-0.2301597059	-1.6668723574	 0.096702
H	-2.0609215446	-2.6279161918	-0.1972806616	 0.106631
H	-1.2631974995	-2.5402063424	-1.7579979703	 0.106632
H	 2.1079950768	-2.8383686576	-0.7030793638	 0.090821
H	 0.783818515	-2.9838472396	 1.8879593072	 0.090822
H	 0.9183411926	-0.2328057963	 2.0791175842	 0.080982
H	 2.2165982346	-0.0901729998	-0.4612219852	 0.080983
54.3564	220.2394	256.5568	311.8695	377.9801	472.7469	503.2042	515.0135	638.8327	699.6963	738.5893	783.0713	818.5548	832.6395	834.2468	880.0469	911.3082	913.4495	968.1423	982.397	1012.5355	1029.0114	1046.4932	1051.0922	1066.3421	1095.0194	1132.3522	1151.0323	1232.045	1246.7039	1247.2489	1271.2236	1276.7496	1311.2788	1321.3489	1378.88	1394.6601	1413.738	1430.1435	1485.1228	1490.5775	1501.2342	1508.3493	3016.5333	3022.3924	3043.0635	3045.6917	3082.0735	3084.3239	3096.5908	3160.3137	3171.3772	3183.6228	3194.2635
CC12CCN3C4C3C1C24	C[C@]12CCN3[C@@H]4[C@H]3[C@H]1[C@H]24	
InChI=1S/C8H11N/c1-8-2-3-9-6-4(8)5(8)7(6)9/h4-7H,2-3H2,1H3	InChI=1S/C8H11N/c1-8-2-3-9-6-4(8)5(8)7(6)9/h4-7H,2-3H2,1H3/t4-,5+,6-,7+,8+,9?
