29
gdb 117715	3.03725	0.67789	0.64395	0.072	100.2	-0.2899	0.0771	0.367	2003.0799	0.272721	-354.778812	-354.766336	-354.765392	-354.81726	45.67	
C	 0.0738361838	 1.6749695458	 0.1749255798	-0.375824
C	-0.0011777294	 0.1542751512	 0.0004285531	-0.192441
C	 0.6875133196	-0.5947829703	 1.1493560098	-0.167424
C	 0.6888905455	-2.1467391714	 1.1034066059	 0.247201
C	-0.756113897	-2.6813424671	 1.1119506361	-0.409409
C	 1.4135109845	-2.6416393024	-0.1630518309	-0.409407
C	 1.444392981	-2.6210649786	 2.3741917608	-0.167417
C	 1.5993126202	-4.1323509543	 2.5919657592	-0.19244
C	 2.3633003065	-4.4552152777	 3.8806366499	-0.375826
H	 1.1135223725	 2.0195777634	 0.2110399442	 0.112269
H	-0.4208321947	 2.1966037131	-0.6505626902	 0.108519
H	-0.4092626206	 1.9919920912	 1.106118867	 0.112268
H	-1.0536188804	-0.1450871715	-0.0686161607	 0.096955
H	 0.4583542867	-0.117717203	-0.9571018142	 0.096956
H	 1.7312368127	-0.2540524526	 1.207039763	 0.084257
H	 0.2209140817	-0.2816452177	 2.0943472917	 0.084258
H	-1.3139378201	-2.3413540768	 0.2343659113	 0.110781
H	-0.7783844796	-3.7750943196	 1.1005309912	 0.110787
H	-1.2977187101	-2.3449655709	 2.003624067	 0.104446
H	 2.4463306338	-2.2760012068	-0.1969710224	 0.104449
H	 1.4445847552	-3.7344195775	-0.2052743989	 0.110782
H	 0.9087100837	-2.3011382888	-1.0719817642	 0.110785
H	 2.446618817	-2.1691550811	 2.3640998074	 0.084256
H	 0.9365354142	-2.1961006942	 3.2518404285	 0.084257
H	 0.6138870953	-4.6112309342	 2.6323130583	 0.096959
H	 2.1253517136	-4.5845251222	 1.7429433582	 0.096952
H	 2.4664961932	-5.5355354716	 4.0237738523	 0.108518
H	 3.3706533944	-4.023992327	 3.8635310944	 0.112269
H	 1.8482985771	-4.0507235074	 4.7593678723	 0.112268
31.8395	65.8627	90.4004	108.0131	117.2899	236.3508	237.9582	254.2987	257.2743	263.9149	302.4602	329.8491	332.8593	341.285	411.918	435.1783	575.3338	740.1887	749.0788	751.8283	858.6422	865.9254	869.1621	932.9089	939.3359	942.8537	984.8165	1010.7149	1030.0249	1049.9179	1057.4198	1089.6967	1126.4534	1131.8186	1211.3182	1231.0926	1244.6836	1270.5374	1302.0268	1324.6859	1327.0733	1332.3716	1369.2758	1389.7161	1402.2601	1403.3216	1412.1432	1412.6882	1427.8562	1470.9315	1482.8239	1483.0803	1492.5871	1494.4156	1498.096	1501.0831	1503.6555	1508.2724	1509.0459	1510.3509	1518.6776	2991.9572	2999.2763	3023.1774	3027.0255	3027.2465	3028.1623	3030.8689	3030.9711	3031.5727	3036.6828	3063.309	3066.1983	3094.746	3095.3351	3097.4998	3098.1948	3099.1372	3100.2742	3104.3247	3107.7475
CCCC(C)(C)CCC	CCCC(C)(C)CCC	
InChI=1S/C9H20/c1-5-7-9(3,4)8-6-2/h5-8H2,1-4H3	InChI=1S/C9H20/c1-5-7-9(3,4)8-6-2/h5-8H2,1-4H3
