14
gdb 19815	4.38448	2.0488	1.8668	4.2555	59.57	-0.2584	0.0041	0.2625	732.2021	0.108565	-382.518384	-382.512577	-382.511632	-382.548238	23.064	
O	-0.0867377756	 0.0377123301	 0.0115387956	-0.320584
C	 0.0105962754	 1.2209265004	 0.0318016298	 0.440062
O	-1.0222512882	 2.1441687295	 0.0953564569	-0.263525
C	-0.0824400412	 3.2706027256	 0.0278376781	 0.103988
C	 0.391946574	 3.8525850057	 1.3741577981	-0.061761
C	 0.5165151515	 2.7789982739	 2.4179719156	-0.304798
C	 1.5767342409	 2.8711751234	 1.3625233276	-0.054823
C	 1.1016360657	 2.3002275704	-0.0053899509	-0.230772
H	-0.3373315004	 3.958269096	-0.7753607116	 0.105041
H	 0.3695668228	 4.9054797088	 1.6230896441	 0.098675
H	 0.8219034482	 3.1410360039	 3.3940276381	 0.12392
H	-0.185658034	 1.9521452236	 2.4507238782	 0.147658
H	 2.6167111249	 3.0521843877	 1.5981201804	 0.105745
H	 1.833343196	 2.2645834309	-0.8087956202	 0.111175
139.2658	241.2918	361.7541	474.7458	534.2973	681.0239	710.509	746.6709	787.7519	806.7161	871.7893	896.0698	905.5337	941.9487	974.1492	989.9024	1032.686	1047.9054	1067.4006	1088.4063	1090.626	1170.9728	1191.0092	1223.0303	1239.2045	1293.2379	1309.4728	1355.3252	1496.0738	1934.553	3132.4588	3143.9635	3154.7249	3196.2653	3205.2859	3218.5325
O=C1OC2C3CC3C12	O=C1O[C@H]2[C@H]3C[C@H]3[C@@H]12	
InChI=1S/C6H6O2/c7-6-4-2-1-3(2)5(4)8-6/h2-5H,1H2	InChI=1S/C6H6O2/c7-6-4-2-1-3(2)5(4)8-6/h2-5H,1H2/t2-,3+,4-,5+/m1/s1
