20
gdb 10402	2.48442	1.88273	1.34766	0.6498	80.73	-0.2528	0.0518	0.3047	1021.5615	0.17572	-311.832704	-311.823853	-311.822909	-311.865707	33.544	
C	 0.1566346814	 1.4165457398	 0.2301405142	-0.391689
C	 0.0801635178	-0.0727469798	-0.1116791276	-0.228447
C	 0.6952167596	-0.4486335226	-1.4771854734	 0.156619
C	 2.2679621248	-0.4069496494	-1.4727981524	-0.250328
C	 2.2944987869	-1.9401234444	-1.243597344	-0.216436
C	 0.8010963868	-2.0065624264	-1.6552733019	-0.256569
C	 0.0430458721	 0.2611052875	-2.5654014922	 0.273341
C	-0.4936706719	 0.8344392158	-3.4776020749	-0.460294
H	 1.1928093731	 1.7691939626	 0.2665099019	 0.115161
H	-0.3732740487	 2.0158785748	-0.5156106415	 0.132603
H	-0.2937042834	 1.6129564607	 1.2079581443	 0.111334
H	 0.5898851751	-0.6591818366	 0.6631877137	 0.093528
H	-0.9671706471	-0.3985169839	-0.1089840716	 0.103266
H	 2.6630022372	-0.122625981	-2.450012647	 0.111577
H	 2.7299890183	 0.2265682892	-0.7116114527	 0.101705
H	 2.9965399054	-2.5141959763	-1.8514693943	 0.101311
H	 2.4551864226	-2.2067205484	-0.1959888874	 0.10469
H	 0.1267993139	-2.599812962	-1.0319896304	 0.099818
H	 0.666912426	-2.300426018	-2.6980901098	 0.110603
H	-0.9650376699	 1.3411190986	-4.2828233832	 0.188208
104.4485	117.6448	162.4089	176.9956	214.1881	256.642	342.8558	394.7569	525.7212	533.4831	598.4919	618.0594	619.5717	697.2698	784.6142	795.1075	852.5624	883.1071	948.9601	959.7004	966.8695	1018.7579	1035.4251	1051.6422	1125.2562	1170.5075	1211.3298	1213.5643	1257.1102	1266.6421	1274.7028	1284.7848	1334.2231	1360.8099	1412.5674	1472.0197	1481.5213	1483.9703	1497.8085	1505.4556	1507.2592	2224.1234	3021.7566	3037.7176	3058.0157	3060.4818	3063.0863	3070.6164	3102.3557	3105.0099	3116.8805	3120.5719	3130.9489	3501.8676
CCC1(CCC1)C#C	CCC1(CCC1)C#C	
InChI=1S/C8H12/c1-3-8(4-2)6-5-7-8/h1H,4-7H2,2H3	InChI=1S/C8H12/c1-3-8(4-2)6-5-7-8/h1H,4-7H2,2H3
