18
gdb 78180	2.12986	1.83952	1.27783	3.8384	72.1	-0.2469	-0.0017	0.2452	1051.0063	0.147712	-439.100964	-439.09273	-439.091786	-439.133627	31.151	
C	 0.3561564047	 1.6453122216	-0.2661994676	-0.400605
C	 0.4304206531	 0.1251435095	-0.2761855642	 0.086216
O	 1.3542476334	-0.3107994793	-1.3007425685	-0.234305
C	 2.4971929871	-0.8396369317	-0.7662258569	 0.429886
O	 3.4605197371	-1.0866260843	-1.4316864046	-0.339944
C	 2.3012905649	-1.0432389609	 0.7108058493	-0.187471
C	 0.963225534	-0.454610702	 1.0285477011	-0.052675
N	 1.1737683786	-1.8804070384	 1.1256490025	-0.097499
C	 0.5358033095	-2.8290960159	 0.215906643	-0.33676
H	 1.3188301032	 2.0803077967	 0.0196761583	 0.131868
H	 0.0892189592	 2.0173354225	-1.2581967638	 0.139948
H	-0.4032327183	 1.9813393809	 0.4471135054	 0.125105
H	-0.5453225852	-0.2979331976	-0.5411761636	 0.103746
H	 3.1781294978	-1.0351552994	 1.3478131351	 0.120336
H	 0.749387188	 0.0738684352	 1.9533313668	 0.108481
H	 0.432819418	-2.4906991607	-0.8231847371	 0.134489
H	 1.1215746995	-3.752164335	 0.2211676476	 0.139583
H	-0.4591654444	-3.0576457411	 0.6096750069	 0.129599
121.3182	133.0683	199.4682	212.6162	234.9552	295.1853	387.4582	421.2151	471.3739	551.5495	650.0539	687.0047	748.9084	783.3989	858.8687	868.5454	929.3484	945.9721	994.0936	1032.7734	1087.5185	1090.972	1126.9248	1146.8536	1167.3365	1181.6584	1183.7256	1281.6517	1304.3195	1351.8731	1366.1273	1401.4762	1409.445	1456.2861	1486.4608	1494.4303	1495.5061	1509.2066	1876.4123	3017.6834	3042.0849	3045.9841	3089.216	3115.2733	3116.7987	3129.6928	3150.9012	3184.9987
CC1OC(=O)C2C1N2C	C[C@H]1OC(=O)[C@H]2[C@@H]1N2C	
InChI=1S/C6H9NO2/c1-3-4-5(7(4)2)6(8)9-3/h3-5H,1-2H3	InChI=1S/C6H9NO2/c1-3-4-5(7(4)2)6(8)9-3/h3-5H,1-2H3/t3-,4-,5-,7?/m1/s1
