15
gdb 132100	3.0104	1.42741	0.97414	2.9286	75.31	-0.2119	-0.0445	0.1674	1139.5159	0.112046	-461.95216	-461.944275	-461.94333	-461.984773	29.396	
C	-0.02033092	 1.5637746428	 0.0208265202	-0.50083
C	-0.0004834835	 0.0605115336	 0.0117019333	-0.02762
C	-0.0739383898	-0.667978418	-1.1167967924	 0.353778
F	-0.1702231617	-0.1483245475	-2.3245275894	-0.041736
O	-0.0614560874	-1.9972572964	-1.1934901629	-0.251912
C	 0.03525102	-2.8057180859	-0.0356377635	 0.390564
N	 0.0443489063	-4.0674210091	-0.1475075253	-0.533512
C	 0.1168951041	-2.0703664526	 1.2063560385	-0.169226
C	 0.0995342157	-0.7206562092	 1.2212024185	-0.104311
H	 0.8923523174	 1.9690111217	 0.4725179028	 0.1357
H	-0.1005490852	 1.9626945838	-0.991696407	 0.141494
H	-0.8674538689	 1.944967347	 0.6024700612	 0.135701
H	-0.0237687119	-4.3550066843	-1.1230544485	 0.227148
H	 0.1914878992	-2.6663318627	 2.1057363598	 0.127135
H	 0.1620271356	-0.1884271132	 2.1656435248	 0.117628
98.9091	118.9849	198.5521	271.2801	276.9654	344.4877	425.0804	466.7193	512.5076	572.0005	657.0579	718.8802	722.1174	776.9202	816.454	849.3573	911.5129	981.8123	995.0354	1062.7151	1068.1417	1157.2944	1182.634	1255.7005	1273.3709	1372.9618	1422.9207	1439.5458	1489.6353	1497.7084	1607.8915	1710.2228	1762.0949	3030.7471	3079.3201	3137.8983	3179.6163	3233.6763	3503.602
CC1=C(F)OC(=N)C=C1	CC1=C(F)OC(=CC1)[NH]	
InChI=1S/C6H6FNO/c1-4-2-3-5(8)9-6(4)7/h2-3,8H,1H3	InChI=1S/C6H7FNO/c1-4-2-3-5(8)9-6(4)7/h3,8H,2H2,1H3
