16
gdb 107537	2.04664	1.72158	1.1251	5.238	69.08	-0.2806	0.0234	0.3039	1088.1723	0.123612	-437.852779	-437.84438	-437.843436	-437.886413	30.579	
O	-0.0524840947	 1.4526002654	 0.1986934377	-0.404737
C	 0.0340805079	 0.0541582144	-0.000290216	-0.182831
C	-1.3189561415	-0.5651464768	-0.1461087124	 0.389307
O	-2.0751438487	-0.8245364778	 1.0423743431	-0.276639
C	-1.881562928	-1.9010125205	 0.117096826	-0.050551
C	-2.9476384743	-1.7462277014	-0.9734367541	-0.261932
C	-2.3559311539	-0.3122233086	-1.2740690696	-0.22407
C	-3.2315777051	 0.8364296752	-1.1080092563	 0.291295
N	-3.9376072194	 1.7416830525	-0.9743434743	-0.328283
H	-0.5747094833	 1.6068392212	 0.9941081006	 0.301775
H	 0.6121221388	-0.08459872	-0.9200423672	 0.119679
H	 0.5667536381	-0.4558239931	 0.8161724181	 0.108913
H	-1.4139851516	-2.8026830753	 0.4943191612	 0.120639
H	-2.8212790418	-2.4216892659	-1.8211855569	 0.124503
H	-3.9785861687	-1.7747779489	-0.6188575819	 0.140357
H	-1.8832901237	-0.2763873103	-2.2587904878	 0.132574
62.8325	92.6949	133.803	212.7575	279.8701	317.0254	397.5964	421.5826	471.1993	537.8338	582.4637	715.3755	744.442	799.6529	894.7534	904.1705	962.6903	970.1191	1012.372	1032.8744	1065.294	1083.0927	1143.1755	1155.4444	1187.6752	1232.6001	1257.7917	1275.4505	1331.4925	1366.5466	1418.8943	1461.2653	1484.4808	1487.6855	2359.5733	2999.6529	3077.5506	3084.1837	3089.7108	3149.6467	3196.0737	3806.1211
OCC12OC1CC2C#N	OC[C@]12O[C@H]1C[C@H]2C#N	
InChI=1S/C6H7NO2/c7-2-4-1-5-6(4,3-8)9-5/h4-5,8H,1,3H2	InChI=1S/C6H7NO2/c7-2-4-1-5-6(4,3-8)9-5/h4-5,8H,1,3H2/t4-,5-,6+/m0/s1
