23
gdb 41490	3.05298	1.35977	0.99897	0.1856	91.87	-0.2132	0.0393	0.2525	1260.9782	0.209713	-351.206163	-351.198093	-351.197149	-351.238661	32.385	
C	 0.0918621981	 1.4474346928	-0.3551581764	-0.206495
C	 1.4375254934	 1.9558117314	 0.2238765804	-0.31185
C	 2.124113437	 0.6891282138	 0.6800690305	 0.254602
C	 1.2936592898	-0.3601099711	 0.6754805998	 0.250589
C	-0.0998165966	 0.0257684447	 0.2343492355	-0.311286
C	 1.6861054376	-1.7446306513	 1.1036514283	-0.313011
C	 3.2155393232	-1.8840528792	 1.2046265561	-0.194301
C	 3.8422447105	-0.6708346434	 1.9059769751	-0.193032
C	 3.5527629088	 0.6319617553	 1.1392755161	-0.314109
H	-0.7443856148	 2.1154739773	-0.1331871559	 0.09313
H	 0.167349656	 1.380539503	-1.4450465159	 0.101667
H	 2.0252433105	 2.5172762307	-0.5135074336	 0.094547
H	 1.2883696246	 2.6401285036	 1.0728025304	 0.096905
H	-0.7916969629	 0.0256710529	 1.0901845755	 0.097261
H	-0.524580492	-0.6754172114	-0.4949717215	 0.093121
H	 1.2195826239	-1.980671255	 2.0730155162	 0.100602
H	 1.2834934668	-2.487499373	 0.4016850606	 0.095619
H	 3.4765328667	-2.8081321694	 1.7317468722	 0.088576
H	 3.634891644	-1.9693058759	 0.1935825342	 0.095924
H	 3.4264751232	-0.5899024861	 2.9189162073	 0.095408
H	 4.9227069751	-0.8103855644	 2.0205526763	 0.088492
H	 4.2257261319	 0.7201087082	 0.2721955503	 0.10105
H	 3.7816506453	 1.5013338765	 1.7706533487	 0.096593
100.4138	142.2324	171.5044	287.1792	293.5079	333.3149	430.026	474.0514	514.186	607.3433	642.7394	708.7076	824.9488	842.9445	859.3853	881.4368	902.0709	909.4661	920.145	953.103	1017.2124	1038.5962	1065.5492	1087.5131	1098.7122	1147.2791	1155.2852	1160.2083	1178.8335	1204.0094	1231.5078	1251.1029	1264.6566	1291.4796	1316.0638	1328.233	1335.2095	1369.8551	1370.0247	1386.5231	1397.4327	1473.4932	1479.3826	1484.2884	1488.7085	1490.9206	1498.8032	1508.1457	1737.9765	2983.8286	2986.0479	2992.1239	2992.456	3013.3308	3016.1686	3028.76	3030.132	3030.7009	3034.4265	3056.4594	3066.2073	3070.1036	3097.0898
C1CC2=C(C1)CCCC2	C1CC2=C(C1)CCCC2	
InChI=1S/C9H14/c1-2-5-9-7-3-6-8(9)4-1/h1-7H2	InChI=1S/C9H14/c1-2-5-9-7-3-6-8(9)4-1/h1-7H2
