18
gdb 33567	2.28162	1.47456	1.1793	3.8853	81.21	-0.2778	0.0138	0.2916	1127.1801	0.147859	-364.807186	-364.798294	-364.79735	-364.841368	32.866	
C	-0.2344521426	-1.2918882787	-0.5576846571	-0.387617
C	-0.1095063521	-0.1349856877	-0.2612135787	 0.243537
C	 0.0662947549	 1.2599810046	 0.1338705124	-0.059654
C	-0.4406804611	 1.5617802047	 1.5795150492	-0.225641
C	 0.2536326525	 2.8826201654	 1.9710079903	-0.222222
C	 1.5424363598	 2.9688036241	 1.1000044914	-0.222875
C	 1.5636695643	 1.6888537823	 0.2402448634	-0.225276
C	-0.6293691309	 2.1409421058	-0.8241108401	 0.281496
N	-1.1627952031	 2.8606896745	-1.5540690178	-0.346676
H	-0.3518736038	-2.3119193069	-0.8298645475	 0.201458
H	-1.5300628052	 1.6025872513	 1.6318727673	 0.126832
H	-0.105787421	 0.73415645	 2.2114944321	 0.119911
H	-0.4014604352	 3.7324577814	 1.7636554492	 0.125632
H	 0.4731754425	 2.9038031358	 3.0410405784	 0.109402
H	 1.5082263864	 3.8541975263	 0.4601303904	 0.125997
H	 2.4490258722	 3.0476489333	 1.7045268079	 0.109213
H	 2.0902995478	 0.8763708102	 0.7493589917	 0.119758
H	 2.0231852045	 1.8225182035	-0.7406687824	 0.126724
42.77	121.4151	130.0168	150.1197	191.1231	289.9708	437.2238	474.4672	493.5617	565.2777	581.8285	639.8913	653.9393	662.1303	683.6637	800.1926	814.5343	887.0869	919.7062	956.52	1005.2693	1046.633	1049.7032	1089.6289	1103.7676	1214.5231	1226.8635	1258.8799	1261.1141	1304.8762	1333.6065	1344.3886	1351.2696	1482.0451	1491.4092	1495.2358	1515.4521	2244.5202	2355.074	3062.4784	3063.8864	3066.4553	3074.1194	3096.2795	3113.897	3124.812	3130.0805	3500.816
C#CC1(CCCC1)C#N	C#CC1(CCCC1)C#N	
InChI=1S/C8H9N/c1-2-8(7-9)5-3-4-6-8/h1H,3-6H2	InChI=1S/C8H9N/c1-2-8(7-9)5-3-4-6-8/h1H,3-6H2
