19
gdb 30156	3.59085	1.26925	0.98473	2.2384	85.21	-0.1689	0.0522	0.2211	1222.5061	0.160919	-382.071485	-382.062957	-382.062013	-382.104692	32.603	
C	-0.4017440164	 1.6145145494	-0.2914918624	-0.398638
C	 0.101471835	 0.2074522213	-0.0255866749	 0.065622
C	 0.8638323564	-0.547538421	-1.1858230381	-0.408311
C	 2.0180572183	-0.6253398459	-0.2031844022	 0.268947
C	 3.1446572251	-1.1813641676	 0.3625650547	 0.065513
N	 4.1631677826	-1.950057812	-0.2412621544	-0.606828
C	 3.1358293928	-0.7277883641	 1.7247903683	-0.191872
C	 1.9961931357	 0.0314239085	 1.9528533856	-0.158231
N	 1.3621998411	 0.115793003	 0.7495061249	 0.006403
H	 0.3864173514	 2.2300510563	-0.7351283159	 0.130172
H	-1.2529189568	 1.5871706354	-0.9800259667	 0.121296
H	-0.7331777352	 2.0955725126	 0.6345465071	 0.12428
H	-0.687260642	-0.4121483121	 0.4157173484	 0.095394
H	 0.4058519358	-1.4976223545	-1.477821121	 0.111385
H	 1.0206983723	 0.0579714245	-2.0849097383	 0.110353
H	 3.8356189219	-2.4292156467	-1.071093225	 0.233613
H	 4.5376115522	-2.6414927692	 0.3972643469	 0.23686
H	 3.9185114394	-0.9114906148	 2.4475629541	 0.082373
H	 1.6604643906	 0.5444400269	 2.8396992689	 0.111669
59.3403	151.8623	174.3765	218.2921	265.3537	293.0481	334.424	422.7731	528.5159	607.4784	636.3584	650.5561	697.6334	705.2025	757.3006	772.3545	800.7675	878.8736	915.827	963.8627	1037.4765	1064.4951	1071.9306	1091.1601	1111.1559	1178.6023	1212.609	1219.7016	1254.9491	1269.8173	1342.7802	1366.7731	1408.2814	1427.29	1439.0252	1480.471	1487.222	1495.3835	1499.1981	1639.9523	1663.2846	3034.7044	3038.3286	3042.4415	3082.3431	3104.6856	3117.0267	3226.9794	3262.6225	3521.0599	3609.2039
CC1CC2=C(N)C=CN12	C[C@H]1Cc2c(N)ccn12	
InChI=1S/C7H10N2/c1-5-4-7-6(8)2-3-9(5)7/h2-3,5H,4,8H2,1H3	InChI=1S/C7H10N2/c1-5-4-7-6(8)2-3-9(5)7/h2-3,5H,4,8H2,1H3/t5-/m0/s1
