19
gdb 38189	4.29615	1.021	0.92069	2.0909	74.43	-0.2435	0.0736	0.317	1279.489	0.159615	-422.956026	-422.948035	-422.947091	-422.989967	29.569	
C	-0.0056489766	 1.372960804	-0.291548265	-0.087898
O	 1.2241939738	 1.7206734779	 0.3760483943	-0.272133
C	 1.5125979464	 0.3384496024	 0.6662527877	-0.088209
C	 0.1767251262	-0.1275451344	 0.0395423252	-0.033898
C	-0.8374950614	-0.7405758528	 0.9838735056	-0.025182
C	-2.2653315932	-1.1108168867	 0.421387849	-0.287321
C	-1.9917922353	-2.5661187547	 0.8188529268	 0.040004
O	-0.8074072777	-2.978636217	 0.1252453104	-0.243955
C	-0.6570077874	-2.2320108076	 1.3385217166	 0.003983
H	-0.8752663037	 1.8609444499	 0.1689669387	 0.095872
H	 0.0195073481	 1.6303504912	-1.3581353482	 0.098727
H	 2.4206820005	-0.0072868737	 0.1565302434	 0.101093
H	 1.6229819379	 0.1587904572	 1.7443904406	 0.09376
H	 0.2924083743	-0.77058035	-0.8347655614	 0.094064
H	-0.9333175596	-0.1337933294	 1.8911406364	 0.081976
H	-3.0730366476	-0.6446946216	 0.9900295246	 0.109419
H	-2.4298626781	-0.9502890019	-0.6473230357	 0.110937
H	-2.6895260391	-3.3432523756	 1.107816717	 0.106675
H	-0.0646606773	-2.6839437772	 2.1261881142	 0.102087
41.5967	69.2533	141.5371	166.6867	320.7421	377.4756	403.322	554.9721	731.4403	781.2885	834.7055	841.5345	863.4808	885.5435	915.0184	928.2336	947.1072	979.9325	991.9378	1014.773	1042.6778	1049.7373	1067.1593	1088.0518	1129.0974	1156.7754	1164.2963	1206.8524	1233.9949	1239.5945	1243.3083	1269.8207	1279.9926	1289.8299	1311.0542	1377.5951	1388.0132	1409.819	1473.1838	1513.3137	1538.6321	2997.0589	3008.1914	3042.9341	3043.4413	3048.9363	3064.7271	3099.1688	3122.4795	3177.7412	3194.7442
C1OCC1C1CC2OC12	C1OCC1[C@H]1C[C@H]2O[C@@H]12	
InChI=1S/C7H10O2/c1-5(4-2-8-3-4)7-6(1)9-7/h4-7H,1-3H2	InChI=1S/C7H10O2/c1-5(4-2-8-3-4)7-6(1)9-7/h4-7H,1-3H2/t5-,6-,7+/m1/s1
