23
gdb 60538	2.38452	1.22534	1.05722	1.7117	85.07	-0.2545	0.0846	0.3391	1300.7621	0.203797	-388.264898	-388.254865	-388.253921	-388.299917	37.765	
C	-0.2227922465	 1.7940316606	-0.3472099658	-0.408697
C	-0.1082498723	 0.2784453856	-0.1184192375	-0.065472
C	-1.4732562443	-0.3465234885	 0.1233529513	 0.028199
C	-1.5870073843	-1.6999474614	 0.7771452527	-0.268511
C	-2.0134214784	-0.4627629754	 1.5276759003	-0.282888
C	 0.6530474506	-0.4141063096	-1.2490357218	 0.452327
C	 0.0000834386	-0.4802422386	-2.6131926121	-0.472653
C	 2.118734723	-0.5003627213	-1.1519179106	-0.237559
O	 1.3020104485	-1.635371736	-0.851720243	-0.285428
H	 0.7597554879	 2.2508837555	-0.5035569836	 0.111292
H	-0.8415260149	 2.0220809705	-1.2217860035	 0.116145
H	-0.6894270475	 2.2748421698	 0.5176265725	 0.120274
H	 0.4936430372	 0.1118506558	 0.7842878571	 0.072965
H	-2.2116068921	-0.1227182367	-0.6431628933	 0.077943
H	-2.3561688688	-2.3794847569	 0.4270007507	 0.107013
H	-0.6641790994	-2.1860278982	 1.0717054229	 0.129625
H	-1.3823748112	-0.1212351434	 2.3424089879	 0.10848
H	-3.072633807	-0.2956611196	 1.6898190036	 0.107949
H	-0.1912742798	 0.5204732848	-3.0140696793	 0.120926
H	 0.6451701414	-1.0146412971	-3.3146530679	 0.124973
H	-0.954693264	-1.0121391703	-2.559759754	 0.130785
H	 2.719013871	-0.5829010663	-2.0575776497	 0.106747
H	 2.633630402	-0.0567085032	-0.2996997269	 0.105564
58.0019	77.1825	155.297	179.6372	214.992	236.6322	240.0177	314.1246	354.2563	375.492	435.5639	470.725	534.2667	712.9624	771.4014	819.0718	824.8011	839.5023	900.6316	922.9661	941.3479	953.8374	981.0932	1016.3649	1056.4066	1068.1277	1077.1567	1090.3213	1124.4725	1135.0597	1138.4362	1164.3638	1197.7894	1211.4786	1227.4156	1287.66	1301.2278	1313.9504	1394.0084	1405.4105	1417.9816	1432.3199	1472.1207	1480.7307	1496.502	1499.0161	1502.2463	1506.5996	1530.4382	3022.0379	3032.9179	3041.4734	3073.5591	3098.7293	3106.7025	3109.2397	3122.9296	3125.8753	3129.3415	3140.7831	3156.8583	3206.5996	3228.1791
CC(C1CC1)C1(C)CO1	C[C@@H](C1CC1)[C@@]1(C)CO1	
InChI=1S/C8H14O/c1-6(7-3-4-7)8(2)5-9-8/h6-7H,3-5H2,1-2H3	InChI=1S/C8H14O/c1-6(7-3-4-7)8(2)5-9-8/h6-7H,3-5H2,1-2H3/t6-,8+/m0/s1
