22
gdb 22120	3.86527	0.70998	0.69675	1.1981	82.69	-0.2424	0.0139	0.2563	1740.1238	0.190314	-441.455738	-441.444228	-441.443284	-441.493466	40.573	
C	 0.0626062321	 1.5115343557	 0.2102805171	-0.385077
C	 0.08816322	-0.0120081209	 0.0723662314	-0.17216
C	 0.6159932986	-0.4783846911	-1.2905594981	 0.145135
O	 1.9270811464	 0.017677172	-1.5449111786	-0.430982
C	 0.5671885606	-2.0139233372	-1.4219499939	-0.32522
C	 1.2459769149	-2.5143044709	-2.6692323643	 0.380193
C	 0.7019636147	-2.1270308437	-4.0157552074	-0.482666
N	 2.2897284147	-3.2294019121	-2.4780382343	-0.179149
O	 2.8929054466	-3.627675781	-3.6836463877	-0.399093
H	 1.0572607035	 1.9253913362	 0.0264011133	 0.132893
H	-0.6253138383	 1.9620647345	-0.5140572175	 0.111277
H	-0.2607675968	 1.814584219	 1.2105655055	 0.108446
H	 0.7215919876	-0.448601912	 0.8571405209	 0.089243
H	-0.9179910167	-0.42488713	 0.2220825278	 0.091935
H	-0.0052459225	-0.0298476036	-2.0775889678	 0.084368
H	 2.5567413669	-0.5760513248	-1.1201100384	 0.28402
H	 1.0594760338	-2.4702029569	-0.5553498312	 0.109254
H	-0.4825372042	-2.3357411227	-1.4097093497	 0.107876
H	 1.1596354071	-1.186454399	-4.3439863425	 0.156642
H	 0.9335856041	-2.8877867486	-4.7621213644	 0.14984
H	-0.3796168509	-1.9723136525	-3.9702645778	 0.119042
H	 3.6086194778	-4.1910332002	-3.3719539824	 0.304181
41.1286	55.2092	84.2008	103.146	121.8808	218.2509	229.5621	248.7876	300.9615	313.4312	349.9136	381.3721	393.8631	465.1512	510.1887	560.9399	650.6518	779.0121	820.5532	853.8392	917.9667	968.1901	989.6188	1010.0439	1032.3067	1047.2666	1081.4486	1127.4442	1142.3537	1175.6767	1270.4312	1272.7501	1298.4518	1347.0952	1353.8116	1390.5586	1395.7313	1400.1039	1408.0647	1425.4999	1467.1843	1478.4519	1482.2609	1488.5241	1497.1218	1510.7128	1728.5139	3007.2223	3018.9757	3022.1141	3036.4564	3042.1041	3050.0798	3075.2799	3100.9938	3101.9449	3125.4155	3147.4339	3796.5366	3823.8262
CCC(O)CC(C)=NO	CC[C@@H](O)CC(=NO)C	
InChI=1S/C6H13NO2/c1-3-6(8)4-5(2)7-9/h6,8-9H,3-4H2,1-2H3	InChI=1S/C6H13NO2/c1-3-6(8)4-5(2)7-9/h6,8-9H,3-4H2,1-2H3/t6-/m1/s1
