25
gdb 58461	2.72196	0.98081	0.97623	1.469	88.71	-0.2524	0.0695	0.3219	1445.4853	0.226888	-389.492508	-389.481776	-389.480831	-389.527729	41.077	
C	 0.0841684943	 1.4804738073	 0.2723800741	-0.42083
C	-0.0456170276	-0.0174789251	-0.011334728	 0.077985
O	-1.4096850812	-0.4356925052	 0.0256688573	-0.440958
C	 0.6501754131	-0.4825085089	-1.301980032	 0.365659
C	 0.0643461752	 0.1664580688	-2.5588690173	-0.474354
C	 2.2111519423	-0.4257028982	-1.2700366289	-0.287671
C	 2.2640501689	-1.8850239391	-1.8050572257	 0.05605
C	 3.2586952299	-2.8503459661	-1.1778788452	-0.406107
C	 0.7586547577	-2.0335335842	-1.4453989384	-0.2789
H	 1.1328149951	 1.794289233	 0.287545815	 0.12098
H	-0.4311152819	 2.079346172	-0.4875992429	 0.108574
H	-0.3612148523	 1.716291345	 1.2427608941	 0.122748
H	 0.421128605	-0.564105287	 0.8181112444	 0.076313
H	-1.9068664756	 0.1294411045	-0.5746951752	 0.277011
H	 0.2027550349	 1.2529410084	-2.5642443027	 0.11308
H	 0.544980336	-0.2273873344	-3.4600694868	 0.117672
H	-1.0074425087	-0.0452590385	-2.6510728595	 0.105773
H	 2.6930765079	 0.3516374879	-1.8703166932	 0.089267
H	 2.5968233018	-0.3573394544	-0.2462009735	 0.089871
H	 2.3962129279	-1.8822783296	-2.8923768318	 0.067872
H	 3.1497300877	-2.8709902338	-0.0872106061	 0.109066
H	 3.108590415	-3.8718996752	-1.5454183687	 0.112961
H	 4.2922315642	-2.5637391768	-1.403832878	 0.111003
H	 0.6129216159	-2.5400945591	-0.4859342581	 0.096338
H	 0.1082877344	-2.5092781014	-2.1843151929	 0.090597
68.4103	76.6452	183.1299	227.6982	231.6132	252.7167	260.2609	285.169	301.8269	318.4731	338.613	357.4136	435.6156	479.0534	501.0573	640.559	725.9586	831.7816	868.2026	871.6817	902.7821	912.8115	932.9068	952.733	964.9011	1031.9716	1048.3286	1081.6703	1098.551	1116.7813	1132.3425	1175.7931	1190.9388	1223.0686	1238.9032	1279.3517	1290.5568	1303.7129	1317.3461	1363.6524	1379.3288	1402.5593	1408.6392	1411.7709	1425.493	1473.4685	1489.2907	1492.4957	1493.178	1495.0729	1497.6992	1502.923	1506.1328	3019.6409	3023.1966	3025.5609	3032.2725	3033.3548	3039.0573	3048.5191	3084.358	3087.3555	3088.3816	3090.8925	3094.639	3100.4307	3102.0845	3116.6314	3813.0798
CC(O)C1(C)CC(C)C1	C[C@@H](O)[C@@]1(C)C[C@@H](C)C1	
InChI=1S/C8H16O/c1-6-4-8(3,5-6)7(2)9/h6-7,9H,4-5H2,1-3H3	InChI=1S/C8H16O/c1-6-4-8(3,5-6)7(2)9/h6-7,9H,4-5H2,1-3H3/t6-,7-,8+/m1/s1
