14
gdb 130437	2.03064	1.80653	1.00951	4.9255	69.85	-0.2542	-0.0429	0.2114	1108.4524	0.103957	-429.055371	-429.047361	-429.046417	-429.088857	28.295	
N	-0.394245773	 1.3381147203	 0.2253526036	-0.50055
C	 0.197689174	 0.032917722	-0.0787405238	-0.294617
C	 0.8918032048	-0.5100454209	 1.1312800021	 0.2566
N	 2.184214988	-0.8286557311	 1.1371005383	-0.248694
N	 2.3969028273	-1.2554473665	 2.3782092605	-0.079866
N	 1.3668774116	-1.2463993734	 3.1991616662	-0.25523
C	 0.3796592837	-0.7694070366	 2.427528234	 0.174555
C	-0.9434734211	-0.6052365433	 2.9154658785	 0.258777
N	-2.03001684	-0.4849619519	 3.2932654306	-0.340829
H	 0.331828925	 2.0440574354	 0.2967465829	 0.235452
H	-1.0128572979	 1.6233461248	-0.5261397991	 0.239029
H	-0.6205771901	-0.6438419792	-0.3517408653	 0.133967
H	 0.9171601052	 0.0224893615	-0.911013486	 0.116336
H	 3.3061284124	-1.5683823313	 2.6813110274	 0.305072
44.5852	124.7769	176.1472	188.91	251.9826	326.4925	424.1674	532.2952	558.4194	566.2727	605.9836	702.6886	722.4545	785.6682	848.658	971.8487	1006.0608	1067.0283	1163.973	1181.6121	1203.1451	1268.5525	1301.5629	1364.8567	1413.982	1449.6323	1497.5641	1507.0955	1550.3688	1661.2007	2363.2003	2993.7932	3058.2804	3502.4994	3587.0956	3659.0569
NCC1=NNN=C1C#N	NCc1n[nH]nc1C#N	
InChI=1S/C4H5N5/c5-1-3-4(2-6)8-9-7-3/h1,5H2,(H,7,8,9)	InChI=1S/C4H5N5/c5-1-3-4(2-6)8-9-7-3/h1,5H2,(H,7,8,9)
