18
gdb 37252	3.53711	1.4902	1.34629	2.9384	74.58	-0.2263	0.0648	0.2911	990.7826	0.14848	-401.849949	-401.842961	-401.842017	-401.88121	28.691	
C	-0.0124592868	 1.5235671705	 0.0015440219	-0.254144
O	 1.1661619238	 0.7026027112	 0.026193464	-0.292155
C	-0.104622975	 0.0683331341	 0.0084216616	 0.485633
C	-0.5538085025	-0.9050623379	 1.1126033441	-0.33612
C	-1.0044071631	-1.9049696171	 0.0029022553	-0.028974
C	-2.4359314116	-1.7706081123	-0.569840375	-0.055945
N	-2.8109493639	-0.338150255	-0.5063300703	-0.335447
C	-1.9686256915	-0.829114847	-1.6261000688	-0.056464
C	-0.5135609782	-0.9104383144	-1.1049932561	-0.143776
H	-0.2137278269	 2.079928513	 0.9161547689	 0.111646
H	-0.1794135568	 2.0751930073	-0.9230219129	 0.107735
H	 0.2909082207	-1.2729059645	 1.7011622484	 0.110574
H	-1.3389418687	-0.5390334016	 1.7759532801	 0.116345
H	-0.6209147487	-2.9232247609	 0.0456308754	 0.075704
H	-3.2025040139	-2.5356301828	-0.5990644065	 0.091205
H	-3.7637224882	-0.2626794953	-0.860275471	 0.23035
H	-2.2929986021	-0.701018546	-2.6517199567	 0.092629
H	 0.2487345634	-1.1884990812	-1.8320833025	 0.081205
100.1939	217.9787	299.504	325.0532	342.3223	467.0315	516.1603	615.4958	714.6032	758.9843	791.8409	804.6829	845.4686	864.5693	888.1978	898.7711	919.441	952.0328	956.2341	988.1352	1010.0942	1054.497	1085.1665	1114.1319	1120.6127	1133.0512	1142.9249	1158.824	1178.224	1207.6006	1219.5065	1246.7459	1268.5892	1313.5765	1327.4274	1371.8297	1428.8932	1457.618	1535.9542	3066.6744	3079.0722	3118.3493	3126.2909	3132.3486	3164.1588	3177.2463	3190.5722	3478.3397
C1OC11CC2C3NC3C12	C1O[C@]21C[C@H]1[C@H]3N[C@H]3[C@@H]21	
InChI=1S/C7H9NO/c1-3-4(6-5(3)8-6)7(1)2-9-7/h3-6,8H,1-2H2	InChI=1S/C7H9NO/c1-3-4(6-5(3)8-6)7(1)2-9-7/h3-6,8H,1-2H2/t3-,4+,5-,6+,7+/m1/s1
