16
gdb 29040	2.63178	1.7019	1.15821	1.598	83.64	-0.2413	-0.0687	0.1726	1051.1038	0.12555	-396.946871	-396.939017	-396.938073	-396.979327	29.362	
C	-0.5678027759	 1.400828755	 0.0570852644	-0.455564
C	-0.0472310262	-0.0046945269	 0.0058208269	 0.307351
N	 0.0992748346	-0.5799988155	-1.1334148483	-0.265228
C	 0.4422992115	-1.8846808458	-1.3590213592	 0.080298
N	 0.1277467948	-2.9558118659	-0.7065719734	-0.246638
C	-0.4063199154	-2.92871532	 0.5560584587	 0.014311
C	-0.2919179006	-1.9680735397	 1.5066319782	-0.164173
C	 0.2864461525	-0.6360582104	 1.3282788806	 0.204055
N	 0.8730954905	 0.0824995581	 2.2103240486	-0.50094
H	 0.1748615665	 2.0401477173	 0.5442454259	 0.17059
H	-0.7872370651	 1.7615624357	-0.9475782514	 0.139711
H	-1.4687923397	 1.4490205138	 0.6789355896	 0.143079
H	 0.9572610608	-2.0316389305	-2.3083106115	 0.126312
H	-0.8853180651	-3.8638455383	 0.8402671444	 0.116023
H	-0.6661769656	-2.1919306498	 2.5034882536	 0.110213
H	 1.0103962824	-0.4518226971	 3.0724073429	 0.2206
81.6073	152.5079	173.3757	284.9966	319.0198	338.8316	380.4589	423.8612	528.9162	611.2239	651.2824	715.2338	760.3567	816.7756	864.9652	923.3871	962.5252	975.4728	984.2821	1009.3463	1047.4596	1104.3314	1202.1733	1211.6448	1272.5503	1378.1326	1394.3592	1430.0186	1456.3695	1463.3332	1467.1796	1555.6688	1619.3179	1677.0482	1694.6952	3044.8803	3104.4687	3135.0749	3140.022	3159.8544	3161.4733	3431.3786
CC1=NC=NC=CC1=N	CC1=N[CH][N]C=C[C]1[NH]	
InChI=1S/C6H7N3/c1-5-6(7)2-3-8-4-9-5/h2-4,7H,1H3	InChI=1S/C6H7N3/c1-5-6(7)2-3-8-4-9-5/h2-4,7H,1H3
