14
gdb 49961	2.51668	1.25757	1.02508	4.6147	72.	-0.2533	-0.0649	0.1884	1161.1833	0.096991	-436.630111	-436.62111	-436.620166	-436.664589	31.51	
O	-0.7609366384	 1.2068098604	 0.697424862	-0.253062
C	 0.0319754367	 1.0965616943	-0.2020829232	 0.170761
C	 1.3312525059	 1.8591497857	-0.2067411045	-0.168146
N	 2.3005009188	 1.4904169507	-1.2270992936	-0.345159
C	 1.7000600858	 2.8474276749	-1.3048938066	 0.057032
C	 0.7703996041	 3.0492525166	-2.4825923612	 0.111115
O	-0.1561397804	 2.3261680334	-2.7307202921	-0.237801
C	 2.5021234343	 3.985946432	-0.9507917193	 0.234167
C	 3.1654098839	 4.9570923861	-0.6993767388	-0.39002
H	-0.1067187695	 0.4108916471	-1.0559800404	 0.116513
H	 1.6705207137	 2.1524287744	 0.7841415859	 0.126668
H	 3.252937759	 1.5689225924	-0.8769848583	 0.258098
H	 1.015324952	 3.931645557	-3.1077677326	 0.107361
H	 3.749983794	 5.8121260551	-0.4619984874	 0.212471
63.6638	82.1054	111.9481	146.0093	247.9549	263.1773	318.0142	390.7278	476.3889	521.5538	543.7861	563.504	622.5413	679.622	722.9032	782.9301	952.0063	985.4206	1006.4747	1037.1733	1057.7749	1077.4775	1204.5641	1233.5969	1308.4803	1366.5398	1416.8565	1434.5142	1816.8245	1831.7227	2234.3501	2933.6985	2989.2618	3149.2223	3497.147	3504.3294
O=CC1NC1(C=O)C#C	O=C[C@H]1N[C@]1(C=O)C#C	
InChI=1S/C6H5NO2/c1-2-6(4-9)5(3-8)7-6/h1,3-5,7H	InChI=1S/C6H5NO2/c1-2-6(4-9)5(3-8)7-6/h1,3-5,7H/t5-,6+/m1/s1
