27
gdb 121837	2.7505	0.73664	0.68677	1.077	93.37	-0.2453	0.0795	0.3249	1882.7642	0.248562	-390.699387	-390.687177	-390.686233	-390.737245	44.225	
C	 0.0571614384	 1.5634040639	 0.1489312139	-0.380037
C	 0.0810112645	 0.0363758925	 0.0403376416	-0.163043
C	 0.6606230235	-0.4627961579	-1.2882468915	-0.173199
C	 0.6741684782	-1.9920260748	-1.3896169819	-0.192432
C	 1.3979518027	-2.5738030793	-2.6210215427	 0.353905
C	 1.3528888538	-4.1094599644	-2.551557432	-0.419564
C	 0.7660303275	-2.0814765696	-3.9337770156	-0.424913
O	 2.7488313984	-2.103628039	-2.4791956091	-0.273147
C	 3.6685764897	-2.4143699777	-3.4992671414	-0.240542
H	 1.0661339515	 1.9810437162	 0.0585917768	 0.113645
H	-0.5544935308	 2.0076053997	-0.6445223909	 0.110657
H	-0.3545307731	 1.891417047	 1.1087678969	 0.107967
H	 0.6682727596	-0.3807324148	 0.8692178602	 0.093959
H	-0.9376533694	-0.3554257795	 0.165869169	 0.08908
H	 0.0764434788	-0.0340067621	-2.1128919734	 0.086467
H	 1.6847427743	-0.0922974559	-1.4065808019	 0.110663
H	 1.1697791565	-2.4015237579	-0.5003642069	 0.095156
H	-0.3540117138	-2.3753777855	-1.3796646385	 0.08503
H	 0.3163921937	-4.4603932158	-2.5305716443	 0.112844
H	 1.8360954888	-4.5719351694	-3.4173935077	 0.110088
H	 1.8550813598	-4.4631700744	-1.6462948836	 0.118232
H	 0.905623923	-1.0046863719	-4.0582770099	 0.124039
H	 1.1986243523	-2.5847294431	-4.8034181293	 0.110872
H	-0.3083093034	-2.2907327943	-3.9366949917	 0.113936
H	 3.4027489743	-1.9624763536	-4.46539019	 0.103874
H	 4.6306351607	-2.0015294698	-3.1833491966	 0.123898
H	 3.7938441206	-3.4964122788	-3.6481498893	 0.102567
60.1506	67.548	71.0159	122.8951	142.2386	189.4218	235.8928	248.7593	255.231	274.7176	298.8101	305.5706	367.3759	396.8399	422.2991	493.893	559.9168	733.0872	739.6111	784.943	873.6872	903.2349	909.9747	920.9022	960.9103	1002.9461	1034.0126	1069.9386	1085.2497	1107.1861	1131.5872	1180.8028	1192.3755	1208.62	1220.7676	1253.978	1279.9148	1292.6476	1325.7073	1338.538	1372.3955	1392.6996	1397.5328	1410.1456	1414.0448	1468.1819	1476.3889	1481.5944	1484.5753	1487.1955	1498.2089	1498.4428	1499.898	1504.5649	1512.4996	1514.0949	1518.0317	2989.6679	3008.9102	3017.1085	3024.2523	3028.0284	3033.6081	3038.9349	3041.5933	3044.7638	3055.2711	3081.4982	3094.8835	3098.9474	3102.2714	3104.167	3110.9868	3114.772	3122.9172
CCCCC(C)(C)OC	CCCCC(C)(C)OC	
InChI=1S/C8H18O/c1-5-6-7-8(2,3)9-4/h5-7H2,1-4H3	InChI=1S/C8H18O/c1-5-6-7-8(2,3)9-4/h5-7H2,1-4H3
