18
gdb 61957	4.05476	0.74574	0.65465	0.7896	73.83	-0.2552	-0.0305	0.2248	1632.4783	0.144044	-439.094589	-439.084318	-439.083373	-439.132068	34.777	
C	 0.7335789568	 1.1938715252	 0.5830658115	-0.404975
C	 0.2169452541	-0.1865779053	 0.1806209013	 0.102565
C	 0.7564134075	-0.6204479244	-1.1884979183	-0.280467
C	 0.1260387517	-1.8984480496	-1.701616547	 0.151502
O	-0.3021814093	-2.0406085435	-2.8182279013	-0.236814
O	 0.6254797347	-1.2156591797	 1.0963388022	-0.241514
C	-0.1345771904	-1.3518359469	 2.2680598773	-0.202572
C	 0.267108607	-0.4406079568	 3.3595992267	 0.2636
N	 0.5783011076	 0.2602249102	 4.2237886516	-0.304376
H	 1.8264978448	 1.1894559551	 0.634615885	 0.134782
H	 0.4226624971	 1.9384223822	-0.1561850052	 0.125738
H	 0.3465975182	 1.5028936562	 1.5564821559	 0.145756
H	-0.8848081919	-0.1696028559	 0.1493694436	 0.085939
H	 0.6082541095	 0.1657496855	-1.9329044725	 0.126604
H	 1.8362211085	-0.7931187226	-1.0801882574	 0.137519
H	 0.0850169408	-2.7241208104	-0.9586517197	 0.087298
H	-1.2090272865	-1.2102376135	 2.0781215881	 0.144637
H	 0.0057669698	-2.378587236	 2.6222647682	 0.164776
20.6849	51.7747	73.234	106.2725	171.8706	217.4515	256.7778	284.0497	366.6345	371.0823	411.7712	463.8894	522.4082	619.2725	796.4887	808.0081	902.2783	937.7956	959.3725	1007.6249	1031.5778	1110.5468	1120.744	1136.2344	1163.7542	1240.6224	1293.3706	1303.1634	1377.0457	1377.576	1405.5478	1413.4576	1422.6839	1444.9314	1465.8924	1490.8033	1495.7169	1832.9617	2357.2806	2902.2179	2971.9891	3002.4013	3028.4627	3046.4925	3078.3978	3111.3971	3120.1916	3133.7813
CC(CC=O)OCC#N	C[C@@H](CC=O)OCC#N	
InChI=1S/C6H9NO2/c1-6(2-4-8)9-5-3-7/h4,6H,2,5H2,1H3	InChI=1S/C6H9NO2/c1-6(2-4-8)9-5-3-7/h4,6H,2,5H2,1H3/t6-/m0/s1
