18
gdb 95040	2.59744	1.85449	1.30829	0.5557	70.08	-0.254	0.0132	0.2672	979.8906	0.15093	-439.115604	-439.108416	-439.107472	-439.147232	28.635	
O	 0.0712996027	 1.3583931108	-0.1546338283	-0.440268
C	 0.0358917952	-0.0297004639	 0.0706613264	 0.143856
C	 0.5449089307	-0.5059518198	 1.4456407087	-0.25416
C	 0.0093338324	-1.942278186	 1.5416621238	-0.219914
C	-1.4095558941	-1.8642843164	 0.9284008096	-0.010405
N	-2.422074318	-1.5112266997	 1.9451708853	-0.258691
C	-2.8308742543	-0.3513655972	 1.651445176	 0.112139
O	-2.3421023974	 0.2840596546	 0.5531257966	-0.248972
C	-1.3798824583	-0.6396059545	-0.0343470154	 0.039662
H	-0.6945702358	 1.7288352	 0.3013148498	 0.285588
H	 0.6557570729	-0.4834283886	-0.7131202793	 0.091045
H	 1.631408349	-0.4351773074	 1.5311914052	 0.105661
H	 0.110451384	 0.1225329698	 2.2324506565	 0.106067
H	 0.6298420499	-2.6200693884	 0.9438796226	 0.101272
H	-0.0252480332	-2.3335434644	 2.560347415	 0.119356
H	-1.701768976	-2.8024811931	 0.4507354052	 0.08792
H	-3.5714274951	 0.2182970749	 2.2022471281	 0.14428
H	-1.6993080747	-0.8212442206	-1.0616249157	 0.095565
93.4529	191.1007	243.6298	329.4722	384.7893	412.3885	492.7846	519.7617	605.9877	638.9622	787.4674	812.7201	838.5367	870.5245	913.0742	927.8895	947.8477	961.4819	973.2398	1032.3513	1064.9762	1109.4614	1114.5823	1121.4387	1161.6598	1193.3495	1252.1248	1275.8073	1297.3015	1307.9696	1316.1545	1335.0135	1345.6022	1358.8053	1374.7002	1440.4448	1482.1404	1496.2981	1707.1543	3030.2786	3039.7142	3047.1421	3076.2846	3101.8752	3109.7671	3115.5882	3214.9573	3782.7644
OC1CCC2N=COC12	O[C@H]1CC[C@H]2N=CO[C@@H]12	
InChI=1S/C6H9NO2/c8-5-2-1-4-6(5)9-3-7-4/h3-6,8H,1-2H2	InChI=1S/C6H9NO2/c8-5-2-1-4-6(5)9-3-7-4/h3-6,8H,1-2H2/t4-,5+,6-/m1/s1
