21
gdb 95555	2.3957	1.50062	0.9847	0.9151	89.39	-0.2069	-0.0162	0.1908	1238.3214	0.183461	-387.106762	-387.097876	-387.096932	-387.140099	34.669	
C	 0.2674756748	 1.5604119806	 0.0096482055	-0.488079
C	 0.0683260336	 0.0707560184	-0.0600166533	 0.245547
C	-0.0075899167	-0.5649576383	-1.2415808903	-0.151355
C	-0.1930811362	-1.9885554534	-1.5060825201	-0.066931
C	-0.0176797309	-3.0564919006	-0.7111543631	-0.071016
C	 0.4801487976	-3.1317619887	 0.7039582935	-0.265652
C	 0.9784698852	-1.835816709	 1.3470320214	-0.20279
C	-0.0372564184	-0.6830956459	 1.2589295252	 0.028869
O	 0.1960351988	 0.1479740784	 2.3936418171	-0.433908
H	 1.1504785904	 1.8146908659	 0.6058580788	 0.140789
H	 0.3820638057	 1.9866851717	-0.9897385186	 0.120481
H	-0.5824802728	 2.0684539726	 0.4877947698	 0.109205
H	 0.0418400641	 0.0515841874	-2.1372506375	 0.076295
H	-0.5223629963	-2.2014609883	-2.5219328455	 0.079788
H	-0.2495010624	-4.0279834855	-1.145267833	 0.084898
H	-0.3162876437	-3.5686784199	 1.3256247567	 0.11017
H	 1.2929229197	-3.8714283942	 0.7408942278	 0.109245
H	 1.1770583273	-2.0172913282	 2.4076665418	 0.108483
H	 1.9216838294	-1.5200412418	 0.8905018594	 0.106635
H	-1.0488990257	-1.12091899	 1.324567893	 0.078849
H	-0.4877226235	 0.8238520787	 2.4209676713	 0.280478
60.1662	171.4445	214.1922	242.1484	288.691	307.086	318.3449	346.336	408.1565	435.3725	490.2599	577.2533	617.6205	719.1651	742.4316	830.2508	849.8491	890.0365	914.3265	935.0304	1011.3056	1014.1487	1033.0319	1051.6222	1071.7665	1090.5484	1112.9342	1179.3572	1205.8397	1236.4931	1279.7193	1293.211	1335.052	1358.9154	1390.1586	1397.9397	1400.8245	1415.2301	1448.0894	1468.2997	1475.9926	1491.6748	1495.62	1684.88	1710.5159	2938.198	2991.7798	3003.6864	3015.9799	3053.0896	3067.047	3096.1915	3118.4655	3120.9833	3135.4379	3150.0365	3827.655
CC1=CC=CCCC1O	CC1=CC=CCC[C@H]1O	
InChI=1S/C8H12O/c1-7-5-3-2-4-6-8(7)9/h2-3,5,8-9H,4,6H2,1H3	InChI=1S/C8H12O/c1-7-5-3-2-4-6-8(7)9/h2-3,5,8-9H,4,6H2,1H3/t8-/m1/s1
