20
gdb 69781	3.11188	1.42902	1.17151	1.8915	77.78	-0.2294	0.0686	0.298	1108.2267	0.171326	-403.117961	-403.109758	-403.108814	-403.149999	33.399	
C	-0.0623044742	 1.5330382369	 0.0609309481	-0.458033
C	-0.0160502378	 0.0248925461	 0.0798111955	 0.336653
C	-1.2814055126	-0.7463135395	-0.3206669862	-0.380769
C	-1.3148010765	-2.0400671985	 0.5084040559	 0.402145
O	-2.5487570923	-2.4237951362	 1.0412194758	-0.462268
C	-0.2665648496	-3.0961548277	 0.2917839849	-0.375984
C	-0.0896932304	-2.0540301743	 1.3865739358	-0.081089
C	 0.7075175046	-0.7967013155	 1.1033577094	-0.086533
N	 1.2928501129	-0.5740826745	-0.2273004188	-0.373111
H	 0.8896095372	 1.9448004748	 0.4049769437	 0.127834
H	-0.2404073684	 1.9089748259	-0.953661066	 0.116046
H	-0.864151032	 1.9119881557	 0.7042435135	 0.113812
H	-2.1661514373	-0.1637797164	-0.0439475669	 0.115666
H	-1.334589128	-0.921698616	-1.4027673191	 0.097522
H	-3.016488929	-2.9376908317	 0.3739211773	 0.28195
H	-0.5251849931	-4.0917774972	 0.6376400984	 0.116443
H	 0.3596979792	-3.088123209	-0.5955104049	 0.107367
H	-0.1525992322	-2.3960520176	 2.4125411865	 0.096218
H	 1.2672650327	-0.3590694535	 1.9246837323	 0.086892
H	 1.2178419968	-1.3980159119	-0.8169622353	 0.219237
163.8238	181.7271	204.4832	281.2372	291.9043	346.8095	393.4466	414.0059	422.6854	532.0493	565.5068	629.7051	717.6403	746.704	808.4172	843.2444	878.2696	902.1779	917.659	969.0001	978.1214	996.5332	1022.8693	1048.5186	1064.0311	1092.113	1100.7632	1113.6011	1161.8293	1178.7803	1245.983	1257.4851	1276.7874	1300.7825	1326.7703	1342.8327	1388.2793	1410.0182	1428.6862	1478.6177	1486.0636	1491.8944	1496.3534	3025.2685	3029.1781	3080.4916	3086.3163	3117.6647	3120.8286	3150.2271	3188.8122	3204.9518	3507.4024	3794.2201
CC12CC3(O)CC3C1N2	C[C@]12C[C@@]3(O)C[C@H]3[C@H]1N2	
InChI=1S/C7H11NO/c1-6-3-7(9)2-4(7)5(6)8-6/h4-5,8-9H,2-3H2,1H3	InChI=1S/C7H11NO/c1-6-3-7(9)2-4(7)5(6)8-6/h4-5,8-9H,2-3H2,1H3/t4-,5+,6-,7-/m0/s1
