22
gdb 110387	5.44081	0.92418	0.91218	1.6544	87.17	-0.2253	0.0796	0.3049	1415.5113	0.193984	-367.122332	-367.113662	-367.112718	-367.155587	33.634	
C	-0.0064387147	 1.6423050963	-0.1255950609	-0.37561
C	 0.0322176866	 0.1483774736	 0.2175460943	-0.217007
C	-1.3337114456	-0.5142757936	 0.1207778714	 0.01445
C	-1.9184453899	-0.8901384271	-1.2495127903	-0.013251
C	-1.0637045499	-2.1858896635	-1.4040788193	-0.089396
C	-2.3503401455	-2.9699653152	-1.6618754032	 0.064963
C	-2.4750839418	-4.4361349944	-1.2992666514	-0.419108
N	-2.8333948446	-1.9681137938	-0.6077850665	-0.180053
C	-1.449733948	-2.0446153492	 0.1029274047	-0.041412
H	 0.9839913474	 2.0978426096	-0.0309112233	 0.112494
H	-0.3514497441	 1.805358197	-1.1523042841	 0.117157
H	-0.6875754717	 2.1826457525	 0.5408669198	 0.117374
H	 0.7418713726	-0.3631250291	-0.4449625479	 0.095131
H	 0.4186584201	 0.0182045602	 1.2368788245	 0.097531
H	-2.0670240766	-0.0356106423	 0.7819940805	 0.076283
H	-2.3065728114	-0.2580884324	-2.0516250612	 0.075678
H	-0.0666638983	-2.2971570189	-1.8443527732	 0.061453
H	-2.8279613743	-2.7717426866	-2.6307791076	 0.066153
H	-1.9925010388	-4.6659686151	-0.3445338343	 0.11583
H	-3.529578324	-4.7210846251	-1.2222638212	 0.127072
H	-2.0126341387	-5.063277458	-2.0692996089	 0.116012
H	-1.276450479	-2.7545413047	 0.9133417981	 0.078256
78.033	129.372	176.8352	205.2146	227.7856	265.2794	310.8971	413.7156	497.8289	564.7693	721.1782	732.5875	770.8536	817.0031	837.7356	849.491	854.188	893.8296	918.3619	962.8138	1023.2106	1040.2588	1047.3846	1050.292	1060.1345	1106.1153	1118.3083	1135.6509	1152.2445	1156.2468	1182.5255	1191.7326	1230.6442	1253.167	1273.4011	1292.0936	1311.4223	1350.3176	1399.4627	1409.9667	1416.3318	1416.8438	1486.8225	1492.0004	1493.809	1500.2883	1507.3107	3015.3338	3018.3472	3030.1236	3033.1271	3033.6103	3038.4594	3054.5447	3086.8131	3097.772	3099.8538	3099.9054	3104.5902	3110.9154
CCC1C2C3C(C)N2C13	CC[C@H]1[C@H]2[C@@H]3[C@@H](C)N2[C@H]13	
InChI=1S/C8H13N/c1-3-5-7-6-4(2)9(7)8(5)6/h4-8H,3H2,1-2H3	InChI=1S/C8H13N/c1-3-5-7-6-4(2)9(7)8(5)6/h4-8H,3H2,1-2H3/t4-,5-,6-,7-,8+/m1/s1
