19
gdb 58683	2.11227	1.3782	1.16803	2.0989	73.02	-0.2565	-0.0479	0.2086	1182.1511	0.155688	-460.158038	-460.148133	-460.147189	-460.19267	36.059	
C	 0.1308020151	 1.2232830065	 0.5207717601	-0.420822
C	-0.4042437454	-0.0847431762	-0.0709434444	 0.039365
O	-1.7793973712	-0.0156733642	-0.405459972	-0.438287
C	 0.4014929556	-0.5159310281	-1.2945619754	 0.272899
O	 1.7446709249	-0.9897219809	-1.089096166	-0.291136
C	 0.788672594	-1.9237380212	-1.5805885413	 0.024563
C	 0.408943512	-3.0978650047	-0.7172802589	-0.427384
C	 0.2903893194	 0.3505921913	-2.5124157879	 0.126207
O	-0.5840155437	 1.1643053057	-2.7029394624	-0.277321
H	 1.1796023107	 1.1128085103	 0.813680867	 0.128543
H	 0.0553959221	 2.0419821342	-0.2010460823	 0.129537
H	-0.4554377932	 1.4894990538	 1.403962234	 0.126436
H	-0.3223146745	-0.8655290999	 0.6899046235	 0.092621
H	-1.8532478978	 0.6384528687	-1.1144377034	 0.294605
H	 0.9424548947	-2.176960442	-2.6328392942	 0.097421
H	 0.3246367102	-2.8234713969	 0.334781931	 0.139991
H	-0.5458263818	-3.5159432881	-1.0509318824	 0.141832
H	 1.1709779852	-3.8789015869	-0.8053857033	 0.136156
H	 1.1033361539	 0.1823401087	-3.2515501418	 0.104774
76.1516	112.5928	131.7163	199.5471	215.4269	230.6744	251.7715	264.4416	359.5979	386.1615	450.6202	486.4458	528.8338	555.249	567.8471	763.1908	803.2031	871.0278	914.4182	992.0703	1005.921	1024.8725	1060.345	1097.3845	1123.9504	1131.7314	1171.8105	1259.9289	1308.3122	1326.9513	1362.3804	1397.8085	1407.5999	1414.0322	1445.528	1455.7935	1485.3445	1492.3208	1500.2448	1505.8564	1800.4835	2907.6393	3042.4339	3047.5072	3074.7598	3075.7569	3110.7942	3118.7594	3126.1017	3150.6865	3745.2837
CC(O)C1(OC1C)C=O	C[C@@H](O)[C@]1(O[C@H]1C)C=O	
InChI=1S/C6H10O3/c1-4(8)6(3-7)5(2)9-6/h3-5,8H,1-2H3	InChI=1S/C6H10O3/c1-4(8)6(3-7)5(2)9-6/h3-5,8H,1-2H3/t4-,5+,6-/m1/s1
