17
gdb 85795	2.14686	1.40175	1.28736	0.8766	75.77	-0.2487	-0.0376	0.2112	1124.367	0.131486	-421.795974	-421.78633	-421.785386	-421.830505	34.826	
C	-0.6155983912	 1.310459308	-0.1241851521	-0.407347
C	 0.0138569418	-0.0701857068	-0.0359837482	 0.031511
O	 1.2353740496	-0.2055661019	-0.8060446316	-0.329256
C	 2.0801014491	-0.4997061893	 0.3473899262	 0.085421
C	 2.6967610586	-1.8943676141	 0.2729636501	-0.432828
C	 3.0623290375	 0.5432613221	 0.5949422215	 0.342792
C	 3.8646595327	 1.4085717847	 0.8245498447	-0.457443
C	 0.8010941983	-0.3957665275	 1.2366421137	 0.300679
O	 0.5599199184	-0.5331918054	 2.3932155041	-0.275165
H	 0.0992896649	 2.0836511949	 0.1688987302	 0.138166
H	-0.9398799706	 1.5071018711	-1.1500243588	 0.137376
H	-1.4882413305	 1.365486841	 0.5339402613	 0.135273
H	-0.7122631007	-0.8503166477	-0.303804336	 0.109073
H	 3.4096359426	-1.9384674485	-0.5544823095	 0.143816
H	 3.2222526577	-2.120927766	 1.2043405659	 0.145272
H	 1.9181066629	-2.6439877806	 0.1092047445	 0.126539
H	 4.5754120289	 2.1733102061	 1.0209448939	 0.206122
54.259	115.3418	181.4242	188.9739	194.6371	207.8458	223.4994	311.8941	354.5327	443.0244	516.7486	572.8135	600.6198	623.0796	673.892	702.9451	740.6491	852.9631	872.3555	937.0796	982.9836	1038.5633	1064.8484	1115.0168	1126.9546	1170.2259	1217.2568	1275.9512	1349.2667	1397.5257	1398.709	1476.7281	1481.8567	1485.5827	1494.1751	1927.0112	2230.3259	3013.4478	3043.9412	3047.3624	3120.3466	3128.5656	3128.7199	3132.7417	3499.0881
CC1OC(C)(C#C)C1=O	C[C@H]1O[C@@](C)(C#C)C1=O	
InChI=1S/C7H8O2/c1-4-7(3)6(8)5(2)9-7/h1,5H,2-3H3	InChI=1S/C7H8O2/c1-4-7(3)6(8)5(2)9-7/h1,5H,2-3H3/t5-,7+/m1/s1
