22
gdb 109842	2.01753	1.22283	0.89354	2.6387	83.78	-0.2221	-0.025	0.197	1397.808	0.191245	-404.328395	-404.317802	-404.316858	-404.364989	37.587	
C	 1.2547128129	 2.1417408053	-0.3275149977	-0.385105
C	 1.8569465383	 0.8014804538	 0.090582941	-0.125013
N	 1.706790863	-0.1864473442	-0.9747388706	-0.095394
C	 1.8989786554	-1.6133362202	-0.7077908329	-0.015212
C	 2.2389718595	-2.1739647286	 0.6578691268	-0.414025
C	 0.545764452	-1.0767870885	-1.0561478775	-0.026917
C	-0.6147516018	-1.0637385211	-0.0703196349	-0.308664
C	-1.7335486	-0.1600708601	-0.5482911503	 0.169816
O	-2.2352882153	 0.7199683165	 0.1019406967	-0.238936
H	 1.6681237331	 2.4625040315	-1.2877386532	 0.124158
H	 0.1673233695	 2.0754891596	-0.4250143672	 0.135585
H	 1.4741031774	 2.9082993739	 0.422304643	 0.112082
H	 2.9347674294	 0.9174267046	 0.25668388	 0.104349
H	 1.4274426109	 0.4935163968	 1.0560615874	 0.085794
H	 2.4425893764	-2.1149863692	-1.5097261069	 0.088202
H	 1.6442349255	-1.7449596707	 1.4658999771	 0.121577
H	 2.0764115588	-3.2571503358	 0.6642096853	 0.122846
H	 3.2951058993	-2.0014176437	 0.8920485427	 0.126756
H	 0.2050637631	-1.2265891114	-2.0826492647	 0.088364
H	-1.0283849831	-2.0823802721	-0.0157056299	 0.125533
H	-0.3361408335	-0.7616009096	 0.9396061491	 0.12655
H	-2.0787195107	-0.3721793269	-1.5877456232	 0.077655
44.8712	59.9163	98.4877	133.2945	167.7497	190.5299	217.3277	268.9101	295.4233	346.2479	459.8082	477.0658	529.2305	570.5651	709.239	740.5579	796.0984	816.7751	886.7443	962.7502	984.9653	1017.8887	1052.5627	1062.8012	1094.0969	1115.7851	1152.1656	1161.8652	1184.1013	1193.5817	1217.4532	1275.8734	1308.9472	1349.2402	1382.648	1394.507	1411.2648	1418.0528	1428.1833	1443.7866	1452.3987	1491.8941	1493.9049	1498.9916	1503.6077	1516.8088	1833.2545	2855.874	2982.7032	3005.6425	3038.5295	3043.9943	3046.2288	3073.2593	3087.0321	3092.9267	3114.5056	3124.9535	3128.6836	3140.1479
CCN1C(C)C1CC=O	CCN1[C@@H](C)[C@H]1CC=O	
InChI=1S/C7H13NO/c1-3-8-6(2)7(8)4-5-9/h5-7H,3-4H2,1-2H3	InChI=1S/C7H13NO/c1-3-8-6(2)7(8)4-5-9/h5-7H,3-4H2,1-2H3/t6-,7+,8?/m0/s1
