20
gdb 41647	3.02433	1.97263	1.60926	1.6726	80.01	-0.2309	0.0871	0.318	909.2048	0.175461	-365.968021	-365.961708	-365.960764	-365.998254	27.488	
C	-0.041873942	 1.5287800924	 0.2080117336	-0.199979
C	 1.3596180151	 2.1259127172	 0.010075925	-0.231967
C	 1.9975863729	 1.614848666	-1.2806504614	 0.003734
C	 1.1649131322	 1.526526326	-2.5659353158	-0.063799
C	 1.7726866436	 0.2342478275	-2.9511802299	-0.054643
C	 2.1619747008	 0.071887273	-1.4383972467	-0.108913
C	 0.7125499478	-0.4153266706	-1.2447243191	 0.067653
C	-0.0446332216	 0.0050615391	 0.0085755567	-0.224319
N	 0.3390682821	 0.2604420722	-2.5448357606	-0.163512
H	-0.4304847779	 1.7816066222	 1.2002498874	 0.088993
H	-0.7259330034	 1.9800402539	-0.5199432908	 0.113199
H	 1.3037921565	 3.2211672881	-0.0008569309	 0.093971
H	 2.0100414414	 1.8586895004	 0.8548902217	 0.092798
H	 2.9456466854	 2.1174119593	-1.4965021305	 0.070874
H	 0.7851268421	 2.3239042496	-3.1919670033	 0.089367
H	 2.1359119548	-0.1701419669	-3.8863254381	 0.094344
H	 3.0205974947	-0.4447433403	-1.0118540305	 0.063192
H	 0.6230543603	-1.4922423949	-1.4182211557	 0.072768
H	 0.4290962586	-0.4910606745	 0.8674894771	 0.093691
H	-1.0744057833	-0.3673423296	-0.0388789281	 0.10255
217.9727	235.9736	356.9504	368.1529	461.008	593.3987	639.0994	713.9121	732.1626	779.0136	803.9914	832.5647	862.6759	871.8152	881.7334	918.391	933.2769	962.6973	995.8004	1003.9126	1008.1447	1042.8836	1089.1564	1096.6129	1097.7749	1123.675	1147.2444	1186.1819	1196.6014	1216.824	1237.2866	1256.9497	1283.2519	1308.6126	1339.4138	1349.9054	1359.1302	1368.2906	1396.1149	1402.3686	1471.5886	1483.4798	1499.2515	3009.2489	3012.1301	3033.9077	3052.1186	3055.9243	3061.0466	3064.5182	3078.9174	3123.4682	3192.8054	3209.3012
C1CC2C3C4C2C(C1)N34	C1C[C@@H]2[C@H]3[C@H]4[C@@H]2[C@@H](C1)N34	
InChI=1S/C8H11N/c1-2-4-6-5(3-1)9-7(4)8(6)9/h4-8H,1-3H2	InChI=1S/C8H11N/c1-2-4-6-5(3-1)9-7(4)8(6)9/h4-8H,1-3H2/t4-,5+,6-,7-,8+,9?/m0/s1
