13
gdb 24750	3.62142	1.21659	0.91066	2.8254	73.22	-0.2488	-0.0685	0.1803	1171.0381	0.088809	-419.431117	-419.423519	-419.422575	-419.463793	27.718	
O	 0.013498836	-0.063531001	 0.002652731	-0.307972
C	-0.0339949414	 1.1529066849	 0.0065814935	 0.173233
C	 1.1824796245	 1.9558352862	 0.0000841781	 0.256347
C	 2.1942851233	 2.6075675947	-0.0052839548	-0.441048
C	-1.2972307813	 1.8965825748	 0.0170808982	 0.157627
C	-1.4737663713	 3.2536353181	 0.0218897669	-0.091169
O	-2.7838748961	 3.5601385145	 0.0315816475	-0.14164
C	-3.4740093016	 2.3758465125	 0.0330732038	 0.01005
C	-2.619537153	 1.3279980486	 0.0244608492	-0.286784
H	 3.0981836207	 3.1672381339	-0.0097079915	 0.214337
H	-0.7843444088	 4.0814597518	 0.0194511661	 0.163935
H	-4.5469452601	 2.4685239573	 0.0405837138	 0.150272
H	-2.8589324708	 0.2775369637	 0.0232521683	 0.142813
74.054	118.5695	173.2775	234.1217	282.0445	443.9289	493.0885	611.4277	621.0678	655.7571	672.7169	690.8752	758.6879	776.7436	830.5639	876.5926	889.6092	942.4694	1015.9213	1072.881	1114.1673	1197.0873	1255.6943	1329.6863	1411.9896	1544.0983	1601.1459	1732.6771	2214.2443	3274.3968	3283.6091	3296.8308	3492.753
O=C(C#C)C1=COC=C1	O=C(C#C)c1cocc1	
InChI=1S/C7H4O2/c1-2-7(8)6-3-4-9-5-6/h1,3-5H	InChI=1S/C7H4O2/c1-2-7(8)6-3-4-9-5-6/h1,3-5H
