18
gdb 67746	3.1224	2.09037	1.49349	1.5552	79.84	-0.2168	-0.0062	0.2107	906.3061	0.148067	-364.69231	-364.685542	-364.684598	-364.722835	28.753	
C	-0.0199175842	 1.5811718988	-0.035558477	-0.513435
C	 0.1285968688	 0.0821974952	 0.0257800272	 0.287423
C	 0.5756192449	-0.6872571712	-1.2383071999	-0.119851
C	 0.4747443813	-1.9865842049	-0.9286987124	-0.227288
C	-0.005452587	-1.8948108483	 0.5043646796	 0.303091
C	-0.5653486858	-2.4598418106	 1.8178171627	-0.346264
C	-0.6017988805	-0.9107719521	 1.9547648045	-0.044417
C	 0.7346836332	-0.7116450923	 1.2086960245	-0.100631
N	-1.0825153321	-0.7773011732	 0.4905279742	-0.189117
H	 0.9367344414	 2.0600002869	-0.2724813693	 0.118717
H	-0.7427555963	 1.867500438	-0.8068397958	 0.128918
H	-0.3701682594	 1.9826299395	 0.9204301191	 0.120589
H	 0.8657028025	-0.2358985198	-2.177676185	 0.106702
H	 0.6615218865	-2.865469675	-1.5270622605	 0.117989
H	-1.5365937716	-2.9574170314	 1.7559506028	 0.113983
H	 0.1313877977	-2.9997513245	 2.4633727332	 0.103356
H	-1.0431892694	-0.3199651319	 2.7570912169	 0.081353
H	 1.7569506299	-0.7049780831	 1.6068684251	 0.058882
190.2427	250.5024	260.9895	388.1888	428.0068	462.5906	547.8697	606.9964	669.7277	697.1077	747.9821	754.9949	818.9035	839.657	855.6152	866.0028	886.3144	893.2108	924.5773	1003.6147	1015.8727	1058.6172	1072.9972	1095.6422	1121.6158	1133.5054	1141.4585	1174.0919	1201.6236	1216.5672	1232.7089	1273.2656	1324.4647	1330.4909	1411.0374	1485.5499	1489.0659	1490.6562	1595.6213	3026.3021	3031.0604	3060.0034	3097.3889	3104.724	3115.4336	3128.4301	3218.8528	3253.897
CC12C=CC34CC(C13)N24	C[C@@]12C=C[C@@]34C[C@@H]([C@H]13)N24	
InChI=1S/C8H9N/c1-7-2-3-8-4-5(6(7)8)9(7)8/h2-3,5-6H,4H2,1H3	InChI=1S/C8H9N/c1-7-2-3-8-4-5(6(7)8)9(7)8/h2-3,5-6H,4H2,1H3/t5-,6+,7+,8+/m0/s1
