17
gdb 12205	2.93593	1.72475	1.47858	4.2764	67.86	-0.2752	0.0038	0.2791	934.8661	0.141295	-363.863682	-363.855299	-363.854355	-363.897218	30.039	
C	 0.4517248484	 1.4401207343	-0.2935266441	-0.401352
C	 0.0332440277	 0.0356647403	 0.0926890935	 0.144127
O	 0.6277173594	-0.968732539	-0.7812922779	-0.291925
C	 1.3137932643	-1.6036538952	 0.3069477613	-0.01533
C	 2.7740691518	-1.5324897682	 0.1689688439	 0.283316
N	 3.9248412193	-1.4719408156	 0.0784250111	-0.327415
C	 0.6639277167	-0.6393894371	 1.3467440606	-0.070381
C	 1.5568099637	 0.1579323291	 2.2834564069	-0.419435
H	 1.5386768874	 1.5541124772	-0.2899713201	 0.13476
H	 0.0907236736	 1.6642160769	-1.3018678207	 0.134978
H	 0.0173195959	 2.174211657	 0.393543801	 0.120628
H	-1.0598112537	-0.0501801327	 0.062744621	 0.086228
H	 1.0302884291	-2.6579068251	 0.4101746956	 0.124305
H	-0.0921236961	-1.1757961921	 1.9247357358	 0.097033
H	 2.3656413087	 0.6656350973	 1.7527601832	 0.144415
H	 0.9715405061	 0.9115932377	 2.8197869542	 0.123741
H	 2.0145130676	-0.4992774348	 3.0294598146	 0.132307
27.2566	144.0881	196.9996	208.8808	237.3416	262.3772	347.3756	383.8793	487.0032	533.2241	583.6399	745.8232	783.8463	836.2458	886.9986	956.4329	1003.2536	1034.1485	1041.7119	1075.1619	1103.9876	1167.8524	1180.4466	1230.5375	1277.276	1312.0684	1354.1239	1373.668	1389.6934	1411.8805	1423.8682	1479.2865	1488.0213	1498.464	1504.5369	2351.4777	3026.0617	3035.289	3039.6056	3044.5189	3080.7311	3106.596	3111.0501	3123.0818	3131.3749
CC1OC(C#N)C1C	C[C@H]1O[C@@H](C#N)[C@H]1C	
InChI=1S/C6H9NO/c1-4-5(2)8-6(4)3-7/h4-6H,1-2H3	InChI=1S/C6H9NO/c1-4-5(2)8-6(4)3-7/h4-6H,1-2H3/t4-,5+,6-/m0/s1
