16
gdb 44773	2.52316	2.17888	1.59291	3.6298	70.15	-0.2521	0.0118	0.2639	868.6209	0.125701	-437.76781	-437.761378	-437.760434	-437.798332	26.729	
N	-0.0649510611	 1.1739375624	 0.1750227411	-0.560477
C	-0.0173756818	-0.075039853	 0.063796005	 0.381301
O	 1.0983783838	-0.8871045047	 0.1380789547	-0.238778
C	 0.5068564751	-2.1806317706	-0.0715604362	 0.029846
C	-0.7520613646	-2.1453702984	 0.9192531066	-0.324506
C	-1.1461401323	-1.0755702586	-0.182415749	 0.303578
O	-2.1669278156	-0.5849811807	-1.0703516008	-0.336014
C	-1.2498188003	-0.9685432786	-2.1829423736	-0.167671
C	-0.5709738685	-1.9951057984	-1.2123420573	-0.052716
H	 0.8638001511	 1.5609344369	 0.3532617124	 0.228378
H	 1.2705719278	-2.9544570615	-0.0463216633	 0.108726
H	-1.3580372443	-3.0496075416	 0.8954668813	 0.129678
H	-0.5473244441	-1.8144899815	 1.9400830526	 0.126987
H	-1.8042338474	-1.3926103883	-3.0216796128	 0.12514
H	-0.6511970803	-0.1080356075	-2.4895201103	 0.141649
H	-1.1620617476	-2.9113138759	-1.2540516505	 0.104878
164.6659	254.9148	318.3542	387.798	461.1981	534.4341	583.9493	638.3657	651.4693	713.9061	769.4413	782.1132	845.7717	876.7489	888.1173	937.7257	958.8377	993.6056	1001.1271	1025.8755	1049.8912	1087.1341	1102.9237	1133.73	1163.8288	1180.9507	1190.9824	1198.0936	1258.1941	1290.3045	1352.7702	1399.011	1491.7282	1496.9414	1814.0322	3071.3316	3078.364	3090.8613	3144.4477	3154.4204	3167.3984	3470.5853
N=C1OC2CC11OCC21	[NH][C]1O[C@H]2C[C@]31OC[C@@H]23	
InChI=1S/C6H7NO2/c7-5-6-1-4(9-5)3(6)2-8-6/h3-4,7H,1-2H2	InChI=1S/C6H7NO2/c7-5-6-1-4(9-5)3(6)2-8-6/h3-4,7H,1-2H2/t3-,4-,6-/m0/s1
