21
gdb 38966	2.97639	1.62963	1.34152	1.7309	80.22	-0.2544	0.0826	0.337	1032.414	0.186593	-387.106239	-387.099133	-387.098189	-387.137658	29.45	
C	-0.0931633585	 1.5187817982	-0.2557809873	-0.198784
C	 1.1247991195	 1.6916996666	 0.6631255363	-0.210209
C	 2.1896175652	 0.7763376903	 0.0283696496	 0.005182
C	 3.260233839	 0.1934092347	 0.9848686352	-0.276251
C	 2.7870556032	-1.2119202566	 1.2975607269	 0.055706
O	 1.431317229	-1.2744288293	 1.7661329652	-0.259876
C	 1.6972970917	-1.5859121487	 0.3873916058	 0.026857
C	 1.3712876146	-0.4365955372	-0.5467474612	-0.02533
C	-0.1188683597	 0.0038123961	-0.5448270279	-0.22217
H	-1.0248862745	 1.8814693407	 0.1883693696	 0.092681
H	 0.0605156551	 2.0780298392	-1.1877101248	 0.091513
H	 1.457492512	 2.7308988817	 0.749733979	 0.084533
H	 0.8846697613	 1.3291546672	 1.6681307493	 0.114044
H	 2.672139923	 1.3191790914	-0.7903890307	 0.068597
H	 4.2426323052	 0.135570927	 0.5010273032	 0.098297
H	 3.3823362446	 0.7974227571	 1.890672187	 0.108676
H	 3.4614046652	-1.9389637384	 1.7453881052	 0.088599
H	 1.4938502239	-2.6160702962	 0.1023427814	 0.088238
H	 1.7082859975	-0.6988039465	-1.5556080053	 0.0661
H	-0.6488693303	-0.5125604161	 0.2618486343	 0.113354
H	-0.630166487	-0.2395552411	-1.4800612807	 0.090242
103.9484	182.4938	258.875	340.3401	366.2591	482.6289	536.6179	584.0725	665.369	738.2447	774.3193	806.5832	864.8121	871.0548	890.1737	901.6491	917.4276	933.5827	977.7387	998.4771	1020.2636	1037.6709	1061.8849	1063.8096	1091.966	1133.2048	1169.3656	1192.643	1210.1542	1234.6387	1262.7479	1264.6664	1298.0848	1310.9612	1321.0885	1326.1502	1348.0602	1351.1614	1357.8513	1376.5184	1437.5432	1482.6512	1486.7345	1492.119	1507.8239	3025.1295	3031.3711	3038.3651	3045.7091	3050.924	3054.269	3075.6747	3082.2956	3093.8113	3101.662	3128.9531	3142.2229
C1CC2CC3OC3C2C1	C1C[C@H]2C[C@H]3O[C@H]3[C@H]2C1	
InChI=1S/C8H12O/c1-2-5-4-7-8(9-7)6(5)3-1/h5-8H,1-4H2	InChI=1S/C8H12O/c1-2-5-4-7-8(9-7)6(5)3-1/h5-8H,1-4H2/t5-,6-,7+,8-/m0/s1
