16
gdb 17302	3.17937	2.48207	1.88471	2.4881	63.07	-0.2377	0.0586	0.2963	751.389	0.130742	-383.669175	-383.662672	-383.661728	-383.699327	26.441	
O	-0.0524644456	 1.4102030367	-0.0567066459	-0.472847
C	 0.020714809	 0.02258457	 0.0034926283	 0.385399
C	-1.3393291003	-0.689389603	 0.0733554509	-0.135928
O	-0.876356072	-1.527035951	 1.1677837251	-0.296683
C	 0.3831892948	-0.8147306468	 1.2526197496	 0.027795
C	 1.5842326768	-1.4422898838	 0.5043424062	-0.061365
C	 1.1185461233	-2.1579611583	-0.7277548915	-0.29055
C	 1.1899832745	-0.6561385174	-0.7608031495	-0.157403
H	 0.8436090323	 1.7640734772	-0.0703160364	 0.283746
H	-2.144154252	-0.0175386018	 0.3937883525	 0.112257
H	-1.6627479853	-1.2743548239	-0.7943953438	 0.10408
H	 0.5762206137	-0.3910952709	 2.2408231497	 0.08007
H	 2.5643995924	-1.6085050933	 0.9349411571	 0.087084
H	 1.89894552	-2.6598094094	-1.2909712352	 0.114048
H	 0.1682049298	-2.6798919399	-0.7175021038	 0.134601
H	 1.8148658387	-0.1314426743	-1.4761033933	 0.085697
202.7667	266.3846	296.8655	317.8586	372.402	456.5572	520.4421	637.246	692.9529	754.1291	809.4224	858.6791	901.1118	928.0884	951.1266	969.1304	983.4761	1000.5955	1036.0211	1047.8529	1059.6496	1088.138	1121.3123	1148.8945	1174.8456	1183.0889	1246.9625	1283.1237	1295.3456	1333.1734	1351.9717	1408.0791	1483.9908	1513.7068	3026.9204	3080.4933	3088.336	3133.0694	3162.4279	3181.817	3216.4646	3804.1596
OC12COC1C1CC21	O[C@]12CO[C@H]1[C@H]1C[C@@H]21	
InChI=1S/C6H8O2/c7-6-2-8-5(6)3-1-4(3)6/h3-5,7H,1-2H2	InChI=1S/C6H8O2/c7-6-2-8-5(6)3-1-4(3)6/h3-5,7H,1-2H2/t3-,4+,5-,6-/m0/s1
