20
gdb 79858	2.87456	1.71704	1.25215	2.0733	79.1	-0.2062	0.0829	0.2891	1047.1666	0.170575	-403.070143	-403.061857	-403.060912	-403.103492	32.016	
C	-0.8481341184	 1.4345135337	-0.186081609	-0.331339
N	-0.5964571544	 0.0050580145	-0.0817331951	-0.101802
C	-1.3486570187	-0.8518017251	 0.8910907165	-0.135691
C	-0.2354573909	-1.9218459068	 0.6593380479	 0.155217
O	-0.0520286348	-2.7466324535	 1.7720577164	-0.278183
C	-0.1744087091	-1.8137476682	 2.8536780921	-0.117472
C	-0.4305051166	-0.4876152988	 2.1322815043	 0.28648
C	-0.5995313351	 0.6858850277	 3.0771650099	-0.516469
C	 0.4666437106	-0.5371095667	 0.8250617757	-0.135696
H	-0.0511073282	 1.8793079896	-0.7921120932	 0.121136
H	-1.7878049143	 1.577966693	-0.7308890904	 0.121144
H	-0.9141861134	 2.0047256278	 0.7486177929	 0.099783
H	-2.4331531478	-0.9751793509	 0.8551870242	 0.074499
H	-0.1768927931	-2.4575885184	-0.283828611	 0.102034
H	-1.0047006354	-2.1047920617	 3.5111416378	 0.101624
H	 0.7495767831	-1.8006811912	 3.4473351499	 0.101624
H	 0.2982089274	 0.8010813315	 3.6966884586	 0.1223
H	-0.7811883025	 1.6374028809	 2.5827263859	 0.133995
H	-1.4391767458	 0.5012878044	 3.7582891014	 0.122324
H	 1.5240933975	-0.2891401019	 0.7112365551	 0.074493
30.8628	151.7046	199.637	263.799	273.411	306.6935	351.483	471.7168	489.151	626.7015	681.321	709.438	718.052	782.4225	789.5289	912.1801	915.6016	942.4053	989.2504	995.5336	1027.9384	1066.379	1097.8773	1122.1484	1138.2693	1145.0338	1152.1121	1164.957	1201.0258	1202.7687	1219.5022	1227.785	1261.7807	1303.8061	1322.3725	1395.0961	1415.6338	1449.585	1480.2125	1487.6136	1505.718	1507.5809	1516.7498	3004.6054	3015.4255	3029.2966	3041.8232	3069.6214	3078.1771	3089.7745	3091.0305	3097.0242	3168.0625	3176.0168
CN1C2C3OCC2(C)C13	CN1[C@H]2[C@@H]3OC[C@@]2(C)[C@H]13	
InChI=1S/C7H11NO/c1-7-3-9-4-5(7)8(2)6(4)7/h4-6H,3H2,1-2H3	InChI=1S/C7H11NO/c1-7-3-9-4-5(7)8(2)6(4)7/h4-6H,3H2,1-2H3/t4-,5-,6+,7+
