21
gdb 89561	4.84433	0.87244	0.85799	2.798	79.08	-0.2368	0.0764	0.3132	1437.908	0.181109	-424.204584	-424.195457	-424.194513	-424.238815	34.992	
C	 0.5133562476	 1.5346111121	 0.5168844414	-0.39757
C	-0.0283654319	 0.1790802661	 0.1113576739	 0.165669
C	 0.2728726782	-0.3400142262	-1.3110665526	-0.389803
C	 0.9433862437	-1.5229404398	-0.5972324292	 0.456751
C	 0.4589688357	-2.9916934947	-0.6905017996	-0.32644
C	 1.9213523911	-3.4343825538	-0.4051923342	 0.165545
O	 2.4525808854	-4.5677975876	-1.0408077487	-0.432446
C	 2.3923646167	-2.0120825035	-0.8198905973	-0.325476
O	 0.7230374637	-0.9141332547	 0.6974785334	-0.340651
H	 1.5654726369	 1.6321285112	 0.2314062533	 0.117735
H	-0.0569060812	 2.3355303985	 0.0331640143	 0.114442
H	 0.4383504879	 1.6682990715	 1.6007057856	 0.127166
H	-1.0897243051	 0.0986357828	 0.3849044252	 0.073281
H	-0.5898547803	-0.5849726094	-1.9339639195	 0.10559
H	 0.9615233719	 0.290560274	-1.8800498017	 0.105317
H	-0.3273493502	-3.299581537	 0.0018879499	 0.110775
H	 0.1643508802	-3.2473196447	-1.7157115472	 0.087972
H	 2.0749721209	-3.5959663045	 0.6645816444	 0.107621
H	 2.3314977961	-4.4614821564	-1.99041052	 0.274647
H	 2.6607879586	-1.9801756489	-1.8828508872	 0.089476
H	 3.172182044	-1.5232703549	-0.2322097242	 0.110398
46.1902	72.2813	220.9624	228.4187	269.2983	298.0012	340.8287	352.9325	414.5926	444.444	469.7697	493.4729	692.7961	768.4057	790.4459	856.0719	870.3366	909.4166	929.8695	941.3694	946.8053	975.9379	1043.1943	1064.05	1078.6885	1102.6867	1121.4025	1178.8223	1195.847	1199.4189	1214.9848	1224.0876	1252.2752	1280.0373	1306.9255	1325.6588	1334.8939	1390.2348	1409.2931	1432.8758	1446.3894	1474.8116	1481.4825	1488.3339	1495.6477	3000.7923	3031.562	3032.4746	3039.8442	3061.8195	3085.6901	3104.0091	3110.7513	3114.917	3118.3297	3118.9661	3803.8962
CC1CC2(CC(O)C2)O1	C[C@H]1C[C@]2(C[C@@H](O)C2)O1	
InChI=1S/C7H12O2/c1-5-2-7(9-5)3-6(8)4-7/h5-6,8H,2-4H2,1H3	InChI=1S/C7H12O2/c1-5-2-7(9-5)3-6(8)4-7/h5-6,8H,2-4H2,1H3/t5-,6-,7-/m0/s1
