17
gdb 55783	4.55513	0.95832	0.80369	4.2266	72.7	-0.2355	-0.0007	0.2348	1405.4752	0.136008	-455.196251	-455.187101	-455.186156	-455.232161	31.139	
C	-0.2390497445	 1.5352021536	-0.0609226268	-0.503067
C	 0.175920947	 0.0714797712	-0.0935936766	 0.405582
O	 1.3119715829	-0.3014184946	-0.2327721922	-0.296981
N	-0.9111295425	-0.7921132942	 0.0567466946	-0.432165
C	-0.9035272615	-2.1731178583	 0.0748859764	 0.531202
N	 0.0698290679	-2.9753447139	-0.0369656484	-0.314946
C	-0.5089995152	-4.3209347524	 0.0544809591	-0.181396
C	-2.0350934369	-4.0952788283	 0.2452418494	-0.111687
O	-2.1729637739	-2.6574863589	 0.2419621042	-0.277384
H	 0.6514590041	 2.1492377588	-0.1871218507	 0.15795
H	-0.9503893541	 1.7592603822	-0.8630321599	 0.141862
H	-0.7190954693	 1.7849185982	 0.8913553405	 0.142195
H	-1.8275173446	-0.3871207672	 0.1670832329	 0.262943
H	-0.2856513409	-4.8892800586	-0.854905484	 0.117695
H	-0.0636443158	-4.8660576192	 0.8937377467	 0.117702
H	-2.6433826974	-4.4989612544	-0.5687871843	 0.120262
H	-2.4187566554	-4.4733932839	 1.1968135192	 0.120234
44.666	59.5453	67.9001	89.427	147.2103	269.2773	342.0388	362.8261	529.4302	586.6635	608.4765	714.9559	748.9707	787.4152	830.6977	922.6497	935.8928	959.663	988.6156	1047.7059	1050.4362	1080.9571	1122.1453	1219.8602	1233.7465	1244.2858	1247.732	1340.5078	1375.4059	1387.3572	1470.4787	1483.4572	1507.8135	1524.0962	1550.3048	1758.354	1844.2422	3037.5086	3041.4984	3056.3758	3063.9756	3103.8879	3104.2898	3168.0694	3639.7942
CC(=O)NC1=NCCO1	CC(=O)NC1=NCCO1	
InChI=1S/C5H8N2O2/c1-4(8)7-5-6-2-3-9-5/h2-3H2,1H3,(H,6,7,8)	InChI=1S/C5H8N2O2/c1-4(8)7-5-6-2-3-9-5/h2-3H2,1H3,(H,6,7,8)
