18
gdb 86586	2.4673	1.40513	1.33484	4.0927	68.08	-0.2527	0.0104	0.2631	1060.1388	0.148219	-476.248135	-476.23949	-476.238546	-476.281356	33.275	
N	 0.495314987	 0.7955810953	 0.2073722673	-0.519728
C	-0.1484380065	-0.0980657959	-0.5825048177	 0.455066
O	 0.3345678303	-0.4700544639	-1.6491317408	-0.402561
C	-1.4765037462	-0.6048439388	-0.0641730505	-0.204575
C	-2.4784967433	-0.973665777	-1.1991132152	-0.267349
C	-2.0343302687	-2.4576007076	-1.1171591964	 0.0871
O	-1.0303109128	-2.8276305999	-2.0350812623	-0.452292
C	-1.4201648409	-2.153105915	 0.2859046252	 0.138397
O	-0.1957901474	-2.7529309953	 0.5585355218	-0.428668
H	 1.4343171446	 1.0604983411	-0.0445845242	 0.266665
H	 0.1668743079	 1.0150010685	 1.1311659172	 0.267438
H	-1.8578189733	 0.0375621863	 0.7330986761	 0.06678
H	-3.5151123792	-0.8297207259	-0.8863226711	 0.107174
H	-2.3190832831	-0.4876996822	-2.1633748248	 0.123188
H	-2.8109850505	-3.2246063741	-1.1633898001	 0.082052
H	-0.4783860766	-2.0338597062	-2.188028704	 0.306947
H	-2.1161268019	-2.3599742938	 1.1053676295	 0.084332
H	 0.1238257506	-3.0649522155	-0.30401757	 0.290034
64.4196	138.6739	193.8054	252.5815	264.2192	305.9081	384.0393	411.3363	431.6549	494.0053	585.5264	611.1889	619.6333	728.9451	759.906	772.3219	785.3058	859.5704	902.9331	928.5048	1004.2965	1032.1351	1076.9328	1103.2954	1124.872	1166.2574	1182.0417	1243.0439	1250.4748	1264.9206	1289.134	1325.7065	1341.2421	1432.1729	1440.1812	1466.7982	1499.4367	1621.6634	1746.7603	3052.5406	3068.8538	3076.864	3087.3289	3133.7077	3520.9637	3600.1365	3678.0201	3736.2556
NC(=O)C1CC(O)C1O	NC(=O)[C@H]1C[C@@H](O)[C@H]1O	
InChI=1S/C5H9NO3/c6-5(9)2-1-3(7)4(2)8/h2-4,7-8H,1H2,(H2,6,9)	InChI=1S/C5H9NO3/c6-5(9)2-1-3(7)4(2)8/h2-4,7-8H,1H2,(H2,6,9)/t2-,3+,4-/m0/s1
