20
gdb 119792	5.27465	0.84754	0.78331	0.9594	80.	-0.2371	0.0252	0.2623	1527.27	0.171224	-403.159026	-403.150354	-403.14941	-403.193246	32.367	
C	-0.0021709985	 1.5954322268	-0.0752605605	-0.385853
C	-0.0107343468	 0.0683037711	 0.0221628377	-0.156348
C	 0.6517107916	-0.5946618758	-1.1884174134	-0.298701
C	 0.6512389416	-2.0872301432	-1.1320996472	 0.409599
N	 0.0464547524	-2.8340610198	-0.2924760368	-0.312227
C	 0.3121792473	-4.1964695032	-0.6863336312	-0.021734
C	-0.1974401982	-4.6037912119	-2.0562384354	-0.318581
C	 1.2063989528	-4.0939082317	-1.9086970284	 0.057662
O	 1.3964956211	-2.7031178362	-2.1047970206	-0.250316
H	 1.0197176695	 1.9868144237	-0.135903798	 0.113498
H	-0.5408488623	 1.9420995416	-0.9645204156	 0.113223
H	-0.479428856	 2.0480126782	 0.799040188	 0.115171
H	 0.5043509922	-0.2555332044	 0.9327800479	 0.11229
H	-1.0368192997	-0.3018596061	 0.113589791	 0.117855
H	 0.1503060139	-0.286365773	-2.1162650267	 0.124797
H	 1.6923337099	-0.2625143593	-1.2984156508	 0.123994
H	 0.4074792096	-4.9289608742	 0.1058242238	 0.100848
H	-0.2983220091	-5.6672821759	-2.2437231605	 0.12021
H	-0.9393794993	-3.9743461387	-2.5364797826	 0.123808
H	 2.083186628	-4.6817907779	-2.1464821408	 0.110804
49.3778	71.838	135.8942	194.5669	243.0592	319.0476	367.8727	393.4366	474.1846	641.8106	713.9169	744.276	748.4304	773.4643	816.2676	878.9072	907.9987	923.82	949.9554	985.2729	1020.7839	1049.9157	1052.2083	1081.8711	1105.9525	1127.5072	1131.4564	1140.3147	1182.8969	1211.4739	1251.6407	1303.5981	1318.9998	1347.2816	1365.7719	1413.1653	1415.6198	1461.4516	1470.6098	1489.3148	1499.5418	1509.0746	1703.2027	3019.5493	3028.3535	3047.046	3052.6044	3077.7394	3102.7547	3105.4176	3130.3571	3183.784	3199.4523	3224.4541
CCCC1=NC2CC2O1	CCCC1=N[C@H]2C[C@H]2O1	
InChI=1S/C7H11NO/c1-2-3-7-8-5-4-6(5)9-7/h5-6H,2-4H2,1H3	InChI=1S/C7H11NO/c1-2-3-7-8-5-4-6(5)9-7/h5-6H,2-4H2,1H3/t5-,6+/m0/s1
