20
gdb 22045	2.34264	1.16503	1.04196	0.42	84.4	-0.2457	0.0078	0.2535	1285.5132	0.166104	-403.083125	-403.072241	-403.071297	-403.118633	40.199	
C	 0.1335251232	 1.5009893354	 0.0290956639	-0.476587
C	 0.0693908096	-0.002873777	 0.048464879	 0.365087
N	 0.0325267417	-0.6942684395	 1.1204610185	-0.178766
O	 0.0438753362	 0.1190035511	 2.2650621564	-0.402198
C	 0.0143754498	-0.7792874354	-1.2730183573	-0.006502
C	 0.0793114085	-2.3060688093	-1.0544743075	-0.399256
C	-1.3089241718	-0.4210713977	-2.0026779846	-0.408223
C	 1.1519434595	-0.3642312717	-2.1066148227	 0.351829
C	 2.0788377001	-0.0367721044	-2.7991097152	-0.516063
H	 0.9153687167	 1.847241596	 0.7103564454	 0.149464
H	 0.3385526343	 1.8800166792	-0.9723740778	 0.131545
H	-0.8078157118	 1.9289432819	 0.3909803746	 0.141111
H	 0.0451515754	-0.5328136814	 2.9739196433	 0.305322
H	-0.7645195986	-2.6377005662	-0.4460629355	 0.124648
H	 0.0452652811	-2.8131458585	-2.0224566395	 0.112321
H	 0.9994171795	-2.589478984	-0.541158989	 0.131661
H	-1.3921345939	 0.6535155066	-2.1810215037	 0.126118
H	-1.3509213117	-0.9290808358	-2.9697783925	 0.127522
H	-2.1619988625	-0.7430298724	-1.3979949979	 0.123627
H	 2.9016867649	 0.2498427832	-3.406229238	 0.19734
54.6691	93.6802	145.3909	179.9503	205.1592	228.6609	254.0623	281.6953	317.153	348.8546	374.7518	423.1776	429.2602	461.3396	551.2944	576.0856	621.9466	625.9452	638.7857	732.3845	843.4524	938.3239	952.7679	971.7451	1016.3151	1041.9412	1052.4072	1148.5913	1168.7942	1234.4454	1272.1355	1391.7089	1394.1943	1401.821	1418.8681	1472.3462	1478.1406	1482.3474	1483.5211	1498.254	1507.2346	1724.8688	2228.7047	3043.1803	3046.0077	3055.0685	3105.6466	3120.0613	3127.8965	3131.0416	3144.2267	3149.4753	3501.0398	3820.3071
CC(=NO)C(C)(C)C#C	CC(=NO)C(C)(C)C#C	
InChI=1S/C7H11NO/c1-5-7(3,4)6(2)8-9/h1,9H,2-4H3	InChI=1S/C7H11NO/c1-5-7(3,4)6(2)8-9/h1,9H,2-4H3
