20
gdb 128315	3.11044	1.2087	0.88637	1.9314	84.2	-0.1844	0.0424	0.2268	1345.7364	0.170954	-399.360615	-399.350356	-399.349412	-399.396218	36.193	
C	 0.1037190604	 1.4409739896	-0.0374793915	-0.309718
N	-0.0983170148	 0.0009831682	-0.0737227625	-0.375449
C	 0.565099871	-0.7222494629	-1.0569810275	 0.350465
N	 1.1636066787	-0.124745498	-2.0819791774	-0.323094
N	 1.6177738478	-1.1618067362	-2.8364322136	-0.286563
C	 1.3327934434	-2.379639718	-2.3105830373	 0.312164
C	 1.7631096596	-3.6496766445	-2.9691708709	-0.5032
C	 0.6385659258	-2.143400462	-1.137717364	 0.037208
C	 0.0657928803	-3.1247965836	-0.1649411635	-0.529108
H	 1.1568274713	 1.7328526085	 0.09099823	 0.111879
H	-0.2422951719	 1.8774074829	-0.9776855575	 0.144119
H	-0.4867459059	 1.8607731195	 0.780963266	 0.108942
H	-0.0409754452	-0.4364195207	 0.8346361079	 0.23145
H	 2.1018720184	-0.9617390265	-3.693456907	 0.260305
H	 2.8014820002	-3.9083587665	-2.7283080385	 0.136912
H	 1.134869031	-4.4835643801	-2.6464062603	 0.139208
H	 1.685002371	-3.5800176682	-4.0595394088	 0.127587
H	 0.6082642826	-3.13560851	 0.7906852201	 0.117745
H	-0.9811985981	-2.8926436381	 0.0650170257	 0.129503
H	 0.0972205244	-4.1455239136	-0.5574062392	 0.119643
52.4645	83.0724	117.2066	151.8061	180.5226	198.9199	248.9829	280.2483	310.9024	327.9872	415.2378	509.6742	538.7274	637.9402	653.3194	729.0861	742.7067	796.0603	949.6794	997.7877	1054.2922	1062.913	1066.1271	1119.7939	1156.6446	1169.8722	1202.6523	1241.4384	1304.2218	1398.873	1415.7447	1425.8853	1450.118	1472.1607	1478.9441	1482.0739	1485.1168	1496.286	1503.5782	1516.3234	1533.5495	1572.6774	1647.2057	2992.1925	3005.9956	3026.4056	3053.8568	3079.8729	3083.1368	3099.428	3117.6971	3125.9067	3589.6198	3687.3251
CNC1=NNC(C)=C1C	CNc1n[nH]c(C)c1C	
InChI=1S/C6H11N3/c1-4-5(2)8-9-6(4)7-3/h1-3H3,(H2,7,8,9)	InChI=1S/C6H11N3/c1-4-5(2)8-9-6(4)7-3/h1-3H3,(H2,7,8,9)
