17
gdb 27219	3.26657	1.56672	1.07105	1.4511	83.2	-0.1793	0.0142	0.1936	1083.5507	0.139148	-380.909745	-380.902082	-380.901138	-380.941976	29.962	
N	 0.1476679576	 1.4065708604	-0.0650442251	-0.60956
C	-0.0191331768	 0.0024973125	-0.0090231319	 0.08844
C	-1.0945111659	-0.8479438595	-0.0387086441	 0.231412
C	-2.5977767975	-0.8775396231	-0.0871952724	-0.43883
C	-2.8722688867	-2.3770448874	-0.0633206844	-0.089246
C	-1.7337844754	-3.0950332629	-0.0067903344	-0.202056
C	-0.595250843	-2.1871199019	 0.0083953229	 0.274958
C	 0.777139159	-2.1327902558	 0.0720032987	-0.25837
N	 1.1112891552	-0.7938094645	 0.0567601474	-0.259017
H	-0.5705391028	 1.8288627594	-0.6421366555	 0.243142
H	 0.0816867119	 1.8355651461	 0.8542161302	 0.2414
H	-3.0726786443	-0.3703255638	 0.7647768451	 0.114276
H	-3.0183823421	-0.4104687724	-0.9893029771	 0.113538
H	-3.8753397292	-2.7842371731	-0.0921416623	 0.088148
H	-1.6733483441	-4.1761494469	 0.0208266657	 0.09086
H	 1.5368198119	-2.8948547599	 0.1331605431	 0.115569
H	 2.0426411122	-0.4165788273	 0.0176600642	 0.255337
64.5167	171.2455	228.7272	267.809	314.9611	424.5527	499.773	532.6837	603.8356	629.0299	665.75	683.8761	687.9287	754.7864	791.711	821.017	856.305	931.3228	946.4812	954.7082	1046.6284	1072.3582	1125.1008	1143.7101	1162.097	1206.8006	1262.9692	1281.3941	1306.7045	1354.6859	1403.7551	1456.6604	1471.9384	1583.1132	1605.3578	1645.636	1676.6873	3003.2779	3023.0983	3196.9802	3220.4924	3261.3094	3484.9721	3575.6757	3676.3114
NC1=C2CC=CC2=CN1	Nc1c2CC=Cc2c[nH]1	
InChI=1S/C7H8N2/c8-7-6-3-1-2-5(6)4-9-7/h1-2,4,9H,3,8H2	InChI=1S/C7H8N2/c8-7-6-3-1-2-5(6)4-9-7/h1-2,4,9H,3,8H2
