20
gdb 94059	4.31909	0.95614	0.82482	3.9284	80.21	-0.2659	0.0346	0.3005	1394.9554	0.172316	-403.185137	-403.176458	-403.175514	-403.218367	33.034	
C	 0.0007048009	 1.5298588514	 0.0793412734	-0.404149
C	 0.0266848102	 0.0126309507	-0.0139037497	 0.144969
C	 0.7030766365	-0.5059889848	-1.2884600995	-0.215074
C	 0.8156840596	-2.0358154121	-1.2731563232	-0.220034
C	 1.4775676671	-2.4994062118	 0.0443565485	-0.154385
C	 0.7330679241	-1.8662032235	 1.2451580058	-0.081941
O	 0.7212593465	-0.4636990114	 1.140470706	-0.256253
C	 1.5024202248	-3.955381316	 0.1597646097	 0.259264
N	 1.5028234744	-5.1069672607	 0.2611110485	-0.321315
H	 1.0191296949	 1.9300270154	 0.0640867398	 0.125937
H	-0.5536817334	 1.9566177521	-0.7616619222	 0.117456
H	-0.4777270977	 1.8463870607	 1.0096857573	 0.127865
H	-1.0073820245	-0.3754415893	 0.0176452688	 0.067588
H	 0.1363079416	-0.1808424678	-2.1675978714	 0.104686
H	 1.7019007648	-0.0569223623	-1.3607340836	 0.105916
H	-0.181817015	-2.4867412465	-1.3419598225	 0.118285
H	 1.3886296499	-2.3979466708	-2.1315099936	 0.119351
H	 2.5135819422	-2.1388839612	 0.0707781286	 0.130051
H	-0.2915821098	-2.2708991284	 1.2869752417	 0.104464
H	 1.2360771031	-2.1118461637	 2.1836481076	 0.12732
83.2024	142.8429	200.2877	215.727	251.1811	306.0322	333.0868	372.0986	462.6693	482.623	522.9939	557.285	588.9206	790.3526	829.4699	874.2489	915.2635	942.0737	992.195	1008.6915	1035.1784	1070.7184	1099.2802	1141.0436	1146.2163	1177.6394	1215.0195	1248.4458	1289.1363	1313.202	1326.7006	1339.0205	1362.5116	1384.2132	1398.8335	1413.3123	1418.0746	1474.7298	1485.4306	1489.6255	1499.0645	1502.4107	2355.6388	2942.1374	2975.6706	3028.4013	3033.2662	3043.1957	3044.536	3078.5775	3092.2684	3100.4984	3118.0125	3124.9258
CC1CCC(CO1)C#N	C[C@H]1CC[C@@H](CO1)C#N	
InChI=1S/C7H11NO/c1-6-2-3-7(4-8)5-9-6/h6-7H,2-3,5H2,1H3	InChI=1S/C7H11NO/c1-6-2-3-7(4-8)5-9-6/h6-7H,2-3,5H2,1H3/t6-,7+/m0/s1
