19
gdb 99322	5.65791	0.62986	0.58721	3.5637	74.32	-0.2579	0.0175	0.2754	1854.4979	0.159059	-456.339893	-456.330128	-456.329184	-456.376718	34.234	
O	 0.2624628574	 1.2054978974	 0.2267741907	-0.418847
C	 0.0015054279	-0.0512179589	-0.3209666651	-0.144536
C	-1.4503553229	-0.4523592769	-0.035361017	 0.391961
O	-2.1742272399	 0.3056528847	 0.5943788006	-0.387882
N	-1.84781099	-1.6565144178	-0.5128406093	-0.320395
C	-3.1792439651	-2.2038620324	-0.2901405075	-0.186461
C	-3.1195611854	-3.6322351574	 0.1926965414	 0.020187
C	-4.2230911757	-4.5714071267	-0.1115569326	-0.241844
N	-2.9125778295	-4.7354583711	-0.7676624814	-0.320503
H	-0.577034446	 1.4650649592	 0.6440615264	 0.294935
H	 0.1630060235	-0.0519720251	-1.4113268565	 0.108776
H	 0.6710761847	-0.8178396278	 0.1020154295	 0.110295
H	-1.1768083515	-2.2257422636	-1.0056291954	 0.255213
H	-3.6580368829	-1.5543612011	 0.4472619277	 0.157411
H	-3.7771933709	-2.151286077	-1.2121472257	 0.103644
H	-2.5684772569	-3.7681232229	 1.1210175961	 0.105879
H	-4.4823842341	-5.350431892	 0.5987131451	 0.129028
H	-5.0577047424	-4.2028499342	-0.702863783	 0.116946
H	-2.9732532603	-4.3792494162	-1.720164584	 0.226192
22.6014	67.0936	73.9154	84.5053	196.7978	253.7356	298.1439	370.0584	429.7955	440.2677	476.0224	526.8921	609.6561	703.851	793.6589	827.8907	905.1177	931.1488	954.9033	1021.2957	1036.7111	1055.0433	1081.2355	1129.4829	1144.0418	1160.5976	1208.6262	1243.6576	1247.2186	1261.9866	1282.6347	1308.7022	1315.789	1357.4618	1436.7327	1463.7823	1494.1541	1508.5911	1512.915	1557.4503	1768.911	2970.8142	2989.2316	2996.5697	3106.2052	3111.8803	3134.4949	3198.4257	3474.512	3623.3385	3650.4132
OCC(=O)NCC1CN1	OCC(=O)NC[C@H]1CN1	
InChI=1S/C5H10N2O2/c8-3-5(9)7-2-4-1-6-4/h4,6,8H,1-3H2,(H,7,9)	InChI=1S/C5H10N2O2/c8-3-5(9)7-2-4-1-6-4/h4,6,8H,1-3H2,(H,7,9)/t4-/m1/s1
