17
gdb 56836	3.16861	1.13411	0.97866	2.8589	72.75	-0.2513	0.0184	0.2697	1214.6231	0.136571	-417.930904	-417.922724	-417.92178	-417.964426	30.581	
N	 0.0103220833	 1.4036162439	-0.0465327635	-0.496323
C	 0.0201219514	-0.0581661178	-0.1589464949	-0.190015
C	 0.704220563	-0.5525015284	-1.3765641293	 0.260061
N	 1.2513280604	-0.9012878761	-2.3338758565	-0.321446
C	 0.6861193603	-0.6548095005	 1.0825610901	 0.070206
C	-0.0159733008	-0.6730796822	 2.4674072174	 0.030864
C	-0.9516175645	-1.8183005117	 2.0100077159	-0.236622
C	 0.4931095803	-2.125771547	 1.5464883113	 0.031378
O	 0.9679445816	-1.7012746747	 2.8845465207	-0.306677
H	 0.9650071683	 1.7525371804	-0.0254874403	 0.243692
H	-0.4267935579	 1.8139373492	-0.8667194576	 0.246801
H	-1.021757526	-0.3858889765	-0.2249167575	 0.130731
H	 1.7307426353	-0.3399110783	 1.1540601096	 0.099108
H	-0.2052593044	 0.1537191071	 3.1503151634	 0.10723
H	-1.3093797726	-2.456513798	 2.8178382048	 0.119272
H	-1.7257050774	-1.6179140337	 1.2665648088	 0.101796
H	 0.9144993294	-3.0392581058	 1.1279247776	 0.109946
43.6464	112.7143	194.906	211.3838	269.4796	321.3907	408.4887	467.1209	552.8881	593.3451	637.92	731.2002	818.4928	858.3829	873.6255	899.6839	917.3205	934.4799	971.793	1013.8125	1037.9578	1052.54	1095.6884	1126.9576	1159.2563	1170.0344	1197.3529	1202.651	1221.2915	1260.5546	1281.9017	1305.1236	1381.7311	1405.3916	1499.3389	1663.2913	2343.0535	3064.0925	3077.7592	3088.1485	3128.2378	3136.7848	3154.6059	3491.1319	3570.6759
NC(C#N)C1C2CC1O2	N[C@@H](C#N)[C@H]1[C@H]2C[C@@H]1O2	
InChI=1S/C6H8N2O/c7-2-3(8)6-4-1-5(6)9-4/h3-6H,1,8H2	InChI=1S/C6H8N2O/c7-2-3(8)6-4-1-5(6)9-4/h3-6H,1,8H2/t3-,4-,5+,6+/m0/s1
