18
gdb 80301	2.4444	1.58534	1.27971	4.9399	71.64	-0.2457	0.0514	0.2971	1063.3448	0.147477	-439.127785	-439.119193	-439.118249	-439.160795	32.311	
C	-0.0591243485	 1.5370536273	 0.0141755282	-0.431489
C	 0.0598604225	 0.0312972469	 0.0446713269	-0.099901
C	 1.3613069796	-0.7073005281	-0.1823778646	 0.029145
O	 2.5697418708	 0.0146983007	-0.0640732858	-0.236822
C	 2.7171071811	 0.4568402904	 1.2325000662	 0.467941
O	 3.6101198277	 1.1704249981	 1.5920248746	-0.39348
N	 1.6759138006	-0.0571011658	 1.9743237829	-0.410375
C	 0.7128954253	-0.7636498564	 1.178005789	 0.289692
C	 0.0735392139	-1.9792013298	 1.7972513163	-0.470627
H	 0.8045348865	 2.0332598638	 0.4617874188	 0.146937
H	-0.1425354834	 1.8948050181	-1.0169459824	 0.131591
H	-0.951562776	 1.8658092514	 0.5568322685	 0.121495
H	-0.7849874373	-0.4957021523	-0.3937868565	 0.094326
H	 1.4420821678	-1.5485072332	-0.8600921118	 0.114771
H	 1.4753809019	 0.3513160009	 2.8720618975	 0.261364
H	-0.6026354266	-1.6999962571	 2.6137183185	 0.124709
H	-0.5175166084	-2.5228786102	 1.0550361932	 0.127047
H	 0.8336090326	-2.6560735749	 2.2000212903	 0.133675
113.1312	128.8327	189.9672	204.9547	218.9631	262.6045	319.553	415.4698	491.7742	518.3732	589.4924	622.6035	702.4691	768.8296	776.7358	800.4578	882.4155	927.7861	980.4767	993.8462	1030.4522	1049.4272	1117.5716	1123.7463	1147.8299	1158.7782	1216.8013	1248.8673	1318.2259	1360.8257	1386.1238	1417.2085	1423.6173	1460.0206	1485.4231	1491.5407	1500.0768	1505.0669	1893.1142	3031.0167	3041.3612	3094.0967	3100.1063	3116.1995	3123.3433	3138.9819	3186.1935	3660.1743
CC1C2OC(=O)NC12C	C[C@H]1[C@H]2OC(=O)N[C@@]12C	
InChI=1S/C6H9NO2/c1-3-4-6(3,2)7-5(8)9-4/h3-4H,1-2H3,(H,7,8)	InChI=1S/C6H9NO2/c1-3-4-6(3,2)7-5(8)9-4/h3-4H,1-2H3,(H,7,8)/t3-,4+,6-/m0/s1
