20
gdb 124570	4.08094	0.89275	0.84128	0.4949	80.51	-0.2573	-0.0026	0.2547	1447.9299	0.172329	-399.348938	-399.339831	-399.338887	-399.383908	33.211	
C	 0.0285972794	 1.5370098486	-0.0377717229	-0.39347
C	 0.055862919	 0.0098117321	 0.0961593541	 0.054699
C	 0.6911471615	-0.4155987197	 1.4254186123	-0.387544
C	-1.3696526839	-0.5679239078	-0.0735500896	-0.310528
C	-1.4223312996	-2.0625052877	-0.1450733348	 0.312205
N	-1.012436971	-2.7356039461	-1.2272058175	-0.270076
N	-1.2061337919	-4.0048715665	-0.8934617193	-0.070254
N	-1.7111295636	-4.2356471169	 0.3087365132	-0.196569
C	-1.8561798512	-3.0063326906	 0.8061021719	-0.130452
H	 1.0355366296	 1.9579580264	 0.0487832175	 0.111354
H	-0.3838796963	 1.8474242542	-1.0035812933	 0.111534
H	-0.587491017	 1.9890558313	 0.7491310462	 0.11073
H	 0.6648865278	-0.3975261944	-0.7212670879	 0.091195
H	 0.7285851545	-1.5043386322	 1.5253190668	 0.120416
H	 1.7144519386	-0.0356151752	 1.5092763754	 0.112211
H	 0.1208676531	-0.020328203	 2.2753608669	 0.107281
H	-1.9981639985	-0.2287261215	 0.7592179478	 0.100551
H	-1.8092887569	-0.1557764379	-0.9888165883	 0.11505
H	-0.9913463149	-4.7562139649	-1.528752731	 0.2913
H	-2.2571483088	-2.8526612881	 1.7955553927	 0.120368
33.6873	69.8711	112.9152	224.5233	249.85	294.9601	318.0875	340.7323	415.3616	427.7045	526.0815	695.0362	724.9353	781.495	824.6705	880.1764	887.3236	930.6613	954.8716	967.401	996.9502	1031.8845	1096.8102	1138.5228	1164.8403	1191.5194	1203.7037	1232.8521	1271.4777	1310.6505	1353.9217	1365.9448	1374.2696	1401.1234	1408.5659	1421.944	1469.8085	1487.0028	1489.1679	1496.1902	1504.6873	1509.8116	1562.0544	3020.5257	3022.5444	3025.4928	3033.9041	3071.943	3087.3242	3094.4707	3100.1159	3108.1238	3266.3774	3668.8731
CC(C)CC1=NNN=C1	CC(C)Cc1n[nH]nc1	
InChI=1S/C6H11N3/c1-5(2)3-6-4-7-9-8-6/h4-5H,3H2,1-2H3,(H,7,8,9)	InChI=1S/C6H11N3/c1-5(2)3-6-4-7-9-8-6/h4-5H,3H2,1-2H3,(H,7,8,9)
