19
gdb 113065	3.68494	0.97977	0.82982	2.1879	73.85	-0.2183	-0.0333	0.185	1419.2854	0.156152	-460.137315	-460.1274	-460.126456	-460.172796	34.485	
C	 0.3002552216	 1.7824508445	-0.6381993159	-0.248714
O	 0.6682874356	 0.5506135819	-0.0385284511	-0.238197
C	 0.6517889401	-0.5225686017	-0.9274071585	 0.034522
C	 1.0183953734	-1.8975590178	-0.3084189556	-0.311112
C	-0.1423893739	-2.5816610656	-1.0783072463	 0.034525
O	-0.8909669435	-3.4921187891	-0.3348074465	-0.238195
C	-1.9580408412	-4.0728397634	-1.0673305704	-0.248714
C	-0.7197557964	-1.155109447	-1.2916708642	 0.343208
O	-1.8281249106	-0.7183002238	-1.418858002	-0.304705
H	 0.9864898524	 2.0465281428	-1.4580557274	 0.104254
H	-0.7235536648	 1.7502696895	-1.0282350098	 0.13992
H	 0.3680999806	 2.5455819466	 0.1400189484	 0.130906
H	 1.2388262849	-0.3081819071	-1.8372249206	 0.084635
H	 2.0247904995	-2.2724637889	-0.489312019	 0.115542
H	 0.8009437797	-1.8921180928	 0.7618097996	 0.142411
H	 0.1945968395	-3.0155942496	-2.0356398585	 0.084635
H	-2.4558830858	-4.7762965374	-0.3965867041	 0.130907
H	-2.6773066712	-3.3154563776	-1.3995599872	 0.139919
H	-1.5850102799	-4.6209551535	-1.9466693308	 0.104254
55.1247	92.7422	105.6587	163.2013	176.408	226.3376	236.7475	265.6006	276.0679	365.6492	450.2489	570.5348	572.1132	682.7533	796.5573	861.1306	929.8463	997.0171	1037.2891	1041.4839	1073.0491	1085.8292	1155.0752	1177.6206	1180.4261	1186.4801	1199.8571	1242.6531	1249.9342	1259.0865	1265.1442	1361.6603	1386.0305	1472.858	1477.1976	1482.1754	1485.2819	1487.7234	1512.1067	1512.8817	1876.7502	2949.7902	2957.5125	2984.1408	2985.038	3066.5261	3066.7812	3089.4241	3127.0106	3127.1866	3157.0537
COC1CC(OC)C1=O	CO[C@H]1C[C@@H](OC)C1=O	
InChI=1S/C6H10O3/c1-8-4-3-5(9-2)6(4)7/h4-5H,3H2,1-2H3	InChI=1S/C6H10O3/c1-8-4-3-5(9-2)6(4)7/h4-5H,3H2,1-2H3/t4-,5+
