19
gdb 19355	4.07137	1.62205	1.44579	1.6514	74.73	-0.2028	0.0793	0.2821	952.3681	0.165671	-327.842951	-327.835456	-327.834512	-327.874553	29.654	
C	 0.1032278737	 1.5205014546	-0.161338178	-0.370536
C	-0.0779712991	 0.0120552245	 0.059667404	-0.293602
C	 0.6594472885	-0.4960455418	 1.2667076221	 0.383352
C	 2.1090879296	-0.9070722174	 1.2783271019	-0.33769
C	 1.0512565687	-1.9166793942	 1.6563633654	-0.138531
C	 0.4833560187	-1.6650457978	 3.0825603909	-0.047818
N	 1.209801303	-0.5247460161	 3.7018495134	-0.33921
C	 0.118912936	-0.2838797809	 2.7216829333	-0.118262
H	 1.1576169079	 1.7678776987	-0.3201042135	 0.121125
H	-0.4629577292	 1.8643880968	-1.0326943119	 0.108095
H	-0.2416983958	 2.0919138329	 0.7072886022	 0.115255
H	-1.1484226482	-0.2169336935	 0.1591608021	 0.092454
H	 0.268677733	-0.5350790439	-0.8259078273	 0.096314
H	 2.5335740944	-1.0610426068	 0.2902026959	 0.100792
H	 2.7954530227	-0.5264927921	 2.023733646	 0.138616
H	 0.8877859366	-2.8337299863	 1.1044277613	 0.084641
H	-0.039274231	-2.3915863057	 3.6908891753	 0.090789
H	 0.8093938075	-0.3880903007	 4.6297743801	 0.227022
H	-0.7522137172	 0.3046523097	 2.9817705671	 0.087194
91.4443	146.9269	198.1337	305.7094	340.628	412.3308	431.1699	549.5013	644.9474	732.7305	780.3796	791.294	817.6746	844.456	852.0132	907.8554	914.3929	952.0135	961.7914	993.7004	999.8232	1038.8478	1065.4835	1095.3865	1100.4555	1105.6246	1146.0842	1211.0479	1223.9116	1277.3973	1285.8565	1324.1217	1349.2681	1363.719	1400.1332	1410.4155	1470.9484	1483.2027	1497.1711	1506.7497	3006.0611	3033.1139	3045.9436	3100.1094	3107.2718	3131.2233	3183.2053	3189.4472	3201.6179	3227.8573	3470.7494
CCC12CC1C1NC21	CC[C@]12C[C@H]1[C@H]1N[C@@H]21	
InChI=1S/C7H11N/c1-2-7-3-4(7)5-6(7)8-5/h4-6,8H,2-3H2,1H3	InChI=1S/C7H11N/c1-2-7-3-4(7)5-6(7)8-5/h4-6,8H,2-3H2,1H3/t4-,5+,6+,7-/m0/s1
