21
gdb 72437	2.31787	2.17787	1.51519	1.4499	80.35	-0.2552	0.0838	0.339	971.4142	0.185311	-387.101795	-387.094516	-387.093572	-387.132851	30.947	
C	-0.0002043119	 1.480017825	 0.0762297906	-0.479293
C	-0.0206928996	-0.0285233787	-0.0194713672	 0.386384
C	 0.7523960692	-0.665110664	-1.2095286933	-0.242557
C	 1.1095904145	-2.0720412306	-0.6397737143	-0.211275
C	 0.4625537058	-1.9918793331	 0.7650188308	 0.048153
O	 0.6592752301	-0.6150315121	 1.1096792406	-0.291633
C	-1.0543003296	-2.0908494576	 0.5868506551	-0.037514
C	-1.8917758844	-1.1334322127	 1.3940955393	-0.324248
C	-1.3928579228	-0.7199642677	 0.0336346348	-0.067077
H	 1.0286796172	 1.8483981194	 0.1296573569	 0.122058
H	-0.4789306507	 1.9236036025	-0.8024394808	 0.115657
H	-0.5378240099	 1.8188074031	 0.9662872149	 0.125501
H	 0.1443822335	-0.7125246618	-2.1170819539	 0.09427
H	 1.6503927511	-0.0835996015	-1.4351624505	 0.097537
H	 0.7077879359	-2.8942550864	-1.2380651508	 0.094954
H	 2.1908323078	-2.2083895758	-0.5598581907	 0.100571
H	 0.9090371634	-2.6261512265	 1.5323096581	 0.073557
H	-1.483915292	-3.0018954421	 0.1871351649	 0.08435
H	-2.9488164397	-1.3647958267	 1.4672694769	 0.10547
H	-1.4594221833	-0.6738733815	 2.2754444002	 0.123499
H	-2.0838766345	-0.5806580514	-0.7896467816	 0.081637
193.912	215.5408	269.4521	289.0643	347.7715	389.4981	473.3347	596.0795	613.69	624.8861	747.4461	764.5701	823.1351	839.9413	848.2644	883.5671	897.2566	914.2662	938.8651	980.5037	985.4646	1004.2649	1029.9625	1040.6959	1073.2813	1089.2496	1104.5199	1130.7579	1159.8552	1189.8586	1204.9164	1210.8282	1251.2031	1264.4525	1308.4312	1312.1597	1332.2449	1340.863	1382.2969	1414.6123	1468.803	1480.6054	1486.5538	1495.3382	1503.2782	3040.4748	3054.1999	3065.1091	3094.0306	3106.6012	3111.3605	3115.1087	3117.8546	3137.1487	3174.7875	3184.5014	3225.4177
CC12CCC(O1)C1CC21	C[C@@]12CC[C@@H](O1)[C@H]1C[C@@H]21	
InChI=1S/C8H12O/c1-8-3-2-7(9-8)5-4-6(5)8/h5-7H,2-4H2,1H3	InChI=1S/C8H12O/c1-8-3-2-7(9-8)5-4-6(5)8/h5-7H,2-4H2,1H3/t5-,6+,7+,8-/m0/s1
