17
gdb 127487	2.53618	1.66635	1.02053	3.6537	72.29	-0.1968	0.0432	0.24	1138.4495	0.136998	-451.375383	-451.366128	-451.365184	-451.409348	32.792	
C	 0.0885924305	 1.3841144645	-0.0666417691	-0.325817
N	 0.0905613691	-0.0533024987	-0.0069830793	-0.081422
N	 0.1356256608	-0.8211183572	-1.1678218271	-0.342738
C	 0.1101284955	-2.045285288	-0.7319037276	 0.433735
N	 0.0322458326	-3.1735403601	-1.5302500386	-0.592859
N	 0.07497552	-2.1223100247	 0.6369716887	-0.159033
C	-0.0289014519	-3.2908049971	 1.4796687492	-0.356199
C	 0.0585760012	-0.8054101294	 1.1355835143	 0.470298
O	 0.0193011597	-0.4628629977	 2.303338517	-0.453163
H	 0.9915435867	 1.7558265422	-0.5619067456	 0.134011
H	-0.7883879658	 1.751335722	-0.6095868825	 0.135131
H	 0.0598385873	 1.7469303418	 0.9621732735	 0.163336
H	 0.1402430823	-2.9290149041	-2.5068056853	 0.266905
H	 0.6796909584	-3.907795106	-1.2704678518	 0.256972
H	 0.8915149062	-3.8858065141	 1.4656599946	 0.129347
H	-0.1945801817	-2.928658364	 2.4964015882	 0.176124
H	-0.8675176209	-3.9210439793	 1.1694070515	 0.145373
100.8117	131.9792	139.4014	153.584	210.2545	258.045	271.6801	292.6125	345.2931	363.572	592.4539	623.7659	644.017	665.7958	735.9355	773.2069	795.9512	935.7947	1020.843	1061.2066	1157.7712	1159.7551	1160.9565	1242.6295	1277.2568	1333.9602	1424.6535	1433.3278	1447.2459	1481.7496	1495.4019	1511.5144	1520.4322	1545.0367	1620.3236	1683.5309	1820.3094	3029.2744	3034.3638	3091.3616	3093.3191	3142.4099	3149.2454	3532.716	3630.5062
CN1N=C(N)N(C)C1=O	Cn1nc(N)n(C)c1=O	
InChI=1S/C4H8N4O/c1-7-3(5)6-8(2)4(7)9/h1-2H3,(H2,5,6)	InChI=1S/C4H8N4O/c1-7-3(5)6-8(2)4(7)9/h1-2H3,(H2,5,6)
