21
gdb 90175	3.5787	1.29897	1.19697	1.9566	81.73	-0.2387	0.0873	0.326	1144.9341	0.183724	-387.066533	-387.058639	-387.057695	-387.098443	32.171	
C	-0.1480509855	 1.5752713513	 0.0048339546	-0.407181
C	 0.0162141567	 0.0563500053	 0.004551465	 0.050591
C	 0.8375618924	-0.489910912	-1.2141466937	-0.333958
C	 1.4262736697	-1.7647931049	-0.6731042491	 0.326255
C	 2.788995164	-2.4852747518	-0.6684815709	-0.29741
C	 2.715464864	-2.4934954033	 0.90644527	-0.297409
C	 1.3578774617	-1.7724584646	 0.7915942748	 0.326252
C	 0.720678547	-0.5030156718	 1.2887137432	-0.333955
O	 0.4912850552	-2.6093982063	 0.0127794566	-0.308982
H	 0.8238635061	 2.0805666278	 0.0528689282	 0.110145
H	-0.657211151	 1.9197908713	-0.90161609	 0.115032
H	-0.7396409205	 1.9105492695	 0.8634372218	 0.115032
H	-0.9749117872	-0.4036255598	-0.044140664	 0.09576
H	 0.2105730761	-0.609614675	-2.1037023823	 0.106605
H	 1.6500797495	 0.2006026152	-1.4756394036	 0.098393
H	 2.8121113092	-3.4534579078	-1.1736088646	 0.1092
H	 3.6055589048	-1.8625987574	-1.0418622626	 0.105716
H	 2.6918937285	-3.4669000671	 1.4014119503	 0.109198
H	 3.4933831317	-1.875137327	 1.3607498983	 0.105717
H	 1.5049528518	 0.1843341304	 1.6319865676	 0.098393
H	 0.0135793657	-0.631702122	 2.1146706305	 0.106605
117.2071	205.364	242.5505	284.6708	285.0946	338.4484	410.3695	455.1236	496.4209	578.5958	677.3028	742.781	755.7086	777.0302	821.8625	871.7593	881.1971	924.709	928.3578	938.1777	971.7933	1016.369	1045.1525	1083.7295	1143.4937	1145.4307	1166.1681	1172.0759	1221.2318	1225.1138	1228.1409	1247.4172	1259.5796	1322.4913	1327.4927	1348.5921	1364.6336	1414.7554	1427.0792	1463.5241	1482.1733	1486.5194	1494.0727	1499.2347	1501.8131	3023.4635	3025.592	3029.5753	3057.0925	3062.4457	3069.5249	3073.6861	3078.2052	3096.1285	3096.213	3112.8643	3129.7992
CC1CC23CCC2(C1)O3	C[C@H]1C[C@@]23CC[C@]2(C1)O3	
InChI=1S/C8H12O/c1-6-4-7-2-3-8(7,5-6)9-7/h6H,2-5H2,1H3	InChI=1S/C8H12O/c1-6-4-7-2-3-8(7,5-6)9-7/h6H,2-5H2,1H3/t6-,7-,8+
