19
gdb 124446	3.14045	1.27095	1.13189	1.9659	76.27	-0.2834	-0.0202	0.2632	1162.054	0.158437	-419.226331	-419.217296	-419.216352	-419.260475	33.402	
C	 0.0975896252	 1.5441822199	 0.0780844582	-0.398991
C	 0.0188807988	 0.011229097	 0.0021404025	 0.109256
C	 0.6383188488	-0.6192766128	 1.2703758733	-0.409412
C	-1.4522503417	-0.4421062674	-0.1390273824	-0.409414
C	 0.7890744418	-0.4650473675	-1.2001314572	 0.47106
N	 1.4449394164	 0.2286610738	-2.0858453307	-0.334486
C	 1.9240332015	-0.7510854051	-2.9196036005	 0.028955
N	 1.6010040689	-1.970806932	-2.5936840832	-0.116085
O	 0.8352990765	-1.7867349729	-1.4347474225	-0.217483
H	 1.1322588556	 1.8839881211	 0.1682028621	 0.129686
H	-0.3270776249	 2.0076601694	-0.815768468	 0.129691
H	-0.4611941991	 1.8954955656	 0.950990123	 0.111083
H	 0.0809885761	-0.291230526	 2.1531657723	 0.119563
H	 0.6051533749	-1.7109578161	 1.2283819428	 0.134772
H	 1.6814207948	-0.3124526473	 1.3938485771	 0.125807
H	-1.9147485297	-0.0076042731	-1.0305131594	 0.125807
H	-1.5278753875	-1.5301837369	-0.2097497043	 0.134771
H	-2.023268591	-0.1129901867	 0.7345689092	 0.119564
H	 2.5289345046	-0.546958783	-3.7912329121	 0.145856
31.3269	147.4392	197.2821	208.0787	263.5851	266.596	326.4419	330.6392	333.3439	424.9989	478.8967	595.3355	657.9178	790.0918	832.7425	916.5955	931.14	937.4383	947.692	969.7551	981.6328	1013.9653	1048.6103	1051.1036	1176.5865	1195.5844	1226.2194	1245.8974	1272.4586	1327.2507	1397.7788	1403.286	1431.5307	1475.4564	1483.9035	1487.8933	1498.3554	1501.7448	1503.8583	1529.4951	1610.3575	3037.5621	3039.5499	3046.7877	3108.9615	3110.7073	3118.9761	3120.9152	3124.8685	3127.9439	3259.154
CC(C)(C)C1=NC=NO1	CC(C)(C)c1ncno1	
InChI=1S/C6H10N2O/c1-6(2,3)5-7-4-8-9-5/h4H,1-3H3	InChI=1S/C6H10N2O/c1-6(2,3)5-7-4-8-9-5/h4H,1-3H3
