21
gdb 94038	4.87492	0.81295	0.73282	1.5435	84.7	-0.2409	0.0512	0.2921	1571.3326	0.181477	-387.071112	-387.061458	-387.060514	-387.106429	35.533	
C	 0.1278418764	 1.5802867791	 0.123726189	-0.397285
C	 0.151636916	 0.0619378921	 0.049241595	 0.154387
C	 0.7868949725	-0.533331805	-1.2119480137	-0.254604
C	 1.245906373	-1.9129835616	-0.7193873115	 0.000763
C	 2.3505071673	-2.5611951495	-1.5709632907	-0.38325
C	 2.7737624287	-3.8634446608	-1.0666497512	 0.29917
C	 3.1028913121	-4.9350430358	-0.6326709902	-0.441639
C	 1.6676377132	-1.5978241307	 0.7285725183	-0.065843
O	 0.9326880585	-0.4468545999	 1.1363931546	-0.278708
H	 1.1390074104	 1.9854814586	 0.0166743679	 0.117088
H	-0.5030794029	 1.9952125721	-0.6691216677	 0.111015
H	-0.2721452196	 1.9085663774	 1.0871119666	 0.126368
H	-0.8800255322	-0.3183249204	 0.1450006855	 0.064537
H	 0.0928216396	-0.5817992386	-2.0553330377	 0.102111
H	 1.6518150824	 0.0710185519	-1.5159593641	 0.097349
H	 0.3837085509	-2.5896573202	-0.7000103092	 0.089457
H	 1.9976092974	-2.6695251236	-2.6045011522	 0.131404
H	 3.2155621936	-1.8852368005	-1.6116013037	 0.129613
H	 3.4026809867	-5.8815627802	-0.2564862805	 0.196059
H	 1.464063613	-2.428543336	 1.4131077843	 0.108962
H	 2.7448106334	-1.3779529282	 0.7829057111	 0.093045
48.225	67.678	88.2939	151.8737	227.1873	261.9067	343.0426	352.1535	394.097	434.6255	478.4789	596.7091	621.3566	638.2675	660.7698	834.0327	854.8087	906.0397	907.5675	919.5035	961.2695	995.5673	1043.2152	1069.7236	1096.7723	1134.8108	1144.3844	1154.3403	1203.0515	1216.4989	1264.3913	1272.6727	1323.563	1344.6558	1365.6665	1368.2326	1395.3269	1405.6137	1413.1929	1469.5176	1484.0141	1488.3055	1498.7623	1530.2953	2237.9927	2947.5615	2987.9154	3013.0267	3023.5246	3035.7754	3037.9111	3050.156	3062.2974	3097.7971	3110.5074	3117.2662	3506.8639
CC1CC(CC#C)CO1	C[C@H]1C[C@@H](CC#C)CO1	
InChI=1S/C8H12O/c1-3-4-8-5-7(2)9-6-8/h1,7-8H,4-6H2,2H3	InChI=1S/C8H12O/c1-3-4-8-5-7(2)9-6-8/h1,7-8H,4-6H2,2H3/t7-,8+/m0/s1
