18
gdb 75724	2.18742	1.78059	1.28306	4.74	73.	-0.2347	0.0131	0.2478	1052.0823	0.146682	-439.08099	-439.072218	-439.071274	-439.114362	31.938	
C	 0.0740344488	 1.3727623107	 0.0406019133	-0.357399
N	-0.1255727573	-0.0558184454	 0.0284570517	-0.108105
C	-0.0442262918	-0.9528287607	-1.0204716621	 0.415672
O	 0.014821322	-0.7910177424	-2.2101396177	-0.373872
C	 0.0189875207	-2.136832228	-0.0195961291	-0.110815
O	 1.3848663262	-2.4556830962	 0.3265607306	-0.284399
C	 1.3866682109	-1.515709361	 1.4242316063	-0.119269
C	-0.0602152304	-1.0575654765	 1.1007310289	 0.287035
C	-1.092620072	-0.9488768809	 2.196112796	-0.487124
H	 1.0334667323	 1.6466213674	 0.4984846088	 0.128147
H	 0.0741752641	 1.7117954847	-0.9981098761	 0.166171
H	-0.7291872048	 1.8862814261	 0.5801534382	 0.131634
H	-0.6241509352	-3.0093698838	-0.1398184389	 0.101359
H	 1.4883755837	-2.0360034459	 2.3843655355	 0.107885
H	 2.1720203868	-0.7572034375	 1.3313193992	 0.108126
H	-0.9026636965	-0.0753420597	 2.8307634943	 0.128525
H	-2.0968963301	-0.8472373422	 1.774277333	 0.132984
H	-1.0718757574	-1.8345836487	 2.8374288382	 0.133446
111.8836	129.776	150.7866	192.6217	212.6044	232.4997	289.4194	329.1296	429.428	498.5701	619.6569	687.311	715.949	795.5061	855.3512	882.5741	941.2775	973.8188	996.2563	1002.7495	1071.2072	1139.5222	1147.0625	1150.5262	1173.6657	1184.191	1238.3295	1269.3167	1308.3929	1367.375	1386.2003	1415.0452	1444.0965	1483.691	1487.261	1494.3269	1510.0858	1514.2498	1878.1632	3013.7169	3020.6527	3033.7233	3071.6981	3073.5709	3097.983	3115.2756	3119.1405	3130.3143
CN1C(=O)C2OCC12C	CN1C(=O)[C@H]2OC[C@@]12C	
InChI=1S/C6H9NO2/c1-6-3-9-4(6)5(8)7(6)2/h4H,3H2,1-2H3	InChI=1S/C6H9NO2/c1-6-3-9-4(6)5(8)7(6)2/h4H,3H2,1-2H3/t4-,6-/m1/s1
