17
gdb 28952	3.15892	1.15481	0.91894	1.969	75.22	-0.2237	-0.0476	0.1761	1247.6528	0.135308	-418.054345	-418.045472	-418.044528	-418.089904	30.982	
C	-0.0562930703	 1.4800821094	 0.1294486181	-0.506785
C	-0.0096861216	-0.0060115729	-0.0058779435	 0.332682
N	-0.0027211525	-0.6682058063	-1.1429846906	-0.301076
C	 0.0552226994	-1.9998649489	-0.803646758	-0.096696
C	 0.0854804997	-2.1477156427	 0.5541052459	-0.143358
N	 0.050948467	-0.8633892429	 1.0684626842	-0.023822
C	-0.0094659463	-0.5069097355	 2.4664371444	-0.270888
C	-1.4401476104	-0.2936298143	 2.9667747829	 0.145982
O	-1.7040303175	 0.3320206726	 3.9564972359	-0.22078
H	 0.8306380226	 1.8767619262	 0.6381546892	 0.134673
H	-0.0964655542	 1.9094056735	-0.872069778	 0.161576
H	-0.935028057	 1.824437005	 0.6870590381	 0.135888
H	 0.0767950389	-2.7725212173	-1.5569459997	 0.109998
H	 0.1385538641	-3.0103452452	 1.1981742873	 0.125857
H	 0.4362869223	-1.3127867761	 3.0609200785	 0.155488
H	 0.5704037242	 0.3977020145	 2.6677433362	 0.156305
H	-2.2204460286	-0.778536349	 2.338214239	 0.104956
20.5347	61.664	107.9204	141.3725	242.7811	269.0522	356.6142	402.2302	440.3109	638.6232	677.5814	692.1576	700.0876	725.9621	803.0027	851.6755	927.2018	997.1877	1029.1838	1049.3674	1062.3945	1105.8325	1161.8855	1187.0324	1249.6251	1307.6654	1331.131	1394.219	1405.3484	1409.3447	1443.4341	1457.2959	1484.8937	1488.2959	1528.4274	1574.0115	1842.9976	2890.8473	3027.1843	3051.4735	3075.186	3109.2935	3150.8719	3247.0902	3273.266
CC1=NC=CN1CC=O	Cc1nccn1CC=O	
InChI=1S/C6H8N2O/c1-6-7-2-3-8(6)4-5-9/h2-3,5H,4H2,1H3	InChI=1S/C6H8N2O/c1-6-7-2-3-8(6)4-5-9/h2-3,5H,4H2,1H3
