17
gdb 10321	2.35362	1.98433	1.186	5.9603	66.81	-0.2403	-0.0249	0.2154	1027.9473	0.139887	-401.047995	-401.038913	-401.037968	-401.082428	31.557	
C	-0.1212328302	 1.0968714471	 0.3973637622	-0.375032
C	-0.049760202	-0.3933818323	 0.055950413	-0.179823
N	 0.6150864325	-0.6688487382	-1.2266813629	-0.126805
C	 2.005485966	-0.8576693527	-1.1665360833	 0.162934
O	 2.7626010314	-1.0481026129	-2.0754013176	-0.263203
C	-0.0958182993	-0.6982020525	-2.4540449674	 0.409409
C	-1.6111361144	-0.5860293137	-2.3577890953	-0.510337
O	 0.4577134359	-0.8266183538	-3.515480346	-0.289224
H	 0.881987384	 1.5288231526	 0.4621875148	 0.134852
H	-0.6769646849	 1.657437503	-0.3599998134	 0.13248
H	-0.6184606803	 1.2410307059	 1.3615952882	 0.127476
H	 0.5086884783	-0.9223800101	 0.8344494901	 0.126568
H	-1.0454878196	-0.8374945747	 0.0462067726	 0.127699
H	 2.3413595222	-0.8179659312	-0.1091380235	 0.076879
H	-1.9360849885	 0.311005875	-1.8242256734	 0.141741
H	-1.9916403381	-0.5566217408	-3.3780684318	 0.155786
H	-2.0399046231	-1.4537933107	-1.8453496863	 0.1486
34.7364	99.4916	142.9572	202.465	212.4011	223.5404	251.4647	381.5382	418.5711	446.2534	522.0091	595.2337	647.8996	733.8213	787.068	956.4199	991.9009	1027.3968	1051.109	1074.7145	1100.0635	1170.5781	1212.0828	1268.8221	1367.3779	1392.1526	1394.7823	1415.4332	1462.7491	1470.0964	1485.8985	1491.8634	1498.7819	1516.7635	1789.5028	1867.6112	2906.8297	3041.7531	3047.6599	3062.5244	3108.6082	3114.7702	3118.2681	3132.3081	3164.917
CCN(C=O)C(C)=O	CCN(C=O)C(=O)C	
InChI=1S/C5H9NO2/c1-3-6(4-7)5(2)8/h4H,3H2,1-2H3	InChI=1S/C5H9NO2/c1-3-6(4-7)5(2)8/h4H,3H2,1-2H3
