18
gdb 14846	2.90833	1.70383	1.22739	1.7007	74.33	-0.2439	0.0514	0.2953	1032.0588	0.152085	-347.746599	-347.737987	-347.737043	-347.7799	31.367	
C	 0.0209490747	 1.576813556	 0.3926896503	-0.239594
O	 0.6840366011	 0.3867672401	 0.028148728	-0.231481
C	 0.7330450516	-0.5543623524	 1.0547566918	 0.177481
C	-0.5382279264	-1.3629342462	 1.4318581576	-0.254217
C	 0.3662848036	-2.6157521247	 1.5664515932	-0.22774
C	 1.4596565179	-1.8923111471	 0.7026418144	-0.252499
C	 1.4229209724	-2.2516450042	-0.7020381933	 0.374551
C	 1.3932849818	-2.5826977817	-1.8575035693	-0.489418
H	 0.5086957219	 2.0674824775	 1.2501216753	 0.103354
H	 0.0625987259	 2.2471760057	-0.4687523008	 0.13026
H	-1.0332524049	 1.3987850013	 0.6521106769	 0.109537
H	 1.191506176	-0.1191499315	 1.9580226398	 0.065124
H	-1.1140489647	-1.047876564	 2.3043893316	 0.096344
H	-1.1998792466	-1.4438959316	 0.5653149811	 0.121403
H	 0.7149052239	-2.7717992971	 2.5901484782	 0.105912
H	-0.0134265164	-3.5565922458	 1.1688005089	 0.117258
H	 2.484929245	-1.9657001721	 1.0766669741	 0.100747
H	 1.3710260434	-2.8580384221	-2.8824936277	 0.192977
86.5369	97.404	122.5404	192.4011	214.0448	268.3647	376.0794	437.1464	474.9442	585.8149	620.1591	624.3374	701.7064	758.9091	817.0033	904.86	927.1785	957.3224	1021.9442	1058.2242	1089.1613	1115.6938	1169.2114	1182.5875	1194.7588	1229.9665	1242.2354	1260.0591	1263.1657	1288.6132	1348.8571	1390.4081	1477.11	1481.803	1486.6493	1495.4317	1508.2652	2235.2553	2962.9459	2975.2701	3023.2258	3059.966	3065.8385	3076.0512	3118.245	3121.7064	3142.062	3505.9461
COC1CCC1C#C	CO[C@H]1CC[C@H]1C#C	
InChI=1S/C7H10O/c1-3-6-4-5-7(6)8-2/h1,6-7H,4-5H2,2H3	InChI=1S/C7H10O/c1-3-6-4-5-7(6)8-2/h1,6-7H,4-5H2,2H3/t6-,7+/m1/s1
