18
gdb 38569	2.74086	2.41986	1.82904	0.9813	72.96	-0.2106	0.0849	0.2955	817.2866	0.152014	-401.914587	-401.90878	-401.907836	-401.944489	25.241	
C	 0.0421917239	 1.5385045886	 0.1585259274	-0.188622
C	 1.5548353012	 1.5074151406	-0.0964684169	 0.089379
O	 2.2858969778	 1.416425332	 1.1255719715	-0.269303
C	 2.5856441749	 0.0742928703	 1.4125271045	 0.094522
C	 1.5104067784	-0.9812638426	 1.5771461123	-0.101352
C	 0.0440651214	-0.6685018182	 1.3094896341	-0.194921
N	-0.035989799	 0.0522131853	 0.0244153162	-0.115343
C	 1.3561882234	 0.0373515258	-0.581533866	-0.039075
C	 2.2666821818	-0.8320897873	 0.2613726142	-0.124266
H	-0.2630827328	 1.9417327675	 1.1289046289	 0.107815
H	-0.5286663928	 2.0300092973	-0.6369717971	 0.101142
H	 2.0123345586	 2.2710959026	-0.7334571076	 0.074092
H	 3.4927132291	-0.0207604681	 1.9988092592	 0.102935
H	 1.7472042525	-1.8063619553	 2.2424775714	 0.085962
H	-0.5085091951	-1.6146715314	 1.2446183015	 0.102678
H	-0.4265752631	-0.0731060424	 2.1007415104	 0.105984
H	 1.365801204	-0.1589189067	-1.6539989959	 0.077071
H	 2.938146796	-1.5635850478	-0.1681872579	 0.091301
161.3568	348.9726	439.2612	470.9013	585.6008	648.3761	726.0186	731.1297	743.5824	787.7659	803.5413	829.7705	866.9868	919.6179	941.2191	958.133	981.5865	985.1177	1015.8425	1038.5011	1053.9612	1062.0569	1091.9508	1102.8079	1119.6657	1170.4811	1210.08	1229.8878	1242.4727	1244.6682	1287.3839	1289.3624	1304.587	1326.3713	1333.8518	1366.8093	1417.5919	1487.0904	1511.6504	3013.7543	3033.5892	3054.5406	3057.4721	3091.6922	3107.9876	3154.8218	3177.3645	3199.1799
C1C2OC3C4CN1C2C34	C1[C@H]2O[C@H]3[C@H]4CN1[C@@H]2[C@@H]34	
InChI=1S/C7H9NO/c1-3-5-6-4(2-8(1)6)9-7(3)5/h3-7H,1-2H2	InChI=1S/C7H9NO/c1-3-5-6-4(2-8(1)6)9-7(3)5/h3-7H,1-2H2/t3-,4+,5-,6-,7-/m0/s1
