23
gdb 104786	2.18664	1.46974	1.07529	1.482	84.91	-0.2495	0.0725	0.322	1236.8172	0.20533	-388.25858	-388.248966	-388.248021	-388.293012	36.893	
C	 0.7091398408	-0.563544455	 1.5252480057	-0.391796
C	 0.090300808	-0.131825019	 0.1909088896	-0.239368
C	-1.3309199475	-0.6556459293	-0.0516095893	 0.346421
C	-2.33844377	-0.0520121369	 0.9240989171	-0.132875
O	-2.3480888805	 1.3590979807	 0.7500524521	-0.427864
C	-1.878671233	-0.5518275812	-1.523718715	-0.293747
C	-2.1250552662	-2.0646000981	-1.5285164039	-0.035738
C	-0.8350075711	-2.797986092	-1.3019181093	-0.298536
C	-1.5362693911	-2.1852479878	-0.1210185585	-0.087491
H	 1.7453119619	-0.2193519135	 1.6014763485	 0.109858
H	 0.1670629038	-0.1507283439	 2.3820884311	 0.115533
H	 0.714196175	-1.6545647018	 1.626022609	 0.11616
H	 0.0674428823	 0.9616456684	 0.1280273797	 0.114029
H	 0.7364752369	-0.4731922362	-0.6258652361	 0.086372
H	-3.3320668993	-0.4838205544	 0.724623729	 0.082392
H	-2.0691986606	-0.3211815191	 1.9577420877	 0.083764
H	-2.9874994901	 1.7338547499	 1.3621573559	 0.286863
H	-2.7823670411	 0.0571121453	-1.5824058448	 0.108104
H	-1.1689878518	-0.1886409159	-2.2745969643	 0.089271
H	-2.9958981261	-2.5594329596	-1.9411158222	 0.080221
H	-0.8970035585	-3.8805812425	-1.3540654414	 0.107942
H	 0.1025015459	-2.3934776184	-1.6755681799	 0.105655
H	-1.8777585679	-2.7971892297	 0.7073541794	 0.074828
48.6126	119.4843	174.7213	194.0949	207.8046	248.4975	287.9104	330.8761	379.0873	410.0126	439.0687	537.71	655.2117	747.1702	778.1444	789.1694	840.8374	890.0513	922.4781	950.7658	957.5156	981.0984	993.5585	1022.67	1045.5487	1058.7154	1070.1752	1078.9434	1089.0969	1137.6234	1144.0038	1172.0735	1215.0386	1222.8836	1246.3459	1260.8639	1285.9506	1311.124	1328.8721	1367.7485	1373.2076	1405.157	1451.7961	1482.0484	1489.756	1498.1582	1503.8704	1508.0091	1526.41	2967.3604	2995.3015	3032.8911	3035.5143	3046.6994	3071.039	3100.0541	3103.7407	3111.0139	3115.0798	3158.2467	3179.4829	3197.7184	3835.4355
CCC1(CO)CC2CC12	CC[C@@]1(CO)C[C@H]2C[C@@H]12	
InChI=1S/C8H14O/c1-2-8(5-9)4-6-3-7(6)8/h6-7,9H,2-5H2,1H3	InChI=1S/C8H14O/c1-2-8(5-9)4-6-3-7(6)8/h6-7,9H,2-5H2,1H3/t6-,7-,8+/m1/s1
