17
gdb 99509	1.86725	1.45003	0.94408	0.7952	72.13	-0.2531	-0.0106	0.2425	1286.0052	0.131609	-458.93293	-458.922416	-458.921472	-458.969942	35.339	
C	-0.5387589767	 0.985838746	 0.1543826455	-0.242748
O	-0.1342976984	-0.3570095417	-0.0660060187	-0.245578
C	 0.7849907308	-0.5096071414	-1.1413237161	-0.199396
C	 1.5466708844	-1.7375100859	-0.9530267938	 0.327108
C	 2.2116103781	-2.7254422897	-0.8029803703	-0.395772
C	-0.0105780865	-0.4568728235	-2.4616028734	 0.45258
O	-0.2471279899	 0.5759246382	-3.0385637955	-0.368306
O	-0.4680271189	-1.6565492927	-2.8297494403	-0.215256
C	-1.3092931042	-1.6646704492	-3.9922857614	-0.240993
H	 0.3234006359	 1.6250633096	 0.3953986216	 0.113031
H	-1.0568820203	 1.4113366906	-0.7133497687	 0.13459
H	-1.2180335739	 0.9635611973	 1.0090208675	 0.132802
H	 1.471798783	 0.349094016	-1.1755872527	 0.119229
H	 2.7890272037	-3.6072119624	-0.6717233745	 0.200663
H	-2.2053605568	-1.063450922	-3.8195576897	 0.143405
H	-0.7737745643	-1.2612321573	-4.8550063211	 0.14477
H	-1.573608566	-2.7086822518	-4.1569825284	 0.13987
22.7744	93.1613	108.3042	122.9672	139.2594	165.4593	198.645	258.715	298.6174	365.4981	388.0489	469.5175	532.8751	631.0689	678.4291	710.7446	794.3274	858.3777	965.1862	1029.3877	1048.6952	1120.8447	1178.4589	1184.3606	1209.6122	1213.0169	1281.8503	1315.7544	1362.58	1472.806	1475.275	1482.5069	1484.4296	1494.9097	1512.37	1809.3183	2249.4681	2994.5622	3000.2625	3054.6168	3064.1313	3128.6003	3130.6473	3165.862	3503.2376
COC(C#C)C(=O)OC	CO[C@@H](C#C)C(=O)OC	
InChI=1S/C6H8O3/c1-4-5(8-2)6(7)9-3/h1,5H,2-3H3	InChI=1S/C6H8O3/c1-4-5(8-2)6(7)9-3/h1,5H,2-3H3/t5-/m0/s1
