22
gdb 83870	1.94724	1.87624	1.27773	1.5754	81.83	-0.2112	0.0772	0.2883	1112.0867	0.195372	-404.318994	-404.310269	-404.309325	-404.35183	34.272	
C	-0.1279776931	 2.0816298515	-0.1177474074	-0.42738
C	-0.0346506296	 0.5750131402	-0.2427840845	 0.009949
C	 0.5769966592	-0.1416717373	-1.4121646995	-0.060994
C	 1.3646719484	 0.6099172586	-2.4808902698	-0.110185
O	 2.766350298	 0.5759211016	-2.2491990482	-0.23975
C	 3.0869813177	 1.1132861881	-0.9808635074	-0.106032
C	 2.5249391371	 0.2338483432	 0.1506443971	 0.056187
C	 2.6714846286	 0.8814999818	 1.5254272782	-0.404485
N	 1.1561703394	-0.2535367119	-0.0687393283	-0.111478
H	 0.6888799245	 2.619336176	-0.6000917116	 0.123291
H	-1.0653502821	 2.424658985	-0.5711713236	 0.121999
H	-0.1490405256	 2.3806040352	 0.9353736102	 0.127196
H	-0.9066943778	 0.0871998273	 0.1953207688	 0.088581
H	 0.0995253998	-1.0555993385	-1.7635167719	 0.087927
H	 1.2104516841	 0.1337523743	-3.4522114563	 0.111559
H	 1.034291537	 1.6574105663	-2.569716685	 0.090345
H	 4.1797762453	 1.1319688762	-0.9183276998	 0.107502
H	 2.7318189651	 2.1543596483	-0.9019680076	 0.083747
H	 3.1325739745	-0.6814634526	 0.1390844489	 0.090506
H	 2.1500695948	 1.8418131457	 1.5800056986	 0.11778
H	 2.2595077863	 0.2257072808	 2.2973667908	 0.128106
H	 3.7273494586	 1.0594235104	 1.7543619583	 0.115628
107.5164	175.2491	197.2946	224.8205	245.8223	282.3256	341.866	379.6861	439.7561	475.9038	503.4354	599.701	668.7608	688.8793	778.1147	833.8576	874.9222	942.0652	956.3035	969.7824	996.3322	1040.3482	1078.7264	1105.4081	1122.3249	1134.0781	1149.1854	1162.5511	1184.0261	1187.5776	1253.0035	1319.5353	1330.7313	1351.1908	1376.2921	1383.9732	1391.2355	1406.2798	1415.6753	1421.3571	1436.0196	1484.7232	1487.4073	1496.559	1502.756	1505.5584	1511.7617	2966.9824	2973.3845	3006.0823	3036.2038	3040.541	3075.0574	3082.8742	3089.0673	3090.0889	3107.6334	3108.8126	3118.8837	3142.3143
CC1C2COCC(C)N12	C[C@H]1[C@H]2COC[C@@H](C)N12	
InChI=1S/C7H13NO/c1-5-3-9-4-7-6(2)8(5)7/h5-7H,3-4H2,1-2H3	InChI=1S/C7H13NO/c1-5-3-9-4-7-6(2)8(5)7/h5-7H,3-4H2,1-2H3/t5-,6+,7-,8?/m1/s1
