12
gdb 21502	5.31921	1.62187	1.2429	3.6699	56.71	-0.258	-0.0338	0.2242	877.5158	0.086652	-410.880319	-410.873457	-410.872513	-410.911783	24.276	
N	-0.0797200196	 1.3279661457	 0.0077312595	-0.541667
C	 0.0462724034	-0.0251413991	 0.0014316172	 0.330618
O	 1.1121106988	-0.6142149532	-0.0097956803	-0.362363
C	-1.2414508673	-0.7673209048	 0.009169878	 0.238124
N	-2.4429575168	-0.1793992286	 0.021256709	-0.29679
N	-3.2781729933	-1.2032460214	 0.0241052511	-0.063998
N	-2.7352485325	-2.4170228418	 0.0150821681	-0.195885
C	-1.4291575478	-2.1612770047	 0.0054844713	-0.101445
H	 0.7547229886	 1.8893381366	 0.0023068788	 0.264768
H	-0.9851320293	 1.765562761	 0.0162269637	 0.275064
H	-4.2775861158	-1.0725564092	 0.0327213781	 0.299141
H	-0.6922374484	-2.9464224606	-0.0034729844	 0.154432
78.9176	185.6705	191.2254	216.7032	397.7664	510.487	545.1599	575.1203	667.2487	682.6878	726.6025	807.5145	919.5497	991.9127	1024.4138	1091.3562	1137.9754	1195.6763	1235.5608	1303.4408	1385.0767	1405.1086	1498.2611	1555.2174	1611.5493	1790.0467	3293.9779	3605.7254	3659.9637	3745.878
NC(=O)C1=NNN=C1	NC(=O)c1n[nH]nc1	
InChI=1S/C3H4N4O/c4-3(8)2-1-5-7-6-2/h1H,(H2,4,8)(H,5,6,7)	InChI=1S/C3H4N4O/c4-3(8)2-1-5-7-6-2/h1H,(H2,4,8)(H,5,6,7)
