15
gdb 69018	2.9081	1.35167	1.12429	1.4887	72.62	-0.2594	-0.0456	0.2138	1082.106	0.11146	-416.797035	-416.788711	-416.787767	-416.830103	30.445	
C	-0.0294941677	 1.5644249758	 0.0645733232	-0.510417
C	 0.1138052028	 0.0786216357	-0.0023158111	 0.131077
N	-0.7700762196	-0.8587140331	 0.7481188016	-0.3779
C	 0.6892288548	-0.9470899464	 0.9710546852	 0.162954
C	 1.2188407335	-1.8487815057	-0.1558420116	-0.401882
C	 0.6800904153	-0.7686865225	-1.1377551623	 0.427144
O	 0.8241448915	-0.5709505246	-2.3052003734	-0.290988
C	 1.2857110199	-0.6847408367	 2.2356630857	 0.190402
N	 1.7675262327	-0.4669396831	 3.2657219268	-0.337351
H	 0.835000461	 2.055164778	-0.3908470665	 0.153303
H	-0.9242601125	 1.8870127456	-0.4773315364	 0.154551
H	-0.1124867713	 1.9035251321	 1.1020412799	 0.142526
H	-1.1808880049	-0.3183611355	 1.5119146439	 0.252999
H	 2.3083033661	-1.9119067573	-0.2104797656	 0.153833
H	 0.7715430784	-2.8424942824	-0.2050967894	 0.149748
89.0364	119.453	157.6259	197.0478	250.1766	314.035	409.5953	473.2672	515.9837	566.9947	568.9816	603.6641	660.892	700.8992	764.2657	832.0161	968.4923	995.34	1043.1463	1066.2163	1091.2419	1103.5438	1136.0744	1203.3199	1296.0599	1354.7185	1394.4718	1422.8003	1448.294	1477.1875	1492.0676	1906.0166	2346.0722	3040.0328	3081.4106	3109.7136	3119.8649	3147.138	3458.1057
CC12NC1(CC2=O)C#N	C[C@]12N[C@]1(CC2=O)C#N	
InChI=1S/C6H6N2O/c1-5-4(9)2-6(5,3-7)8-5/h8H,2H2,1H3	InChI=1S/C6H6N2O/c1-5-4(9)2-6(5,3-7)8-5/h8H,2H2,1H3/t5-,6-/m1/s1
