24
gdb 7490	3.84578	1.10216	1.04497	0.0599	85.24	-0.2771	0.0801	0.3572	1302.6103	0.222949	-314.27407	-314.264552	-314.263608	-314.308139	35.958	
C	 0.1368630245	 1.6257888981	-0.117043776	-0.37654
C	 0.0788791911	 0.1010480959	 0.0171007826	-0.173239
C	-1.3378525633	-0.4575780756	-0.1723175633	-0.237539
C	-1.488579202	-1.9639848035	 0.0640109319	 0.367132
C	-0.6672582969	-2.79356825	-0.9278375183	-0.444746
C	-1.2926518208	-2.4552386084	 1.538218988	-0.245126
C	-2.5953463949	-3.2894785962	 1.417177513	-0.213088
C	-2.9642684594	-2.4781923792	 0.1469940691	-0.260635
H	 1.1558609647	 2.0016684947	 0.0194147081	 0.108763
H	-0.2075010951	 1.9492998056	-1.1058294895	 0.112562
H	-0.5010338295	 2.1138260887	 0.6284386817	 0.111985
H	 0.7601295151	-0.3500995755	-0.7139062435	 0.09735
H	 0.455141016	-0.1928034443	 1.0059046164	 0.097071
H	-2.015170114	 0.0692763541	 0.5144026501	 0.082448
H	-1.6900026651	-0.2164064677	-1.1863233237	 0.085938
H	 0.4068135464	-2.6122226572	-0.8176226694	 0.113455
H	-0.8334439646	-3.8660199701	-0.7796420242	 0.109279
H	-0.9451966918	-2.5556887084	-1.9615414435	 0.1081
H	-0.3685706405	-2.9956346925	 1.7626452856	 0.089706
H	-1.3943654421	-1.6358431722	 2.2567813544	 0.091902
H	-2.398501913	-4.3424275033	 1.1989894717	 0.100791
H	-3.2939998949	-3.2433714415	 2.2556915547	 0.094058
H	-3.6656918509	-1.6667905899	 0.3645131749	 0.0913
H	-3.3403946691	-3.0356726417	-0.7158599708	 0.089074
81.126	92.2161	124.2603	173.0874	243.798	259.0714	304.5523	319.9595	354.9276	401.0321	428.3757	651.183	718.1881	746.5513	793.3608	864.3709	864.6196	899.072	920.2331	922.9215	945.6386	972.4421	993.4227	1030.5745	1054.5943	1071.8096	1112.3706	1172.0793	1202.6216	1211.5435	1226.3946	1255.2112	1259.7668	1276.0147	1303.2567	1311.965	1321.3642	1346.8972	1393.414	1409.9627	1413.825	1474.5602	1476.6796	1484.3477	1493.2203	1497.4875	1499.2654	1502.4761	1507.4242	1511.499	2992.9529	3020.2035	3022.7136	3025.3141	3027.1856	3041.7239	3046.1301	3058.774	3060.9575	3086.5708	3087.7817	3092.7814	3094.1836	3097.0548	3099.0938	3114.6766
CCCC1(C)CCC1	CCCC1(C)CCC1	
InChI=1S/C8H16/c1-3-5-8(2)6-4-7-8/h3-7H2,1-2H3	InChI=1S/C8H16/c1-3-5-8(2)6-4-7-8/h3-7H2,1-2H3
