15
gdb 47327	3.3717	1.18567	0.89742	3.9601	79.6	-0.2695	-0.0826	0.1869	1213.4919	0.114718	-416.84679	-416.839173	-416.838228	-416.879233	28.258	
N	-0.0601002335	 1.2808479748	 0.22583473	-0.508913
C	-0.000263283	 0.039431482	-0.0409783846	 0.394815
O	 1.1855861023	-0.6146968722	-0.1981694205	-0.256756
C	 1.1527828575	-1.8742576482	-0.8837772378	-0.097946
C	 0.1106060725	-2.8199667034	-0.2986482084	-0.314032
C	-1.2115673705	-2.0913449692	-0.2019049721	 0.134721
C	-1.2341389164	-0.7504343149	-0.1148693877	-0.180662
C	-2.4125937576	-2.8596482428	-0.1893894031	 0.226461
N	-3.3652767822	-3.5186613778	-0.1840887778	-0.32073
H	 0.8814613233	 1.6778153939	 0.2614903601	 0.230426
H	 0.9438240739	-1.6980786415	-1.9469086379	 0.12323
H	 2.1612243732	-2.281226581	-0.7916138562	 0.132318
H	 0.0184026947	-3.7048647598	-0.9358914063	 0.140999
H	 0.4147773117	-3.1720952779	 0.6949533108	 0.146721
H	-2.1553148657	-0.1875956119	-0.0395464485	 0.149347
109.0183	137.7218	151.1157	252.2418	348.3426	401.4063	427.2013	487.9827	577.014	589.4064	642.1889	695.3292	800.0658	854.2172	908.7972	928.4537	951.2447	1005.3503	1053.5875	1085.9566	1144.7897	1149.8074	1233.2372	1285.0803	1296.8086	1355.6624	1374.6116	1435.406	1468.0565	1507.7334	1669.9458	1717.2152	2335.843	3026.0965	3038.4871	3090.5967	3119.5999	3230.9735	3468.5876
N=C1OCCC(=C1)C#N	[NH]C1=C[C](CCO1)C#N	
InChI=1S/C6H6N2O/c7-4-5-1-2-9-6(8)3-5/h3,8H,1-2H2	InChI=1S/C6H6N2O/c7-4-5-1-2-9-6(8)3-5/h3,8H,1-2H2
