21
gdb 103101	1.83074	1.46095	1.10612	0.8464	85.48	-0.2294	0.0498	0.2792	1250.8411	0.179026	-387.051855	-387.041296	-387.040352	-387.086852	39.467	
C	-0.23311325	 1.554402284	-0.0696353607	-0.402375
C	 0.128759451	 0.0720075615	 0.0930405183	-0.236775
C	 0.7345953453	-0.5290591938	-1.1599139938	 0.393109
O	 1.9185098318	 0.0902157685	-1.5918694525	-0.468272
C	 0.7206412332	-1.9955803664	-1.4415741535	-0.065707
C	 0.1306303604	-3.0327942901	-0.5152003305	-0.421786
C	-0.1661195874	-1.0625847934	-2.2879472308	-0.317644
C	-1.5913999392	-1.0788435706	-2.1677189273	 0.351937
C	-2.7920192883	-1.0877084097	-2.0696671275	-0.474717
H	 0.6505538206	 2.1651386011	-0.2863126575	 0.108498
H	-0.9580675681	 1.6938457284	-0.8778346105	 0.131793
H	-0.6749950304	 1.9486892587	 0.8498214116	 0.118507
H	 0.8476670697	-0.0470957774	 0.9129529734	 0.1041
H	-0.7699560706	-0.4858609375	 0.367399575	 0.114031
H	 1.7061834001	 0.9960723197	-1.8424823121	 0.282904
H	 1.6068908775	-2.3209551079	-1.9790723768	 0.103333
H	-0.828584768	-2.7162760566	-0.100054106	 0.13216
H	-0.0433013402	-3.9686364229	-1.0561254525	 0.123388
H	 0.8114039461	-3.2477106366	 0.31540201	 0.120662
H	 0.2116521988	-0.8606234483	-3.2859860757	 0.110344
H	-3.8505316724	-1.0933596206	-1.9897182704	 0.19251
79.5249	121.9355	133.9997	147.9154	199.2841	225.2091	245.8603	287.719	329.7254	365.2293	399.3473	428.9156	503.3189	558.1108	569.4457	605.0544	650.3535	697.2234	774.9681	802.3197	856.546	919.7203	980.7109	1020.4253	1024.7942	1049.392	1090.5716	1115.9431	1136.363	1151.2375	1223.3398	1279.8202	1305.9556	1317.4863	1350.7204	1384.8319	1405.675	1421.0556	1457.6946	1473.2033	1494.1526	1500.7371	1507.036	1512.0811	2224.4399	3034.1034	3036.1598	3039.242	3090.5721	3097.2623	3109.7725	3114.8256	3123.6776	3146.4711	3156.642	3503.9416	3801.1705
CCC1(O)C(C)C1C#C	CC[C@@]1(O)[C@@H](C)[C@H]1C#C	
InChI=1S/C8H12O/c1-4-7-6(3)8(7,9)5-2/h1,6-7,9H,5H2,2-3H3	InChI=1S/C8H12O/c1-4-7-6(3)8(7,9)5-2/h1,6-7,9H,5H2,2-3H3/t6-,7+,8+/m0/s1
