19
gdb 41215	2.77122	1.91532	1.65478	2.2594	84.89	-0.1814	-0.055	0.1264	908.3034	0.161157	-385.796038	-385.789236	-385.788292	-385.826517	29.435	
C	-0.2861541589	 1.2403526523	-0.0744807592	-0.22152
C	 1.2666832952	 1.2470049479	 0.3001950894	-0.267915
C	 1.4460787831	 0.1050643642	 1.3106409877	 0.18362
C	 1.242707814	-1.3488207239	 0.7868987385	-0.351317
C	-0.2285676189	-1.0590084646	 0.693352557	 0.29935
O	-0.8837175277	-0.9596892629	 1.9002779709	-0.256092
C	 0.0253579941	-0.7575103092	 3.0316046835	-0.128494
C	 1.0051741166	 0.2927038135	 2.5671728062	-0.121282
C	-0.5282772164	-0.2442946012	-0.3631153022	-0.2114
H	-0.8608489487	 1.6019701449	 0.7803958556	 0.115073
H	-0.4866307087	 1.8943112854	-0.9286635396	 0.09916
H	 1.8641267355	 1.1103012591	-0.6077427285	 0.10018
H	 1.5516282008	 2.2007756242	 0.7545089499	 0.108088
H	 1.6994992897	-1.4923258178	-0.1909305139	 0.118095
H	 1.5952111555	-2.1129394792	 1.4861263281	 0.103061
H	-0.6000851465	-0.4084402408	 3.8546394032	 0.125521
H	 0.4697321651	-1.7155794158	 3.3217277451	 0.125557
H	 0.9490362837	 1.2836191956	 3.0082793152	 0.102817
H	-0.0102350077	-0.5494891016	-1.2744881769	 0.077497
239.1668	248.2584	343.1097	359.5183	431.5387	485.2681	488.3583	531.1482	593.3874	647.1236	708.9734	729.416	793.0765	805.002	840.2093	849.8293	905.4999	909.6421	949.1968	961.3061	1007.6052	1016.3296	1054.359	1081.7122	1111.1692	1156.5987	1172.0662	1198.415	1217.2184	1230.6804	1275.7659	1296.5874	1318.4652	1340.5074	1397.0283	1469.8927	1475.6889	1482.8885	1509.0881	1545.086	1637.1161	3040.3508	3041.0628	3054.5038	3056.7723	3083.9882	3092.8979	3120.4463	3122.6495	3147.6312	3166.2254
C1CC23CC4(OCC24)C13	C1C[C]2C[C](OC[CH]2)[CH]1	
InChI=1S/C8H10O/c1-2-7-4-8(5(1)7)6(7)3-9-8/h5-6H,1-4H2	InChI=1S/C8H10O/c1-2-7-4-5-9-8(3-1)6-7/h3-4H,1-2,5-6H2
