16
gdb 7682	4.24446	1.60374	1.52521	4.39	65.01	-0.2734	0.0012	0.2746	889.8279	0.129189	-383.744665	-383.737131	-383.736187	-383.776096	28.521	
C	 0.0035268336	 1.5310983391	 0.0845372835	-0.462487
C	 0.0524111777	 0.0177931567	 0.037158356	 0.282625
C	-1.1870444998	-0.639412484	-0.5465456325	-0.455588
C	 1.3197266745	-0.7307028825	-0.1920129872	 0.046932
O	 2.4584526198	-0.0067338509	 0.3434444486	-0.263033
C	 1.954465787	-0.160212505	 1.6362268206	 0.463774
O	 2.4865544543	 0.1436451441	 2.6527487254	-0.326011
C	 0.6867637289	-0.8245243215	 1.1785203701	-0.321573
H	 0.9453767902	 1.9606980481	 0.428924526	 0.150693
H	-0.2022877708	 1.9305740965	-0.9147330603	 0.122621
H	-0.7969625301	 1.8686155825	 0.7507375261	 0.126343
H	-1.3671994797	-0.2735328131	-1.562805257	 0.130518
H	-1.0900482118	-1.7287415434	-0.5904716233	 0.121971
H	-2.0708212685	-0.404701659	 0.055686692	 0.133192
H	 1.5275900301	-1.4895840319	-0.9342561067	 0.126467
H	 0.1567819845	-1.6205297856	 1.6814142088	 0.123556
136.8289	194.0623	204.2177	235.8478	291.3605	343.2573	398.6049	492.3006	517.5347	650.306	727.9135	787.4445	836.2782	847.527	911.253	955.9751	974.1252	983.015	1024.9011	1032.8618	1073.2442	1095.3391	1147.1585	1188.1766	1258.7326	1288.6557	1391.5881	1412.1272	1428.59	1481.2178	1487.9642	1501.6051	1512.3161	1941.7658	3032.4885	3039.086	3096.9341	3101.9217	3105.9444	3140.0842	3210.2819	3226.7371
CC1(C)C2OC(=O)C12	CC1(C)[C@H]2OC(=O)[C@@H]12	
InChI=1S/C6H8O2/c1-6(2)3-4(6)8-5(3)7/h3-4H,1-2H3	InChI=1S/C6H8O2/c1-6(2)3-4(6)8-5(3)7/h3-4H,1-2H3/t3-,4-/m0/s1
