20
gdb 100486	4.65854	0.56205	0.51827	4.2076	89.11	-0.2658	0.0217	0.2875	2120.9432	0.168759	-366.008509	-365.997666	-365.996722	-366.047032	37.409	
C	-0.08799674	 1.5477546822	 0.0930403245	-0.394497
C	 0.0161388256	 0.0226450769	 0.0099670625	-0.159616
C	 0.7583127106	-0.4906798019	-1.249705696	-0.147448
C	 2.238755539	-0.0599322504	-1.2946063325	-0.385973
C	 0.6465624275	-1.946634085	-1.3450084426	 0.096949
C	 0.5644030619	-3.1456428163	-1.4023443157	 0.077543
C	 0.4581676985	-4.6006824961	-1.4820518665	-0.474183
C	 1.1769190358	-5.169548386	-2.630931333	 0.279736
N	 1.7377144957	-5.6287372879	-3.5296847711	-0.302854
H	 0.8922028998	 2.0237067543	 0.1893278022	 0.122861
H	-0.574525937	 1.9612250538	-0.7976658359	 0.117204
H	-0.6823505218	 1.8446744949	 0.9623780501	 0.117537
H	 0.5241441658	-0.3700788095	 0.8992511887	 0.105093
H	-0.9896914246	-0.4112192692	 0.0138632219	 0.106616
H	 0.2548672809	-0.060394046	-2.1277771565	 0.106986
H	 2.3261680211	 1.0293240602	-1.314946358	 0.119822
H	 2.7752676004	-0.4341946887	-0.4170066706	 0.124167
H	 2.7300838237	-0.457641051	-2.1860537314	 0.131597
H	 0.8516098265	-5.0688667175	-0.5703162823	 0.17915
H	-0.5929927995	-4.909450147	-1.552759158	 0.17931
8.562	59.9266	77.5776	130.8323	140.7995	219.6816	254.1532	278.7199	313.2408	341.7989	369.8771	378.5245	491.3529	529.6273	581.7946	748.332	790.1859	847.3297	921.885	936.6744	964.6753	980.1163	1031.5423	1078.2047	1131.4497	1153.2034	1200.3012	1234.0284	1283.6373	1315.2775	1336.1911	1343.6871	1376.4687	1407.7019	1415.6267	1449.2518	1483.7769	1492.8621	1498.5216	1505.6114	1510.8737	2368.4523	2376.305	2999.4722	3023.2556	3033.0364	3035.9273	3045.1115	3052.2384	3069.9173	3102.3164	3111.1605	3118.5169	3126.8542
CCC(C)C#CCC#N	CC[C@@H](C)C#CCC#N	
InChI=1S/C8H11N/c1-3-8(2)6-4-5-7-9/h8H,3,5H2,1-2H3	InChI=1S/C8H11N/c1-3-8(2)6-4-5-7-9/h8H,3,5H2,1-2H3/t8-/m1/s1
