20
gdb 78968	3.05219	1.95974	1.72383	1.6315	79.83	-0.2345	0.0937	0.3281	894.7031	0.174834	-365.984894	-365.978479	-365.977535	-366.015209	27.888	
C	-0.1197401662	 1.5596973181	 0.0172868656	-0.426519
C	 0.0118635326	 0.0390370053	-0.0130291273	 0.048716
C	 0.9844326481	-0.5224875298	-1.067244231	-0.076795
C	 2.3463866777	-0.0070512264	-0.5723041943	-0.049157
C	 2.72773795	-1.3366757091	-0.0547433829	-0.048819
C	 1.4015148256	-1.967166717	-0.5068097039	-0.075203
C	 0.6524775318	-2.1016221111	 0.8296007728	-0.223545
C	 0.7799915031	-0.6047944439	 1.1670954803	-0.011275
N	 2.2422678618	-0.2903638458	 0.884277988	-0.126903
H	 0.8493420391	 2.0442687857	 0.1674318588	 0.132146
H	-0.5454588796	 1.9378594408	-0.9185337554	 0.110597
H	-0.7783335911	 1.8765466949	 0.8327339195	 0.113468
H	-0.9834062562	-0.4122263741	-0.1006879914	 0.066207
H	 0.7279797219	-0.4359877839	-2.121614625	 0.064623
H	 2.939376637	 0.8337071725	-0.9139025561	 0.086759
H	 3.691470555	-1.8035014325	 0.11640956	 0.086461
H	 1.4138614154	-2.8041702883	-1.2017528512	 0.068395
H	-0.3875963613	-2.4308510335	 0.7504195799	 0.094243
H	 1.181930805	-2.7540690241	 1.5307818376	 0.099329
H	 0.5094966502	-0.285529808	 2.1732531561	 0.067271
201.571	229.9657	272.6902	426.1504	497.5068	552.9314	677.8079	689.9855	756.9268	785.5891	794.2234	824.9784	865.2871	882.2667	898.5162	920.1059	938.2297	946.0056	960.432	973.8195	992.0749	1010.8928	1039.2655	1059.5172	1084.6181	1092.6992	1141.4073	1158.1335	1190.5875	1203.2565	1211.4367	1227.1056	1250.0349	1275.8856	1285.1969	1297.1216	1310.3269	1359.8892	1380.5519	1413.8901	1492.1176	1498.4241	1503.6356	3032.6945	3036.8375	3053.3534	3094.8235	3102.9997	3114.2048	3121.4134	3130.7689	3141.5126	3163.2681	3178.5018
CC1C2C3C4C2CC1N34	C[C@H]1[C@H]2[C@@H]3[C@@H]4[C@H]2C[C@H]1N34	
InChI=1S/C8H11N/c1-3-5-2-4-6(3)8-7(4)9(5)8/h3-8H,2H2,1H3	InChI=1S/C8H11N/c1-3-5-2-4-6(3)8-7(4)9(5)8/h3-8H,2H2,1H3/t3-,4+,5-,6-,7+,8-,9?/m1/s1
