15
gdb 33760	2.52032	1.64934	1.27475	3.9719	71.28	-0.269	-0.0009	0.2681	997.9452	0.113094	-416.712632	-416.7054	-416.704456	-416.744357	27.846	
N	 0.0725225585	-1.1132880683	-0.0117274916	-0.342964
C	 0.0325679153	 0.0419933027	-0.0011731975	 0.16745
C	-0.0373578209	 1.479826938	 0.0056353035	 0.115098
C	-0.7118816946	 2.4247510718	 1.0523710113	-0.274816
C	 0.0145790464	 3.3348771999	 0.0167408535	-0.150763
N	 1.2014497832	 2.3722428372	-0.0124917929	-0.34644
C	-0.5807625923	 2.4420195517	-1.0807622143	 0.549042
C	-0.6855363374	 2.4253730516	-2.522656396	-0.296707
O	-1.8486056305	 2.4714672515	-1.6365156457	-0.28431
H	-1.8038064523	 2.4436424404	 1.0848190911	 0.136234
H	-0.2639674359	 2.3952243671	 2.048748657	 0.114613
H	 0.1500409257	 4.4139264184	 0.0279903438	 0.110225
H	 1.6162788024	 2.3477138523	 0.9246915697	 0.22386
H	-0.5127705004	 3.3343905222	-3.093726738	 0.135601
H	-0.5660262572	 1.4908871136	-3.065557504	 0.143876
116.1682	162.2396	208.0742	293.7676	338.8281	481.2496	514.3365	521.8952	576.6983	635.2341	682.0263	763.5918	818.1398	886.9742	915.3236	950.2932	952.4509	1001.3349	1049.9743	1082.8247	1093.7075	1109.3776	1126.8415	1180.6227	1192.6307	1205.7071	1267.9547	1277.6056	1299.9797	1462.8727	1499.9816	1571.2864	2355.5852	3060.2367	3105.1917	3136.7769	3153.3278	3198.597	3392.8008
N#CC12CC(N1)C21CO1	N#C[C@@]12C[C@@H](N1)[C@]12CO1	
InChI=1S/C6H6N2O/c7-2-5-1-4(8-5)6(5)3-9-6/h4,8H,1,3H2	InChI=1S/C6H6N2O/c7-2-5-1-4(8-5)6(5)3-9-6/h4,8H,1,3H2/t4-,5-,6+/m1/s1
