22
gdb 61055	2.97668	0.99657	0.95028	3.8539	84.09	-0.2346	0.0307	0.2653	1375.3741	0.194124	-404.364265	-404.354491	-404.353547	-404.399355	35.903	
C	-0.3027862479	 1.5672495954	-0.1514062034	-0.400396
C	-0.143755762	 0.0564719878	-0.0113206631	-0.008067
C	 0.8839185908	-0.5776568285	-0.9978859148	-0.225797
C	 1.9420142254	-0.5955516204	 0.1395400938	-0.259558
C	 0.7756192018	-0.4638973443	 1.1511066248	 0.062573
N	 0.947622784	 0.2520187971	 2.3993535124	-0.052654
C	 1.8261046807	 1.4089712495	 2.5064415085	-0.357402
C	 0.3207987452	-0.1939489539	 3.5305238867	 0.148462
O	 0.3851916839	 0.3162678083	 4.6293888153	-0.346552
H	 0.6589558245	 2.0761070332	-0.2739458008	 0.115661
H	-0.9072414939	 1.8017384259	-1.0340999775	 0.118482
H	-0.8054453549	 1.9982369072	 0.7207238488	 0.125139
H	-1.1362415135	-0.4053053582	-0.013590612	 0.070969
H	 0.5954371513	-1.5842770611	-1.3108074823	 0.10503
H	 1.1274659968	 0.0067109981	-1.8880353293	 0.102161
H	 2.5927831243	-1.4678357471	 0.2338708935	 0.10401
H	 2.5667460724	 0.3001226255	 0.1113251368	 0.11092
H	 0.4270767777	-1.4674009423	 1.4153706578	 0.094419
H	 1.5187767747	 2.2144651404	 1.8348140343	 0.127245
H	 1.767153835	 1.7598384136	 3.5367775968	 0.168619
H	 2.8632174607	 1.1395016394	 2.2798404447	 0.127279
H	-0.276612567	-1.1053017055	 3.3315482791	 0.069459
42.667	104.6177	128.5715	164.8245	224.568	252.5817	280.3319	332.7167	343.0044	361.3203	428.2194	453.7454	636.0848	730.061	789.5012	817.3388	883.9545	911.2353	916.2296	952.3793	987.6541	1024.1222	1030.5752	1077.5668	1111.8694	1126.316	1154.1662	1166.5892	1215.2443	1247.1302	1260.3157	1278.3113	1280.3724	1296.4507	1335.8176	1374.0335	1412.7718	1438.024	1440.1533	1456.832	1483.1205	1495.8647	1498.6807	1504.3655	1508.6534	1518.1754	1793.6848	2935.9542	3030.4564	3040.8621	3042.2804	3055.1822	3064.9863	3071.611	3095.6477	3101.3452	3107.2958	3109.6175	3126.8773	3157.8698
CC1CCC1N(C)C=O	C[C@H]1CC[C@H]1N(C)C=O	
InChI=1S/C7H13NO/c1-6-3-4-7(6)8(2)5-9/h5-7H,3-4H2,1-2H3	InChI=1S/C7H13NO/c1-6-3-4-7(6)8(2)5-9/h5-7H,3-4H2,1-2H3/t6-,7+/m0/s1
