18
gdb 83175	2.93268	1.42257	1.22218	4.5691	72.18	-0.2313	0.0129	0.2442	1074.8371	0.148765	-439.095475	-439.087404	-439.08646	-439.128257	30.691	
C	-0.5023269923	 1.4062201501	 0.0956545922	-0.40261
C	-0.0756977534	-0.0387573464	-0.0081863073	-0.059348
C	 0.7138510494	-0.5560557625	-1.2084560857	-0.068016
N	 1.243623812	 0.3936407639	-2.1460363416	-0.300998
C	 2.70004539	 0.4404790115	-2.09708951	-0.309943
C	 3.1579980436	 0.8940073357	-0.7154769492	 0.442873
O	 4.1445834958	 1.5422984753	-0.5140212199	-0.320904
O	 2.3550354679	 0.5403361391	 0.3262717836	-0.219526
C	 1.3654489954	-0.4521853105	 0.141602224	 0.083513
H	 0.1859647785	 2.0575819702	-0.4438752658	 0.139508
H	-1.500109994	 1.5412294349	-0.3342388094	 0.115532
H	-0.5375224278	 1.7284085195	 1.1409715251	 0.123981
H	-0.7756049229	-0.7575894406	 0.4106121437	 0.090468
H	 0.4900801574	-1.5585314215	-1.5749756111	 0.085805
H	 0.8947614624	 0.2512966111	-3.083923375	 0.23469
H	 3.1918930505	-0.5254470425	-2.3147895509	 0.113541
H	 3.0830562183	 1.1736085606	-2.8091975409	 0.141198
H	 1.6078662891	-1.350597408	 0.6997883682	 0.110234
85.6159	129.2472	160.5981	202.6225	288.2635	401.4369	430.0329	482.279	539.6258	585.6426	625.7581	656.3681	747.7042	777.1084	810.5257	888.3772	919.7037	978.819	1013.0117	1034.3675	1056.9173	1095.7513	1122.476	1144.9453	1166.562	1176.3149	1208.2019	1246.0486	1271.0989	1316.665	1373.4931	1382.8862	1417.2197	1439.5129	1478.8037	1486.7895	1493.4859	1501.225	1864.2551	2936.8478	3043.8961	3084.0186	3101.8297	3116.3241	3134.5849	3149.2951	3159.6002	3574.2759
CC1C2NCC(=O)OC12	C[C@H]1[C@H]2NCC(=O)O[C@@H]12	
InChI=1S/C6H9NO2/c1-3-5-6(3)9-4(8)2-7-5/h3,5-7H,2H2,1H3	InChI=1S/C6H9NO2/c1-3-5-6(3)9-4(8)2-7-5/h3,5-7H,2H2,1H3/t3-,5+,6-/m0/s1
