18
gdb 121677	7.51997	0.58334	0.54869	5.7873	74.34	-0.2926	-0.0059	0.2867	1973.1836	0.145254	-439.13874	-439.128449	-439.127505	-439.176263	34.456	
C	 0.1563244431	 1.4316043152	 0.0068672377	-0.385292
C	-0.0181750517	-0.0899431696	 0.0003243694	-0.192612
C	-1.4844534922	-0.4863148849	 0.0134110259	-0.049073
O	-1.5526533126	-1.9315734857	 0.0061941063	-0.248812
C	-2.7848200551	-2.458740168	 0.0165422587	 0.465847
O	-3.8095112369	-1.8349988708	 0.0307919244	-0.328682
C	-2.6686969071	-3.9849556369	 0.0076069031	-0.482188
C	-3.9604693119	-4.6594785197	 0.0144838663	 0.293881
N	-4.9660265536	-5.2258316933	 0.019555315	-0.295492
H	 1.2158513151	 1.7007457088	-0.0026531189	 0.124963
H	-0.3121456384	 1.8910811412	-0.8699949108	 0.124206
H	-0.2937867023	 1.881370746	 0.8982612246	 0.124201
H	 0.4592992215	-0.5224765642	-0.8862434535	 0.112272
H	 0.4776060417	-0.5321405488	 0.8719500017	 0.112262
H	-2.0018902305	-0.1151188066	 0.9039972494	 0.128263
H	-2.0202487269	-0.105450476	-0.8621106285	 0.128273
H	-2.0934887628	-4.288065546	-0.8739124224	 0.183966
H	-2.0797141994	-4.2969485107	 0.8768859214	 0.184018
22.2025	51.8944	77.8409	87.8494	173.8611	184.7357	231.4297	282.9482	327.0861	373.1241	423.4705	501.3971	583.7257	728.7249	761.1958	891.9172	895.2269	942.3752	957.4014	957.8761	1025.9103	1053.7482	1147.9142	1188.5542	1213.7149	1215.8619	1270.73	1315.3764	1332.7871	1351.3324	1413.8118	1425.3082	1438.1174	1492.107	1500.2237	1504.6491	1520.1395	1841.6578	2380.3737	3036.4636	3039.018	3051.7345	3058.2352	3069.2277	3094.7079	3095.681	3109.8129	3115.8577
CCCOC(=O)CC#N	CCCOC(=O)CC#N	
InChI=1S/C6H9NO2/c1-2-5-9-6(8)3-4-7/h2-3,5H2,1H3	InChI=1S/C6H9NO2/c1-2-5-9-6(8)3-4-7/h2-3,5H2,1H3
