16
gdb 14857	3.16725	1.60236	1.17754	2.2662	66.19	-0.2512	0.0323	0.2835	1003.8345	0.129337	-383.676955	-383.668778	-383.667834	-383.710013	29.578	
O	-0.1043716829	 1.4345046508	-0.2741507979	-0.421811
C	 0.0513877303	 0.0368981308	-0.1259741368	-0.074836
C	-1.2785052946	-0.5839891276	 0.2673411876	 0.112362
O	-2.2792619426	-0.2828382352	-0.7398702839	-0.300263
C	-2.3876130165	-1.6676423697	-1.1243040639	-0.078767
C	-1.4775679193	-2.1169251117	 0.0527525977	-0.25817
C	-0.3301752107	-2.9500223378	-0.2395629011	 0.335894
C	 0.6158471366	-3.648644185	-0.4905015864	-0.460284
H	-0.8472713019	 1.5528782393	-0.8794148998	 0.292408
H	 0.4245792277	-0.4329657634	-1.0486350516	 0.095117
H	 0.7979657242	-0.1297020273	 0.6575179821	 0.114318
H	-1.5948980515	-0.2083603847	 1.2468952718	 0.092404
H	-3.4225757304	-2.0228734103	-1.0905890332	 0.115147
H	-1.9650636968	-1.8606158528	-2.1166107831	 0.115651
H	-2.0607463001	-2.5556755357	 0.8665430485	 0.117713
H	 1.4534056086	-4.2640772197	-0.7088206701	 0.203116
72.6454	108.3885	119.9528	199.9473	248.6002	353.8577	468.9258	478.1144	501.1056	570.242	628.205	645.0328	729.9117	828.6588	889.5337	922.0685	1010.9352	1037.192	1048.4293	1080.9116	1108.5746	1132.167	1165.0717	1200.9828	1229.2989	1273.2489	1330.8167	1342.6143	1366.0698	1396.0659	1435.0686	1496.9107	1524.6621	2235.7306	2992.7229	3031.5624	3045.5912	3070.0702	3081.782	3088.5522	3502.4783	3779.8982
OCC1OCC1C#C	OC[C@H]1OC[C@H]1C#C	
InChI=1S/C6H8O2/c1-2-5-4-8-6(5)3-7/h1,5-7H,3-4H2	InChI=1S/C6H8O2/c1-2-5-4-8-6(5)3-7/h1,5-7H,3-4H2/t5-,6-/m1/s1
