21
gdb 113571	4.04583	0.9297	0.85646	1.4391	86.13	-0.2188	0.028	0.2469	1413.9893	0.182955	-387.083023	-387.074036	-387.073092	-387.117127	34.054	
O	-0.0604128119	 1.3505949052	-0.4801662151	-0.419206
C	 0.0011695742	 0.0553476007	 0.1055813101	-0.10351
C	-1.3852906837	-0.5292479249	 0.0960892889	-0.042823
C	-1.9096584297	-1.2177683442	-1.1359211521	-0.33193
C	-1.6023850955	-2.029335198	 0.1097127329	 0.326316
C	-0.4536302673	-3.0538396735	 0.1757965355	-0.301031
C	-1.1026694042	-4.3604503526	 0.7154711491	-0.267249
C	-2.4423617431	-3.8996812719	 1.2413098949	-0.086072
C	-2.7058043058	-2.6391886315	 0.8991555133	-0.121747
H	 0.8099691089	 1.752836065	-0.4028049468	 0.283323
H	 0.687657824	-0.599788443	-0.4537360788	 0.081586
H	 0.3769508859	 0.1110803582	 1.140531771	 0.085224
H	-2.1034475097	 0.0603858715	 0.6607720574	 0.085352
H	-2.9474861713	-1.0674261906	-1.4140966627	 0.108381
H	-1.2315590525	-1.3200845902	-1.978134653	 0.110355
H	 0.0338896127	-3.2012495782	-0.7911254444	 0.099917
H	 0.3164118442	-2.7126178504	 0.8761025007	 0.104134
H	-1.2345935591	-5.1097154667	-0.0773936454	 0.106566
H	-0.4865318695	-4.8393710594	 1.4851048591	 0.101898
H	-3.1091590106	-4.55044601	 1.7955999832	 0.090144
H	-3.6166023861	-2.0964930856	 1.1297650122	 0.090374
62.2743	93.7739	135.3992	175.5383	260.4897	280.7631	341.482	368.7573	424.7345	492.5078	599.5015	713.2568	757.3845	798.8949	848.6083	857.4123	882.789	913.825	923.3097	941.9112	969.1158	993.1798	1030.147	1057.3082	1059.9961	1075.8126	1089.7701	1126.7169	1166.017	1178.8768	1217.1096	1252.3652	1254.4084	1283.8737	1291.0436	1302.1679	1328.2334	1375.677	1417.6427	1468.3277	1482.7426	1490.4398	1501.5014	1520.1596	1681.3862	2961.0686	2990.2239	3010.8769	3037.8446	3054.3028	3093.2199	3120.7968	3137.6268	3179.0359	3205.4534	3207.785	3823.1144
OCC1CC11CCC=C1	OC[C@H]1C[C@]21CCC=C2	
InChI=1S/C8H12O/c9-6-7-5-8(7)3-1-2-4-8/h1,3,7,9H,2,4-6H2	InChI=1S/C8H12O/c9-6-7-5-8(7)3-1-2-4-8/h1,3,7,9H,2,4-6H2/t7-,8-/m1/s1
