17
gdb 18228	3.90078	1.7485	1.49497	1.445	67.76	-0.2356	-0.0244	0.2112	875.7392	0.143615	-363.852963	-363.845919	-363.844975	-363.88461	26.518	
O	-0.721637064	 1.0329439472	-0.4392636024	-0.244577
C	 0.2112762159	 1.0285675106	 0.3234714599	 0.150956
C	 1.4441737212	 1.9005844674	 0.1979956984	-0.09322
C	 1.5366814467	 2.7022925935	-1.1142691418	-0.261695
C	 2.1887140926	 4.0397489528	-0.6960509311	-0.158353
N	 1.9239502417	 4.2567854187	 0.7403083457	-0.089216
C	 0.5116405157	 4.1166844581	 1.1188272951	-0.245935
C	 1.4544258355	 2.9796178134	 1.2948489676	-0.039138
H	 0.2041599443	 0.3728249344	 1.2239647175	 0.080168
H	 2.3220017349	 1.258947256	 0.3504148133	 0.092562
H	 2.1192293932	 2.1785568388	-1.8754722443	 0.109575
H	 0.5329450996	 2.8391593025	-1.5225495566	 0.134387
H	 3.2764826929	 3.9972856513	-0.8163480915	 0.109705
H	 1.8256293101	 4.8925437995	-1.2776141948	 0.112035
H	 0.2138226775	 4.710792951	 1.9774719957	 0.120262
H	-0.2420734176	 4.0404479527	 0.3385195712	 0.125616
H	 1.8147770097	 2.7066873219	 2.2820889079	 0.096867
66.7121	137.5375	230.4837	270.5389	363.1182	425.4924	598.413	654.533	688.4636	731.1646	826.4874	842.4019	878.7381	942.0973	957.4258	982.6576	1005.6162	1008.6425	1067.2234	1109.0638	1116.8732	1141.4896	1165.6325	1203.6473	1239.7222	1266.1316	1272.704	1307.7193	1339.7987	1352.9531	1383.207	1430.6115	1496.2342	1501.4741	1524.5067	1823.7955	2871.0463	3024.1527	3044.9258	3078.1123	3088.7347	3109.6813	3122.581	3151.6338	3195.5817
O=CC1CCN2CC12	O=C[C@H]1CCN2C[C@@H]12	
InChI=1S/C6H9NO/c8-4-5-1-2-7-3-6(5)7/h4-6H,1-3H2	InChI=1S/C6H9NO/c8-4-5-1-2-7-3-6(5)7/h4-6H,1-3H2/t5-,6+,7?/m1/s1
