17
gdb 15175	8.27325	0.68096	0.66025	1.7988	77.	-0.2371	0.0236	0.2607	1705.9671	0.140989	-363.7856	-363.776548	-363.775603	-363.821133	30.533	
C	 0.3192671184	 1.3132621805	-0.1732992367	-0.219184
O	 0.4264849141	-0.0912014169	-0.1461266467	-0.227648
C	 0.1986457725	-0.6150691552	 1.1485148057	-0.202026
C	 0.3164146558	-2.0657167955	 1.1365202037	-0.010574
C	 0.4084226439	-3.2674164567	 1.1442959418	 0.170433
C	 0.5196656895	-4.697271119	 1.1699354136	-0.164851
C	 1.5187233809	-5.3760963259	 0.288917085	-0.224482
N	 1.7321499077	-5.341473189	 1.7373299637	-0.306941
H	 1.0558849829	 1.7940800168	 0.490375303	 0.104728
H	 0.5083579934	 1.6315690857	-1.2007504484	 0.131838
H	-0.6847356773	 1.6540750101	 0.1265259918	 0.105489
H	 0.9201990373	-0.1872586197	 1.8672053445	 0.114437
H	-0.805307823	-0.3283926852	 1.5085653272	 0.116881
H	-0.3949899424	-5.2345105355	 1.406889332	 0.117272
H	 1.2804614259	-6.3547018472	-0.117889113	 0.12621
H	 2.1266068166	-4.7440305737	-0.3511844069	 0.128305
H	 2.4080138437	-4.6156268935	 1.9645242096	 0.240114
26.3159	71.3016	78.9478	136.9487	208.695	229.1395	305.7433	358.6832	420.6513	530.5202	563.1081	744.5409	814.0598	882.4254	960.9798	975.0421	996.525	1024.4748	1087.8789	1118.7362	1144.0802	1159.4123	1182.0373	1218.1775	1221.7939	1254.2018	1258.3717	1300.0758	1395.2409	1411.8016	1476.9538	1484.4006	1493.7975	1505.245	1515.452	2362.6991	2941.57	2959.0347	2968.7252	3011.2629	3116.1408	3121.0256	3140.24	3207.5114	3502.9435
COCC#CC1CN1	COCC#C[C@H]1CN1	
InChI=1S/C6H9NO/c1-8-4-2-3-6-5-7-6/h6-7H,4-5H2,1H3	InChI=1S/C6H9NO/c1-8-4-2-3-6-5-7-6/h6-7H,4-5H2,1H3/t6-/m0/s1
