18
gdb 44938	2.61413	1.81026	1.55543	3.5151	75.01	-0.2332	0.0004	0.2336	933.9379	0.152049	-402.00607	-401.999316	-401.998372	-402.036949	28.057	
O	 0.006386361	-0.0207857028	 0.0001954571	-0.386259
C	 0.0048940699	 1.1882608384	-0.0424443255	 0.412998
N	-1.1084663135	 2.0041832593	-0.0827680583	-0.292512
C	-0.7296449547	 3.40483313	 0.1773863252	-0.054472
C	 0.6265845049	 3.4404094078	-0.5582630208	-0.221378
C	 1.2229321045	 2.1336969047	-0.0093929089	-0.13997
C	 1.6323550093	 2.3427910517	 1.4700057761	-0.262133
C	 0.6056685466	 3.1458631183	 2.2381222221	-0.045599
C	-0.48429517	 3.6528669153	 1.660356669	-0.06906
H	-1.9907820808	 1.6243246478	 0.2289143502	 0.244466
H	-1.4743240255	 4.0864075156	-0.237823082	 0.079357
H	 0.4795637868	 3.3890754786	-1.6404828316	 0.108572
H	 1.2105986251	 4.3298708056	-0.3130326336	 0.105863
H	 2.0495034258	 1.718240619	-0.5867351764	 0.089927
H	 1.79157033	 1.3720491242	 1.9554035947	 0.132409
H	 2.6010735594	 2.8608192811	 1.5087553139	 0.112021
H	 0.7936414769	 3.2987221769	 3.2979436821	 0.095133
H	-1.2132948057	 4.2227279884	 2.2285181368	 0.090636
128.2495	241.4136	303.6848	409.1726	466.5898	485.6836	502.3924	535.8963	624.1943	691.1259	745.2244	774.3139	805.5171	842.1691	864.7343	914.4899	929.468	973.7638	991.1746	1008.5088	1034.1748	1052.0724	1073.1567	1136.625	1173.6861	1186.9229	1219.3352	1262.1873	1299.4018	1302.1305	1327.7186	1366.3701	1370.4663	1398.3964	1408.7767	1469.4403	1494.7217	1703.1733	1835.241	3010.5484	3051.7009	3062.7529	3091.9867	3109.0455	3119.1101	3152.9372	3179.4545	3612.4527
O=C1NC2CC1CC=C2	O=C1N[C@@H]2C[C@H]1CC=C2	
InChI=1S/C7H9NO/c9-7-5-2-1-3-6(4-5)8-7/h1,3,5-6H,2,4H2,(H,8,9)	InChI=1S/C7H9NO/c9-7-5-2-1-3-6(4-5)8-7/h1,3,5-6H,2,4H2,(H,8,9)/t5-,6+/m1/s1
