23
gdb 122393	5.69755	0.56084	0.53244	3.0221	87.53	-0.2387	-0.0158	0.2229	2110.7044	0.203795	-388.312475	-388.302217	-388.301272	-388.349026	37.216	
C	-0.2230919638	 1.5110244652	 0.0140397194	-0.380323
C	-0.0329492223	-0.0080332592	 0.0023517243	-0.163926
C	 0.7288456828	-0.529692787	 1.2257078942	-0.159951
C	 0.9272015983	-2.0495605923	 1.2191281002	-0.2069
C	 1.6759423909	-2.5737076445	 2.4390782139	 0.027048
C	 0.9392138438	-2.5276215661	 3.8189184706	-0.353629
C	 1.3311130944	-4.0000809144	 4.0199610133	 0.403457
O	 1.3217341961	-4.7397698691	 4.9603041991	-0.290172
C	 1.8304790398	-4.1233040523	 2.5719110153	-0.370116
H	 0.7413441948	 2.030865076	 0.0302191547	 0.113985
H	-0.7699186434	 1.8524773559	-0.8703597605	 0.112456
H	-0.7853209328	 1.8329464902	 0.8977359928	 0.114139
H	-1.0133013076	-0.5001156164	-0.0497467031	 0.094881
H	 0.5021256973	-0.3042549316	-0.9096821207	 0.095127
H	 1.7096742944	-0.036685793	 1.2800153767	 0.092714
H	 0.192883349	-0.2349807308	 2.138650095	 0.096464
H	-0.0520424475	-2.5467337358	 1.1589407163	 0.090305
H	 1.4715565071	-2.341820674	 0.3106672106	 0.09752
H	 2.6528012455	-2.0848937435	 2.5140269763	 0.07941
H	 1.2946576112	-1.8283481224	 4.5798672293	 0.127396
H	-0.1472571541	-2.411386294	 3.7237861983	 0.126495
H	 1.1220127076	-4.6804320002	 1.9472695408	 0.12689
H	 2.8235883785	-4.5608310506	 2.441055893	 0.126729
41.5978	63.3412	82.5209	114.6237	153.0403	242.4141	261.9128	284.9711	393.7739	411.3201	444.9071	494.3033	654.992	669.9282	736.7728	764.8319	793.7651	893.742	902.2541	921.2728	940.0965	990.4046	1006.1749	1033.5537	1068.3449	1083.6315	1098.9472	1137.9548	1143.2583	1191.8092	1214.1438	1237.5812	1250.223	1264.1338	1290.3881	1319.9397	1334.3207	1352.0099	1386.2987	1400.74	1414.1464	1425.4134	1446.0904	1482.4341	1486.793	1499.7142	1499.8636	1512.6379	1892.9113	2998.4904	3004.8325	3016.4765	3023.6158	3029.7096	3036.089	3040.7426	3045.2736	3052.5138	3061.8481	3095.8551	3102.141	3108.1422	3109.6063
CCCCC1CC(=O)C1	CCCCC1CC(=O)C1	
InChI=1S/C8H14O/c1-2-3-4-7-5-8(9)6-7/h7H,2-6H2,1H3	InChI=1S/C8H14O/c1-2-3-4-7-5-8(9)6-7/h7H,2-6H2,1H3
