17
gdb 42730	2.66746	1.83764	1.42934	1.6367	72.97	-0.2279	-0.026	0.2019	943.1122	0.13903	-417.966393	-417.95943	-417.958486	-417.997704	27.689	
O	 0.071241363	 0.0657193193	-0.0165856587	-0.351754
C	-0.0088600831	 1.2654756247	 0.0505885064	 0.373889
C	-1.2175192906	 2.2056224437	 0.005398958	-0.124292
C	-0.8172502764	 3.2677535782	 1.0710972754	-0.227592
C	 0.2857355655	 3.5543672785	 0.01672137	-0.096914
N	-0.7620780448	 3.2209170801	-1.0148233375	-0.312968
C	 1.1207258878	 2.2824182592	 0.081290471	 0.274844
C	 2.4162851095	 2.0139186177	 0.7431168993	-0.306895
N	 2.3288571411	 2.0862184834	-0.7254265133	-0.377606
H	-2.2114569451	 1.7726529592	-0.0870378711	 0.093199
H	-1.555087895	 4.068285915	 1.1231130469	 0.12727
H	-0.5147168678	 2.9265471645	 2.0626596926	 0.111388
H	 0.8011549937	 4.5097371004	-0.0695507559	 0.088452
H	-0.3685988136	 2.8039715359	-1.8612928482	 0.225556
H	 2.9579735754	 2.8325863831	 1.2091708349	 0.126855
H	 2.5491719542	 1.0397305699	 1.2069548009	 0.132241
H	 2.3128757063	 1.1370357372	-1.0999437408	 0.244327
123.0067	201.7381	227.4662	257.7969	419.1752	467.7473	538.0638	585.8236	683.7576	766.9949	801.9649	827.7974	866.7628	870.259	915.7633	932.6904	941.6368	981.2133	1005.0083	1020.8459	1047.1669	1092.3489	1111.6084	1125.6583	1141.4086	1170.9294	1214.5565	1248.0539	1255.7386	1278.2268	1289.0954	1310.586	1336.4237	1421.581	1482.8855	1502.593	1855.3127	3083.5517	3105.8141	3131.7706	3147.1204	3155.8056	3196.8318	3427.631	3459.1169
O=C1C2CC(N2)C11CN1	O=C1[C@H]2C[C@H](N2)[C@]21CN2	
InChI=1S/C6H8N2O/c9-5-3-1-4(8-3)6(5)2-7-6/h3-4,7-8H,1-2H2	InChI=1S/C6H8N2O/c9-5-3-1-4(8-3)6(5)2-7-6/h3-4,7-8H,1-2H2/t3-,4+,6+/m1/s1
