17
gdb 67300	3.19384	1.60541	1.33536	2.5674	72.87	-0.2524	0.0617	0.3141	981.6795	0.135194	-421.719103	-421.711761	-421.710816	-421.750547	29.37	
O	-0.1221380472	 1.3415115345	 0.0237134992	-0.470383
C	-0.0453000155	-0.0285206926	 0.0203975683	 0.289292
C	 0.8031901225	-0.9953733184	-0.9073987109	-0.100439
C	 1.9902505072	-1.00695454	 0.0781484478	-0.295563
C	 0.7484812925	-0.9968202679	 0.9942978629	-0.098298
C	-0.0520763266	-1.9328305173	 0.0222793348	-0.168813
C	-1.2325505247	-0.9693872921	-0.0013746147	 0.478636
C	-2.5890194259	-0.9464653625	 0.525430435	-0.305081
O	-2.3154086745	-0.9619408187	-0.8978158509	-0.29495
H	 0.7679808539	 1.7093582721	-0.0175048118	 0.289953
H	 0.8002182615	-1.0095336266	-1.9971081519	 0.086944
H	 2.6034799403	-1.9127398813	 0.0952503393	 0.100169
H	 2.635470991	-0.1211216063	 0.0983981417	 0.08359
H	 0.6838446755	-1.0089993848	 2.0827451681	 0.07655
H	-0.0320729766	-3.0192430984	 0.0220181405	 0.087884
H	-3.0414614787	-1.8565851225	 0.9168611083	 0.115533
H	-3.0116351846	-0.0159602271	 0.9005971644	 0.124976
152.4272	207.9333	215.2301	267.8967	294.1751	385.3919	498.7953	544.3107	597.1377	671.7355	734.4199	823.2269	858.1807	872.5757	880.8657	908.4988	917.6509	923.0325	998.5598	1016.9413	1041.0923	1054.024	1073.7401	1111.3277	1114.734	1141.2361	1152.0225	1170.096	1189.7904	1200.785	1234.0903	1256.5634	1331.6879	1358.2875	1484.6438	1517.1651	1571.7366	3031.7003	3084.9363	3090.7287	3110.6235	3120.1271	3161.5148	3172.3753	3799.4182
OC12C3CC1C3C21CO1	O[C@@]12[C@H]3C[C@@H]1[C@H]3[C@]12CO1	
InChI=1S/C7H8O2/c8-7-3-1-4(7)5(3)6(7)2-9-6/h3-5,8H,1-2H2	InChI=1S/C7H8O2/c8-7-3-1-4(7)5(3)6(7)2-9-6/h3-5,8H,1-2H2/t3-,4+,5-,6-,7-/m0/s1
