19
gdb 75481	2.82241	1.07419	0.81784	3.883	79.24	-0.2353	-0.0179	0.2173	1392.1565	0.157309	-423.044539	-423.035143	-423.034199	-423.080016	33.069	
C	-0.0344214151	 1.532989789	 0.0047102511	-0.49983
C	-0.0063814407	 0.0389038153	-0.019346854	 0.314604
C	-0.0128102343	-0.7798688148	-1.068019633	-0.206997
C	-0.0146294612	-2.2114071336	-0.6216329244	-0.118461
O	 0.0156351041	-2.1514489637	 0.8046400123	-0.280787
C	 0.0056111227	-0.7937990558	 1.24513373	 0.024106
C	 1.2241680333	-0.5374768803	 2.157614334	-0.288272
C	 1.2414101557	-1.4640814956	 3.355192003	 0.154175
O	 1.2836611351	-1.0906122397	 4.5003979618	-0.243454
H	 0.8604791291	 1.9461059148	 0.4852489625	 0.136375
H	-0.0950785391	 1.9451170134	-1.0054213014	 0.130974
H	-0.8951075659	 1.9022969513	 0.5762733902	 0.134045
H	-0.0313201438	-0.4855811286	-2.1103193002	 0.103341
H	-0.9140283746	-2.7543171283	-0.952768263	 0.10887
H	 0.8559019189	-2.777887508	-0.9867573677	 0.107915
H	-0.9095295323	-0.6140530543	 1.8354881577	 0.091202
H	 2.1318496098	-0.71872442	 1.566557015	 0.118573
H	 1.2329031263	 0.4946711685	 2.5197510872	 0.116449
H	 1.2073450419	-2.5438481595	 3.0994156491	 0.097172
47.1282	73.6331	87.2681	163.14	169.4428	241.8475	258.7591	336.3749	430.7637	473.6743	566.1779	603.0823	770.9637	802.3505	833.0285	848.2567	927.3644	947.2727	999.1659	1037.3481	1045.7155	1055.1897	1085.3137	1094.9572	1116.181	1192.1468	1209.0315	1225.5171	1267.2374	1295.8719	1354.9447	1364.1841	1384.5321	1417.9989	1421.9952	1452.8056	1480.8664	1489.4067	1524.3441	1733.2124	1827.4043	2918.8943	2949.9897	2976.7602	2994.0388	3024.0571	3026.8835	3071.8444	3103.6703	3118.4815	3210.1283
CC1=CCOC1CC=O	CC1=CCO[C@H]1CC=O	
InChI=1S/C7H10O2/c1-6-3-5-9-7(6)2-4-8/h3-4,7H,2,5H2,1H3	InChI=1S/C7H10O2/c1-6-3-5-9-7(6)2-4-8/h3-4,7H,2,5H2,1H3/t7-/m0/s1
