19
gdb 125082	2.86118	1.31001	0.9734	2.8629	83.34	-0.2137	0.023	0.2367	1243.2544	0.160909	-382.086199	-382.077458	-382.076514	-382.12123	31.935	
C	 0.1744819521	 1.5580296293	 0.0915599414	-0.51584
C	 0.0385301026	 0.0665072999	 0.0212801761	 0.096187
C	-0.1228485978	-0.7246982815	-1.1078257482	 0.324465
N	-0.1982949744	-2.0062487566	-0.653671176	-0.281642
N	-0.0982392425	-2.1128941437	 0.6879447225	-0.239354
C	 0.0443988707	-0.8556846486	 1.0927167087	-0.069209
C	-0.2051897234	-0.3466578291	-2.5293830744	-0.085833
C	 0.3869281679	-1.214564368	-3.6243221743	-0.270729
C	-1.1050950838	-1.0844090241	-3.5033365413	-0.270715
H	 1.0404370107	 1.923771976	-0.4726836725	 0.12494
H	-0.7092426203	 2.0754976809	-0.3002135461	 0.125128
H	 0.3046357978	 1.8807485523	 1.1283335842	 0.126235
H	-0.3153985865	-2.845738656	-1.1946754244	 0.265328
H	 0.1490839459	-0.6408557822	 2.1473154283	 0.103084
H	-0.1243535104	 0.7237208571	-2.6824214042	 0.094645
H	 0.8853599133	-0.7188247747	-4.4497196431	 0.122027
H	 0.8512956169	-2.1488177902	-3.3260445723	 0.114626
H	-1.6695223281	-1.9289221233	-3.1216842989	 0.114625
H	-1.6362933309	-0.4988521778	-4.2452437552	 0.122033
30.1978	41.9606	154.8251	165.2566	259.849	261.8218	401.1995	460.3146	492.8128	592.1437	688.4481	695.8852	708.6824	791.4802	818.3312	882.9045	907.3544	913.8613	955.4633	1001.1138	1059.4047	1064.9001	1068.7668	1075.5054	1131.313	1135.9294	1155.0487	1201.1006	1222.0258	1247.2451	1315.5289	1368.9597	1378.6583	1421.426	1462.8571	1472.9871	1488.0947	1495.8037	1504.6019	1532.6804	1625.4036	3023.2272	3070.2123	3106.4478	3131.0114	3135.5762	3170.6768	3209.8904	3226.3432	3232.7042	3672.7811
CC1=C(NN=C1)C1CC1	Cc1c([nH]nc1)C1CC1	
InChI=1S/C7H10N2/c1-5-4-8-9-7(5)6-2-3-6/h4,6H,2-3H2,1H3,(H,8,9)	InChI=1S/C7H10N2/c1-5-4-8-9-7(5)6-2-3-6/h4,6H,2-3H2,1H3,(H,8,9)
