16
gdb 77836	3.08173	1.33116	1.05805	1.8668	74.46	-0.2629	-0.0134	0.2494	1112.7105	0.124176	-400.721043	-400.713088	-400.712144	-400.753478	29.904	
C	-0.4337316754	 1.4927886843	-0.0055198986	-0.464838
C	-0.0653000476	 0.0165627419	 0.0593265407	 0.031118
C	 1.1158654735	-0.6032225579	-0.7886945853	-0.200269
C	 2.1390350123	-0.0711279888	 0.2883801339	-0.147297
C	 2.5595114096	 1.31846731	 0.3066605671	 0.273911
N	 2.9909781601	 2.3914710586	 0.3317509733	-0.332001
C	 0.9155833633	-0.5681082335	 1.1522523739	-0.200281
C	 0.9626401136	-1.778206018	 0.1978833763	 0.44066
O	 0.8764289851	-2.9630014776	 0.2104196701	-0.30438
H	 0.4105461449	 2.1747707954	 0.0693513238	 0.16874
H	-0.9495039037	 1.6951098029	-0.9498760498	 0.13101
H	-1.1310098641	 1.7269749666	 0.8054607553	 0.131008
H	-0.9838955714	-0.5729672359	-0.0248007827	 0.104677
H	 1.2489849272	-0.605619612	-1.8677428507	 0.112758
H	 3.0403917792	-0.6820476154	 0.392438967	 0.142425
H	 0.8256149234	-0.5313777509	 2.2351289758	 0.11276
137.5835	141.3043	183.6185	197.6399	253.4023	315.235	456.0284	466.5463	529.3427	571.1745	691.0541	707.87	719.7587	779.273	816.5773	887.5437	983.7622	1027.8774	1039.5375	1057.1477	1068.0728	1105.503	1105.8473	1137.6291	1177.0312	1177.3568	1232.0564	1245.814	1384.4964	1421.0523	1443.4141	1498.1875	1502.4508	1933.9471	2348.9809	3044.6897	3054.7288	3071.1395	3101.5565	3156.3895	3158.4988	3175.8691
CC1C2C(C#N)C1C2=O	C[C@H]1[C@H]2[C@@H](C#N)[C@@H]1C2=O	
InChI=1S/C7H7NO/c1-3-5-4(2-8)6(3)7(5)9/h3-6H,1H3	InChI=1S/C7H7NO/c1-3-5-4(2-8)6(3)7(5)9/h3-6H,1H3/t3-,4+,5-,6+
