19
gdb 50342	2.94435	1.47959	1.31805	2.0404	73.45	-0.2498	-0.026	0.2238	1030.7057	0.161654	-423.050312	-423.042856	-423.041912	-423.08268	29.001	
O	-0.57951715	 0.5932261168	 0.5717100832	-0.24801
C	 0.1767714438	 0.9443163434	-0.2999925667	 0.134948
C	 1.2616328731	 1.9809840121	-0.163865162	-0.072558
C	 1.2127603331	 3.1228491493	-1.2376299686	-0.262759
C	 1.3687872565	 4.365835002	-0.3264019529	 0.089658
C	 0.0352093133	 4.6586033415	 0.3935450574	-0.22255
C	 0.0211192606	 3.5238692229	 1.4619261397	-0.227075
C	 1.3493059508	 2.8018756549	 1.1466286303	 0.05658
O	 2.2038539163	 3.8812181158	 0.7356031354	-0.264588
H	 0.1261908638	 0.4774343528	-1.3118002	 0.081027
H	 2.2040295468	 1.4317281674	-0.2931830389	 0.108767
H	 2.0388966557	 3.0412946099	-1.9463289335	 0.112261
H	 0.2784912785	 3.1381722583	-1.8067410334	 0.106093
H	 1.8448147502	 5.2226726032	-0.8032623555	 0.079726
H	 0.0595484758	 5.6466001593	 0.8585249726	 0.106741
H	-0.8226586825	 4.6263803779	-0.2834007103	 0.098833
H	 0.0590016274	 3.934294291	 2.4732748339	 0.10685
H	-0.8413117622	 2.8620989867	 1.3963242579	 0.130827
H	 1.8015863891	 2.2714792551	 1.9834940616	 0.085227
70.8012	111.8826	202.0937	286.8842	358.8111	387.559	523.8669	571.9629	684.9907	727.1803	796.0141	800.8682	828.9173	866.8124	887.615	921.3452	947.0454	970.6797	978.5705	1022.191	1027.1504	1051.6026	1081.9557	1118.8599	1127.367	1180.5361	1216.9937	1233.0668	1266.1305	1272.7356	1295.8	1308.0037	1320.3911	1340.535	1346.3973	1363.0081	1431.7104	1487.0436	1500.3913	1514.0954	1819.3062	2855.146	3020.0999	3060.6232	3065.3694	3082.1396	3108.3098	3111.1391	3122.8614	3132.3593	3150.7464
O=CC1CC2CCC1O2	O=C[C@H]1C[C@H]2CC[C@@H]1O2	
InChI=1S/C7H10O2/c8-4-5-3-6-1-2-7(5)9-6/h4-7H,1-3H2	InChI=1S/C7H10O2/c8-4-5-3-6-1-2-7(5)9-6/h4-7H,1-3H2/t5-,6-,7+/m1/s1
