17
gdb 61710	2.27214	1.29198	1.18125	2.4688	69.83	-0.2601	-0.0641	0.196	1137.4837	0.130371	-458.988485	-458.978347	-458.977403	-459.024541	34.463	
C	-0.4704019205	 1.565474268	 0.164741064	-0.457235
C	-0.0811022175	 0.0763475099	 0.0280022111	 0.049467
C	 0.9246923103	-0.4126673411	 1.0715920185	-0.324533
C	 0.4594358302	-0.3288297938	 2.505763496	 0.156419
O	-0.6034191232	 0.1036690502	 2.8760159349	-0.245751
C	-1.3540814951	-0.7873220521	 0.0674014195	 0.160958
O	-1.3959498307	-1.900138773	 0.5170972625	-0.24815
C	 0.4983960267	-0.1062543287	-1.3817067696	 0.149646
O	 1.570853042	-0.5919828128	-1.6223770486	-0.243186
H	 0.4177039096	 2.2017636048	 0.106187222	 0.13313
H	-1.1503226217	 1.8663869408	-0.6396466306	 0.124897
H	-0.9638936758	 1.7375678745	 1.1215839831	 0.169785
H	 1.1892865311	-1.4584975053	 0.8767826446	 0.159337
H	 1.870709955	 0.1373941995	 0.9856667168	 0.136862
H	 1.2024001912	-0.7133778261	 3.2394630249	 0.09399
H	-2.2495893403	-0.3104504904	-0.3885968952	 0.091118
H	-0.1586173514	 0.2742825055	-2.1952340539	 0.093246
33.2199	89.4104	103.8562	156.0718	168.1399	203.0988	231.0268	270.162	301.2289	341.4451	354.9653	538.3615	606.378	701.7465	717.0501	822.6662	855.7106	920.3647	944.5749	964.7254	1006.2017	1059.7329	1148.0583	1164.8135	1248.5164	1274.101	1355.9045	1395.9688	1404.4666	1415.9799	1424.8381	1444.4367	1490.7712	1512.766	1806.9752	1823.0387	1846.9303	2877.561	2887.8058	2893.3459	3040.1994	3042.7871	3078.0633	3105.7907	3152.8135
CC(CC=O)(C=O)C=O	CC(CC=O)(C=O)C=O	
InChI=1S/C6H8O3/c1-6(4-8,5-9)2-3-7/h3-5H,2H2,1H3	InChI=1S/C6H8O3/c1-6(4-8,5-9)2-3-7/h3-5H,2H2,1H3
