23
gdb 87128	2.07126	1.47307	1.29909	1.5651	84.67	-0.2285	0.0832	0.3118	1170.8472	0.20361	-388.263062	-388.252972	-388.252027	-388.297318	39.177	
C	 0.7003349895	-0.1080698644	-1.3415174862	-0.46502
C	-0.0264996582	-0.0012455047	-0.0062872869	 0.287557
C	 0.8000970238	-0.1798367651	 1.2444785872	-0.307337
C	 0.3325287354	 1.1998263941	 0.8530884441	-0.333031
C	-1.4325863014	-0.5702981762	-0.0296137166	 0.230594
C	-1.495748906	-2.0832169527	-0.1672084723	-0.461335
C	-2.5552939799	 0.0760361443	 0.7776816024	-0.392148
C	-2.5067789143	 0.2378678265	-0.719682202	 0.108067
O	-2.2340773072	 1.4765153967	-1.311605144	-0.430635
H	 1.7079708222	 0.3141302159	-1.2746534915	 0.108634
H	 0.8033350672	-1.1502024653	-1.6608182544	 0.118752
H	 0.153792946	 0.4302540024	-2.1225014639	 0.131257
H	 0.3216048334	-0.6387874381	 2.1029214377	 0.114524
H	 1.853237647	-0.4174950592	 1.137624713	 0.110299
H	 1.0674253754	 1.8921675253	 0.4548083966	 0.112173
H	-0.4168651556	 1.6699024303	 1.479630312	 0.115292
H	-1.0345093167	-2.575064559	 0.6970601978	 0.1161
H	-2.5328083779	-2.4271773605	-0.2300754725	 0.112138
H	-0.979851082	-2.4341173009	-1.0668862187	 0.11885
H	-3.3039604891	-0.5775607617	 1.2141732097	 0.107597
H	-2.3435936875	 0.9574681206	 1.3729958648	 0.10795
H	-3.2395608445	-0.2921655844	-1.3201032515	 0.099507
H	-1.4874265495	 1.8692771161	-0.8470374048	 0.290215
61.0921	148.7498	191.8564	221.4098	236.2232	243.365	267.9428	280.6496	339.5259	355.4159	399.1283	452.2303	477.6092	573.1771	591.5642	789.319	798.6172	825.9595	864.4186	870.1096	920.5541	942.8678	947.3446	968.666	1029.3328	1040.3564	1045.3706	1067.0561	1086.6631	1095.5253	1121.3477	1125.7168	1155.2026	1190.846	1206.9175	1262.1319	1312.5823	1326.3937	1373.4868	1410.5992	1417.9613	1437.717	1464.1934	1485.6484	1487.6126	1497.6734	1501.1909	1503.4873	1510.063	3026.3144	3033.4467	3089.2265	3097.6684	3102.5202	3106.013	3125.0309	3128.9411	3132.4344	3159.7422	3205.3347	3211.6217	3221.0428	3812.4612
CC1(CC1)C1(C)CC1O	CC1(CC1)[C@@]1(C)C[C@H]1O	
InChI=1S/C8H14O/c1-7(3-4-7)8(2)5-6(8)9/h6,9H,3-5H2,1-2H3	InChI=1S/C8H14O/c1-7(3-4-7)8(2)5-6(8)9/h6,9H,3-5H2,1-2H3/t6-,8+/m1/s1
