17
gdb 88148	2.51368	1.604	1.17141	2.6845	70.09	-0.2358	-0.0268	0.209	1062.255	0.135092	-458.964935	-458.956789	-458.955845	-458.99775	30.955	
O	-0.3769794546	 1.4083846685	 0.0436074027	-0.426213
C	-0.0964353675	 0.0545375702	-0.0459797947	 0.088149
C	-0.134564378	-0.8229297398	 1.1731812557	-0.383804
C	-1.2717080821	-0.900717232	 0.190431701	 0.2665
O	-2.4927488725	-0.2872245928	 0.5239006572	-0.314292
C	-3.4104115626	-0.583768028	-0.5505369431	-0.111424
C	-3.0290159072	-1.9855205708	-1.0370740936	-0.338509
C	-1.5307912499	-2.0492876716	-0.7150538008	 0.330682
O	-0.7191168209	-2.8457561995	-1.1167338727	-0.328784
H	-1.2884346621	 1.4798178135	 0.3638625487	 0.293939
H	 0.6043337733	-0.1826418815	-0.8399070367	 0.125414
H	 0.5179072648	-1.6896495902	 1.207376484	 0.141367
H	-0.354896215	-0.3465607152	 2.1226501029	 0.133017
H	-4.4190239557	-0.5063043967	-0.1419347069	 0.125004
H	-3.2937894467	 0.156068012	-1.3542224099	 0.114653
H	-3.5344662687	-2.7643379004	-0.4546215447	 0.144738
H	-3.2220111848	-2.1705773256	-2.0950140091	 0.139563
86.8334	142.6679	157.353	216.9444	266.2068	376.8862	426.5529	466.2976	534.3384	558.0146	602.8017	672.3294	712.5387	789.7275	833.8387	860.4464	882.2495	958.5968	988.8249	1016.5009	1040.38	1072.2372	1095.5212	1099.1709	1167.3495	1193.9549	1238.8079	1258.6068	1288.9109	1301.8603	1355.8302	1389.6384	1418.1872	1451.5684	1456.1644	1515.4444	1837.4902	3014.0063	3054.717	3118.3623	3128.171	3129.3522	3171.4761	3228.992	3722.1767
OC1CC11OCCC1=O	O[C@H]1C[C@]21OCCC2=O	
InChI=1S/C6H8O3/c7-4-1-2-9-6(4)3-5(6)8/h5,8H,1-3H2	InChI=1S/C6H8O3/c7-4-1-2-9-6(4)3-5(6)8/h5,8H,1-3H2/t5-,6-/m0/s1
