18
gdb 37287	4.32647	1.55181	1.50144	3.0398	73.74	-0.2314	0.0805	0.312	917.5872	0.151812	-401.889549	-401.883654	-401.88271	-401.919437	25.876	
C	-0.0063406567	 1.4894201587	-0.0213229612	-0.100613
O	 1.4051410516	 1.7786784449	-0.0368196705	-0.290865
C	 1.9833766573	 0.4791026331	 0.0094434395	 0.132324
C	 1.17583599	-0.4004812437	-0.994678746	-0.057492
C	 1.5213049911	-1.8417030268	-0.6433346993	-0.060449
N	 2.8018448163	-1.9941428766	 0.0984371107	-0.34229
C	 1.5262960671	-1.7868393827	 0.8354886875	-0.060449
C	 1.1828424722	-0.3234598824	 1.0813988491	-0.057492
C	 0.0302461708	-0.0304267321	 0.0349379258	-0.076561
H	-0.4781398182	 1.9510229798	 0.8550380036	 0.100346
H	-0.4841539803	 1.8849417212	-0.9262740776	 0.100347
H	 3.0658976266	 0.5459022362	 0.003311954	 0.102513
H	 1.1036027468	-0.1068551888	-2.0422854793	 0.06749
H	 1.1249702146	-2.6744550566	-1.2128048447	 0.090532
H	 3.0332836631	-2.9857971916	 0.1344460612	 0.226549
H	 1.1340168605	-2.5750067722	 1.467756611	 0.090532
H	 1.1175957336	 0.0470009231	 2.104832024	 0.06749
H	-0.9149259565	-0.5745992735	 0.0583159521	 0.068089
280.6061	293.424	374.7531	399.2189	514.3602	630.1862	675.526	688.7857	784.8743	811.9324	847.1972	884.3225	905.6911	922.7719	941.8718	955.065	966.2573	976.5862	1000.2237	1022.9377	1025.5791	1041.7845	1085.4734	1090.5921	1123.049	1141.9816	1165.6533	1205.6288	1208.996	1215.7045	1233.623	1258.1056	1259.7555	1281.7277	1336.4386	1349.2656	1373.9212	1410.2998	1525.9335	3016.3044	3052.376	3108.0521	3112.1244	3117.072	3171.1441	3181.4327	3188.9297	3480.0725
C1OC2C3C4NC4C2C13	C1O[C@@H]2[C@H]3[C@H]4N[C@H]4[C@@H]2[C@@H]13	
InChI=1S/C7H9NO/c1-2-3-5-6(8-5)4(2)7(3)9-1/h2-8H,1H2	InChI=1S/C7H9NO/c1-2-3-5-6(8-5)4(2)7(3)9-1/h2-8H,1H2/t2-,3+,4-,5+,6-,7+
