14
gdb 10599	3.37475	1.74569	1.35695	0.8454	61.81	-0.2606	-0.0483	0.2123	886.0748	0.104686	-419.684298	-419.676626	-419.675682	-419.716057	28.041	
O	-0.0619316924	 1.2164542351	 0.0579553517	-0.381558
C	-0.0960466152	-0.1309401005	 0.1702650402	 0.150701
C	-0.5982387433	-0.8456479335	 1.3342976	-0.349515
C	-1.5696147143	-0.8928395324	 0.1390361472	 0.04994
C	-2.6777601739	 0.0519350239	 0.1079920808	 0.099081
O	-2.6818116266	 1.120328132	 0.7011835706	-0.327499
C	-1.6271594625	-2.1297762641	-0.6507380304	 0.081318
O	-0.7812679085	-2.9968773927	-0.6186323699	-0.286906
H	-0.8220019777	 1.5808623458	 0.5506054822	 0.317788
H	 0.6063924298	-0.62770027	-0.4901866702	 0.157482
H	-0.1656876926	-1.8159744447	 1.5547256232	 0.161254
H	-0.9490216836	-0.2593454699	 2.1776631362	 0.147359
H	-3.5368298758	-0.2350611229	-0.5323735159	 0.099641
H	-2.5143386934	-2.217271176	-1.3168378057	 0.080913
128.7338	176.31	225.9341	242.7655	266.5662	306.1493	393.9753	477.6776	487.3442	524.8607	609.7322	716.7378	756.4824	911.1781	962.9801	990.8497	1034.394	1062.1858	1099.4744	1126.5678	1227.262	1255.1997	1301.8105	1383.6026	1428.1478	1438.0979	1443.2761	1488.262	1735.0008	1794.9523	2880.8662	2925.2852	3130.7708	3195.3826	3232.7685	3590.0683
OC1CC1(C=O)C=O	O[C@H]1CC1(C=O)C=O	
InChI=1S/C5H6O3/c6-2-5(3-7)1-4(5)8/h2-4,8H,1H2	InChI=1S/C5H6O3/c6-2-5(3-7)1-4(5)8/h2-4,8H,1H2/t4-/m0/s1
