19
gdb 103220	3.70123	1.25585	1.11838	2.7192	74.15	-0.2285	0.061	0.2895	1138.7825	0.157475	-422.928435	-422.920195	-422.919251	-422.961084	32.343	
C	 0.0455908555	 1.6089708725	 0.133850656	-0.402877
C	-0.1362437009	 0.0994228965	-0.0690078926	-0.236254
C	 0.6419309836	-0.4592629546	-1.257604206	 0.398228
O	 0.2178845094	 0.1063906906	-2.4871247623	-0.487992
C	 2.1737588929	-0.666554272	-1.1164506086	-0.168631
C	 1.9824805039	-2.0264685438	-0.3754035364	 0.076873
O	 2.8639090731	-2.7754514739	-1.2621534821	-0.333306
C	 2.1496197376	-1.8505455856	-2.1362119423	 0.084991
C	 0.7892720721	-1.9849584382	-1.3818599323	-0.139543
H	 1.099911536	 1.8717744599	 0.2739549063	 0.12059
H	-0.3361998021	 2.1812754514	-0.7193806583	 0.112205
H	-0.5018713153	 1.9534144337	 1.0157449084	 0.123139
H	 0.1730428581	-0.42792204	 0.8411619115	 0.099855
H	-1.1992702993	-0.125026531	-0.218983	 0.107134
H	 0.3570442093	 1.057985548	-2.4481062443	 0.279915
H	 2.9810240793	 0.0514107048	-0.9680234032	 0.078805
H	 1.99583127	-2.2560909502	 0.6888448197	 0.096763
H	 2.361222696	-1.8609751995	-3.2024342429	 0.106353
H	 0.0249989007	-2.7468093587	-1.5330286406	 0.083753
81.8229	172.309	179.8161	246.2281	265.8492	323.9245	376.311	401.7187	558.9816	583.008	643.7662	770.0983	784.8682	800.4515	806.9636	836.761	879.2596	910.5244	936.4204	967.7547	974.4185	1010.3002	1029.1881	1081.0992	1110.5462	1122.7748	1143.7436	1151.312	1169.4834	1178.3577	1195.6549	1208.7379	1268.6275	1309.4309	1327.2784	1347.9715	1401.4192	1411.6786	1475.8767	1500.2923	1510.2431	3027.9485	3030.8232	3063.6713	3095.0882	3108.1062	3112.1777	3122.3573	3133.9441	3157.0713	3817.127
CCC1(O)C2C3OC2C13	CC[C@@]1(O)[C@H]2[C@@H]3O[C@H]2[C@H]13	
InChI=1S/C7H10O2/c1-2-7(8)3-5-4(7)6(3)9-5/h3-6,8H,2H2,1H3	InChI=1S/C7H10O2/c1-2-7(8)3-5-4(7)6(3)9-5/h3-6,8H,2H2,1H3/t3-,4+,5-,6+,7-
