16
gdb 30565	4.86758	0.9287	0.78368	1.3941	76.64	-0.2061	0.0045	0.2106	1408.0821	0.125475	-434.097773	-434.089564	-434.08862	-434.131038	29.756	
C	-0.2391561989	 1.6008797332	 0.0729677915	-0.312586
N	 0.0080088172	 0.1753577239	 0.039505441	-0.218427
C	-0.9932976082	-0.5871625147	-0.1311107446	 0.094922
N	-0.8942436017	-1.9534187418	-0.1837109203	-0.419408
C	 0.2725613364	-2.6854826619	-0.0576062732	 0.335794
C	 1.5635362701	-2.3041762699	 0.1348904702	-0.10236
O	 2.313449909	-3.4600485886	 0.1839847344	-0.142984
C	 1.4263976892	-4.4529884873	 0.0188823865	 0.086393
N	 0.1987804471	-4.069351438	-0.1300446111	-0.333057
H	 0.3379116416	 2.0992192737	-0.7154077966	 0.124146
H	-1.3004213835	 1.8710790259	-0.0572714154	 0.093467
H	 0.1033895174	 2.0175242265	 1.0278002808	 0.12415
H	-2.0258527466	-0.2332136868	-0.2542975028	 0.085777
H	-1.7294029823	-2.4987000011	-0.3171012318	 0.264387
H	 2.0653734175	-1.3647721906	 0.2465230124	 0.168757
H	 1.8084534858	-5.4615393024	 0.0250176791	 0.151028
73.641	128.6466	150.7767	209.6184	273.6415	317.223	365.3431	370.4568	497.0594	637.3776	660.3872	697.5156	747.076	798.8038	841.1936	936.0906	973.2463	992.9052	1057.4816	1072.1406	1140.4227	1148.9564	1152.2626	1208.3297	1246.049	1271.5779	1347.723	1406.8699	1448.7529	1480.1116	1505.2492	1521.7829	1582.0856	1658.1457	1752.2183	2963.5559	3026.5336	3049.7802	3066.8317	3278.058	3357.8808	3663.3002
CN=CNC1=COC=N1	CN=CNc1cocn1	
InChI=1S/C5H7N3O/c1-6-3-7-5-2-9-4-8-5/h2-4H,1H3,(H,6,7)	InChI=1S/C5H7N3O/c1-6-3-7-5-2-9-4-8-5/h2-4H,1H3,(H,6,7)
