17
gdb 52636	2.69293	0.68376	0.56246	1.2481	100.	-0.2409	-0.0126	0.2283	1946.4502	0.13195	-347.478871	-347.468129	-347.467185	-347.516778	36.96	
C	-0.0514717019	 1.513211962	 0.051184743	-0.497351
C	-0.0047861802	 0.058753571	 0.0125925092	 0.046024
C	 0.0428310241	-1.1428986974	-0.0246648069	 0.113964
C	 0.0756872382	-2.6097532654	-0.0599818052	-0.376015
C	-1.344772526	-3.2139713796	 0.089438002	-0.37607
C	 0.7302279089	-3.0990385072	-1.2764213113	 0.507856
C	 1.2642998445	-3.5236008796	-2.2752948951	-0.336022
C	 1.8609824761	-3.9983143623	-3.4025728101	 0.301873
C	 2.391414598	-4.4209155295	-4.4016773425	-0.562048
H	 0.5134830722	 1.9070266791	 0.9030958215	 0.149657
H	 0.3766212946	 1.9454681707	-0.8597762892	 0.153462
H	-1.0813249923	 1.8762221978	 0.1387221387	 0.149362
H	 0.6727276348	-2.9586691455	 0.7962135429	 0.139262
H	-1.7938779449	-2.8689911076	 1.0239267648	 0.128272
H	-1.979007861	-2.8993466353	-0.7420056057	 0.139107
H	-1.290175329	-4.3054001128	 0.0979506755	 0.128402
H	 2.856192714	-4.7914975785	-5.2811769417	 0.190263
15.641	50.0151	97.0446	127.4146	153.7282	233.2467	241.2829	273.9626	303.3885	375.9762	448.7092	464.5698	520.3917	532.2515	557.7158	592.5369	602.6257	710.2004	752.6401	955.4815	1050.1921	1052.4268	1055.3932	1069.9947	1151.1048	1200.5952	1296.326	1326.5172	1402.243	1414.4903	1477.7915	1477.9799	1488.4586	1496.4857	2182.1105	2365.0554	2377.0731	2988.6742	3028.4936	3051.0571	3089.8527	3090.9571	3132.1111	3138.8757	3506.1804
CC#CC(C)C#CC#C	CC#C[C@@H](C)C#CC#C	
InChI=1S/C9H8/c1-4-6-8-9(3)7-5-2/h1,9H,2-3H3	InChI=1S/C9H8/c1-4-6-8-9(3)7-5-2/h1,9H,2-3H3/t9-/m1/s1
