23
gdb 93948	3.83575	0.8969	0.77472	1.8251	85.98	-0.2598	0.0812	0.341	1538.9422	0.206627	-388.29008	-388.280891	-388.279947	-388.325249	34.719	
C	-0.1314255506	 1.5229310689	 0.1345831863	-0.408004
C	 0.0805666107	 0.0135747528	 0.0404450826	 0.059563
C	 0.806378189	-0.4647300422	-1.2285005939	-0.202456
C	 1.1889662715	-1.9139946174	-0.8957732044	-0.237086
C	 1.5660593728	-1.8962826425	 0.6136132769	 0.007529
C	 0.9439706344	-0.5800879941	 1.1751368143	-0.23317
C	 1.083705818	-3.1320344484	 1.333020144	 0.088617
C	 1.9250175377	-4.3200284063	 1.5223538985	-0.185828
O	 1.6731345104	-3.4198608413	 2.6037561455	-0.244441
H	 0.827394425	 2.054103929	 0.1052567588	 0.111302
H	-0.7435780519	 1.8938970233	-0.6945518598	 0.110287
H	-0.6344780491	 1.798612713	 1.0676261997	 0.113139
H	-0.9033178398	-0.4775078363	 0.06287345	 0.06676
H	 0.1962735643	-0.3775045169	-2.133037461	 0.091068
H	 1.7095546448	 0.1410682553	-1.3846824642	 0.092221
H	 0.319565001	-2.5659281648	-1.0523291245	 0.095017
H	 1.9945423133	-2.3077134981	-1.52144167	 0.096031
H	 2.6541502286	-1.8613742776	 0.7279819806	 0.072548
H	 1.7413647574	 0.1254792085	 1.4349263635	 0.096009
H	 0.3714768911	-0.753100625	 2.0915370272	 0.104266
H	 0.0007956733	-3.283000926	 1.3104654216	 0.085637
H	 1.4689936896	-5.3049216286	 1.6157439198	 0.111337
H	 2.9465168586	-4.3180504551	 1.1427665885	 0.109655
23.9778	71.8699	158.9384	206.1502	241.077	291.5437	306.1423	337.4464	424.5922	478.8605	545.7168	633.0403	786.4995	816.437	854.9051	865.3589	902.237	916.8149	927.6232	959.9391	968.664	1001.3305	1033.4242	1059.126	1084.5298	1103.9925	1119.684	1156.2574	1160.257	1172.9769	1215.672	1221.605	1261.7964	1288.7833	1291.8198	1300.8276	1312.6478	1327.0609	1348.4572	1355.726	1386.7604	1411.9654	1450.7295	1488.1341	1491.3509	1498.0485	1500.2058	1507.2049	1530.0633	2992.1881	3017.0781	3023.6246	3025.2864	3035.697	3051.0077	3071.465	3078.9463	3079.4365	3084.1582	3089.8629	3093.4288	3094.6811	3163.4587
CC1CCC(C1)C1CO1	C[C@H]1CC[C@@H](C1)[C@H]1CO1	
InChI=1S/C8H14O/c1-6-2-3-7(4-6)8-5-9-8/h6-8H,2-5H2,1H3	InChI=1S/C8H14O/c1-6-2-3-7(4-6)8-5-9-8/h6-8H,2-5H2,1H3/t6-,7-,8+/m0/s1
