19
gdb 110728	2.378	1.57717	1.24262	1.2291	76.68	-0.2197	0.0208	0.2405	1090.9369	0.158315	-423.002048	-422.993385	-422.992441	-423.035089	33.118	
C	 0.2588257703	 1.0578284754	 0.3227070015	-0.230931
O	-0.4138105428	 0.0318800474	-0.3821974751	-0.230857
C	 0.3755477098	-0.5827646063	-1.3393551532	 0.043347
C	 1.4455353837	-1.6319279335	-0.9830670622	-0.194886
C	 1.3838659404	-2.2326636916	 0.3766328883	-0.063654
C	 0.2298932013	-2.8718667004	 0.5852664576	-0.07038
C	-0.6630506959	-2.8396308197	-0.6333672617	-0.33134
C	 0.1346509456	-2.0217469525	-1.6577683721	 0.329732
O	 0.1401409615	-2.440556411	-2.989140078	-0.470676
H	 1.1268384099	 0.6636773729	 0.868256402	 0.113436
H	 0.601852052	 1.854400225	-0.3543804702	 0.105067
H	-0.4540964444	 1.4795229763	 1.0348787388	 0.126305
H	 0.6433027573	 0.0481898354	-2.1902009049	 0.084494
H	 2.375435077	-1.5885796211	-1.5393653483	 0.093996
H	 2.184837904	-2.1266334666	 1.099196423	 0.092201
H	-0.0648792058	-3.354173008	 1.5100362705	 0.092909
H	-0.8535827556	-3.8429241612	-1.035688904	 0.110971
H	-1.6352941818	-2.3821110473	-0.4143091456	 0.118174
H	-0.6654088066	-2.1161190131	-3.4070760364	 0.282092
91.5015	159.9887	177.429	212.6873	241.2497	283.7532	337.0271	370.1973	413.1384	518.3929	598.5606	625.0312	725.9202	764.9445	770.6126	861.1382	913.9848	945.0143	952.8496	977.7399	990.7886	1019.2324	1056.7328	1066.5887	1131.6923	1144.044	1170.0719	1183.662	1215.5297	1244.3486	1260.3078	1297.3587	1321.5463	1342.2405	1375.5268	1437.8763	1464.555	1486.4925	1490.1262	1504.4207	1667.482	2987.9154	3024.5124	3044.7059	3061.3845	3076.8254	3120.4176	3173.3595	3187.5263	3211.8718	3792.1031
COC1C2C=CCC12O	CO[C@H]1[C@H]2C=CC[C@@]12O	
InChI=1S/C7H10O2/c1-9-6-5-3-2-4-7(5,6)8/h2-3,5-6,8H,4H2,1H3	InChI=1S/C7H10O2/c1-9-6-5-3-2-4-7(5,6)8/h2-3,5-6,8H,4H2,1H3/t5-,6+,7+/m1/s1
