21
gdb 36966	5.74468	0.58878	0.56576	1.1308	80.48	-0.2456	0.0932	0.3387	1984.6781	0.180863	-424.174901	-424.165294	-424.16435	-424.211139	34.369	
C	-0.0047727387	 1.5623598877	-0.0781777516	-0.051438
C	-0.1161524186	 0.1144232716	-0.5436402291	-0.237612
C	-1.3763015913	-0.5446808411	-0.0424838421	 0.094724
C	-1.4182067354	-1.9538131007	 0.3646816672	-0.179594
O	-1.4004775965	-0.9127761754	 1.3420548343	-0.235984
O	 1.181700355	 2.1100585001	-0.6257092141	-0.251508
C	 1.4003741099	 3.433888557	-0.2535838299	 0.148403
C	 2.0643486993	 3.7288947553	 1.0680910179	-0.286882
C	 2.8208105405	 3.8930760783	-0.236654528	-0.287361
H	-0.8821410837	 2.1420321213	-0.4128078444	 0.083494
H	 0.0173609172	 1.6074519183	 1.0204065579	 0.110007
H	-0.1005719353	 0.0900199188	-1.6401194321	 0.110881
H	 0.7570712558	-0.4437220029	-0.1905039622	 0.111791
H	-2.3102974636	-0.0955621457	-0.3875633978	 0.091027
H	-2.3497646277	-2.5136369255	 0.29238159	 0.114232
H	-0.5110712018	-2.5541615833	 0.3047957755	 0.114089
H	 0.6351331799	 4.1291603586	-0.6030145281	 0.080783
H	 1.7667591928	 4.6148133154	 1.6182206367	 0.112233
H	 2.3281734539	 2.876290336	 1.6838643383	 0.120763
H	 3.5695216143	 3.1447351142	-0.4696444126	 0.124837
H	 3.0474562138	 4.8918875021	-0.591935826	 0.113115
42.7375	49.5682	93.603	117.2266	146.8101	227.8253	290.93	398.5901	409.3324	469.4936	513.8854	756.0267	778.29	814.6522	821.2774	834.1544	879.4059	946.302	968.9128	977.7142	1022.1723	1048.4005	1070.2655	1072.7596	1090.5261	1119.1478	1129.6873	1157.1479	1159.9644	1180.0949	1193.5434	1205.6692	1240.7648	1245.0441	1290.5464	1306.4873	1310.7319	1379.9674	1435.003	1451.3906	1453.049	1477.6542	1498.2243	1527.2006	1531.4875	2958.7403	3015.7394	3039.2862	3078.2923	3082.6003	3084.9764	3096.9847	3135.2896	3142.1817	3167.3603	3219.7648	3234.6064
C(CC1CO1)OC1CC1	C(C[C@H]1CO1)OC1CC1	
InChI=1S/C7H12O2/c1-2-6(1)8-4-3-7-5-9-7/h6-7H,1-5H2	InChI=1S/C7H12O2/c1-2-6(1)8-4-3-7-5-9-7/h6-7H,1-5H2/t7-/m0/s1
