20
gdb 68849	2.4379	1.7883	1.40912	1.3881	77.84	-0.2278	0.0703	0.2981	1013.4994	0.17119	-403.115496	-403.107194	-403.10625	-403.147666	33.209	
C	-0.051868448	 1.5121836789	 0.098256858	-0.481323
C	-0.031192768	 0.003315665	 0.0828137376	 0.28872
C	 1.275141248	-0.7223296122	-0.2173049999	-0.403847
C	 0.6602823365	-0.8022350448	 1.156923841	 0.355749
O	 1.2605528373	-0.1477565543	 2.2341724596	-0.47074
C	-0.1921460352	-2.0134756332	 1.4156913192	-0.09446
C	-1.5528134592	-1.7438343484	 1.9375632244	-0.248296
N	-1.3571998492	-2.0073479697	 0.5048055289	-0.09534
C	-1.2927428059	-0.7668704823	-0.3123584368	-0.240172
H	 0.8548195982	 1.9064146038	 0.564866554	 0.12842
H	-0.1204939699	 1.9199879945	-0.9165773995	 0.116084
H	-0.9092746948	 1.8891083839	 0.6672744053	 0.116209
H	 1.2624349298	-1.6015068327	-0.8554856096	 0.114334
H	 2.1558931514	-0.0954086067	-0.3147479993	 0.109265
H	 2.0939991127	-0.5895177043	 2.4278961991	 0.284693
H	 0.2862695219	-2.9772363116	 1.5787325914	 0.084839
H	-2.0960146554	-2.5177727809	 2.4717530935	 0.113663
H	-1.7738757058	-0.7259766399	 2.2529603651	 0.116113
H	-2.1952565725	-0.1667444694	-0.146808947	 0.102139
H	-1.2815395719	-1.0558419257	-1.369883835	 0.103949
142.9554	191.0319	204.8541	217.0584	265.3991	341.9128	388.6183	423.6018	455.1046	509.2884	553.2986	642.0725	701.0591	768.3206	787.9226	862.8794	895.3197	919.4917	940.7693	972.7883	985.4782	1025.9828	1042.0619	1046.9724	1080.8947	1105.3388	1121.7906	1154.9179	1176.7885	1223.1824	1248.4863	1273.7722	1281.1928	1298.3749	1349.2713	1386.9602	1406.5304	1416.7821	1479.8351	1490.0519	1497.8269	1503.3625	1510.4784	3023.0469	3028.6365	3061.4713	3085.2637	3100.8093	3113.5186	3116.0386	3123.039	3189.9726	3207.6264	3804.1729
CC12CC1(O)C1CN1C2	C[C@@]12C[C@]1(O)[C@H]1CN1C2	
InChI=1S/C7H11NO/c1-6-3-7(6,9)5-2-8(5)4-6/h5,9H,2-4H2,1H3	InChI=1S/C7H11NO/c1-6-3-7(6,9)5-2-8(5)4-6/h5,9H,2-4H2,1H3/t5-,6+,7+,8?/m1/s1
