17
gdb 44494	4.33211	1.42194	1.22687	2.1276	73.64	-0.2518	0.0192	0.271	1005.9644	0.13932	-417.956634	-417.950084	-417.94914	-417.98792	26.595	
N	-0.0447592734	 1.2206455899	-0.5815525824	-0.517799
C	-0.0108911055	 0.0770455116	-0.0445679701	 0.389962
C	-1.2728942407	-0.7219369209	 0.2133469997	-0.338719
C	-1.0080214275	-2.066590823	 0.8656705624	 0.020218
C	 0.0469854612	-2.1201534919	 2.0080948702	-0.087459
N	 0.2105682917	-3.5905895176	 1.6887321255	-0.318891
C	 0.1988440339	-2.8980181317	 0.3429440676	-0.08745
C	 1.1157573273	-1.7895341626	 0.9299278885	 0.126631
O	 1.168649823	-0.5050464301	 0.3347130106	-0.262609
H	 0.9014443569	 1.5965567281	-0.6707771489	 0.219876
H	-1.9377698666	-0.114605622	 0.8366706807	 0.142783
H	-1.7935581733	-0.8517943558	-0.7413782818	 0.142779
H	-1.9082713377	-2.6529790127	 1.0574934547	 0.091119
H	-0.0349111462	-1.7505039442	 3.0309597664	 0.089448
H	 1.1672745573	-3.8866217047	 1.914272044	 0.210913
H	 0.2958378949	-3.4447347973	-0.5958283202	 0.089445
H	 2.1474067846	-2.0696566652	 1.154868633	 0.089755
58.4332	247.5162	392.7675	396.4345	447.0185	469.3621	539.0196	634.6652	755.2185	775.8665	814.5776	815.0656	874.8053	891.3247	904.1412	911.6893	978.9195	995.6187	1034.2623	1036.9925	1078.821	1124.0396	1125.766	1156.5907	1166.0404	1178.6788	1183.4181	1256.4513	1256.5897	1289.1701	1300.0722	1303.4603	1333.0934	1392.4263	1418.5764	1467.3091	1758.0502	3051.9373	3084.1352	3093.5475	3101.7839	3110.0124	3118.3438	3366.8233	3465.5282
N=C1CC2C3NC2C3O1	[NH][C]1C[C@@H]2[C@H]3N[C@@H]2[C@H]3O1	
InChI=1S/C6H8N2O/c7-3-1-2-4-6(9-3)5(2)8-4/h2,4-8H,1H2	InChI=1S/C6H8N2O/c7-3-1-2-4-6(9-3)5(2)8-4/h2,4-8H,1H2/t2-,4-,5+,6+
