14
gdb 31184	2.90546	1.32274	0.91423	6.7175	69.08	-0.2372	-0.0353	0.2019	1192.8128	0.100268	-473.849553	-473.841382	-473.840438	-473.883259	28.145	
C	 0.0228904637	 1.4389819185	-0.0615443764	-0.255874
O	 0.0180661311	 0.0043635492	-0.0279011006	-0.254468
C	 0.5887396512	-0.6387563915	-1.0290153882	 0.417786
C	 0.7373676122	-1.9836747972	-1.2739002009	 0.01349
C	 0.2739383728	-3.0829457185	-0.4401448013	 0.075352
O	 0.4198054409	-4.2593196371	-0.682806661	-0.27699
N	 1.4242757016	-2.1153953571	-2.4864701823	-0.271349
C	 1.6399245077	-0.9192676752	-2.8838482475	 0.061273
O	 1.1532734874	 0.0616750326	-2.0366447137	-0.197239
H	 1.0469443259	 1.8221598724	-0.0659054256	 0.149609
H	-0.5097451472	 1.8067692794	-0.9427985876	 0.149557
H	-0.4916018351	 1.7509565897	 0.8462959356	 0.155749
H	-0.2496134319	-2.7398603753	 0.4799616618	 0.071453
H	 2.1388983798	-0.56475486	-3.7709963921	 0.161649
52.7064	145.971	149.9836	160.2072	242.9636	254.5629	347.1274	398.4214	577.3436	660.805	686.5639	725.1638	802.7903	813.1399	931.3989	1015.181	1029.8237	1049.5504	1130.2636	1175.0267	1200.3302	1276.728	1311.9493	1411.7384	1441.938	1487.7375	1493.0592	1499.1427	1590.7968	1647.8681	1796.2316	2880.4437	3047.3396	3123.2309	3168.577	3286.4726
COC1=C(C=O)N=CO1	COc1c(C=O)nco1	
InChI=1S/C5H5NO3/c1-8-5-4(2-7)6-3-9-5/h2-3H,1H3	InChI=1S/C5H5NO3/c1-8-5-4(2-7)6-3-9-5/h2-3H,1H3
