15
gdb 47154	3.32632	1.13479	0.85502	4.0955	71.9	-0.2608	-0.0378	0.223	1257.4622	0.113564	-416.87528	-416.867043	-416.866099	-416.909181	29.304	
O	-0.2007896347	 0.0657112706	-0.8708900753	-0.387157
C	-0.1270461023	 1.180507236	-0.3951715511	 0.376924
N	-1.0857673189	 2.1632406911	-0.4054012134	-0.343056
C	-0.6628316267	 3.3753234709	 0.2589557436	-0.208952
C	 0.7324841719	 3.0253451455	 0.7070325889	-0.18857
C	 1.0348457277	 1.780339003	 0.3359287163	 0.202077
C	 2.2767303824	 0.9625275026	 0.5325862698	-0.444296
C	 3.3244326729	 1.6722025436	 1.261092528	 0.268711
N	 4.1378163666	 2.2542217671	 1.8390970865	-0.310799
H	-1.9846571166	 2.0293871671	-0.8356872061	 0.260571
H	-0.6624091301	 4.2429172828	-0.4164619938	 0.135485
H	-1.3071722907	 3.6297152156	 1.1127946339	 0.135521
H	 1.3626424117	 3.7172511091	 1.2501983711	 0.143033
H	 2.0269370322	 0.0346826794	 1.0622593041	 0.180282
H	 2.6634645047	 0.6394386555	-0.4420494924	 0.180227
40.5243	111.36	123.1345	231.7305	241.5918	377.0789	408.9872	423.4183	440.7896	569.0136	647.7463	748.2093	783.9173	831.7832	848.1687	939.257	961.1116	962.3304	1015.7023	1069.8965	1133.498	1186.6283	1217.6655	1232.291	1273.8139	1342.1913	1382.4495	1425.104	1446.3245	1497.3347	1713.361	1817.4928	2368.1094	3003.0938	3026.015	3039.7881	3065.1231	3228.2453	3674.4098
O=C1NCC=C1CC#N	O=C1NCC=C1CC#N	
InChI=1S/C6H6N2O/c7-3-1-5-2-4-8-6(5)9/h2H,1,4H2,(H,8,9)	InChI=1S/C6H6N2O/c7-3-1-5-2-4-8-6(5)9/h2H,1,4H2,(H,8,9)
