16
gdb 51748	2.41682	1.30307	0.92617	3.0095	72.81	-0.2632	0.0032	0.2663	1237.1916	0.122038	-437.812498	-437.803455	-437.802511	-437.848037	31.454	
N	-0.0627645367	 1.2652144345	-0.0216516681	-0.434034
C	-0.0901507145	 0.0084957093	-0.0988634947	 0.12831
O	-1.0405291523	-0.6846577002	 0.570665329	-0.17966
C	-1.0422643211	-2.0815558698	 0.4191171728	 0.072609
C	-2.0022124742	-2.786442385	 1.3827293303	-0.103683
O	-2.6901147684	-3.439557503	 0.2939908808	-0.270948
C	-1.9386493221	-2.706612048	-0.7063164179	-0.122909
C	-2.7323906609	-1.7845233129	-1.4951764476	 0.35411
C	-3.3723601364	-1.014827836	-2.1598678823	-0.430219
H	 0.7155052511	 1.6313264261	-0.5658494236	 0.233243
H	 0.6032978986	-0.6315467256	-0.6613393602	 0.088528
H	-0.021273348	-2.476036116	 0.4111466365	 0.101857
H	-1.5615453018	-3.5034420282	 2.0824567677	 0.114637
H	-2.6475419339	-2.0841598378	 1.9220367702	 0.131713
H	-1.4005035586	-3.4010583715	-1.3640254835	 0.10791
H	-3.943310521	-0.3307574659	-2.7383729095	 0.208538
32.6983	59.488	91.9574	143.257	205.6023	232.0712	340.7419	411.6975	513.9861	543.0803	632.4667	647.4004	685.4346	806.7968	813.614	827.2352	919.9744	970.3903	1017.8173	1036.9114	1043.5906	1073.6304	1106.3307	1158.6801	1183.636	1240.3953	1263.2859	1286.3377	1341.4365	1352.482	1397.1978	1428.8675	1515.5224	1751.5289	2237.4214	3021.2914	3023.1055	3037.9343	3057.3035	3092.7397	3501.6856	3521.2761
N=COC1COC1C#C	[NH][CH]O[C@H]1CO[C@H]1C#C	
InChI=1S/C6H7NO2/c1-2-5-6(3-8-5)9-4-7/h1,4-7H,3H2	InChI=1S/C6H7NO2/c1-2-5-6(3-8-5)9-4-7/h1,4-7H,3H2/t5-,6-/m0/s1
