22
gdb 115398	2.41682	1.21213	0.89181	2.7705	85.27	-0.2386	0.0348	0.2733	1399.0723	0.194081	-404.382036	-404.372153	-404.371209	-404.417908	35.594	
C	 0.1615119152	 1.3347381985	 0.3695128804	-0.382867
C	-0.1003586045	-0.137609363	 0.0443743804	-0.181247
C	-1.5829983372	-0.45702271	-0.1537037793	 0.122512
C	-1.8871099092	-1.9539630628	-0.364927994	-0.250349
C	-2.1945611453	-2.4417355683	 1.0575825511	-0.318925
C	-2.7184511572	-1.196527646	 1.7388165317	 0.439128
O	-2.3326129426	-0.0893471292	 1.0259067707	-0.257741
N	-3.4063440794	-1.1696610941	 2.7931287537	-0.329314
C	-3.8249009662	 0.1159894498	 3.3310529383	-0.326942
H	 1.229472758	 1.5217376676	 0.5143354753	 0.113252
H	-0.1852060097	 1.9852954843	-0.4412414079	 0.114273
H	-0.365293228	 1.6283078573	 1.2809417015	 0.136121
H	 0.4269559934	-0.4208076924	-0.8755291296	 0.099259
H	 0.2996673124	-0.7759316561	 0.8428110414	 0.100553
H	-1.979350781	 0.1582560914	-0.9690329698	 0.084893
H	-2.76589875	-2.0711973309	-1.0056831203	 0.113264
H	-1.0543365702	-2.4793109895	-0.8373263067	 0.108438
H	-2.9218499433	-3.2519018843	 1.1112738235	 0.13321
H	-1.2882234519	-2.7807264175	 1.5718350034	 0.128272
H	-4.7842962394	-0.0079641453	 3.8423973347	 0.116701
H	-3.1024238964	 0.4637115873	 4.0811110048	 0.119614
H	-3.9235371776	 0.9013777533	 2.5720772667	 0.117894
37.5696	75.0019	102.3189	126.9852	202.5243	233.1821	255.1797	257.1293	385.6938	454.0362	486.1257	578.0784	667.3955	700.6788	784.9185	803.6868	842.8594	898.4662	962.5599	980.3777	1006.842	1021.3363	1052.759	1063.4797	1103.0659	1125.1735	1127.0611	1157.7157	1195.4219	1210.2052	1228.8184	1289.6839	1307.5824	1322.638	1337.9105	1379.3589	1404.1248	1412.1682	1438.7735	1475.8923	1482.2129	1490.0673	1496.6289	1500.0816	1501.599	1509.505	1799.3884	3009.1644	3020.6978	3037.9764	3039.8481	3051.9111	3059.0627	3064.6237	3067.7875	3091.9682	3103.9666	3112.5674	3125.4061	3132.3053
CCC1CCC(O1)=NC	CC[C@H]1CCC(=NC)O1	
InChI=1S/C7H13NO/c1-3-6-4-5-7(8-2)9-6/h6H,3-5H2,1-2H3	InChI=1S/C7H13NO/c1-3-6-4-5-7(8-2)9-6/h6H,3-5H2,1-2H3/t6-/m0/s1
