21
gdb 67035	2.05592	2.02888	1.59624	1.5227	81.5	-0.2305	0.0876	0.3181	1002.6912	0.182891	-387.078883	-387.070638	-387.069694	-387.110941	33.08	
C	 0.0013279436	 1.539537733	-0.0998015235	-0.523641
C	 0.0082631612	 0.0437916252	-0.0126973799	 0.313389
C	 0.4415979801	-1.0490348945	-0.9830763447	-0.130992
C	 1.236691433	-1.7714118649	 0.1032836531	-0.278627
C	 0.5127852332	-0.8625612358	 1.1581911548	 0.357414
C	 1.3154249557	-0.2839045094	 2.2961687672	-0.477875
O	-0.6402227135	-1.5210814581	 1.6839075921	-0.303262
C	-1.5110203379	-1.7957511201	 0.5829514764	-0.108802
C	-1.0135297456	-0.9101656065	-0.5520777813	-0.125044
H	 1.0027592463	 1.9612172166	 0.0450991565	 0.118052
H	-0.3565607401	 1.8715707766	-1.080167219	 0.119402
H	-0.6567457069	 1.981043613	 0.6580717041	 0.124333
H	 0.7240699602	-0.9470389681	-2.0251504532	 0.079537
H	 1.1022167449	-2.851395935	 0.2275694684	 0.092776
H	 2.3056271534	-1.5473388014	 0.0406133957	 0.096011
H	 2.1899510979	 0.2542966128	 1.9197210816	 0.115288
H	 0.7040366335	 0.4078225503	 2.8836254592	 0.124107
H	 1.6616758498	-1.0812132324	 2.9610296635	 0.12741
H	-1.4816949996	-2.8653169314	 0.3302242739	 0.094078
H	-2.5375989549	-1.5461289502	 0.8770075342	 0.100921
H	-1.7140409543	-0.5641531698	-1.3039360191	 0.085525
177.3643	196.2485	200.7037	212.1061	229.5928	325.454	340.391	443.5718	463.8172	571.2739	638.3114	664.176	740.2619	756.9437	826.5987	867.2038	883.7107	910.0262	933.7311	967.3414	987.6015	1010.6287	1044.4584	1074.6838	1083.4669	1102.2251	1133.0346	1137.6603	1193.2107	1210.9774	1218.4634	1231.0933	1253.4045	1309.7436	1328.5638	1371.3247	1410.0987	1415.3828	1453.3242	1480.6444	1487.7053	1492.0773	1494.2118	1500.0259	1528.2187	2997.1893	3020.123	3036.9817	3040.9595	3044.9264	3077.8608	3091.5148	3092.0548	3111.2685	3117.3313	3167.4548	3181.0142
CC12C3CC1(C)OCC23	C[C@@]12[C@H]3C[C@]1(C)OC[C@@H]23	
InChI=1S/C8H12O/c1-7-3-5-6(4-9-7)8(5,7)2/h5-6H,3-4H2,1-2H3	InChI=1S/C8H12O/c1-7-3-5-6(4-9-7)8(5,7)2/h5-6H,3-4H2,1-2H3/t5-,6+,7-,8-/m0/s1
