19
gdb 54978	3.2044	1.07176	1.02073	3.2297	77.12	-0.2432	-0.0181	0.2252	1265.9687	0.157536	-423.011538	-423.00248	-423.001536	-423.046053	32.806	
C	-0.0105331111	 1.485013366	-0.0292184495	-0.484242
C	 0.0799139671	-0.0266458414	 0.0343028696	 0.39415
O	 0.1458233552	-0.6262343996	 1.0891006773	-0.331523
C	 0.0689273753	-0.7521359686	-1.2694049374	-0.198596
C	 0.8295554141	-2.0749500445	-1.3454563496	-0.346437
C	-0.6471197013	-2.0914839275	-1.3213199079	 0.303933
C	-1.5969543755	-2.6892919996	-0.2893437906	-0.127899
O	-2.4934616839	-3.1144770678	-1.3464930272	-0.277686
C	-1.6388574198	-2.5753288044	-2.373769867	-0.138913
H	 0.8267783441	 1.8904378625	-0.609011455	 0.141215
H	-0.9288829309	 1.7871495344	-0.5461419619	 0.141737
H	 0.000542419	 1.9029607977	 0.9778082094	 0.143314
H	 0.0323659317	-0.1444645767	-2.168350211	 0.089313
H	 1.3420325338	-2.2972971001	-2.2756698729	 0.12
H	 1.3478790398	-2.363991819	-0.4368415346	 0.141487
H	-1.2005947263	-3.5377968473	 0.2806703404	 0.109965
H	-2.0739100685	-1.985428833	 0.4000841279	 0.115549
H	-2.1389486962	-1.7941438209	-2.9620574904	 0.100712
H	-1.2658239267	-3.35299944	-3.0540994497	 0.103922
54.2506	103.0518	131.0011	141.7117	161.0212	303.6458	319.3763	370.471	404.0882	529.3117	597.6975	637.8995	781.9115	837.7455	868.4907	893.5971	936.1065	942.0159	968.5117	1020.7115	1026.2877	1033.889	1051.4932	1078.1897	1117.6263	1121.8348	1147.8635	1158.4338	1185.4514	1232.7531	1305.7477	1323.9755	1368.8201	1384.3451	1432.204	1462.6703	1474.7469	1485.6981	1509.5442	1533.0176	1782.6993	2996.7062	3030.4857	3033.1873	3037.2882	3078.6879	3092.6854	3127.5592	3153.3665	3157.7281	3222.5948
CC(=O)C1CC11COC1	CC(=O)[C@H]1CC21COC2	
InChI=1S/C7H10O2/c1-5(8)6-2-7(6)3-9-4-7/h6H,2-4H2,1H3	InChI=1S/C7H10O2/c1-5(8)6-2-7(6)3-9-4-7/h6H,2-4H2,1H3/t6-/m1/s1
