19
gdb 97141	4.51617	1.00497	0.91615	2.4411	79.34	-0.2415	0.0305	0.272	1326.2697	0.159881	-419.195318	-419.186557	-419.185613	-419.229874	31.961	
C	 0.0405455634	 1.4171338806	 0.0205206066	-0.331275
N	 0.054922002	-0.0376662558	 0.0101115424	-0.327379
C	 0.5899767003	-0.6462028771	-0.9517650401	 0.443422
C	 0.6883832175	-2.1523813182	-1.0921091948	-0.41312
C	 0.9645610604	-2.3287102402	-2.5738877159	 0.30207
C	 1.1843675064	-3.6253479353	-3.2434150247	-0.303744
N	-0.048252101	-2.8511291742	-3.5016010318	-0.342404
C	 1.649171166	-1.032004935	-2.9737435578	-0.123736
O	 1.1778814593	-0.0481467276	-2.0402693411	-0.252658
H	 0.790958832	 1.7857191392	 0.7310824955	 0.122985
H	 0.2393073356	 1.8748332914	-0.9551132623	 0.122764
H	-0.9344980177	 1.7586434307	 0.3826912971	 0.120516
H	 1.5273190808	-2.5182881195	-0.4871389639	 0.134224
H	-0.2174935771	-2.6465557944	-0.7368856271	 0.13248
H	 1.8616710444	-3.699166847	-4.0907436897	 0.122409
H	 1.1222743478	-4.526979166	-2.6388226903	 0.117755
H	-0.8258798261	-3.2538304226	-2.9832167497	 0.233075
H	 2.7418813817	-1.1001048943	-2.8934901514	 0.109574
H	 1.3760461246	-0.7205202248	-3.984180631	 0.133043
35.2622	64.4832	143.6928	207.0838	234.0538	287.4801	367.2821	384.284	454.0485	565.2509	582.8676	691.6846	784.8862	827.8725	863.2656	891.5509	936.8825	959.7774	990.3823	1028.1128	1059.5908	1067.5468	1086.2121	1128.4356	1132.8957	1149.498	1179.7207	1202.6025	1234.1403	1253.9954	1280.3965	1324.9901	1364.8965	1431.5102	1439.4576	1466.7749	1492.0932	1499.7072	1511.7345	1519.1429	1806.1957	3015.431	3021.8433	3037.0022	3073.0198	3091.978	3102.082	3110.7822	3118.1123	3184.8539	3492.7457
CN=C1CC2(CN2)CO1	CN=C1C[C@]2(CN2)CO1	
InChI=1S/C6H10N2O/c1-7-5-2-6(3-8-6)4-9-5/h8H,2-4H2,1H3	InChI=1S/C6H10N2O/c1-7-5-2-6(3-8-6)4-9-5/h8H,2-4H2,1H3/t6-/m0/s1
