14
gdb 34064	4.37055	1.43211	1.22074	2.5242	72.7	-0.2653	-0.0708	0.1945	966.5774	0.102127	-395.634305	-395.627701	-395.626756	-395.665219	25.777	
N	-0.0484392105	-1.128749619	-0.1600831333	-0.324648
C	-0.0244109555	 0.0252661998	-0.0821557078	 0.246172
C	-0.0134128748	 1.4542509468	 0.0771129471	 0.098661
C	-1.3639027159	 2.2663302564	 0.2425833358	-0.29389
C	-0.4311167349	 3.3407425456	-0.2675527395	 0.144244
N	 0.1320341599	 4.1436025808	 0.5413061086	-0.176766
C	 1.518577868	 3.6253256964	 0.6728951513	-0.190459
C	 1.3525895841	 2.2149502624	 0.0918300842	-0.077863
N	 0.4399120166	 2.3665067737	-1.0266204026	-0.137766
H	-2.0912910984	 1.8449312362	-0.4546344533	 0.153884
H	-1.7834573062	 2.4402790733	 1.2311834676	 0.151138
H	 2.2817207315	 4.1730341731	 0.1024676617	 0.137158
H	 1.7859064305	 3.6697548555	 1.7320944954	 0.140615
H	 2.2176579557	 1.5744868389	-0.0653226351	 0.129518
148.6999	158.7909	297.5596	371.0853	431.288	507.5834	537.4215	560.6373	674.0587	702.7094	759.953	841.1685	866.1077	874.1346	937.9314	956.1548	992.6848	1031.9092	1055.7937	1097.4497	1106.9884	1157.2804	1172.7858	1214.5456	1237.5225	1306.3966	1345.5753	1479.4607	1487.0058	1645.9268	2346.4587	3017.5437	3083.8937	3094.7513	3154.5083	3174.8859
N#CC12CC3=NCC1N23	N#C[C@@]12C[C]3[N]C[C@@H]1N23	
InChI=1S/C6H5N3/c7-3-6-1-5-8-2-4(6)9(5)6/h4H,1-2H2	InChI=1S/C6H5N3/c7-3-6-1-5-8-2-4(6)9(5)6/h4H,1-2H2/t4-,6-,9?/m0/s1
