17
gdb 54881	2.76033	1.5479	1.00414	4.9672	78.46	-0.221	-0.0096	0.2114	1149.3023	0.136004	-418.052945	-418.044573	-418.043628	-418.08645	31.147	
C	-0.0446120749	 1.5335192648	 0.0089658549	-0.506668
C	 0.0950732506	 0.016768152	 0.0017028058	 0.405602
O	 1.1717504689	-0.5251536955	-0.0094330371	-0.298877
N	-1.1137324202	-0.7002334234	 0.0090308678	-0.149536
C	-2.4041915023	-0.1206218915	 0.021167106	 0.013118
C	-3.3756923728	-1.0311520477	 0.0255940841	-0.169798
C	-2.7608462113	-2.4015434077	 0.0160096279	-0.370618
C	-1.2535345965	-2.1205293189	 0.0052631492	 0.362432
N	-0.2818837468	-2.9309345847	-0.0049068091	-0.475233
H	 0.9627985026	 1.9475972396	 0.0030586384	 0.152674
H	-0.5862645382	 1.8954474111	-0.8708867868	 0.142248
H	-0.5730810373	 1.8883352287	 0.8996493241	 0.142224
H	-2.496894113	 0.952899763	 0.025581376	 0.135606
H	-4.4342275127	-0.8209917757	 0.0345649135	 0.113744
H	-3.0270637788	-3.0001921335	 0.8959755532	 0.141103
H	-3.0407808696	-2.9939917259	-0.8639009459	 0.141108
H	-0.6384320675	-3.8877022147	-0.005318172	 0.22087
56.5719	87.9552	186.8177	212.7187	233.3048	363.9855	440.1536	459.265	504.7333	558.7094	606.8348	633.8611	697.5301	714.3053	841.0225	868.8772	898.7715	924.4552	975.9268	985.2123	1001.3312	1048.3059	1089.3822	1146.4472	1168.0571	1247.8325	1268.3715	1292.7282	1325.386	1384.5039	1416.801	1454.6368	1476.4397	1487.6531	1686.9781	1737.0029	1819.4162	3028.6675	3042.8608	3056.8251	3107.528	3164.4181	3247.6356	3282.613	3465.9212
CC(=O)N1C=CCC1=N	CC(=O)N1C=CC[C]1[NH]	
InChI=1S/C6H8N2O/c1-5(9)8-4-2-3-6(8)7/h2,4,7H,3H2,1H3	InChI=1S/C6H8N2O/c1-5(9)8-4-2-3-6(8)7/h2,4,7H,3H2,1H3
