19
gdb 14956	3.90044	1.54121	1.222	3.9533	73.35	-0.2367	0.0334	0.2701	1014.9529	0.168576	-365.112825	-365.105424	-365.10448	-365.144676	28.332	
O	-0.0959390116	-0.0349030538	-0.1047479239	-0.345538
C	-0.0141297007	 1.1757953587	-0.0642936782	 0.146234
N	 1.1417351474	 1.894826096	-0.0497556484	-0.031803
C	 2.4386239141	 1.2275255523	-0.0718621843	-0.168928
C	 3.3009241221	 1.6807031919	 1.1128339782	-0.19223
C	 3.3929809055	 3.2128319726	 1.1740069973	-0.191242
C	 1.9923043868	 3.8440487737	 1.191870827	-0.186668
C	 1.1585536272	 3.3466088647	 0.0027471106	-0.170485
H	-0.9040721493	 1.8362746408	-0.0309972296	 0.067593
H	 2.2451447857	 0.1541807566	-0.0546174194	 0.145904
H	 2.949790334	 1.4674372588	-1.0166352576	 0.101516
H	 2.8571470114	 1.29995205	 2.0410150938	 0.109206
H	 4.2983058856	 1.2363084194	 1.0263403952	 0.099751
H	 3.9639341856	 3.5281032456	 2.0535545416	 0.099317
H	 3.9430526841	 3.578975252	 0.2956736015	 0.096068
H	 1.4779928513	 3.5755035477	 2.1231296517	 0.105199
H	 2.057302713	 4.9371102874	 1.1595119835	 0.098798
H	 1.5840348794	 3.7433907814	-0.9323607843	 0.104063
H	 0.1260980385	 3.7037543441	 0.0668482654	 0.113243
65.5086	190.1686	243.2252	302.9358	323.1293	390.1598	410.4954	457.649	542.6315	660.4134	802.785	819.6289	855.5319	862.7272	916.0788	970.9678	1005.9046	1029.8351	1041.7403	1075.6316	1137.207	1156.9051	1183.1106	1227.9831	1282.8919	1288.2331	1305.4283	1355.8022	1376.4504	1379.2381	1385.839	1404.052	1435.0661	1461.1924	1478.3688	1485.1983	1488.4765	1489.8278	1502.7417	1791.1754	2926.0974	2982.9542	2992.0946	3012.6062	3028.8119	3032.5976	3070.7351	3075.9429	3079.7712	3082.582	3129.6499
O=CN1CCCCC1	O=CN1CCCCC1	
InChI=1S/C6H11NO/c8-6-7-4-2-1-3-5-7/h6H,1-5H2	InChI=1S/C6H11NO/c8-6-7-4-2-1-3-5-7/h6H,1-5H2
