18
gdb 65244	2.69763	1.44306	1.10821	2.0277	72.22	-0.2469	0.0244	0.2712	1114.6315	0.146629	-439.060686	-439.051919	-439.050974	-439.094477	32.608	
O	-0.0646656252	 1.3318191087	 0.4832411996	-0.479013
C	 0.0537171735	-0.0039083108	 0.0558907844	 0.41238
C	 1.1637079065	-0.3976277405	-0.8824965164	-0.340481
C	 1.1661521018	-0.8730751274	 0.5647955253	-0.331836
C	-1.3407876188	-0.5551864958	-0.0973808333	-0.171488
C	-2.1857631945	-0.0460514516	-1.286269622	-0.093929
O	-2.2901411014	-1.4162662107	-1.7992831317	-0.255998
C	-1.5140941253	-1.9023088798	-0.7732163475	 0.4263
N	-1.1097450241	-3.0660272853	-0.5333493964	-0.547106
H	 0.816674334	 1.6962442113	 0.6108548913	 0.284126
H	 0.9752685817	-1.1337060572	-1.6560655216	 0.13157
H	 1.8692513397	 0.3774579437	-1.1657823181	 0.105197
H	 1.8792589086	-0.4206280718	 1.2474906285	 0.105264
H	 0.9556036989	-1.9211071634	 0.7464165537	 0.155922
H	-1.8617397544	-0.492259533	 0.8619915173	 0.117699
H	-3.1723865656	 0.3580635056	-1.052761226	 0.123247
H	-1.6599742855	 0.5961953699	-1.9953729614	 0.129041
H	-1.43485197	-3.7271741418	-1.2409793656	 0.229105
65.237	111.9676	144.9179	154.5963	233.7869	322.6683	330.4829	385.3687	483.4896	516.0651	610.099	711.9028	753.8448	773.0956	865.8708	878.676	890.0221	947.5205	953.0542	965.2367	980.9082	1023.1218	1053.7818	1065.911	1077.9682	1089.9877	1153.653	1168.4398	1188.1426	1219.4357	1246.5299	1278.9572	1340.8966	1375.0904	1434.3278	1455.2056	1499.4051	1515.7334	1816.0601	3074.2671	3079.0561	3124.7297	3128.0252	3138.1384	3211.1907	3224.469	3475.1987	3826.1988
OC1(CC1)C1COC1=N	OC1(CC1)[C@H]1CO[C]1[NH]	
InChI=1S/C6H9NO2/c7-5-4(3-9-5)6(8)1-2-6/h4,7-8H,1-3H2	InChI=1S/C6H9NO2/c7-5-4(3-9-5)6(8)1-2-6/h4,7-8H,1-3H2/t4-/m0/s1
