22
gdb 89562	4.97102	0.88738	0.87402	0.9111	83.99	-0.2136	0.0787	0.2923	1459.6987	0.193149	-404.314514	-404.305277	-404.304333	-404.348758	34.952	
C	 0.4534072829	 1.6084924581	 0.102221883	-0.397533
C	-0.0662423434	 0.1981981793	-0.0864097427	 0.156918
C	 0.4810093292	-0.6390187442	-1.2631197889	-0.368551
C	 0.9698178722	-1.6032174098	-0.1694568156	 0.43717
C	 0.5473664346	-3.0895803288	-0.1481450265	-0.236507
N	 1.9198760129	-3.443586005	-0.5599264806	-0.073137
C	 2.5209213243	-4.6345510676	-0.0037787062	-0.315312
C	 2.4186264601	-2.1286969309	-0.1116576781	-0.235501
O	 0.5060201712	-0.7354891861	 0.8695787822	-0.326442
H	 1.5441541951	 1.6358081698	 0.0153679298	 0.118266
H	 0.02560381	 2.2777259441	-0.6525778638	 0.115588
H	 0.1782754086	 1.9886761507	 1.0911106234	 0.127223
H	-1.1621286211	 0.1856796771	-0.0135135773	 0.075368
H	-0.2590050357	-1.0424661266	-1.9562527823	 0.110541
H	 1.279718704	-0.1539250183	-1.8295690596	 0.108244
H	 0.300638138	-3.3971707888	 0.88199867	 0.091863
H	-0.246604266	-3.4227361588	-0.8265668763	 0.09572
H	 1.9887563858	-5.522322987	-0.3621720124	 0.119002
H	 3.5628328227	-4.7137336085	-0.3324001203	 0.118979
H	 2.5087213693	-4.6512017443	 1.103279492	 0.090118
H	 3.1717057778	-1.6655879567	-0.7596993652	 0.095683
H	 2.7804309273	-2.1234655175	 0.9304848553	 0.0923
50.4093	78.0428	214.5642	228.2805	240.6835	279.442	299.8437	346.24	378.6984	416.0527	452.552	505.8472	710.342	779.8024	855.8652	874.3609	915.0689	918.5722	944.2522	957.5526	982.5028	993.8954	1072.057	1106.6233	1109.7936	1114.2999	1141.7206	1172.7549	1194.5131	1205.7567	1224.1002	1230.8557	1247.7231	1295.807	1300.0178	1323.9794	1350.4377	1391.9045	1410.4816	1451.0228	1482.0315	1484.8992	1489.06	1491.2308	1496.3582	1499.0207	1521.1965	2921.0284	2959.5996	2971.3465	3008.332	3031.8779	3048.9312	3049.8449	3054.3136	3069.4262	3095.628	3104.3299	3111.1608	3126.136
CC1CC2(CN(C)C2)O1	C[C@H]1CC2(CN(C)C2)O1	
InChI=1S/C7H13NO/c1-6-3-7(9-6)4-8(2)5-7/h6H,3-5H2,1-2H3	InChI=1S/C7H13NO/c1-6-3-7(9-6)4-8(2)5-7/h6H,3-5H2,1-2H3/t6-/m0/s1
