17
gdb 94920	2.14473	1.8069	1.43891	1.1095	73.12	-0.2361	0.0318	0.2679	982.0505	0.135816	-421.77063	-421.762609	-421.761665	-421.803043	31.214	
O	 0.3220903543	 1.1338674131	-0.6158152263	-0.435337
C	 0.036087095	-0.1082980946	-0.012504271	 0.088677
C	 0.4184248107	-0.1733315462	 1.4965364269	-0.119118
O	-0.6283052418	-0.8524179917	 2.1978150256	-0.254988
C	-1.7372265288	-0.9808815448	 1.3651727647	 0.099091
C	-2.4141703977	 0.2794330664	 0.8207802394	-0.279387
C	-2.117634519	 1.5939797578	 1.3068868049	 0.323723
C	-1.8893824411	 2.707955174	 1.7054153723	-0.443012
C	-1.4271193648	-0.5416481311	-0.0242375972	-0.137441
H	-0.2167376326	 1.8015179128	-0.1713953671	 0.287855
H	 0.6162525241	-0.8400947931	-0.5828103695	 0.099344
H	 1.3497655997	-0.7199230496	 1.6728889453	 0.112236
H	 0.5328193087	 0.8454522493	 1.8811128382	 0.115584
H	-2.3551247457	-1.8342771679	 1.6206422829	 0.113898
H	-3.4532776601	 0.1355734151	 0.5357438216	 0.121512
H	-1.696314909	 3.6823825128	 2.0816026925	 0.204048
H	-1.8165768618	-1.0399430723	-0.9033725432	 0.103314
112.3885	124.308	156.1328	247.8301	342.8343	386.6906	445.5548	468.2598	575.2469	584.3766	625.7747	661.9215	706.1024	715.7752	748.4576	782.3628	873.6531	939.9783	974.7046	1001.1021	1010.8962	1053.1596	1074.58	1105.088	1119.1772	1155.6297	1197.7789	1217.0285	1285.6139	1307.2989	1318.3055	1352.7797	1378.2264	1414.6351	1453.6601	1516.0165	2221.9739	3044.9733	3062.5304	3092.3089	3138.9691	3176.5738	3189.8534	3498.5203	3757.3899
OC1COC2C(C#C)C12	O[C@H]1CO[C@H]2[C@@H](C#C)[C@@H]12	
InChI=1S/C7H8O2/c1-2-4-6-5(8)3-9-7(4)6/h1,4-8H,3H2	InChI=1S/C7H8O2/c1-2-4-6-5(8)3-9-7(4)6/h1,4-8H,3H2/t4-,5-,6-,7-/m0/s1
