21
gdb 82566	3.18219	1.30546	1.13093	2.0907	81.71	-0.2414	0.0725	0.3139	1161.2862	0.182946	-387.036791	-387.028423	-387.027479	-387.069944	32.346	
C	-0.0372297332	 1.5508771943	-0.0235834129	-0.418796
C	 0.0630156313	 0.0431188993	 0.0842886026	-0.000569
C	 1.2876971758	-0.7773659106	-0.2139033168	-0.067835
C	 2.5668735559	-0.0830619412	 0.272853313	-0.323321
C	 1.9863925772	-0.0505432731	 1.7187275411	 0.307629
C	 2.7849435635	-0.7117020814	 2.8620602709	-0.134693
O	 2.7606261996	 0.4949415831	 3.6478370119	-0.277362
C	 1.9978994348	 1.1883165789	 2.6399398702	-0.136028
C	 0.7107064805	-0.723136084	 1.2107070642	-0.150656
H	 0.8827380943	 2.0561797374	 0.2808678273	 0.123035
H	-0.2463941168	 1.8505759995	-1.0565110903	 0.116619
H	-0.8485210478	 1.9351970152	 0.6041926796	 0.118472
H	-0.8404042654	-0.462519817	-0.2540684707	 0.086366
H	 1.2653021611	-1.5984228539	-0.9204805741	 0.084356
H	 3.4480697897	-0.727331248	 0.2117183361	 0.104567
H	 2.812582983	 0.8797729419	-0.1877853422	 0.097204
H	 2.2780610606	-1.5435898314	 3.3703681222	 0.09719
H	 3.8084730552	-1.0205135721	 2.6090688102	 0.095418
H	 2.5339374901	 2.0654815424	 2.252208987	 0.09612
H	 1.0164783675	 1.5072246717	 3.0142620755	 0.10002
H	 0.1708849333	-1.486758301	 1.7610736852	 0.082264
68.3288	113.0065	183.3065	200.3048	275.8032	339.6097	349.8298	449.8422	464.3468	596.7652	720.5903	773.4373	816.6427	851.8275	856.6093	892.5489	930.1043	961.5309	982.1958	990.7527	995.7858	1008.3756	1040.8503	1059.0131	1077.996	1110.7311	1142.4705	1153.64	1163.2835	1194.1788	1198.8899	1215.8617	1229.3926	1253.5351	1308.438	1310.63	1352.1042	1383.7741	1415.9975	1442.1832	1484.0057	1498.2968	1503.4757	1505.0802	1531.7042	2989.4056	3002.7489	3033.2478	3035.3959	3041.0487	3042.7007	3089.8226	3094.6253	3109.5395	3126.7565	3160.2987	3181.1985
CC1C2CC3(COC3)C12	C[C@H]1[C@H]2CC3(COC3)[C@@H]12	
InChI=1S/C8H12O/c1-5-6-2-8(7(5)6)3-9-4-8/h5-7H,2-4H2,1H3	InChI=1S/C8H12O/c1-5-6-2-8(7(5)6)3-9-4-8/h5-7H,2-4H2,1H3/t5-,6+,7-/m0/s1
