18
gdb 77595	2.73624	1.43445	1.2151	2.6373	72.47	-0.23	0.0643	0.2943	1077.0509	0.146544	-439.012409	-439.003793	-439.002849	-439.04525	33.238	
O	 0.0293679557	 1.4041271317	-0.0836875388	-0.433877
C	-0.0082283684	-0.0013869037	 0.0362818034	-0.058222
C	 0.2757778557	-0.6810545364	 1.3858772478	 0.361137
O	 1.5046877938	-1.235695779	 1.7029871731	-0.466997
C	-0.7667588389	-0.3525169139	 2.4114135448	-0.351797
C	-1.0918269863	-1.3707880279	 1.3368410889	-0.20273
C	-1.4183885761	-0.6139635085	 0.0677314263	 0.382771
C	-2.6699478744	 0.0327252733	-0.3730296027	-0.302173
N	-2.1381016452	-1.1625645471	-1.0711513576	-0.391717
H	 0.9443033018	 1.6751976213	-0.209343756	 0.285341
H	 0.6023408525	-0.4900940447	-0.7382427878	 0.079437
H	 1.9235211508	-0.6853477435	 2.3725936034	 0.287955
H	-0.5708374197	-0.7794029568	 3.3905944946	 0.11205
H	-1.2598536909	 0.6160762668	 2.4201535984	 0.121442
H	-1.3539678109	-2.3976800994	 1.553374707	 0.107018
H	-3.593839819	-0.1349413554	 0.1738283687	 0.11669
H	-2.5869770979	 1.0008362497	-0.8590265772	 0.123931
H	-1.6847826125	-0.8843451265	-1.9392369064	 0.22974
96.3118	186.7085	209.0221	221.8105	256.2179	272.8597	289.5492	379.8451	468.1826	486.639	526.2807	606.3885	728.6789	755.3537	834.2759	863.4565	920.3544	930.6869	943.7021	981.943	982.223	992.7182	1041.6954	1077.6595	1084.2941	1118.8085	1126.9158	1176.8882	1197.7136	1214.6227	1259.9966	1273.4329	1301.7968	1326.174	1394.6113	1408.0101	1448.3901	1489.8476	1517.6423	2992.5847	3108.96	3111.371	3198.4625	3201.3069	3213.0966	3483.29	3807.7644	3816.6864
OC1C2(O)CC2C11CN1	O[C@H]1[C@@]2(O)C[C@H]2[C@]21CN2	
InChI=1S/C6H9NO2/c8-4-5(2-7-5)3-1-6(3,4)9/h3-4,7-9H,1-2H2	InChI=1S/C6H9NO2/c8-4-5(2-7-5)3-1-6(3,4)9/h3-4,7-9H,1-2H2/t3-,4+,5-,6+/m0/s1
