18
gdb 32925	5.99225	0.80168	0.71848	2.8885	77.43	-0.1926	0.0347	0.2272	1578.8803	0.148482	-435.298199	-435.288974	-435.28803	-435.332858	33.306	
C	 0.1025482863	 1.5172536391	-0.0478020788	-0.397474
C	-0.1124817771	 0.0108818702	-0.1428108648	-0.109332
N	 0.694138892	-0.5543224801	-1.2191192192	-0.403684
C	 0.7990516444	-1.9112697844	-1.3283997805	 0.508414
N	 0.4985155922	-2.8086438579	-0.4351987079	-0.364395
C	 0.8704550544	-4.005794843	-1.043236625	-0.116696
C	 1.367349551	-3.7854095204	-2.2773071632	 0.25523
N	 1.8590047271	-4.6098452226	-3.2798034034	-0.604196
O	 1.3228565939	-2.3881119651	-2.4776685807	-0.23513
H	 1.1543863896	 1.7516182305	 0.1394943595	 0.130407
H	-0.1990183923	 2.0219768283	-0.9732583281	 0.113294
H	-0.4972227191	 1.9351917904	 0.765374746	 0.125354
H	 0.1923513659	-0.4851615097	 0.7821012667	 0.143871
H	-1.1805345314	-0.2164975921	-0.2807965901	 0.103919
H	 0.6551398457	-0.0706702228	-2.1045692897	 0.243684
H	 0.7493729274	-4.956499764	-0.5485063598	 0.117203
H	 1.3084534691	-4.5712219652	-4.1319008833	 0.244227
H	 2.8256382808	-4.4105403413	-3.5173258278	 0.245304
46.0385	86.3998	130.4208	182.0486	221.7498	266.1216	323.3892	344.6851	371.6381	477.8825	528.7573	612.0957	699.2729	757.5014	761.1353	791.2231	816.7256	872.7986	911.5699	950.9822	1011.4658	1084.8261	1148.9719	1151.4489	1181.3618	1202.6252	1214.9929	1269.4447	1291.2729	1327.5027	1396.9048	1416.625	1491.9445	1498.4693	1521.7916	1530.7215	1647.3252	1656.8977	1715.2692	2989.9549	3033.8514	3089.168	3109.8343	3123.2788	3264.6928	3491.3888	3555.5768	3606.0353
CCNC1=NC=C(N)O1	CCNc1ncc(N)o1	
InChI=1S/C5H9N3O/c1-2-7-5-8-3-4(6)9-5/h3H,2,6H2,1H3,(H,7,8)	InChI=1S/C5H9N3O/c1-2-7-5-8-3-4(6)9-5/h3H,2,6H2,1H3,(H,7,8)
