25
gdb 121358	2.2901	1.1314	0.90573	0.9328	89.32	-0.2437	0.0782	0.3218	1467.3646	0.228973	-389.511405	-389.501027	-389.500083	-389.547689	38.063	
C	-0.3092306011	 1.5032492966	-0.6213585538	-0.384135
C	-0.1225992332	 0.035833674	-0.2707870548	-0.032965
O	 0.6360355868	-0.5739487123	-1.2933533848	-0.262585
C	 0.9292051364	-1.9504205329	-1.0842142751	 0.13411
C	-0.2488579979	-2.8593649327	-1.4942584024	-0.230644
C	-0.0724941725	-3.1151201341	-3.0203835634	-0.20286
C	 1.2822882111	-2.4694747919	-3.4004686949	-0.198328
C	 2.0456582682	-2.3446468065	-2.0685680964	 0.021822
C	 3.2528696554	-1.4107302713	-2.0909793458	-0.409489
H	 0.6596636499	 2.0023388752	-0.7132083652	 0.124948
H	-0.8372352296	 1.6052731553	-1.5738865196	 0.124574
H	-0.8908491293	 2.0108598232	 0.1541093691	 0.112316
H	 0.3971313705	-0.0681535576	 0.6971004674	 0.08338
H	-1.1035662985	-0.4541050045	-0.1593406875	 0.085069
H	 1.2273506799	-2.1012362725	-0.0351566579	 0.049368
H	-0.1985516543	-3.7987856656	-0.9336321562	 0.094813
H	-1.2101032174	-2.3997752104	-1.2503704073	 0.098965
H	-0.0646017434	-4.1896849721	-3.2270144325	 0.095261
H	-0.8954351642	-2.6925059819	-3.6023566559	 0.098495
H	 1.833434215	-3.0483359548	-4.1473467579	 0.085938
H	 1.1243088289	-1.4677531258	-3.8135659758	 0.107375
H	 2.3762915257	-3.3493201646	-1.7676051422	 0.065628
H	 2.9448585572	-0.3905991639	-2.3322706684	 0.129497
H	 3.75774366	-1.3880870712	-1.1188032936	 0.103947
H	 3.9848807065	-1.7371357177	-2.8371521652	 0.105501
44.3884	58.9676	104.1959	130.4828	174.026	220.1653	248.7481	269.6985	325.2918	356.2259	461.1327	521.1551	584.8218	721.8242	754.1712	818.6775	831.1913	867.6483	892.7758	914.1819	920.3472	968.3227	991.5184	1016.2186	1037.9922	1066.43	1106.369	1116.5431	1151.2712	1175.7313	1188.2387	1208.6869	1217.8	1255.827	1274.3351	1298.053	1307.1697	1332.6689	1333.7219	1350.5787	1371.8923	1389.6216	1402.1033	1406.641	1439.5144	1479.44	1483.4399	1488.2437	1495.9371	1499.9694	1503.1527	1511.0728	1530.1264	2955.5943	2979.889	2984.1494	3002.9209	3033.9203	3043.601	3045.1637	3047.9285	3059.38	3080.3674	3092.8381	3093.3562	3107.4755	3117.642	3119.9028	3124.5714
CCOC1CCCC1C	CCO[C@H]1CCC[C@H]1C	
InChI=1S/C8H16O/c1-3-9-8-6-4-5-7(8)2/h7-8H,3-6H2,1-2H3	InChI=1S/C8H16O/c1-3-9-8-6-4-5-7(8)2/h7-8H,3-6H2,1-2H3/t7-,8+/m1/s1
