23
gdb 114532	3.47414	1.16778	1.05106	1.2738	85.36	-0.2337	0.0844	0.318	1272.6055	0.207932	-388.288605	-388.280263	-388.279319	-388.321419	33.5	
C	 0.0835111348	 1.5089968959	 0.1528547344	-0.384872
C	 0.0049210863	-0.0185951926	 0.0996602774	-0.188848
C	-1.4203233796	-0.5496107202	-0.0229428169	 0.166084
C	-1.4854849638	-2.0874577106	-0.1852491591	-0.244976
C	-2.8079254011	-2.6265303724	 0.3829629529	-0.022757
C	-3.9240754474	-1.55425051	 0.1970853859	-0.255034
C	-3.2940893555	-0.8723857498	 1.4442814065	 0.139307
C	-2.8530913132	-2.2876077787	 1.9008503048	-0.226261
O	-2.1540336416	-0.0896266698	 1.120321722	-0.294265
H	 1.1187114789	 1.8467329461	 0.2612744085	 0.106557
H	-0.3196437981	 1.9574273057	-0.7622577481	 0.10859
H	-0.4947151244	 1.8931230732	 0.996637172	 0.136178
H	 0.5831977126	-0.3978590926	-0.752831035	 0.091134
H	 0.4534034927	-0.4498434568	 1.0033691522	 0.098476
H	-1.8786972751	-0.0969308962	-0.9169252916	 0.066923
H	-1.3862418466	-2.3273764805	-1.2504117722	 0.095459
H	-0.6445507619	-2.5672471967	 0.3316238987	 0.096457
H	-3.0048190222	-3.6539636403	 0.0685595389	 0.060507
H	-3.9805035909	-0.9924348446	-0.7382587945	 0.097602
H	-4.9121515746	-1.9544862291	 0.4370278698	 0.09845
H	-3.9158835673	-0.2590272029	 2.099737053	 0.070579
H	-3.653412957	-2.8204780019	 2.4217928528	 0.092982
H	-1.923796805	-2.3499096552	 2.4733506277	 0.091727
89.7318	118.9948	190.5504	240.4771	309.4886	361.3742	431.7034	445.8766	457.1785	494.45	584.7648	753.5044	802.5502	807.2482	843.8943	873.9049	879.1533	924.5984	937.6953	952.6548	972.6527	1014.0299	1018.566	1053.6489	1065.0281	1092.5236	1114.4062	1139.3265	1145.425	1167.8637	1197.5577	1227.8623	1244.9012	1261.5087	1290.357	1307.8338	1315.7583	1339.2483	1357.3984	1380.0705	1395.3525	1407.9082	1410.5026	1472.9795	1473.8233	1489.4812	1496.1278	1506.913	1508.9087	2962.0001	3018.2018	3024.5635	3035.8212	3051.412	3058.0547	3063.0167	3064.9801	3079.1752	3089.1813	3099.4092	3113.2895	3118.4562	3126.3503
CCC1CC2CC(C2)O1	CC[C@H]1C[C@@H]2C[C@@H](C2)O1	
InChI=1S/C8H14O/c1-2-7-3-6-4-8(5-6)9-7/h6-8H,2-5H2,1H3	InChI=1S/C8H14O/c1-2-7-3-6-4-8(5-6)9-7/h6-8H,2-5H2,1H3/t6-,7-,8+/m0/s1
