17
gdb 19643	4.81841	1.77344	1.67248	1.7155	70.43	-0.2113	0.0697	0.281	844.3827	0.141946	-326.60724	-326.600365	-326.599421	-326.638297	26.749	
C	-0.0052043661	 1.4959960064	-0.1961917598	-0.377771
C	-0.0575661339	 0.0045008877	 0.1609622099	-0.325264
C	-1.431310686	-0.5634495888	 0.0561989864	 0.420926
C	-2.3215712674	-0.9379954561	-1.1068179731	-0.166178
C	-3.5271705419	-0.4676070969	-0.2590349371	-0.048807
C	-3.2037228738	-1.4590291393	 0.7991895232	-0.04955
C	-1.9851783678	-1.9651171097	-0.0092644198	-0.190274
N	-2.6311807919	-0.0681166804	 0.8835909327	-0.214108
H	 1.0045256093	 1.895731914	-0.064766586	 0.109914
H	-0.3052651803	 1.6616951174	-1.235827419	 0.115303
H	-0.6851059338	 2.0658582935	 0.4437549318	 0.139455
H	 0.6067844837	-0.5714919812	-0.4965638765	 0.102369
H	 0.3110700487	-0.1459445482	 1.1842849102	 0.109873
H	-2.1244219877	-0.9886340511	-2.1683912884	 0.092332
H	-4.4386574586	 0.0700657298	-0.4920434867	 0.094302
H	-3.7995633529	-1.886938679	 1.5967272157	 0.094599
H	-1.4895664498	-2.9213414479	-0.1014739834	 0.092879
92.9716	152.1727	193.7545	304.2126	382.1247	580.5336	668.5661	742.3062	763.7123	782.312	803.5811	840.32	852.0471	866.4969	893.5182	905.2914	953.8488	975.2802	988.1599	1000.4901	1012.5613	1065.2772	1096.1669	1127.9692	1168.0093	1193.2088	1212.0017	1269.264	1292.598	1321.9595	1349.8083	1406.5559	1454.3979	1469.7061	1496.3992	1509.5833	3016.3801	3039.7011	3050.9169	3109.4528	3117.7861	3171.1691	3185.5953	3209.3157	3219.4308
CCC12C3C4C(C13)N24	CC[C@@]12[C@@H]3[C@H]4[C@@H]([C@H]13)N24	
InChI=1S/C7H9N/c1-2-7-3-4(7)6-5(3)8(6)7/h3-6H,2H2,1H3	InChI=1S/C7H9N/c1-2-7-3-4(7)6-5(3)8(6)7/h3-6H,2H2,1H3/t3-,4+,5-,6+,7+,8?
