15
gdb 27549	5.62154	0.96487	0.86893	2.8437	68.43	-0.2086	0.0204	0.2289	1281.9586	0.113644	-453.952666	-453.944914	-453.943969	-453.985379	28.785	
N	 0.6726122936	 1.2441252279	 0.48573334	-0.590653
C	 0.1424066295	 0.0041273502	 0.2403155289	 0.456996
N	-0.6780433893	-0.6741354339	 0.9829580678	-0.39546
C	-0.817010933	-1.8830352648	 0.2965830742	 0.254293
C	-0.0667370155	-1.858276504	-0.8261353097	-0.138803
O	 0.5657784521	-0.6264305189	-0.8754890696	-0.18132
C	-1.6750677784	-2.967871837	 0.807799941	-0.045457
C	-2.8722513964	-3.4270429588	 0.0786492621	-0.16506
O	-1.661601778	-4.1819126231	 0.0552348535	-0.229977
H	 0.9309628276	 1.7676763547	-0.3374087064	 0.266021
H	 0.1404225152	 1.7766427319	 1.157313989	 0.272356
H	 0.1437703412	-2.5461479804	-1.6236566203	 0.154797
H	-1.6624465971	-3.0920446988	 1.8904441106	 0.108039
H	-3.6963202941	-3.8811067098	 0.6275684306	 0.117802
H	-3.1367995474	-2.9383638853	-0.8572627917	 0.116426
66.1222	143.1782	160.875	277.5405	308.6921	354.0522	431.814	483.0386	585.922	652.1524	681.3347	730.6145	749.2661	775.4576	867.1388	898.2677	966.956	985.785	1041.1437	1090.5065	1107.1328	1132.4045	1152.1519	1167.6634	1230.7892	1264.1537	1280.3378	1425.8451	1452.1883	1519.3471	1603.6434	1644.7763	1686.1767	3083.8762	3116.7494	3177.9619	3318.4284	3580.6215	3689.9215
NC1=NC(=CO1)C1CO1	Nc1nc(co1)[C@H]1CO1	
InChI=1S/C5H6N2O2/c6-5-7-3(1-9-5)4-2-8-4/h1,4H,2H2,(H2,6,7)	InChI=1S/C5H6N2O2/c6-5-7-3(1-9-5)4-2-8-4/h1,4H,2H2,(H2,6,7)/t4-/m1/s1
