18
gdb 69358	2.77804	1.40698	1.14796	2.9794	72.54	-0.2512	-0.0376	0.2136	1112.3767	0.145368	-439.05278	-439.043893	-439.042948	-439.08591	33.63	
C	 0.0460710925	 1.5205806817	 0.0167780388	-0.485354
C	-0.1135353768	 0.0315714521	 0.0730181667	 0.341826
C	-1.4536061007	-0.7355014437	 0.0620148061	-0.349421
C	-0.8297890406	-1.8139875377	 1.0116166087	 0.302467
O	-1.4016888912	-1.9104404613	 2.295046053	-0.483054
C	-0.7208490473	-3.2209228973	 0.475706907	 0.140669
O	-0.4983021583	-3.4729015169	-0.6848712231	-0.264495
C	 0.5116680801	-1.0132912377	 0.9610810195	-0.190248
N	 0.9664779897	-0.8212329732	-0.4046230995	-0.352784
H	 1.0870433169	 1.7974577919	 0.2016043172	 0.137092
H	-0.2322652516	 1.9023040783	-0.9726559337	 0.128279
H	-0.5897963848	 2.0184952355	 0.7567045571	 0.112419
H	-2.2670484583	-0.2188114767	 0.5790993405	 0.107983
H	-1.802737418	-1.0784213825	-0.9159661744	 0.116883
H	-1.3287868816	-1.0524522504	 2.7263534064	 0.28648
H	-0.8273492223	-4.0171029145	 1.242734347	 0.101048
H	 1.2194491868	-0.9560511793	 1.7829638606	 0.098364
H	 0.6652598654	-1.5737758684	-1.0231501279	 0.251845
121.802	129.3961	196.6901	204.0578	237.3945	280.1158	324.8362	358.7971	390.0971	445.9515	494.7978	572.6137	619.6874	699.3656	796.4425	847.2837	885.6397	914.4965	949.514	988.198	1007.9391	1048.0747	1071.6128	1113.3604	1128.616	1145.8372	1165.7041	1225.7346	1243.5498	1257.5572	1299.1828	1354.0604	1396.4516	1412.8819	1454.8855	1476.6764	1484.0707	1494.6	1810.8828	2916.2166	3029.7365	3055.35	3088.4544	3113.6516	3122.5958	3157.5205	3462.9204	3813.6584
CC12CC(O)(C=O)C1N2	C[C@]12C[C@@](O)(C=O)[C@H]1N2	
InChI=1S/C6H9NO2/c1-5-2-6(9,3-8)4(5)7-5/h3-4,7,9H,2H2,1H3	InChI=1S/C6H9NO2/c1-5-2-6(9,3-8)4(5)7-5/h3-4,7,9H,2H2,1H3/t4-,5-,6+/m0/s1
