17
gdb 65750	2.65606	1.2289	1.07334	5.0323	70.12	-0.256	-0.0478	0.2082	1179.6636	0.132843	-458.992722	-458.983581	-458.982637	-459.027001	32.671	
C	-0.0011584387	 1.6483827674	 0.0308471956	-0.441642
C	-0.04583849	 0.1234506923	-0.0067272159	 0.287001
C	 0.7085961518	-0.515821419	-1.2096462102	-0.280752
C	 1.9116736852	-0.8814786536	-0.2889344382	-0.343002
C	 1.0120963031	-0.5609048179	 0.9106685073	 0.359897
O	 1.0269207385	-0.8325368661	 2.0752710791	-0.291244
O	-1.3876820195	-0.358212585	 0.0987451236	-0.239035
C	-1.99900571	-0.3186767921	 1.3095350307	 0.150033
O	-3.1320028391	-0.6696907407	 1.4466934325	-0.271628
H	 1.0176197816	 2.0147891941	-0.1277253332	 0.130073
H	-0.6421497025	 2.0495862606	-0.7600174992	 0.145174
H	-0.3515323981	 2.0300551314	 0.9940946392	 0.139138
H	 0.1760279505	-1.3962209275	-1.5711383169	 0.138868
H	 0.9153348122	 0.1553677141	-2.0435961799	 0.117258
H	 2.2932333403	-1.9038021949	-0.3266443777	 0.145486
H	 2.7579706519	-0.1918846573	-0.3655427764	 0.141454
H	-1.3468286974	 0.0422825942	 2.1202220696	 0.112921
73.6391	94.8692	135.9694	175.0469	218.2379	239.5101	304.4258	317.736	402.9465	461.4052	543.1469	567.3888	707.0115	747.3654	781.3537	879.092	918.3326	950.996	980.2118	1031.3291	1038.9773	1073.1319	1136.7957	1161.7613	1185.6769	1209.5574	1227.0217	1238.9879	1286.4696	1405.0023	1435.4081	1439.9546	1479.7963	1487.955	1491.528	1857.7776	1889.8564	3024.8328	3040.2592	3066.1279	3091.0493	3116.8147	3120.318	3123.598	3152.522
CC1(CCC1=O)OC=O	C[C@]1(CCC1=O)OC=O	
InChI=1S/C6H8O3/c1-6(9-4-7)3-2-5(6)8/h4H,2-3H2,1H3	InChI=1S/C6H8O3/c1-6(9-4-7)3-2-5(6)8/h4H,2-3H2,1H3/t6-/m1/s1
