15
gdb 20434	4.88283	2.16617	1.54207	3.5299	67.1	-0.1986	0.0399	0.2385	787.2373	0.12397	-358.858273	-358.852311	-358.851367	-358.888275	23.218	
C	 0.0441472183	 1.4546535995	 0.0680922588	-0.179639
C	 1.5310646139	 1.8468968316	-0.1389976744	-0.167052
N	 2.1527183203	 0.5539896402	 0.0518429191	 0.045963
N	 3.4487545558	 0.1668122293	 0.1117478937	-0.307261
C	 3.3597950905	-1.1615593172	 0.0601070432	 0.017563
C	 2.026458922	-1.6356148848	-0.0741419462	-0.383815
C	 1.2851428175	-0.4711658707	-0.0918852537	 0.437108
N	-0.0049549153	 0.0190708727	-0.3109514958	-0.410947
H	-0.2324924946	 1.6007603612	 1.1209841427	 0.115048
H	-0.6319248149	 2.0445190701	-0.5544495353	 0.123254
H	 1.7194930731	 2.228348181	-1.1502820899	 0.128075
H	 1.8805627656	 2.5841944149	 0.5865637294	 0.134032
H	 4.2612371018	-1.7546785694	 0.1248852577	 0.10565
H	 1.6827911707	-2.6533639675	-0.1458945974	 0.096563
H	-0.7469436848	-0.501021011	 0.1375551181	 0.24546
157.7996	190.7715	296.1389	449.5359	571.7472	647.0697	663.8713	703.5376	747.7683	757.7197	811.7932	881.6436	894.7726	949.8645	957.4518	1040.7598	1054.7276	1120.2724	1124.595	1203.6637	1222.6175	1247.5426	1309.5263	1320.2436	1347.4814	1357.6918	1392.7054	1463.0121	1504.5032	1523.5539	1545.3975	1613.3988	3010.9384	3029.1836	3100.3381	3109.7442	3236.3	3278.6049	3578.279
C1CN2N=CC=C2N1	C1Cn2nccc2N1	
InChI=1S/C5H7N3/c1-2-7-8-4-3-6-5(1)8/h1-2,6H,3-4H2	InChI=1S/C5H7N3/c1-2-7-8-4-3-6-5(1)8/h1-2,6H,3-4H2
