18
gdb 102867	1.78923	1.12586	0.75611	3.0921	71.99	-0.2532	-0.0292	0.224	1482.3735	0.144542	-476.218174	-476.207969	-476.207025	-476.255359	34.57	
O	 0.052439769	 1.4469995927	-0.065377905	-0.411119
C	 0.0805980171	 0.0394305281	 0.0062980726	-0.065986
C	-1.3315874594	-0.5558250958	 0.0478398535	 0.054929
C	-2.1367664816	-0.0600466206	 1.2535407597	-0.277184
C	-3.5554808354	-0.5874607139	 1.2836550039	 0.143035
O	-4.0237462818	-1.2069766276	 2.2048466393	-0.237633
O	-2.024956603	-0.1268905396	-1.1393499985	-0.20977
C	-1.9968133375	-0.9416057192	-2.218690837	 0.123211
N	-2.3944350673	-0.5136727169	-3.3350223902	-0.43454
H	-0.4601253322	 1.6769457955	-0.8501252778	 0.299717
H	 0.6233232382	-0.4013331802	-0.8454492422	 0.096854
H	 0.622113186	-0.22589267	 0.9201441117	 0.120871
H	-1.2656955318	-1.6530676478	 0.0583341853	 0.095315
H	-1.636083769	-0.3534349796	 2.1800480119	 0.126736
H	-2.1633749567	 1.035584536	 1.2052080065	 0.144148
H	-4.1567381467	-0.3584736564	 0.3783900119	 0.099464
H	-1.6282268514	-1.9516809287	-1.9929174818	 0.095735
H	-2.3477440165	-1.2538702059	-4.0320595037	 0.236216
38.1418	57.4966	76.8089	112.6545	120.1956	196.2548	222.2377	290.7449	349.2649	434.7447	440.721	520.274	591.1173	672.2872	822.385	824.7377	872.114	927.0131	957.4255	1024.4664	1044.2846	1080.3997	1095.9675	1125.7918	1132.8305	1217.8661	1235.2886	1268.0231	1293.3233	1346.6966	1366.8922	1400.8939	1421.1243	1425.402	1429.196	1456.9514	1497.5949	1745.2217	1829.8286	2913.2682	2977.4084	3011.2414	3027.228	3045.2615	3082.0179	3114.0455	3521.7149	3789.9728
OCC(CC=O)OC=N	OC[C@@H](CC=O)O[CH][NH]	
InChI=1S/C5H9NO3/c6-4-9-5(3-8)1-2-7/h2,4-6,8H,1,3H2	InChI=1S/C5H9NO3/c6-4-9-5(3-8)1-2-7/h2,4-6,8H,1,3H2/t5-/m1/s1
