19
gdb 101941	2.39222	0.71022	0.62391	2.3879	75.47	-0.2173	0.0267	0.244	1837.5082	0.151864	-456.352558	-456.339077	-456.338133	-456.395734	41.693	
N	 1.1113345866	-1.4076499824	-0.3284155334	-0.714065
H	 1.6908545547	-1.3017617484	-1.1569307676	 0.236535
H	 0.4583836583	-0.62637777	-0.3339552198	 0.243984
H	 0.5550942563	-2.2446786258	-0.4819794035	 0.236776
C	-0.8126323656	 1.6573073897	 0.712582649	-0.374234
C	-0.4335365711	 0.9273941932	 1.7652710971	 0.074923
N	 0.6586213594	 1.1795335255	 2.5998339197	-0.069234
C	 1.8070533717	 0.2722095845	 2.6428546179	-0.239004
C	 1.9277718396	 1.6508250401	 2.0768036743	-0.224547
C	 0.1793854056	 2.1791243011	 5.2501260899	 0.586493
O	-0.9780901937	 2.1000055051	 5.180713699	-0.29717
O	 1.3331534797	 2.276822721	 5.3761140877	-0.310464
H	-0.2461805962	 2.5176677124	 0.3741210605	 0.101435
H	-1.7368142182	 1.432997454	 0.1947220488	 0.110887
H	-1.0315336557	 0.0825364993	 2.1002099254	 0.105737
H	 2.1934393106	 0.067509717	 3.6367599214	 0.120413
H	 1.8172149798	-0.5506253344	 1.9311314897	 0.166392
H	 2.0237841179	 1.7347319842	 0.9968557211	 0.117938
H	 2.4095045202	 2.4353495938	 2.6520364929	 0.127204
23.8501	30.3769	41.0295	66.7372	78.6691	91.2168	108.5893	124.0953	130.256	156.1379	181.4981	266.0983	271.5928	335.2966	549.1143	655.6507	691.845	727.0465	749.3229	840.4579	862.2891	914.7031	988.8874	1017.6454	1060.6138	1102.9983	1116.5464	1145.1336	1157.4876	1187.2944	1199.1848	1323.9948	1364.376	1374.5542	1449.7135	1488.5891	1515.6445	1674.461	1686.4598	1691.9927	2428.4887	3102.0223	3110.9119	3153.9624	3165.1277	3197.2985	3210.0416	3249.1476	3452.6752	3568.3336	3581.3333
[NH3+]CC(N1CC1)C([O-])=O	N.C=CN1CC1.C(=O)=O	
InChI=1S/C5H10N2O2/c6-3-4(5(8)9)7-1-2-7/h4H,1-3,6H2,(H,8,9)	InChI=1S/C4H7N.CO2.H3N/c1-2-5-3-4-5;2-1-3;/h2H,1,3-4H2;;1H3
