19
gdb 117272	7.22372	0.52257	0.49322	0.8435	81.58	-0.2404	-0.0128	0.2276	2198.3734	0.154703	-423.015891	-423.004425	-423.003481	-423.056969	37.509	
C	 0.206742931	 1.5191373004	 0.0382991805	-0.498392
C	 0.0899504864	 0.0699621939	-0.0260514845	 0.122523
C	-0.0143235782	-1.1271243471	-0.0781987264	 0.057265
C	-0.1465904566	-2.5721050548	-0.1403914153	-0.485872
C	-1.5856643881	-3.0971328881	 0.0145509069	 0.372251
O	-2.5320805628	-2.3676354415	 0.1790053929	-0.280395
C	-1.7258305767	-4.6089113175	-0.0551248112	-0.279685
C	-3.1620231877	-5.0843757736	 0.1069013182	-0.080291
O	-3.1436457022	-6.5018884424	 0.0214261753	-0.425004
H	 0.8529702448	 1.8315199107	 0.8660697931	 0.146229
H	 0.6309981343	 1.9272092114	-0.8857582668	 0.146216
H	-0.7729860956	 1.9858522904	 0.1879362726	 0.153675
H	 0.2447072173	-2.9634700829	-1.0906210604	 0.146825
H	 0.4641069564	-3.057628507	 0.6346027731	 0.14699
H	-1.3207878306	-4.9647275455	-1.0116727954	 0.131062
H	-1.0920523931	-5.0660587163	 0.7161945783	 0.130867
H	-3.5577819761	-4.7383202733	 1.0721029984	 0.103723
H	-3.7889202186	-4.6358133479	-0.6765003164	 0.103875
H	-4.046222494	-6.8176586589	 0.1218602173	 0.288137
7.4029	20.7213	48.1902	65.3062	97.5073	162.7622	199.8843	269.8401	271.7657	309.1911	370.278	398.4855	424.0725	463.6362	681.8483	743.8543	786.3406	870.5996	887.2839	1002.656	1051.2777	1052.4262	1053.7249	1074.7928	1099.5269	1176.2479	1192.6065	1240.7271	1253.5587	1306.1516	1326.8037	1357.6294	1414.4987	1436.7656	1451.0917	1470.3615	1478.2088	1478.4457	1523.0631	1818.3402	2383.4976	2997.9374	3004.3727	3025.0525	3026.9095	3029.3213	3029.5254	3064.3271	3086.7454	3089.4428	3831.8201	7.3954	20.7094	48.1891	65.3058	97.5067	162.7621	199.8844	269.8383	271.7658	309.1912	370.2796	398.4856	424.0728	463.6364	681.8484	743.8542	786.3406	870.5996	887.284	1002.6559	1051.2778	1052.4264	1053.7249	1074.7929	1099.5268	1176.248	1192.6066	1240.7269	1253.5588	1306.1519	1326.8037	1357.6295	1414.4989	1436.7651	1451.0919	1470.3616	1478.2092	1478.4462	1523.0633	1818.3404	2383.4977	2997.9373	3004.3727	3025.0525	3026.9095	3029.3213	3029.5255	3064.3271	3086.7454	3089.4428	3831.8197
CC#CCC(=O)CCO	CC#CCC(=O)CCO	
InChI=1S/C7H10O2/c1-2-3-4-7(9)5-6-8/h8H,4-6H2,1H3	InChI=1S/C7H10O2/c1-2-3-4-7(9)5-6-8/h8H,4-6H2,1H3
