17
gdb 111163	4.40028	1.07715	0.99564	3.784	69.6	-0.244	0.0665	0.3105	1215.0484	0.133587	-458.833539	-458.825443	-458.824499	-458.866489	30.191	
C	 0.0758029762	 1.2811388521	-0.2494746486	-0.244747
O	-0.0511194638	 0.0357174319	 0.4059655971	-0.246894
C	-1.3026206368	-0.5345573055	 0.2627496142	 0.193687
C	-1.6279180687	-1.3591364088	-1.0351618821	-0.131492
O	-0.6326180942	-2.3645146679	-0.5940737567	-0.306176
C	-1.3819686825	-2.0323059451	 0.6430443865	-0.131405
C	-2.6692208014	-2.1083795657	-0.1931915444	 0.562402
C	-4.1096441384	-2.1062616086	 0.0215603742	-0.310972
O	-3.3979443824	-3.2390854506	-0.539502067	-0.276872
H	 1.0725057933	 1.6633124837	-0.0203592211	 0.136052
H	-0.0253003291	 1.180475249	-1.3395533745	 0.113032
H	-0.6748694168	 2.0042305065	 0.1053893532	 0.106588
H	-2.1066110958	 0.1213847102	 0.6312493256	 0.069936
H	-1.6366263873	-1.0729471816	-2.0857453833	 0.105095
H	-1.095313179	-2.5316801268	 1.5669507966	 0.10978
H	-4.5147651532	-2.2663086031	 1.0191077075	 0.126598
H	-4.7670556304	-1.5867948697	-0.6733884272	 0.125388
76.729	135.6245	162.9716	216.2191	282.8937	324.7425	351.2103	452.6602	507.2656	607.2486	725.8224	744.0001	794.3691	861.9256	884.6325	901.0562	953.2401	1001.6996	1043.3482	1079.7915	1104.4084	1114.4445	1132.0624	1148.9594	1151.6412	1172.9566	1181.3236	1198.8685	1218.6022	1245.4609	1276.5009	1405.4603	1462.1875	1484.7146	1489.7833	1506.6805	1558.003	2978.7826	2988.9525	3033.7394	3090.0012	3126.5582	3137.4491	3144.4312	3178.5956
COC1C2OC1C21CO1	CO[C@H]1[C@H]2O[C@@H]1[C@]12CO1	
InChI=1S/C6H8O3/c1-7-3-4-6(2-8-6)5(3)9-4/h3-5H,2H2,1H3	InChI=1S/C6H8O3/c1-7-3-4-6(2-8-6)5(3)9-4/h3-5H,2H2,1H3/t3-,4+,5-,6+
