18
gdb 32326	2.99964	1.32218	0.98017	4.5387	76.7	-0.1834	0.0262	0.2096	1204.5308	0.148783	-435.281529	-435.272465	-435.271521	-435.315355	33.219	
C	 0.0352773728	 1.4378239459	 0.0154138374	-0.346702
N	 0.0368622032	-0.0106709262	 0.0308584486	-0.141035
C	-0.0454172191	-0.7712503405	-1.1172054297	 0.458736
N	-0.1114581386	-0.3308516952	-2.3065141792	-0.619019
O	-0.0401548953	-2.0927248868	-0.7144058973	-0.221
C	 0.0286406083	-2.1119030834	 0.665989453	-0.153632
C	 0.0691544673	-0.8600958467	 1.1426458127	 0.302501
C	 0.1407704623	-0.3873686033	 2.5543387802	-0.288337
N	 1.3834500579	 0.3588502491	 2.8035510055	-0.498179
H	 0.6510194245	 1.8030232221	 0.8389818013	 0.157657
H	 0.4493442088	 1.7603586793	-0.9414764076	 0.165743
H	-0.9805787186	 1.8429544845	 0.1024528121	 0.12433
H	-0.14425981	-1.0977002622	-2.9721483485	 0.221578
H	 0.0309673558	-3.0762833846	 1.1421755825	 0.14517
H	-0.695536528	 0.2930988374	 2.7617846999	 0.121616
H	-0.0009035382	-1.2666796769	 3.2024756043	 0.103784
H	 1.3998845609	 0.6889932576	 3.7636804187	 0.233521
H	 2.1802994659	-0.2608588202	 2.6904798262	 0.233266
94.215	124.4123	134.1391	160.6445	217.6079	256.8754	300.9287	334.2275	417.6395	528.1546	579.9355	647.6449	685.7899	707.0705	714.6365	743.4755	792.5778	854.6045	968.4225	991.5616	1014.3952	1052.6199	1102.5442	1162.5571	1176.626	1204.1251	1210.7583	1268.1497	1311.7745	1356.6615	1419.9672	1437.0705	1477.6947	1499.3587	1504.2536	1517.6543	1650.9395	1705.9911	1772.9178	2976.9701	3023.6053	3035.407	3108.3115	3155.221	3297.3959	3490.3849	3545.6765	3574.4306
CN1C(=N)OC=C1CN	CN1[C@@H]([NH])OC=C1CN	
InChI=1S/C5H9N3O/c1-8-4(2-6)3-9-5(8)7/h3,7H,2,6H2,1H3	InChI=1S/C5H10N3O/c1-8-4(2-6)3-9-5(8)7/h3,5,7H,2,6H2,1H3/t5-/m1/s1
