15
gdb 27677	2.92682	1.29965	0.90505	1.3811	79.86	-0.1973	0.0021	0.1994	1217.7512	0.11213	-416.833893	-416.825239	-416.824295	-416.866987	32.211	
C	 0.0269857339	 1.4935686069	 0.1343502044	-0.501396
C	 0.0498492135	 0.0082592135	 0.0174288542	 0.181275
C	-0.0037665178	-0.7500390176	-1.1348901901	 0.104524
N	 0.0495439848	-2.0816377478	-0.6917775286	-0.389328
C	 0.1287908579	-2.0303946424	 0.6537067601	 0.440398
O	 0.194105952	-3.1631197328	 1.366409071	-0.424596
N	 0.1325868065	-0.8093800348	 1.1274987796	-0.401385
C	-0.091769896	-0.4028629067	-2.4916294648	 0.269005
C	-0.1673491156	-0.1125038136	-3.6603017919	-0.465695
H	 0.9320817676	 1.8608618719	 0.6303793571	 0.135208
H	-0.0414761338	 1.9570842576	-0.8523820357	 0.13342
H	-0.8264441356	 1.8254476271	 0.7357517578	 0.135207
H	 0.0313291704	-2.907080196	-1.2659799524	 0.277436
H	 0.2438482706	-2.8966050604	 2.2935196422	 0.316817
H	-0.2339164182	 0.152492845	-4.6860231131	 0.18911
118.7834	132.6552	138.0101	220.2244	279.4256	321.5556	411.707	425.6927	444.3522	475.2805	503.171	553.6182	581.7036	641.615	686.5004	695.771	732.6874	805.4848	1002.8783	1062.8288	1073.4459	1154.3022	1183.9532	1239.5062	1315.1488	1399.6063	1422.2398	1476.6069	1484.8759	1553.2723	1608.6023	1624.674	2219.1007	3034.7594	3087.0158	3128.9444	3503.0525	3676.3344	3800.0844
CC1=C(NC(O)=N1)C#C	Cc1c([nH]c(O)n1)C#C	
InChI=1S/C6H6N2O/c1-3-5-4(2)7-6(9)8-5/h1H,2H3,(H2,7,8,9)	InChI=1S/C6H6N2O/c1-3-5-4(2)7-6(9)8-5/h1H,2H3,(H2,7,8,9)
