18
gdb 103532	2.48237	1.46222	1.19384	4.048	73.61	-0.2248	-0.02	0.2047	1109.9006	0.146751	-439.126415	-439.117272	-439.116327	-439.160123	34.123	
C	-0.0875491514	 1.5700899487	 0.0631693465	-0.400245
C	-0.0049559196	 0.0463175127	-0.0487126292	-0.187207
C	 0.7540198642	-0.4398300541	-1.2938095933	 0.246623
O	 0.0502857098	 0.0722624453	-2.4192666268	-0.457168
C	 2.2351443613	-0.1257950305	-1.2996502908	-0.219029
C	 2.9246178776	-1.2697402248	-1.2550077661	-0.031568
N	 2.0768726155	-2.3890730328	-1.2161542694	-0.338432
C	 0.7501683354	-2.0054963605	-1.2965482008	 0.369466
O	-0.2063175678	-2.7381876975	-1.3548958133	-0.362384
H	 0.9031929957	 2.0192043761	 0.1890214736	 0.109789
H	-0.5444022895	 1.9979904864	-0.831883557	 0.138646
H	-0.6924422619	 1.8566483296	 0.9286113631	 0.112803
H	 0.4775770347	-0.3777266045	 0.8392072666	 0.101351
H	-1.0083824159	-0.3898968755	-0.1072560281	 0.127024
H	 0.5520508253	-0.1486902492	-3.2111360542	 0.281007
H	 2.6509651254	 0.8697274589	-1.3208469542	 0.113302
H	 3.9949192594	-1.422309201	-1.2338541234	 0.133723
H	 2.372688172	-3.3495226174	-1.2747903833	 0.262299
79.9735	111.0161	164.8288	215.2912	253.4996	266.4623	297.1693	327.8314	372.3062	449.6238	568.8019	595.4818	618.1873	713.4205	733.3763	766.8763	793.0434	802.3064	918.1422	959.7749	1003.4993	1018.0586	1065.1271	1076.1139	1119.2497	1145.0705	1192.51	1224.1218	1301.4203	1339.2472	1369.2468	1385.6355	1407.5569	1411.9216	1476.8267	1497.1233	1508.9686	1666.2125	1846.6218	3040.142	3041.817	3080.1155	3105.1178	3132.5244	3228.6856	3258.7767	3656.7533	3810.2945
CCC1(O)C=CNC1=O	CC[C@@]1(O)C=CNC1=O	
InChI=1S/C6H9NO2/c1-2-6(9)3-4-7-5(6)8/h3-4,9H,2H2,1H3,(H,7,8)	InChI=1S/C6H9NO2/c1-2-6(9)3-4-7-5(6)8/h3-4,9H,2H2,1H3,(H,7,8)/t6-/m1/s1
