18
gdb 105934	3.28179	1.63826	1.4382	2.2351	73.81	-0.2328	0.0741	0.3069	953.326	0.14934	-401.855845	-401.848863	-401.847919	-401.887392	28.239	
O	-0.041189248	 1.3562172613	-0.1706321234	-0.418324
C	-0.0318917235	-0.0278882141	 0.1429828285	-0.189489
C	-1.4224596281	-0.5781978229	 0.2059761593	 0.331461
C	-2.0327964624	-1.8202298029	-0.3278614246	-0.127147
C	-3.3133749691	-1.4820322528	 0.4753067993	-0.076448
C	-3.5977580541	-0.3272180539	-0.533942917	 0.012572
C	-3.4796064728	 0.7264304144	 0.5787700609	-0.247529
C	-2.5475726922	-0.3209455442	 1.2331158341	-0.113562
N	-2.1962681832	-0.5446884701	-1.0945895098	-0.20524
H	-0.5441427859	 1.4300408028	-0.9910873774	 0.290849
H	 0.5523630708	-0.606204904	-0.5897735577	 0.094518
H	 0.4665671231	-0.12234597	 1.1135864813	 0.10965
H	-1.6103837641	-2.7216107811	-0.7568141114	 0.096923
H	-4.0411986451	-2.1469642864	 0.9318897461	 0.075733
H	-4.3683062558	-0.3211062939	-1.3034585818	 0.077775
H	-3.0656722381	 1.7073143866	 0.3320824718	 0.109808
H	-4.4220586109	 0.833102792	 1.1249307073	 0.103011
H	-2.3049924007	-0.3394879308	 2.2938649247	 0.075439
80.4642	136.2037	284.9536	370.8731	417.4157	468.6013	552.1533	667.2159	725.02	757.7819	774.9403	823.7311	829.7599	859.8462	893.6205	920.7295	940.2377	956.3881	972.7069	1000.4716	1024.5806	1053.8346	1065.389	1079.6753	1091.4125	1147.0182	1169.4052	1181.7891	1203.5928	1222.5811	1245.823	1252.0792	1282.2685	1299.9009	1366.5439	1408.7608	1444.8324	1476.7268	1493.8369	2984.2428	3053.5686	3073.1197	3116.3458	3126.2136	3137.4383	3154.6724	3179.5699	3784.4587
OCC12C3C4C(CC14)N23	OC[C@@]12[C@H]3[C@@H]4[C@@H](C[C@H]14)N23	
InChI=1S/C7H9NO/c9-2-7-3-1-4-5(3)6(7)8(4)7/h3-6,9H,1-2H2	InChI=1S/C7H9NO/c9-2-7-3-1-4-5(3)6(7)8(4)7/h3-6,9H,1-2H2/t3-,4+,5-,6+,7-,8?/m0/s1
