21
gdb 122568	3.67908	0.87593	0.82272	2.3624	79.23	-0.2523	0.0771	0.3295	1483.5578	0.182425	-424.181783	-424.172724	-424.17178	-424.216733	33.791	
O	 0.1335270874	 1.2532325026	-0.5495505589	-0.422446
C	-0.0617754703	 0.0073510197	 0.0894613827	-0.05943
C	-1.5333052894	-0.3756192228	 0.1172208488	-0.076283
O	-1.9644746714	-0.4335782846	-1.2322917929	-0.273962
C	-3.3381913567	-0.702723336	-1.3864888432	 0.151012
C	-4.3774390001	 0.4396961373	-1.0927711522	-0.274328
C	-4.8706460041	 0.3022594974	-2.5375783164	-0.040487
C	-3.7414944032	 0.5857161227	-3.4811982811	-0.268987
C	-3.8099006001	-0.7691258784	-2.8299229448	-0.082318
H	-0.3468069018	 1.1917097615	-1.3835871434	 0.288967
H	 0.5069561149	-0.7943585447	-0.408336339	 0.092236
H	 0.3160873853	 0.1032284036	 1.1127053362	 0.106157
H	-1.6748294378	-1.3491239788	 0.6152378236	 0.085756
H	-2.1068450562	 0.3820089867	 0.6727066826	 0.099111
H	-3.6007308967	-1.6143104313	-0.8309365309	 0.070107
H	-5.1111053337	 0.156545709	-0.3352165481	 0.103452
H	-3.9514858826	 1.4139771623	-0.8319422815	 0.103186
H	-5.9065690432	 0.3189739317	-2.8509285271	 0.088902
H	-3.9980126774	 0.5920785378	-4.5355450803	 0.112754
H	-2.9601952548	 1.2894458386	-3.2072772268	 0.110602
H	-3.8902317882	-1.6780576742	-3.4131621373	 0.085997
42.3302	65.9001	120.2768	151.49	242.7873	295.0923	359.7466	422.2034	436.2829	492.0999	573.9264	678.9046	784.871	809.214	829.0508	890.7033	910.324	923.7406	961.3523	971.3447	1021.4641	1036.5008	1053.9503	1067.0453	1083.2744	1085.4607	1108.359	1136.9613	1138.599	1164.4423	1218.4394	1236.039	1241.1982	1262.3768	1270.4686	1318.8724	1365.8734	1370.2738	1386.4001	1424.7887	1441.5443	1476.6816	1496.4388	1499.9677	1508.1755	2967.0925	2979.0369	2998.222	3015.1562	3049.2295	3078.5335	3111.6539	3118.4204	3183.9195	3193.7733	3208.5662	3796.5941
OCCOC1CC2CC12	OCCO[C@H]1C[C@H]2C[C@@H]12	
InChI=1S/C7H12O2/c8-1-2-9-7-4-5-3-6(5)7/h5-8H,1-4H2	InChI=1S/C7H12O2/c8-1-2-9-7-4-5-3-6(5)7/h5-8H,1-4H2/t5-,6-,7+/m1/s1
