14
gdb 33807	3.63125	1.56847	1.39197	4.9847	68.89	-0.2458	-0.0431	0.2027	916.7726	0.101717	-399.522505	-399.515985	-399.51504	-399.553191	26.529	
N	-0.0021935458	-1.1336548802	 0.0220061694	-0.330738
C	-0.0157450251	 0.0206917912	 0.0335330352	 0.179746
C	-0.0028300686	 1.4747487376	-0.0102515833	 0.213191
O	-0.6049900609	 2.0765279277	 1.1445917874	-0.248334
C	-0.385460758	 3.4300708983	 0.702742576	-0.064435
C	 1.1450073699	 3.3914103238	 0.4637062599	-0.08288
C	 1.3943707368	 2.1682589835	 0.0147160912	-0.106143
C	-1.0731095996	 3.376197879	-0.6847631169	-0.082843
C	-0.8368499779	 2.1530554944	-1.1408094949	-0.106169
H	-0.7658293106	 4.145939758	 1.4278662306	 0.098996
H	 1.8185999679	 4.2265064078	 0.5869517726	 0.127417
H	 2.3095310937	 1.7083968531	-0.3250386995	 0.137386
H	-1.5715939609	 4.2032335819	-1.1683214516	 0.127417
H	-1.082433591	 1.6852570639	-2.0817045159	 0.137389
152.5608	170.681	412.5516	431.8592	493.3767	521.136	540.872	581.0164	626.5836	680.5798	733.6301	742.7363	804.1521	848.465	885.7945	900.2006	902.561	929.0079	957.0152	966.0254	1035.0266	1069.411	1097.0501	1223.3866	1253.3077	1266.2875	1298.3862	1303.133	1616.6637	1661.7041	2374.4705	3154.0938	3238.78	3239.9547	3267.2073	3268.7829
N#CC12OC(C=C1)C=C2	N#C[C@@]12O[C@@H](C=C1)C=C2	
InChI=1S/C7H5NO/c8-5-7-3-1-6(9-7)2-4-7/h1-4,6H	InChI=1S/C7H5NO/c8-5-7-3-1-6(9-7)2-4-7/h1-4,6H/t6-,7+
