17
gdb 68265	2.43143	1.51527	1.46206	4.8997	73.13	-0.2702	0.0201	0.2903	1008.3624	0.135677	-417.954376	-417.946245	-417.9453	-417.986685	31.61	
C	-0.0057403107	 1.465875875	 0.0949469789	-0.519307
C	 0.0084129809	-0.0261922739	-0.03548239	 0.268222
C	 0.6903257632	-0.9458277529	-1.0849799746	-0.300323
C	 0.0508729758	-1.8801594389	-0.0334930269	-0.086166
N	 0.5035555929	-0.9516267161	 1.0839465845	-0.406595
C	-1.2425636738	-0.9956563462	-0.0599732446	 0.350797
O	-2.0730772195	-1.0055457846	 1.0515762983	-0.486746
C	-2.0644600184	-1.0117599117	-1.2672239157	 0.247633
N	-2.6963635513	-1.013906285	-2.2341593979	-0.344202
H	 1.006924078	 1.8611600833	 0.2253227574	 0.128845
H	-0.4370694801	 1.9208393302	-0.801985997	 0.146054
H	-0.6086304658	 1.7643475494	 0.9578367652	 0.142167
H	 0.2994055134	-0.9546943069	-2.1055126278	 0.13462
H	 1.7826290158	-0.9234323871	-1.0713115582	 0.103881
H	 0.1061984548	-2.9642945971	 0.0615893763	 0.103456
H	 1.5256785776	-0.9289767349	 1.1186481117	 0.218472
H	-1.4552827827	-1.0032329226	 1.8019826503	 0.299194
121.5094	167.7445	186.8083	209.1258	308.2886	340.3036	399.5265	508.1591	522.774	549.8673	592.2731	597.7452	659.4562	702.1182	786.4456	807.8173	881.015	916.8469	955.0762	1020.6311	1032.8373	1066.2062	1101.1806	1114.5276	1127.5739	1195.2482	1209.5692	1230.2948	1261.6481	1289.3907	1333.486	1409.316	1425.107	1482.0431	1484.6282	1512.6418	2365.4395	3038.2858	3060.9837	3109.0971	3117.8034	3127.1809	3128.4993	3419.5398	3679.2856
CC12CC(N1)C2(O)C#N	C[C@@]12C[C@@H](N1)[C@]2(O)C#N	
InChI=1S/C6H8N2O/c1-5-2-4(8-5)6(5,9)3-7/h4,8-9H,2H2,1H3	InChI=1S/C6H8N2O/c1-5-2-4(8-5)6(5,9)3-7/h4,8-9H,2H2,1H3/t4-,5+,6-/m1/s1
