23
gdb 112609	3.44924	0.8215	0.78484	0.4175	82.47	-0.26	0.0722	0.3321	1567.4158	0.203982	-425.409422	-425.398891	-425.397946	-425.444953	39.015	
C	 0.0469500162	 1.5277515137	 0.0770421257	-0.459369
C	-0.0127831795	 0.0049280112	 0.0245489481	 0.350175
C	-1.4390516758	-0.477396976	-0.2253965728	-0.120674
O	-1.8626460646	-0.0001664448	-1.4959251509	-0.426002
C	 1.0032382472	-0.7046061089	-0.9272490444	-0.287889
C	 1.3419195156	-1.7101251545	 0.2067025328	 0.058977
C	 2.801603654	-2.0332472533	 0.4438136252	-0.099153
O	 2.8892037226	-2.8547976357	 1.6002705537	-0.423616
C	 0.6302427347	-0.7692293959	 1.2172873232	-0.283008
H	 1.0747749637	 1.8751669551	 0.2243988924	 0.101351
H	-0.3357777898	 1.9632411992	-0.8503681655	 0.132006
H	-0.5584985098	 1.9156191122	 0.9056470728	 0.10496
H	-1.4730678987	-1.5779570193	-0.1894532424	 0.081975
H	-2.0938197972	-0.1026407761	 0.57924916	 0.081518
H	-2.7626942268	-0.3017549126	-1.6474081817	 0.286862
H	 0.5984887216	-1.1028331858	-1.8599849352	 0.10578
H	 1.8529151572	-0.0565494039	-1.1670150122	 0.087929
H	 0.7951638217	-2.6509434677	 0.0902952467	 0.075964
H	 3.218291212	-2.5422557107	-0.4417932203	 0.082732
H	 3.3681417692	-1.0960005749	 0.5777573484	 0.076462
H	 3.817740215	-3.0369185656	 1.7712659071	 0.285291
H	 1.3431342633	-0.1480901995	 1.7687724855	 0.093454
H	-0.0506067214	-1.2293619162	 1.9393306637	 0.094278
58.7408	101.4224	117.5395	177.3453	222.6124	241.242	255.6769	267.2924	301.9478	319.7586	359.1401	425.4699	457.2911	489.4457	635.1502	746.763	834.786	873.5795	901.3483	926.8875	932.5664	970.701	1007.8906	1026.6031	1056.3015	1080.0079	1089.4439	1100.2113	1156.2629	1179.2029	1198.084	1233.9249	1243.6216	1246.5017	1263.6933	1284.8818	1290.0073	1310.7281	1338.0043	1369.4847	1404.9859	1454.4667	1461.0016	1476.1971	1489.5681	1494.6414	1503.647	1517.4307	1520.5005	2950.6084	2957.1432	2976.9621	2989.6558	3023.5458	3044.4377	3049.6331	3058.3103	3086.5236	3097.2342	3112.0727	3114.3599	3828.8612	3834.2526
CC1(CO)CC(CO)C1	C[C@@]1(CO)C[C@@H](CO)C1	
InChI=1S/C7H14O2/c1-7(5-9)2-6(3-7)4-8/h6,8-9H,2-5H2,1H3	InChI=1S/C7H14O2/c1-7(5-9)2-6(3-7)4-8/h6,8-9H,2-5H2,1H3/t6-,7-
