21
gdb 96618	2.58385	1.08472	0.86821	1.9943	83.17	-0.2388	-0.0495	0.1892	1438.4999	0.179908	-420.443093	-420.432059	-420.431114	-420.479419	39.352	
C	-0.079035862	 1.4171730323	 0.0598109689	-0.343526
N	-0.0207199188	-0.0321026627	 0.0578818328	-0.274881
C	 0.6019979501	-0.5917293053	-0.911803962	 0.274382
N	 1.2565848584	 0.0038315852	-1.9532846929	-0.548653
C	 0.6882174609	-2.1097259498	-0.955368486	 0.355568
O	 1.2493000446	-2.6342934244	-1.8971435515	-0.342004
C	 0.0355909415	-2.8997869774	 0.1656527059	-0.056153
C	-1.4671546321	-3.0589749555	-0.1569031495	-0.393341
C	 0.7221302637	-4.2565036115	 0.3488849139	-0.393175
H	 0.9246385092	 1.8707715046	 0.0457747491	 0.118462
H	-0.6265606389	 1.8129506412	-0.8119120795	 0.110093
H	-0.5959320039	 1.764392662	 0.9573359505	 0.127349
H	 1.0522493845	 0.9563814856	-2.1992946525	 0.258032
H	 1.5584770208	-0.6221738099	-2.6852029073	 0.270378
H	 0.111965509	-2.2985627968	 1.0752945877	 0.110244
H	-1.9525549643	-2.0846600469	-0.2459813535	 0.133663
H	-1.6086122159	-3.6127795277	-1.0912439832	 0.121425
H	-1.9600613122	-3.6166287211	 0.6453519488	 0.11797
H	 1.7761475937	-4.1383830264	 0.61781757	 0.115795
H	 0.2294197598	-4.8244931601	 1.1436767515	 0.107891
H	 0.6799894819	-4.8405993754	-0.5742263912	 0.130482
46.6629	73.8126	146.5564	157.6383	171.7974	201.4508	233.3135	258.0114	288.5636	307.1876	322.4596	374.841	420.4043	505.4907	554.5998	609.9212	673.4068	750.9721	814.8115	882.8317	935.3496	970.9003	988.8623	1065.6859	1093.2996	1106.5138	1117.3283	1127.884	1194.2141	1203.4408	1324.4535	1338.1523	1381.3056	1397.9635	1415.3444	1431.0296	1486.3864	1488.9717	1489.6703	1500.1355	1501.0512	1513.4137	1595.5986	1722.517	1777.8167	2960.4991	3007.7238	3036.2551	3042.4215	3080.9727	3105.619	3106.3013	3109.6668	3124.073	3130.5709	3583.8658	3720.6557
CN=C(N)C(=O)C(C)C	CN=C(N)C(=O)C(C)C	
InChI=1S/C6H12N2O/c1-4(2)5(9)6(7)8-3/h4H,1-3H3,(H2,7,8)	InChI=1S/C6H12N2O/c1-4(2)5(9)6(7)8-3/h4H,1-3H3,(H2,7,8)
