15
gdb 27840	2.05374	1.79673	0.95939	6.2416	75.62	-0.1957	-0.0104	0.1853	1147.6546	0.113628	-454.021917	-454.013822	-454.012877	-454.054106	31.754	
N	 0.0614666928	 1.3504381284	 0.1723948536	-0.560932
C	-0.0581458392	-0.0092607515	 0.0585041546	 0.472649
C	-1.2380675621	-0.6941180659	 0.0031415561	-0.36199
C	-1.1821427872	-2.1159276182	-0.0510379232	 0.414071
N	-2.3603809351	-2.8141304208	-0.1531852879	-0.582464
C	 0.0367677791	-2.7637480275	-0.0466663167	-0.399197
C	 1.2666587923	-2.0594050947	-0.0002095971	 0.418921
O	 2.3999074551	-2.4577268885	 0.0037325956	-0.360929
O	 1.1262404032	-0.6128313875	 0.0536095604	-0.265532
H	 0.9654012811	 1.7214093548	-0.0776257403	 0.270314
H	-0.7260948184	 1.9049191329	-0.1215493311	 0.263545
H	-2.1814929839	-0.164332416	-0.0009182382	 0.081605
H	-3.2014933722	-2.3559685224	 0.1577228728	 0.255679
H	-2.3283393782	-3.8015003848	 0.0443718612	 0.260005
H	 0.1047429627	-3.8432485584	-0.0882083698	 0.094256
153.6652	177.5859	199.5016	310.135	349.8804	371.6715	401.7674	456.5156	468.0372	480.4882	527.5409	578.642	621.1993	657.947	689.8934	729.832	751.9928	798.4295	814.5692	991.9376	1041.4346	1082.0567	1112.3848	1171.5957	1246.0027	1320.2381	1437.409	1514.3851	1573.8665	1634.5809	1658.9381	1684.3338	1858.207	3207.5567	3209.4819	3590.1572	3593.5401	3702.9919	3706.642
NC1=CC(N)=CC(=O)O1	Nc1cc(N)cc(=O)o1	
InChI=1S/C5H6N2O2/c6-3-1-4(7)9-5(8)2-3/h1-2H,6-7H2	InChI=1S/C5H6N2O2/c6-3-1-4(7)9-5(8)2-3/h1-2H,6-7H2
