20
gdb 14048	4.22415	1.57578	1.48103	1.5721	74.01	-0.2418	0.0795	0.3213	948.2687	0.179068	-348.999261	-348.991724	-348.99078	-349.0318	28.607	
C	 0.0969289554	 1.6671368067	-0.1332004152	-0.207665
C	 1.6160571216	 1.443803928	 0.097181719	-0.261939
C	 1.2953257656	 0.0072518168	 0.612552032	 0.36543
C	-0.11240543	 0.1308287037	-0.0289280362	-0.29085
C	 2.237541077	-1.1433352409	 0.2352879062	-0.33012
C	 3.209975362	-1.2266153806	 1.4359006265	-0.066356
O	 2.6738925264	-0.3873568583	 2.4626903202	-0.257836
C	 1.3229764666	-0.104193543	 2.1392769548	-0.124422
H	-0.3741282336	 2.2035353614	 0.6949237612	 0.103671
H	-0.2012805985	 2.1493213156	-1.0666350663	 0.0971
H	 2.1726646002	 1.4221007585	-0.8450203006	 0.093857
H	 2.1340379446	 2.1130288013	 0.7894378722	 0.10373
H	-0.9586706193	-0.2281621402	 0.5650942413	 0.09446
H	-0.1561797716	-0.3470722908	-1.0123061191	 0.099265
H	 1.6672160915	-2.0735602841	 0.1342753037	 0.102626
H	 2.7523363658	-0.9704283789	-0.7135095576	 0.100847
H	 3.3102824394	-2.257515926	 1.8031047684	 0.09272
H	 4.2130301943	-0.8576882934	 1.1957272639	 0.104476
H	 1.0375308655	 0.8142486858	 2.661568095	 0.103815
H	 0.6509681473	-0.9146906116	 2.4747871306	 0.077189
39.3737	124.5631	159.6728	250.9349	365.2846	379.8508	465.5459	667.6985	705.6794	744.0675	791.9139	834.3128	874.8528	907.8481	937.8537	942.5615	947.7343	967.3508	991.7684	1000.2747	1070.3235	1097.0594	1143.6352	1175.1661	1201.7008	1205.9759	1222.6459	1234.4933	1253.5395	1259.5693	1274.2663	1300.4649	1306.2181	1315.6024	1361.5985	1402.1707	1475.6169	1485.0369	1490.8683	1504.5591	1516.7005	1532.0735	2940.6433	3002.1788	3041.5595	3043.5693	3048.7979	3056.3497	3062.561	3075.8855	3089.2818	3095.882	3098.4706	3118.2067
C1CC2(C1)CCOC2	C1CC2(C1)CCOC2	
InChI=1S/C7H12O/c1-2-7(3-1)4-5-8-6-7/h1-6H2	InChI=1S/C7H12O/c1-2-7(3-1)4-5-8-6-7/h1-6H2
