17
gdb 116984	3.99668	0.49995	0.46936	3.6982	75.51	-0.269	0.0004	0.2694	2250.3938	0.132897	-458.943677	-458.933159	-458.932215	-458.982992	34.361	
O	-0.4928201932	 1.2296927545	 0.0086119457	-0.413648
C	-0.4327561039	-0.1337219843	-0.3683456243	-0.064914
C	-0.9634907241	-0.9419165189	 0.8220251077	-0.326087
C	-0.9509900307	-2.3769734005	 0.5777875883	 0.022273
C	-0.9278559249	-3.5594366278	 0.3514122927	 0.118273
C	-0.9209316867	-4.9900644344	 0.0849917836	-0.250493
O	-1.8503303494	-5.3680740067	-0.9511532495	-0.16717
C	-3.1360505891	-5.5251381331	-0.5754074893	 0.182287
O	-4.0016570135	-5.7985429055	-1.3497932629	-0.268982
H	-0.1910883685	 1.7631273217	-0.7321870138	 0.292069
H	-1.0494101444	-0.3422206006	-1.2548633345	 0.105551
H	 0.5956802886	-0.4514287446	-0.5960131212	 0.100448
H	-0.3550760688	-0.7042733525	 1.7030822155	 0.144681
H	-1.9813728541	-0.6025849052	 1.0482442015	 0.145236
H	 0.0545335194	-5.3199543989	-0.281720966	 0.156533
H	-1.1375006468	-5.5566272412	 1.0003434275	 0.141346
H	-3.2889873399	-5.385562972	 0.512455129	 0.082597
9.4244	37.206	77.6279	91.4905	125.6738	184.8148	238.8806	264.7711	322.8039	358.5659	380.117	456.4456	546.2989	683.9644	791.6144	808.1189	986.2889	999.6919	1026.112	1044.7349	1084.0555	1086.94	1147.9419	1168.7981	1221.173	1239.578	1296.6872	1303.9022	1331.7066	1390.5396	1433.3807	1455.7546	1473.1028	1485.1369	1528.3125	1870.9528	2369.3287	2950.8431	2985.4458	3017.5052	3022.8422	3034.2683	3072.4783	3094.271	3835.6256
OCCC#CCOC=O	OCCC#CCOC=O	
InChI=1S/C6H8O3/c7-4-2-1-3-5-9-6-8/h6-7H,2,4-5H2	InChI=1S/C6H8O3/c7-4-2-1-3-5-9-6-8/h6-7H,2,4-5H2
