12
gdb 131914	4.48616	1.17603	0.93215	5.5525	66.3	-0.2455	-0.0818	0.1637	1131.0069	0.078106	-505.890361	-505.883028	-505.882084	-505.922535	26.546	
N	 0.1358305793	 1.259975836	 0.1398533197	-0.584138
C	-0.0088356695	-0.0798034233	 0.0515614087	 0.507253
N	-1.1306166919	-0.7607684806	 0.0209519375	-0.331635
C	-0.7162337424	-2.0702648241	-0.0090354045	-0.122827
C	 0.6415365273	-2.1114670264	 0.0006255466	 0.399621
O	 1.1161691381	-0.8202369658	 0.0398214033	-0.179451
N	 1.5733526057	-3.1737227049	-0.0295753901	 0.321071
O	 1.0934304257	-4.3070975709	-0.0609871517	-0.381685
O	 2.7681585387	-2.8942618899	-0.0232461469	-0.370791
H	 1.0255904483	 1.6563910705	-0.1149032833	 0.286063
H	-0.6856557659	 1.8060485013	-0.0617467112	 0.289087
H	-1.4014879033	-2.901166892	-0.039114258	 0.167432
91.6308	152.5049	187.6347	319.8743	360.0149	390.8579	421.7645	447.8916	561.6462	591.655	747.3273	759.161	775.4709	830.6067	922.3819	990.0113	998.8122	1066.7753	1188.5562	1246.3964	1279.4622	1407.4569	1451.3119	1578.0303	1593.8876	1618.9171	1682.6883	3285.3581	3608.0575	3728.5557
NC1=NC=C(O1)N(=O)=O	Nc1ncc(o1)N(=O)=O	
InChI=1S/C3H3N3O3/c4-3-5-1-2(9-3)6(7)8/h1H,(H2,4,5)	InChI=1S/C3H3N3O3/c4-3-5-1-2(9-3)6(7)8/h1H,(H2,4,5)
