20
gdb 61944	5.5253	0.58757	0.5528	3.3272	86.23	-0.2691	0.0306	0.2997	1937.7694	0.168462	-366.005049	-365.994524	-365.993579	-366.041451	37.409	
C	-0.0483290835	 1.6121007516	-0.0859758277	-0.404533
C	 0.0012327902	 0.0815538286	 0.0024710314	 0.02152
C	 0.7582136704	-0.4280739029	 1.2405119635	-0.182212
C	 2.254817122	-0.0529015541	 1.2585238992	-0.37505
C	 2.957681407	-0.6310944217	 2.3972845302	 0.290371
C	 3.5111956141	-1.119815868	 3.3455612907	-0.42753
C	-1.4273560774	-0.5188051251	 0.0120332693	-0.352033
C	-2.1907166932	-0.206441376	-1.1942497453	 0.263823
N	-2.77706303	 0.0474590952	-2.1573633205	-0.312322
H	 0.9518113677	 2.0416521699	-0.1851815565	 0.125588
H	-0.6317812049	 1.9360798184	-0.9524185416	 0.145666
H	-0.5102871738	 2.0403886536	 0.8116650487	 0.118809
H	 0.5076751627	-0.3026595489	-0.8929784516	 0.096771
H	 0.2828520655	-0.0406044806	 2.1504909998	 0.11195
H	 0.6800323494	-1.5202104359	 1.2920052976	 0.111142
H	 2.7266662296	-0.3920934913	 0.3266092428	 0.133101
H	 2.3714554944	 1.0368575125	 1.279794581	 0.137409
H	 4.0133486562	-1.5453270531	 4.178715812	 0.196915
H	-1.3782294345	-1.6088046997	 0.1136918847	 0.150278
H	-1.9833971317	-0.1456670325	 0.8812343026	 0.150337
49.3828	70.2488	93.5473	105.6875	156.5722	236.3129	260.8689	310.4735	344.6706	390.7985	398.8294	411.0876	507.009	589.6284	621.8466	643.3848	763.7467	841.6946	888.0487	920.3872	955.5061	960.4144	977.839	1040.2034	1106.3032	1124.1629	1140.8474	1203.0484	1255.2096	1275.1846	1316.193	1320.9625	1364.4617	1378.1971	1389.7031	1419.7004	1463.0974	1473.2153	1491.8625	1498.3599	1507.0963	2240.5748	2360.0542	3017.5571	3018.458	3030.2177	3033.4378	3039.6876	3052.5595	3075.0378	3080.8334	3104.9693	3120.2718	3506.8003
CC(CCC#C)CC#N	C[C@@H](CCC#C)CC#N	
InChI=1S/C8H11N/c1-3-4-5-8(2)6-7-9/h1,8H,4-6H2,2H3	InChI=1S/C8H11N/c1-3-4-5-8(2)6-7-9/h1,8H,4-6H2,2H3/t8-/m0/s1
