15
gdb 128909	7.31326	0.73718	0.68033	2.8553	71.01	-0.2738	-0.0073	0.2666	1529.3812	0.115287	-413.034036	-413.02601	-413.025065	-413.068511	27.841	
N	 0.0457872199	-1.1845419465	-0.0567033149	-0.30078
C	 0.0137527894	-0.031030086	-0.1146390688	 0.256954
C	-0.003577955	 1.427674363	-0.1775109659	-0.328468
C	 1.3587875513	 2.0359696275	 0.2146371586	-0.332721
C	 1.3370839999	 3.5255147049	 0.079671957	 0.399803
N	 0.5927371822	 4.2255811622	-0.759461213	-0.315313
C	 0.9658899681	 5.5117424548	-0.5062163387	 0.026032
N	 1.8862411608	 5.6563729482	 0.4301034535	-0.206124
N	 2.1103514837	 4.3699386133	 0.7961980475	-0.25524
H	-0.2678501687	 1.7503180474	-1.1884791092	 0.185433
H	-0.790461515	 1.8052212568	 0.4833171783	 0.164221
H	 1.6171916501	 1.7515293564	 1.2398485006	 0.135245
H	 2.1382702187	 1.6152512968	-0.431683329	 0.155952
H	 0.5450472301	 6.3603210223	-1.024072799	 0.133011
H	 2.7842900146	 4.1665617088	 1.5166585029	 0.281994
30.3753	59.7318	108.0686	208.1266	283.7436	380.2568	399.3442	521.7809	563.0719	697.3324	700.6984	762.7249	785.9569	912.7248	951.719	981.6226	1030.9285	1034.0932	1053.4337	1130.0856	1184.391	1210.3259	1245.8927	1299.1848	1310.117	1322.7118	1390.9794	1423.5643	1465.2113	1481.1462	1502.9589	1587.6818	2365.5869	3039.8273	3066.4548	3079.2211	3111.7348	3264.4107	3658.0473
N#CCCC1=NC=NN1	N#CCCc1ncn[nH]1	
InChI=1S/C5H6N4/c6-3-1-2-5-7-4-8-9-5/h4H,1-2H2,(H,7,8,9)	InChI=1S/C5H6N4/c6-3-1-2-5-7-4-8-9-5/h4H,1-2H2,(H,7,8,9)
