21
gdb 61943	5.4877	0.58776	0.55335	0.195	91.55	-0.2582	0.0502	0.3084	1971.9084	0.178613	-349.896387	-349.885482	-349.884538	-349.932954	39.563	
C	-0.0877725584	 1.621143617	 0.0627364088	-0.395973
C	-0.0058408397	 0.0911733356	-0.0055061237	 0.028214
C	 0.7039644889	-0.4147785224	-1.2722843735	-0.17572
C	-0.0239573208	-0.0608999101	-2.5861764185	-0.375804
C	 0.6267394085	-0.6350351164	-3.7577869468	 0.292808
C	 1.1840085383	-1.119677379	-4.7062322903	-0.432636
C	 0.7128283449	-0.4813070179	 1.2434081842	-0.368872
C	 0.0292208431	-0.195572984	 2.4989986132	 0.298614
C	-0.5545005165	 0.0415322184	 3.5231084659	-0.439787
H	 0.9125833201	 2.0677088912	 0.0059080066	 0.112779
H	-0.6851886838	 2.0342425518	-0.754746138	 0.116341
H	-0.5454605957	 1.9408712968	 1.0026728648	 0.133302
H	-1.0283287323	-0.3106388901	-0.0009386461	 0.085128
H	 1.7239400414	-0.0115390379	-1.311503612	 0.10747
H	 0.8056348432	-1.5051127657	-1.2218479609	 0.106983
H	-1.0618327725	-0.4165272811	-2.5341856709	 0.129742
H	-0.0813645693	 1.0273706931	-2.7052365951	 0.134532
H	 1.666512807	-1.5420796936	-5.5522831056	 0.193272
H	 0.81765972	-1.5680930517	 1.1323741678	 0.127958
H	 1.7350582202	-0.0799463055	 1.2841704693	 0.127896
H	-1.0600462166	 0.2457921117	 4.4341100808	 0.193752
49.0971	70.0702	93.4421	106.0587	154.9813	234.7857	259.5323	310.8498	344.8761	351.6618	378.7111	411.0919	497.507	576.2298	614.8929	616.7449	636.7083	637.9935	762.6989	842.188	889.4012	922.7891	955.5119	959.4594	986.749	1040.225	1106.1345	1121.9803	1139.7325	1200.9952	1254.3376	1273.4908	1315.4133	1320.6434	1362.5073	1378.6372	1386.8376	1414.9807	1466.8078	1473.6604	1492.4118	1497.3563	1507.1198	2235.92	2239.0095	3007.8052	3014.9883	3017.193	3028.4798	3032.9259	3047.3994	3051.8574	3076.0073	3100.4506	3118.6511	3506.5394	3507.6663
CC(CCC#C)CC#C	C[C@@H](CCC#C)CC#C	
InChI=1S/C9H12/c1-4-6-8-9(3)7-5-2/h1-2,9H,6-8H2,3H3	InChI=1S/C9H12/c1-4-6-8-9(3)7-5-2/h1-2,9H,6-8H2,3H3/t9-/m1/s1
