15
gdb 29434	5.02915	0.87377	0.75784	1.8411	72.09	-0.1912	0.0079	0.1992	1412.5935	0.112388	-453.96152	-453.952895	-453.951951	-453.995397	31.168	
O	 0.6155495201	 1.1650163265	 0.2408624462	-0.447938
C	 0.2065204695	-0.1169181426	 0.0167885741	 0.338404
C	-0.298219373	-0.5628794087	-1.1795408458	-0.175695
N	-0.5888088365	-1.9101054585	-1.0158481648	-0.310687
C	-0.2827308651	-2.2868947481	 0.2518423585	 0.410064
O	-0.5395735887	-3.5733452111	 0.6219454712	-0.211032
C	 0.4239815221	-4.2255915764	 1.3328340691	 0.108368
N	 0.155431366	-5.3429781399	 1.8443688411	-0.427272
C	 0.2182320832	-1.2054216798	 0.9423733334	-0.4241
H	 0.859620669	 1.2516988053	 1.1663363578	 0.297429
H	-0.4767820397	-0.0494974013	-2.1075585737	 0.125208
H	-0.9734247326	-2.525818861	-1.7103541585	 0.271967
H	 1.3674533198	-3.6696160272	 1.3678266643	 0.108577
H	 0.9765436439	-5.7150620522	 2.3171388421	 0.237021
H	 0.517497882	-1.1866762049	 1.9786231149	 0.099686
57.7294	111.6472	138.7609	169.6654	270.2794	315.6122	366.1132	432.887	448.7968	505.4782	611.7557	660.824	674.0294	683.9572	745.4518	805.0885	830.5123	985.8356	1004.2383	1053.2014	1059.2417	1113.925	1167.9233	1201.3915	1263.6597	1315.3642	1334.8394	1401.3255	1456.263	1506.2933	1564.7881	1659.0198	1747.8221	3065.4347	3249.7782	3291.151	3521.9468	3691.9673	3848.693
OC1=CNC(OC=N)=C1	Oc1c[nH]c(O[CH][NH])c1	
InChI=1S/C5H6N2O2/c6-3-9-5-1-4(8)2-7-5/h1-3,6-8H	InChI=1S/C5H6N2O2/c6-3-9-5-1-4(8)2-7-5/h1-3,6-8H
