16
gdb 33947	3.48504	1.4354	1.24716	0.9316	74.97	-0.2326	0.0108	0.2433	1018.3986	0.124265	-400.666486	-400.659266	-400.658322	-400.697895	28.972	
C	-0.0433800103	-1.1721252701	-0.0993372367	-0.335552
C	 0.024442788	 0.0236736651	-0.0012912791	 0.16908
C	 0.0686028085	 1.4479814417	 0.1495479838	 0.264762
O	 0.3128747285	 2.2363997489	-1.0374331528	-0.294725
C	 1.2841913704	 2.2859681749	 0.0083069167	-0.039536
C	 1.1404470625	 3.4752472396	 0.9436215957	-0.198399
N	-0.1686590724	 3.3711254663	 1.6269810981	-0.10809
C	-1.3648720143	 3.4730548278	 0.7804401535	-0.240989
C	-0.833524281	 2.1377718378	 1.157708792	-0.121877
H	-0.0946650176	-2.228534452	-0.1966564154	 0.195592
H	 2.261685723	 1.8757198746	-0.2375504403	 0.110641
H	 1.9281364301	 3.4359165328	 1.7046904993	 0.119495
H	 1.2298967933	 4.4296893042	 0.4145652413	 0.125072
H	-2.2383242167	 3.8676185642	 1.2925296453	 0.115273
H	-1.2518653926	 3.7707025716	-0.2567012484	 0.138004
H	-1.3145298292	 1.5072410327	 1.898369457	 0.10125
134.7798	150.1417	277.0815	314.9843	413.8895	465.2364	498.5899	524.2248	610.9318	623.5161	676.5435	702.9471	711.432	789.5494	823.4423	872.6673	904.8365	955.7101	974.4542	1022.5605	1056.6544	1083.6977	1109.1976	1126.068	1156.7959	1180.372	1233.2951	1273.7934	1278.2488	1330.419	1358.7297	1424.5477	1481.3185	1500.3378	2245.3394	3040.894	3085.5438	3114.9424	3138.7624	3166.1282	3211.9322	3501.384
C#CC12OC1CN1CC21	C#C[C@]12O[C@H]1CN1C[C@@H]21	
InChI=1S/C7H7NO/c1-2-7-5-3-8(5)4-6(7)9-7/h1,5-6H,3-4H2	InChI=1S/C7H7NO/c1-2-7-5-3-8(5)4-6(7)9-7/h1,5-6H,3-4H2/t5-,6-,7+,8?/m0/s1
