18
gdb 37222	3.30647	1.59778	1.29197	1.8177	78.33	-0.224	0.0082	0.2322	1004.7056	0.149854	-401.884048	-401.877003	-401.876058	-401.915454	28.405	
C	-0.0412615414	 1.3071448582	 0.118271958	-0.060607
C	 1.2673827073	 2.1283557915	 0.1585500792	-0.266574
C	 2.2558097415	 1.4262215797	 1.0697576632	-0.24419
C	 2.2180969639	 0.1048180395	 1.0001544678	 0.332122
C	 2.4531649072	-1.1424329834	 1.8026655564	-0.187272
N	 1.0965893496	-1.4171755969	 2.3874321674	-0.32587
C	 1.3973838394	-1.8623495898	 1.0126883134	-0.104482
C	 1.3178582246	-0.652496685	 0.0495795725	 0.097781
O	 0.127269982	-0.0288675714	-0.3616918864	-0.278456
H	-0.4728104106	 1.2909378454	 1.1285722244	 0.108657
H	-0.7660213508	 1.7670543033	-0.5607445263	 0.100815
H	 1.6577688087	 2.2547165843	-0.8601566393	 0.114308
H	 1.0387537054	 3.1314466121	 0.5344484762	 0.106067
H	 2.8413998068	 1.9832343925	 1.7942371452	 0.093735
H	 3.3505064732	-1.5229945286	 2.2714457796	 0.103064
H	 1.1969420618	-2.2390951209	 2.986114748	 0.229224
H	 1.3372398302	-2.9080198301	 0.7377980488	 0.093644
H	 1.8829254013	-0.9403674603	-0.8512035782	 0.088033
104.4538	175.3639	255.803	318.9019	403.4683	461.7267	538.6493	581.6082	658.8169	693.6561	778.8447	825.6258	837.5383	859.461	871.5378	892.061	949.3316	956.8963	1017.4275	1018.178	1033.357	1077.7635	1094.5301	1103.5205	1114.7312	1134.6901	1199.5174	1221.8288	1269.116	1287.4744	1304.4209	1316.322	1337.1785	1367.6813	1373.6813	1411.8477	1469.9936	1504.4535	1774.0509	2976.6472	3008.17	3019.8497	3074.2906	3079.2095	3175.0172	3191.8805	3211.5071	3446.2326
C1CC=C2C3NC3C2O1	C1C[CH][C]2[C@H]3N[C@H]3[C@H]2O1	
InChI=1S/C7H9NO/c1-2-4-5-6(8-5)7(4)9-3-1/h2,5-8H,1,3H2	InChI=1S/C7H9NO/c1-2-4-5-6(8-5)7(4)9-3-1/h2,5-8H,1,3H2/t5-,6-,7+/m1/s1
