13
gdb 133208	3.0815	1.39906	0.968	5.2962	65.08	-0.2698	-0.0841	0.1857	1114.5927	0.08732	-497.855548	-497.84794	-497.846996	-497.887885	27.844	
C	-0.2205955486	 1.5427514386	 0.0405856069	-0.471909
C	 0.0177323777	 0.0594722694	 0.0002636072	 0.3612
N	 0.0986881366	-0.4707672155	-1.1768075265	-0.121919
O	 0.319403198	-1.8451821918	-1.2479097721	-0.261447
C	 0.4584169061	-2.6848931924	-0.1632047254	 0.372011
O	 0.6459598041	-3.8561963272	-0.3359613971	-0.320872
C	 0.3549613787	-2.0123945014	 1.1355718842	 0.169043
F	 0.4836114589	-2.7889874019	 2.1904906923	-0.028389
C	 0.142908632	-0.6914772111	 1.2250017298	-0.292193
H	 0.5944913079	 2.0496059398	 0.568345641	 0.145752
H	-0.2876472879	 1.9368176726	-0.97381498	 0.161613
H	-1.149707747	 1.7691817324	 0.5747000975	 0.145752
H	 0.0670783735	-0.1981911613	 2.1872493422	 0.141358
100.3004	161.0326	192.2358	286.0306	318.9014	344.9252	414.8684	465.0003	500.9644	586.5112	624.2305	678.4754	777.0817	806.3605	918.746	938.8849	998.5826	1050.9089	1063.0783	1120.5622	1183.7229	1368.0725	1397.1756	1415.2134	1472.8074	1479.9038	1611.2557	1711.9202	1847.2061	3040.2865	3097.5158	3154.5788	3201.8909
CC1=NOC(=O)C(F)=C1	Cc1noc(=O)c(F)c1	
InChI=1S/C5H4FNO2/c1-3-2-4(6)5(8)9-7-3/h2H,1H3	InChI=1S/C5H4FNO2/c1-3-2-4(6)5(8)9-7-3/h2H,1H3
