17
gdb 96937	3.3212	1.28719	1.22184	2.9524	71.	-0.2168	0.049	0.2658	1091.9703	0.135842	-455.125976	-455.117289	-455.116344	-455.159908	31.371	
C	-0.2975098866	 1.4652502796	 0.1351532942	-0.326406
N	-0.2594749987	 0.0161393015	 0.1817076965	-0.358475
C	 0.5633810423	-0.5621620771	 0.934385929	 0.494107
N	 0.6971968252	-1.9430992132	 1.0749688353	-0.354555
C	 1.8917243235	-2.2592130819	 1.7954052817	-0.084676
C	 3.2023741756	-1.6624467201	 1.2846582853	 0.062249
O	 3.2612871781	-1.235868988	-0.0345003052	-0.417248
C	 2.3564581865	-0.9168921472	 2.2933249284	-0.000822
O	 1.4805892601	 0.0557142658	 1.7715906882	-0.259783
H	 0.5903138851	 1.9506310277	 0.5599674818	 0.110278
H	-0.4080623832	 1.7890643934	-0.9055918684	 0.117321
H	-1.1757209014	 1.8379444582	 0.6779734415	 0.121021
H	 0.4652751002	-2.4682047539	 0.2450266739	 0.263111
H	 1.884203094	-3.1565837212	 2.4028766929	 0.113591
H	 4.1134960541	-2.115179264	 1.6760887339	 0.100876
H	 3.3887793756	-0.2806797957	-0.0434051043	 0.301313
H	 2.6910147996	-0.6947218538	 3.2987329553	 0.118099
60.101	95.1127	123.2302	196.2289	229.0685	256.1697	269.4432	497.4094	516.6611	568.7326	663.1472	709.3739	742.2723	772.9689	778.1804	801.445	876.0057	970.2305	1053.092	1055.876	1080.7922	1091.4586	1128.3876	1133.6962	1141.9029	1169.2225	1220.5279	1238.0375	1332.5327	1358.3783	1364.6997	1395.0581	1430.8947	1446.543	1495.0443	1502.1038	1823.8315	3004.8573	3058.732	3076.3317	3104.5747	3176.8468	3195.1098	3623.1104	3800.1438
CN=C1NC2C(O)C2O1	CN=C1N[C@H]2[C@@H](O)[C@H]2O1	
InChI=1S/C5H8N2O2/c1-6-5-7-2-3(8)4(2)9-5/h2-4,8H,1H3,(H,6,7)	InChI=1S/C5H8N2O2/c1-6-5-7-2-3(8)4(2)9-5/h2-4,8H,1H3,(H,6,7)/t2-,3+,4-/m0/s1
