15
gdb 128330	2.26126	1.56792	0.93287	4.0206	75.96	-0.2142	-0.0149	0.1993	1186.7568	0.114965	-413.025369	-413.017	-413.016056	-413.058676	30.069	
C	-0.0413311757	 1.4263630332	-0.0581593793	-0.319645
N	 0.1608495755	-0.0084179021	 0.0386563041	-0.387425
C	 0.6619004365	-0.7012692311	-1.0278121377	 0.373208
N	 1.2277173469	-0.0995869638	-2.0696372589	-0.3153
N	 1.640419573	-1.1267873765	-2.8660542457	-0.1923
C	 1.3471219539	-2.3393243372	-2.3794577584	-0.109503
C	 0.7002480963	-2.1293803589	-1.1697130207	 0.030445
C	 0.1822026799	-3.0788874136	-0.2671242165	 0.182731
N	-0.2669134491	-3.8197983781	 0.5042087514	-0.366721
H	 0.9076526565	 1.9145347974	-0.2937821746	 0.150907
H	-0.7646370576	 1.7061498347	-0.836998974	 0.12302
H	-0.3940615709	 1.7966614537	 0.9064801768	 0.126166
H	-0.4998803431	-0.5193790988	 0.6025533246	 0.25738
H	 2.1071694087	-0.9073639941	-3.7288671352	 0.284539
H	 1.6007957892	-3.2529928148	-2.8923619157	 0.162498
101.911	116.4075	140.6497	176.3741	227.8256	331.5381	400.9609	466.1233	472.5298	552.8158	556.4478	627.4229	640.3123	747.3366	774.5397	812.7468	938.1424	1068.7721	1074.687	1137.5499	1158.8661	1195.8516	1249.8706	1337.674	1357.6321	1450.7689	1479.0358	1482.6384	1501.171	1517.3906	1590.0284	1623.3835	2333.6546	3006.1385	3091.5444	3135.1901	3271.7872	3629.3245	3686.6309
CNC1=NNC=C1C#N	CNc1n[nH]cc1C#N	
InChI=1S/C5H6N4/c1-7-5-4(2-6)3-8-9-5/h3H,1H3,(H2,7,8,9)	InChI=1S/C5H6N4/c1-7-5-4(2-6)3-8-9-5/h3H,1H3,(H2,7,8,9)
