20
gdb 101862	5.40987	0.56206	0.53283	5.6348	77.52	-0.2745	0.0097	0.2842	2013.516	0.168095	-440.278261	-440.267382	-440.266438	-440.315545	37.082	
C	-0.0410678113	 1.5666675516	-0.0203820629	-0.389859
C	-0.0347118446	 0.0347820291	 0.0284073786	 0.011209
C	 0.7379894498	-0.4907371035	 1.2398485445	-0.078995
O	 2.0832114147	-0.0576659906	 1.1201160649	-0.420008
C	-1.4488157391	-0.5393531899	 0.0274653415	-0.061639
O	-2.0912168528	-0.1556503864	-1.179632366	-0.239918
C	-3.415606556	-0.6123862221	-1.2512122833	-0.183722
C	-4.010900897	-0.1778522286	-2.5189594023	 0.264203
N	-4.5085671554	 0.1489685351	-3.5079164612	-0.291398
H	 0.9815167037	 1.9483969436	-0.0251738087	 0.135764
H	-0.559555518	 1.9232906053	-0.9127665931	 0.132215
H	-0.5532716143	 1.9802736047	 0.8576074108	 0.102811
H	 0.47256293	-0.3464393442	-0.8670602368	 0.101095
H	 0.2777800705	-0.1085493942	 2.1668855927	 0.084758
H	 0.6793979261	-1.5912276579	 1.272774879	 0.083902
H	 2.5592308072	-0.3254444367	 1.9111953949	 0.289179
H	-1.4251752625	-1.6394943468	 0.1025465195	 0.09149
H	-2.0216449782	-0.1617376705	 0.8924592302	 0.091262
H	-3.4715118026	-1.7126146591	-1.1977104547	 0.138564
H	-4.0286340601	-0.2181294088	-0.4235180476	 0.139087
38.8563	78.6471	79.9501	118.9846	125.6234	199.7754	227.595	249.2966	289.1583	311.6789	375.4616	386.6063	429.482	540.5536	583.9507	846.7124	926.9988	939.1844	945.2292	973.9344	1022.2079	1036.6941	1080.761	1120.2382	1157.2466	1172.8678	1178.3915	1242.0216	1252.6241	1267.7146	1286.0106	1318.5146	1383.1957	1387.3159	1403.4508	1445.7593	1464.8504	1493.0298	1499.5059	1501.6123	1518.2809	1526.6906	2374.499	2945.6181	2955.0518	2967.0858	2976.4292	2984.5021	2990.2135	3029.6972	3042.8815	3111.8245	3144.3725	3836.3437
CC(CO)COCC#N	C[C@@H](CO)COCC#N	
InChI=1S/C6H11NO2/c1-6(4-8)5-9-3-2-7/h6,8H,3-5H2,1H3	InChI=1S/C6H11NO2/c1-6(4-8)5-9-3-2-7/h6,8H,3-5H2,1H3/t6-/m0/s1
