16
gdb 44718	2.45568	1.70354	1.19733	2.7415	75.21	-0.2607	0.0178	0.2785	1034.7187	0.124085	-400.693869	-400.686137	-400.685192	-400.726414	29.694	
N	-0.130810925	 1.1795831392	-0.5654112161	-0.541766
C	-0.0697798018	 0.0218988521	-0.0935276128	 0.449181
O	 0.9579091027	-0.6246588144	 0.5819563936	-0.269115
C	 0.19355719	-1.8665273336	 0.6442339351	 0.103889
C	-0.5973853404	-1.9891219495	 1.9589495321	-0.259875
C	-1.8387533257	-1.3131020831	 1.2651295344	-0.192107
C	-2.4085421155	-0.1268094824	 1.8648922994	 0.342977
C	-2.8690316875	 0.8581578118	 2.377291773	-0.452913
C	-0.9986179071	-1.1673934636	-0.0617492676	-0.185624
H	 0.7290365486	 1.7014108713	-0.3869389177	 0.229946
H	 0.7636094219	-2.7082405553	 0.2535907271	 0.09905
H	-0.7920012748	-3.0149419097	 2.2778969889	 0.116853
H	-0.1596856125	-1.4264508727	 2.7838895721	 0.132307
H	-2.6235176598	-2.0572103649	 1.1011947778	 0.116952
H	-3.2759044054	 1.7348912018	 2.8169848423	 0.201216
H	-1.4699548277	-1.471533607	-0.9930682016	 0.109029
74.9214	105.5941	191.0433	252.6702	369.677	435.433	493.5234	498.8831	596.6917	630.9005	639.6012	706.6241	754.4568	808.0497	858.9807	870.4222	879.4585	921.9672	976.9757	1005.6402	1011.768	1040.7441	1080.3404	1126.1044	1173.1802	1190.0255	1203.27	1244.5514	1269.8167	1294.8155	1327.6649	1353.3117	1466.0898	1825.9097	2238.7753	3061.1822	3081.5613	3125.9945	3147.3528	3151.3442	3477.4628	3504.0733
N=C1OC2CC(C#C)C12	[NH][C]1O[C@H]2C[C@@H](C#C)[C@@H]12	
InChI=1S/C7H7NO/c1-2-4-3-5-6(4)7(8)9-5/h1,4-6,8H,3H2	InChI=1S/C7H7NO/c1-2-4-3-5-6(4)7(8)9-5/h1,4-6,8H,3H2/t4-,5+,6-/m1/s1
