19
gdb 41616	3.94475	1.2356	1.12509	1.9618	74.71	-0.2352	0.0747	0.3099	1124.0912	0.160821	-422.976247	-422.968711	-422.967767	-423.008776	29.115	
C	 0.0344525848	 1.4578086467	-0.0360252813	-0.095321
O	 1.4760636752	 1.4486165624	-0.2357005003	-0.284859
C	 1.505982514	 0.038424819	-0.0121746284	 0.039682
C	-0.0017368626	-0.0612448332	 0.1056353201	-0.217684
C	 0.7242759721	-0.6934079824	-1.0604344819	 0.320823
C	 0.6744782298	-0.2531756179	-2.5240010783	-0.330418
C	 0.9763261954	-1.5690470409	-3.2816694531	-0.077365
O	 1.5158354384	-2.476284567	-2.3253872124	-0.242609
C	 0.8515738646	-2.2120737685	-1.1035566365	-0.160185
H	-0.2158717045	 1.987869304	 0.8893065663	 0.112661
H	-0.501207953	 1.9089846765	-0.8793553761	 0.107602
H	 2.3288156449	-0.3711814141	 0.5641855335	 0.10607
H	-0.625485015	-0.6208561403	 0.791517899	 0.096874
H	-0.3015935669	 0.1522098158	-2.8078716146	 0.102239
H	 1.4224088263	 0.5205337988	-2.713085221	 0.127716
H	 0.0534706285	-1.9829947529	-3.7179636658	 0.089322
H	 1.7117969219	-1.4570769471	-4.0819769791	 0.111757
H	 1.4481239963	-2.6339972137	-0.2885144738	 0.10877
H	-0.1441545503	-2.6899999953	-1.0845852463	 0.084926
53.3205	176.8007	185.0135	232.1441	317.2162	390.835	465.1643	571.9724	677.4011	760.6212	775.9028	832.9411	853.287	891.8749	943.941	949.7899	965.2247	973.8547	995.7997	1017.5555	1039.048	1071.9598	1089.0424	1107.0062	1123.7637	1157.2492	1168.304	1226.8036	1228.5166	1245.2301	1265.8917	1272.7867	1289.8377	1336.8571	1355.5154	1399.6942	1429.9831	1497.6903	1508.6624	1515.1813	1525.0375	2943.4342	2976.8158	3026.9401	3054.5739	3073.1203	3076.8648	3090.6115	3107.6148	3168.0548	3189.3512
C1OC2C1C21CCOC1	C1O[C@H]2[C@@H]1[C@]12CCOC1	
InChI=1S/C7H10O2/c1-2-8-4-7(1)5-3-9-6(5)7/h5-6H,1-4H2	InChI=1S/C7H10O2/c1-2-8-4-7(1)5-3-9-6(5)7/h5-6H,1-4H2/t5-,6+,7+/m1/s1
