16
gdb 78966	2.5728	2.11715	1.56886	1.3162	65.73	-0.228	0.0659	0.2938	867.0284	0.124794	-437.78702	-437.780082	-437.779138	-437.817941	28.216	
O	 0.0876869311	 1.4769114281	 0.0965223499	-0.439303
C	 0.0188575801	 0.0783373538	 0.0350721468	 0.104301
C	 0.2397589196	-0.671510038	 1.3619563196	-0.115806
C	-0.9346651477	-0.2995616761	 2.2878902765	-0.015665
C	-2.0699884762	-0.2687208973	 1.3299402459	-0.141804
N	-1.7302664995	-1.5506893647	 2.0418685776	-0.181622
C	-0.7439160578	-1.794801683	 0.8878486724	-0.087146
C	-1.3496676134	-0.6334312173	 0.0097869548	 0.34473
O	-2.0272106086	-0.7178026728	-1.1928297836	-0.48535
H	-0.1790933643	 1.8285252703	-0.7592326147	 0.290856
H	 0.6624738564	-0.3440032913	-0.7531349007	 0.075302
H	 1.226922185	-0.8453537831	 1.7802982096	 0.08161
H	-0.9226599141	 0.1944302624	 3.2516396011	 0.099832
H	-3.0069494326	 0.2537675838	 1.4839827639	 0.094877
H	-0.483316036	-2.802279746	 0.574088844	 0.084945
H	-2.8655372421	-1.1710380789	-1.0487508931	 0.290243
179.4449	218.5531	285.4506	302.7377	330.0454	372.3075	575.6126	600.6448	649.0891	761.8159	773.0034	794.2994	819.96	844.7049	856.8736	902.1332	931.6157	953.0651	984.9752	1001.2658	1036.0903	1072.0592	1093.7295	1135.5803	1138.1608	1163.8446	1184.5993	1207.927	1234.4126	1281.1821	1292.2464	1325.6218	1352.3266	1393.055	1442.914	2986.6174	3150.6716	3162.1755	3179.4373	3193.0886	3799.2835	3815.513
OC1C2C3C4N3C2C14O	O[C@H]1[C@H]2[C@H]3[C@@H]4N3[C@H]2[C@]14O	
InChI=1S/C6H7NO2/c8-5-1-2-4-6(5,9)3(1)7(2)4/h1-5,8-9H	InChI=1S/C6H7NO2/c8-5-1-2-4-6(5,9)3(1)7(2)4/h1-5,8-9H/t1-,2-,3+,4-,5-,6+,7?/m0/s1
