18
gdb 34409	2.725	1.52014	1.28533	4.6281	75.36	-0.2745	0.0084	0.283	1043.2433	0.149674	-401.963282	-401.955664	-401.95472	-401.995387	29.509	
N	 0.0381211458	-1.1576640649	-0.1489200374	-0.341091
C	 0.0202467251	-0.0053780467	-0.0597832887	 0.239082
C	 0.0129418294	 1.4548392941	 0.0324730082	 0.299448
C	-0.8332123252	 2.1526411512	-1.0387993928	-0.252569
C	-0.2394796281	 3.5721916863	-1.0968517067	-0.227776
C	 1.2771838643	 3.3488609946	-0.9183533342	-0.226953
C	 1.3949281537	 2.19470667	 0.0859108007	-0.107498
C	 0.9947125697	 2.5083169238	 1.5408012022	-0.088836
O	-0.3112721713	 1.9062938715	 1.3668593344	-0.319179
H	-0.7020414454	 1.6332820799	-1.9948032928	 0.120478
H	-1.8941010471	 2.1234028516	-0.7785778677	 0.127949
H	-0.4833200785	 4.091543809	-2.0264665403	 0.10742
H	-0.6379014248	 4.1718713683	-0.2723508845	 0.120862
H	 1.7263562279	 3.0472214151	-1.8712336008	 0.112123
H	 1.8050288686	 4.2460260429	-0.580663982	 0.108636
H	 2.2916366362	 1.5884510622	-0.0344140892	 0.100786
H	 1.5784282742	 1.9841063078	 2.3057186646	 0.118054
H	 0.9187849855	 3.5693527635	 1.8050149871	 0.109064
107.1248	151.8703	191.7214	231.1665	353.0096	360.0459	496.5906	530.6084	557.0024	602.9953	636.5859	804.1527	834.7544	868.4301	895.5904	913.5947	962.1273	977.8755	999.0406	1017.1918	1059.1895	1080.5274	1130.5632	1147.2266	1166.4268	1170.2254	1218.4503	1231.8419	1276.5613	1315.1619	1329.0269	1342.2493	1347.7785	1369.885	1468.2427	1488.1011	1500.0802	1524.6051	2353.1027	3026.6341	3043.4384	3050.3931	3057.1624	3073.6095	3089.3357	3107.2334	3116.0005	3124.7175
N#CC12CCCC1CO2	N#C[C@]12CCC[C@H]1CO2	
InChI=1S/C7H9NO/c8-5-7-3-1-2-6(7)4-9-7/h6H,1-4H2	InChI=1S/C7H9NO/c8-5-7-3-1-2-6(7)4-9-7/h6H,1-4H2/t6-,7+/m0/s1
