18
gdb 23408	3.6036	1.25223	1.02681	1.2917	83.47	-0.2175	-0.0262	0.1914	1168.5005	0.14912	-401.914401	-401.906663	-401.905719	-401.946888	30.159	
O	-0.1306085036	 1.3439911876	-0.1470256599	-0.398245
N	 0.000118621	-0.0592246	-0.1066326341	-0.249825
C	-1.1321882679	-0.6289946001	 0.0656837025	 0.380819
C	-2.4677014781	-0.0482873468	 0.2366733098	-0.147633
C	-3.3718135987	-1.0115880342	 0.4734268281	-0.083726
C	-2.7668933861	-2.3869208367	 0.4951464722	-0.069693
C	-2.9629411929	-3.2404451378	-0.8008374113	-0.227168
C	-1.5364910222	-2.8381366844	-1.2669174534	-0.21988
C	-1.273896227	-2.1315428137	 0.1068248092	-0.104233
H	 0.781676752	 1.6258729626	-0.2694762867	 0.304213
H	-2.6573305808	 1.0138604239	 0.1748533874	 0.120151
H	-4.4334392536	-0.8415847699	 0.6222016922	 0.104687
H	-2.9712681878	-2.9158879312	 1.4310618083	 0.08032
H	-3.0649276283	-4.3079850275	-0.5908438795	 0.103247
H	-3.7888762678	-2.93606954	-1.4480967513	 0.101392
H	-0.8650374228	-3.6714874775	-1.4826753615	 0.107459
H	-1.5126605796	-2.1508424323	-2.1149165643	 0.111509
H	-0.5089145057	-2.6142040519	 0.7147748722	 0.086604
65.0014	155.2578	220.5696	242.5292	329.8377	379.9959	422.8394	479.1256	663.2425	681.691	713.042	748.4402	774.3311	827.6586	848.2838	871.4761	905.8985	955.6918	963.7095	985.2008	994.3018	1028.8811	1050.849	1101.44	1126.7014	1191.171	1220.7462	1231.1199	1239.2876	1265.7755	1269.1261	1292.8434	1318.5398	1368.1538	1404.8679	1477.2062	1493.2274	1633.5451	1722.7409	3053.7062	3062.4832	3073.401	3105.8229	3112.1103	3131.0729	3184.5354	3245.1269	3823.6213
ON=C1C=CC2CCC12	ON=C1C=C[C@H]2CC[C@@H]12	
InChI=1S/C7H9NO/c9-8-7-4-2-5-1-3-6(5)7/h2,4-6,9H,1,3H2	InChI=1S/C7H9NO/c9-8-7-4-2-5-1-3-6(5)7/h2,4-6,9H,1,3H2/t5-,6-/m1/s1
