18
gdb 107366	3.63555	1.20258	1.02093	2.9023	73.29	-0.2484	0.0224	0.2707	1188.3072	0.147227	-439.074504	-439.066194	-439.06525	-439.107601	31.425	
C	 0.4310242583	 1.3893023012	-0.2218599099	-0.257206
O	-0.0280417606	 0.0621705236	-0.0211272635	-0.28721
C	 0.4444142899	-0.5198853954	 1.1437862293	 0.407823
C	 1.8530008817	-1.0906794892	 1.1845337946	-0.374012
C	 0.6446784162	-1.9983792011	 1.197747677	 0.011654
O	 0.2314841641	-2.4913907899	 2.4557514897	-0.236605
C	-0.1916952722	-1.4568825558	 3.2581137781	 0.405289
N	-0.5285039802	-1.5858737812	 4.4653289258	-0.532202
C	-0.191292983	-0.1522312545	 2.4754709783	-0.388521
H	 1.528509123	 1.436122891	-0.2456608611	 0.11359
H	 0.0360924178	 1.7176423523	-1.1853823033	 0.132857
H	 0.0681298336	 2.0692670116	 0.5613193821	 0.116318
H	 2.4094319247	-1.0545759285	 0.2542404239	 0.12789
H	 2.4456983736	-1.0031888339	 2.0896528457	 0.127224
H	 0.4231310031	-2.6686320585	 0.3776833732	 0.124872
H	-0.4451230274	-2.560394644	 4.7596967631	 0.225327
H	 0.3245281154	 0.6272720063	 3.0406393449	 0.137823
H	-1.2222094281	 0.1774733961	 2.3096268421	 0.145089
90.9514	99.2272	175.9212	186.2015	295.7024	364.0889	395.2367	440.1969	464.978	531.6279	615.2791	683.0571	737.8259	832.4888	882.6812	895.0392	917.0535	933.9995	1000.8087	1016.6824	1029.1074	1044.6319	1058.6203	1101.5619	1151.24	1175.2781	1181.6562	1208.6436	1241.5965	1252.6494	1311.0356	1331.0018	1396.978	1460.4096	1470.5559	1486.9901	1493.5213	1506.9906	1781.1929	2995.9165	3050.0635	3061.4872	3110.17	3126.7903	3129.5571	3207.0866	3226.4786	3474.8967
COC12CC1OC(=N)C2	CO[C@]12C[C@H]1O[C]([NH])C2	
InChI=1S/C6H9NO2/c1-8-6-2-4(6)9-5(7)3-6/h4,7H,2-3H2,1H3	InChI=1S/C6H9NO2/c1-8-6-2-4(6)9-5(7)3-6/h4,7H,2-3H2,1H3/t4-,6+/m1/s1
