19
gdb 43639	4.45216	0.94859	0.82348	3.6894	82.94	-0.2346	-0.0424	0.1922	1389.0564	0.160041	-385.914326	-385.906162	-385.905218	-385.947899	31.066	
O	-0.1425309301	-0.0371226539	 0.2202857735	-0.329869
C	-0.0439912335	 1.1612343293	 0.0960308035	 0.3778
C	-1.2077361597	 2.1655667216	 0.0521930642	-0.354479
C	-0.5565010449	 3.5645947585	-0.0483138876	-0.058604
C	 0.9251129545	 3.2541301343	-0.1147795388	-0.048973
C	 1.2047843778	 1.9485945125	-0.0426336286	-0.189141
C	-1.0258194509	 4.3958663424	-1.2301512194	 0.03008
C	-2.2480525034	 5.2699971777	-1.1116400894	-0.273531
C	-0.8790933384	 5.8966745395	-1.2181395149	-0.276519
H	-1.8368593025	 1.9445820878	-0.8159614394	 0.13285
H	-1.8369358081	 2.0397750648	 0.9374239273	 0.129709
H	-0.7543744544	 4.1466777621	 0.8632065499	 0.085165
H	 1.6559455248	 4.0494656583	-0.2222323719	 0.115773
H	 2.1827785817	 1.484990977	-0.0688144547	 0.114853
H	-0.8771601457	 3.9097548881	-2.1916919624	 0.087899
H	-2.9160060976	 5.3410442499	-1.9625800807	 0.116007
H	-2.7495948041	 5.3108479627	-0.1501239133	 0.11344
H	-0.4661828506	 6.3596853121	-0.3273828742	 0.111742
H	-0.6103865248	 6.3979138153	-2.141178763	 0.115797
52.0939	79.1717	159.8133	230.113	293.5767	364.9885	417.1178	500.4736	555.5147	653.3345	738.4605	780.902	804.5136	828.4687	830.0364	834.3184	910.1465	937.3872	955.7908	999.4247	1013.4132	1057.8895	1059.5199	1080.8605	1105.2624	1136.9744	1142.131	1176.2941	1197.896	1212.2557	1230.4057	1252.7068	1288.2448	1299.7035	1362.1619	1410.1532	1453.5284	1469.678	1504.6891	1649.0955	1815.8904	2999.8188	3062.8054	3105.4314	3129.2867	3131.6595	3135.6475	3184.929	3208.0971	3223.0057	3224.9986
O=C1CC(C=C1)C1CC1	O=C1C[C@@H](C=C1)C1CC1	
InChI=1S/C8H10O/c9-8-4-3-7(5-8)6-1-2-6/h3-4,6-7H,1-2,5H2	InChI=1S/C8H10O/c9-8-4-3-7(5-8)6-1-2-6/h3-4,6-7H,1-2,5H2/t7-/m1/s1
