20
gdb 89277	2.42089	1.67111	1.2285	1.2917	80.93	-0.2084	0.0118	0.2203	1092.1842	0.171265	-403.133918	-403.125626	-403.124682	-403.166312	32.836	
C	-0.0228596356	 1.5380048127	 0.1305747716	-0.322859
N	-0.0248930591	 0.0929700268	 0.1252183558	-0.071706
C	-1.2875110017	-0.6053338815	 0.4390319315	-0.217178
C	-0.4883319282	-1.6340447911	 1.2671615802	 0.37155
O	-1.1180520204	-1.9329431044	 2.4910327674	-0.475249
C	 0.062178216	-2.8363123801	 0.5478681612	-0.172731
C	 1.3620908087	-2.7145412494	 0.2732783177	-0.047771
C	 1.9464012517	-1.3870525542	 0.7103531095	-0.273463
C	 0.7068362534	-0.6204609011	 1.1966881066	-0.046332
H	 0.9952950769	 1.9096632692	-0.0288949442	 0.116742
H	-0.6458194346	 1.9136367877	-0.6886425455	 0.118994
H	-0.4024674029	 1.975320287	 1.0741170526	 0.090379
H	-1.9588165852	-0.0353199729	 1.100183303	 0.093953
H	-1.8493913048	-0.9587862162	-0.432597722	 0.097812
H	-0.5958425817	-2.6132592608	 2.9304926663	 0.274014
H	-0.5567385273	-3.6976572405	 0.318837053	 0.095062
H	 1.9597219707	-3.4704744647	-0.2263468079	 0.096409
H	 2.7114464944	-1.5179113404	 1.4876516803	 0.098513
H	 2.4236060605	-0.8590729164	-0.1234217616	 0.114677
H	 0.8553168491	-0.0281564697	 2.1090074444	 0.059184
100.2863	214.2896	231.7398	237.7327	278.3235	319.3494	343.0111	390.1732	442.3508	491.8196	608.5846	646.0371	757.3897	759.2942	788.774	873.5501	921.3314	943.8572	971.357	979.9322	1021.7144	1028.5881	1034.9745	1086.7685	1107.5431	1144.237	1151.4421	1170.3184	1199.7268	1232.1479	1241.3862	1261.6758	1299.4506	1317.3563	1346.1615	1372.7828	1393.7629	1453.3643	1464.4757	1485.8876	1500.9223	1512.7	1672.654	2921.0018	2983.623	3011.0257	3025.5371	3051.0866	3057.9376	3062.1147	3092.5193	3174.0333	3199.2451	3799.3149
CN1CC2(O)C=CCC12	CN1C[C@@]2(O)C=CC[C@@H]12	
InChI=1S/C7H11NO/c1-8-5-7(9)4-2-3-6(7)8/h2,4,6,9H,3,5H2,1H3	InChI=1S/C7H11NO/c1-8-5-7(9)4-2-3-6(7)8/h2,4,6,9H,3,5H2,1H3/t6-,7+/m1/s1
