15
gdb 83195	3.1743	1.46215	1.26668	4.322	60.62	-0.2763	0.0302	0.3065	988.2351	0.113376	-494.913273	-494.905884	-494.90494	-494.945445	27.851	
O	 0.2294555126	 1.1460880444	 0.5098023519	-0.417474
C	 0.0539000464	-0.1810857801	 0.1422859245	 0.086747
C	-1.365303635	-0.7195178872	-0.0153660282	-0.139296
C	-2.5062319243	 0.2595137475	 0.0555686238	-0.109787
O	-2.98851035	 0.6194612436	-1.2645067114	-0.242401
C	-2.1138587447	 0.9980936285	-2.2045233034	 0.465288
O	-2.4282709942	 1.62163772	-3.1698604127	-0.349895
O	-0.8022114533	 0.6443918003	-2.0019412689	-0.262843
C	-0.4925428969	-0.4882884385	-1.2189962381	 0.030663
H	 0.3418731229	 1.6639029114	-0.297472902	 0.306591
H	 0.797356299	-0.8574338432	 0.5553700346	 0.11312
H	-1.5620245664	-1.7441847671	 0.2766440902	 0.112836
H	-3.3770850563	-0.1641688381	 0.5546116556	 0.13642
H	-2.2060595175	 1.1752158206	 0.5729322111	 0.145676
H	-0.1098037824	-1.309220152	-1.8155939571	 0.124355
80.3371	151.1602	203.4221	281.0296	305.5634	439.8687	483.0001	528.9782	607.4044	641.8285	753.4055	781.3021	800.4432	813.0645	856.5755	949.8982	978.4395	1019.7777	1062.4073	1076.2799	1115.7931	1146.3918	1162.2293	1184.9352	1239.1913	1290.0549	1349.3221	1354.8767	1371.1682	1417.0056	1435.2245	1507.1378	1895.5523	3070.4694	3140.3384	3145.0909	3168.1701	3185.0444	3774.0222
OC1C2COC(=O)OC12	O[C@H]1[C@H]2COC(=O)O[C@@H]12	
InChI=1S/C5H6O4/c6-3-2-1-8-5(7)9-4(2)3/h2-4,6H,1H2	InChI=1S/C5H6O4/c6-3-2-1-8-5(7)9-4(2)3/h2-4,6H,1H2/t2-,3+,4-/m1/s1
