13
gdb 20751	5.6885	1.64227	1.28453	4.2467	65.55	-0.2551	-0.0957	0.1594	895.2727	0.095189	-394.756807	-394.749806	-394.748862	-394.78907	25.201	
C	-0.0261098565	 1.4626466784	-0.0193433194	-0.481166
C	-0.0025561372	-0.036050297	-0.0024096826	 0.330968
N	-0.0620786292	-0.6534192363	-1.1298358135	-0.108962
O	-0.0385086792	-2.0393395651	-1.0839878873	-0.270827
C	 0.0453253557	-2.7586854756	 0.1159172015	 0.455768
N	 0.0628700515	-4.0215588594	 0.0915300282	-0.497895
N	 0.1082162392	-2.055689022	 1.3166289684	-0.232596
C	 0.0851139371	-0.777551237	 1.2511002938	-0.024155
H	 0.8803995998	 1.869335778	 0.4426797843	 0.147728
H	-0.0943662086	 1.8247467543	-1.0458657451	 0.160844
H	-0.8812849571	 1.8428763201	 0.5504980047	 0.147724
H	 0.009283891	-4.3593962948	-0.869954861	 0.236032
H	 0.1337397135	-0.2172412737	 2.185661838	 0.136538
23.7816	163.7338	281.2031	298.6096	335.551	459.5014	507.0591	530.562	632.5923	749.4582	770.9743	814.9198	872.2752	908.0658	970.5415	973.4944	1030.7991	1067.0185	1084.7985	1258.4216	1287.1605	1413.2164	1431.4884	1474.4003	1478.0274	1620.4765	1707.2959	1734.6156	3037.2451	3093.021	3125.3755	3150.6405	3496.7039
CC1=NOC(=N)N=C1	CC1=NOC(=N[CH]1)[NH]	
InChI=1S/C4H5N3O/c1-3-2-6-4(5)8-7-3/h2,5H,1H3	InChI=1S/C4H5N3O/c1-3-2-6-4(5)8-7-3/h2,5H,1H3
