16
gdb 73946	3.07284	1.27606	0.9118	0.9196	78.85	-0.2598	-0.0864	0.1734	1212.9043	0.123817	-437.931085	-437.922572	-437.921627	-437.964589	30.407	
C	 0.0614022618	 1.5307038154	 0.0099098211	-0.495893
C	-0.0242972105	 0.0443412496	 0.0122470729	 0.124364
C	-1.0807888477	-0.7898276433	-0.0484751553	 0.0969
C	-0.5936419817	-2.2126835298	-0.0112112497	-0.181174
O	 0.8331056539	-2.1051546988	 0.0760152674	-0.251201
C	 1.1958352242	-0.7879770987	 0.0915773539	 0.379796
N	 2.3789112282	-0.3413399001	 0.162069345	-0.540331
C	-2.5041993175	-0.4695917787	-0.1376893507	 0.077008
O	-3.3677730368	-1.320077095	-0.1864548763	-0.265127
H	 0.6796055122	 1.8648267329	-0.8297674814	 0.161875
H	-0.9165950958	 2.0100870621	-0.0529438596	 0.130992
H	 0.5718046075	 1.8737877816	 0.9158109613	 0.161869
H	-0.9696943494	-2.7668549937	 0.8561958843	 0.143898
H	-0.8608805665	-2.7759205642	-0.9124681713	 0.143898
H	 3.0562010978	-1.1039310618	 0.2076453628	 0.230608
H	-2.7590095396	 0.6097520227	-0.1589033543	 0.082517
96.2261	104.3373	174.6475	176.8083	212.5456	270.9166	300.0629	408.5823	461.3818	542.1504	617.1728	712.7945	732.2825	779.0118	877.1466	893.3902	988.5976	1004.2689	1049.6108	1060.9591	1079.6318	1098.0292	1185.6031	1190.0966	1244.1033	1386.8718	1391.1288	1419.8156	1424.0317	1465.8039	1474.2189	1501.1126	1699.8392	1745.9883	1771.044	2919.4591	3040.0592	3046.661	3075.0535	3100.5765	3141.3378	3486.1233
CC1=C(COC1=N)C=O	CC1=C(OC[C]1C=O)[NH]	
InChI=1S/C6H7NO2/c1-4-5(2-8)3-9-6(4)7/h2,7H,3H2,1H3	InChI=1S/C6H7NO2/c1-4-5(2-8)3-9-6(4)7/h2,7H,3H2,1H3
