16
gdb 75413	2.36498	1.74692	1.01725	6.3791	74.64	-0.2392	-0.0721	0.167	1120.3377	0.124806	-437.94958	-437.941253	-437.940309	-437.982888	30.373	
C	 0.0246535205	 1.5048703593	-0.0259344706	-0.475472
C	-0.0204360625	 0.0050751253	 0.0412918981	 0.210885
C	-1.1431510973	-0.7162942599	-0.0831535896	-0.146092
C	-1.2161967206	-2.2026906256	-0.0201643975	-0.207059
N	 0.0637655978	-2.8354768716	 0.193527881	-0.350606
C	 1.2807723047	-2.227809093	 0.3361293282	 0.330671
O	 2.3061478464	-2.8476454413	 0.5122544052	-0.340932
C	 1.271443925	-0.685960337	 0.2584841468	 0.213026
O	 2.314132975	-0.0828948483	 0.3764543672	-0.289613
H	 0.6875102192	 1.8330576426	-0.832772976	 0.148939
H	-0.9699016321	 1.9270526612	-0.1876737021	 0.117614
H	 0.4420652138	 1.9180138129	 0.8977300306	 0.148927
H	-2.0969219394	-0.2190817621	-0.2433339543	 0.112792
H	-1.9184526486	-2.4877398537	 0.7802116852	 0.136529
H	-1.6718160385	-2.573791953	-0.9527112412	 0.13651
H	 0.0951291166	-3.8443150258	 0.2465680391	 0.25388
65.3972	115.036	149.01	242.8081	287.0955	330.2065	352.9248	447.4183	490.4801	492.6089	571.9335	642.446	672.1384	795.1753	812.3681	873.8304	930.4097	995.2013	1016.7489	1066.837	1070.5676	1131.3232	1230.4082	1239.1763	1330.605	1385.6664	1393.8956	1415.8042	1469.433	1474.7797	1485.0002	1510.1878	1720.1428	1782.7372	1806.2612	2972.2091	2981.6547	3044.0561	3102.8665	3128.4628	3161.2522	3596.7672
CC1=CCNC(=O)C1=O	CC1=CCNC(=O)C1=O	
InChI=1S/C6H7NO2/c1-4-2-3-7-6(9)5(4)8/h2H,3H2,1H3,(H,7,9)	InChI=1S/C6H7NO2/c1-4-2-3-7-6(9)5(4)8/h2H,3H2,1H3,(H,7,9)
