21
gdb 91324	2.59347	1.52449	1.21136	2.4792	78.33	-0.2332	0.0654	0.2986	1121.6208	0.18086	-424.197892	-424.188824	-424.18788	-424.231215	35.416	
C	-0.6893516012	 1.3709295028	 0.0967729178	-0.398845
C	 0.0148879039	 0.0313509446	 0.033683261	 0.143178
O	 1.1262108476	 0.0088855485	-0.9081981236	-0.312766
C	 1.9953830375	-0.6011118842	 0.059718469	 0.12691
C	 2.8641784659	 0.4348068069	 0.8099000009	-0.308499
C	 1.8329778126	 0.4054290653	 1.9942478585	 0.394054
C	 2.3848299282	-0.3074594928	 3.227958762	-0.4431
O	 1.2268366045	 1.6296745781	 2.3629905653	-0.466775
C	 0.906599046	-0.5320106252	 1.1695291057	-0.139229
H	-0.0074896059	 2.1704920006	 0.3829784531	 0.137329
H	-1.1212529951	 1.59549019	-0.8843834606	 0.114302
H	-1.5042640698	 1.3352271889	 0.8276270848	 0.113286
H	-0.711297213	-0.7419632327	-0.2597908374	 0.072532
H	 2.4641958284	-1.5185457701	-0.3049005678	 0.071397
H	 3.8752197517	 0.1146883547	 1.0778126292	 0.091376
H	 2.9057977611	 1.3875229365	 0.2787104075	 0.111462
H	 3.1899954272	 0.2835750624	 3.6832592976	 0.105565
H	 1.5928495318	-0.4471346925	 3.9704485016	 0.124166
H	 2.8012132357	-1.2874532256	 2.9743606027	 0.121186
H	 1.8618256461	 2.1314649072	 2.8858668401	 0.27608
H	 0.5034408368	-1.3922386234	 1.7046565424	 0.066389
65.5516	167.0725	223.8589	251.9298	258.7383	271.3632	299.695	345.7783	406.0147	416.6554	439.6019	575.7602	618.8266	685.3562	786.4805	834.4983	851.6054	879.4871	915.7226	936.1925	966.4223	973.2513	1020.5719	1056.8579	1086.1476	1107.6396	1116.9652	1156.8491	1170.35	1183.7476	1215.0889	1240.3977	1254.1394	1301.5848	1311.1327	1339.2082	1379.4055	1395.2292	1403.5207	1413.1142	1457.5859	1484.2618	1487.2939	1490.2123	1493.8836	2976.4953	3018.2691	3040.8542	3054.2708	3073.5065	3087.0095	3101.9699	3102.9375	3110.7637	3127.2653	3161.8079	3798.2864
CC1OC2CC(C)(O)C12	C[C@H]1O[C@H]2C[C@@](C)(O)[C@@H]12	
InChI=1S/C7H12O2/c1-4-6-5(9-4)3-7(6,2)8/h4-6,8H,3H2,1-2H3	InChI=1S/C7H12O2/c1-4-6-5(9-4)3-7(6,2)8/h4-6,8H,3H2,1-2H3/t4-,5+,6+,7-/m1/s1
