19
gdb 71259	2.25351	2.06526	1.66449	2.3641	74.03	-0.2457	0.067	0.3127	919.9223	0.160547	-422.995664	-422.98828	-422.987335	-423.026725	31.221	
O	 0.0139075541	 1.3414140554	-0.1451092785	-0.496822
C	 0.0220215314	-0.0383908318	-0.0247203568	 0.389835
C	 0.4876469863	-0.7961325584	 1.2564708338	-0.309969
C	-0.3765524465	-1.9259212503	 0.6768642243	-0.107907
C	-0.0256344083	-2.1322111562	-0.8646218344	-0.045688
C	-1.4875547911	-1.7247575798	-1.2239801072	-0.312145
C	-1.3371615384	-0.8701185435	 0.0361519012	 0.360964
O	-2.3396991637	-0.1576265726	 0.6848973245	-0.501683
C	 0.7409325611	-0.8186132631	-1.1341098058	-0.245187
H	-0.6749487279	 1.6728141973	 0.4434654709	 0.287776
H	 1.5612822725	-0.9406835393	 1.4079794163	 0.089052
H	 0.0286569534	-0.3884214291	 2.1615678529	 0.097815
H	-0.7189790479	-2.7918245377	 1.2414343945	 0.064462
H	 0.3982525872	-3.0673634358	-1.2246408337	 0.068343
H	-1.6684922061	-1.2490019301	-2.1932758294	 0.096524
H	-2.1978292635	-2.5450065415	-1.0705983309	 0.085236
H	-3.0756499689	-0.7478785389	 0.8759950121	 0.284316
H	 0.5513364737	-0.4151063541	-2.1321708224	 0.100112
H	 1.8206524224	-0.8788516604	-0.9731376813	 0.094963
192.7035	231.9828	279.2719	346.0124	359.5274	402.1827	451.4638	471.0454	514.4223	585.5062	643.4432	684.9306	711.5842	807.1348	865.8749	876.1797	904.5638	924.67	956.4328	966.4758	991.0099	1029.9227	1048.6376	1087.0267	1109.1163	1117.8019	1136.5514	1139.9555	1186.4896	1207.4118	1229.0004	1248.3815	1267.8919	1272.9943	1302.1665	1326.5268	1369.9993	1407.8094	1484.5285	1496.7126	1520.6637	3034.4642	3049.6647	3058.7345	3089.715	3106.3026	3111.0757	3125.1799	3136.549	3790.4958	3813.7873
OC12CC3C(CC13O)C2	O[C@@]12C[C@@H]3[C@@H](C[C@]13O)C2	
InChI=1S/C7H10O2/c8-6-1-4-2-7(6,9)5(4)3-6/h4-5,8-9H,1-3H2	InChI=1S/C7H10O2/c8-6-1-4-2-7(6,9)5(4)3-6/h4-5,8-9H,1-3H2/t4-,5-,6+,7-/m1/s1
