23
gdb 104858	1.9765	1.34679	1.19066	2.143	81.32	-0.2405	0.0717	0.3122	1256.8875	0.203249	-425.404801	-425.394277	-425.393333	-425.440129	38.378	
C	-0.0987440618	 1.2655271996	-0.6501097407	-0.388787
C	-0.0745469796	-0.1638317869	-0.0986027888	-0.247639
C	-1.4696119019	-0.7016415465	 0.2291613559	 0.33837
C	-2.3041386958	-1.1039795377	-1.0029280187	-0.11837
O	-2.0960538435	-2.5051967308	-0.7388716217	-0.297932
C	-1.5631462033	-2.2253466352	 0.5773362815	 0.113872
C	-0.348591898	-3.0703123246	 0.9019487761	-0.416445
O	-2.2105778568	 0.1554678462	 1.0758391216	-0.287029
C	-1.6944824672	 0.3153920375	 2.3808177833	-0.25695
H	 0.9140701578	 1.6130189178	-0.8737305231	 0.111923
H	-0.6818418271	 1.3261203014	-1.5751781763	 0.119944
H	-0.549387088	 1.958165108	 0.0652674327	 0.129468
H	 0.3838976603	-0.8373228925	-0.8309893977	 0.111356
H	 0.5633035696	-0.2100671975	 0.7924472459	 0.097475
H	-3.3564751638	-0.8099700042	-0.907005378	 0.104744
H	-1.9242631056	-0.8124270252	-1.9882230142	 0.09877
H	-2.3421047488	-2.3753698939	 1.3406387108	 0.070657
H	 0.4561890529	-2.9190467442	 0.1784588937	 0.12188
H	 0.0299606787	-2.839721233	 1.9034883813	 0.115703
H	-0.6248668095	-4.1295592241	 0.8820898153	 0.129739
H	-1.5545802219	-0.6496849512	 2.8896927859	 0.108708
H	-0.7380148254	 0.8562569772	 2.3944657453	 0.110214
H	-2.4296387014	 0.8984455799	 2.9407402	 0.13033
78.8988	104.0378	125.7839	170.1112	184.0275	204.0027	208.467	255.8555	292.5422	341.6989	372.1943	427.2876	495.2705	529.9859	659.1617	758.6665	798.2834	872.2663	895.5082	979.6412	987.7544	997.773	1026.575	1053.9319	1099.1857	1103.4646	1119.65	1156.1987	1167.8797	1182.3813	1215.3747	1217.4881	1251.6098	1301.6083	1311.362	1367.8492	1370.0681	1383.6367	1407.5694	1414.0902	1474.2484	1479.8271	1485.2309	1496.5697	1498.3682	1501.7177	1502.99	1511.5009	1517.4892	2981.3159	2988.647	3021.5761	3031.4445	3038.858	3040.6189	3041.8307	3069.2178	3074.4949	3104.0387	3105.4978	3114.2216	3122.1812	3124.7556
CCC1(COC1C)OC	CC[C@]1(CO[C@H]1C)OC	
InChI=1S/C7H14O2/c1-4-7(8-3)5-9-6(7)2/h6H,4-5H2,1-3H3	InChI=1S/C7H14O2/c1-4-7(8-3)5-9-6(7)2/h6H,4-5H2,1-3H3/t6-,7+/m0/s1
