15
gdb 33743	3.37464	1.58049	1.33192	5.6032	69.3	-0.2526	-0.0061	0.2465	944.9475	0.114311	-416.741563	-416.735018	-416.734074	-416.772421	26.471	
N	 0.0469306053	-1.1281069577	-0.0471661665	-0.33326
C	 0.0473232624	 0.0269428195	-0.0194204072	 0.177227
C	-0.0136103565	 1.4723713859	 0.0284261081	 0.335252
C	-0.3171706488	 2.2821106788	 1.3303345755	-0.263669
C	 0.5020881046	 3.2970098359	 0.484935216	 0.037663
O	 1.2559776863	 2.1684396379	-0.0453824098	-0.280227
C	-0.4896067599	 3.6147946333	-0.6653616341	-0.058543
N	-0.0728869544	 3.0223252681	-1.953129316	-0.304835
C	-0.8898138862	 2.2347267438	-1.0162681673	-0.12424
H	-1.359897089	 2.502977959	 1.5705618947	 0.111164
H	 0.2356969189	 1.8999113653	 2.1883817692	 0.135078
H	 1.1207702489	 4.0832809453	 0.9112633642	 0.103998
H	-1.1717017138	 4.4543788939	-0.6159723319	 0.107965
H	-0.686166353	 3.3770329805	-2.6854406813	 0.240331
H	-1.893379055	 1.9056593406	-1.2525270735	 0.116098
143.1122	169.6029	375.7583	377.7631	498.8314	521.2569	527.9593	549.9319	673.0218	720.9068	792.7645	808.4213	860.2956	869.5563	906.1728	922.1904	950.7551	975.8981	998.4888	1046.5664	1059.7807	1110.4021	1124.5693	1143.0217	1210.7195	1219.1102	1239.9632	1251.1916	1295.3371	1324.7388	1386.9432	1482.5843	2363.1155	3074.3988	3153.235	3159.2717	3193.3675	3205.9425	3489.5681
N#CC12CC(O1)C1NC21	N#C[C@@]12C[C@@H](O1)[C@H]1N[C@@H]21	
InChI=1S/C6H6N2O/c7-2-6-1-3(9-6)4-5(6)8-4/h3-5,8H,1H2	InChI=1S/C6H6N2O/c7-2-6-1-3(9-6)4-5(6)8-4/h3-5,8H,1H2/t3-,4-,5-,6-/m1/s1
