19
gdb 114863	3.96737	1.10199	0.98663	2.8428	78.69	-0.2333	0.0012	0.2345	1239.3119	0.160013	-422.992825	-422.984791	-422.983847	-423.025679	31.136	
O	 0.0437771782	 1.3399702818	-0.2291183221	-0.424463
C	 0.0446994626	-0.0612009461	-0.0571434338	-0.050005
C	-1.3732266654	-0.5855116966	 0.1741090347	 0.068603
O	-2.1857862917	-0.127316022	-0.9424953136	-0.309565
C	-2.9818114926	-1.2119014507	-1.3780898747	 0.093301
C	-2.7574461606	-2.0042696675	-2.7214819833	-0.255596
C	-2.7716768181	-3.3342349413	-1.870734096	-0.311486
C	-2.4476455858	-2.4290148254	-0.7020093203	 0.229868
C	-1.4771017946	-2.102700048	 0.142770548	-0.261138
H	-0.633322774	 1.5199544774	-0.8930127538	 0.292122
H	 0.4772976005	-0.5790182695	-0.9288014786	 0.081926
H	 0.6724484875	-0.2807029557	 0.813779323	 0.103386
H	-1.767606586	-0.1267786589	 1.0943971633	 0.089794
H	-4.0472258383	-0.9862605719	-1.2325652244	 0.082875
H	-3.5193040003	-1.9002865671	-3.4973259916	 0.105442
H	-1.7653560388	-1.8044149902	-3.1298536974	 0.119669
H	-3.7748093904	-3.7688044049	-1.8291854057	 0.11948
H	-2.0523665238	-4.1159826203	-2.1188811052	 0.119307
H	-0.7481849185	-2.7472622631	 0.6181643319	 0.106479
71.1194	123.9946	167.592	267.2522	312.5764	371.8738	408.1433	460.3471	503.845	668.2124	685.7692	714.4403	783.7481	814.0083	833.5615	842.963	916.1837	947.9267	984.3881	1025.0283	1028.6543	1065.5405	1084.3759	1086.7336	1120.2017	1135.5326	1170.6904	1209.7872	1220.2978	1236.2197	1245.8857	1286.6484	1304.2412	1339.4577	1368.3519	1393.4373	1436.1582	1470.1521	1484.7369	1498.4416	1727.6712	2968.2331	2984.7958	3006.8471	3061.2522	3068.7439	3070.1335	3121.9908	3143.2795	3210.1874	3786.0584
OCC1OC2CCC2=C1	OC[C@H]1O[C@H]2CC[C]2[CH]1	
InChI=1S/C7H10O2/c8-4-6-3-5-1-2-7(5)9-6/h3,6-8H,1-2,4H2	InChI=1S/C7H10O2/c8-4-6-3-5-1-2-7(5)9-6/h3,6-8H,1-2,4H2/t6-,7-/m0/s1
