23
gdb 112961	3.8654	0.73794	0.66309	1.82	82.69	-0.2549	0.0738	0.3287	1741.7982	0.204026	-425.412104	-425.401558	-425.400613	-425.448139	38.764	
C	 0.0221348031	 1.5096132734	 0.1964909845	-0.402471
C	-0.0702315432	-0.0095473618	 0.0448479065	 0.119808
O	-1.4270184228	-0.4521085633	 0.0553090482	-0.432661
C	 0.6626093292	-0.5226706094	-1.1884725605	 0.035335
C	 2.2179352154	-0.4611010684	-1.221342012	-0.279689
C	 2.2235143494	-1.8684344861	-1.8788101979	 0.053224
C	 3.2688009529	-2.8641042177	-1.4236394436	-0.095274
O	 3.0048476891	-4.1024787847	-2.0680455032	-0.422231
C	 0.7563776251	-2.0573635869	-1.4053796201	-0.240155
H	 1.0630644069	 1.8393230973	 0.2783354384	 0.118633
H	-0.418739511	 2.0127350649	-0.6735993091	 0.103255
H	-0.5178906669	 1.8369711625	 1.0890732787	 0.122018
H	 0.3715208596	-0.4841021305	 0.9313399373	 0.078638
H	-1.8637233903	-0.0663672414	-0.7124029198	 0.273762
H	 0.2475569805	-0.0327157879	-2.0802820389	 0.054872
H	 2.6898792199	 0.3603281497	-1.7656458409	 0.096663
H	 2.6364323591	-0.4900055384	-0.207778429	 0.094067
H	 2.2674773876	-1.7868889761	-2.9699750751	 0.077235
H	 4.2757508944	-2.4887079465	-1.6739015249	 0.081276
H	 3.2224288511	-2.9680374097	-0.3263227158	 0.077192
H	 3.6411173118	-4.7498163206	-1.7508506697	 0.285896
H	 0.7061231957	-2.5964905597	-0.4531807198	 0.099724
H	 0.0534909631	-2.5212387886	-2.0990020533	 0.100883
54.9531	69.4213	97.5228	175.0914	213.0299	234.6357	260.2694	269.3364	316.8466	327.1427	404.0797	413.6162	486.1166	498.4902	635.6246	780.0859	814.439	884.7368	912.961	934.5319	961.9776	986.409	1033.0944	1041.8954	1046.3353	1082.7269	1104.5294	1108.2741	1131.5729	1177.1818	1199.2858	1229.4166	1242.7627	1264.0606	1268.7316	1276.1812	1292.9197	1303.9366	1334.7785	1366.4499	1399.6293	1400.9802	1419.345	1461.7904	1475.4124	1490.9351	1494.337	1498.2773	1520.1731	2948.8452	2975.2974	3002.8546	3019.869	3026.8439	3032.7017	3049.3816	3056.4976	3091.3254	3098.2858	3116.2847	3117.5367	3795.5967	3829.4702
CC(O)C1CC(CO)C1	C[C@@H](O)[C@H]1C[C@@H](CO)C1	
InChI=1S/C7H14O2/c1-5(9)7-2-6(3-7)4-8/h5-9H,2-4H2,1H3	InChI=1S/C7H14O2/c1-5(9)7-2-6(3-7)4-8/h5-9H,2-4H2,1H3/t5-,6-,7+/m1/s1
