20
gdb 118804	2.31023	1.09395	0.85189	3.4926	81.46	-0.2638	0.0294	0.2932	1418.9543	0.169084	-403.146084	-403.136006	-403.135062	-403.181466	35.938	
C	-0.1306168976	 1.3779812128	-0.0682660789	-0.228433
O	-0.2093681399	-0.0243516554	-0.1820411011	-0.239213
C	 0.8097702507	-0.5653759063	-0.9958267125	-0.134279
C	 0.6636406828	-2.0716335926	-0.9862499634	 0.32438
C	 0.86087789	-2.7182139404	 0.3701757152	-0.463839
C	-0.3182753875	-2.6784306661	-1.9434434924	-0.305263
C	 1.174478303	-2.8439321094	-2.2027337141	-0.22996
C	 1.7912044802	-2.1733789759	-3.3123380662	 0.293116
N	 2.2952994353	-1.6344184399	-4.2041723408	-0.349387
H	 0.8213802043	 1.6980190742	 0.383477627	 0.107651
H	-0.2285717373	 1.8727034521	-1.0470770936	 0.110527
H	-0.9534295689	 1.6993422752	 0.5745249637	 0.129468
H	 0.7387385055	-0.1715520696	-2.0215971512	 0.106513
H	 1.8035211381	-0.2808358897	-0.6084561788	 0.094507
H	 0.1489023841	-2.2993054948	 1.0861264809	 0.146499
H	 0.7088046838	-3.8007311064	 0.3248961544	 0.114963
H	 1.8719891147	-2.5333330628	 0.7495847112	 0.123851
H	-0.8604127259	-3.5680599122	-1.6436476223	 0.127397
H	-0.8615976657	-2.0155787258	-2.6065815176	 0.139903
H	 1.6006466301	-3.820284247	-1.9958301096	 0.1316
76.8278	88.6368	106.9134	144.0105	198.7407	217.8999	232.6888	298.6923	338.8015	363.7199	411.659	443.5112	556.6503	612.8301	743.571	795.3148	872.0441	942.0076	954.7627	988.1148	998.6486	1016.4303	1074.638	1098.0308	1116.634	1133.1901	1156.6744	1184.0509	1227.6783	1240.9069	1306.0261	1333.7988	1403.6263	1411.3992	1433.201	1481.6815	1483.0547	1486.3179	1486.9366	1505.1698	1508.4423	1524.8772	2348.325	2955.3662	2975.4468	3002.329	3020.522	3035.6639	3101.3875	3117.7789	3121.7911	3142.9298	3164.7754	3234.1542
COCC1(C)CC1C#N	COC[C@@]1(C)C[C@H]1C#N	
InChI=1S/C7H11NO/c1-7(5-9-2)3-6(7)4-8/h6H,3,5H2,1-2H3	InChI=1S/C7H11NO/c1-7(5-9-2)3-6(7)4-8/h6H,3,5H2,1-2H3/t6-,7+/m0/s1
