19
gdb 58994	3.47895	1.17019	1.03885	0.5018	76.25	-0.2304	0.0027	0.2331	1207.8409	0.15896	-422.974565	-422.966271	-422.965327	-423.007708	32.139	
C	 0.2041142604	 1.1123974645	 1.1965986452	-0.400541
C	-0.2055612685	 0.3494378861	-0.0723898752	-0.028597
O	 0.8226316661	-0.5363795496	-0.4963462162	-0.417181
C	-1.5115875355	-0.362418881	 0.0910048439	 0.377371
C	-1.8474467316	-1.6429835545	-0.0939632957	-0.232368
C	-3.338463137	-1.6307120921	 0.2853808398	 0.024837
C	-3.849063717	-0.3809690371	-0.493379355	-0.216207
C	-2.8683732982	 0.2282885922	 0.5519910037	-0.049168
O	-3.3326809211	-0.7931937076	 1.4940437286	-0.284839
H	 1.1675190322	 1.6026220752	 1.0346755292	 0.125826
H	-0.534829274	 1.8738784325	 1.4641649702	 0.119857
H	 0.2960930882	 0.4241194179	 2.0442151641	 0.119428
H	-0.2951831702	 1.0757818795	-0.8930503191	 0.102014
H	 0.9361311769	-1.1927368221	 0.2009310288	 0.279359
H	-1.2600147962	-2.4787582627	-0.4422909024	 0.111836
H	-3.8924573157	-2.5633305316	 0.3804265809	 0.081716
H	-3.6134451301	-0.2906840269	-1.5557143049	 0.09975
H	-4.8930641105	-0.1426573002	-0.2765673022	 0.107745
H	-2.9285732382	 1.2511173975	 0.9224318463	 0.079162
59.1052	122.9165	184.3249	238.3361	296.0065	329.1014	403.4511	449.1062	501.5146	600.7335	618.6393	687.9836	789.7274	805.9437	844.9265	846.9186	890.4856	898.0725	916.4344	938.2565	1004.451	1032.2942	1048.0598	1076.3164	1098.532	1101.3632	1158.2302	1176.5808	1209.5	1233.9873	1260.6944	1272.381	1296.8062	1311.7798	1334.9344	1399.6606	1417.2312	1483.3382	1489.5624	1492.6115	1675.6308	3006.4111	3034.649	3063.2127	3105.3721	3123.5938	3129.0223	3135.633	3138.615	3250.3623	3792.7718
CC(O)C1=CC2CC1O2	C[C@@H](O)C1=C[C@@H]2C[C@H]1O2	
InChI=1S/C7H10O2/c1-4(8)6-2-5-3-7(6)9-5/h2,4-5,7-8H,3H2,1H3	InChI=1S/C7H10O2/c1-4(8)6-2-5-3-7(6)9-5/h2,4-5,7-8H,3H2,1H3/t4-,5-,7-/m1/s1
