23
gdb 82234	2.33504	1.82585	1.33155	0.2995	87.24	-0.2553	0.0757	0.331	1079.7184	0.20854	-351.146313	-351.138388	-351.137444	-351.178261	32.881	
C	-0.6936350266	 1.3578777394	-0.0307944506	-0.393656
C	-0.0821683151	-0.0472013893	-0.0313678468	-0.000346
C	 0.7159569614	-0.4027423228	-1.288089334	-0.035507
C	 2.0512908545	 0.258315055	-1.5163571012	-0.296993
C	 1.9927637242	-1.1165024335	-0.8897823552	-0.048619
C	 2.0445511106	-1.2350957168	 0.6293503318	-0.021532
C	 3.0443435509	-0.3271487691	 1.4065107206	-0.227736
C	 1.8913438745	 0.6748977431	 1.7058598643	-0.239475
C	 0.8593469917	-0.3638657081	 1.1591747066	-0.010764
H	 0.0733535037	 2.1319446606	-0.1302301738	 0.11445
H	-1.3919784432	 1.4797502069	-0.8654691955	 0.1098
H	-1.2458538919	 1.5500393281	 0.8955266347	 0.108441
H	-0.9115033422	-0.7659852181	 0.0216167941	 0.06853
H	 0.1543034218	-0.7148390135	-2.1632122815	 0.074427
H	 2.404840447	 0.3152398602	-2.5406689873	 0.105331
H	 2.3419012695	 1.1114035915	-0.914112285	 0.109939
H	 2.3707628133	-1.9463679992	-1.4774705978	 0.075751
H	 2.0484364337	-2.2886818408	 0.921345488	 0.059652
H	 3.4327690905	-0.8038304591	 2.3103015361	 0.094695
H	 3.8911043162	 0.0561451121	 0.8315556335	 0.097206
H	 1.7621448723	 0.947567448	 2.7563079771	 0.091718
H	 1.9501148352	 1.6025289224	 1.1319500704	 0.100082
H	 0.3004510381	-0.8215019768	 1.9794366116	 0.064605
126.3006	178.154	220.6412	233.4153	275.2982	371.5249	447.9057	494.7348	613.4799	629.581	700.7753	736.6125	772.7709	791.1582	821.6621	865.8287	903.5481	929.0721	940.2262	957.261	976.3566	1003.424	1036.97	1041.898	1050.8053	1062.9208	1098.285	1103.8578	1114.5177	1151.8976	1165.1216	1192.4176	1209.1963	1228.3064	1250.6844	1264.8305	1272.3874	1304.4064	1329.3288	1343.1599	1350.828	1368.502	1389.9458	1410.2511	1475.0047	1486.4259	1494.2021	1499.1758	1505.9769	3000.1225	3031.3294	3053.4024	3058.8461	3061.0565	3072.5926	3094.8973	3096.9473	3104.5477	3116.6241	3133.3133	3148.9206	3161.7302	3213.0879
CC1C2CC2C2CCC12	C[C@H]1[C@H]2C[C@H]2[C@H]2CC[C@@H]12	
InChI=1S/C9H14/c1-5-6-2-3-7(6)9-4-8(5)9/h5-9H,2-4H2,1H3	InChI=1S/C9H14/c1-5-6-2-3-7(6)9-4-8(5)9/h5-9H,2-4H2,1H3/t5-,6+,7+,8-,9+/m1/s1
