18
gdb 66563	2.3843	2.21915	1.60514	0.9557	74.14	-0.2119	0.0656	0.2776	904.0312	0.147849	-401.853818	-401.846481	-401.845536	-401.885008	29.997	
C	-0.0426126861	 1.4504895762	 0.037119848	-0.520657
C	-0.0418074417	-0.044916318	 0.0492749985	 0.319637
C	 0.412195189	-1.0511192337	-1.0050182783	-0.165088
C	 1.1520703984	-0.9571973628	 0.3006476712	-0.078408
N	 0.5484575636	-2.1956057416	 0.8971841917	-0.157753
C	-0.5068924812	-1.6760841294	 1.8413654357	-0.24526
C	-1.1396174396	-0.987142731	 0.6123722375	 0.308644
O	-2.429465741	-0.4935994164	 0.515961219	-0.479634
C	-0.4527078692	-2.0977392386	-0.2726750243	-0.0942
H	 0.8475374768	 1.8367674117	-0.4710835306	 0.11909
H	-0.9230948804	 1.8400254897	-0.4844475226	 0.133654
H	-0.0485733753	 1.8594481293	 1.0542506673	 0.121162
H	 0.7447062419	-0.9306514163	-2.02677043	 0.093528
H	 2.1579981687	-0.6245621489	 0.5258887458	 0.089725
H	-1.098800941	-2.5165605907	 2.2217153874	 0.095164
H	-0.1378953682	-1.0676247056	 2.6728642081	 0.102893
H	-3.0428956594	-1.1719425866	 0.8177126815	 0.284571
H	-0.9064375452	-3.0114001173	-0.6537720658	 0.07293
184.8768	198.8494	214.7845	281.9614	364.8886	372.5818	449.9468	563.1138	605.7222	636.6711	749.2383	769.2342	812.1832	851.6863	854.1505	873.4497	893.3608	905.0829	940.1641	978.0114	1031.5669	1052.5757	1062.4245	1076.8227	1106.9996	1123.469	1165.6597	1180.3778	1200.2367	1224.222	1241.1572	1266.0926	1293.6461	1376.7804	1412.467	1440.508	1482.3068	1494.9082	1500.0985	3024.5246	3034.7128	3086.2093	3096.8048	3096.9514	3124.3529	3184.9248	3208.9736	3808.5431
CC12C3C1N1CC2(O)C31	C[C@@]12[C@H]3[C@@H]1N1C[C@]2(O)[C@@H]31	
InChI=1S/C7H9NO/c1-6-3-4(6)8-2-7(6,9)5(3)8/h3-5,9H,2H2,1H3	InChI=1S/C7H9NO/c1-6-3-4(6)8-2-7(6,9)5(3)8/h3-5,9H,2H2,1H3/t3-,4-,5+,6+,7-/m0/s1
