16
gdb 33385	3.43467	0.77025	0.65083	4.2739	82.11	-0.2693	-0.0517	0.2176	1639.9247	0.123013	-400.701829	-400.692841	-400.691896	-400.737127	31.613	
N	 0.8863037666	-3.0268221348	 0.6699626214	-0.333391
C	 0.5619729655	-1.932597542	 0.4533009706	 0.216719
C	 0.180553519	-0.6462794683	 0.2003065221	-0.030169
C	-0.1547703066	 0.4935966602	-0.0184697886	 0.167893
C	-0.582486551	 1.8667397066	-0.301286263	-0.252366
O	 0.4326460808	 2.6996961713	-0.8190603599	-0.226931
C	 1.3866776278	 3.0991059862	 0.1284919206	 0.138536
C	 2.6411044548	 2.2871902526	 0.3177423914	-0.281638
C	 2.6763921438	 3.6107210455	-0.4204586586	-0.289452
H	-1.3731114438	 1.8409413154	-1.0594501961	 0.157125
H	-1.0207917107	 2.2964191381	 0.6138381728	 0.136862
H	 0.9545263168	 3.595853481	 0.997597871	 0.090596
H	 3.0721931615	 2.2245477857	 1.31067153	 0.120367
H	 2.7398479665	 1.3899719418	-0.2809117078	 0.132159
H	 2.7904964515	 3.5708619031	-1.49762419	 0.132589
H	 3.1322596074	 4.4712500777	 0.0551881643	 0.121102
40.8695	56.1066	122.6482	146.7314	245.6622	258.403	354.556	405.4609	409.1779	548.5147	577.1109	589.8901	733.8694	747.3132	809.225	823.9698	949.4119	968.559	1035.1537	1053.0985	1075.0251	1084.5846	1127.0732	1148.7256	1184.172	1193.0572	1239.2552	1297.6086	1372.9964	1411.7664	1454.1282	1463.7935	1497.5627	2263.0195	2400.3536	2982.5753	3068.8054	3098.4553	3142.8176	3146.3553	3227.5696	3241.2153
N#CC#CCOC1CC1	N#CC#CCOC1CC1	
InChI=1S/C7H7NO/c8-5-1-2-6-9-7-3-4-7/h7H,3-4,6H2	InChI=1S/C7H7NO/c8-5-1-2-6-9-7-3-4-7/h7H,3-4,6H2
