17
gdb 13178	3.65833	1.40707	1.07361	3.5222	68.63	-0.2926	0.0112	0.3038	1079.7979	0.142187	-363.859607	-363.851381	-363.850436	-363.89272	29.718	
O	-0.1488804585	 1.3790216545	 0.022981557	-0.409693
C	 0.0681491507	-0.0184045811	-0.050202589	-0.037455
C	 0.8347490154	-0.3794396988	-1.2638109363	 0.257014
N	 1.4680091347	-0.6462245109	-2.19311586	-0.320045
C	 0.7438831911	-0.5833353192	 1.1986750783	 0.033041
C	-0.024772619	-0.4599107549	 2.5421640162	-0.235631
C	 0.4559610714	-1.8931860912	 2.8998846343	-0.213418
C	 0.7831384358	-2.1245086315	 1.3985274332	-0.235637
H	 0.7093436782	 1.813638274	 0.0900450717	 0.293658
H	-0.9316600196	-0.4584206277	-0.1447002486	 0.133678
H	 1.7512394814	-0.1581514119	 1.2801955015	 0.080799
H	 0.2532912004	 0.3576560396	 3.2096955371	 0.106142
H	-1.105978029	-0.4182657052	 2.3777507162	 0.109004
H	 1.360282841	-1.877728998	 3.5141490734	 0.10931
H	-0.2669491313	-2.5654697554	 3.3660915687	 0.10532
H	-0.0427089153	-2.6161520486	 0.8739389114	 0.108554
H	 1.7097299925	-2.6420774037	 1.1448937049	 0.115361
69.266	112.7193	126.9074	212.7119	252.7326	310.5431	375.2418	427.6089	497.0153	602.4293	664.199	780.2271	787.3456	890.2999	917.9834	935.0239	963.042	978.8342	1038.3459	1082.3538	1098.5674	1146.5032	1205.1211	1219.7999	1256.8503	1258.836	1267.8252	1283.695	1292.0478	1311.0544	1381.7614	1418.8812	1478.0064	1485.8236	1508.7424	2352.0009	3034.2376	3052.4739	3055.6835	3061.4029	3064.8488	3108.8381	3117.2735	3127.8329	3799.9367
OC(C#N)C1CCC1	O[C@@H](C#N)C1CCC1	
InChI=1S/C6H9NO/c7-4-6(8)5-2-1-3-5/h5-6,8H,1-3H2	InChI=1S/C6H9NO/c7-4-6(8)5-2-1-3-5/h5-6,8H,1-3H2/t6-/m0/s1
