14
gdb 125600	3.21805	1.44323	1.0025	1.7542	67.51	-0.2628	-0.0644	0.1984	1097.5097	0.102478	-470.082905	-470.075161	-470.074217	-470.115369	28.508	
C	-0.0315611881	 1.4857038938	-0.014828433	-0.458577
C	-0.0080959793	-0.0099556171	-0.0105407583	 0.216344
N	-0.0404391141	-0.6549507914	-1.1276128046	-0.210369
N	-0.0178989023	-2.0062849585	-1.092876807	-0.306906
C	 0.0373397174	-2.8215507995	 0.0246468928	 0.505794
O	 0.0541990419	-4.0288510557	-0.0262161002	-0.375981
N	 0.0703521535	-2.0844154894	 1.2002429424	-0.428987
C	 0.0523821468	-0.6973551654	 1.3046810282	 0.394598
O	 0.0843355745	-0.1279834074	 2.373999613	-0.3445
H	 0.8595609956	 1.883739908	 0.4812009137	 0.150837
H	-0.0778549653	 1.8549695454	-1.0398026479	 0.14116
H	-0.8925147235	 1.8564094156	 0.5507256582	 0.150866
H	-0.0449459074	-2.4655219447	-1.9900099853	 0.287094
H	 0.1113033403	-2.6155162337	 2.0607954882	 0.278626
103.0942	138.5872	150.3304	282.4857	323.9867	386.0524	414.6832	480.1047	538.7478	591.5297	601.2164	702.8898	711.8634	756.5394	797.2387	798.1397	969.9991	1023.0683	1057.1935	1154.1681	1233.186	1287.0375	1388.3633	1410.1172	1421.8872	1464.8463	1467.3676	1474.0668	1666.7981	1798.0308	1840.4889	3046.5568	3101.3065	3153.9202	3601.2169	3645.5579
CC1=NNC(=O)NC1=O	Cc1n[nH]c(=O)[nH]c1=O	
InChI=1S/C4H5N3O2/c1-2-3(8)5-4(9)7-6-2/h1H3,(H2,5,7,8,9)	InChI=1S/C4H5N3O2/c1-2-3(8)5-4(9)7-6-2/h1H3,(H2,5,7,8,9)
