17
gdb 102447	2.02639	1.28041	0.88281	2.0672	72.76	-0.258	-0.0688	0.1892	1316.4524	0.131996	-458.917449	-458.907243	-458.906299	-458.953247	35.446	
C	-0.1116173319	 1.2704490034	 0.1042683235	-0.249764
O	 0.2174304688	-0.1093486432	 0.0920602302	-0.242074
C	 0.6975318936	-0.5973721828	-1.1324626192	-0.025984
C	 1.3350506598	-1.9634091817	-0.8164908706	-0.068955
O	 2.3548834471	-1.8207496901	 0.1425753756	-0.416932
C	-0.405470422	-0.7318862061	-2.1889122338	 0.208174
O	-1.5774294621	-0.5519693803	-1.9466367146	-0.282578
C	 0.0631367431	-1.0964737859	-3.5162360992	 0.277455
C	 0.4706020478	-1.3954380049	-4.6090882447	-0.41655
H	 0.7476977519	 1.8846928736	-0.203002002	 0.109377
H	-0.9643464851	 1.4854340591	-0.5479116248	 0.138581
H	-0.3765341768	 1.5208642054	 1.1336285584	 0.13345
H	 1.4828848928	 0.0618673123	-1.5417438582	 0.093073
H	 0.5400734643	-2.6437498233	-0.4730427624	 0.106617
H	 1.7846419959	-2.3847347121	-1.7190032224	 0.123666
H	 1.9616379094	-1.3176646362	 0.8665525513	 0.291489
H	 0.8163268534	-1.6601587172	-5.579238797	 0.220956
49.1826	103.9156	117.0487	139.1242	165.285	193.4593	251.162	262.2833	311.8878	362.8766	462.9986	500.8343	508.9055	616.3925	658.7062	698.2779	716.5743	846.3145	906.7354	1025.9276	1069.5394	1086.2408	1110.8621	1173.8234	1183.3204	1201.9758	1257.1017	1268.7021	1373.8803	1386.7088	1431.7956	1480.4579	1486.3811	1500.3246	1511.9473	1772.0608	2208.3228	2960.3315	2990.025	2996.7827	3080.5307	3105.3974	3129.0265	3491.933	3784.2904
COC(CO)C(=O)C#C	CO[C@@H](CO)C(=O)C#C	
InChI=1S/C6H8O3/c1-3-5(8)6(4-7)9-2/h1,6-7H,4H2,2H3	InChI=1S/C6H8O3/c1-3-5(8)6(4-7)9-2/h1,6-7H,4H2,2H3/t6-/m0/s1
