18
gdb 14270	2.94426	2.65226	1.80222	1.5339	72.07	-0.2355	0.0304	0.266	794.3698	0.156672	-347.803174	-347.796788	-347.795843	-347.833309	26.122	
C	 0.0112701129	 1.5063045562	 0.4416174343	-0.285808
C	 1.468450683	 1.4630691438	-0.0625850014	 0.114013
C	 2.5236981263	 1.2359114744	 1.0096364983	-0.258177
C	 2.2509083075	 0.1243007422	 1.9906658682	-0.047114
C	 1.2822536293	-0.7946847801	 1.9958095204	-0.047114
C	 0.1523711513	-1.0138196113	 1.022230171	-0.258177
C	-0.0249819965	 0.0462140912	-0.054654907	 0.114013
O	 1.2002414726	 0.2460927402	-0.8053116875	-0.298707
H	-0.148952214	 1.6811476912	 1.5066879966	 0.107964
H	-0.623360502	 2.1719492502	-0.1455752047	 0.105984
H	 1.7764728087	 2.2731649243	-0.7331416236	 0.072013
H	 3.4859808941	 1.0381392429	 0.5144776095	 0.118089
H	 2.6686044965	 2.1772076733	 1.5612052349	 0.103315
H	 2.9777222048	 0.0732745046	 2.8001626963	 0.083143
H	 1.2995216571	-1.5188738102	 2.8090741309	 0.083143
H	 0.2965030545	-1.9877883756	 0.5314195951	 0.118089
H	-0.7921437358	-1.106076674	 1.5795855568	 0.103315
H	-0.8538864702	-0.2223195032	-0.7191743081	 0.072013
162.8725	292.4743	304.4807	361.4497	398.1258	426.6313	576.7691	680.9255	762.0688	808.7218	830.6051	867.3426	878.3222	905.627	906.8357	972.5736	992.4323	1005.8397	1020.7167	1065.7512	1072.2507	1124.845	1125.8698	1206.945	1213.5728	1242.5274	1260.0204	1281.1973	1343.0238	1353.6519	1374.5276	1379.9692	1405.6966	1437.3227	1452.8421	1453.5601	1488.0463	1731.1117	2995.8119	2995.9781	3022.1057	3023.6993	3039.943	3042.9141	3079.7712	3121.318	3136.0153	3145.8865
C1C2CC=CCC1O2	C1[C@H]2CC=CC[C@@H]1O2	
InChI=1S/C7H10O/c1-2-4-7-5-6(3-1)8-7/h1-2,6-7H,3-5H2	InChI=1S/C7H10O/c1-2-4-7-5-6(3-1)8-7/h1-2,6-7H,3-5H2/t6-,7+
