18
gdb 57671	2.17705	1.17177	0.92926	6.229	73.33	-0.2822	-0.0039	0.2782	1307.856	0.144159	-439.128635	-439.11855	-439.117606	-439.163921	35.634	
C	-0.0427870265	 1.5586976159	 0.0331026605	-0.421771
C	 0.0545615621	 0.0293960014	 0.0647912359	 0.319701
C	 0.7655563024	-0.4843909069	 1.3205136824	-0.426694
C	-1.3700914232	-0.5623805811	-0.0518118054	-0.351335
C	-1.4077384378	-2.0215140513	 0.0146918219	 0.279558
N	-1.4448247754	-3.173586106	 0.0887756802	-0.307246
O	 0.7012796606	-0.456971133	-1.1447553944	-0.223053
C	 1.9886514883	-0.1546961706	-1.4002889545	 0.170324
O	 2.5376411914	-0.5117099295	-2.3992265855	-0.268635
H	 0.94540109	 2.020770157	 0.0990264786	 0.131469
H	-0.5187681862	 1.8950520728	-0.8921917884	 0.14
H	-0.6327997427	 1.9197539831	 0.8807127415	 0.131516
H	 0.1763499855	-0.2363130832	 2.2086984706	 0.131633
H	 0.8849731571	-1.5694158696	 1.2779654675	 0.164798
H	 1.7500021377	-0.0263004486	 1.4418432238	 0.128644
H	-1.9948863448	-0.1591123161	 0.7519461789	 0.152945
H	-1.8065909171	-0.2414366582	-1.0026912451	 0.166102
H	 2.4765651787	 0.4444880342	-0.6124556486	 0.082044
63.723	95.7609	127.8216	148.307	205.6706	232.7935	249.4196	322.1547	337.0508	361.9121	391.1331	425.7001	455.3664	566.688	611.262	802.0629	888.1166	915.2156	936.7787	963.8693	1008.2282	1029.4562	1045.1694	1160.3927	1172.6352	1199.8992	1250.4406	1293.6737	1348.4637	1406.3619	1418.6434	1435.9589	1451.6658	1481.0919	1489.1768	1502.7615	1505.7867	1860.6843	2367.7583	2988.2794	3045.9874	3050.517	3057.4592	3101.4192	3117.3064	3123.0372	3127.509	3137.8163
CC(C)(CC#N)OC=O	CC(C)(CC#N)OC=O	
InChI=1S/C6H9NO2/c1-6(2,3-4-7)9-5-8/h5H,3H2,1-2H3	InChI=1S/C6H9NO2/c1-6(2,3-4-7)9-5-8/h5H,3H2,1-2H3
