14
gdb 125739	3.14085	1.47997	1.01235	7.9756	68.56	-0.2605	-0.0742	0.1862	1094.0715	0.10033	-470.027671	-470.019461	-470.018517	-470.060571	30.028	
C	-0.0350691193	 1.5296027584	 0.0278204665	-0.503358
C	-0.0101148855	 0.0287623628	 0.0165785731	 0.318039
N	-0.040341388	-0.5517551014	-1.1326221885	-0.094969
O	-0.0185411956	-1.9164986067	-1.1658429937	-0.256427
C	 0.035999148	-2.715621671	 0.0140662394	 0.458478
O	 0.0495389362	-3.8966823229	-0.1655625395	-0.33496
N	 0.0671980726	-2.0728275533	 1.221933649	-0.407023
C	 0.0460171795	-0.771472321	 1.2408577255	 0.360368
N	 0.0766501343	-0.1374122243	 2.4300540609	-0.550696
H	 0.8623371517	 1.9397430947	 0.5061592657	 0.142128
H	-0.0770265392	 1.8954174043	-0.99900883	 0.168111
H	-0.9103319794	 1.9098310743	 0.5679206981	 0.142108
H	 0.1148688696	-0.698495217	 3.2659257245	 0.282653
H	 0.0619408453	 0.8625646729	 2.5069483988	 0.275548
73.4316	152.3111	186.5779	227.5128	298.3892	309.914	372.9337	411.5119	486.1788	550.9378	582.5071	590.7076	702.4982	763.6813	767.3255	786.9533	834.5753	980.6376	1032.147	1061.7032	1092.2307	1236.3074	1281.7881	1410.4192	1459.6534	1483.573	1484.3254	1594.8985	1632.0648	1686.888	1881.7082	3027.3465	3081.9447	3146.4416	3612.0605	3755.6239
CC1=NOC(=O)N=C1N	Cc1noc(=O)nc1N	
InChI=1S/C4H5N3O2/c1-2-3(5)6-4(8)9-7-2/h1H3,(H2,5,6,8)	InChI=1S/C4H5N3O2/c1-2-3(5)6-4(8)9-7-2/h1H3,(H2,5,6,8)
