15
gdb 47963	3.03914	0.83603	0.69096	4.4646	87.22	-0.2541	-0.0599	0.1942	1570.7974	0.109326	-383.416706	-383.40742	-383.406476	-383.451755	32.745	
O	-0.18850057	 0.0820121995	 0.3445188227	-0.232178
C	 0.0033305768	 1.1731012866	-0.1432630156	 0.010324
C	 1.2456963073	 1.8921167133	-0.081298861	 0.046414
C	 2.2749939342	 2.5266228494	-0.0494604543	 0.038082
C	 3.4971789518	 3.2746276383	-0.0091175277	 0.013454
C	 3.8113148665	 4.1693237063	-1.2268040198	-0.28086
C	 3.3759552491	 4.8124288259	 0.0394704633	-0.280859
C	 4.6075294875	 2.6685950175	 0.6803704235	 0.248546
C	 5.5416738602	 2.1749485308	 1.2525501687	-0.440328
H	-0.798590597	 1.7099883688	-0.6912985377	 0.094794
H	 4.8568218383	 4.2199674228	-1.5045699602	 0.147134
H	 3.11135039	 4.1126453455	-2.0512681496	 0.142891
H	 2.3698981396	 5.2079293686	 0.1052978363	 0.14289
H	 4.1159020732	 5.3144516672	 0.6504171081	 0.147129
H	 6.3592194726	 1.7279488594	 1.7619880132	 0.202566
59.7477	66.6967	127.8984	166.3291	204.3735	211.0446	269.0677	425.7885	477.169	481.2022	574.0855	584.6023	605.044	668.1644	696.2042	786.0616	812.3641	865.4885	964.521	970.5696	1018.6711	1065.5297	1079.9667	1094.0011	1200.2596	1266.3359	1332.4191	1422.8232	1461.1888	1488.5732	1763.4907	2243.8904	2315.1551	2909.1505	3152.4706	3155.5763	3242.3403	3256.7528	3503.3358
O=CC#CC1(CC1)C#C	O=CC#CC1(CC1)C#C	
InChI=1S/C8H6O/c1-2-8(5-6-8)4-3-7-9/h1,7H,5-6H2	InChI=1S/C8H6O/c1-2-8(5-6-8)4-3-7-9/h1,7H,5-6H2
