22
gdb 15418	4.67855	0.8289	0.76386	1.2928	79.25	-0.2609	0.0813	0.3421	1559.5252	0.199295	-350.191939	-350.182116	-350.181172	-350.227162	35.28	
C	-0.4103783	 1.5064233741	 0.272456112	-0.372649
C	 0.1901971369	 0.1441232128	-0.0950625132	-0.192982
C	 0.8927529289	-0.5126990468	 1.0766817741	 0.004965
C	 0.1314966253	-1.352753915	 2.075835837	-0.292571
C	 1.1549944963	-1.9992003362	 1.1671446239	-0.016376
C	 0.7412510302	-2.9827202453	 0.0926699926	-0.197606
C	 0.6170621653	-4.4043219951	 0.6313086879	-0.065449
O	 0.2408886339	-5.2492151189	-0.4466148287	-0.423148
H	 0.3643519353	 2.1985286051	 0.6209135117	 0.111951
H	-0.9061658534	 1.9675113339	-0.5875935341	 0.108727
H	-1.1485401184	 1.406764338	 1.0752162343	 0.117018
H	-0.603923556	-0.5097418947	-0.4720794154	 0.096957
H	 0.8992484089	 0.2705172152	-0.9241864183	 0.095885
H	 1.679304592	 0.1079399608	 1.5022400499	 0.076558
H	 0.349570122	-1.2511129955	 3.1334808782	 0.105003
H	-0.9149115119	-1.5494327451	 1.8579186349	 0.106096
H	 2.0967787418	-2.2593413045	 1.6469233773	 0.076967
H	-0.2207044179	-2.7017869156	-0.3481558127	 0.104571
H	 1.4710925982	-2.987241846	-0.7266992449	 0.103946
H	 1.5786295385	-4.7207384359	 1.0687303734	 0.080634
H	-0.130551189	-4.4279010855	 1.4401573223	 0.08742
H	 0.1560249432	-6.1457689999	-0.1099614121	 0.28408
62.0433	89.3478	95.1714	115.7415	207.5792	236.1994	264.652	284.4989	315.9845	413.9991	460.6397	552.0807	751.9752	795.9069	798.1133	835.8883	871.0057	933.3279	949.1605	989.7512	1019.5983	1049.3391	1063.1452	1076.2487	1093.0007	1118.2372	1149.1204	1183.6454	1200.7984	1237.2486	1242.6874	1252.2007	1295.9898	1314.7914	1326.2771	1344.3252	1405.9682	1413.5594	1435.6557	1460.4157	1482.2971	1489.6576	1498.6748	1500.5803	1507.9583	1527.4732	2960.1717	2989.1797	3017.4924	3030.6013	3033.1832	3058.6738	3083.4604	3098.3117	3103.7399	3113.5388	3119.5395	3125.8622	3203.8417	3830.8626
CCC1CC1CCO	CC[C@H]1C[C@H]1CCO	
InChI=1S/C7H14O/c1-2-6-5-7(6)3-4-8/h6-8H,2-5H2,1H3	InChI=1S/C7H14O/c1-2-6-5-7(6)3-4-8/h6-8H,2-5H2,1H3/t6-,7+/m0/s1
