18
gdb 103889	3.04877	0.91905	0.79834	4.7278	72.85	-0.2717	0.0323	0.304	1425.708	0.146009	-439.076546	-439.066976	-439.066032	-439.111591	34.873	
O	 0.5215785915	 0.4836876938	 0.8817003087	-0.421047
C	-0.0534989984	 0.1987776566	-0.3793270639	-0.113191
C	-1.3963262606	-0.4776574335	-0.225756373	 0.340507
O	-2.313691518	 0.3392588132	 0.4674019875	-0.470862
C	-1.9235722141	-1.4399685121	-1.2599157822	-0.357911
C	-1.5239263807	-1.9309115845	 0.1193923569	-0.024523
C	-0.3086933465	-2.817826369	 0.3408626425	-0.37033
C	-0.6278914384	-4.2376177945	 0.1811782409	 0.263353
N	-0.891843022	-5.3553106368	 0.0545003335	-0.305303
H	-0.1819235812	 0.8823609256	 1.4088169881	 0.290498
H	-0.1868225899	 1.1172224644	-0.9781487848	 0.083821
H	 0.655727616	-0.4324486699	-0.9224625092	 0.107556
H	-2.608076682	 1.0335692846	-0.134323614	 0.288618
H	-2.982638868	-1.406086593	-1.4888939806	 0.126617
H	-1.2832363184	-1.6890455626	-2.1008261977	 0.121967
H	-2.354280884	-2.146286989	 0.7839242963	 0.12195
H	 0.4940401396	-2.5710029556	-0.3614140937	 0.150262
H	 0.0999930052	-2.6581461176	 1.3449392948	 0.168018
48.7508	76.2667	133.2604	171.7675	231.9678	282.837	335.3035	371.7644	390.9957	411.5681	431.9833	462.4451	544.5679	564.8492	773.8406	847.674	866.8731	911.2412	922.506	947.2135	992.6726	1031.916	1060.4477	1073.2963	1099.1278	1147.4199	1191.9371	1230.1213	1258.4569	1294.5818	1315.916	1349.9722	1371.0333	1416.2534	1441.7728	1459.0023	1494.8004	1508.6427	2363.5683	2949.7561	3050.6815	3083.1006	3090.3881	3130.7267	3169.699	3222.2914	3781.2626	3784.1117
OCC1(O)CC1CC#N	OC[C@@]1(O)C[C@H]1CC#N	
InChI=1S/C6H9NO2/c7-2-1-5-3-6(5,9)4-8/h5,8-9H,1,3-4H2	InChI=1S/C6H9NO2/c7-2-1-5-3-6(5,9)4-8/h5,8-9H,1,3-4H2/t5-,6+/m1/s1
