22
gdb 63489	2.82602	1.14895	0.99538	3.5775	83.87	-0.2424	0.0312	0.2736	1307.3833	0.191666	-404.373066	-404.362537	-404.361593	-404.40828	38.965	
C	-0.0791633499	 1.5433052037	-0.0051068058	-0.452496
C	-0.0010036241	 0.0264294471	 0.0030635359	 0.270776
C	-1.2409321096	-0.6258387178	-0.5858171925	-0.460157
C	 1.333225215	-0.6400667673	-0.24791549	-0.333745
C	 0.7351884325	-0.6797514507	 1.1398701278	 0.303459
C	 1.404038831	 0.0774263296	 2.2740047861	-0.453044
N	 0.1852750647	-1.9476759707	 1.5623573871	-0.31848
C	 0.9481259872	-3.0402796498	 1.8452946428	 0.147668
O	 2.1488521157	-3.1166035174	 1.6993309854	-0.324128
H	 0.8410122843	 2.0162068728	 0.3431482471	 0.118838
H	-0.2644723637	 1.9020436921	-1.0240600146	 0.118671
H	-0.9016921516	 1.9041647055	 0.6241184689	 0.113256
H	-1.390952746	-0.2846871911	-1.6162727916	 0.121043
H	-1.1651475051	-1.7148749885	-0.6046184853	 0.119584
H	-2.1428713213	-0.3549747975	-0.0216104582	 0.108192
H	 1.3514022922	-1.5662327071	-0.8102670135	 0.121693
H	 2.2080744992	-0.014005439	-0.3897127171	 0.111447
H	 1.8796011922	 0.9981303483	 1.9309718252	 0.116993
H	 0.6834076962	 0.3381879893	 3.0577256492	 0.107157
H	 2.1795209826	-0.5554117018	 2.7150137609	 0.149301
H	-0.7864193939	-1.9830703015	 1.831514074	 0.243799
H	 0.3289657725	-3.8807884083	 2.2226732479	 0.070171
51.3785	122.2377	165.284	177.6768	196.1977	209.5311	223.4418	273.2939	315.7008	366.6312	398.3721	433.0532	468.0177	492.5438	540.2254	649.4282	698.1286	840.233	882.2785	913.1076	943.5765	969.3909	982.9284	1024.1164	1031.2532	1039.2558	1064.7453	1119.4875	1153.2278	1170.8604	1211.1886	1246.2119	1306.831	1386.1387	1407.1478	1410.7347	1424.5838	1432.1335	1478.2253	1484.9163	1487.9345	1491.5934	1500.561	1506.6658	1508.7375	1518.6102	1806.5987	2914.7046	3018.8153	3026.7945	3035.8546	3076.1457	3081.8016	3104.0901	3119.6195	3123.7	3133.2912	3138.4827	3224.3392	3609.396
CC1(C)CC1(C)NC=O	CC1(C)C[C@]1(C)NC=O	
InChI=1S/C7H13NO/c1-6(2)4-7(6,3)8-5-9/h5H,4H2,1-3H3,(H,8,9)	InChI=1S/C7H13NO/c1-6(2)4-7(6,3)8-5-9/h5H,4H2,1-3H3,(H,8,9)/t7-/m0/s1
