21
gdb 41746	3.52146	1.50219	1.40073	1.3217	81.13	-0.2443	0.0867	0.331	1017.4477	0.187279	-387.087359	-387.080605	-387.079661	-387.11815	28.525	
C	-0.0150562841	 1.538550949	-0.0200912176	-0.230546
C	 1.5305334185	 1.794437076	-0.0336551162	-0.230334
C	 2.0175768126	 0.3383928681	 0.0170190991	-0.018522
C	 1.089100163	-0.3795161825	-1.0082343897	-0.018223
C	 1.3279177284	-1.8860990575	-1.0864050498	-0.103443
O	 0.985241574	-2.5417274029	 0.1229464371	-0.249481
C	 1.3346725138	-1.8014716769	 1.280411507	-0.103443
C	 1.0951052926	-0.3042699865	 1.0962038929	-0.018223
C	-0.0119939534	 0.0025610768	 0.0348194487	-0.013844
H	-0.5076811187	 1.9838525842	 0.8495045382	 0.095035
H	-0.5127250115	 1.9207090967	-0.9164452657	 0.095035
H	 1.8633352267	 2.3131131915	-0.9379358169	 0.09425
H	 1.8683813022	 2.3763055651	 0.829359113	 0.094249
H	 3.0955864781	 0.1598020315	 0.0203289245	 0.052586
H	 1.0209568884	 0.0588678286	-2.0101304356	 0.056839
H	 0.6968237568	-2.3392668137	-1.858937852	 0.104804
H	 2.379356669	-2.0866301737	-1.3585827701	 0.083412
H	 0.7080867736	-2.1981808015	 2.0869223075	 0.104804
H	 2.3876874618	-1.9822644031	 1.5602166778	 0.083412
H	 1.0325852162	 0.2045636973	 2.0646041716	 0.056839
H	-0.9737397479	-0.5110219166	 0.0559272461	 0.064794
182.4365	244.7365	297.9632	318.9157	319.4375	441.6606	582.5353	668.5135	719.6006	796.932	813.6187	853.7964	876.6814	895.8126	911.3537	947.375	967.8852	983.6986	989.6293	990.227	1035.7091	1054.8073	1065.5797	1106.0724	1107.2177	1119.2153	1176.2438	1198.9384	1201.3393	1225.9864	1256.7825	1258.4962	1269.9715	1279.6546	1294.4645	1312.711	1319.6643	1325.9544	1382.8914	1382.9358	1432.5797	1492.4909	1504.1317	1511.7752	1514.3626	2944.5569	2951.6748	3040.9328	3041.6445	3043.9461	3053.3384	3058.5676	3062.193	3079.8288	3085.5998	3099.1797	3111.8788
C1CC2C3COCC2C13	C1C[C@@H]2[C@H]3COC[C@@H]2[C@@H]13	
InChI=1S/C8H12O/c1-2-6-7-3-9-4-8(6)5(1)7/h5-8H,1-4H2	InChI=1S/C8H12O/c1-2-6-7-3-9-4-8(6)5(1)7/h5-8H,1-4H2/t5-,6+,7-,8+
