23
gdb 93690	2.68481	1.21734	1.16116	2.2118	80.59	-0.2538	0.047	0.3009	1219.246	0.20579	-425.452594	-425.44304	-425.442095	-425.486001	37.967	
C	-0.0288785769	 1.5589027889	 0.0225309381	-0.43201
C	-0.0004334728	 0.028160576	 0.0035324194	 0.368679
O	-1.3433488368	-0.4771940859	 0.0478849226	-0.463184
C	 0.721441419	-0.5012249544	-1.2543196456	-0.23846
C	 0.8084254022	-2.0334560044	-1.2755864469	-0.21603
C	 1.4832330738	-2.5884288645	-0.0108793385	 0.139401
O	 2.8868750068	-2.3212717743	 0.0057281325	-0.446128
C	 0.7791152987	-2.0637944381	 1.2494550723	-0.226172
C	 0.6807744264	-0.5309802181	 1.2653507612	-0.21324
H	 0.9813783117	 1.9803955597	 0.0423957572	 0.111695
H	-0.5320842662	 1.9473866534	-0.8713305836	 0.101306
H	-0.5727356716	 1.9165374905	 0.9017148625	 0.121732
H	-1.804255758	-0.155999358	-0.7346011759	 0.275267
H	 0.202382738	-0.1379415092	-2.1512791999	 0.082033
H	 1.7276669922	-0.0623302994	-1.2991723095	 0.086768
H	-0.2045952873	-2.4452900729	-1.3398350507	 0.10096
H	 1.361937758	-2.3717506652	-2.1572888104	 0.096055
H	 1.4236729342	-3.6818738868	-0.0258974472	 0.078392
H	 3.0141604964	-1.3702589198	 0.0752075626	 0.277154
H	-0.232382919	-2.4807548999	 1.2869758182	 0.114416
H	 1.3170069803	-2.4175798179	 2.1349794007	 0.095524
H	 1.6798200718	-0.0824796207	 1.3488577969	 0.082191
H	 0.120779849	-0.199011049	 2.1458015542	 0.103651
107.5392	185.1939	199.868	215.1273	242.3042	279.4088	293.2454	345.5149	395.4746	399.5363	418.3705	447.7428	517.0761	534.0324	680.4914	728.2076	763.5767	803.496	872.4994	913.4745	948.3558	969.1012	975.5561	988.7513	1034.4812	1040.4184	1095.9192	1107.6157	1145.3896	1154.6762	1173.1119	1208.8819	1242.1196	1297.3991	1301.2644	1334.9094	1352.8724	1369.1696	1376.3006	1388.4303	1402.8799	1410.1031	1429.2258	1466.535	1479.4434	1483.2442	1491.0202	1495.1597	1498.242	3008.2712	3019.057	3026.7154	3035.8496	3042.6701	3047.1235	3059.8653	3073.1614	3089.1158	3090.7728	3095.2102	3113.9054	3804.2586	3822.6218
CC1(O)CCC(O)CC1	C[C@@]1(O)CC[C@@H](O)CC1	
InChI=1S/C7H14O2/c1-7(9)4-2-6(8)3-5-7/h6,8-9H,2-5H2,1H3	InChI=1S/C7H14O2/c1-7(9)4-2-6(8)3-5-7/h6,8-9H,2-5H2,1H3/t6-,7-
