16
gdb 132738	2.28706	1.79904	1.01427	3.5837	75.78	-0.216	-0.0147	0.2013	1099.9238	0.125078	-442.097049	-442.089042	-442.088098	-442.129283	30.756	
C	 0.0097149738	 1.5364458355	 0.0259619423	-0.526298
C	 0.0105005013	 0.033304915	-0.001088509	 0.102573
C	 0.0612948278	-0.6899680937	-1.2061790882	 0.214703
N	 0.1588878616	-0.0277482829	-2.427539675	-0.59092
C	 0.0745044285	-2.0915769565	-1.1439086955	-0.057352
N	 0.0462578753	-2.7879506109	-0.0122404084	-0.268222
C	-0.0041231758	-2.1145641088	 1.1369964217	-0.119234
C	-0.024021799	-0.7268489217	 1.1608417357	 0.196922
F	-0.0747646037	-0.1022868909	 2.3465364481	-0.083063
H	 0.8634189483	 1.9370041662	-0.5325893975	 0.143279
H	-0.8998786809	 1.9472238655	-0.4324079969	 0.129558
H	 0.0593342376	 1.9075609274	 1.0496899177	 0.148569
H	-0.292822603	 0.8738158506	-2.4714467163	 0.251398
H	-0.06727753	-0.5955726249	-3.2313700094	 0.252313
H	 0.1133952156	-2.6653323783	-2.0688121868	 0.092117
H	-0.0307489076	-2.6756196714	 2.0659286475	 0.113655
138.5324	161.1136	241.5842	270.9517	291.6086	322.2747	338.5832	480.6553	500.1375	556.4036	579.2033	586.5102	643.5361	685.5289	757.4561	827.1169	885.0294	924.8826	946.8295	1059.1867	1074.6901	1152.7763	1203.2576	1223.0845	1298.5613	1324.284	1353.3813	1411.0565	1465.415	1489.7357	1494.3429	1531.1676	1613.3353	1633.6576	1660.0301	3017.9232	3070.6785	3132.4624	3149.1055	3177.8233	3565.4847	3663.6241
CC1=C(N)C=NC=C1F	Cc1c(N)cncc1F	
InChI=1S/C6H7FN2/c1-4-5(7)2-9-3-6(4)8/h2-3H,8H2,1H3	InChI=1S/C6H7FN2/c1-4-5(7)2-9-3-6(4)8/h2-3H,8H2,1H3
