15
gdb 127665	2.84148	1.60335	1.03165	1.0718	69.18	-0.2677	-0.0404	0.2272	1082.2012	0.114843	-450.193685	-450.185417	-450.184473	-450.227134	29.377	
C	 0.0123586455	 1.4753297034	-0.0705051697	-0.345708
N	 0.0393847821	 0.0245479212	 0.0453045692	-0.027092
N	 0.0888482602	-0.7372562934	-1.0667286615	-0.24226
C	 0.1004937784	-1.9716984169	-0.5807451174	 0.02262
N	 0.061754109	-2.0492171257	 0.7682285275	-0.336944
C	 0.0235694353	-0.7717275197	 1.1382719608	 0.303528
C	-0.0287944646	-0.3110234108	 2.5574616425	 0.343574
N	-0.0329302197	-1.3474454984	 3.4280478969	-0.520478
O	-0.0635579359	 0.8649009005	 2.8840409351	-0.381187
H	 0.9108982985	 1.8097713187	-0.5938772918	 0.151772
H	-0.8660872647	 1.7723623067	-0.6477780045	 0.151777
H	-0.0268491057	 1.892202894	 0.9332163883	 0.195879
H	 0.1382036445	-2.8354538097	-1.2272685503	 0.133333
H	-0.0024243593	-2.2927764309	 3.0816372063	 0.283125
H	-0.0665726136	-1.1536647489	 4.4142215687	 0.268062
63.1928	90.5523	179.5731	227.2478	239.4048	302.5875	334.6627	418.92	516.5223	600.0805	673.5415	675.959	702.4223	725.622	812.8382	908.85	996.6494	1046.299	1098.8373	1161.1486	1173.1531	1214.8327	1302.8833	1321.6122	1348.237	1414.4829	1445.6031	1486.6084	1496.1237	1521.7566	1542.6386	1601.01	1782.7184	3063.0943	3132.091	3192.2661	3262.824	3593.9776	3739.6186
CN1N=CN=C1C(N)=O	Cn1ncnc1C(=O)N	
InChI=1S/C4H6N4O/c1-8-4(3(5)9)6-2-7-8/h2H,1H3,(H2,5,9)	InChI=1S/C4H6N4O/c1-8-4(3(5)9)6-2-7-8/h2H,1H3,(H2,5,9)
