20
gdb 113408	3.05565	1.34457	1.0963	2.7143	80.43	-0.227	0.0689	0.2959	1158.5033	0.171295	-403.038236	-403.029962	-403.029018	-403.071205	32.154	
O	 0.2090377375	 0.484914512	 0.96150407	-0.417728
C	-0.169513406	 0.1844559463	-0.3779303971	-0.096126
C	-1.4937086892	-0.5290487684	-0.3352343614	-0.12862
C	-1.8558370487	-1.5475872534	-1.423618736	-0.428006
C	-1.5517842061	-1.9800238842	-0.0359184535	 0.477177
C	-0.613823724	-2.9994514343	 0.6151418072	-0.15057
C	-1.3146994155	-2.5576476929	 1.9205350365	-0.170842
N	-2.505479426	-2.6546088299	 0.9365289398	-0.192981
C	-1.8196940436	-3.9552840245	 0.4628050916	-0.169395
H	 1.0178313319	 1.0052244686	 0.9375895051	 0.286261
H	-0.253738279	 1.1032904442	-0.9793278104	 0.089756
H	 0.5799812329	-0.4591160191	-0.8669270924	 0.080089
H	-2.3187692008	 0.0687921825	 0.0437198599	 0.102569
H	-2.8877181356	-1.5695676312	-1.7581772311	 0.123744
H	-1.1243433106	-1.7408366559	-2.2034040999	 0.111341
H	 0.4482935727	-3.1836015222	 0.4230231218	 0.064272
H	-1.3776644593	-3.2832457634	 2.7362133512	 0.09331
H	-1.121906251	-1.5449870851	 2.2772524466	 0.126908
H	-2.1144728794	-4.2592674335	-0.5442736214	 0.102302
H	-1.9145466102	-4.7761036257	 1.1791109732	 0.09654
79.5646	124.6011	161.6889	241.2102	258.9598	314.5825	397.4698	448.8187	550.3692	618.3213	637.0884	759.9227	779.6332	814.0366	838.2398	898.2632	922.2915	953.2896	988.8675	991.9569	1021.7507	1043.2764	1063.9075	1069.966	1088.7546	1107.1526	1121.4	1146.024	1160.461	1173.5626	1196.9042	1219.4061	1224.0074	1248.1907	1266.3409	1280.908	1336.5943	1419.898	1462.381	1503.5041	1505.735	1519.5934	1547.5483	2962.8904	2993.1525	3043.5048	3053.7265	3064.8895	3120.0953	3123.3192	3143.9824	3145.8429	3207.5349	3824.2797
OCC1CC11C2CN1C2	OC[C@H]1C[C@]21[C@H]1CN2C1	
InChI=1S/C7H11NO/c9-4-5-1-7(5)6-2-8(7)3-6/h5-6,9H,1-4H2	InChI=1S/C7H11NO/c9-4-5-1-7(5)6-2-8(7)3-6/h5-6,9H,1-4H2/t5-,7+/m1/s1
