16
gdb 17647	3.66406	1.51574	1.29441	3.5977	60.94	-0.2441	0.0119	0.256	964.2004	0.130853	-417.061193	-417.05296	-417.052015	-417.094305	29.986	
N	 0.060609941	 1.2404342431	 0.0977021417	-0.517658
C	 0.0166682413	-0.109759898	 0.0391263407	 0.40123
O	 1.0129205138	-0.8158251349	 0.0320720228	-0.379335
C	-1.377787469	-0.7656206437	-0.049055192	-0.012582
O	-1.1870155785	-2.1445363035	-0.2107478621	-0.433749
C	-2.2135213625	-0.472828058	 1.1952812526	-0.000963
C	-3.2116271941	-1.4632217603	 1.6570064243	-0.239163
N	-1.9667686789	-1.2376959949	 2.4199266145	-0.315555
H	 0.953794856	 1.6891901588	 0.2208267478	 0.272341
H	-0.772224887	 1.7973127831	 0.175428601	 0.269095
H	-1.8971071263	-0.3450711418	-0.9265098606	 0.095703
H	-0.217741234	-2.2546573065	-0.2104536663	 0.299285
H	-2.4167497461	 0.5842996542	 1.3637600088	 0.076332
H	-4.1194055598	-1.1266607257	 2.1492890627	 0.114709
H	-3.2968825451	-2.3823873269	 1.0870453905	 0.134439
H	-1.3212638806	-1.9916943549	 2.1868050437	 0.23587
63.0154	76.0695	183.9841	246.4338	259.1738	317.8609	381.5642	449.7286	525.649	571.4102	617.7577	650.0585	719.4231	814.1481	853.6694	879.4157	946.7278	995.5714	1023.7835	1093.849	1108.7396	1136.5948	1159.9903	1205.1593	1251.0086	1276.6396	1314.405	1342.148	1370.7177	1405.1372	1463.837	1501.4758	1622.4811	1783.8729	2965.9224	3105.7349	3121.0454	3214.9568	3476.8986	3600.9176	3604.6939	3736.1987
NC(=O)C(O)C1CN1	NC(=O)[C@@H](O)[C@H]1CN1	
InChI=1S/C4H8N2O2/c5-4(8)3(7)2-1-6-2/h2-3,6-7H,1H2,(H2,5,8)	InChI=1S/C4H8N2O2/c5-4(8)3(7)2-1-6-2/h2-3,6-7H,1H2,(H2,5,8)/t2-,3+/m1/s1
