15
gdb 53368	3.60675	0.90022	0.82921	5.4798	70.31	-0.2738	0.01	0.2838	1411.851	0.111958	-457.786553	-457.77782	-457.776876	-457.822674	29.443	
C	-0.1207004218	 1.4314971094	 0.0265784807	-0.497934
C	-0.0023657293	-0.0181150133	 0.025165	 0.034455
C	 0.0860048385	-1.2184790524	 0.0178650466	 0.127537
C	 0.2067296232	-2.6687174235	 0.020709266	-0.098815
C	 0.6203300228	-3.2670943766	 1.3896786917	-0.109989
O	-0.6092746539	-3.7416836615	 1.9312011268	-0.239048
C	-1.5481452105	-3.8229531779	 0.952727019	 0.503352
O	-2.6315150069	-4.2903068781	 1.0890314009	-0.367503
O	-1.0697604553	-3.3009997568	-0.2081501131	-0.234538
H	 0.5128617119	 1.8813142412	-0.7450394831	 0.157107
H	-1.1542757554	 1.7353974424	-0.1700492338	 0.164308
H	 0.1734669565	 1.8532193929	 0.9933984243	 0.156775
H	 0.8751498786	-3.0007404294	-0.7782964926	 0.132301
H	 1.3132014675	-4.1066809621	 1.2729197692	 0.127831
H	 1.045658114	-2.5237341842	 2.0635658673	 0.144162
16.5705	48.4134	97.2997	157.4922	180.3995	304.6405	331.2161	448.9917	482.4352	569.1057	729.2086	730.1464	768.3011	807.1914	897.621	957.1756	1021.6929	1049.6986	1052.4377	1067.2449	1097.5924	1140.7404	1182.3849	1237.9131	1310.2745	1372.5681	1403.198	1413.3388	1473.9768	1475.4567	1520.5056	1930.0093	2373.9584	3033.311	3052.2336	3074.1963	3097.607	3098.7069	3138.4543
CC#CC1COC(=O)O1	CC#C[C@H]1COC(=O)O1	
InChI=1S/C6H6O3/c1-2-3-5-4-8-6(7)9-5/h5H,4H2,1H3	InChI=1S/C6H6O3/c1-2-3-5-4-8-6(7)9-5/h5H,4H2,1H3/t5-/m0/s1
