14
gdb 27969	3.628	1.21027	0.90752	2.5192	74.59	-0.2495	-0.0737	0.1759	1181.3222	0.102622	-436.770724	-436.763561	-436.762617	-436.80253	27.067	
O	 0.4884139414	 1.3427188039	 0.3184436754	-0.416354
C	 0.2350690846	 0.0324092922	 0.134040886	 0.43377
N	 0.2896976845	-0.4408874694	-1.1013688344	-0.411401
C	 0.0360030047	-1.7492965807	-1.2797542999	 0.217496
C	 0.1110835479	-2.2284631232	-2.6885033404	 0.109524
O	-0.0876514738	-3.370129078	-3.0280715695	-0.257266
C	-0.2771914839	-2.6191210827	-0.2423527669	-0.175043
C	-0.3292175289	-2.098885825	 1.0514262034	-0.063222
C	-0.0710542716	-0.7540360227	 1.2555634872	-0.200787
H	 0.6751869856	 1.7089721059	-0.557420498	 0.302133
H	 0.3701576514	-1.4272720341	-3.4116478534	 0.086929
H	-0.4694197413	-3.6612067076	-0.4630111947	 0.131005
H	-0.5696136695	-2.7394783837	 1.8933475648	 0.120393
H	-0.097922001	-0.2991697847	 2.2378503204	 0.122824
115.0447	199.9175	201.2004	261.8104	385.9759	444.9722	485.1826	529.6563	558.4212	628.0296	664.804	760.3417	797.2305	836.522	927.8627	969.6585	1004.7766	1009.3275	1048.6899	1090.2515	1166.0794	1206.186	1258.4663	1350.8258	1366.1111	1396.667	1488.2634	1502.4308	1619.3621	1642.3927	1807.6867	2925.4055	3188.6799	3216.2633	3224.2043	3767.0793
OC1=NC(C=O)=CC=C1	Oc1nc(C=O)ccc1	
InChI=1S/C6H5NO2/c8-4-5-2-1-3-6(9)7-5/h1-4H,(H,7,9)	InChI=1S/C6H5NO2/c8-4-5-2-1-3-6(9)7-5/h1-4H,(H,7,9)
