18
gdb 87241	4.85074	0.71247	0.6905	5.8061	73.15	-0.2526	0.0419	0.2945	1606.6939	0.145604	-439.07981	-439.070213	-439.069269	-439.114702	35.081	
O	-0.0978200656	 1.3679241119	 0.0574803928	-0.429447
C	-0.0234488217	-0.0321118996	 0.0778909056	-0.000422
C	-0.6137895387	-0.7893220237	 1.2517353008	-0.390174
C	-1.357233806	-0.707323268	-0.0735221345	 0.437841
O	-2.4692388137	 0.1351677795	-0.13851837	-0.483449
C	-1.5197559831	-1.9303443464	-0.9424869599	-0.246438
C	-2.7551181942	-2.7517154004	-0.5149986271	-0.338874
C	-2.9515936006	-3.9384137541	-1.3424780391	 0.255635
N	-3.0882869587	-4.875321471	-2.0052307297	-0.308423
H	 0.386811547	 1.7167113065	 0.8125224445	 0.29974
H	 0.8464671472	-0.4483286348	-0.427739248	 0.101337
H	-0.1391173715	-1.7189938439	 1.5487093184	 0.118485
H	-1.0244685853	-0.1975815846	 2.0632107428	 0.11992
H	-2.123396775	 1.0393653841	-0.13798637	 0.294362
H	-1.6365757488	-1.6207551444	-1.9863588999	 0.128768
H	-0.6221526387	-2.5535111712	-0.8820114853	 0.116331
H	-2.6564492318	-3.0648647508	 0.5306589928	 0.150365
H	-3.6470814306	-2.1204585892	-0.5747296343	 0.174443
58.8879	90.9102	100.0255	193.2079	256.6235	265.0256	291.045	347.1378	393.4502	414.1585	452.2507	478.5439	536.195	644.3643	722.762	779.8868	838.4374	875.6028	929.7521	961.6442	996.175	1019.8789	1042.5328	1054.176	1094.6563	1160.6594	1188.6807	1229.4456	1272.8163	1281.2817	1299.6775	1345.0248	1368.7411	1395.3024	1428.6315	1468.2137	1481.444	1489.3159	2361.7827	3045.3803	3054.7409	3087.3152	3106.5286	3114.6536	3127.1035	3220.9744	3732.2068	3815.2991
OC1CC1(O)CCC#N	O[C@H]1C[C@]1(O)CCC#N	
InChI=1S/C6H9NO2/c7-3-1-2-6(9)4-5(6)8/h5,8-9H,1-2,4H2	InChI=1S/C6H9NO2/c7-3-1-2-6(9)4-5(6)8/h5,8-9H,1-2,4H2/t5-,6+/m0/s1
