15
gdb 84471	4.33037	1.20878	1.05626	1.9059	73.03	-0.2519	-0.0269	0.225	1105.3724	0.111338	-420.566906	-420.559131	-420.558187	-420.599018	30.259	
O	-0.0125890515	 1.4560978906	-0.041623584	-0.431633
C	 0.0742470456	 0.0423903244	-0.0350844301	 0.074209
C	 0.7314899921	-0.5037853645	 1.2271265461	-0.122184
C	-0.0672302724	-1.3283432919	 1.9034745552	-0.162901
C	-1.3886537369	-1.4693156062	 1.19844154	 0.243469
O	-2.0928400821	-0.1871081101	 1.0958504048	-0.300021
C	-1.3049827666	-0.6292739899	-0.011357458	-0.075564
C	-2.1983855343	-2.6416697337	 1.3348835649	 0.203999
C	-2.8498774933	-3.6414281111	 1.4777367408	-0.367784
H	-0.6299006393	 1.683673377	 0.6664754027	 0.29188
H	 0.6310979116	-0.2292697647	-0.9385890281	 0.099666
H	 1.7102445831	-0.1620582086	 1.5426346637	 0.117464
H	 0.1441799424	-1.8231517663	 2.8425848651	 0.117801
H	-1.850025255	-0.8439599005	-0.9254779885	 0.114148
H	-3.4332159735	-4.5214592344	 1.5937448454	 0.197452
107.1174	136.5369	186.9743	275.8605	408.8846	418.7448	465.5473	506.8393	519.8971	593.447	612.9844	625.9413	671.0162	717.0523	754.4932	850.1905	861.167	877.0938	951.6243	977.537	1011.3948	1051.7815	1084.8705	1133.4516	1200.5534	1268.3495	1273.2683	1306.2674	1341.9717	1416.5026	1431.3847	1666.5961	2245.4125	3056.7786	3166.2383	3201.7311	3228.3249	3501.2743	3766.4602
OC1C=CC2(OC12)C#C	O[C@H]1C=C[C@]2(O[C@@H]12)C#C	
InChI=1S/C7H6O2/c1-2-7-4-3-5(8)6(7)9-7/h1,3-6,8H	InChI=1S/C7H6O2/c1-2-7-4-3-5(8)6(7)9-7/h1,3-6,8H/t5-,6-,7+/m0/s1
