20
gdb 29773	2.40122	1.5065	0.94205	1.5815	84.9	-0.174	0.0546	0.2286	1272.3498	0.168918	-403.191391	-403.180722	-403.179777	-403.22738	37.192	
C	-0.0609386331	 1.4485896418	 0.0238903895	-0.334069
N	-0.0103599411	 0.0054501375	 0.0209523691	-0.046997
C	-0.0270756265	-0.7872472263	-1.0964998422	-0.200581
C	 0.0351698895	-2.1106718463	-0.7140976386	 0.155973
C	 0.0424695549	-3.3221129044	-1.5951186712	-0.52857
C	 0.0919855969	-2.0966038574	 0.7091551245	 0.149506
O	 0.1631738732	-3.1786584062	 1.5486771809	-0.457418
C	 0.0636703476	-0.7928269291	 1.1525645057	 0.220884
C	 0.1004803742	-0.2566042573	 2.5426199223	-0.511579
H	 0.8324046224	 1.8815889105	 0.4887189712	 0.133579
H	-0.1168391053	 1.802328047	-1.0072862702	 0.136386
H	-0.9402843459	 1.8190906019	 0.5633680895	 0.133631
H	-0.0821903818	-0.34976202	-2.0814786241	 0.108894
H	 0.9543656771	-3.9225553201	-1.47260558	 0.118272
H	-0.809305887	-3.9873165694	-1.3976491482	 0.118463
H	-0.0126863223	-3.0379503977	-2.6497367427	 0.125785
H	 0.1776420455	-3.9761006089	 1.0121800493	 0.292714
H	 0.9681386914	 0.3910049188	 2.7265989528	 0.118689
H	-0.7956718106	 0.3240229556	 2.799352959	 0.118761
H	 0.1610538712	-1.0942756399	 3.2410945935	 0.147678
59.9212	92.608	102.7214	138.6957	162.2552	167.9989	231.5831	253.3478	282.8578	291.3754	333.5176	551.4065	563.5876	600.4347	606.4402	683.2137	690.8348	732.2197	860.1264	996.8535	1020.9324	1059.9881	1062.5222	1079.4368	1149.4054	1165.3205	1205.2465	1249.6074	1285.6157	1388.6742	1412.0544	1417.4532	1435.5162	1469.7323	1475.3994	1475.6229	1484.2822	1489.4466	1493.3517	1510.7678	1526.5267	1581.3067	1673.6757	3001.6733	3004.7537	3022.3474	3040.1024	3042.7754	3071.6479	3102.6189	3124.4591	3131.4004	3247.1942	3843.565
CN1C=C(C)C(O)=C1C	Cn1cc(C)c(O)c1C	
InChI=1S/C7H11NO/c1-5-4-8(3)6(2)7(5)9/h4,9H,1-3H3	InChI=1S/C7H11NO/c1-5-4-8(3)6(2)7(5)9/h4,9H,1-3H3
