17
gdb 99553	2.22243	1.16859	0.93744	4.1507	75.12	-0.2552	0.0144	0.2696	1301.3887	0.133591	-417.961051	-417.9508	-417.949856	-417.996858	35.906	
C	 0.0529404654	 1.5009483535	-0.2570913099	-0.32906
N	 0.0500676532	 0.0548888048	-0.0413793593	-0.283915
C	-1.2730018676	-0.5437324061	 0.0180353469	-0.121592
C	-1.9766619596	-0.5240002055	-1.286058803	 0.266538
N	-2.4885760392	-0.4812686845	-2.3218424242	-0.324588
C	-1.1593480232	-2.0079905482	 0.5485969186	-0.06568
O	-0.1549653866	-2.7160213169	-0.160336407	-0.417847
C	-0.9281786891	-2.0134260508	 1.9929134496	 0.301024
C	-0.7231239677	-2.025022869	 3.1765928217	-0.434319
H	 1.0876683538	 1.8445187175	-0.3331208911	 0.130658
H	-0.4872287033	 1.8189936597	-1.1623926042	 0.127165
H	-0.4021948637	 1.9977539524	 0.606041223	 0.131523
H	 0.5717054438	-0.406509805	-0.7794466558	 0.234494
H	-1.8815485018	 0.0251358802	 0.729627849	 0.139932
H	-2.1009232941	-2.5233629626	 0.328957437	 0.140007
H	 0.6857157388	-2.5139639837	 0.2661979834	 0.297619
H	-0.5482286093	-2.0407847958	 4.2244441554	 0.208039
51.4931	69.4459	121.0348	159.6081	180.9969	203.8622	243.2681	278.1773	338.125	364.5614	395.4038	491.8287	569.9386	595.8628	640.1239	683.2425	718.3428	792.8131	895.4165	930.3632	989.7106	1028.2305	1070.7613	1140.8651	1161.5484	1197.3507	1256.8001	1305.4426	1319.0384	1353.068	1421.3865	1459.6973	1485.33	1493.2632	1517.1953	2239.5147	2344.5977	2986.6225	3056.0482	3061.2328	3073.5018	3117.5892	3500.4414	3529.5422	3806.9046
CNC(C#N)C(O)C#C	CN[C@@H](C#N)[C@@H](O)C#C	
InChI=1S/C6H8N2O/c1-3-6(9)5(4-7)8-2/h1,5-6,8-9H,2H3	InChI=1S/C6H8N2O/c1-3-6(9)5(4-7)8-2/h1,5-6,8-9H,2H3/t5-,6-/m0/s1
