17
gdb 126676	6.61838	0.73431	0.66922	0.7075	70.75	-0.2645	-0.0179	0.2466	1648.9284	0.136107	-455.145567	-455.137015	-455.136071	-455.179972	29.98	
C	-0.0623952989	 1.4847022361	-0.0617327472	-0.386074
C	 0.0231108587	-0.0415303779	 0.0308209003	-0.192496
C	 0.7626542946	-0.4893160035	 1.2793991795	-0.052288
O	 0.7919565161	-1.9307576354	 1.2787110896	-0.249205
C	 1.402073322	-2.5015948101	 2.3019781129	 0.46413
N	 1.9688308968	-1.8511941683	 3.294028038	-0.231912
O	 2.4610288043	-2.8983111846	 4.0989796093	-0.165346
C	 2.1238440133	-4.029128163	 3.4826773171	 0.117931
N	 1.4733532695	-3.874487611	 2.3757739548	-0.323934
H	 0.9334346046	 1.9396114397	-0.0946676726	 0.122293
H	-0.5971695587	 1.7893618048	-0.9652772814	 0.123523
H	-0.5926593305	 1.908248834	 0.7979950961	 0.122293
H	-0.9812119666	-0.4795333375	 0.0398187005	 0.115346
H	 0.5361599907	-0.4483475928	-0.8477417531	 0.115347
H	 1.7924411246	-0.1132427992	 1.3006906715	 0.126174
H	 0.2653857369	-0.144712819	 2.1939022176	 0.12618
H	 2.4193896726	-4.9545822723	 3.9556350171	 0.168039
55.7829	78.7785	112.2971	157.9945	234.3096	293.0264	339.9059	346.7452	532.8946	614.3478	764.7415	767.0068	778.4152	895.7948	910.2804	913.2565	931.278	973.4344	1011.3488	1050.4847	1071.9401	1148.1912	1158.8549	1188.6857	1269.837	1311.3407	1316.4967	1334.0372	1383.0036	1416.689	1432.5896	1492.2765	1501.7967	1504.2411	1518.542	1569.5982	1619.8716	3029.237	3036.1838	3044.7652	3064.1576	3084.5247	3106.8272	3114.9529	3263.4245
CCCOC1=NOC=N1	CCCOc1nocn1	
InChI=1S/C5H8N2O2/c1-2-3-8-5-6-4-9-7-5/h4H,2-3H2,1H3	InChI=1S/C5H8N2O2/c1-2-3-8-5-6-4-9-7-5/h4H,2-3H2,1H3
