20
gdb 40248	2.69889	1.62734	1.21723	2.7161	78.49	-0.2307	0.0683	0.299	1072.534	0.173593	-403.106509	-403.098946	-403.098002	-403.138408	30.606	
C	 0.0240048031	 1.5014051088	 0.0034768968	-0.289309
N	 1.2623525216	 0.6983604023	 0.037424344	-0.353754
C	-0.0468349633	 0.0196533478	 0.0022725965	 0.334217
C	-0.3835493279	-0.7302788204	 1.279466929	-0.152433
O	 0.012320259	-2.0850195353	 1.1898468322	-0.236175
C	-0.7653013485	-2.8057723271	 0.250092386	-0.095511
C	-0.7993604456	-2.1725783867	-1.1425578268	-0.058369
C	-1.8692763522	-1.1616068924	-1.476170176	-0.30543
C	-0.4485937676	-0.7029491479	-1.251220712	-0.084751
H	-0.1800400158	 2.0638253295	 0.9118519649	 0.113181
H	-0.243215908	 2.0198297264	-0.9143879205	 0.107638
H	 1.6916758784	 0.6828104183	-0.8852913569	 0.225471
H	 0.1721606911	-0.289487295	 2.1099917154	 0.11969
H	-1.4633016942	-0.6586569669	 1.5008928958	 0.080653
H	-0.3140928108	-3.8000633489	 0.1969206632	 0.111503
H	-1.791970509	-2.9259983595	 0.6363042946	 0.088128
H	-0.4648278435	-2.8162981501	-1.9491449289	 0.09161
H	-2.2567002816	-1.1288548325	-2.4884716507	 0.11201
H	-2.6083907567	-0.9430353514	-0.7110753562	 0.114548
H	 0.0966051416	-0.3910631291	-2.1389329003	 0.077083
92.2007	186.7857	254.6347	288.5999	346.2616	408.8364	420.8884	480.5788	513.6222	655.0249	733.6494	804.9194	818.5142	853.427	900.8161	919.722	926.4885	954.2153	969.5711	993.7976	1017.6926	1032.9942	1061.9807	1083.2117	1107.8614	1121.0668	1124.3288	1140.4118	1173.5138	1218.619	1258.9442	1260.2152	1305.6147	1333.5535	1349.5878	1377.2606	1381.2002	1414.7646	1444.2535	1483.9378	1489.5469	1501.6293	1513.6687	2947.2484	2956.1427	3086.9617	3096.9658	3106.775	3123.5543	3125.4177	3159.8371	3179.5915	3211.0175	3486.5409
C1NC11COCC2CC12	C1N[C@]21COC[C@H]1C[C@@H]21	
InChI=1S/C7H11NO/c1-5-2-9-4-7(3-8-7)6(1)5/h5-6,8H,1-4H2	InChI=1S/C7H11NO/c1-5-2-9-4-7(3-8-7)6(1)5/h5-6,8H,1-4H2/t5-,6-,7-/m1/s1
