21
gdb 111544	2.59941	1.44406	1.12253	1.1436	81.41	-0.2361	0.0766	0.3127	1174.8291	0.182635	-387.038231	-387.029732	-387.028788	-387.071173	33.681	
C	 0.0236842607	 1.5716254493	-0.2039386544	-0.377845
C	 0.0408887494	 0.0671131468	 0.0885451046	-0.221579
C	-1.3441972675	-0.5702647958	 0.0299053674	-0.023446
C	-2.1424854517	-0.703426399	-1.312778234	-0.084906
C	-1.2312438427	-1.5261860853	-2.2681029381	-0.238925
C	-1.4418457232	-2.6788376731	-1.2917795915	-0.136331
C	-2.7316590295	-2.0685416834	-0.7690033032	-0.137013
C	-1.5348558432	-2.0827034903	 0.1320592981	 0.372163
O	-1.3848053293	-2.8712051141	 1.2566821745	-0.468503
H	 1.0257481043	 2.0054380963	-0.1301730965	 0.110474
H	-0.3528968077	 1.7750095593	-1.2123096098	 0.117377
H	-0.6229008692	 2.1036660155	 0.5027294115	 0.114501
H	 0.7201135715	-0.4371311921	-0.6087526302	 0.094037
H	 0.4566921319	-0.1048045776	 1.0905747822	 0.093475
H	-2.0021260241	-0.0935444652	 0.7681202245	 0.07082
H	-2.7292752947	 0.1341559565	-1.6830400888	 0.069325
H	-1.7335483578	-1.7187037385	-3.2209077334	 0.098101
H	-0.2171834869	-1.1599280832	-2.4639748038	 0.086777
H	-1.2257704273	-3.7328818322	-1.4172887229	 0.081582
H	-3.7309397772	-2.4618371293	-0.6577444544	 0.094496
H	-0.4672832857	-3.1608164949	 1.3044581284	 0.285419
75.5323	150.8378	192.8045	249.7851	277.0842	287.9264	347.8405	409.9616	503.1314	554.6491	611.5293	686.3524	757.4094	793.8186	810.6093	836.1057	858.7867	909.1713	935.1759	940.6726	961.3743	999.9651	1006.8507	1029.0913	1082.8334	1094.2468	1109.6031	1131.3102	1143.1392	1159.6016	1192.7695	1214.4078	1249.7996	1265.4971	1287.9382	1311.56	1314.3145	1342.8308	1400.8197	1413.0539	1449.2381	1485.2617	1500.5271	1504.4719	1519.4552	3018.3775	3024.7045	3030.7406	3034.6362	3059.7515	3086.4497	3097.9118	3101.7613	3137.6046	3189.2447	3231.0047	3796.0636
CCC1C2CC3C2C13O	CC[C@H]1[C@H]2C[C@@H]3[C@H]2[C@]13O	
InChI=1S/C8H12O/c1-2-5-4-3-6-7(4)8(5,6)9/h4-7,9H,2-3H2,1H3	InChI=1S/C8H12O/c1-2-5-4-3-6-7(4)8(5,6)9/h4-7,9H,2-3H2,1H3/t4-,5+,6-,7+,8+/m1/s1
