20
gdb 80950	2.37484	1.37031	1.2366	2.0074	86.58	-0.227	0.0278	0.2549	1161.9314	0.169296	-365.906269	-365.897171	-365.896227	-365.93953	35.219	
C	-0.0546577834	 1.5867305183	-0.0826381857	-0.449301
C	 0.094121382	 0.0813706528	 0.0260944958	 0.04542
N	 1.2789476283	-0.5971912599	-0.7122599463	-0.169094
C	 2.1297324129	-0.1514105385	 0.4901535807	-0.220096
C	 0.8403664731	-0.6358567344	 1.1917272937	 0.287378
C	 0.4956930109	-0.6942655203	 2.6580304073	-0.523962
C	 0.954608178	-1.8260098434	 0.1842743387	-0.201557
C	-0.1954709132	-2.6368739439	-0.1563263037	 0.336385
C	-1.1280742575	-3.3546911852	-0.406188888	-0.434155
H	-0.2262459134	 1.8637463458	-1.1281338012	 0.134844
H	-0.929664869	 1.909219229	 0.4920317745	 0.121568
H	 0.8055231493	 2.1552569537	 0.2775699728	 0.118945
H	-0.8493258842	-0.3909845157	-0.2619532167	 0.086806
H	 3.0377268471	-0.7472012002	 0.6238135422	 0.09738
H	 2.3675565044	 0.9112303788	 0.4948793885	 0.102751
H	 0.4505829786	 0.3109272158	 3.091093517	 0.122658
H	-0.4784775488	-1.1718697233	 2.807261461	 0.130548
H	 1.2425615266	-1.2677639674	 3.217652634	 0.12191
H	 1.8371197543	-2.4615713565	 0.3103364048	 0.096072
H	-1.9531102461	-3.9817040955	-0.6385666794	 0.1955
121.5544	146.4445	159.5367	186.918	196.9475	289.3575	340.0046	353.5999	455.658	501.6196	538.6157	620.7537	625.6398	632.3708	651.2126	762.7961	778.4216	793.3997	889.207	899.4929	912.4444	1004.9095	1030.8527	1067.7409	1083.3993	1128.0767	1137.3505	1146.4495	1175.3042	1205.0724	1209.0482	1250.6403	1321.1724	1386.464	1405.3949	1408.2002	1436.8209	1487.0686	1488.6126	1494.9493	1495.8626	1547.1069	2227.7644	3028.339	3039.5245	3052.6951	3060.927	3067.6468	3096.9329	3100.0937	3100.9541	3121.1823	3147.0628	3502.6389
CC1N2CC1(C)C2C#C	C[C@H]1N2C[C@]1(C)[C@H]2C#C	
InChI=1S/C8H11N/c1-4-7-8(3)5-9(7)6(8)2/h1,6-7H,5H2,2-3H3	InChI=1S/C8H11N/c1-4-7-8(3)5-9(7)6(8)2/h1,6-7H,5H2,2-3H3/t6-,7-,8+/m1/s1
