16
gdb 22536	2.03963	1.33304	0.89106	0.7333	79.45	-0.2517	0.0019	0.2536	1294.3411	0.118958	-400.629951	-400.619651	-400.618707	-400.665933	36.626	
C	-0.0048614661	 1.4965187617	-0.0206804958	-0.474645
C	 0.0127352276	-0.0027333098	 0.0796889579	 0.379569
N	 0.0888977535	-0.6610009175	 1.1676069306	-0.157209
O	 0.155058024	 0.1900892066	 2.2775446365	-0.397889
C	-0.0392479191	-0.8133201246	-1.2193947855	-0.453894
C	 0.1283451716	-2.2576288988	-1.0408467309	 0.374356
C	 0.277854225	-3.4448250003	-0.9550293836	-0.440029
C	-1.2739494851	-0.5068213961	-1.9588599471	 0.347697
C	-2.2785002682	-0.2351466934	-2.5578562189	-0.472674
H	 0.9613112468	 1.9065688303	 0.293635516	 0.147142
H	-0.2197067661	 1.8249153364	-1.0386213244	 0.132278
H	-0.7578629785	 1.9107961748	 0.6550949649	 0.155222
H	 0.190229825	-0.4360216724	 3.0087157793	 0.30981
H	 0.8020306555	-0.4537111658	-1.8349951708	 0.147857
H	 0.4042429621	-4.4946682237	-0.8581602062	 0.19796
H	-3.1704470381	-0.0092543374	-3.0883558821	 0.20445
41.9673	59.7517	129.293	134.1818	144.9383	283.3444	298.2539	327.2629	338.0863	402.6521	441.2248	477.5995	553.2453	559.43	629.1784	637.8741	651.1997	657.3195	704.3713	817.2268	927.5981	1003.9947	1015.6936	1042.53	1071.3272	1211.3356	1269.9452	1305.2153	1396.9189	1403.5769	1471.9867	1485.0936	1739.1063	2240.5064	2251.8661	2969.076	3045.1528	3106.8735	3144.4948	3502.6584	3505.2721	3817.8375
CC(=NO)C(C#C)C#C	CC(=NO)C(C#C)C#C	
InChI=1S/C7H7NO/c1-4-7(5-2)6(3)8-9/h1-2,7,9H,3H3	InChI=1S/C7H7NO/c1-4-7(5-2)6(3)8-9/h1-2,7,9H,3H3
