22
gdb 115738	2.7608	1.09461	0.86638	1.2879	83.18	-0.2316	0.0771	0.3088	1396.3537	0.194111	-404.295704	-404.286311	-404.285367	-404.330357	35.055	
O	-0.0811533319	 1.4061942847	-0.125295096	-0.427571
C	-0.0010041206	 0.0116630644	 0.1497492302	-0.078747
C	-1.4077419888	-0.5514521176	 0.0226080854	-0.017255
C	-1.9234297558	-0.5996450395	-1.4448802025	-0.219638
C	-1.5461982476	-2.1060716331	-1.5020815569	-0.245352
C	-1.4821239718	-2.1089250352	 0.0463543495	 0.060919
N	-0.3722770446	-2.8193237032	 0.6535802751	-0.062445
C	-0.5473441501	-3.2336932678	 2.0442399884	-0.225934
C	-0.5985778712	-4.2329799787	 0.9434419525	-0.224936
H	 0.8092675649	 1.7671230906	-0.0912699586	 0.283702
H	 0.678990704	-0.4948818214	-0.5508321905	 0.091113
H	 0.3855785673	-0.1746601408	 1.1629593954	 0.087986
H	-2.0533907071	-0.034498028	 0.7383228816	 0.068379
H	-3.0020936155	-0.4375388618	-1.5122457165	 0.097003
H	-1.4272129249	 0.073337956	-2.14625963	 0.109354
H	-2.2496507086	-2.7940459254	-1.9769243126	 0.091536
H	-0.553447454	-2.2697376722	-1.9288558096	 0.109392
H	-2.4508368543	-2.4302571384	 0.467902374	 0.051181
H	 0.3321945207	-3.1526148376	 2.676459002	 0.114972
H	-1.4868776565	-2.985931962	 2.5359824684	 0.110728
H	-1.5729680051	-4.6529429708	 0.69832039	 0.109891
H	 0.2419695112	-4.8952945923	 0.7574265905	 0.115722
70.5022	101.9648	118.0315	133.5213	227.6676	252.5537	282.815	317.4247	411.8804	441.892	539.4575	673.778	744.7267	806.4198	834.7516	885.0565	894.9536	909.6712	929.7038	957.6611	969.7403	1030.9733	1058.1569	1073.4364	1095.0678	1103.9481	1113.2157	1117.8484	1156.1353	1174.1484	1182.9415	1207.1297	1237.4235	1250.7707	1254.5014	1260.6997	1289.5782	1307.4236	1322.4437	1361.3711	1385.9464	1457.8812	1482.4401	1491.666	1497.3928	1516.7374	1518.3277	2934.2657	2984.1092	3012.5876	3061.1533	3063.0214	3072.5241	3093.3309	3097.8559	3110.0507	3126.7769	3176.2573	3190.7148	3830.3493
OCC1CCC1N1CC1	OC[C@H]1CC[C@H]1N1CC1	
InChI=1S/C7H13NO/c9-5-6-1-2-7(6)8-3-4-8/h6-7,9H,1-5H2	InChI=1S/C7H13NO/c9-5-6-1-2-7(6)8-3-4-8/h6-7,9H,1-5H2/t6-,7-/m1/s1
