14
gdb 45990	3.49186	1.34444	1.00945	3.8293	68.18	-0.2538	-0.066	0.1878	1086.3986	0.102781	-473.882765	-473.875407	-473.874463	-473.91507	27.199	
O	 0.047071314	 0.0266923327	 0.5216980092	-0.351336
C	 0.07749162	 1.1655147	 0.1428996494	 0.461884
N	-1.1116634828	 1.8757551967	-0.0845839871	-0.372789
C	-1.3569609779	 3.2341513388	-0.0205182536	 0.027866
C	-0.5165071117	 4.2681538273	-0.2190840285	-0.19807
C	 0.8453730703	 4.1840841581	-0.7346613823	 0.359197
O	 1.534558708	 5.1619187763	-0.9502483191	-0.32509
C	 1.3567897525	 2.7922692591	-1.1036190708	-0.209104
O	 1.2258198555	 1.8333156197	-0.040518027	-0.222784
H	-1.9047816689	 1.277260439	 0.0949877039	 0.275735
H	-2.3922228497	 3.4452853799	 0.2312840452	 0.139847
H	-0.901275542	 5.2703384303	-0.0725002216	 0.119011
H	 0.8383480673	 2.4284759946	-1.9999663745	 0.137751
H	 2.4244601553	 2.8583788675	-1.3095786233	 0.15788
75.6369	137.3464	202.7322	308.2162	347.5945	402.4815	439.5401	546.7983	590.684	669.8466	687.7537	771.5419	788.6879	810.0509	858.17	907.6504	988.2639	1010.6206	1058.1993	1122.4707	1193.4865	1258.2722	1294.9824	1340.4415	1380.6682	1441.5913	1479.1424	1500.4022	1692.071	1769.0684	1852.9718	3033.0453	3150.7893	3174.762	3210.6776	3618.9941
O=C1NC=CC(=O)CO1	O=C1NC=CC(=O)CO1	
InChI=1S/C5H5NO3/c7-4-1-2-6-5(8)9-3-4/h1-2H,3H2,(H,6,8)	InChI=1S/C5H5NO3/c7-4-1-2-6-5(8)9-3-4/h1-2H,3H2,(H,6,8)
