15
gdb 34107	3.55895	1.56172	1.33985	4.625	68.35	-0.2326	-0.0044	0.2282	938.316	0.114454	-416.75697	-416.75025	-416.749306	-416.78801	26.678	
N	 0.0998323052	-1.1050891744	 0.0451110999	-0.330171
C	 0.0306799758	 0.0476355937	 0.0154803862	 0.209082
C	-0.0934746154	 1.4931655959	-0.0241514992	 0.288137
C	-0.9997711105	 2.131985441	 1.0379288338	-0.188102
N	-1.055856988	 3.5504057953	 0.6136905408	-0.312874
C	-0.5893879576	 3.5833024103	-0.7649520634	-0.05677
C	 0.7890197514	 3.0192561063	-1.0334103631	 0.100015
O	 1.1943369191	 2.1846770933	 0.0573795602	-0.320189
C	-0.4305897453	 2.2032456929	-1.3662968119	-0.220794
H	-1.9843565248	 1.6452311712	 1.0514689127	 0.113078
H	-0.5387300797	 2.030158773	 2.0244687698	 0.138264
H	-2.0111514234	 3.8861651402	 0.6511868494	 0.231415
H	-0.9256888841	 4.4115423167	-1.3770299952	 0.111041
H	 1.5638635017	 3.4678365383	-1.6426295866	 0.118961
H	-0.8300692543	 1.7663714762	-2.2702259234	 0.118908
149.5319	156.9254	240.4398	389.6099	481.5467	506.7526	532.2116	577.8416	676.1285	713.5589	749.3437	792.334	835.1238	857.0933	900.072	939.5682	991.1819	1013.7281	1041.6978	1043.4514	1062.03	1084.9138	1110.05	1136.7558	1192.0513	1226.8837	1235.6237	1296.0167	1335.7697	1407.044	1448.7651	1494.2158	2365.2253	3015.6841	3090.649	3191.6447	3198.1185	3218.4503	3541.547
N#CC12CNC3C(O1)C23	N#C[C@@]12CN[C@H]3[C@@H](O1)[C@@H]23	
InChI=1S/C6H6N2O/c7-1-6-2-8-4-3(6)5(4)9-6/h3-5,8H,2H2	InChI=1S/C6H6N2O/c7-1-6-2-8-4-3(6)5(4)9-6/h3-5,8H,2H2/t3-,4+,5-,6-/m0/s1
