16
gdb 132606	3.12953	1.30586	0.92308	2.829	77.86	-0.186	0.0117	0.1977	1186.5164	0.125609	-442.098577	-442.090547	-442.089603	-442.130573	31.988	
N	-0.0248739804	 1.4179514521	 0.1530625305	-0.594192
C	-0.0040334936	 0.0192856043	 0.0640658957	 0.3377
C	-1.199174385	-0.7084860495	 0.0189924256	-0.212057
C	-1.1623225193	-2.1007075763	-0.0061033874	-0.213873
C	 0.0503582361	-2.7573145553	 0.0156507172	 0.204705
F	 0.1013730027	-4.1082801951	-0.0248740891	-0.1042
C	 1.2648296265	-2.0636992214	 0.0633215879	 0.217304
N	 2.4612015702	-2.7735531781	 0.1404556944	-0.598412
C	 1.2156144809	-0.6681362653	 0.0829901595	-0.280402
H	 0.8045995027	 1.8691712193	-0.2058726397	 0.241757
H	-0.8563335995	 1.8412207363	-0.2341493471	 0.243456
H	-2.1516492715	-0.1897398141	 0.0070395077	 0.081866
H	-2.0741507547	-2.6855461631	-0.0492543362	 0.103214
H	 2.3872406021	-3.7263748457	-0.1850055667	 0.253724
H	 3.2623023692	-2.2985292214	-0.2482301503	 0.246158
H	 2.1466043336	-0.1093848566	 0.1286135079	 0.073252
151.2592	221.4471	269.0427	291.436	316.5713	330.7828	371.5949	446.6063	448.3018	508.103	582.362	599.8263	631.858	668.7377	714.546	757.5962	784.3617	797.887	842.983	904.5129	973.839	1080.301	1129.4354	1155.0793	1215.1761	1257.888	1299.2182	1357.8099	1380.1944	1497.9248	1557.3433	1633.5566	1644.3425	1659.6487	1669.4493	3157.6615	3179.4054	3201.0401	3556.8568	3567.1885	3652.7625	3670.1023
NC1=CC=C(F)C(N)=C1	Nc1ccc(F)c(N)c1	
InChI=1S/C6H7FN2/c7-5-2-1-4(8)3-6(5)9/h1-3H,8-9H2	InChI=1S/C6H7FN2/c7-5-2-1-4(8)3-6(5)9/h1-3H,8-9H2
