21
gdb 94365	2.7529	1.47088	1.21143	1.6916	81.71	-0.2454	0.0855	0.3308	1118.9906	0.182396	-387.042032	-387.033749	-387.032805	-387.074773	32.742	
C	-0.6979175528	 1.149883494	 0.0078094675	-0.418942
C	 0.1385856316	-0.1142311465	-0.1105941319	-0.002593
C	 1.5507913415	-0.0489747737	-0.7571718081	-0.233401
C	 2.0402138982	-1.0814021897	 0.2935131011	-0.306629
C	 0.7949829172	-0.7433847253	 1.1532588817	 0.358008
C	 1.0310667	 0.0847867711	 2.4738849272	-0.338873
C	 0.313953114	-1.0337515768	 3.2404300682	 0.041051
O	-0.9978720775	-1.1575233611	 2.6768815936	-0.250268
C	 0.0974142644	-1.8048621997	 2.0079704655	-0.06899
H	-0.1201055147	 1.9738886028	 0.4413440123	 0.109034
H	-1.0519416448	 1.4784060294	-0.975856609	 0.108923
H	-1.570252273	 0.9786293797	 0.6460118633	 0.132493
H	-0.4522768128	-0.894511121	-0.6072022146	 0.071341
H	 1.6429629997	-0.3150672707	-1.8129170936	 0.094517
H	 2.0127445081	 0.9320474814	-0.6054464602	 0.099519
H	 1.9945645163	-2.1056220879	-0.0917541647	 0.099645
H	 3.0234775691	-0.9270115615	 0.7457707947	 0.096611
H	 2.0928186125	 0.1680456393	 2.7219968255	 0.103594
H	 0.5596033128	 1.0672720536	 2.5489404198	 0.110055
H	 0.4431286971	-1.357703723	 4.2665997225	 0.101812
H	 0.010814613	-2.8727900243	 1.8355143996	 0.093092
92.7463	112.099	207.1884	236.7053	278.9145	328.0729	407.8915	427.3879	483.9661	562.246	661.0423	779.6603	792.5222	835.704	857.4205	861.3115	891.0145	900.8492	941.1777	953.5294	969.4988	976.3356	1031.6432	1056.3863	1091.4087	1113.0389	1153.8194	1165.5416	1184.1738	1184.617	1226.2407	1233.1611	1258.3954	1266.4438	1269.5001	1280.392	1309.4139	1370.9994	1384.8559	1405.5567	1469.1435	1481.2042	1494.7005	1498.8961	1502.7668	3020.5402	3026.7808	3043.472	3050.2847	3060.6452	3089.3876	3092.0333	3106.6914	3109.0954	3117.5476	3167.2613	3189.2329
CC1CCC11CC2OC12	C[C@H]1CC[C@]21C[C@H]1O[C@@H]21	
InChI=1S/C8H12O/c1-5-2-3-8(5)4-6-7(8)9-6/h5-7H,2-4H2,1H3	InChI=1S/C8H12O/c1-5-2-3-8(5)4-6-7(8)9-6/h5-7H,2-4H2,1H3/t5-,6+,7+,8+/m0/s1
