19
gdb 54762	2.73276	1.56085	1.19607	2.9674	77.02	-0.2293	0.0448	0.2741	1083.6934	0.159624	-419.186676	-419.178206	-419.177262	-419.219559	33.06	
C	-0.121231331	 1.4552816842	 0.1925252406	-0.51367
C	-0.0243634121	-0.0395811086	 0.1339549289	 0.351071
C	 0.219001656	-0.9721902125	-1.1007827843	-0.262068
C	-0.0469003041	-1.8902287078	 0.1210885663	-0.032347
C	 0.899961511	-0.9926073901	 0.9520689367	-0.254955
N	-1.1661981853	-0.9595583819	 0.5616409914	-0.16912
C	-2.3929188656	-0.9048895975	-0.1092083601	 0.391413
N	-3.0390319901	-2.1275760288	-0.1641292422	-0.541463
O	-2.8732928622	 0.1159567751	-0.5667778857	-0.386374
H	 0.8203889318	 1.9043748462	-0.1402820698	 0.115014
H	-0.9358395083	 1.8051048002	-0.4438551953	 0.160393
H	-0.3165641944	 1.7858567564	 1.2175370596	 0.126412
H	-0.5480576818	-0.9511915526	-1.8766375122	 0.123902
H	 1.2278122293	-0.9842714829	-1.522864988	 0.091865
H	-0.1589091383	-2.9738251918	 0.1537757638	 0.085589
H	 1.9543006158	-1.0045743149	 0.6715048025	 0.097876
H	 0.7426407798	-0.9981243454	 2.0314591361	 0.104036
H	-2.8058389258	-2.8074285272	 0.5429631958	 0.253974
H	-4.0214927548	-2.0575025703	-0.3819994641	 0.258451
75.0638	165.4092	178.4226	202.3077	290.608	307.6552	423.8073	452.0434	511.8957	527.348	556.3247	629.6517	661.9603	722.5945	777.7428	802.5402	830.2391	903.3489	911.9378	961.9124	1000.917	1009.4131	1033.0906	1077.0644	1102.8882	1130.1137	1153.7958	1170.0062	1180.8373	1213.5244	1241.4772	1248.1757	1334.2584	1377.4229	1409.8237	1476.2946	1481.9026	1496.6838	1527.0887	1616.7083	1783.3215	3041.1617	3056.9628	3077.2098	3106.7256	3119.2747	3135.9192	3144.0384	3153.7031	3577.8495	3696.3873
CC12CC(C1)N2C(N)=O	C[C@@]12C[C@@H](C1)N2C(=O)N	
InChI=1S/C6H10N2O/c1-6-2-4(3-6)8(6)5(7)9/h4H,2-3H2,1H3,(H2,7,9)	InChI=1S/C6H10N2O/c1-6-2-4(3-6)8(6)5(7)9/h4H,2-3H2,1H3,(H2,7,9)/t4-,6+
