18
gdb 81451	2.64319	1.76953	1.42426	2.1242	70.31	-0.2464	0.0642	0.3106	961.2262	0.149482	-439.027399	-439.020128	-439.019184	-439.058819	29.566	
O	 0.0296751254	 1.5004416413	-0.0166680432	-0.447493
C	 0.0151762268	 0.1064985884	 0.0549837555	 0.145264
C	 0.1055811062	-0.6526002353	 1.4188481823	 0.027234
C	-0.9948717528	-0.0107439957	 2.2869976056	-0.319539
C	-2.0789550477	 0.0138348046	 1.1938757709	 0.359464
C	-3.5395348554	 0.008702369	 1.3600132293	-0.326618
N	-2.8527822815	 1.2227459774	 0.8472139362	-0.384593
C	-1.315066009	-0.6797598536	 0.0619121458	-0.040104
O	-0.6170397289	-1.7452989742	 0.7675408925	-0.292544
H	-0.886565723	 1.8056133871	-0.0128368927	 0.303209
H	 0.7265904153	-0.3198033545	-0.6563525207	 0.097827
H	 1.0435269695	-0.9505718299	 1.8852817732	 0.084357
H	-1.2511387857	-0.6417513961	 3.1407751877	 0.116604
H	-0.7245820972	 0.9902166297	 2.6368872304	 0.109912
H	-4.1701844822	-0.5018874837	 0.6370514197	 0.126153
H	-3.9452297294	 0.0464743188	 2.3673464141	 0.120352
H	-2.7804865905	 1.8992237931	 1.6044529529	 0.23623
H	-1.8589146798	-0.9875124665	-0.8303775194	 0.084286
123.2592	198.2781	276.965	327.0356	364.5385	391.7354	449.8602	489.0935	589.4806	633.0904	779.5705	800.566	847.5986	864.4724	871.6886	898.3554	932.944	951.668	972.7155	983.8361	997.2011	1035.844	1070.6616	1120.3388	1131.4155	1157.9925	1194.0433	1203.0279	1235.0017	1252.4526	1276.8609	1292.6329	1298.3777	1334.7874	1347.1661	1417.4561	1425.0837	1474.5728	1515.5168	3059.7737	3090.4939	3108.4969	3115.8733	3132.6503	3136.7787	3194.11	3485.8274	3763.6496
OC1C2CC3(CN3)C1O2	O[C@H]1[C@H]2C[C@]3(CN3)[C@@H]1O2	
InChI=1S/C6H9NO2/c8-4-3-1-6(2-7-6)5(4)9-3/h3-5,7-8H,1-2H2	InChI=1S/C6H9NO2/c8-4-3-1-6(2-7-6)5(4)9-3/h3-5,7-8H,1-2H2/t3-,4+,5-,6+/m1/s1
