27
gdb 104877	2.09974	1.29127	1.03947	0.0315	94.43	-0.2925	0.071	0.3634	1375.462	0.252943	-353.583822	-353.573295	-353.572351	-353.619439	40.032	
C	-1.3410327188	-0.2278480068	 0.1383436051	-0.398927
C	 0.1782877598	-0.087357807	-0.0136603369	-0.201993
C	 0.7882343721	-0.5988494977	-1.3450287163	 0.321301
C	 0.1538940839	 0.0845652253	-2.5738163435	-0.225595
C	 0.2631819469	 1.6133077481	-2.6226821634	-0.396679
C	 2.3288914235	-0.4152464413	-1.3031798664	-0.230068
C	 2.8885710266	-1.6161029826	-0.5005312361	-0.209177
C	 1.7834476867	-2.7104784485	-0.5450940732	-0.21322
C	 0.6787619527	-2.1406634473	-1.4581962039	-0.232691
H	-1.8841673896	 0.3562096837	-0.61108898	 0.118163
H	-1.6701087298	-1.268050041	 0.0476539501	 0.116618
H	-1.6598002311	 0.1286007734	 1.1232400147	 0.110047
H	 0.4486012242	 0.968591926	 0.1090103672	 0.093286
H	 0.6641993469	-0.609986112	 0.8189365646	 0.092556
H	 0.6321670486	-0.3307677723	-3.4705935052	 0.086724
H	-0.9028953566	-0.2016973665	-2.6441786911	 0.091425
H	-0.2742357909	 2.0914462146	-1.7976682252	 0.116841
H	 1.3058036897	 1.9439786215	-2.5743170998	 0.116179
H	-0.1618398599	 1.9994189264	-3.5547068688	 0.109573
H	 2.716915427	-0.4400257927	-2.3289328553	 0.086846
H	 2.6284931812	 0.5467387717	-0.8758837229	 0.088796
H	 3.8307341096	-1.9700683319	-0.9283989088	 0.0947
H	 3.1097656716	-1.3306925699	 0.5321429698	 0.097491
H	 2.1611402142	-3.6671491825	-0.9166042392	 0.09294
H	 1.3934447823	-2.9030800779	 0.4592331228	 0.09789
H	-0.3160361441	-2.5219861598	-1.2094541505	 0.089516
H	 0.8726445034	-2.4284489129	-2.4991024878	 0.087459
58.0252	83.4218	99.9058	156.5418	196.5037	219.3879	241.6456	296.0319	325.8559	368.0572	403.1231	464.0106	578.1858	647.6801	692.1892	760.9416	782.2139	803.9152	817.7639	887.1094	902.403	942.7103	947.0084	972.8488	1014.601	1029.0678	1036.339	1051.1922	1056.806	1094.0822	1102.1458	1171.1692	1180.0044	1223.905	1235.5015	1257.0625	1266.4089	1303.922	1308.389	1318.5576	1336.2809	1348.1127	1365.0956	1374.3863	1389.516	1407.0814	1410.5431	1476.8486	1483.096	1487.2649	1495.482	1499.7396	1501.6453	1504.0438	1505.457	1512.4329	1521.5023	3015.2683	3023.3575	3026.4676	3030.3501	3035.1304	3036.8123	3044.6003	3046.8745	3053.8779	3058.6213	3069.5232	3079.5006	3083.8609	3099.0593	3099.8326	3101.2474	3102.9992	3106.8024
CCC1(CC)CCCC1	CCC1(CC)CCCC1	
InChI=1S/C9H18/c1-3-9(4-2)7-5-6-8-9/h3-8H2,1-2H3	InChI=1S/C9H18/c1-3-9(4-2)7-5-6-8-9/h3-8H2,1-2H3
