21
gdb 96377	2.24798	1.62346	1.25334	1.7962	77.4	-0.2503	0.0594	0.3096	1104.0721	0.183724	-424.2259	-424.217384	-424.21644	-424.258641	33.557	
O	 0.0530328077	 1.4734366646	-0.1170527476	-0.439242
C	-0.0080186623	 0.051559274	-0.0275073002	 0.058179
C	 0.7369993411	-0.4975375241	 1.1985861418	-0.229749
C	-0.0002103378	-0.1850242145	 2.5120021448	-0.209829
C	-1.4461031988	-0.7035129213	 2.4787006116	-0.190463
C	-2.210028451	-0.1458488393	 1.2655960466	-0.288014
C	-1.454289144	-0.4354387362	-0.0157721439	 0.434095
C	-2.1521580739	-0.6645014203	-1.2818347096	-0.250695
O	-1.6186772813	-1.7670754552	-0.5362298256	-0.28779
H	-0.1398140589	 1.8416756867	 0.7507615014	 0.281713
H	 0.4669650357	-0.3159673892	-0.9423872068	 0.087286
H	 0.8210071399	-1.5850800551	 1.083718368	 0.115667
H	 1.7534471189	-0.0902835244	 1.2108208857	 0.100553
H	 0.5441251198	-0.6235479839	 3.3548806027	 0.101499
H	-0.0040379059	 0.9000925996	 2.697822978	 0.083309
H	-1.4354889177	-1.7986624039	 2.4131084161	 0.114147
H	-1.968407752	-0.4453464746	 3.4059823687	 0.093449
H	-3.2140534767	-0.5759758527	 1.2032201247	 0.104861
H	-2.3321220412	 0.9414356861	 1.3682590534	 0.095732
H	-3.2398059233	-0.610647334	-1.3158588824	 0.109496
H	-1.6485738684	-0.4481152524	-2.2231688374	 0.115797
101.6276	163.4885	203.3154	223.5683	275.1844	311.4265	367.5858	407.3286	427.8339	471.3326	566.8022	610.1134	717.0143	804.0828	828.6831	854.6451	865.883	916.017	933.1101	961.2809	1003.2608	1021.0804	1046.3901	1084.158	1113.832	1124.0687	1145.5375	1159.9322	1172.2727	1244.644	1267.624	1278.8105	1303.8283	1329.2749	1357.7778	1366.4051	1375.4136	1379.2519	1411.0212	1448.2842	1474.3698	1478.4432	1492.5751	1503.6136	1531.6122	2991.3487	3015.946	3032.0201	3034.3384	3065.7381	3069.3309	3075.4539	3079.7871	3082.4725	3085.0066	3165.6924	3824.5692
OC1CCCCC11CO1	O[C@H]1CCCC[C@]21CO2	
InChI=1S/C7H12O2/c8-6-3-1-2-4-7(6)5-9-7/h6,8H,1-5H2	InChI=1S/C7H12O2/c8-6-3-1-2-4-7(6)5-9-7/h6,8H,1-5H2/t6-,7+/m0/s1
