18
gdb 68170	3.59108	1.43587	1.22647	4.3026	71.57	-0.2309	0.0197	0.2506	1041.9206	0.149111	-439.113762	-439.10601	-439.105065	-439.14568	30.524	
C	-0.006164722	 1.5506863861	 0.0731480493	-0.475336
C	 0.0031304268	 0.0460383596	-0.0464596488	 0.392166
C	 0.714691798	-0.6459151148	-1.236698095	-0.294433
C	 1.1207342333	-1.6406413756	-0.1328254948	-0.031552
O	 0.9480573311	-0.5971298245	 0.8677241395	-0.320936
C	 0.0050735384	-2.670209958	 0.0573600048	 0.423907
O	 0.1664006136	-3.8728942241	 0.0738180721	-0.380042
N	-1.2111820448	-2.0530034114	 0.1776854282	-0.324589
C	-1.3639832552	-0.6028033517	 0.2125198864	-0.182566
H	 1.0023331764	 1.9449547202	-0.0732372864	 0.132105
H	-0.6683057032	 1.9951046278	-0.6773124132	 0.124205
H	-0.354597055	 1.8584001975	 1.0645290589	 0.132422
H	 0.1161865311	-1.0073308272	-2.075050167	 0.114196
H	 1.5632977284	-0.0576865172	-1.5900341743	 0.113904
H	 2.1046312444	-2.107783908	-0.1163106844	 0.100597
H	-2.0028449852	-2.6484046288	 0.3685108601	 0.249724
H	-1.731923574	-0.2757029484	 1.1941380712	 0.116418
H	-2.0860313819	-0.2737481915	-0.5467844365	 0.109809
113.9968	180.2627	217.6717	270.6175	339.7128	386.0907	433.1798	457.5561	480.6268	529.8027	660.845	690.2356	753.7024	799.9433	841.5053	897.647	911.9322	944.7343	976.3675	991.672	1031.0976	1054.5581	1108.4377	1144.459	1225.7607	1236.3087	1241.8268	1249.4695	1296.7893	1302.4216	1343.7869	1376.3862	1411.3376	1468.4494	1478.9642	1489.1128	1496.32	1515.9022	1816.4423	3005.3896	3039.0914	3041.0642	3074.3195	3107.9623	3125.2571	3132.1609	3139.2365	3621.5376
CC12CC(O1)C(=O)NC2	C[C@@]12C[C@@H](O1)C(=O)NC2	
InChI=1S/C6H9NO2/c1-6-2-4(9-6)5(8)7-3-6/h4H,2-3H2,1H3,(H,7,8)	InChI=1S/C6H9NO2/c1-6-2-4(9-6)5(8)7-3-6/h4H,2-3H2,1H3,(H,7,8)/t4-,6+/m1/s1
