19
gdb 55099	4.08207	1.00767	0.93534	3.5315	76.74	-0.2281	-0.0155	0.2127	1324.6374	0.156568	-423.008736	-422.999549	-422.998605	-423.043918	33.456	
C	-0.4402703823	 1.6491909909	-0.359563614	-0.488638
C	-0.1251340722	 0.2222718817	 0.0565058591	 0.359515
O	-0.1466815363	-0.1474621452	 1.2039454334	-0.283138
C	 0.2496728412	-0.7133833836	-1.0891735824	 0.029784
C	 1.7681878897	-0.7231764458	-1.4352993313	-0.385641
C	 1.680527423	-2.1802354185	-0.9950626449	 0.470893
C	 2.2929029291	-3.4057359587	-1.5830341704	-0.336131
C	 2.599548335	-2.9891877542	-0.1473919442	-0.324177
O	 0.2794276036	-2.0974915111	-0.7200954139	-0.291547
H	 0.2878125029	 2.0236361736	-1.0876523844	 0.135375
H	-1.422087246	 1.6778970857	-0.8472545114	 0.147532
H	-0.4596301067	 2.2958592414	 0.5182852913	 0.146771
H	-0.4093519314	-0.5353449722	-1.9495005726	 0.089095
H	 2.0030797268	-0.5590977777	-2.4882088245	 0.118417
H	 2.3929126624	-0.0800692981	-0.8115812183	 0.121541
H	 1.6409080054	-4.2610895109	-1.7248192812	 0.127748
H	 3.0664342504	-3.2928593104	-2.3362404265	 0.113584
H	 3.5826777578	-2.5903893363	 0.0814867949	 0.115088
H	 2.1454658376	-3.5686843306	 0.6488409912	 0.133929
36.4074	51.7567	113.8854	163.7991	251.8347	285.2811	291.3238	362.739	442.2984	542.4163	585.7571	628.6785	744.0616	752.9624	834.1928	878.4703	889.4997	914.9678	941.0679	958.2914	980.1202	1003.6433	1048.1453	1067.4531	1075.2968	1090.8896	1152.5125	1185.2327	1189.9936	1215.8481	1241.0588	1278.106	1360.7267	1379.3763	1392.6432	1447.2936	1463.3136	1474.8791	1485.3005	1505.1103	1828.9076	3014.7014	3034.9101	3071.002	3094.2586	3126.3631	3127.7454	3130.8064	3153.0063	3211.2568	3226.0268
CC(=O)C1CC2(CC2)O1	CC(=O)[C@H]1CC2(CC2)O1	
InChI=1S/C7H10O2/c1-5(8)6-4-7(9-6)2-3-7/h6H,2-4H2,1H3	InChI=1S/C7H10O2/c1-5(8)6-4-7(9-6)2-3-7/h6H,2-4H2,1H3/t6-/m1/s1
