19
gdb 127070	2.55404	1.48945	0.99941	5.4652	79.7	-0.2025	0.019	0.2216	1204.9719	0.159513	-415.37889	-415.36955	-415.368606	-415.413166	33.791	
C	-0.1708663342	 1.5801812382	 0.7418043688	-0.349512
N	-0.1404342619	 0.3055625392	 0.047039165	-0.159731
C	 0.9341393146	-0.5800163275	 0.4848190885	-0.344658
C	-1.3689526151	-0.2902610742	-0.2135058962	 0.335979
C	-1.7360662143	-1.375324329	-0.9984410332	 0.232546
C	-0.9064081022	-2.2909813989	-1.8373436381	-0.509522
N	-3.0934372679	-1.4951723761	-0.9391064443	-0.243028
N	-3.6004395426	-0.5646641598	-0.1878882245	-0.144432
N	-2.5553231075	 0.1671493919	 0.2710814369	-0.25573
H	 0.8284167063	 2.0228802844	 0.7182222324	 0.135836
H	-0.8535631665	 2.2680013509	 0.2339347159	 0.136104
H	-0.4737388509	 1.4961926666	 1.8012918855	 0.108449
H	 0.8163048575	-0.9036548455	 1.5321231499	 0.114256
H	 0.9719315303	-1.4681627216	-0.146066954	 0.146317
H	 1.8892456057	-0.0548241825	 0.3911825735	 0.127548
H	-0.3702066201	-3.0429699828	-1.2446941264	 0.125448
H	-1.5612971021	-2.8257858351	-2.528947495	 0.145463
H	-0.1627494583	-1.7399678949	-2.423315887	 0.126029
H	-2.7307943009	 0.9461333568	 0.8831846022	 0.272638
49.4774	146.9595	161.0241	193.4581	214.9806	250.2735	269.1155	299.6236	376.4343	391.8861	502.2627	519.0442	612.272	708.0081	712.3048	737.6918	963.9528	981.4752	1027.8929	1057.5498	1068.4596	1078.6741	1125.8833	1174.699	1181.9215	1208.7386	1282.3811	1310.6378	1321.3575	1396.8566	1412.1564	1448.0064	1474.1113	1480.372	1488.6262	1495.6911	1499.6813	1501.8273	1509.6363	1524.5551	1634.2656	2942.1272	2972.3343	3020.4467	3070.2706	3073.3994	3082.0797	3115.5466	3126.3067	3149.5005	3671.8201
CN(C)C1=C(C)N=NN1	CN(C)c1c(C)nn[nH]1	
InChI=1S/C5H10N4/c1-4-5(9(2)3)7-8-6-4/h1-3H3,(H,6,7,8)	InChI=1S/C5H10N4/c1-4-5(9(2)3)7-8-6-4/h1-3H3,(H,6,7,8)
