19
gdb 53510	5.77094	0.64259	0.61462	1.3961	81.06	-0.2395	0.0592	0.2987	1838.0189	0.156514	-422.976982	-422.966686	-422.965742	-423.014906	35.596	
C	 0.1053913041	 1.4835527835	-0.0672727042	-0.497984
C	 0.0485089716	 0.029891122	-0.0120539218	 0.111674
C	 0.0016866692	-1.1722008786	 0.0261820553	 0.036068
C	-0.072215136	-2.6255916495	 0.0838733826	-0.379762
C	-1.5237666435	-3.1659273011	 0.0581415526	 0.100936
O	-2.2110303577	-2.7816452435	-1.1116915259	-0.426509
C	-1.5178032963	-4.6818114956	 0.1963400697	 0.063279
C	-2.6084152378	-5.5017419869	-0.3357059831	-0.188755
O	-1.3644018628	-5.3816216788	-1.0469086129	-0.251528
H	 0.9200175724	 1.8261051225	-0.7151773005	 0.14581
H	-0.8275068293	 1.9018006524	-0.4613562445	 0.14923
H	 0.2689406937	 1.9169574724	 0.925771961	 0.143825
H	 0.4742147192	-3.0712214254	-0.7588212505	 0.131169
H	 0.4215912823	-2.9900163425	 0.9953974581	 0.120185
H	-2.0741851781	-2.729191593	 0.899811954	 0.103682
H	-1.8790453045	-3.3590177117	-1.8135274647	 0.289489
H	-0.9167080907	-5.0835199924	 1.0129827336	 0.096714
H	-2.7999494498	-6.4847334734	 0.0898353427	 0.120414
H	-3.4542666663	-5.0086121305	-0.8072834414	 0.132061
11.6666	47.3364	67.9577	105.5272	212.1395	214.0617	268.0078	278.7213	369.7888	384.9149	412.7776	477.8845	538.4751	656.0617	759.8963	806.6514	859.9727	900.4479	936.9536	1015.3585	1036.1398	1053.0558	1056.1457	1099.8146	1131.4352	1162.2573	1170.2358	1172.8989	1202.8053	1267.022	1284.3346	1335.6408	1364.4758	1414.6293	1419.0484	1441.3955	1467.8337	1478.8039	1479.306	1514.7052	2377.5525	3006.0277	3025.393	3034.9716	3054.7765	3084.5981	3086.3223	3099.8262	3109.2322	3197.7566	3748.7277
CC#CCC(O)C1CO1	CC#CC[C@@H](O)[C@H]1CO1	
InChI=1S/C7H10O2/c1-2-3-4-6(8)7-5-9-7/h6-8H,4-5H2,1H3	InChI=1S/C7H10O2/c1-2-3-4-6(8)7-5-9-7/h6-8H,4-5H2,1H3/t6-,7-/m1/s1
