20
gdb 32732	3.00007	1.00826	0.79938	1.4473	83.45	-0.1857	0.0307	0.2163	1479.5785	0.171198	-403.181438	-403.17195	-403.171006	-403.216537	34.859	
C	 0.1377153644	 1.5988224866	 0.1501427869	-0.380949
C	 0.0731178063	 0.0709037583	 0.1050275451	-0.153056
C	 0.5536741592	-0.5082866526	-1.241367896	-0.311852
C	 0.5245217021	-1.9939592918	-1.3126012608	 0.315988
C	-0.2857700031	-2.8966727867	-1.9436935041	 0.113619
N	-1.4274831142	-2.6467531037	-2.7260269213	-0.610729
C	 0.199283043	-4.2011469354	-1.5836212892	-0.226426
C	 1.2594642403	-3.9936852043	-0.7626746426	-0.019187
O	 1.4729056709	-2.6706425018	-0.5777273416	-0.189924
H	 1.1605594503	 1.9578652334	-0.0107129756	 0.114289
H	-0.4941042606	 2.0471567585	-0.625365986	 0.110437
H	-0.2013496657	 1.9833409896	 1.1169787429	 0.113068
H	 0.6884771441	-0.3540436537	 0.906243971	 0.110302
H	-0.9523919792	-0.2691516702	 0.2921099799	 0.102391
H	-0.0691152682	-0.1066621702	-2.0517000376	 0.0923
H	 1.5739850904	-0.1508495568	-1.4385650812	 0.11115
H	-1.4708076738	-1.690124343	-3.0547834193	 0.238191
H	-1.486603934	-3.2664042827	-3.5248889407	 0.242129
H	-0.202497177	-5.1527358788	-1.8963032708	 0.101288
H	 1.9378289749	-4.6573523748	-0.2518805988	 0.126971
43.6411	84.3715	104.5776	190.9834	241.6834	261.2905	276.8555	313.7273	362.4834	449.0934	617.2539	654.0833	670.7134	733.4419	742.0081	769.5613	782.2207	807.4696	862.1025	891.7088	909.174	1017.893	1040.9168	1076.1783	1081.8465	1109.0174	1189.9052	1215.7199	1253.8782	1272.3523	1310.2307	1318.9729	1333.4215	1381.6134	1412.5474	1460.6899	1476.4286	1491.8769	1500.2375	1508.6909	1549.0826	1648.0708	1687.9439	3004.7436	3027.2252	3035.5743	3040.1077	3069.9289	3096.4119	3102.368	3247.661	3279.0112	3524.9713	3613.1662
CCCC1=C(N)C=CO1	CCCc1c(N)cco1	
InChI=1S/C7H11NO/c1-2-3-7-6(8)4-5-9-7/h4-5H,2-3,8H2,1H3	InChI=1S/C7H11NO/c1-2-3-7-6(8)4-5-9-7/h4-5H,2-3,8H2,1H3
