16
gdb 29218	3.17549	1.38335	0.96722	5.1921	79.73	-0.1852	-0.021	0.1643	1157.781	0.126641	-434.097432	-434.089428	-434.088484	-434.129611	31.579	
N	 0.085619921	 1.4194323069	 0.0716648234	-0.608069
C	 0.0270375553	 0.0025052836	 0.0039169053	 0.116961
C	-1.1084475262	-0.7157540204	 0.0464405704	 0.008628
O	-1.1499502764	-2.0670217625	 0.069471682	-0.247697
C	 0.0230126571	-2.8312599153	-0.0286005177	 0.382117
N	-0.055207307	-4.1018643749	-0.0610475791	-0.561137
C	 1.2553008243	-2.0886456037	-0.0628542779	-0.274903
C	 1.2858651897	-0.7293500223	-0.0362054408	 0.329784
N	 2.4362991284	 0.0306838967	-0.0892455042	-0.591716
H	 0.455133296	 1.8202439275	-0.7863145047	 0.252304
H	-0.8258228432	 1.8268457814	 0.2443638952	 0.245039
H	-2.1002840624	-0.2796850523	 0.0874680979	 0.117926
H	-1.029250532	-4.3990115314	-0.012222813	 0.210727
H	 2.1625262385	-2.6789908759	-0.0946158412	 0.102146
H	 3.2949085753	-0.4579036175	 0.1163231957	 0.255892
H	 2.3570164616	 0.9261219302	 0.3739795086	 0.261997
104.8078	194.1358	222.6452	314.2676	342.3827	363.1684	393.4276	432.1068	488.9696	538.908	572.2635	630.7466	683.0337	718.5056	749.1327	775.6933	808.1194	832.9715	850.1357	857.8905	875.9957	1072.458	1135.5609	1146.2606	1210.3657	1262.6026	1286.1335	1303.5963	1377.7887	1487.1868	1619.7347	1632.0746	1651.2995	1706.2325	1747.4267	3197.7522	3209.4969	3488.6948	3495.3295	3552.8201	3591.7487	3665.2779
NC1=COC(=N)C=C1N	NC1=COC(=C[C@H]1N)[NH]	
InChI=1S/C5H7N3O/c6-3-1-5(8)9-2-4(3)7/h1-2,8H,6-7H2	InChI=1S/C5H8N3O/c6-3-1-5(8)9-2-4(3)7/h1-3,8H,6-7H2/t3-/m1/s1
