14
gdb 44930	3.18241	1.52589	1.50156	3.8895	61.	-0.2599	-0.0185	0.2414	904.8229	0.103788	-473.887444	-473.881053	-473.880109	-473.918267	25.318	
O	 0.0024182087	-0.0239921123	 0.0256864506	-0.358244
C	-0.0092619039	 1.1774238855	-0.0331821482	 0.433151
N	-1.1087926353	 2.0223999823	-0.0793268765	-0.308095
C	-0.6373141999	 3.4151700191	 0.020070586	-0.161997
C	 0.6275206147	 3.3319408425	-0.8583501885	-0.246575
C	 1.1744434057	 2.1761080027	-0.0108851735	-0.025686
O	 1.1402823768	 2.7426258822	 1.3388975157	-0.244225
C	 0.030772174	 3.5475611046	 1.4035773819	 0.465628
O	-0.2934311212	 4.1583674177	 2.3752761837	-0.336154
H	-1.9935549409	 1.7281541503	 0.3074912628	 0.269812
H	-1.4017798058	 4.1541520637	-0.2006898986	 0.117691
H	 0.4073345662	 3.0620556958	-1.8922593726	 0.136184
H	 1.256687907	 4.222916373	-0.8097316498	 0.136093
H	 2.1597003239	 1.761451333	-0.1966556629	 0.122416
126.0086	217.7119	358.3167	416.246	469.7469	490.1704	511.6444	598.0562	694.8732	736.7609	773.7398	791.4005	866.7643	894.5327	935.1398	959.1025	977.9331	1001.7133	1023.0921	1101.9932	1156.6821	1175.8367	1212.7894	1265.8483	1284.133	1325.1828	1330.1833	1384.2509	1485.4824	1868.4783	1904.7763	3083.0874	3148.3688	3173.6908	3189.4243	3624.6013
O=C1NC2CC1OC2=O	O=C1N[C@@H]2C[C@H]1OC2=O	
InChI=1S/C5H5NO3/c7-4-3-1-2(6-4)5(8)9-3/h2-3H,1H2,(H,6,7)	InChI=1S/C5H5NO3/c7-4-3-1-2(6-4)5(8)9-3/h2-3H,1H2,(H,6,7)/t2-,3-/m1/s1
