22
gdb 88528	3.24651	1.19269	1.0725	2.0847	86.13	-0.2246	0.0782	0.3028	1235.9846	0.195513	-367.120045	-367.111654	-367.11071	-367.153675	32.994	
C	 0.0917571593	 1.522583886	-0.4034420549	-0.416749
C	 0.0081714816	 0.056289813	-0.0384186128	 0.011818
C	 1.2242527734	-0.8337007427	-0.0932989599	-0.307564
C	 0.5761916275	-0.5266751099	 1.2406150949	-0.174
C	 1.2876918636	 0.2518100152	 2.3005390103	 0.33976
C	 0.702378085	 1.0861606521	 3.4721356069	-0.207903
N	 2.2111298329	 1.1868928652	 3.7475643025	-0.150329
C	 2.2322516348	-0.3094354046	 3.3970924326	-0.202613
C	 2.3334387439	 1.39816761	 2.2315292563	-0.215567
H	 1.0691036812	 1.9485924408	-0.1642533883	 0.122519
H	-0.0680770989	 1.657804438	-1.4789812727	 0.117548
H	-0.6681739145	 2.1132356506	 0.1203990607	 0.116599
H	-0.9191169711	-0.4136895742	-0.3576014598	 0.083784
H	 1.1364444174	-1.8354611559	-0.4994030487	 0.109975
H	 2.1763826546	-0.353682499	-0.3003258226	 0.109296
H	-0.014239061	-1.3379500155	 1.6625917172	 0.08026
H	 0.2357313384	 2.0475455964	 3.237904573	 0.097099
H	 0.1510503383	 0.5581304735	 4.2560420028	 0.095927
H	 1.7971582911	-0.9459324104	 4.1736123842	 0.095382
H	 3.2178595829	-0.6730245004	 3.0917107503	 0.096945
H	 3.3280825677	 1.1663376713	 1.8387631078	 0.09783
H	 2.0005733416	 2.3882360307	 1.9086482203	 0.099982
33.8506	126.8675	174.4168	222.2789	263.347	344.2822	397.3585	484.8119	576.1886	598.2053	637.0953	770.6114	796.4877	798.7703	846.1921	862.3007	911.3105	925.0736	944.2051	973.4765	981.6258	995.5739	1026.2891	1028.5352	1067.8465	1079.783	1113.0881	1148.7836	1150.8572	1162.8493	1171.3416	1172.0653	1198.3559	1201.0658	1202.9286	1223.2206	1278.7658	1326.1246	1397.2325	1421.6862	1429.0318	1491.9862	1494.3157	1504.699	1511.287	1512.2573	1566.5835	3031.4564	3038.6128	3040.9698	3050.793	3086.1818	3104.0729	3109.7829	3110.547	3113.7059	3118.4961	3124.6914	3136.8201	3208.8924
CC1CC1C12CN(C1)C2	C[C@H]1C[C@H]1[C@@]12CN(C1)C2	
InChI=1S/C8H13N/c1-6-2-7(6)8-3-9(4-8)5-8/h6-7H,2-5H2,1H3	InChI=1S/C8H13N/c1-6-2-7(6)8-3-9(4-8)5-8/h6-7H,2-5H2,1H3/t6-,7+/m0/s1
