15
gdb 51855	3.59398	1.12029	0.88976	5.9472	62.9	-0.2772	-0.0196	0.2576	1229.6558	0.112519	-494.959766	-494.951717	-494.950773	-494.993302	28.238	
O	-0.454203543	 0.195490733	 0.0945516201	-0.265401
C	-0.2386701554	 1.3624032373	-0.0079231324	 0.181864
O	 0.9943211282	 1.8841538215	 0.2286377047	-0.189973
C	 1.1630776928	 3.2737547295	 0.0115532069	-0.031676
C	 2.5016566251	 3.7696839384	 0.5420871915	-0.271113
C	 2.8162994277	 4.9169125071	-0.4306352845	-0.092261
O	 2.1848682178	 4.5602302309	-1.6794590175	-0.209609
C	 1.2407466001	 3.6127745087	-1.4882034844	 0.438558
O	 0.5839101351	 3.1339454577	-2.3644764431	-0.330577
H	-0.9882846963	 2.1262834938	-0.276134819	 0.097114
H	 0.3224746938	 3.8367183746	 0.4410550661	 0.122164
H	 2.4764209808	 4.0933152383	 1.5832814322	 0.130668
H	 3.2345201599	 2.9641337721	 0.4426585604	 0.148847
H	 2.3997698707	 5.8726161577	-0.0942560496	 0.129239
H	 3.8818189127	 5.0467054094	-0.6249578414	 0.142156
75.4339	94.4532	142.6603	192.5346	224.9316	310.5753	387.0774	477.2815	551.7956	664.9593	683.3061	755.0175	818.9825	896.6685	958.7173	1009.5365	1026.9504	1047.163	1097.894	1134.865	1175.0192	1188.4669	1210.3039	1241.6694	1308.0085	1312.3346	1370.3548	1408.5492	1439.2324	1494.065	1525.4041	1873.8122	1890.8308	2995.459	3016.0513	3051.2829	3076.6695	3123.5196	3138.2813
O=COC1CCOC1=O	O=CO[C@H]1CCOC1=O	
InChI=1S/C5H6O4/c6-3-9-4-1-2-8-5(4)7/h3-4H,1-2H2	InChI=1S/C5H6O4/c6-3-9-4-1-2-8-5(4)7/h3-4H,1-2H2/t4-/m0/s1
