17
gdb 100234	2.66512	1.16385	0.98396	3.0378	74.44	-0.2506	0.0131	0.2638	1242.3079	0.133624	-417.975563	-417.965531	-417.964587	-418.010401	36.456	
N	 0.2014169429	 1.4370949646	-0.1812883907	-0.511855
C	 0.0633435525	 0.0097294331	 0.02353837	-0.159904
C	-1.3913469782	-0.5318340405	 0.0435466832	 0.169595
O	-1.9540152233	-0.1916123536	-1.2061593431	-0.439147
C	-1.4013331871	-2.0709070682	 0.2613747981	-0.382577
C	-2.7314873182	-2.6304974466	 0.0656393923	 0.25954
C	-3.8483614732	-3.0285470177	-0.1340000625	-0.399851
C	-2.1388517173	 0.133338647	 1.1403947638	 0.263042
N	-2.6955134508	 0.6737563537	 1.9970834264	-0.336292
H	-0.3139800683	 1.7108154171	-1.0124371092	 0.245466
H	-0.2016891699	 1.9490229441	 0.5982165764	 0.243508
H	 0.5694268079	-0.5170311926	-0.7936191842	 0.121329
H	 0.5556790718	-0.2732099259	 0.9598749734	 0.1196
H	-2.8241397084	-0.6093258752	-1.264770832	 0.29768
H	-0.7018637931	-2.5072823707	-0.4611826248	 0.147608
H	-1.0266886135	-2.3032368234	 1.264527167	 0.151304
H	-4.8297545539	-3.4074387952	-0.283051344	 0.210952
69.3336	101.1748	124.789	163.4121	191.0186	245.6824	324.8953	340.3181	353.528	405.1201	418.3619	424.1142	473.5124	592.3589	637.1346	672.9748	682.5541	720.2976	863.657	894.8203	912.8293	943.4925	1023.4226	1071.0449	1118.0524	1153.6099	1197.0017	1287.4536	1308.3011	1379.2677	1386.1237	1407.2974	1455.5076	1471.0976	1670.9522	2235.9742	2348.9051	3036.2323	3041.7456	3080.353	3092.3272	3497.6689	3501.9337	3577.8536	3756.7006
NCC(O)(CC#C)C#N	NC[C@@](O)(CC#C)C#N	
InChI=1S/C6H8N2O/c1-2-3-6(9,4-7)5-8/h1,9H,3-4,7H2	InChI=1S/C6H8N2O/c1-2-3-6(9,4-7)5-8/h1,9H,3-4,7H2/t6-/m0/s1
