18
gdb 9928	3.06292	1.52537	1.38491	1.1091	75.75	-0.2338	0.0355	0.2693	1010.9317	0.150355	-347.758724	-347.749304	-347.74836	-347.79211	34.666	
C	-0.0370074824	 1.5478601752	 0.1401128807	-0.419931
C	 0.0244660995	 0.0456040024	-0.0234514583	-0.082043
C	 0.6997194979	-0.6264065259	-1.2005604296	-0.063945
C	 1.3545722068	 0.1389506423	-2.3299115781	-0.410229
C	 1.3517448071	-0.6968449532	 0.168469852	 0.167766
O	 2.5203844032	 0.072825147	 0.2980571159	-0.453516
C	 1.3584868982	-1.9370545058	 0.8987491677	 0.302288
C	 1.3650721789	-2.9558021788	 1.5396698901	-0.457587
H	 0.9209935097	 2.0180033266	-0.0894204701	 0.132443
H	-0.7975017779	 1.9836564402	-0.5169019851	 0.120277
H	-0.3010299711	 1.8133905376	 1.1697209581	 0.116423
H	-0.8407804745	-0.4839801022	 0.3653650144	 0.093062
H	 0.2364816974	-1.5586715553	-1.5106092579	 0.096969
H	 1.923931628	 0.9955921462	-1.9679660175	 0.137602
H	 2.0466763659	-0.5077603214	-2.8787705714	 0.123682
H	 0.6003874487	 0.4982770153	-3.038555031	 0.115033
H	 2.6317943252	 0.2781382931	 1.2331313674	 0.288238
H	 1.3761400192	-3.8629362432	 2.0914216824	 0.193466
127.0056	134.7071	150.5086	153.6878	214.7227	216.4105	284.565	308.5419	392.3525	451.8016	539.1825	547.288	567.6613	595.5071	671.9718	687.0389	790.1441	803.7045	949.0142	1009.9785	1030.4803	1036.5666	1070.6224	1129.0457	1138.2107	1179.2547	1234.325	1256.913	1336.838	1368.7092	1409.4863	1416.348	1445.3824	1486.0199	1494.4891	1502.4337	1513.0584	2227.0039	3034.5346	3039.6868	3088.6375	3095.3533	3126.8033	3138.7471	3145.7865	3157.0806	3501.7778	3798.9
CC1C(C)C1(O)C#C	C[C@H]1[C@@H](C)[C@]1(O)C#C	
InChI=1S/C7H10O/c1-4-7(8)5(2)6(7)3/h1,5-6,8H,2-3H3	InChI=1S/C7H10O/c1-4-7(8)5(2)6(7)3/h1,5-6,8H,2-3H3/t5-,6+,7-
