20
gdb 52960	5.50466	0.7628	0.72394	1.5564	91.75	-0.2276	0.0416	0.2692	1652.2451	0.16982	-365.954431	-365.944792	-365.943848	-365.990561	34.923	
C	-0.0469403482	 1.5068270502	 0.0320440932	-0.508678
C	-0.0370374101	 0.0522274191	 0.0029929714	 0.23185
C	-0.0349288921	-1.1529634496	-0.006693153	-0.11421
C	-0.0026166634	-2.5772168604	-0.0673157251	 0.156665
C	 0.790408816	-3.4149424768	-1.0938691847	-0.324069
C	-0.3808931916	-4.4576721104	-1.1209636697	 0.021102
C	-0.0868794379	-5.9212398688	-0.8151130545	-0.40902
C	-1.1087998814	-3.6160924905	-0.0565739311	-0.112482
N	-0.2973303867	-3.3795905281	 1.1257372982	-0.35082
H	 0.8402856038	 1.9200873987	-0.460755326	 0.147225
H	-0.9279548605	 1.9127391627	-0.4780189386	 0.146925
H	-0.057858811	 1.8818293932	 1.0615248681	 0.151161
H	 0.9306364124	-2.9098801449	-2.0512057389	 0.114441
H	 1.7631184231	-3.7711392025	-0.7365750959	 0.094665
H	-0.9101322556	-4.380769726	-2.0760754164	 0.082413
H	 0.4169934281	-6.0430827758	 0.1506071695	 0.109607
H	-1.0089446163	-6.5117348407	-0.7846753722	 0.120522
H	 0.5653129765	-6.3573766577	-1.5793271282	 0.119603
H	-2.1804312102	-3.4742939988	 0.03248681	 0.098475
H	 0.402814265	-4.1024508028	 1.2866433437	 0.224624
14.8453	80.1084	86.8654	183.4063	222.4838	248.2964	304.7934	333.4387	410.2264	421.6419	522.7241	543.8046	575.393	700.8227	789.7618	850.5334	873.302	888.8313	952.6515	965.0816	1048.7315	1051.7412	1052.7373	1059.3187	1070.0367	1106.6291	1124.3432	1163.1482	1178.7566	1216.9362	1243.836	1289.5322	1294.9143	1363.2712	1408.7844	1413.3482	1441.1175	1476.5969	1478.3119	1486.509	1493.0194	1497.8762	2367.541	3023.9502	3025.5682	3041.7901	3052.0635	3082.8624	3086.1721	3090.9471	3096.9824	3117.21	3173.2938	3455.5741
CC#CC12CC(C)C1N2	CC#C[C@]12C[C@@H](C)[C@H]1N2	
InChI=1S/C8H11N/c1-3-4-8-5-6(2)7(8)9-8/h6-7,9H,5H2,1-2H3	InChI=1S/C8H11N/c1-3-4-8-5-6(2)7(8)9-8/h6-7,9H,5H2,1-2H3/t6-,7-,8+/m1/s1
