13
gdb 129252	3.42254	1.67692	1.13352	4.5643	67.77	-0.262	-0.0572	0.2048	972.8206	0.091971	-452.735916	-452.729598	-452.728654	-452.766782	24.11	
N	-0.0731111486	 1.3103027347	 0.0114069099	-0.538136
C	-0.0512027788	 0.0496458792	 0.0037011805	 0.355948
O	 1.0810118294	-0.7451747156	-0.0070374455	-0.269277
C	 0.7618169301	-2.1612047879	-0.0138825904	-0.202075
C	-0.7312345733	-2.1768811545	-0.0061258283	 0.140372
C	-1.1630534679	-0.895744991	 0.0038541713	 0.299742
O	-2.4894558778	-0.8107341674	 0.0113495257	-0.214003
N	-2.9832640497	-2.1230649426	 0.006006136	-0.117998
C	-1.934754301	-2.9217565938	-0.0042649387	-0.128293
H	 0.8740804845	 1.6912558011	 0.0087209392	 0.235849
H	 1.2095934997	-2.6085363577	-0.9080039989	 0.14448
H	 1.2189403652	-2.6192362363	 0.8700334476	 0.14448
H	-2.1046562918	-3.9887661481	-0.0097906084	 0.148913
158.1268	200.8558	259.6181	295.1937	534.2504	586.968	613.9304	636.5828	642.8283	761.9912	788.8678	878.0082	883.7595	901.5625	952.9851	979.5102	1031.4296	1037.4183	1123.3132	1193.6637	1205.4906	1232.5684	1335.8191	1412.2464	1431.32	1503.7883	1506.8314	1642.4879	1782.0848	3040.297	3077.2318	3250.9329	3488.7611
N=C1OCC2=C1ON=C2	[NH][C]1OCc2c1onc2	
InChI=1S/C5H4N2O2/c6-5-4-3(2-8-5)1-7-9-4/h1,6H,2H2	InChI=1S/C5H4N2O2/c6-5-4-3(2-8-5)1-7-9-4/h1,6H,2H2
