18
gdb 97705	2.70934	0.87495	0.71143	3.2278	84.06	-0.2401	-0.0251	0.215	1624.5733	0.145424	-401.907072	-401.897146	-401.896202	-401.94425	34.444	
C	 0.0346612253	 1.5573835541	-0.0399063174	-0.364696
C	-0.0013454932	 0.0189255973	 0.0268418963	-0.323632
C	-1.3593221977	-0.5131184652	 0.01821288	 0.163153
C	-2.4941886036	-0.9183019784	 0.0125511291	-0.049183
C	-3.8425095068	-1.4079910215	 0.0416608684	 0.033001
C	-4.3819008313	-2.1404834361	-1.1644549194	-0.258183
N	-4.1016347814	-2.8820608801	 0.0511893146	-0.342738
C	-4.8541565459	-0.6619155871	 0.865712886	 0.133833
O	-4.6751268602	 0.4086310609	 1.3792586352	-0.24731
H	 1.0690877621	 1.9125813185	-0.0216248902	 0.115998
H	-0.4393515797	 1.9175208091	-0.9566970423	 0.130302
H	-0.4979659016	 1.9937952972	 0.8087207509	 0.139981
H	 0.5590045811	-0.4002762204	-0.8186728906	 0.12956
H	 0.5168424004	-0.3217017089	 0.9324279402	 0.13366
H	-5.4355407984	-2.0457120429	-1.4149661893	 0.13254
H	-3.7069361476	-2.2124373861	-2.0116954958	 0.137182
H	-3.2052989777	-3.3574081197	-0.019683106	 0.250592
H	-5.8152288937	-1.2158097405	 0.9505541303	 0.085941
11.9036	65.9351	112.3232	122.2344	183.1513	220.2712	247.1217	324.9905	359.2756	434.9719	494.4965	543.7773	552.9716	668.7126	768.9732	787.2422	894.0142	901.8318	964.6439	981.9546	1043.3256	1048.1076	1078.8874	1103.7931	1106.2767	1139.8299	1255.097	1284.598	1311.7461	1342.2457	1375.0555	1409.7039	1420.8168	1475.7208	1493.8814	1501.5458	1505.5005	1838.2363	2364.6197	2895.89	3020.7032	3047.4375	3048.7329	3111.1613	3121.514	3129.6525	3205.2219	3513.8141
CCC#CC1(CN1)C=O	CCC#C[C@]1(CN1)C=O	
InChI=1S/C7H9NO/c1-2-3-4-7(6-9)5-8-7/h6,8H,2,5H2,1H3	InChI=1S/C7H9NO/c1-2-3-4-7(6-9)5-8-7/h6,8H,2,5H2,1H3/t7-/m0/s1
