19
gdb 24113	4.71466	0.87842	0.84112	3.7777	81.45	-0.2142	0.0345	0.2487	1420.7701	0.161833	-382.097012	-382.088843	-382.087898	-382.131039	30.67	
C	-0.0890269994	 1.5759387943	-0.0891709943	-0.362642
C	-0.1784095467	 0.0667549177	-0.2729234794	 0.040094
C	-0.1353481751	-0.8433410904	 0.9247428399	-0.246865
C	-1.4205958072	-0.6743135833	 0.1495645415	-0.27509
C	 1.3073617916	 2.0923578064	 0.0540837781	 0.319962
C	 1.9993746714	 2.6167695619	 1.1165149746	-0.165846
N	 3.2912303123	 2.9399465971	 0.7644212032	-0.253342
C	 3.3904425188	 2.6160435049	-0.5021224328	 0.008758
N	 2.2217467375	 2.0989255363	-0.9832076693	-0.298081
H	-0.5956761446	 2.0750297725	-0.9277630486	 0.105044
H	-0.6448894861	 1.8596746052	 0.8112375839	 0.115712
H	 0.3145844964	-0.3059036604	-1.1679039328	 0.073619
H	 0.3966371032	-1.7844994286	 0.8429540646	 0.113094
H	-0.0668762446	-0.3814300815	 1.9042878671	 0.115642
H	-2.2192546751	-0.1010240215	 0.6096416891	 0.1116
H	-1.7667113165	-1.499126381	-0.4635891683	 0.111677
H	 1.6320838987	 2.7822655969	 2.1186717332	 0.100846
H	 4.2671820161	 2.730721781	-1.1222909727	 0.125112
H	 2.0505634493	 1.7875861525	-1.9247254969	 0.260707
44.8581	61.7358	111.9444	265.7212	307.2549	347.6185	408.1037	520.077	655.1004	684.4554	733.7616	772.557	799.5927	805.3343	837.1841	850.2428	891.6632	932.4763	955.2649	993.4084	1020.9925	1056.6333	1078.3565	1108.845	1118.2045	1135.5525	1145.7565	1195.3909	1222.695	1246.7297	1261.0828	1287.7097	1332.9573	1384.6667	1409.3628	1428.5433	1468.8037	1477.8791	1507.991	1509.946	1614.6271	3002.5957	3067.993	3128.3502	3129.739	3135.7309	3206.8583	3222.3637	3241.3065	3248.9438	3661.7204
C(C1CC1)C1=CN=CN1	C(C1CC1)c1cnc[nH]1	
InChI=1S/C7H10N2/c1-2-6(1)3-7-4-8-5-9-7/h4-6H,1-3H2,(H,8,9)	InChI=1S/C7H10N2/c1-2-6(1)3-7-4-8-5-9-7/h4-6H,1-3H2,(H,8,9)
