21
gdb 86581	2.75091	1.17336	0.89879	2.4512	79.06	-0.2332	-0.0139	0.2193	1355.6819	0.179267	-424.239711	-424.229355	-424.228411	-424.276688	36.753	
C	 0.2084621436	 1.6854145195	-0.2228605474	-0.40034
C	 0.7091820103	 0.2534604809	-0.2368203594	 0.141877
O	 2.16151529	 0.1868247836	-0.1956952985	-0.311679
C	 2.1514013912	-0.4872218941	 1.0749279814	 0.045334
C	 0.604170708	-0.6049269834	 1.058779507	-0.050822
C	-0.1595351294	-0.1052938255	 2.2742197246	-0.419108
C	 2.9165526807	-1.8023987849	 1.1287169892	 0.337772
C	 3.5697643831	-2.2804060794	-0.1475962493	-0.47456
O	 2.9571431438	-2.4155803021	 2.1719457289	-0.310116
H	 0.5781913229	 2.233492917	 0.6478836228	 0.122988
H	 0.5553905232	 2.2048265153	-1.1214214393	 0.129116
H	-0.8864980975	 1.7133884996	-0.2146844451	 0.117741
H	 0.3342821785	-0.2593463031	-1.1321427419	 0.077304
H	 2.5298253441	 0.1546066166	 1.8831985976	 0.097877
H	 0.288335413	-1.6259498557	 0.825595923	 0.08861
H	 0.1312309015	 0.9121425005	 2.5518286209	 0.120719
H	-1.2400441765	-0.1129013133	 2.0960261849	 0.119125
H	 0.0427096246	-0.754415204	 3.1319484552	 0.138897
H	 4.2723742302	-1.5247814644	-0.5146003533	 0.151711
H	 4.0823095638	-3.2259735463	 0.0320388564	 0.135046
H	 2.8186864009	-2.3984720867	-0.9358685877	 0.142508
18.2955	44.2253	130.6869	148.1746	200.7063	212.731	239.1417	265.1726	293.8194	371.9236	463.6171	488.037	540.8263	592.9931	715.7037	777.5895	803.7967	890.163	909.0982	993.2161	1002.5328	1007.4662	1040.8113	1053.5961	1079.5306	1123.6185	1146.4606	1168.7745	1230.1331	1254.4804	1265.8093	1309.0861	1332.7929	1379.656	1381.7986	1390.4572	1410.3316	1413.834	1450.4223	1465.1679	1480.1689	1489.3296	1497.4996	1506.5705	1805.376	3004.867	3013.2618	3034.7221	3039.8155	3043.7171	3061.6546	3103.492	3103.6845	3108.7371	3110.5848	3122.2848	3156.5838
CC1OC(C1C)C(C)=O	C[C@H]1O[C@@H]([C@H]1C)C(=O)C	
InChI=1S/C7H12O2/c1-4-6(3)9-7(4)5(2)8/h4,6-7H,1-3H3	InChI=1S/C7H12O2/c1-4-6(3)9-7(4)5(2)8/h4,6-7H,1-3H3/t4-,6+,7-/m0/s1
