21
gdb 110979	2.37946	1.30851	1.16295	1.7643	79.92	-0.2418	0.0788	0.3206	1211.3517	0.181039	-424.168769	-424.159317	-424.158373	-424.202763	35.579	
C	-0.2792883597	 1.3430071192	 0.0915454558	-0.241818
O	 0.3227463903	 0.0885515514	-0.1348839922	-0.261326
C	 0.8159066387	-0.507924698	 1.0331476493	 0.151215
C	-0.1328957772	-1.381786538	 1.9183268662	-0.167917
C	-0.1560503308	-2.4031983229	 0.7464749026	-0.274124
C	 1.3424813106	-1.9616403259	 0.853909793	 0.259686
C	 2.5111246432	-2.4051360028	 0.0173714588	-0.524982
C	 1.1601614658	-2.1181859704	 2.3865259534	 0.108466
O	 2.1156401442	-1.4566714177	 3.1811362907	-0.444445
H	 0.4182037215	 2.0460648799	 0.5730383297	 0.105243
H	-0.5701731434	 1.7460197139	-0.8816841595	 0.124674
H	-1.176122749	 1.2625916743	 0.7241326241	 0.105507
H	 1.4707617015	 0.181751721	 1.575819009	 0.077653
H	-0.9722092394	-1.0601983272	 2.5365025324	 0.063271
H	-0.3746404405	-3.4438155512	 1.0049614287	 0.082075
H	-0.6791470596	-2.0865818077	-0.1532235397	 0.115105
H	 2.3911408615	-2.0759875802	-1.0197019005	 0.128994
H	 3.4446976814	-1.9823326418	 0.403229979	 0.128242
H	 2.6083139802	-3.4962469176	 0.0188121085	 0.114882
H	 1.0002648609	-3.1504007605	 2.725153232	 0.064864
H	 1.8202622897	-1.4883622181	 4.0960653885	 0.284734
77.6709	148.9096	172.6521	188.7177	199.9051	253.0577	258.9629	296.7	366.8293	415.1773	483.3877	552.8801	631.6199	657.7558	766.9835	835.3304	877.7518	900.0178	930.8125	954.7479	1019.89	1044.3924	1051.7002	1073.5549	1102.4947	1142.0288	1155.3746	1181.3365	1188.2145	1191.2751	1205.2232	1230.8057	1240.6249	1245.3547	1291.4606	1345.8413	1401.314	1407.4714	1443.4562	1480.6655	1487.3924	1489.2862	1491.9352	1506.6113	1517.802	2975.4087	3014.8689	3022.564	3030.9133	3055.8678	3057.8364	3097.7983	3103.3377	3105.028	3112.3504	3161.4011	3824.335
COC1C2CC1(C)C2O	CO[C@H]1[C@H]2C[C@]1(C)[C@H]2O	
InChI=1S/C7H12O2/c1-7-3-4(5(7)8)6(7)9-2/h4-6,8H,3H2,1-2H3	InChI=1S/C7H12O2/c1-7-3-4(5(7)8)6(7)9-2/h4-6,8H,3H2,1-2H3/t4-,5-,6-,7+/m0/s1
