18
gdb 47824	2.24125	2.02142	1.22964	4.4283	72.15	-0.2544	0.0153	0.2697	1022.5549	0.149689	-439.099321	-439.09174	-439.090796	-439.131544	29.231	
O	 0.0170664823	 0.1097206002	 0.8451495997	-0.340807
C	 0.0292778578	 1.1443859294	 0.2368394124	 0.409001
O	-1.1107992585	 1.7792534383	-0.1980039765	-0.251118
C	-1.6288751287	 2.7905517665	 0.6767579515	-0.084861
C	-0.8040821833	 4.0789346815	 0.676473671	-0.19664
C	 0.6438457611	 3.8759619054	 1.1608681236	-0.238637
C	 1.5087382613	 3.1498153079	 0.1476336062	-0.00125
C	 2.3613947857	 1.9790600371	 0.5587967154	-0.252021
N	 1.1656124008	 1.7888204475	-0.2287549679	-0.089675
H	-2.6404149137	 2.9865109738	 0.3134033046	 0.12178
H	-1.7080654489	 2.3832380214	 1.6946142744	 0.113798
H	-0.8066804485	 4.510283179	-0.331706765	 0.113436
H	-1.3119916738	 4.7956791842	 1.3332225416	 0.105195
H	 1.1048661043	 4.8455155692	 1.3792322293	 0.110815
H	 0.6326491921	 3.3160888887	 2.1053695314	 0.111132
H	 1.8510548241	 3.760938825	-0.6865994177	 0.103751
H	 3.2990126224	 1.7802465859	 0.04754595	 0.129305
H	 2.3268922335	 1.6671576389	 1.599918586	 0.136795
77.8336	155.6749	216.6504	295.0712	317.2128	389.6908	411.4862	516.6026	542.9737	600.422	739.251	766.9951	841.1852	869.5565	899.5218	931.1175	963.8087	983.6736	998.2071	1073.6661	1091.9319	1110.4224	1133.7793	1145.6708	1158.3118	1182.7749	1233.4335	1251.4496	1308.2375	1355.4139	1365.924	1383.4703	1414.3592	1430.8647	1476.598	1481.6569	1502.776	1512.3944	1832.3366	3012.6314	3023.4849	3030.6447	3070.1491	3076.3671	3104.1823	3109.891	3116.8951	3199.3264
O=C1OCCCC2CN12	O=C1OCCC[C@H]2CN12	
InChI=1S/C6H9NO2/c8-6-7-4-5(7)2-1-3-9-6/h5H,1-4H2	InChI=1S/C6H9NO2/c8-6-7-4-5(7)2-1-3-9-6/h5H,1-4H2/t5-,7?/m0/s1
