19
gdb 36581	2.88411	0.91486	0.76107	0.976	88.35	-0.2447	0.046	0.2907	1514.2139	0.156187	-348.677757	-348.667966	-348.667022	-348.712699	36.672	
C	 0.059170082	-1.2465392092	 0.0095317991	-0.440854
C	 0.0356881507	-0.0510209092	 0.1335705091	 0.294731
C	 0.0423434733	 1.3993842215	 0.271482241	-0.353501
C	 1.3569257234	 2.0387964672	-0.2231004589	-0.26992
C	 1.3652287782	 3.5562164549	-0.0714489041	 0.17172
C	 1.7619985231	 4.1402716319	 1.2794452236	-0.289756
C	 2.7059992035	 4.2504404851	 0.1179317122	-0.312973
C	 0.3598412894	 4.2570922625	-0.8273211812	 0.29038
C	-0.4881178064	 4.8218149394	-1.4680706901	-0.476563
H	 0.0639951925	-2.302830036	-0.0962566128	 0.192458
H	-0.7967265161	 1.8306931639	-0.2876158629	 0.14569
H	-0.1200941579	 1.6711324218	 1.3224296371	 0.129343
H	 2.1968394018	 1.6191951162	 0.3405648043	 0.107146
H	 1.5133645794	 1.7718507618	-1.2735950284	 0.120178
H	 1.2476900459	 5.0342508679	 1.6104286558	 0.12862
H	 1.9963998825	 3.4330982522	 2.0681865761	 0.11995
H	 3.5895670898	 3.6213170028	 0.108030742	 0.120704
H	 2.8341346119	 5.2199962001	-0.3479080862	 0.128791
H	-1.233449417	 5.3270943853	-2.0305988056	 0.193852
59.3313	93.8104	113.4901	156.0309	210.2504	249.8402	318.5796	356.9069	385.0625	486.4102	539.2709	561.1963	587.0804	614.7361	638.3336	648.3585	705.4706	770.6106	790.6253	873.4072	932.5404	944.0338	960.0496	984.8411	1040.0504	1051.0726	1066.8207	1086.786	1181.396	1193.986	1273.9271	1290.1555	1302.6281	1350.4211	1379.6405	1464.0998	1473.5908	1488.5511	1498.4195	2230.5418	2238.6886	3024.3756	3044.8546	3058.4215	3091.4322	3136.3478	3141.0182	3222.6626	3236.8742	3502.9647	3508.034
C#CCCC1(CC1)C#C	C#CCCC1(CC1)C#C	
InChI=1S/C9H10/c1-3-5-6-9(4-2)7-8-9/h1-2H,5-8H2	InChI=1S/C9H10/c1-3-5-6-9(4-2)7-8-9/h1-2H,5-8H2
