20
gdb 111425	2.02143	1.48379	0.98868	3.089	73.86	-0.238	0.0601	0.2981	1230.8776	0.171028	-440.217175	-440.208025	-440.20708	-440.251326	34.192	
O	 0.1869331812	 1.4905500083	 0.4608137648	-0.413868
C	 0.053601614	 0.2054768983	-0.1318531778	-0.083768
C	-1.3241803811	-0.4017844338	 0.1111548984	-0.070278
C	-1.5511365889	-1.8809594208	-0.210730388	-0.046304
C	-0.7967350341	-2.7639877053	 0.6971971556	-0.250708
N	-2.0720432146	-2.1979114474	 1.1831672427	-0.158897
C	-1.8105126242	-0.7463362792	 1.5533964742	 0.026763
C	-0.9526754233	-0.5333875318	 2.7878680307	-0.076794
O	-1.5951414923	-1.0683885725	 3.9333698741	-0.424535
H	-0.4522772102	 2.0779912631	 0.0444422292	 0.283887
H	 0.2556357106	 0.2368117438	-1.2148427828	 0.092607
H	 0.8410257058	-0.4038453049	 0.3198894285	 0.111468
H	-2.0712239597	 0.2242457817	-0.3895698136	 0.07504
H	-2.0535163887	-2.2563384241	-1.0965577595	 0.098089
H	-0.8659667378	-3.8327888343	 0.51965875	 0.125268
H	 0.1465817315	-2.4463843191	 1.1310087206	 0.117502
H	-2.7882516681	-0.2999890933	 1.7527035126	 0.094416
H	 0.0537979445	-0.9614269702	 2.663013762	 0.081881
H	-0.8191543275	 0.5387959815	 2.9584834016	 0.124654
H	-1.8783573769	-1.96131472	 3.7046052568	 0.293578
85.935	92.6831	129.1345	177.0023	235.4222	291.0737	320.6781	355.6594	382.6824	464.5495	528.8369	564.1784	708.0439	741.6834	769.5795	852.0985	898.6387	963.2811	994.138	1002.9757	1043.2297	1061.3606	1063.2371	1077.1835	1109.0244	1112.8077	1130.2317	1173.6576	1194.0528	1209.7525	1219.2294	1257.2676	1296.6867	1334.8064	1355.9378	1368.8266	1392.9819	1398.2034	1422.0399	1431.0009	1493.4635	1507.7845	1514.1097	2975.3081	2984.7986	3037.8009	3072.7622	3090.2982	3093.1133	3121.7519	3159.9507	3204.1505	3795.0315	3812.3037
OCC1C2CN2C1CO	OC[C@H]1[C@H]2CN2[C@H]1CO	
InChI=1S/C6H11NO2/c8-2-4-5-1-7(5)6(4)3-9/h4-6,8-9H,1-3H2	InChI=1S/C6H11NO2/c8-2-4-5-1-7(5)6(4)3-9/h4-6,8-9H,1-3H2/t4-,5+,6-,7?/m0/s1
