16
gdb 25655	5.40613	0.78033	0.68532	1.5693	92.43	-0.1757	0.0041	0.1798	1616.342	0.12385	-400.761146	-400.752024	-400.751079	-400.796798	32.388	
C	-0.1748595239	 1.4112436222	-0.0140358737	-0.510741
C	-0.047079732	-0.0365805853	-0.0036850682	 0.232367
C	 0.0583714583	-1.2404357479	 0.0027439084	-0.110102
C	 0.1924321801	-2.6341425578	 0.0136745791	 0.193691
C	 1.2535002854	-3.4793820857	 0.1754337854	-0.282276
C	 0.7576817622	-4.8151091286	 0.0948446171	-0.236416
C	-0.5888729042	-4.6931765884	-0.1165484272	 0.355596
N	-1.5987694666	-5.608832074	-0.3518062523	-0.607076
O	-0.9578749445	-3.3987485313	-0.1699300637	-0.206488
H	 0.4567217637	 1.866702162	-0.7858002032	 0.148312
H	-1.2096799845	 1.7073580373	-0.219279307	 0.151998
H	 0.108529886	 1.8504161847	 0.9497807778	 0.14723
H	 2.2744317406	-3.1720230224	 0.3384434946	 0.107882
H	 1.316306383	-5.7331427926	 0.1786052306	 0.099108
H	-1.4093975851	-6.522466953	 0.03484857	 0.257659
H	-2.5110457187	-5.2717914094	-0.0733334677	 0.259256
14.9748	86.0006	97.9318	207.4692	231.3325	291.7378	300.9921	395.9349	461.3483	466.4179	553.2432	632.1689	656.8924	691.5379	729.2284	752.1463	838.2818	921.27	1000.3866	1011.1326	1048.1379	1050.5593	1051.1771	1104.9582	1221.3322	1296.3098	1311.7311	1411.936	1444.0199	1472.2405	1478.9193	1584.583	1628.5724	1661.7314	2344.2758	3019.3476	3074.3954	3085.2536	3255.1458	3268.5525	3553.635	3656.5022
CC#CC1=CC=C(N)O1	CC#Cc1ccc(N)o1	
InChI=1S/C7H7NO/c1-2-3-6-4-5-7(8)9-6/h4-5H,8H2,1H3	InChI=1S/C7H7NO/c1-2-3-6-4-5-7(8)9-6/h4-5H,8H2,1H3
