22
gdb 76449	2.95834	0.96619	0.90635	3.3678	83.91	-0.2205	-0.0171	0.2034	1418.547	0.19013	-404.332909	-404.321904	-404.32096	-404.369559	38.874	
C	 1.6295565643	-4.0621642632	 1.6075890069	-0.424387
C	 1.059367143	-2.8625943989	 0.881378218	-0.041439
N	 0.3832430776	-1.7488930845	 1.5537785026	-0.129679
C	 0.235256385	-1.727718606	 3.0008481361	-0.319243
C	 1.678143737	-1.4948542852	 0.9046761323	 0.274283
C	 2.9387548712	-1.2110690521	 1.703151073	-0.463703
C	 1.5504423584	-0.6246830905	-0.3476385606	-0.318156
C	 1.2849866169	 0.8215429521	 0.0095895366	 0.158771
O	 1.9444887344	 1.7603988343	-0.3593800415	-0.247169
H	 2.1851840576	-3.8072701908	 2.5111429416	 0.120811
H	 0.8280786851	-4.7525631221	 1.8930804834	 0.127038
H	 2.3095274024	-4.6067859123	 0.9439121428	 0.126557
H	 0.5603225486	-3.1459040217	-0.0473067719	 0.082167
H	 1.0720137644	-2.1445203859	 3.5778234628	 0.101571
H	 0.0885012824	-0.6922813734	 3.3248037304	 0.12545
H	-0.6661255455	-2.2895555385	 3.2666410055	 0.125897
H	 3.8230412769	-1.4142085482	 1.0896955151	 0.128834
H	 2.9848866765	-0.1561503563	 1.9959795391	 0.133322
H	 3.0206972182	-1.8106996934	 2.6097032296	 0.121396
H	 2.4482824405	-0.6788995566	-0.97129244	 0.111577
H	 0.6915016799	-0.9795660814	-0.9302922746	 0.120661
H	 0.4013390751	 0.9628029848	 0.6719853127	 0.085443
51.8994	60.5398	119.5395	138.9629	150.6774	162.0628	238.6929	245.2154	281.3342	304.1612	351.5621	429.481	495.205	535.8155	540.5659	694.8181	746.3736	788.7639	838.554	944.2025	972.7027	1019.3424	1043.216	1052.7927	1103.5692	1118.3867	1146.0587	1156.7696	1173.3869	1193.0871	1202.	1289.0911	1300.3976	1369.5298	1407.1203	1416.5713	1419.3676	1427.8593	1451.8817	1463.4651	1480.0743	1487.4247	1491.1804	1502.0665	1507.3515	1515.7906	1828.2161	2882.8547	3002.8929	3033.453	3037.5597	3040.6445	3069.2325	3076.0675	3091.8799	3093.6801	3098.2243	3098.5865	3130.281	3144.7203
CC1N(C)C1(C)CC=O	C[C@H]1N(C)[C@]1(C)CC=O	
InChI=1S/C7H13NO/c1-6-7(2,4-5-9)8(6)3/h5-6H,4H2,1-3H3	InChI=1S/C7H13NO/c1-6-7(2,4-5-9)8(6)3/h5-6H,4H2,1-3H3/t6-,7-,8?/m1/s1
