27
gdb 113927	3.34448	0.69841	0.63894	0.1644	97.16	-0.2602	0.0877	0.3479	1944.7725	0.250468	-353.560256	-353.548863	-353.547919	-353.597462	42.087	
C	 0.4424142545	 1.5346129309	 0.2210375262	-0.373259
C	-0.1244942985	 0.1399326137	-0.070397936	-0.191278
C	 0.4823762761	-0.4832227873	-1.3121787986	-0.002133
C	 1.7764641888	-1.2593716609	-1.2455387283	-0.287549
C	 0.4843427836	-1.9730229365	-1.5775689336	-0.016704
C	-0.149251851	-2.9778726716	-0.6331364708	-0.192721
C	 0.2018019777	-4.4467395891	-0.9449220691	 0.045612
C	 1.700326427	-4.7381972104	-0.787334696	-0.377057
C	-0.6317387423	-5.3956748713	-0.073669923	-0.391877
H	 1.5255942572	 1.4930706826	 0.3765748347	 0.117039
H	 0.2554379103	 2.2188513908	-0.6141276877	 0.111937
H	-0.0116606589	 1.9706807708	 1.116544668	 0.107515
H	 0.0464844005	-0.5079007861	 0.7967112232	 0.094212
H	-1.2144456027	 0.207654409	-0.1884130389	 0.094035
H	 0.3604713112	 0.1340062505	-2.2005964862	 0.074777
H	 2.5210965506	-1.1198610923	-2.0221319976	 0.104013
H	 2.1966082338	-1.4359393446	-0.2592358926	 0.105346
H	 0.3607021006	-2.2405169453	-2.6257064885	 0.075546
H	 0.1385802809	-2.7589641799	 0.40336551	 0.088516
H	-1.2421690548	-2.8692643315	-0.673300521	 0.089136
H	-0.0680421568	-4.6324280457	-1.9952712126	 0.068325
H	 2.0225985982	-4.5698148927	 0.2477717799	 0.105854
H	 1.9244080656	-5.7809881213	-1.0364553223	 0.105345
H	 2.3079466838	-4.0986573727	-1.4328617394	 0.121194
H	-1.7051990543	-5.2265101713	-0.2105569482	 0.107389
H	-0.4231951728	-6.4433513597	-0.3150332278	 0.107278
H	-0.4057846282	-5.250605518	 0.9898908161	 0.109509
42.9169	64.7746	95.8637	106.0546	201.8741	216.8402	223.445	251.0811	261.1564	297.5136	373.6035	385.8694	428.8647	450.7802	549.2574	754.9729	795.4644	817.1471	831.7886	861.7034	875.6061	927.8096	944.4755	957.6995	964.2116	976.812	1003.8439	1048.757	1065.5619	1097.5058	1116.644	1136.6193	1153.1615	1193.5185	1199.2732	1201.9356	1247.9271	1267.163	1297.3967	1312.3089	1342.5162	1368.8926	1372.1065	1399.6366	1403.8518	1410.4535	1419.9691	1434.8941	1478.0872	1483.8451	1487.7438	1493.5624	1496.8317	1498.5399	1503.4948	1507.1207	1510.3193	2991.4428	3002.7625	3016.5622	3021.122	3026.7999	3030.0074	3042.4138	3060.5199	3083.9087	3090.0023	3096.1732	3097.3205	3102.9439	3110.6149	3114.5512	3118.6641	3123.3725	3202.3951
CCC1CC1CC(C)C	CC[C@H]1C[C@H]1CC(C)C	
InChI=1S/C9H18/c1-4-8-6-9(8)5-7(2)3/h7-9H,4-6H2,1-3H3	InChI=1S/C9H18/c1-4-8-6-9(8)5-7(2)3/h7-9H,4-6H2,1-3H3/t8-,9+/m0/s1
