19
gdb 39335	2.83409	1.79161	1.32424	1.7629	73.93	-0.2414	0.0803	0.3217	987.9546	0.161957	-423.016251	-423.009022	-423.008078	-423.048004	28.558	
C	-0.0579617777	 1.4374215526	 0.0549140956	-0.377571
C	 1.3201075646	 0.8145065036	 0.0094100318	-0.102449
C	 2.0175472916	 0.5033867346	 1.3202414913	-0.100564
O	 1.0765573915	-0.2288163115	 2.1129509813	-0.274408
C	 0.1150174061	-0.8376901265	 1.2669617035	 0.043965
C	 0.4511215055	-2.2367271058	 0.7176072411	-0.102037
O	-0.2282716696	-2.3205990064	-0.5311004443	-0.265532
C	-0.3246562228	-1.0169177305	-1.1220242834	-0.166821
C	 0.0819828322	-0.049343769	-0.0335265429	 0.310207
H	-0.4103501192	 1.8602499835	 0.9920811009	 0.122072
H	-0.3818006266	 1.9743288514	-0.8310477466	 0.11667
H	 1.9270106998	 0.9605553305	-0.8773182619	 0.093673
H	 2.9226784471	-0.092783921	 1.1287925185	 0.098219
H	 2.3107379062	 1.3846672436	 1.9018600209	 0.109709
H	-0.8323800605	-0.847892258	 1.8170427138	 0.088228
H	 1.5421498045	-2.3350280782	 0.596518758	 0.090922
H	 0.0964916502	-3.0584113865	 1.3449252142	 0.110027
H	 0.3245952267	-0.9483707673	-2.0065668948	 0.097673
H	-1.3613886595	-0.8741383191	-1.4511870469	 0.108017
93.1395	170.9385	201.8549	303.5051	364.4649	401.6967	518.3938	568.235	669.1054	717.561	780.0296	830.8414	867.3342	906.3413	923.9937	949.0775	957.9227	998.2415	1051.8442	1065.1139	1072.4132	1081.0559	1089.4564	1109.9031	1122.7914	1135.122	1202.8186	1219.4328	1231.7545	1256.0523	1288.2768	1303.8598	1329.8931	1362.1898	1374.1877	1405.1744	1422.9278	1489.3108	1511.3835	1521.2009	1527.6697	2973.8787	2988.6841	2997.0652	3038.7524	3049.437	3056.8436	3095.8954	3115.8751	3173.8699	3204.0632
C1C2COC3COCC123	C1[C@H]2CO[C@@H]3COC[C@]123	
InChI=1S/C7H10O2/c1-5-2-9-6-3-8-4-7(1,5)6/h5-6H,1-4H2	InChI=1S/C7H10O2/c1-5-2-9-6-3-8-4-7(1,5)6/h5-6H,1-4H2/t5-,6+,7+/m0/s1
