20
gdb 69511	2.43711	1.62292	1.35746	1.897	78.86	-0.2213	0.0778	0.2991	1061.7534	0.169881	-403.094614	-403.085703	-403.084759	-403.127398	34.914	
C	 0.0141823133	 1.5259221943	 0.1318191062	-0.504661
C	-0.0040934904	 0.0299344977	 0.0119443364	 0.206894
C	 1.2098166813	-0.806547884	-0.3634727625	-0.387308
C	 0.5946254508	-1.0150808706	 0.9853467557	 0.415726
O	 1.3356954516	-0.8013180846	 2.1300700018	-0.465117
C	-0.6712136383	-1.8222767357	 0.888530654	-0.226383
N	-1.787348059	-0.9195396098	 1.3134484761	-0.394082
C	-1.2491387251	-0.8372957094	-0.0738281158	 0.301712
C	-2.1106836061	-1.0691314229	-1.2792292143	-0.50907
H	 0.9539863112	 1.8663905357	 0.5796612542	 0.123211
H	-0.0853009766	 2.0200842729	-0.8420056282	 0.115353
H	-0.8061932518	 1.8673006501	 0.771798176	 0.128739
H	 1.1582565822	-1.5732971887	-1.1331046868	 0.101694
H	 2.150758394	-0.2649805589	-0.3377096904	 0.120502
H	 0.7176098895	-0.5151390294	 2.8139330652	 0.292534
H	-0.7929122183	-2.9001365438	 0.912116976	 0.088992
H	-2.6464601011	-1.4718243412	 1.2702242619	 0.218003
H	-2.7441894204	-0.1988257212	-1.486413412	 0.128679
H	-1.4950753505	-1.2497826738	-2.1668910388	 0.128194
H	-2.7674301163	-1.9350139766	-1.1424915246	 0.116386
150.6553	163.6052	194.8676	206.7136	222.8264	237.7663	331.9468	408.1419	424.3081	471.6142	533.1418	573.2657	603.9135	669.3856	730.803	767.1273	822.4902	875.516	920.902	961.6183	968.4277	977.1393	999.9683	1061.1835	1078.7184	1099.6903	1105.738	1127.352	1156.6869	1210.624	1242.6698	1296.9131	1346.5509	1372.8765	1403.2887	1410.9521	1412.464	1444.1333	1484.0238	1489.1372	1497.3413	1500.1979	1507.088	3022.0319	3025.0393	3081.8745	3086.237	3097.2268	3099.0805	3105.8797	3168.0632	3198.0382	3441.5972	3780.4749
CC12CC1(O)C1NC21C	C[C@@]12C[C@]1(O)[C@H]1N[C@@]21C	
InChI=1S/C7H11NO/c1-5-3-7(5,9)4-6(5,2)8-4/h4,8-9H,3H2,1-2H3	InChI=1S/C7H11NO/c1-5-3-7(5,9)4-6(5,2)8-4/h4,8-9H,3H2,1-2H3/t4-,5-,6+,7-/m0/s1
