17
gdb 80369	2.359	1.69659	1.1968	1.5483	72.26	-0.25	0.004	0.254	1051.004	0.135045	-417.962552	-417.954002	-417.953058	-417.995395	32.306	
C	-0.1300613022	 1.5318688092	 0.1141608443	-0.438684
C	 0.0615048981	 0.0427485629	-0.0630137196	 0.015674
C	 0.631500515	-0.6714256529	-1.2253863385	-0.093997
N	 1.3293073951	-0.6946922259	 0.1309829445	-0.145774
C	 2.4307643917	 0.1338821459	-0.4679979713	-0.227281
C	 1.8098574874	 0.0354177622	-1.8966746999	 0.270061
O	 2.461162277	-0.8995136982	-2.731252882	-0.454184
C	 1.5621947183	 1.2828895235	-2.6370771678	 0.232412
N	 1.4105979506	 2.2713824573	-3.2176319491	-0.34415
H	 0.5952527501	 2.1450469065	-0.4213866128	 0.143346
H	-1.1220931748	 1.8145437222	-0.2514961445	 0.138015
H	-0.0802303073	 1.7887480463	 1.1775480717	 0.131419
H	-0.737201212	-0.5317951063	 0.404325644	 0.111279
H	 0.191581444	-1.5566749168	-1.6725832249	 0.11833
H	 2.5571395032	 1.1266451356	-0.0300952824	 0.119761
H	 3.3716097548	-0.4171583845	-0.4293734992	 0.12834
H	 3.2684664208	-0.4972959669	-3.0730679424	 0.295433
115.797	138.5068	177.682	210.0548	280.5317	289.7946	322.5457	394.264	466.9069	506.8984	546.3378	599.3852	657.8593	710.642	787.6048	835.7206	916.5499	925.9273	963.6782	1005.0118	1044.9855	1082.0518	1105.5051	1122.0334	1130.9896	1180.7132	1222.9462	1251.3102	1284.9528	1337.142	1379.2661	1417.973	1440.5997	1479.6246	1497.8815	1505.6332	2344.7	3046.0028	3071.7419	3105.6381	3118.1328	3135.942	3148.4974	3174.3203	3797.6432
CC1C2N1CC2(O)C#N	C[C@H]1[C@@H]2N1C[C@]2(O)C#N	
InChI=1S/C6H8N2O/c1-4-5-6(9,2-7)3-8(4)5/h4-5,9H,3H2,1H3	InChI=1S/C6H8N2O/c1-4-5-6(9,2-7)3-8(4)5/h4-5,9H,3H2,1H3/t4-,5-,6+,8?/m0/s1
