20
gdb 61667	4.12558	0.78678	0.75307	5.0461	81.02	-0.2368	0.0262	0.263	1557.5711	0.171898	-399.305917	-399.296492	-399.295548	-399.3409	34.083	
N	 0.083918478	 1.5991669832	 0.0159627842	-0.506872
C	 0.0365991815	 0.134717078	 0.0375573765	-0.124486
C	 0.6637571139	-0.5475302878	-1.2064145771	-0.156452
N	-0.0102755773	-0.0888531474	-2.3996744881	-0.074428
C	-1.2958011973	-0.7120340204	-2.7952426709	-0.167787
C	-0.8562132889	-0.5995417523	-4.27431889	-0.228152
C	 0.5761407991	-0.4080457924	-3.7200225538	-0.163527
C	 0.6697554636	-0.3756315672	 1.2593997611	 0.288483
N	 1.197373433	-0.795299007	 2.1975946183	-0.318643
H	 1.0446504864	 1.9055712743	 0.1488155077	 0.235426
H	-0.1749677279	 1.8765103789	-0.9293626419	 0.240776
H	-1.0213765182	-0.1602353151	 0.0792749912	 0.134028
H	 1.7195849212	-0.2584912815	-1.2685517552	 0.112927
H	 0.626679879	-1.6469341165	-1.0894698146	 0.095191
H	-1.3797728705	-1.7598901133	-2.4635919744	 0.092899
H	-2.1928252192	-0.16998188	-2.4799348004	 0.109275
H	-1.0312743337	-1.465589193	-4.9120317284	 0.11239
H	-1.2431668832	 0.2966883605	-4.7617181172	 0.11834
H	 1.2000457059	 0.3832671632	-4.1477908269	 0.107029
H	 1.1475122945	-1.349532334	-3.7194452601	 0.093584
66.7136	72.6034	102.5861	167.1751	203.6938	257.112	294.4756	328.0893	376.6202	431.5673	543.4122	579.9609	690.1912	776.6065	843.0613	859.7465	914.8221	928.1202	938.9718	942.4278	997.3192	1036.0293	1095.9651	1128.699	1137.892	1161.3685	1201.3102	1216.12	1223.1108	1234.0813	1268.0187	1279.447	1307.2383	1320.0837	1348.2599	1381.8459	1419.9862	1482.052	1488.9558	1504.4972	1533.0165	1662.0254	2363.4405	2928.5221	2969.6646	2982.7883	3014.8353	3060.8545	3064.8751	3066.0582	3091.2644	3147.6922	3468.9749	3550.4552
NC(CN1CCC1)C#N	N[C@@H](CN1CCC1)C#N	
InChI=1S/C6H11N3/c7-4-6(8)5-9-2-1-3-9/h6H,1-3,5,8H2	InChI=1S/C6H11N3/c7-4-6(8)5-9-2-1-3-9/h6H,1-3,5,8H2/t6-/m1/s1
