23
gdb 93575	4.16066	0.89539	0.8158	0.3686	94.69	-0.2133	0.032	0.2453	1525.3877	0.206878	-351.166533	-351.157481	-351.156537	-351.200511	35.076	
C	-0.2426801875	 1.5384083273	 0.0207651454	-0.394191
C	 0.0022107923	 0.0255602717	-0.0021640055	 0.00529
C	 0.8619484512	-0.4533309435	-1.2013300882	-0.21887
C	 1.6962333956	-1.6402511389	-0.6676115725	-0.323051
C	 1.7168173824	-1.4029134501	 0.8334641099	 0.364318
C	 0.7861488436	-0.5055348871	 1.1764114975	-0.202958
C	 2.6074000077	-2.1219027597	 1.7645475409	-0.093266
C	 3.0731185455	-3.5407500439	 1.4886812228	-0.270965
C	 4.0596875744	-2.411827166	 1.4233016885	-0.270884
H	 0.705584676	 2.0855285872	 0.0668864001	 0.112224
H	-0.7782420009	 1.8653584762	-0.877333935	 0.109095
H	-0.841548805	 1.8320994719	 0.8896863757	 0.108904
H	-0.9821193629	-0.4698347048	-0.0325889039	 0.071242
H	 0.2638015503	-0.7110376808	-2.0798617738	 0.09069
H	 1.5366916976	 0.3590638159	-1.4958239157	 0.097797
H	 1.2155956273	-2.6036320961	-0.8909694709	 0.103814
H	 2.6945290447	-1.6854319822	-1.1178210641	 0.098532
H	 0.5725955195	-0.2022629968	 2.1972264498	 0.075283
H	 2.4228135945	-1.8920877395	 2.8099729319	 0.079335
H	 3.1202222847	-4.2264990202	 2.3272784481	 0.112695
H	 2.7662237467	-4.0001739463	 0.5558162681	 0.116086
H	 4.4245301754	-2.1085608101	 0.448456633	 0.115457
H	 4.7876875967	-2.3105540442	 2.2205008681	 0.113422
61.3577	120.3058	137.0373	178.1198	243.3049	266.8894	319.8422	395.9434	490.6	526.2842	571.4491	605.9209	784.2916	807.4103	825.1687	839.8767	850.2863	873.5664	916.3291	929.5167	941.0802	970.8347	997.9149	1025.6434	1057.1976	1072.1196	1076.2458	1105.8329	1127.2696	1135.0055	1183.3706	1199.3411	1208.3677	1222.6815	1250.9132	1286.2656	1312.6749	1322.703	1350.5814	1369.7328	1400.4706	1407.8972	1466.7704	1484.0444	1496.8256	1498.4938	1499.4271	1502.3021	1705.0864	2960.8337	3002.8915	3024.1401	3034.232	3052.751	3089.4247	3093.3727	3096.1777	3135.0522	3138.6372	3146.4855	3171.8385	3213.4982	3229.0131
CC1CCC(=C1)C1CC1	C[C@H]1CCC(=C1)C1CC1	
InChI=1S/C9H14/c1-7-2-3-9(6-7)8-4-5-8/h6-8H,2-5H2,1H3	InChI=1S/C9H14/c1-7-2-3-9(6-7)8-4-5-8/h6-8H,2-5H2,1H3/t7-/m0/s1
