20
gdb 61897	3.50962	0.7088	0.65119	5.691	80.34	-0.2535	-0.0229	0.2306	1738.3037	0.168137	-403.19345	-403.182718	-403.181773	-403.230649	37.012	
C	 0.1113093466	 1.5447047589	 0.0720405126	-0.401812
C	 0.0049496577	 0.006727812	-0.0157747027	-0.093813
C	-1.4459014626	-0.4987156421	 0.0091116991	-0.174843
C	-2.1869784782	-0.1570261959	 1.3173219107	-0.361873
C	-3.5267563337	-0.7395032545	 1.3616981633	 0.261646
N	-4.5830288422	-1.207386097	 1.3860631202	-0.302198
C	 0.6940043968	-0.4402019608	-1.3129969617	 0.385597
C	 2.1813688707	-0.7270519959	-1.2284531132	-0.482436
O	 0.0776592263	-0.5439029038	-2.3480076166	-0.30301
H	 1.1497627234	 1.8792233294	-0.012098026	 0.12543
H	-0.4595081851	 2.0124125107	-0.7363385725	 0.141424
H	-0.2705665385	 1.9179631068	 1.0261977483	 0.125555
H	 0.5580259029	-0.4231912345	 0.8304518079	 0.080069
H	-1.9863097254	-0.0842960086	-0.8458820329	 0.142385
H	-1.451871794	-1.5852003417	-0.1246729483	 0.124245
H	-1.6246821165	-0.5251248146	 2.1844484374	 0.148354
H	-2.2839278832	 0.9264809473	 1.4429380114	 0.154842
H	 2.7117380649	 0.0637157133	-0.6879187709	 0.137073
H	 2.3366767809	-1.6543738719	-0.663286861	 0.146402
H	 2.5983348889	-0.8441642272	-2.2292687251	 0.146964
37.401	69.9459	84.3849	99.2325	140.1609	210.4119	228.2453	256.552	303.2545	315.0428	398.2288	446.3319	539.9155	600.2669	610.0301	757.0329	784.3321	887.6194	945.138	947.8612	957.8485	998.9417	1038.813	1074.0041	1118.8943	1134.3058	1173.1708	1234.8162	1280.6612	1309.8026	1335.3446	1363.7085	1382.3373	1394.6726	1407.9555	1461.748	1469.0924	1475.0287	1491.399	1500.4903	1505.7163	1812.5152	2363.4042	3014.9322	3035.0945	3037.4588	3040.6858	3060.4351	3080.2445	3095.9313	3108.2193	3113.4384	3117.4356	3153.7151
CC(CCC#N)C(C)=O	C[C@@H](CCC#N)C(=O)C	
InChI=1S/C7H11NO/c1-6(7(2)9)4-3-5-8/h6H,3-4H2,1-2H3	InChI=1S/C7H11NO/c1-6(7(2)9)4-3-5-8/h6H,3-4H2,1-2H3/t6-/m0/s1
