13
gdb 16778	3.79382	2.1431	1.48343	2.5689	63.02	-0.2553	-0.0264	0.2289	797.5235	0.097638	-394.777541	-394.771284	-394.77034	-394.807894	24.132	
N	-0.1167444524	 1.2889686644	-0.0576097952	-0.538061
C	-0.0165625224	 0.0267187446	 0.0076713188	 0.408013
N	 1.1159899451	-0.7865025425	 0.1131792078	-0.395376
C	 0.8645017621	-2.1565522056	-0.0086977978	 0.408012
N	 1.6680899788	-3.1338369563	-0.0907593197	-0.53806
C	-0.63163517	-2.2840653068	-0.0596350966	-0.024799
O	-1.2533846017	-1.7501867828	 1.1164347544	-0.238746
C	-1.1824216488	-0.9192156694	-0.0494081547	-0.0248
H	 0.7937097487	 1.7514086783	-0.0164840193	 0.214741
H	 2.0375219673	-0.4159190316	 0.2869990876	 0.253471
H	 2.644708781	-2.8353526194	-0.0508572926	 0.214741
H	-1.0925629756	-3.1512970842	-0.5161167454	 0.130432
H	-2.1185185921	-0.6089810688	-0.4970661474	 0.130432
134.0665	214.8145	333.6732	376.2011	470.5059	478.0432	612.8453	627.3993	722.8281	725.2476	860.4221	862.8874	865.9027	887.8623	923.8032	939.8793	1025.4133	1086.8695	1106.4132	1123.4578	1233.4752	1262.485	1320.8854	1378.1625	1390.0322	1401.2416	1760.6388	1779.6792	3201.3812	3210.9263	3454.3909	3455.1023	3631.1987
N=C1NC(=N)C2OC12	[NH][C]1N[C]([NH])[C@H]2O[C@@H]12	
InChI=1S/C4H5N3O/c5-3-1-2(8-1)4(6)7-3/h1-2H,(H3,5,6,7)	InChI=1S/C4H5N3O/c5-3-1-2(8-1)4(6)7-3/h1-2H,(H3,5,6,7)/t1-,2+
