18
gdb 93439	2.44971	1.53278	1.12362	2.2448	74.8	-0.2534	0.003	0.2563	1113.3178	0.150606	-435.338504	-435.330135	-435.32919	-435.371534	31.74	
C	-0.2105760848	 1.4902084237	 0.0453312209	-0.397544
C	 0.0132912336	-0.0318312783	-0.0108621989	-0.033835
C	 0.8257389097	-0.4587152366	-1.2397365149	-0.194443
N	 2.2084821386	-0.02745838	-1.0838053391	-0.336681
C	 2.9018932147	-0.2391704412	 0.077785535	 0.439812
O	 4.1103755077	-0.1809806968	 0.1792246852	-0.395339
N	 2.0925219175	-0.5203650847	 1.1845396602	-0.389911
C	 0.7013107797	-0.5084493083	 1.2557558972	 0.375652
N	 0.0111539917	-0.8185347099	 2.2799602295	-0.522477
H	 0.7391353122	 2.0322722855	 0.0542027747	 0.134176
H	-0.7815288624	 1.8211871042	-0.8281167352	 0.115915
H	-0.7707804457	 1.7541706586	 0.9449814354	 0.141559
H	-0.95774226	-0.5311054982	-0.0374465468	 0.111402
H	 0.7592386278	-1.5490047568	-1.3732377677	 0.114826
H	 0.4171623658	 0.0090072839	-2.1399101877	 0.117819
H	 2.802155463	 0.0268214025	-1.8964727562	 0.258423
H	 2.6226099394	-0.7062459815	 2.0240911874	 0.255315
H	 0.6019278016	-1.0823937462	 3.0718574211	 0.205331
83.0672	119.9705	200.202	210.5554	261.3735	336.1191	371.9956	475.0225	520.5403	537.6499	559.3497	612.5704	694.5469	726.3369	766.1733	825.9014	877.7314	898.8704	925.8241	989.0294	1046.3323	1075.9276	1127.1907	1142.8591	1158.4559	1247.4253	1308.4133	1319.3467	1348.2629	1392.5969	1404.9604	1419.9452	1429.7835	1468.6881	1495.8262	1501.9828	1520.6093	1731.357	1823.5576	2989.787	3043.6434	3083.3518	3090.998	3115.2718	3134.3272	3441.2269	3613.1143	3640.1729
CC1CNC(=O)NC1=N	C[C@H]1CNC(=O)N[C]1[NH]	
InChI=1S/C5H9N3O/c1-3-2-7-5(9)8-4(3)6/h3H,2H2,1H3,(H3,6,7,8,9)	InChI=1S/C5H9N3O/c1-3-2-7-5(9)8-4(3)6/h3H,2H2,1H3,(H3,6,7,8,9)/t3-/m0/s1
