20
gdb 69552	2.67559	1.5528	1.36209	3.0684	78.88	-0.2225	0.0674	0.2899	1065.6513	0.170404	-403.078123	-403.0698	-403.068856	-403.110386	32.912	
C	-0.112230351	 1.5404851186	 0.0147262964	-0.520284
C	 0.0941102928	 0.0576872914	-0.0029249346	 0.340549
N	-0.7726276016	-0.8659066397	 0.7641857864	-0.3685
C	 0.6902804403	-0.8933111342	 0.9898807951	-0.187592
C	 1.3300066096	-1.7526241522	-0.1326243489	 0.30011
C	 2.8111014847	-2.0249088617	-0.0174386946	-0.497443
C	 0.4011995191	-2.7972407453	-0.8078124249	-0.123116
O	-0.1028319016	-1.8093175414	-1.7453626471	-0.291911
C	 0.7100117507	-0.7812958558	-1.164471156	 0.026837
H	 0.7555940422	 2.0657668221	-0.3985432248	 0.124941
H	-0.9881468334	 1.8240378412	-0.5807537519	 0.135278
H	-0.2676361389	 1.9056482239	 1.0363252669	 0.116489
H	-1.1833044996	-0.3195762945	 1.5215775732	 0.22499
H	 1.1053553093	-0.7095723868	 1.975300076	 0.08581
H	 3.0156852198	-2.7755934553	 0.755599503	 0.120747
H	 3.2211092224	-2.3963689926	-0.9621573429	 0.123389
H	 3.3605472071	-1.1160686867	 0.2535857859	 0.11693
H	 0.9368529762	-3.5980963025	-1.3331573617	 0.088663
H	-0.3956205306	-3.213357544	-0.1863015609	 0.116062
H	 1.2937236925	-0.2117056346	-1.8953325645	 0.06805
142.0125	196.7789	215.8789	239.9659	253.863	288.0543	320.2768	359.7267	493.4124	537.6835	576.6627	678.0866	742.8125	819.8117	842.4538	874.6167	897.609	918.0666	956.4434	979.5587	990.6502	1003.4724	1021.2449	1060.8914	1094.7241	1104.9044	1148.7837	1162.8239	1180.1294	1213.9745	1268.3939	1274.8581	1301.8129	1331.7525	1382.6963	1407.6525	1413.4958	1435.78	1481.3924	1491.0226	1494.3244	1496.9902	1501.0755	3017.0543	3021.0042	3022.3229	3055.2203	3082.2055	3084.9854	3092.1978	3096.5803	3098.9222	3167.6875	3463.9495
CC12NC1C1(C)COC21	C[C@]12N[C@H]1[C@@]1(C)CO[C@@H]21	
InChI=1S/C7H11NO/c1-6-3-9-5(6)7(2)4(6)8-7/h4-5,8H,3H2,1-2H3	InChI=1S/C7H11NO/c1-6-3-9-5(6)7(2)4(6)8-7/h4-5,8H,3H2,1-2H3/t4-,5+,6+,7-/m0/s1
