23
gdb 98185	2.43594	1.11235	0.93112	2.4909	82.48	-0.2386	-0.0084	0.2302	1421.4675	0.200992	-425.447213	-425.435673	-425.434729	-425.484323	41.261	
C	 0.0507359518	 1.4969531483	 0.2026156831	-0.38518
C	-0.1026404778	-0.0129380994	 0.3596159388	-0.270381
C	-1.432042525	-0.5329850693	-0.1518665728	 0.35501
O	-2.2715779425	 0.1957570891	-0.6319301582	-0.331119
C	-1.7208176978	-2.0534257605	-0.0539588691	 0.272544
C	-2.9753629324	-2.235853073	 0.8180499009	-0.42154
C	-1.9551610064	-2.5774385944	-1.4816025531	-0.421484
O	-0.5639778471	-2.6359335163	 0.5456639739	-0.281494
C	-0.5676486826	-4.0315244887	 0.7521981934	-0.24791
H	 1.0216733056	 1.8258487844	 0.5838321472	 0.107071
H	-0.0272452034	 1.7928249442	-0.8468692328	 0.127384
H	-0.7333121829	 2.0302258236	 0.7466030042	 0.127403
H	 0.6916761294	-0.5638735542	-0.1591712838	 0.130431
H	-0.0014019361	-0.330791684	 1.4047733872	 0.130443
H	-3.7783407626	-1.6077107293	 0.4272839909	 0.145047
H	-3.3166246043	-3.2748437443	 0.8157844168	 0.113739
H	-2.7705873996	-1.9397885149	 1.8515583122	 0.120381
H	-1.0323184461	-2.5213087332	-2.0672067974	 0.120383
H	-2.2996081537	-3.6153635582	-1.4753327151	 0.113748
H	-2.7158235111	-1.9640613525	-1.9686425359	 0.145022
H	 0.392283652	-4.2766021066	 1.2137155267	 0.129143
H	-1.3692581138	-4.3556110284	 1.4295079322	 0.110687
H	-0.6541992133	-4.5965472425	-0.1856830494	 0.110672
36.2534	67.7038	90.9712	168.2257	191.6941	196.7275	229.0146	266.3828	272.9253	283.3727	311.1708	341.0928	394.7823	418.9174	472.4069	573.0879	615.4248	723.2523	802.8104	818.5474	924.5559	930.2463	993.7954	1001.6943	1045.3744	1076.1308	1113.6734	1119.9121	1179.4532	1184.8372	1198.7435	1225.381	1264.7769	1274.9778	1367.7762	1381.4747	1400.8308	1415.2734	1436.7037	1479.3532	1480.681	1482.2288	1493.7852	1497.7713	1500.9243	1503.1129	1508.3841	1516.2973	1798.8639	3000.182	3040.3617	3041.1378	3045.9203	3049.3462	3054.2657	3063.1093	3110.6023	3111.904	3115.3783	3119.9866	3123.8779	3136.6826	3140.9391
CCC(=O)C(C)(C)OC	CCC(=O)C(C)(C)OC	
InChI=1S/C7H14O2/c1-5-6(8)7(2,3)9-4/h5H2,1-4H3	InChI=1S/C7H14O2/c1-5-6(8)7(2,3)9-4/h5H2,1-4H3
