16
gdb 34481	3.80076	1.49492	1.24141	0.7679	87.92	-0.2045	-0.0611	0.1434	996.2465	0.124079	-363.461134	-363.454015	-363.45307	-363.492412	28.726	
C	-0.2235268848	-0.9357192813	 0.4521696844	-0.464245
C	-0.140923672	 0.2084531672	 0.0726881116	 0.292904
C	-0.0057794695	 1.5196893679	-0.4190291184	 0.047151
C	-1.0560240716	 2.3821095139	-0.5895393862	-0.062833
C	-1.8033466754	 2.7122788476	 0.7014968835	-0.168472
N	-0.8311107594	 3.8989013223	 0.8123278156	-0.152962
C	 0.590865956	 3.6951018263	 0.208820702	-0.012454
C	 1.248237149	 2.3449476728	-0.1107088772	-0.316315
C	-0.583896015	 3.8356210994	-0.6535414877	-0.071601
H	-0.3059074983	-1.9406534766	 0.7847929887	 0.199493
H	-2.7990886926	 3.1554947056	 0.616933399	 0.122112
H	-1.7713096956	 1.9660070422	 1.4990709297	 0.125935
H	 1.1997943418	 4.5469689967	 0.4963000869	 0.106035
H	 1.7742200608	 1.8722156925	 0.7243662097	 0.132186
H	 1.9781344134	 2.4858550001	-0.9196176806	 0.124351
H	-0.8685520368	 4.6218195134	-1.3432105309	 0.098714
116.7172	155.1826	277.3371	373.6552	417.2289	507.1559	540.9876	562.883	579.6425	611.3023	633.0754	716.1026	740.6646	785.8304	839.6936	869.3254	926.9329	954.5955	986.5648	1016.7351	1039.1475	1065.8755	1074.0905	1122.699	1140.3304	1184.102	1219.7677	1255.2812	1275.9539	1281.9087	1359.9629	1468.0369	1509.0627	1536.6727	2194.3739	3015.3878	3055.5542	3085.7279	3121.8905	3165.8982	3179.622	3501.3761
C#CC1=C2CN3C(C1)C23	C#C[C]1[C]2CN3[C@@H](C1)[C@@H]23	
InChI=1S/C8H7N/c1-2-5-3-7-8-6(5)4-9(7)8/h1,7-8H,3-4H2	InChI=1S/C8H7N/c1-2-5-3-7-8-6(5)4-9(7)8/h1,7-8H,3-4H2/t7-,8+,9?/m0/s1
