15
gdb 44154	3.66841	1.11381	1.02884	3.5791	65.63	-0.2768	-0.008	0.2688	1157.1578	0.112046	-457.725016	-457.717642	-457.716698	-457.757712	27.362	
O	 0.2079562891	 0.032402325	-0.0151787019	-0.316699
C	 0.1350946541	 1.2157327651	-0.013312857	 0.466888
O	-1.0223299558	 1.9925187451	-0.0906870305	-0.261535
C	-0.2131672854	 3.1942082107	-0.201766181	 0.068256
C	 0.5542677769	 3.4142202389	 1.050766719	-0.06218
C	 0.0688122416	 3.0320794332	 2.4105884842	 0.066506
C	 0.8423041941	 3.3689791723	 3.6116437415	-0.184428
O	-0.3118943143	 4.1282057354	 3.2468136383	-0.233386
C	 1.0597431634	 2.4054292972	-0.0056406888	-0.302197
H	-0.5020662218	 3.9156486399	-0.95248612	 0.137685
H	 1.1482583503	 4.3261107608	 1.0441049521	 0.120542
H	-0.6067100722	 2.1799417812	 2.4494739654	 0.125573
H	 0.7399138286	 2.7571761497	 4.5062709086	 0.125695
H	 1.7948418412	 3.8878835366	 3.5103556873	 0.115281
H	 2.0372874704	 2.4683787389	-0.4601252274	 0.134
65.1513	104.9872	178.4854	261.3983	335.2387	440.84	490.3399	597.8316	712.1306	745.4788	804.5844	823.5778	861.7819	870.3989	902.3569	937.3388	953.7	999.2898	1049.8427	1056.758	1068.2957	1094.117	1109.3634	1156.4949	1167.2812	1210.1099	1261.5516	1297.8308	1300.6094	1360.3932	1481.5101	1531.5287	1948.5695	3084.6933	3136.6032	3145.433	3173.5906	3225.9468	3237.2287
O=C1OC2C(C3CO3)C12	O=C1O[C@H]2[C@@H]([C@H]3CO3)[C@@H]12	
InChI=1S/C6H6O3/c7-6-4-3(2-1-8-2)5(4)9-6/h2-5H,1H2	InChI=1S/C6H6O3/c7-6-4-3(2-1-8-2)5(4)9-6/h2-5H,1H2/t2-,3+,4-,5+/m1/s1
