21
gdb 116541	1.75546	1.38073	0.82502	0.9217	85.65	-0.2162	-0.0519	0.1643	1454.2099	0.179882	-420.426203	-420.415172	-420.414227	-420.463219	38.69	
C	 0.5148231047	 0.7510308185	 0.1717618624	-0.365496
C	-0.0642908061	-0.656693051	 0.3644691698	-0.139073
N	-1.4681775428	-0.689616735	 0.027816908	-0.301435
C	-1.9971800804	-1.2563907392	-0.9894184902	 0.229446
N	-3.3526981862	-1.2003196635	-1.1697259172	-0.291417
C	-4.2232486324	-0.674527327	-0.1437805649	-0.305366
C	-1.3616331225	-2.0492482324	-2.1518435674	 0.350158
C	 0.0809710214	-1.8408496365	-2.5556135837	-0.492291
O	-2.0650163148	-2.8190512448	-2.7722564537	-0.308501
H	 1.5453392524	 0.8001365383	 0.5380485945	 0.109198
H	 0.5121835462	 1.041442566	-0.8843970986	 0.111625
H	-0.0866434718	 1.4831309238	 0.7178077404	 0.1283
H	 0.5595927392	-1.3891029323	-0.1632744324	 0.078466
H	 0.0125128199	-0.9117203486	 1.4299181089	 0.103711
H	-3.7132642593	-1.8680784033	-1.8330396215	 0.25822
H	-5.2550017088	-0.7165686546	-0.4996514462	 0.116447
H	-4.1403515701	-1.2341622569	 0.797991998	 0.12335
H	-3.9625962389	 0.3648706353	 0.0755515763	 0.139295
H	 0.7373908124	-2.4659762668	-1.9405054048	 0.161289
H	 0.189713666	-2.1554482188	-3.5952905408	 0.144192
H	 0.3990238518	-0.8037020612	-2.4338922968	 0.149881
33.2231	73.8503	107.6493	129.7814	161.9725	198.9175	216.5419	235.3774	287.6603	318.7274	391.1256	430.1026	436.8944	522.6862	568.6141	607.8263	701.2433	725.3767	806.8662	924.3367	965.4733	1032.5778	1041.4001	1069.7941	1109.9329	1155.2262	1165.7651	1201.5341	1221.3874	1274.3528	1315.917	1368.8779	1385.2939	1400.7893	1453.4221	1458.2821	1471.8135	1475.9049	1486.1202	1499.3213	1507.9048	1524.6208	1535.7265	1711.6173	1777.2465	3009.7508	3011.9222	3031.5007	3035.8098	3047.8681	3081.6989	3101.1318	3117.8538	3119.1825	3128.3308	3152.8544	3632.1307
CCN=C(NC)C(C)=O	CCN=C(NC)C(=O)C	
InChI=1S/C6H12N2O/c1-4-8-6(7-3)5(2)9/h4H2,1-3H3,(H,7,8)	InChI=1S/C6H12N2O/c1-4-8-6(7-3)5(2)9/h4H2,1-3H3,(H,7,8)
