23
gdb 88976	3.23762	0.84432	0.76907	1.7135	86.6	-0.2535	0.0883	0.3419	1611.9715	0.204047	-388.264732	-388.254552	-388.253608	-388.300879	37.359	
C	 0.1379802768	 1.5284092097	-0.2653986399	-0.403622
C	 0.2104148067	 0.0255221304	-0.1012107643	-0.01168
C	 1.5267281911	-0.6735698854	 0.1399297698	-0.278802
C	 0.4754971874	-0.6562158338	 1.2247413768	 0.013927
C	 0.7091638207	 0.1000281454	 2.5199567075	-0.265517
C	 1.58551116	-0.6827068961	 3.4730249511	 0.086012
O	 3.0008176465	-0.6547306391	 3.246259802	-0.262002
C	 2.5000557012	-0.0936450743	 4.4662098858	 0.071902
C	 2.7060569347	 1.3826491617	 4.692971981	-0.418074
H	 0.8926046299	 2.0451752412	 0.3345161725	 0.115936
H	 0.31118007	 1.8087229294	-1.3103756968	 0.116737
H	-0.8440030707	 1.9202859809	 0.0239513106	 0.113118
H	-0.4859391839	-0.509572918	-0.7427186805	 0.080056
H	 1.7359583432	-1.6051061967	-0.374480915	 0.106164
H	 2.4018348905	-0.0516822145	 0.299949817	 0.118515
H	-0.0594205382	-1.5928649049	 1.369095652	 0.077906
H	 1.1686088117	 1.0704143298	 2.3188704676	 0.101742
H	-0.2526358802	 0.2982651856	 3.0140117926	 0.097785
H	 1.2065980647	-1.6837456391	 3.6976809801	 0.080958
H	 2.7185335631	-0.7086454685	 5.3429186832	 0.083103
H	 2.4737098199	 1.9712450166	 3.8035551801	 0.12639
H	 2.0764841066	 1.7328983851	 5.5184195036	 0.120552
H	 3.7490197585	 1.5790102043	 4.963356023	 0.128894
38.9468	58.1729	104.1946	158.1005	185.4318	229.8181	244.3401	297.552	367.1621	413.1846	437.8983	511.3673	529.3346	760.3535	761.6287	813.1516	829.2782	871.4062	881.8738	914.9388	947.8905	976.9514	1006.3745	1043.946	1055.3688	1082.4321	1100.4062	1111.6254	1148.7096	1155.0606	1177.0342	1189.8642	1197.9939	1245.623	1261.8351	1301.5971	1323.3815	1389.5936	1400.5539	1416.7223	1420.3167	1431.4815	1464.2167	1471.3696	1490.6136	1495.4435	1496.9212	1506.1057	1512.8272	3012.3591	3027.8096	3038.3602	3061.9458	3077.6619	3084.6403	3094.0868	3097.4824	3105.5594	3120.029	3130.0701	3134.773	3137.1783	3213.7988
CC1CC1CC1OC1C	C[C@H]1C[C@H]1C[C@H]1O[C@H]1C	
InChI=1S/C8H14O/c1-5-3-7(5)4-8-6(2)9-8/h5-8H,3-4H2,1-2H3	InChI=1S/C8H14O/c1-5-3-7(5)4-8-6(2)9-8/h5-8H,3-4H2,1-2H3/t5-,6-,7-,8+/m0/s1
