19
gdb 71238	2.82013	1.84728	1.66799	2.2426	73.63	-0.2249	0.0755	0.3005	916.8178	0.160734	-422.992228	-422.985236	-422.984292	-423.023067	29.239	
C	 0.0850569701	 1.4936359338	-0.1296382868	-0.484165
C	 0.0317207001	-0.0057391642	 0.0244805531	 0.380492
C	-1.3350690632	-0.6390846913	-0.231385088	-0.109367
O	-1.1925466409	-2.0597356506	-0.25897738	-0.259879
C	-0.1062052262	-2.483669372	 0.5392732781	 0.065889
C	-0.1164473998	-1.7919077039	 1.9319577668	-0.278903
C	 0.7173392505	-0.6729461637	 1.283067172	-0.132909
C	 1.1939399071	-1.6330617708	 0.1787174546	 0.115411
O	 0.9494346487	-0.709313335	-0.8796784868	-0.320716
H	 1.0989911497	 1.8599311302	 0.0518049991	 0.128873
H	-0.2098273882	 1.7876614907	-1.1421273395	 0.131116
H	-0.5924754078	 1.9770269847	 0.582361601	 0.122077
H	-2.0622848182	-0.3300795614	 0.5354610879	 0.090022
H	-1.7177800243	-0.3372020185	-1.2115585291	 0.112943
H	-0.068490469	-3.5717176849	 0.4794290394	 0.081553
H	-1.093138705	-1.5662508948	 2.3680598822	 0.105203
H	 0.4818998354	-2.3442088142	 2.6627458118	 0.105823
H	 1.3702180619	-0.0186437828	 1.8622561769	 0.069447
H	 2.156476519	-2.1444838213	 0.1236545473	 0.07709
190.1351	244.2569	282.4327	293.7464	409.4087	414.5852	463.5749	529.4004	644.139	682.6984	716.8146	784.0323	828.3427	837.3735	867.8667	915.5929	938.0461	968.3274	985.4676	1005.1232	1036.1144	1049.6992	1071.0218	1122.7783	1144.9532	1159.5301	1200.0561	1209.8446	1228.564	1251.4433	1252.864	1278.1433	1304.253	1325.4186	1352.0746	1407.1749	1411.4126	1476.7237	1479.5485	1493.6192	1505.3777	2983.7246	3036.5576	3053.8986	3074.1741	3093.6667	3103.5877	3106.0897	3107.6999	3113.6811	3119.1009
CC12COC3CC1C3O2	C[C@]12CO[C@@H]3C[C@H]1[C@@H]3O2	
InChI=1S/C7H10O2/c1-7-3-8-5-2-4(7)6(5)9-7/h4-6H,2-3H2,1H3	InChI=1S/C7H10O2/c1-7-3-8-5-2-4(7)6(5)9-7/h4-6H,2-3H2,1H3/t4-,5+,6-,7-/m0/s1
