21
gdb 59972	2.97209	0.90049	0.73709	3.7268	76.42	-0.2511	-0.0353	0.2158	1567.7193	0.179191	-461.391097	-461.380521	-461.379577	-461.427141	38.483	
C	 0.0498860188	 1.5357265435	-0.1632764794	-0.385355
C	 0.0314762354	 0.0371718724	 0.1186868869	 0.156957
O	 0.4609953916	-0.1409025745	 1.4545187044	-0.44589
C	-1.3667417771	-0.5688733143	-0.1090678632	-0.238401
C	-1.3652021669	-2.1106003325	-0.063351654	 0.021985
O	-0.7616168622	-2.6003411963	 1.1152402132	-0.437717
C	-2.7830318813	-2.6802674187	-0.1623578759	 0.372259
C	-3.6069551869	-2.3785214773	-1.3902487055	-0.481843
O	-3.2036370184	-3.3505266468	 0.7581319337	-0.319164
H	 1.0389850944	 1.9408096372	 0.0664006125	 0.127073
H	-0.1784889447	 1.7454865469	-1.2128786922	 0.10303
H	-0.6814000998	 2.0517714163	 0.4673610426	 0.118665
H	 0.7310749383	-0.4588887982	-0.5803767024	 0.057042
H	 0.262095272	-1.05901296	 1.6873157452	 0.292608
H	-2.0415211682	-0.178021173	 0.6629841617	 0.110269
H	-1.7472211037	-0.2469107703	-1.0856252633	 0.097152
H	-0.796451665	-2.4816242246	-0.9323389476	 0.096662
H	-1.4691440148	-3.0822686173	 1.5793324196	 0.297497
H	-3.9992091401	-1.3571727211	-1.3243871677	 0.161007
H	-3.0026531493	-2.4348876888	-2.300427988	 0.142676
H	-4.4471881221	-3.0714850026	-1.4484055508	 0.153488
58.1454	71.0571	122.6816	139.0248	155.1732	221.8145	253.5343	310.0422	336.0196	395.4938	436.6517	466.3485	498.5873	499.4855	563.5112	596.4496	641.1225	820.2559	841.4058	902.3101	948.4638	974.0634	991.6653	1016.3953	1068.7134	1118.6832	1128.7476	1169.6928	1203.2216	1248.2826	1263.2376	1305.9598	1338.4204	1363.0835	1383.1746	1388.4975	1401.7338	1435.0585	1458.6532	1464.6462	1473.7288	1477.6442	1487.0741	1499.7231	1793.3377	2918.0446	2971.716	3025.2595	3038.4413	3044.1159	3077.6287	3108.125	3110.2642	3120.764	3154.1572	3630.2911	3726.0462
CC(O)CC(O)C(C)=O	C[C@@H](O)C[C@@H](O)C(=O)C	
InChI=1S/C6H12O3/c1-4(7)3-6(9)5(2)8/h4,6-7,9H,3H2,1-2H3	InChI=1S/C6H12O3/c1-4(7)3-6(9)5(2)8/h4,6-7,9H,3H2,1-2H3/t4-,6-/m1/s1
