12
gdb 129085	3.09289	1.55986	1.16493	3.8752	67.4	-0.2879	-0.1144	0.1736	981.3512	0.077256	-468.765092	-468.757935	-468.756991	-468.797484	25.819	
N	-0.2475678171	 1.2792810973	 0.3988548851	-0.460559
C	-0.0533445638	 0.0977942361	-0.0492110206	 0.224722
C	 1.278747699	-0.4398694163	-0.4070248158	-0.008609
N	 1.6931093123	-1.5555270239	-0.8854729241	-0.050238
O	 0.8372667119	-2.5083355872	-1.3972934356	-0.241341
C	-0.48492423	-2.1918946184	-1.7830087522	 0.446322
O	-0.8072559159	-2.3779692415	-2.9121454648	-0.261839
N	-1.3655623227	-1.850647277	-0.7646585303	-0.224933
C	-1.2108686162	-0.8290785315	-0.0276631382	 0.025449
H	 0.6088720796	 1.8395912719	 0.3656203267	 0.242112
H	 2.112103296	 0.2004458185	-0.1169984191	 0.144424
H	-1.9846721332	-0.587654998	 0.701136329	 0.164487
64.2199	90.6175	259.2648	315.6428	363.7041	421.4012	491.6631	541.9234	625.6488	691.4931	713.6743	788.4431	864.8014	880.1386	908.1715	934.3486	961.1001	999.9997	1087.0424	1131.3805	1359.1015	1377.9002	1395.2023	1637.1086	1671.4934	1742.3294	1877.3815	3135.54	3144.0243	3436.5965
N=C1C=NOC(=O)N=C1	[NH][C]1C=NOC(=O)N=C1	
InChI=1S/C4H3N3O2/c5-3-1-6-4(8)9-7-2-3/h1-2,5H	InChI=1S/C4H3N3O2/c5-3-1-6-4(8)9-7-2-3/h1-2,5H
