22
gdb 57802	4.42894	0.56939	0.55051	1.5181	92.75	-0.2414	0.0517	0.2931	2130.2704	0.192938	-367.1659	-367.155279	-367.154335	-367.204102	37.766	
C	-0.0627010472	 1.4894263826	-0.1841712867	-0.372809
C	-0.0758844391	-0.0447258917	-0.0323813949	-0.121291
C	 0.8120773804	-0.4988063254	 1.1432040717	-0.37354
C	-1.4425149952	-0.548308022	 0.1140000351	 0.125798
C	-2.5702184667	-0.9501661035	 0.2504331688	 0.012797
C	-3.92767571	-1.4694178094	 0.4053970365	-0.388695
C	-4.0112757563	-2.9820593286	 0.2621053636	 0.052636
C	-5.2343584655	-3.6037019562	-0.2994517575	-0.249161
N	-3.9729877662	-3.6076082021	-1.0645334303	-0.306282
H	 0.9606793952	 1.8471540822	-0.3369064097	 0.110947
H	-0.6705738911	 1.8060527176	-1.0358141126	 0.121353
H	-0.4633916855	 1.9686304581	 0.7145597131	 0.122178
H	 0.343919303	-0.4748313348	-0.9526952205	 0.103949
H	 0.8216527807	-1.5883603748	 1.2303529809	 0.12427
H	 1.8407403245	-0.1533498316	 0.9977672002	 0.110475
H	 0.4417257841	-0.0863515046	 2.0869463395	 0.121683
H	-4.3246862773	-1.1808518585	 1.3885197767	 0.131498
H	-4.5923860625	-1.0040003063	-0.3363103639	 0.117388
H	-3.4450877985	-3.5302905245	 1.0119588452	 0.100134
H	-5.564732097	-4.5794041091	 0.0453172275	 0.119006
H	-6.0378846138	-2.9431609625	-0.6175638013	 0.108023
H	-3.999794226	-2.8887125751	-1.7845191112	 0.229642
9.6512	55.4404	74.3624	138.0523	160.7953	226.9993	259.7839	293.0389	327.6136	359.7647	376.9641	481.4605	521.0956	554.5257	715.3485	785.9488	828.8653	881.9189	923.6181	930.7931	936.4176	963.5934	976.569	1050.0373	1066.3937	1120.4769	1125.1006	1148.3119	1150.656	1176.8845	1208.4473	1246.302	1266.5876	1311.6073	1323.1858	1326.6599	1351.4471	1394.7827	1416.9812	1418.9765	1463.4482	1485.785	1488.761	1498.3499	1509.8533	1512.8331	2363.3456	3001.6179	3003.5134	3032.8314	3034.9935	3038.7177	3104.1514	3105.3913	3110.8374	3117.8956	3120.2933	3132.8116	3188.7882	3490.2296
CC(C)C#CCC1CN1	CC(C)C#CC[C@H]1CN1	
InChI=1S/C8H13N/c1-7(2)4-3-5-8-6-9-8/h7-9H,5-6H2,1-2H3	InChI=1S/C8H13N/c1-7(2)4-3-5-8-6-9-8/h7-9H,5-6H2,1-2H3/t8-/m0/s1
