16
gdb 25797	4.02389	1.07405	0.85226	3.6841	78.1	-0.2034	-0.0277	0.1758	1293.4988	0.124125	-437.955184	-437.946494	-437.94555	-437.989287	31.664	
C	 0.071417557	 1.5069962533	 0.0452412061	-0.490819
C	 0.016131086	-0.0109520414	 0.0161729705	 0.294546
O	 1.0337568915	-0.6927810153	 0.012556467	-0.369052
C	-1.290787247	-0.6399943328	-0.005944092	 0.221677
C	-2.5965392813	-0.1722458355	-0.0089540171	-0.214725
C	-3.4651895854	-1.2866754288	-0.0352734929	-0.297351
C	-2.6520610886	-2.4136348034	-0.0472912805	 0.40124
O	-2.9278135203	-3.7336939524	-0.0719733261	-0.423284
N	-1.3607439295	-2.0260188138	-0.0298138129	-0.336012
H	 1.1151123073	 1.8226306401	 0.0427389542	 0.139405
H	-0.4420490014	 1.9319934328	-0.8234642087	 0.136419
H	-0.4251569091	 1.8952532736	 0.9407474629	 0.1372
H	-2.8919031052	 0.8657435269	 0.0062074499	 0.107693
H	-4.5442109005	-1.2818947512	-0.044480202	 0.098401
H	-3.8831522724	-3.8490540376	-0.0821031629	 0.313415
H	-0.5407661812	-2.6119934345	-0.0328697856	 0.281246
40.6884	108.5862	150.5725	157.8227	289.1528	322.6702	334.197	422.6379	533.8663	555.9601	583.2974	611.3122	668.7298	698.0396	699.5615	748.1577	841.1272	930.2888	991.6182	1020.1498	1041.3206	1063.4351	1109.3492	1174.5977	1268.6607	1288.7012	1354.5247	1379.042	1420.9424	1469.4843	1476.4342	1496.3811	1585.1936	1620.2819	1727.705	3041.5657	3104.141	3153.9357	3242.6876	3257.8679	3656.3709	3843.3039
CC(=O)C1=CC=C(O)N1	CC(=O)c1ccc(O)[nH]1	
InChI=1S/C6H7NO2/c1-4(8)5-2-3-6(9)7-5/h2-3,7,9H,1H3	InChI=1S/C6H7NO2/c1-4(8)5-2-3-6(9)7-5/h2-3,7,9H,1H3
