17
gdb 64855	3.49059	0.97857	0.87339	2.7337	80.22	-0.2643	0.0136	0.2779	1329.181	0.135528	-380.834964	-380.826035	-380.825091	-380.868569	33.726	
N	-0.0524541454	 1.5356792219	 0.0438289532	-0.543371
C	 0.0133819899	 0.0776848857	-0.0316652612	 0.130725
C	 0.2404345971	-0.5228795684	 1.3892218937	-0.246588
C	-1.3091189796	-0.6341406733	 1.5498814761	-0.161419
C	-1.4239995959	-0.5259010805	-0.0039511271	-0.246586
C	-1.8522843433	-1.8056610628	 2.2013691675	 0.319672
C	-2.2939714981	-2.790768807	 2.731072023	-0.45143
C	 0.9033244423	-0.4085064482	-1.0938301636	 0.219121
N	 1.6110571818	-0.7605945201	-1.9385988663	-0.339343
H	 0.8756676939	 1.9185009338	 0.2042139245	 0.242597
H	-0.3745467551	 1.9162308669	-0.8422425016	 0.242597
H	 0.7092866105	-1.5066301751	 1.3435524218	 0.134914
H	 0.7759945688	 0.1153816994	 2.0936618585	 0.120456
H	-1.6975802261	 0.2764549021	 2.0120017703	 0.124073
H	-2.213080469	 0.1099546114	-0.4082739231	 0.120457
H	-1.4594817179	-1.5105683648	-0.4717591337	 0.134913
H	-2.6867068839	-3.6579457109	 3.2015742582	 0.199211
64.8434	146.2056	176.9882	191.592	229.6847	301.4521	377.892	386.3617	466.7525	496.3725	539.5403	592.6507	597.1715	626.4392	640.1431	710.4419	840.8318	864.6641	913.6425	945.1517	954.7658	1008.635	1053.0226	1070.6091	1131.0856	1179.481	1242.1968	1254.6094	1266.6519	1280.289	1303.1368	1352.587	1463.9217	1483.9774	1660.5661	2237.0498	2339.7234	3081.4945	3081.6555	3085.6671	3148.5543	3150.9123	3483.6646	3504.0213	3563.009
NC1(CC(C1)C#C)C#N	N[C@]1(C[C@@H](C1)C#C)C#N	
InChI=1S/C7H8N2/c1-2-6-3-7(9,4-6)5-8/h1,6H,3-4,9H2	InChI=1S/C7H8N2/c1-2-6-3-7(9,4-6)5-8/h1,6H,3-4,9H2/t6-,7-
