18
gdb 45880	2.23752	1.81121	1.25726	3.0448	77.86	-0.2335	-0.0144	0.2191	1042.3061	0.149778	-401.948814	-401.941172	-401.940228	-401.981149	29.72	
O	 0.18047082	 1.675685024	-1.6976500994	-0.318017
C	 0.1562277347	 1.6079933637	-0.4890159531	 0.396335
C	-1.140389811	 1.486101034	 0.2952253663	-0.348331
C	-1.4931726572	 2.6885301768	 1.1379534977	-0.062142
C	-0.7080734655	 3.5412367524	 1.7944984238	-0.041585
C	 0.7882557612	 3.6426245841	 1.9268144415	-0.26845
C	 1.7012356643	 2.5455533812	 1.4269881232	-0.005019
N	 1.3784001834	 1.1491247989	 1.6914326691	-0.332873
C	 1.4359348029	 1.6065976981	 0.2877801829	-0.142111
H	-1.9330331736	 1.3056936164	-0.4351423405	 0.118708
H	-1.0617384935	 0.6041919472	 0.9446067013	 0.14305
H	-2.5640725985	 2.8645166116	 1.2104574533	 0.093945
H	-1.2161466375	 4.3363352458	 2.338265456	 0.08924
H	 1.1109291113	 4.5790606803	 1.4459903709	 0.121833
H	 1.0173337495	 3.7889224702	 2.9930375552	 0.118852
H	 2.7509744235	 2.8272394016	 1.5120790995	 0.095524
H	 2.210456779	 0.6139901499	 1.9223955343	 0.240741
H	 2.2947818269	 1.3428567736	-0.3246436918	 0.1003
84.2278	103.8943	245.4544	294.1334	358.0011	397.2113	463.5101	472.6286	525.9594	656.5406	676.169	738.4534	807.7529	831.6106	868.4062	892.0551	952.369	961.8023	980.7377	984.1012	1014.533	1063.1424	1074.5239	1149.6426	1183.6854	1202.8208	1249.457	1264.3165	1275.6869	1289.2689	1345.5777	1400.4613	1409.3833	1421.0218	1448.5056	1462.603	1472.997	1741.7132	1802.457	2993.4623	3013.3471	3027.4053	3100.1619	3102.0417	3127.7232	3145.1025	3155.4636	3513.6175
O=C1CC=CCC2NC12	O=C1CC=CC[C@H]2N[C@@H]12	
InChI=1S/C7H9NO/c9-6-4-2-1-3-5-7(6)8-5/h1-2,5,7-8H,3-4H2	InChI=1S/C7H9NO/c9-6-4-2-1-3-5-7(6)8-5/h1-2,5,7-8H,3-4H2/t5-,7-/m1/s1
