17
gdb 71851	2.83572	1.95428	1.6576	2.5493	71.37	-0.2371	-0.0001	0.237	870.5324	0.137081	-421.780435	-421.773669	-421.772725	-421.811067	28.374	
O	 0.0073195854	 1.4476283116	-0.0150409866	-0.487886
C	-0.0096633799	 0.05797789	-0.0741154912	 0.399587
C	 0.2870471189	-0.7115108162	-1.3643538005	-0.305545
C	-0.5914281714	-1.8646496753	-0.7749456877	-0.147118
C	 0.314373389	-2.7278780573	 0.057613495	-0.047427
C	 0.9192088394	-2.0877449719	 1.063447567	-0.080517
C	 0.3760017681	-0.7041753994	 1.2814676614	-0.037502
O	-1.0644192953	-0.894426806	 1.5561879062	-0.283587
C	-1.2941856781	-0.7396608413	 0.1701057492	 0.069074
H	 0.9180312396	 1.748171916	-0.1109473241	 0.280946
H	-0.2097028473	-0.2074467338	-2.1991445459	 0.108524
H	 1.3179851924	-0.9595548783	-1.6286923865	 0.094551
H	-1.2357205645	-2.4054466331	-1.4660181688	 0.073138
H	 0.4672049635	-3.7755128462	-0.1780658721	 0.099287
H	 1.6295439517	-2.5366498076	 1.7474874746	 0.097576
H	 0.8553360433	-0.1008633867	 2.0536575708	 0.077159
H	-2.3131466347	-0.4510703644	-0.0913384306	 0.08974
178.6039	241.159	322.7975	374.4596	397.3335	441.8674	521.8094	580.4991	633.208	708.5172	721.4532	757.2416	767.0416	862.9906	865.459	902.4488	945.9912	965.6873	981.4305	993.5915	1020.9078	1058.2901	1079.4634	1113.111	1148.8856	1175.1242	1191.6473	1198.1626	1227.1962	1249.4765	1293.8004	1310.6278	1330.8846	1379.866	1398.3186	1482.9511	1662.7707	3051.0196	3106.5868	3109.9002	3111.7819	3125.0459	3179.5926	3205.6405	3796.9869
OC12CC3C=CC1OC23	O[C@@]12C[C@H]3C=C[C@@H]1O[C@@H]23	
InChI=1S/C7H8O2/c8-7-3-4-1-2-5(7)9-6(4)7/h1-2,4-6,8H,3H2	InChI=1S/C7H8O2/c8-7-3-4-1-2-5(7)9-6(4)7/h1-2,4-6,8H,3H2/t4-,5+,6-,7+/m1/s1
