23
gdb 58971	2.25259	1.22891	0.96609	1.4597	89.11	-0.2216	0.0307	0.2522	1365.2476	0.204874	-388.316883	-388.306616	-388.305672	-388.352218	38.044	
C	-0.0581476521	 1.5743916189	-0.0398090841	-0.401233
C	 0.0166588072	 0.0432851153	 0.0278253678	 0.00208
O	 0.7767545747	-0.3802918755	 1.1645880673	-0.431639
C	-1.3454955049	-0.6032085587	 0.0085304394	 0.266109
C	-1.9331766815	-1.2591075506	-1.0012416584	 0.202944
C	-1.402814674	-1.532825718	-2.3747416476	-0.501081
C	-3.2890445185	-1.8026247517	-0.5946450915	-0.286119
C	-3.5890237997	-1.0820821361	 0.7389488954	-0.212448
C	-2.2085141169	-0.6195725833	 1.2586560334	-0.319973
H	 0.948467822	 1.9998588073	 0.0099109441	 0.120962
H	-0.5356389725	 1.9015617745	-0.9684712057	 0.118985
H	-0.6427338657	 1.9784694417	 0.795230808	 0.10845
H	 0.6004241491	-0.310245372	-0.8279525279	 0.085451
H	 0.3644293864	-0.0013417698	 1.9482865331	 0.279152
H	-1.4107477156	-2.6101499594	-2.5857452705	 0.124921
H	-2.0345966466	-1.0647329677	-3.1410273404	 0.12377
H	-0.3821325452	-1.1704852308	-2.5189529175	 0.12439
H	-4.0610112812	-1.6241495158	-1.3534446047	 0.09569
H	-3.2342682142	-2.8947354804	-0.4700956453	 0.101953
H	-4.2156545751	-0.2055517463	 0.5450799805	 0.102305
H	-4.125294027	-1.7102812118	 1.4548883064	 0.095071
H	-1.7924328809	-1.3246076618	 1.9922774816	 0.108883
H	-2.2638072379	 0.3531154619	 1.7643390866	 0.091377
45.3282	118.2986	144.9713	165.2939	191.8195	225.0926	245.4129	272.7752	285.7801	368.5166	405.3594	508.5463	572.2791	593.4493	630.0379	708.1514	844.0666	889.3628	899.029	919.4728	932.6374	990.1268	999.3079	1026.7579	1049.2878	1079.6988	1085.6212	1101.1468	1156.215	1199.9867	1211.4308	1234.3431	1263.9517	1292.009	1323.8312	1327.022	1345.6091	1359.6035	1396.3623	1410.5704	1424.1415	1479.2241	1484.6209	1486.1296	1490.3496	1490.9221	1495.0662	1509.3054	1734.3104	2994.4283	3002.8662	3015.0444	3026.7079	3031.583	3037.7825	3056.5567	3056.7403	3058.1361	3098.4373	3099.7116	3114.3826	3116.402	3807.8033
CC(O)C1=C(C)CCC1	C[C@@H](O)C1=C(C)CCC1	
InChI=1S/C8H14O/c1-6-4-3-5-8(6)7(2)9/h7,9H,3-5H2,1-2H3	InChI=1S/C8H14O/c1-6-4-3-5-8(6)7(2)9/h7,9H,3-5H2,1-2H3/t7-/m1/s1
