20
gdb 52401	4.92924	0.66942	0.62696	3.0926	76.9	-0.2462	0.0321	0.2783	1773.9949	0.170889	-440.292413	-440.282734	-440.28179	-440.329199	33.465	
O	 0.3976465179	 0.974513486	-1.3043726057	-0.328347
C	 0.2079956318	 1.448181754	-0.202658572	 0.150433
N	 1.1175189176	 1.454379044	 0.8046899927	-0.268749
C	 2.4557293092	 0.902033822	 0.6483528166	-0.165034
C	 3.4330890409	 1.8609354821	-0.0464188154	-0.204082
C	 4.8319984094	 1.2775680365	-0.1146970063	 0.164673
C	 5.999431529	 2.2091805753	-0.5103787022	-0.300334
C	 6.5810713515	 1.8298932125	 0.865921717	-0.057832
O	 5.403695355	 1.0676615781	 1.2045731617	-0.298963
H	-0.7485287121	 1.9219210551	 0.0974554115	 0.072278
H	 0.8748890303	 1.9166025067	 1.6657385801	 0.2489
H	 2.839128851	 0.6397153534	 1.6376756846	 0.128291
H	 2.3656584551	-0.0179808702	 0.0629547069	 0.13589
H	 3.073010199	 2.0664907741	-1.0609609028	 0.125786
H	 3.4660195802	 2.8129499312	 0.497833699	 0.089799
H	 4.8186804279	 0.331551265	-0.6760217217	 0.078163
H	 6.5821407566	 1.9080012992	-1.3816942763	 0.112994
H	 5.7153076063	 3.2586735901	-0.612698521	 0.110529
H	 7.4785187175	 1.1990589607	 0.8326132872	 0.102144
H	 6.7543460758	 2.652058844	 1.5700399061	 0.103462
30.1118	51.837	80.622	103.0625	143.5392	209.8501	272.8963	361.4733	396.1304	477.3233	522.6826	728.9517	741.8224	799.715	836.1443	887.0652	924.1253	969.3201	981.5282	1010.4444	1030.4759	1034.1448	1083.7673	1107.281	1153.9367	1171.2743	1205.8393	1219.7755	1245.0024	1256.9725	1285.3353	1304.5423	1337.9495	1366.4278	1397.1437	1411.611	1429.0393	1468.1985	1483.887	1491.1811	1529.1907	1532.8082	1802.1456	2930.2203	2990.9646	3015.1706	3029.2938	3055.509	3062.272	3077.5172	3079.5851	3117.5234	3134.1888	3642.5984
O=CNCCC1CCO1	O=CNCC[C@H]1CCO1	
InChI=1S/C6H11NO2/c8-5-7-3-1-6-2-4-9-6/h5-6H,1-4H2,(H,7,8)	InChI=1S/C6H11NO2/c8-5-7-3-1-6-2-4-9-6/h5-6H,1-4H2,(H,7,8)/t6-/m0/s1
