19
gdb 45996	4.63379	0.92829	0.83179	4.6294	87.08	-0.2275	-0.0351	0.1924	1394.867	0.160273	-385.92431	-385.916044	-385.915099	-385.958042	31.183	
O	-0.0337565008	-0.0063275492	-0.3373191921	-0.344248
C	-0.0076663426	 1.1905916766	-0.1554795116	 0.398046
C	-1.2327189913	 2.0807530353	 0.1199087923	-0.337638
C	-0.6726487932	 3.5061525682	 0.2768306449	-0.332697
C	 0.8272360578	 3.3551746546	 0.0846559551	 0.370149
C	 1.1684599942	 2.0735872608	-0.1516276952	-0.324426
C	 1.7655662883	 4.4833164248	 0.1531377066	-0.091769
C	 1.3847572771	 5.8700475108	-0.350709241	-0.267202
C	 1.5500996925	 5.6434061189	 1.117314354	-0.267206
H	-1.9412424042	 1.9885502404	-0.7081903363	 0.131071
H	-1.7469755329	 1.7224063702	 1.0162237328	 0.131072
H	-1.0927279409	 4.2001506063	-0.4605248643	 0.120054
H	-0.8990291372	 3.9346520221	 1.2601537306	 0.120049
H	 2.1716290637	 1.7025372811	-0.3219104412	 0.102372
H	 2.8017770342	 4.2034489279	-0.0067609366	 0.094316
H	 2.1497094265	 6.4223409179	-0.884227345	 0.125379
H	 0.3820769921	 6.0091523007	-0.7374996293	 0.12365
H	 0.660702547	 5.6273163727	 1.7362168976	 0.123649
H	 2.4307834098	 6.0370095299	 1.611586909	 0.125378
49.4109	87.2631	142.957	185.1591	279.1154	346.9455	497.5786	538.7821	564.7698	571.6569	633.5089	786.772	825.1777	834.8919	835.7879	847.2673	859.8096	928.5819	931.5837	1000.7991	1014.5501	1041.0375	1058.6871	1081.1417	1134.1146	1158.2094	1175.5888	1184.6762	1202.066	1231.4077	1238.2894	1261.2172	1305.6717	1360.5133	1392.9555	1454.1052	1470.5803	1482.6991	1502.21	1657.1132	1806.3895	3034.2559	3060.7305	3067.0012	3107.4914	3142.5792	3146.0402	3160.1704	3212.1176	3222.4117	3237.8154
O=C1CCC(=C1)C1CC1	O=C1CCC(=C1)C1CC1	
InChI=1S/C8H10O/c9-8-4-3-7(5-8)6-1-2-6/h5-6H,1-4H2	InChI=1S/C8H10O/c9-8-4-3-7(5-8)6-1-2-6/h5-6H,1-4H2
