16
gdb 97521	4.95929	0.61419	0.55023	6.8371	80.17	-0.2559	-0.0547	0.2012	1948.2165	0.121993	-437.908711	-437.89866	-437.897716	-437.946756	33.257	
C	-0.0162140899	 1.615244503	 0.0279497363	-0.372354
C	 0.0161862319	 0.0763180157	 0.0209186903	-0.325667
C	 0.70467275	-0.4959468677	 1.1695489918	 0.193995
C	 1.2757802647	-0.9669296065	 2.1224869889	-0.100453
C	 1.9505930405	-1.5901728533	 3.2459053164	 0.288375
O	 2.060739662	-2.7814901801	 3.3876375768	-0.293484
N	 2.4578972044	-0.6346309533	 4.1448897186	-0.342469
C	 3.1586956698	-0.8580591313	 5.3271164669	 0.164809
O	 3.4575234224	-1.9209310995	 5.794200986	-0.251589
H	 0.9965982925	 2.0266208022	 0.0201542863	 0.132411
H	-0.5440762604	 1.9842864051	-0.8555063774	 0.127163
H	-0.5298523565	 1.9903829743	 0.9170649107	 0.132427
H	-1.0066491686	-0.3202740756	-0.0073649425	 0.148699
H	 0.5026911037	-0.2844433686	-0.8942007455	 0.148696
H	 2.2914931738	 0.3308038031	 3.898999798	 0.263045
H	 3.4150546195	 0.1123855624	 5.7998531383	 0.086395
11.2612	51.3167	60.7052	137.8387	171.4054	217.2909	226.0254	244.9771	351.381	392.4101	519.1847	573.8365	623.8683	643.8053	763.9761	780.0518	900.4984	939.7504	1016.5647	1027.8858	1082.4944	1099.7744	1150.176	1208.8002	1282.4638	1346.9157	1411.0375	1445.6754	1464.0413	1496.1651	1496.4574	1504.648	1789.6938	1861.2427	2341.0711	2921.449	3026.9837	3048.5728	3056.3461	3124.6922	3126.3104	3609.5646
CCC#CC(=O)NC=O	CCC#CC(=O)NC=O	
InChI=1S/C6H7NO2/c1-2-3-4-6(9)7-5-8/h5H,2H2,1H3,(H,7,8,9)	InChI=1S/C6H7NO2/c1-2-3-4-6(9)7-5-8/h5H,2H2,1H3,(H,7,8,9)
