21
gdb 38246	3.09497	1.72884	1.417	1.4414	81.37	-0.2414	0.0879	0.3293	991.3514	0.186691	-387.080482	-387.073551	-387.072607	-387.111715	29.096	
C	-0.0551440416	 1.5937278204	-0.0642689224	-0.255797
C	 1.4801494101	 1.3827764648	-0.0260870236	-0.019161
C	 1.1790683127	 0.1804691815	 0.9422663822	-0.321713
C	-0.0650471342	 0.0394622037	 0.0268464004	 0.367959
C	-1.346719112	-0.7659708259	 0.0088433011	-0.403301
C	-1.6419685544	-0.8119292827	-1.5318453681	-0.070486
O	-0.4830255433	-0.3159964687	-2.2289873588	-0.287664
C	 0.5872928528	-0.3570149025	-1.3020476413	 0.140413
C	 1.7048199563	 0.7081698433	-1.4053028598	-0.263027
H	-0.4472591333	 2.0552296067	 0.845841752	 0.089252
H	-0.4903853339	 2.0599800462	-0.951666157	 0.100721
H	 2.1640544179	 2.1812580852	 0.2634827563	 0.059903
H	 1.8873000607	-0.6539190062	 0.9758638406	 0.089639
H	 0.9501663587	 0.5205014404	 1.9549593232	 0.098772
H	-1.191389416	-1.7769461795	 0.3996600553	 0.105617
H	-2.1665175348	-0.3117616655	 0.5709572972	 0.103335
H	-1.8625501032	-1.8369641408	-1.8578807832	 0.097233
H	-2.4894792387	-0.1786799116	-1.8123800778	 0.107746
H	 1.004698682	-1.376493746	-1.2572477044	 0.054829
H	 1.5382229573	 1.4007734736	-2.2347157395	 0.111831
H	 2.6964863169	 0.2622490234	-1.5196947525	 0.093897
91.1214	204.5045	295.3193	369.4556	414.8156	488.1748	539.3578	628.15	669.5568	736.5204	807.334	828.8911	845.2112	861.09	891.4321	910.4243	942.6555	959.115	965.587	974.2349	1012.3089	1031.2263	1078.0102	1083.2863	1094.5825	1132.5592	1159.0139	1179.5307	1191.4834	1201.3515	1225.913	1247.6642	1258.0803	1260.7686	1288.6001	1309.638	1322.2112	1349.8969	1372.3499	1404.2068	1484.4557	1490.8207	1493.1692	1522.746	1526.2233	2956.4318	3012.5719	3046.8898	3050.9969	3057.2656	3061.2386	3068.5376	3102.6478	3107.6342	3108.8245	3113.277	3118.386
C1C2CC11CCOC1C2	C1[C@H]2C[C@]31CCO[C@H]3C2	
InChI=1S/C8H12O/c1-2-9-7-3-6-4-8(1,7)5-6/h6-7H,1-5H2	InChI=1S/C8H12O/c1-2-9-7-3-6-4-8(1,7)5-6/h6-7H,1-5H2/t6-,7-,8+/m0/s1
