17
gdb 58072	1.7765	1.71861	1.13145	5.6064	72.83	-0.2744	-0.0176	0.2567	1133.1125	0.135252	-414.190837	-414.180879	-414.179935	-414.225126	36.221	
C	-0.1695260954	 1.512623543	 0.047325276	-0.42724
C	 0.0297891869	 0.0002501422	-0.0076646007	 0.02086
N	 0.8668720953	-0.3536818243	-1.148889703	-0.530422
C	 0.7902031106	-0.5340143357	 1.2794111126	-0.052857
N	 2.1566599132	-0.0325953416	 1.4258874514	-0.517316
C	 0.0083643812	-0.1993007015	 2.4836014439	 0.311062
N	-0.6222333291	 0.1098608546	 3.3998748852	-0.326483
C	 0.8463395886	-2.0117596343	 1.1562286493	 0.336215
N	 0.8727365614	-3.1526228723	 0.9800078946	-0.334158
H	 0.792387485	 2.0336413304	 0.0415362754	 0.126429
H	-0.7358989037	 1.8413619559	-0.8293087123	 0.129873
H	-0.7298785974	 1.8088407245	 0.9369386558	 0.156009
H	-0.9551777268	-0.4902913339	-0.0142253345	 0.100197
H	 0.762368651	-1.3330066073	-1.3943763489	 0.256238
H	 0.6139794982	 0.1961601686	-1.9614995554	 0.242304
H	 2.5605728887	-0.0186377373	 0.49013313	 0.258678
H	 2.1353362823	 0.9197087189	 1.7759375505	 0.250611
96.5525	133.0174	141.3384	179.1657	226.0535	251.7967	274.8728	277.7008	327.4734	357.1631	394.5954	503.7298	520.668	534.0764	576.9225	594.0202	705.0424	834.8251	863.1062	928.0325	967.1465	1020.7068	1025.6382	1050.5446	1144.2487	1182.3062	1272.9066	1339.5967	1363.731	1385.4263	1415.1341	1496.3274	1501.2487	1649.378	1656.5762	2362.5064	2369.678	2987.2847	3046.9751	3113.9626	3135.6095	3471.0842	3514.508	3578.202	3597.9858
CC(N)C(N)(C#N)C#N	C[C@@H](N)C(N)(C#N)C#N	
InChI=1S/C5H8N4/c1-4(8)5(9,2-6)3-7/h4H,8-9H2,1H3	InChI=1S/C5H8N4/c1-4(8)5(9,2-6)3-7/h4H,8-9H2,1H3/t4-/m1/s1
