14
gdb 15861	2.92631	1.9866	1.31941	2.7727	58.45	-0.2715	-0.0468	0.2247	893.9014	0.1054	-419.712315	-419.704628	-419.703683	-419.744871	26.808	
C	-0.3948839611	 1.4289020928	 0.1486903958	-0.390184
C	 0.069779847	-0.0074713895	 0.0854247862	 0.127511
O	 1.2742996696	-0.1475865061	-0.7676043178	-0.247986
C	 2.0222608846	-0.6584295966	 0.2491927439	 0.444654
O	 3.1665545965	-0.9764991736	 0.2467636095	-0.316219
C	 0.8579401112	-0.636027379	 1.2572828518	-0.310488
C	 1.0966841288	 0.0765888061	 2.5673624129	 0.142734
O	 0.4170390532	 0.9685371338	 3.0028987965	-0.23507
H	 0.4000455654	 2.0910977167	 0.4970925989	 0.13879
H	-0.710148942	 1.7519267874	-0.8476940526	 0.132136
H	-1.2384989943	 1.5217723691	 0.8363416704	 0.145235
H	-0.7094922631	-0.6645807827	-0.3085840069	 0.108545
H	 0.5581550236	-1.6643677722	 1.4936081849	 0.146723
H	 1.9755913907	-0.3144784264	 3.1236983965	 0.113619
71.928	116.6648	177.4411	218.9597	228.0077	334.4544	405.0116	483.589	640.026	684.2712	754.1022	767.0211	860.2999	899.9785	1003.2111	1039.4358	1048.1076	1088.0366	1137.5825	1171.0012	1176.3328	1314.5693	1318.1372	1383.1224	1419.6996	1422.5589	1475.0992	1492.0007	1826.3718	1935.0672	2907.5488	3052.669	3055.0813	3082.761	3130.7025	3144.5596
CC1OC(=O)C1C=O	C[C@H]1OC(=O)[C@H]1C=O	
InChI=1S/C5H6O3/c1-3-4(2-6)5(7)8-3/h2-4H,1H3	InChI=1S/C5H6O3/c1-3-4(2-6)5(7)8-3/h2-4H,1H3/t3-,4+/m1/s1
