17
gdb 133071	3.60458	1.08023	0.83713	2.7282	81.13	-0.1978	0.0062	0.2041	1316.7998	0.136846	-426.038208	-426.030118	-426.029174	-426.07084	31.	
C	 0.0127545661	 1.4459623752	-0.0850535955	-0.322899
N	-0.1179603313	 0.0164644232	 0.1002726827	-0.371312
C	 0.572635106	-0.6643153941	 1.087925358	 0.40019
C	 1.1978984488	-0.0000185999	 2.1570410381	-0.22366
C	 1.8442420615	-0.7289266615	 3.1509388488	-0.074262
C	 1.9004067004	-2.118468309	 3.1182417127	-0.280398
C	 1.2820022114	-2.7566475117	 2.0501640933	 0.3315
F	 1.3194182441	-4.0946444268	 1.9833042519	-0.08893
C	 0.6271082486	-2.069019226	 1.0462595839	-0.368563
H	 1.054740276	 1.7752958787	-0.2197909444	 0.119022
H	-0.5582379182	 1.7384817455	-0.9689176872	 0.125846
H	-0.4041901431	 1.9891761702	 0.7704308395	 0.136019
H	-0.2754168459	-0.5114879287	-0.7425401339	 0.238871
H	 1.17868959	 1.0805363164	 2.2140031766	 0.088835
H	 2.3197632646	-0.1969571311	 3.9686117011	 0.097956
H	 2.4021910401	-2.6990861959	 3.8814394538	 0.101238
H	 0.1582308612	-2.6244014344	 0.2411348008	 0.090548
93.1726	178.7612	219.2002	247.1502	251.0045	338.9923	413.6531	463.7025	474.0604	520.9145	612.6017	630.9806	702.2973	753.6816	775.6428	845.7202	852.3095	946.8247	950.0338	1006.1179	1083.4638	1100.3684	1152.4328	1166.8323	1189.4008	1221.6591	1297.6177	1344.7063	1364.6728	1439.0269	1467.9194	1483.0915	1521.5977	1533.009	1547.4801	1628.2209	1659.898	2983.3606	3058.4225	3121.0055	3178.826	3186.609	3211.5507	3217.8646	3632.6409
CNC1=CC=CC(F)=C1	CNc1cccc(F)c1	
InChI=1S/C7H8FN/c1-9-7-4-2-3-6(8)5-7/h2-5,9H,1H3	InChI=1S/C7H8FN/c1-9-7-4-2-3-6(8)5-7/h2-5,9H,1H3
