19
gdb 36402	5.13496	0.8197	0.76873	4.4158	81.73	-0.2351	0.0218	0.2569	1489.3783	0.159274	-382.037055	-382.028407	-382.027463	-382.070993	32.125	
N	 0.0363205261	-1.1730947711	-0.2057527656	-0.304545
C	 0.0207450202	-0.0211918336	-0.1231784915	 0.279054
C	-0.002420006	 1.4406172785	 0.0087157875	-0.290308
N	 1.3355994045	 1.9889105129	 0.0473533684	-0.078299
C	 2.1670580822	 1.744642524	 1.2527924436	-0.244899
C	 2.6149163602	 3.2060870447	 1.1780724029	 0.359456
C	 3.160711158	 4.0895847323	 2.2519767027	-0.328589
C	 4.0181576255	 3.7142447311	 1.0613521158	-0.31369
C	 1.4610892591	 3.4579183608	 0.2051083294	-0.243917
H	-0.5330304921	 1.8556482332	-0.8566454652	 0.155269
H	-0.6055763152	 1.6894665932	 0.9048168482	 0.123917
H	 1.5712885354	 1.5242374924	 2.1538809016	 0.093744
H	 2.9240335396	 0.9643211038	 1.1264241302	 0.121117
H	 2.7899207041	 5.1078872403	 2.3149541364	 0.115844
H	 3.3939729707	 3.6421893192	 3.2130413225	 0.117954
H	 4.8300053622	 3.0108949557	 1.2166237248	 0.119799
H	 4.2251564148	 4.4785165294	 0.3189539144	 0.117368
H	 1.6764959158	 3.9943616319	-0.7257580294	 0.111647
H	 0.586397995	 3.9213243615	 0.6920124332	 0.08908
59.0641	75.487	142.1264	247.6398	279.1237	303.0585	381.096	390.014	393.9028	455.7378	591.7116	763.4095	773.5878	859.4092	874.1622	908.1738	930.1293	940.1186	983.1964	1005.95	1024.7955	1058.1602	1080.8405	1099.0537	1118.5332	1134.3931	1184.1067	1187.861	1205.1019	1248.1529	1262.1635	1301.135	1325.0698	1386.2938	1415.4062	1465.7399	1471.4948	1501.2102	1512.1436	1524.4913	2366.9162	2906.7014	2959.1194	2970.4046	3053.3887	3055.7792	3070.1016	3123.2911	3127.0348	3201.1966	3216.0859
N#CCN1CC2(CC2)C1	N#CCN1CC2(CC2)C1	
InChI=1S/C7H10N2/c8-3-4-9-5-7(6-9)1-2-7/h1-2,4-6H2	InChI=1S/C7H10N2/c8-3-4-9-5-7(6-9)1-2-7/h1-2,4-6H2
