12
gdb 21927	5.47041	1.59002	1.24148	5.7701	57.67	-0.254	-0.0883	0.1657	884.4502	0.082908	-410.773099	-410.766052	-410.765107	-410.805077	24.237	
O	-0.0062879951	 1.4312738288	 0.0073779438	-0.415048
C	 0.0107905124	 0.0209153604	 0.0023234653	-0.144067
C	-1.4096468137	-0.4738784835	 0.01224597	 0.335017
C	-2.521341244	 0.3661010642	 0.0239327559	-0.002313
N	-3.7431559023	-0.1469066383	 0.0320695225	-0.164872
N	-3.875877947	-1.4717950305	 0.0288573427	-0.057847
N	-2.8287744242	-2.2665998832	 0.0178832051	-0.063633
N	-1.5891179919	-1.7897702166	 0.0094739076	-0.227535
H	 0.8998604324	 1.7513185202	 0.0011325957	 0.305162
H	 0.5108181748	-0.39218419	-0.8872852655	 0.134964
H	 0.5253303136	-0.3983688737	 0.8806848412	 0.134967
H	-2.429250175	 1.4456931523	 0.0267095456	 0.165204
55.8638	138.8535	210.7653	216.8761	318.8228	438.7766	439.6176	609.2901	680.0875	830.8281	830.8643	909.9506	948.3453	1043.3494	1064.6504	1091.2265	1110.4365	1204.3676	1212.0749	1242.3319	1312.4371	1356.0946	1453.2748	1495.0573	1532.653	1585.6166	2984.8824	3013.0363	3213.2047	3848.652
OCC1=CN=NN=N1	OCc1cnnnn1	
InChI=1S/C3H4N4O/c8-2-3-1-4-6-7-5-3/h1,8H,2H2	InChI=1S/C3H4N4O/c8-2-3-1-4-6-7-5-3/h1,8H,2H2
