17
gdb 109144	4.06625	1.01982	0.85193	2.7349	70.56	-0.2258	-0.0225	0.2033	1306.8985	0.13658	-455.166979	-455.158286	-455.157342	-455.201452	31.404	
O	 0.7843035675	-0.1046732069	-0.4805497902	-0.413629
C	-0.1923533189	 0.4695002762	 0.3805008981	-0.150995
C	-1.560982746	-0.1764689154	 0.2457818856	 0.310786
N	-2.603824867	 0.534894621	 0.4466078679	-0.309281
C	-3.8780668112	-0.1644331288	 0.4985989758	-0.266843
C	-3.9890013275	-1.4608228544	-0.2923438198	 0.365762
O	-5.0427546886	-1.9193610039	-0.6599498867	-0.302417
C	-2.677773759	-2.1724741243	-0.6228610819	-0.268314
N	-1.5262012569	-1.5255330573	-0.017940399	-0.331828
H	 0.6099380012	 0.2074197888	-1.3746347079	 0.292501
H	 0.1790067421	 0.3031822255	 1.3979244511	 0.137171
H	-0.3102481984	 1.5482114103	 0.2380398961	 0.130378
H	-4.1043083065	-0.4279318895	 1.5460404669	 0.137888
H	-4.6901610208	 0.4960032933	 0.1786474458	 0.136774
H	-2.7597172063	-3.2121061424	-0.2869974785	 0.145151
H	-2.6104965754	-2.1981044058	-1.7214897175	 0.135958
H	-0.6160051782	-1.8555442963	-0.3096516056	 0.250938
37.358	85.6456	110.5841	188.1804	263.8935	358.3748	387.6133	425.2713	483.0381	501.7027	551.9205	630.6157	662.9192	727.728	764.0481	824.5302	955.6553	965.8925	1028.9534	1047.1835	1094.5044	1144.1179	1187.3528	1196.4419	1221.8325	1256.7509	1284.7475	1298.1589	1349.5249	1369.3624	1402.5565	1445.8219	1469.4807	1483.1196	1543.922	1738.9248	1824.8451	2972.4033	2990.4951	3045.8995	3063.549	3076.3313	3095.1364	3580.9918	3814.2908
OCC1=NCC(=O)CN1	OCC1=NCC(=O)CN1	
InChI=1S/C5H8N2O2/c8-3-5-6-1-4(9)2-7-5/h8H,1-3H2,(H,6,7)	InChI=1S/C5H8N2O2/c8-3-5-6-1-4(9)2-7-5/h8H,1-3H2,(H,6,7)
