21
gdb 100821	3.97206	0.68984	0.6693	1.3105	75.76	-0.2523	-0.0264	0.2259	1708.0639	0.179089	-461.365231	-461.354298	-461.353354	-461.402509	38.469	
C	-0.0562160036	 1.6836856735	 0.0115744694	-0.420926
C	 0.0002515561	 0.1463948858	 0.0239596563	-0.013115
C	 0.7288947557	-0.3854690394	-1.2309572747	-0.271913
C	-0.0343112324	-0.0865770974	-2.5002673838	 0.15485
O	 0.3891013213	 0.5379714425	-3.4382803114	-0.238908
C	 0.6447668893	-0.4368763214	 1.2967212507	 0.095789
O	 2.0141030238	-0.0485241239	 1.4555697307	-0.445031
C	-0.1089068074	-0.1463891186	 2.5980530234	-0.07874
O	 0.5293613978	-0.7760540779	 3.6884579532	-0.422078
H	 0.9486958456	 2.1212806501	 0.0475399604	 0.118084
H	-0.5178669916	 2.0492321536	-0.9101870124	 0.139165
H	-0.6334791282	 2.081348364	 0.850160254	 0.127876
H	-1.0316782725	-0.2338659913	 0.0024383058	 0.08488
H	 1.7368973069	 0.0295346624	-1.3073841612	 0.12831
H	 0.8157021375	-1.4788145853	-1.1552614799	 0.117508
H	-1.0723153788	-0.4995824454	-2.5122836341	 0.069198
H	 0.692001285	-1.5274148616	 1.1911441237	 0.096932
H	 2.0447670503	 0.9131630558	 1.5218155887	 0.28611
H	-0.182706646	 0.9437586293	 2.7572367794	 0.078372
H	-1.130719461	-0.5385640973	 2.5431006606	 0.107766
H	 1.475262952	-0.6410723673	 3.5456699609	 0.28587
43.4699	55.2551	64.3365	126.4626	154.1767	226.451	253.335	284.0602	300.3607	321.3742	347.6396	428.1821	495.5818	517.2921	529.2596	650.3062	785.479	839.0257	896.8421	932.6461	983.8258	1000.0079	1033.3772	1055.9152	1085.6381	1111.4913	1142.8218	1157.287	1202.9545	1229.7523	1260.3652	1291.0255	1310.2566	1361.69	1364.7084	1391.478	1418.8169	1428.4575	1429.709	1442.0695	1464.0209	1499.0367	1505.0258	1510.2491	1835.353	2837.7965	2950.5798	3002.9341	3016.9207	3034.18	3044.801	3066.3567	3097.9324	3111.5326	3120.1616	3768.0287	3792.8746
CC(CC=O)C(O)CO	C[C@@H](CC=O)[C@@H](O)CO	
InChI=1S/C6H12O3/c1-5(2-3-7)6(9)4-8/h3,5-6,8-9H,2,4H2,1H3	InChI=1S/C6H12O3/c1-5(2-3-7)6(9)4-8/h3,5-6,8-9H,2,4H2,1H3/t5-,6-/m0/s1
