16
gdb 32388	6.61985	0.8641	0.76806	2.5618	85.81	-0.1926	0.0001	0.1927	1430.6339	0.123676	-400.742162	-400.733471	-400.732527	-400.77542	32.398	
C	-0.0291646582	 1.4106309893	-0.0047169699	-0.244984
O	-0.0102770406	-0.0027063106	-0.0227231877	-0.266998
C	 0.6174975173	-0.5909134098	 1.0260577721	 0.393968
C	 1.242833755	-0.0009931594	 2.1127973365	-0.232509
N	 1.7254584362	-1.0186828692	 2.8988253892	-0.331587
C	 1.4222865876	-2.2387573717	 2.338728544	 0.226921
C	 0.727215413	-1.9950253036	 1.1629124933	-0.413237
C	 1.8044027427	-3.4503504455	 2.9467188922	 0.263158
C	 2.1386407616	-4.4789150064	 3.4796225604	-0.450651
H	 0.9890548242	 1.8238667274	-0.0204855446	 0.116991
H	-0.562234613	 1.7296541171	-0.9016199337	 0.133311
H	-0.5517113307	 1.7917625313	 0.8838064046	 0.116991
H	 1.3815121825	 1.030488803	 2.3857880454	 0.121679
H	 2.2287550226	-0.9034724224	 3.7605496528	 0.266793
H	 0.3439723508	-2.7382955445	 0.4833041377	 0.110715
H	 2.4279022191	-5.3909118949	 3.9400316575	 0.18944
74.8574	134.584	151.9049	211.5606	246.3005	328.8306	397.4899	415.9042	475.5334	517.2319	544.6091	596.6355	629.1568	678.3206	681.148	690.8764	697.4651	810.7988	980.8569	995.1636	1074.6335	1135.0366	1181.327	1186.3117	1214.8535	1264.5001	1331.9348	1432.6563	1448.4928	1468.7614	1483.3177	1508.1867	1535.7744	1621.3445	2224.7784	2992.2474	3045.9809	3134.3209	3271.6106	3281.4427	3501.0592	3689.8694
COC1=CNC(=C1)C#C	COc1c[nH]c(c1)C#C	
InChI=1S/C7H7NO/c1-3-6-4-7(9-2)5-8-6/h1,4-5,8H,2H3	InChI=1S/C7H7NO/c1-3-6-4-7(9-2)5-8-6/h1,4-5,8H,2H3
