16
gdb 54898	3.77263	1.13582	0.87841	5.2861	79.96	-0.2019	-0.0334	0.1685	1265.021	0.123768	-437.943863	-437.935176	-437.934232	-437.977498	31.757	
C	-0.1854040539	 1.5008932503	 0.0245202892	-0.486171
C	 0.017916904	-0.0052951693	-0.0055694655	 0.282139
O	 1.1284382395	-0.5095835265	-0.0466068325	-0.332125
C	-1.1717593475	-0.8406736289	 0.0169185042	 0.240914
O	-2.425052402	-0.2373089781	 0.0603745459	-0.205169
C	-3.3383632523	-1.2214688566	 0.0707402464	 0.380465
N	-4.6502505365	-0.8227877295	 0.1815143559	-0.594602
H	-4.8321594327	 0.1052433282	-0.174419094	 0.264839
H	-5.3220773814	-1.501119253	-0.1448084369	 0.265503
C	-2.7355758471	-2.4576453204	 0.0350560097	-0.256196
C	-1.3415712533	-2.1982873193	 0.0018547357	-0.213666
H	 0.7904859984	 1.986765961	 0.0064144337	 0.136401
H	-0.7797053207	 1.8295988464	-0.8346128109	 0.134086
H	-0.7338889829	 1.8007884793	 0.9235925902	 0.137709
H	-3.233695478	-3.4135940853	 0.0355192555	 0.108413
H	-0.5369027535	-2.9156194083	-0.0322519665	 0.13746
81.0858	108.3484	146.4806	155.6219	252.251	310.4184	367.2676	378.5036	514.3263	549.8178	586.6264	628.1503	661.2923	699.9292	725.6354	764.2182	891.8974	923.7737	972.7164	1009.3004	1033.3513	1039.8639	1081.8128	1121.0435	1232.1237	1312.3569	1330.4269	1381.2042	1455.6404	1463.9046	1474.1533	1560.6821	1624.7994	1660.3589	1748.8503	3041.8646	3103.49	3155.5504	3260.4371	3274.5763	3568.9128	3674.7664
CC(=O)[C-]1OC(=[NH2+])C=C1	CC(=O)c1oc(N)cc1	
InChI=1S/C6H6NO2/c1-4(8)5-2-3-6(7)9-5/h2-3,7H,1H3/q-1/p+1	InChI=1S/C6H7NO2/c1-4(8)5-2-3-6(7)9-5/h2-3H,7H2,1H3
