19
gdb 102094	2.05929	1.53673	0.98608	2.772	72.21	-0.2483	-0.0322	0.2162	1232.2784	0.154974	-460.13543	-460.12539	-460.124446	-460.170684	35.482	
C	-0.0862889768	 1.2738666016	 0.3854244169	-0.243142
O	-0.2363017775	-0.098775889	 0.0797238881	-0.244669
C	 0.5364246903	-0.5211701036	-1.0246644192	-0.025762
C	 2.0054694604	-0.6681622057	-0.6077300499	 0.135509
O	 2.9376562301	-0.5668094606	-1.3610793434	-0.248051
C	-0.0021524927	-1.8683076033	-1.5079222743	 0.371517
C	-1.5059218745	-2.0062817539	-1.5302299202	-0.463417
C	 0.8363291152	-2.6787219158	-2.4015008439	-0.231293
O	 0.7229942686	-3.007713732	-1.0110193257	-0.267995
H	 0.9490277372	 1.5313225596	 0.6532617629	 0.117672
H	-0.3909082944	 1.9081410912	-0.4605100677	 0.114815
H	-0.7318815439	 1.4835016952	 1.2407499315	 0.137555
H	 0.4749672625	 0.2080646887	-1.8486777957	 0.092771
H	 2.1292793576	-0.8767967913	 0.4764664841	 0.10362
H	-1.9516478017	-1.2660099685	-2.2034151906	 0.120535
H	-1.781756709	-3.0053157493	-1.8757893207	 0.126288
H	-1.9193632071	-1.8461839269	-0.5328579893	 0.148063
H	 0.3494069242	-3.3751891164	-3.0822707044	 0.116126
H	 1.8122063416	-2.31482115	-2.7154850485	 0.139858
64.7563	91.2506	116.8661	172.356	191.1857	205.2558	241.0575	303.4949	327.4423	373.4389	411.3203	422.6714	539.1921	551.272	744.3841	840.0312	894.1766	933.0148	993.4556	1001.3582	1040.3919	1070.9116	1108.8716	1140.3037	1149.6749	1179.8277	1183.2712	1222.7642	1238.1081	1303.9971	1345.7016	1380.5212	1398.1662	1415.5146	1476.5628	1480.0676	1489.1486	1496.6389	1508.1496	1529.1466	1832.2513	2911.1252	2979.2715	2985.6623	3033.406	3045.9144	3092.1598	3116.6444	3125.8248	3142.578	3185.0499
COC(C=O)C1(C)CO1	CO[C@@H](C=O)[C@@]1(C)CO1	
InChI=1S/C6H10O3/c1-6(4-9-6)5(3-7)8-2/h3,5H,4H2,1-2H3	InChI=1S/C6H10O3/c1-6(4-9-6)5(3-7)8-2/h3,5H,4H2,1-2H3/t5-,6+/m0/s1
