21
gdb 110727	2.34717	1.56926	1.2384	0.8332	84.11	-0.2154	0.0253	0.2408	1137.0921	0.182007	-387.079788	-387.070854	-387.069909	-387.113064	34.212	
C	-0.4610136869	 1.0401717036	 0.0592246082	-0.231143
O	 0.506976875	 0.0362743545	-0.1687418043	-0.229527
C	 0.956199116	-0.565473256	 0.996179694	 0.086278
C	 0.1433144611	-1.6404933173	 1.723160707	-0.187982
C	-0.9755263827	-2.2614893911	 0.9653241449	-0.066221
C	-0.5495542268	-2.8581937924	-0.1502486184	-0.071311
C	 0.9524973782	-2.7778511205	-0.2962539996	-0.318586
C	 1.4199475551	-1.9852902088	 0.9353475319	 0.265781
C	 2.715405357	-2.3878936156	 1.5991036205	-0.486133
H	-0.0655903742	 1.8456788508	 0.6967096126	 0.102788
H	-0.7281008573	 1.4581964034	-0.914218072	 0.12486
H	-1.3610087505	 0.6275747019	 0.5356595994	 0.110835
H	 1.5212107918	 0.1044312865	 1.6497904416	 0.075562
H	 0.1265767592	-1.6109720962	 2.808459051	 0.077563
H	-2.0087537924	-2.1901047578	 1.2860792619	 0.089203
H	-1.1826927972	-3.3270078567	-0.8949840344	 0.089257
H	 1.415240259	-3.7740684198	-0.3188838444	 0.097392
H	 1.2403491739	-2.2735780445	-1.2269609732	 0.12132
H	 3.5633271966	-2.2753526545	 0.9128095984	 0.120008
H	 2.9219778556	-1.7743470963	 2.4819961347	 0.112672
H	 2.6848603794	-3.4350946731	 1.9212704403	 0.117384
92.496	164.7442	179.1017	192.7898	214.1195	247.1473	303.3019	340.0647	406.2401	516.8637	588.6916	618.9799	715.4337	766.6011	772.8787	857.965	872.3486	937.8558	953.4576	958.7613	993.7807	1003.9956	1027.4135	1062.0859	1075.51	1108.6676	1134.0898	1162.3341	1178.3873	1192.713	1216.1178	1255.1529	1279.9161	1313.0179	1345.4792	1375.7063	1416.1597	1434.7488	1467.2556	1485.5331	1487.892	1492.0284	1500.0329	1504.1957	1669.4814	2983.9598	3011.3067	3021.1172	3040.3368	3052.2261	3062.6011	3081.1198	3095.805	3117.8481	3152.1806	3183.1981	3208.4172
COC1C2C=CCC12C	CO[C@H]1[C@H]2C=CC[C@@]12C	
InChI=1S/C8H12O/c1-8-5-3-4-6(8)7(8)9-2/h3-4,6-7H,5H2,1-2H3	InChI=1S/C8H12O/c1-8-5-3-4-6(8)7(8)9-2/h3-4,6-7H,5H2,1-2H3/t6-,7+,8-/m1/s1
