13
gdb 43424	3.09274	1.49664	1.00857	1.854	70.6	-0.2764	-0.1169	0.1595	1064.3416	0.090921	-452.807677	-452.800476	-452.799531	-452.839828	26.807	
N	-0.0719297971	 1.2571504331	-0.4089676473	-0.457549
C	-0.0095984696	 0.0435397368	-0.0377205274	 0.295547
N	 1.1613403205	-0.6842602726	 0.1770319693	-0.438473
C	 1.2738912874	-2.0066831304	 0.5815517059	 0.446175
O	 2.35772908	-2.530156299	 0.7348547467	-0.346971
C	-0.0066273858	-2.7160003777	 0.8070140473	-0.1944
C	-1.194148769	-2.1256357306	 0.6340010629	-0.135296
C	-1.3140202744	-0.7163809752	 0.2036281068	 0.338845
O	-2.387249154	-0.1840753326	 0.0481965913	-0.280971
H	 0.8564910248	 1.6659028605	-0.5404572417	 0.222843
H	 2.0483411105	-0.2186293193	 0.0289021716	 0.258366
H	 0.0994051963	-3.7477707633	 1.1221931967	 0.148139
H	-2.1328614195	-2.6440634997	 0.7987822278	 0.143746
69.2389	130.9477	263.6392	351.0745	399.9399	438.4024	445.9168	502.2408	610.1551	622.6442	667.6936	685.8989	798.0327	808.465	881.6379	910.6672	930.1073	1036.2748	1090.7003	1132.866	1206.3743	1332.9777	1364.2915	1400.5801	1423.2913	1675.7922	1711.9752	1790.854	1793.3577	3193.9298	3214.6283	3447.6946	3577.2463
N=C1NC(=O)C=CC1=O	[NH][C]1NC(=O)C=CC1=O	
InChI=1S/C5H4N2O2/c6-5-3(8)1-2-4(9)7-5/h1-2H,(H2,6,7,9)	InChI=1S/C5H4N2O2/c6-5-3(8)1-2-4(9)7-5/h1-2H,(H2,6,7,9)
