15
gdb 69027	2.68483	1.37938	1.19455	1.9894	77.81	-0.2283	-0.029	0.1992	1067.6046	0.110225	-420.581935	-420.573554	-420.57261	-420.614996	31.685	
O	 0.1219871126	 1.3701534149	-0.2405739571	-0.423886
C	 0.0624727335	 0.0278595765	-0.082752355	 0.29361
C	-0.336115467	-0.8566652794	-1.2138025816	-0.363834
C	-1.198517568	-1.071191771	-0.0018509369	 0.054541
C	-0.4024234458	-1.8829173978	 1.0294469709	-0.397454
C	 0.5730359575	-0.6859054074	 1.108750343	 0.326206
O	 1.2357487527	-0.2453076358	 2.015498217	-0.343958
C	-2.5770109597	-0.7770178589	 0.0674467878	 0.214117
C	-3.7512714921	-0.5183510193	 0.1458183432	-0.406422
H	 0.2762914721	 1.7549635769	 0.6340884613	 0.30986
H	-0.8097115257	-0.30070454	-2.0177585873	 0.150747
H	 0.3163596028	-1.6597027254	-1.5530535742	 0.125295
H	-0.9113901417	-2.0313247612	 1.9832748232	 0.144175
H	-0.0018714315	-2.8345322342	 0.6682589911	 0.121032
H	-4.7878306197	-0.296741358	 0.2069076145	 0.195972
70.27	107.3438	171.987	250.1542	313.3266	380.9094	446.3947	473.5243	520.9697	536.2145	553.4213	577.8789	592.8405	641.4162	650.5242	715.1118	770.6354	914.1555	971.9153	989.1121	1028.1126	1092.6477	1138.5811	1147.2268	1190.0733	1209.9514	1339.0271	1398.4254	1430.9553	1468.4141	1503.8069	1828.4219	2223.711	3058.2607	3095.0941	3132.7166	3196.6762	3502.8533	3750.1913
OC12CC1(CC2=O)C#C	O[C@]12C[C@]1(CC2=O)C#C	
InChI=1S/C7H6O2/c1-2-6-3-5(8)7(6,9)4-6/h1,9H,3-4H2	InChI=1S/C7H6O2/c1-2-6-3-5(8)7(6,9)4-6/h1,9H,3-4H2/t6-,7+/m1/s1
