17
gdb 43015	2.48598	2.03727	1.28275	4.282	72.	-0.2348	-0.0038	0.231	969.9685	0.138658	-417.98199	-417.974963	-417.974018	-418.013511	27.871	
O	-0.0750843791	 0.0846817101	 0.6689106969	-0.339051
C	-0.0658758966	 1.2141012597	 0.2436333769	 0.382846
C	-1.3103228922	 2.0087042789	-0.1110718028	-0.140488
N	-2.0774024203	 2.4852110648	 1.0533350808	-0.322145
C	-1.3071205236	 3.4511886154	 0.2462159959	-0.03041
C	-0.034030477	 3.9740134496	 0.9161805285	-0.257582
C	 1.1920985522	 3.3524078391	 0.2580563936	-0.015852
C	 2.063970749	 2.3541108295	 0.9694320083	-0.249634
N	 1.1013535084	 1.9310819368	-0.0305139287	-0.08131
H	-1.8510326654	 1.6646023342	-0.9883109547	 0.113576
H	-3.0653956846	 2.5244915641	 0.8158116057	 0.238359
H	-1.8560446825	 4.138952635	-0.3912102468	 0.091926
H	 0.0201493163	 5.0647253953	 0.8664227272	 0.111283
H	-0.075824997	 3.6945632881	 1.9736295469	 0.130837
H	 1.6494743713	 3.9328475623	-0.5417177133	 0.100374
H	 3.1110636108	 2.2529252773	 0.6978556199	 0.128364
H	 1.8305056304	 2.1210727098	 2.0054640456	 0.138908
85.553	200.327	249.3722	354.355	411.3732	433.7369	482.2244	535.5652	623.2817	715.288	765.8595	823.2332	847.4246	878.307	914.8963	929.2561	948.567	985.6839	1003.8891	1036.45	1097.1855	1114.779	1133.0766	1155.5579	1168.0563	1176.953	1206.8469	1240.3355	1255.7132	1321.2957	1356.7429	1387.7162	1412.6183	1431.4853	1475.4903	1510.1128	1814.4344	3054.5868	3099.2716	3109.0072	3120.2749	3142.0997	3152.5629	3198.9936	3503.8427
O=C1C2NC2CC2CN12	O=C1[C@H]2N[C@H]2C[C@H]2CN12	
InChI=1S/C6H8N2O/c9-6-5-4(7-5)1-3-2-8(3)6/h3-5,7H,1-2H2	InChI=1S/C6H8N2O/c9-6-5-4(7-5)1-3-2-8(3)6/h3-5,7H,1-2H2/t3-,4-,5-,8?/m0/s1
