15
gdb 127900	3.84644	1.22468	0.93432	1.4745	76.3	-0.2432	-0.0713	0.1719	1199.1515	0.11278	-450.104933	-450.096535	-450.095591	-450.139604	29.672	
C	 0.3298442879	 1.4672949198	 0.159676591	-0.31943
N	 0.0779961176	 0.0362650945	 0.0848214806	-0.342842
C	 0.2550659618	-0.570512693	-1.0014691337	 0.534698
N	 0.0302218213	-1.9272629352	-1.1235533527	-0.403481
C	 0.2022897841	-2.6604227448	-2.2735874312	 0.36396
N	-0.0308821842	-3.9152718253	-2.291778444	-0.522834
C	 0.663866343	-1.8304365896	-3.3964925188	-0.023981
N	 0.8916157076	-0.5743754483	-3.3593799906	-0.039375
O	 0.6863707784	 0.0819395266	-2.1454953662	-0.286803
H	 1.3657836052	 1.7200579324	-0.0989822687	 0.127366
H	-0.3228615382	 2.0364795581	-0.5142483959	 0.127383
H	 0.1402043474	 1.8013756756	 1.1819821395	 0.124556
H	-0.2846868137	-2.4015308946	-0.2888255441	 0.280933
H	 0.1462399315	-4.301843618	-3.217068705	 0.229692
H	 0.8362297602	-2.3000711582	-4.3601939303	 0.150158
21.2378	79.6726	128.0217	193.4932	238.8162	371.4005	382.4068	495.7888	513.5001	615.0303	624.8366	696.5018	719.2436	722.7275	820.8034	902.7371	916.6422	943.5272	982.4227	1060.8294	1119.6727	1149.7641	1162.2647	1285.3071	1339.3078	1414.9391	1446.2716	1467.6304	1489.9883	1502.4699	1660.3516	1730.6063	1803.3588	3010.9633	3063.4442	3112.1016	3188.66	3509.0784	3618.8223
CN=C1NC(=N)C=NO1	CN=C1N[C]([NH])C=NO1	
InChI=1S/C4H6N4O/c1-6-4-8-3(5)2-7-9-4/h2H,1H3,(H2,5,6,8)	InChI=1S/C4H6N4O/c1-6-4-8-3(5)2-7-9-4/h2H,1H3,(H2,5,6,8)
