19
gdb 55871	3.14387	0.90203	0.74834	1.8154	82.43	-0.2424	-0.0102	0.2322	1521.3329	0.155603	-385.868394	-385.858333	-385.857388	-385.904941	36.	
C	-0.0668072753	 1.4767766795	 0.214456604	-0.47415
C	 0.0793358775	-0.0335142263	 0.1509500939	 0.382503
O	 1.1317205638	-0.5857582713	 0.3748195457	-0.29027
C	-1.1799586556	-0.8101712541	-0.2244779444	-0.339503
C	-1.025570215	-2.3030779696	-0.076991543	 0.024787
C	-1.3895839214	-2.9913480956	 1.2032651668	-0.282343
C	-2.2500278281	-3.2115826131	-0.0352059819	-0.22185
C	-3.5758791804	-2.6698264257	-0.1003037526	 0.336936
C	-4.6897916107	-2.2181885093	-0.1642765081	-0.477541
H	 0.9108829641	 1.9400606186	 0.3517846995	 0.142641
H	-0.5417508268	 1.8635361074	-0.6936256404	 0.135733
H	-0.718025654	 1.7499441939	 1.0532045805	 0.142092
H	-2.0261372961	-0.4384660132	 0.3654234135	 0.127368
H	-1.4259814188	-0.5445178761	-1.2637180214	 0.129649
H	-0.1721232123	-2.7125649423	-0.6063388304	 0.10851
H	-0.7804130293	-3.8200709162	 1.5448194229	 0.123667
H	-1.8258088965	-2.3930783615	 1.9956778438	 0.122909
H	-2.1335726094	-4.1729069879	-0.5271913075	 0.114359
H	-5.6756684556	-1.8279988473	-0.2165863409	 0.194502
27.1098	64.5046	90.2025	108.5931	168.6165	204.4457	312.7165	334.9007	401.6568	471.7141	522.2992	562.6971	577.9608	611.8701	647.7182	771.2055	806.3329	823.9451	837.0656	877.3379	952.9265	966.3007	975.5014	1066.5414	1069.1019	1119.2197	1124.6138	1151.6437	1183.31	1231.3493	1249.0449	1333.2275	1375.1221	1382.8507	1420.2773	1451.4755	1465.421	1476.0802	1489.1266	1812.8206	2232.6124	3009.4573	3035.9257	3063.2637	3096.7908	3139.719	3145.9826	3151.9383	3173.0076	3229.4454	3504.9422
CC(=O)CC1CC1C#C	CC(=O)C[C@H]1C[C@H]1C#C	
InChI=1S/C8H10O/c1-3-7-5-8(7)4-6(2)9/h1,7-8H,4-5H2,2H3	InChI=1S/C8H10O/c1-3-7-5-8(7)4-6(2)9/h1,7-8H,4-5H2,2H3/t7-,8+/m1/s1
