19
gdb 26658	2.29018	1.53335	0.9336	0.7278	80.49	-0.1659	0.0662	0.2321	1254.1057	0.158857	-419.247805	-419.237702	-419.236758	-419.282563	36.765	
C	-0.0800505558	 1.5156786316	 0.1114126483	-0.505199
C	-0.0019950729	 0.0326591502	-0.0340311538	 0.206911
C	-0.0215374047	-0.7909981346	-1.1369956469	 0.148787
C	-0.1340335543	-0.3935067078	-2.5764348033	-0.51403
C	 0.0878147345	-2.1472238736	-0.6604249946	-0.026843
N	 0.1194977498	-3.4025903824	-1.3412627562	-0.626744
C	 0.1684709117	-2.0839837758	 0.7063440699	 0.387387
O	 0.2831112179	-3.0767999429	 1.6151183552	-0.44232
N	 0.1153538169	-0.780573677	 1.0936613803	-0.377491
H	 0.8117698418	 1.9357543392	 0.5962377008	 0.119982
H	-0.1681180475	 1.9898139119	-0.8684912944	 0.132537
H	-0.9487655385	 1.8325312771	 0.7045358995	 0.120008
H	 0.7326328894	-0.7275302754	-3.1616601691	 0.114534
H	-1.0209124286	-0.8309561456	-3.0531510773	 0.114535
H	-0.2053144462	 0.6910466132	-2.6945227947	 0.119573
H	 0.8998441952	-3.4645350163	-1.9891302452	 0.234088
H	-0.7224824963	-3.560431894	-1.887781548	 0.234087
H	 0.2983131788	-3.8878608371	 1.0850431345	 0.302069
H	 0.1568046888	-0.4651398208	 2.0467559052	 0.258128
68.0783	109.245	152.6183	180.4379	230.1965	243.1578	271.0764	280.3832	280.5748	318.7391	414.1817	517.5161	536.2559	591.7729	603.5528	652.1747	690.9419	744.327	846.6994	871.0978	985.9715	1054.922	1055.1843	1063.4876	1152.9713	1189.8401	1208.3854	1245.5045	1259.5999	1392.6029	1408.9859	1426.381	1442.6191	1476.6558	1482.5379	1494.1759	1497.5235	1569.7871	1615.1083	1640.7886	1700.3237	3002.2076	3011.4011	3039.0451	3049.9068	3105.703	3122.6344	3476.1151	3534.9462	3684.2671	3737.4808
CC1=C(C)C(N)=C(O)N1	Cc1c(C)c(N)c(O)[nH]1	
InChI=1S/C6H10N2O/c1-3-4(2)8-6(9)5(3)7/h8-9H,7H2,1-2H3	InChI=1S/C6H10N2O/c1-3-4(2)8-6(9)5(3)7/h8-9H,7H2,1-2H3
