13
gdb 19100	5.33399	2.16702	2.05622	1.0108	58.95	-0.2457	-0.0242	0.2215	664.3883	0.097357	-361.382008	-361.376831	-361.375887	-361.411233	20.889	
O	 0.0085096382	-0.028068708	 0.0446605162	-0.311706
C	-0.0114506307	 1.1644155446	 0.0642573463	 0.438197
C	-1.102257072	 2.256468986	-0.0237876892	-0.206988
C	-0.7821635743	 3.234407648	 1.1198463541	-0.041753
C	 0.7180563026	 3.2598455293	 1.0986925759	-0.041755
C	 1.0387640743	 2.2928000944	-0.0539964576	-0.206984
C	-0.0571564008	 3.1494568055	-0.7876359546	 0.017493
N	-0.0606381433	 4.2487143596	 0.2864741495	-0.171602
H	-2.1282913705	 2.071273617	-0.3261835481	 0.099977
H	-1.3938991827	 3.5077024887	 1.9697997869	 0.110953
H	 1.343889303	 3.5541203798	 1.931198914	 0.110953
H	 2.0615532854	 2.1423741609	-0.3852990276	 0.099977
H	-0.0761243792	 3.3861500542	-1.8473679558	 0.103239
136.963	384.438	573.0618	574.2722	743.5643	747.762	776.0223	780.1117	817.8821	861.8343	871.9022	908.8729	918.2008	928.9312	980.1293	995.801	1038.0145	1060.0106	1085.8848	1128.1243	1172.3546	1179.0984	1186.0849	1197.6417	1241.608	1289.1065	1342.047	1900.3895	3161.5027	3172.8775	3176.1673	3196.8322	3207.2706
O=C1C2C3C4C1C2N34	O=C1[C@H]2[C@H]3[C@H]4[C@@H]1[C@@H]2N34	
InChI=1S/C6H5NO/c8-6-1-3-2(6)5-4(1)7(3)5/h1-5H	InChI=1S/C6H5NO/c8-6-1-3-2(6)5-4(1)7(3)5/h1-5H/t1-,2+,3-,4+,5-,7?
