18
gdb 15053	2.82158	1.59643	1.09099	0.803	74.41	-0.2607	0.0387	0.2994	1108.7916	0.151339	-347.739861	-347.730904	-347.72996	-347.773626	32.368	
C	 0.1261305649	 1.3592872913	-0.0336589111	-0.238286
O	-0.1670249773	 0.0016493157	-0.2896488296	-0.231658
C	 0.7118539469	-0.6157699778	-1.2176857373	-0.075556
C	 2.0901682018	-0.6919225565	-0.705462412	 0.348161
C	 3.2113899675	-0.7582657411	-0.2767707794	-0.479314
C	 0.1602087208	-1.9908715636	-1.5260399763	 0.02773
C	-0.945391784	-2.1327761941	-2.5364908643	-0.27489
C	 0.4428913502	-2.6237658415	-2.8627691389	-0.265539
H	 1.1196520725	 1.4868541317	 0.41663259	 0.119815
H	 0.0804583729	 1.9626542493	-0.954301057	 0.10085
H	-0.6329770735	 1.7208554691	 0.6636107067	 0.127553
H	 0.7268918852	-0.0262642572	-2.1526327922	 0.08287
H	 4.2038187172	-0.8191169197	 0.0967180911	 0.197893
H	 0.1336358547	-2.6462455336	-0.6617922946	 0.099364
H	-1.7223956758	-2.8628989235	-2.3410936501	 0.115325
H	-1.2962825562	-1.2324402619	-3.0297797732	 0.11485
H	 1.0276625739	-2.0569627067	-3.5799787804	 0.115174
H	 0.6252732484	-3.6918273197	-2.8915018912	 0.11566
69.7147	103.9818	139.4417	178.5821	185.1987	247.7723	323.6335	368.0953	452.7459	507.819	590.3935	630.3188	668.3981	767.7116	830.1453	874.2025	909.9443	933.9414	999.3237	1025.9078	1061.3742	1080.1462	1124.9525	1137.801	1178.5246	1184.3391	1195.1606	1224.6484	1232.7789	1298.8655	1349.0164	1419.0596	1471.6957	1477.3312	1485.103	1507.9692	1511.2412	2228.791	2933.2376	2978.4276	3042.8878	3120.1354	3133.727	3138.1476	3166.7699	3211.8882	3226.805	3502.2215
COC(C#C)C1CC1	CO[C@@H](C#C)C1CC1	
InChI=1S/C7H10O/c1-3-7(8-2)6-4-5-6/h1,6-7H,4-5H2,2H3	InChI=1S/C7H10O/c1-3-7(8-2)6-4-5-6/h1,6-7H,4-5H2,2H3/t7-/m0/s1
