14
gdb 27333	3.35642	1.43164	1.00465	4.0541	69.38	-0.2089	-0.0164	0.1925	1087.8782	0.102963	-470.04289	-470.035361	-470.034417	-470.074692	29.298	
N	 0.0277970093	 1.3697138109	 0.1533779807	-0.587447
C	-0.0279333755	-0.0025052188	 0.0488942117	 0.235622
C	-1.1474214659	-0.7451958001	 0.0155883647	-0.075976
O	-1.0933799525	-2.1341209511	-0.0256934099	-0.23434
C	 0.1276568419	-2.6920245521	-0.0206742114	 0.484003
O	 0.0594652028	-4.0240923296	-0.0391649164	-0.387558
N	 1.2553864677	-2.098677645	-0.0062811526	-0.391066
C	 1.2750212697	-0.7045865435	 0.007549553	 0.323501
N	 2.3408889602	 0.0019783	-0.0238122842	-0.550916
H	 0.9483775293	 1.7212623776	-0.0813022	 0.272249
H	-0.7424740648	 1.8962051283	-0.2277278743	 0.246406
H	-2.1674542278	-0.3922026524	 0.0258367554	 0.126779
H	-0.8716576895	-4.280504941	-0.0441723594	 0.314637
H	 3.1577097851	-0.6084583334	-0.0591009873	 0.224104
107.2983	192.7786	320.0668	325.7083	377.5049	380.9509	422.495	447.9452	485.822	537.489	589.4512	618.9144	731.8486	756.3975	776.1073	789.1768	809.1784	898.5293	947.2193	1074.4963	1132.2377	1211.668	1270.8027	1302.7683	1328.1692	1410.1418	1457.6582	1612.3112	1684.9558	1717.2042	1734.917	3248.8372	3485.4561	3537.4109	3668.5646	3802.9699
NC1=COC(O)=NC1=N	NC1=C(N=C(OC1)O)[NH]	
InChI=1S/C4H5N3O2/c5-2-1-9-4(8)7-3(2)6/h1H,5H2,(H2,6,7,8)	InChI=1S/C4H6N3O2/c5-2-1-9-4(8)7-3(2)6/h6H,1,5H2,(H,7,8)
