16
gdb 12209	2.6929	1.92615	1.74756	1.8719	66.12	-0.2494	0.0338	0.2832	848.8554	0.12927	-383.687954	-383.68003	-383.679086	-383.719812	30.444	
O	 0.0106323006	 1.3673332131	-0.2141978695	-0.445789
C	 0.051108362	-0.0439389268	-0.0547160629	 0.089173
C	 0.2552933302	-0.5179690136	 1.4026297817	-0.268509
C	-1.3031536548	-0.5722142314	 1.584435577	-0.264099
C	-1.852646264	 0.6436720422	 2.1500604175	 0.320204
C	-2.2771324375	 1.6827085707	 2.5875102417	-0.45919
C	-1.3893242127	-0.6301714942	-0.0037486816	 0.150388
O	-2.3778659324	 0.0600856292	-0.6857377366	-0.421416
H	-0.318533169	 1.7589894404	 0.6055382639	 0.290439
H	 0.7273934838	-0.4207761299	-0.8249060692	 0.088272
H	 0.6987617418	-1.5152346706	 1.4510553448	 0.116322
H	 0.8066419902	 0.1539419182	 2.0628549694	 0.117986
H	-1.6971679444	-1.4489189674	 2.1045105221	 0.104687
H	-2.6780947614	 2.5785904797	 2.9934532474	 0.2031
H	-1.4149039909	-1.6796726864	-0.3129864495	 0.092112
H	-2.0552868114	 0.9697522067	-0.7638837462	 0.28632
111.5939	134.603	216.7067	243.6579	347.8805	363.4786	396.6145	487.8157	511.952	574.7957	615.8668	637.0255	644.7586	732.6629	793.1834	859.2789	879.1649	915.8929	1004.2838	1016.1018	1098.3822	1104.4953	1160.5055	1167.0187	1235.8566	1246.7022	1261.542	1301.2831	1322.3086	1355.3628	1429.1143	1447.0172	1476.9797	2219.7038	3062.6811	3069.5997	3078.7623	3093.7346	3132.5461	3500.4639	3729.6522	3761.789
OC1CC(C#C)C1O	O[C@H]1C[C@@H](C#C)[C@H]1O	
InChI=1S/C6H8O2/c1-2-4-3-5(7)6(4)8/h1,4-8H,3H2	InChI=1S/C6H8O2/c1-2-4-3-5(7)6(4)8/h1,4-8H,3H2/t4-,5+,6-/m1/s1
