17
gdb 98901	3.89095	1.05986	1.04872	0.5621	65.05	-0.2498	0.0002	0.25	1219.71	0.135579	-496.121201	-496.112197	-496.111252	-496.156913	30.376	
C	-0.3707860054	 1.4049346969	-0.1136729806	-0.244817
O	-0.3926923753	 0.0407106066	-0.5614683868	-0.230187
C	-0.9023156691	-0.84314261	 0.3077474786	 0.474836
O	-1.3262458474	-0.5635518748	 1.4021540562	-0.379259
C	-0.8792791162	-2.2726930227	-0.268913418	 0.046535
O	-0.1267681433	-3.1115324861	 0.5648193016	-0.246914
C	-1.0214661369	-3.6083252452	 1.5653346993	-0.100796
C	-2.4304132557	-3.3881920124	 0.9632641028	-0.100793
O	-2.1811806232	-2.7905115809	-0.3130513983	-0.246916
H	 0.0677271709	 1.9781115031	-0.9299602601	 0.138544
H	-1.3844005582	 1.7522932564	 0.1002248717	 0.145764
H	 0.2334812901	 1.4993314676	 0.7917403949	 0.145767
H	-0.4502569083	-2.2757112437	-1.2740237042	 0.113725
H	-0.7821238488	-4.6627421323	 1.7265758435	 0.116037
H	-0.8964654365	-3.0563975779	 2.5014723285	 0.126218
H	-2.9747855791	-4.3201631874	 0.7895749181	 0.116037
H	-3.0325051577	-2.722692947	 1.5887233026	 0.126216
21.533	86.5999	100.0107	137.2196	150.4469	247.7772	293.9356	336.0724	375.3067	719.3356	728.8454	786.1159	808.9834	851.4375	932.7351	956.0529	967.2928	978.3594	1018.9134	1065.1898	1157.0112	1159.6695	1178.0516	1205.6779	1232.1858	1240.7317	1242.1382	1317.8747	1373.3563	1390.5661	1390.941	1472.9211	1480.9694	1494.8213	1510.9311	1524.6557	1818.7676	3051.1249	3055.1808	3057.1726	3091.3787	3093.8892	3113.2136	3131.8088	3165.2047
COC(=O)C1OCCO1	COC(=O)C1OCCO1	
InChI=1S/C5H8O4/c1-7-4(6)5-8-2-3-9-5/h5H,2-3H2,1H3	InChI=1S/C5H8O4/c1-7-4(6)5-8-2-3-9-5/h5H,2-3H2,1H3
