21
gdb 41714	3.55983	1.55916	1.42637	0.2093	86.34	-0.2248	0.0236	0.2484	1006.5701	0.187407	-349.963645	-349.957065	-349.956121	-349.994085	28.702	
C	-0.0134795073	 1.5377833234	-0.0351804837	-0.23134
C	 1.5318289688	 1.7939311035	-0.0240781209	-0.231341
C	 2.0181692807	 0.3395265714	 0.0428233131	-0.011001
C	 1.1050741849	-0.3785437388	-1.0058087129	 0.008069
C	 1.3555083142	-1.8833238384	-1.145504584	-0.298254
C	 1.4543949249	-2.5386178807	 0.2078012816	-0.059136
C	 1.3201959009	-1.7760252457	 1.2912962099	-0.090934
C	 1.0769627641	-0.3011527751	 1.1202615529	-0.030707
C	-0.0054542598	 0.0040988762	 0.028279448	-0.011002
H	-0.5208017524	 1.9880535329	 0.8234543002	 0.093293
H	-0.4967613542	 1.9140285267	-0.9422752534	 0.093249
H	 1.8805179707	 2.3080968332	-0.9251823519	 0.09325
H	 1.8546870592	 2.381791591	 0.840536466	 0.093293
H	 3.0944134295	 0.1587493071	 0.0742273445	 0.05431
H	 1.0331116401	 0.0982588982	-1.9901174817	 0.051505
H	 0.5497921127	-2.3440499961	-1.7357210322	 0.102911
H	 2.2749558998	-2.0580876023	-1.7233231756	 0.102911
H	 1.6313130751	-3.6084930429	 0.2661262768	 0.083813
H	 1.3810177824	-2.1865541359	 2.294741781	 0.082853
H	 0.9823637531	 0.2282711686	 2.0727868866	 0.049947
H	-0.9661345173	-0.5143394564	 0.0450449458	 0.054311
231.7502	259.8836	307.362	312.3188	458.2266	480.8574	557.8169	663.437	706.5392	753.2347	807.0979	812.6628	878.089	906.2275	910.551	927.7249	945.7982	953.8432	977.4478	986.5062	994.7109	997.5729	1044.7646	1047.3432	1099.1367	1100.9456	1128.6185	1169.8602	1174.7008	1203.7522	1207.6361	1251.6237	1259.1986	1270.7033	1274.5255	1310.1632	1313.5687	1318.1169	1355.5435	1388.9906	1414.3914	1475.5443	1492.1529	1512.4932	1710.7109	2995.08	3015.4387	3035.4578	3042.0402	3051.2493	3060.0126	3077.2337	3093.7631	3096.6485	3098.6723	3159.1131	3183.1434
C1CC2C3CC=CC2C13	C1C[C@@H]2[C@H]3CC=C[C@@H]2[C@@H]13	
InChI=1S/C9H12/c1-2-6-8-4-5-9(6)7(8)3-1/h1-2,6-9H,3-5H2	InChI=1S/C9H12/c1-2-6-8-4-5-9(6)7(8)3-1/h1-2,6-9H,3-5H2/t6-,7+,8-,9+
