14
gdb 125795	3.55341	1.63753	1.12884	6.0734	69.62	-0.2328	-0.0206	0.2121	1003.4519	0.103682	-432.875078	-432.868216	-432.867272	-432.906335	26.096	
C	-0.0172957458	 1.5264885624	-0.1001908533	-0.510154
C	-0.0078258102	 0.0421088984	 0.0631925461	 0.267953
N	-0.039158426	-0.7334915815	-1.0091099786	-0.201799
O	-0.0220357088	-2.0826742907	-0.5872105913	-0.234307
C	 0.0198135192	-2.0591813587	 0.7494047582	 0.434253
C	 0.0308965366	-0.7716875873	 1.2219522774	 0.151323
N	 0.0743304092	-0.9191394052	 2.5952071582	-0.417776
C	 0.0854617559	-2.2759233318	 2.8215996412	 0.005633
N	 0.0529003865	-3.0069961166	 1.7185495402	-0.348373
H	 0.8794519211	 1.9767307478	 0.3387871434	 0.136492
H	-0.0511902367	 1.779009382	-1.1613717071	 0.160063
H	-0.8875266662	 1.9715359059	 0.3939841265	 0.136499
H	 0.094437085	-0.2043039503	 3.3016377952	 0.275425
H	 0.1180847602	-2.6762552744	 3.8243108839	 0.144769
145.5148	174.0051	251.2772	273.6467	398.9811	448.7334	534.5273	610.6394	624.514	649.4805	698.6026	776.3175	804.0655	824.6971	912.3656	965.988	1025.4754	1064.6926	1088.3508	1136.6636	1231.686	1313.1712	1398.3717	1408.1818	1415.6141	1445.9701	1481.9703	1484.4265	1518.3316	1589.1458	1606.4988	3039.0428	3093.9461	3142.4338	3253.5483	3680.4615
CC1=NOC2=C1NC=N2	Cc1noc2c1[nH]cn2	
InChI=1S/C5H5N3O/c1-3-4-5(9-8-3)7-2-6-4/h2H,1H3,(H,6,7)	InChI=1S/C5H5N3O/c1-3-4-5(9-8-3)7-2-6-4/h2H,1H3,(H,6,7)
