16
gdb 93446	2.50109	1.55866	1.14139	3.1327	66.04	-0.2724	-0.0233	0.2491	1068.147	0.125746	-475.113728	-475.105735	-475.104791	-475.146582	29.462	
C	 0.007432216	 1.5689186125	 0.0359726276	-0.405947
C	 0.0132735059	 0.029841536	-0.0097637252	-0.125597
C	 0.7503515153	-0.5307176979	-1.2216598519	-0.100966
O	 2.1658386754	-0.2815480187	-1.1464567281	-0.235186
C	 2.8128916406	-0.6211086996	-0.0137996191	 0.48219
O	 4.0075069851	-0.7035525154	 0.0376900076	-0.360412
N	 1.9958287104	-0.8530072012	 1.0969926098	-0.403615
C	 0.6518712526	-0.5274135939	 1.2529337204	 0.416638
O	 0.0883605345	-0.6623866162	 2.3121709423	-0.344396
H	 1.0241028094	 1.9711117773	 0.0082050654	 0.142493
H	-0.5382695685	 1.9691029555	-0.8235372221	 0.127932
H	-0.4795104845	 1.919118107	 0.9489013194	 0.14783
H	-1.0184911913	-0.3339563927	-0.0213142134	 0.120729
H	 0.5889276388	-1.6116452666	-1.3142805672	 0.127991
H	 0.4277460045	-0.0509548048	-2.1475192639	 0.134696
H	 2.4905777859	-1.1384735215	 1.9320703384	 0.275619
82.0188	127.4433	198.256	218.357	253.7514	338.6776	388.5914	476.7197	537.0161	571.298	683.9071	717.9327	764.0837	777.3279	822.12	887.5148	907.3761	979.8978	1027.1072	1069.7309	1131.6659	1142.8905	1220.454	1275.7637	1320.1817	1337.7435	1356.5333	1403.1871	1410.0796	1430.2976	1495.8522	1501.3367	1510.1412	1826.2431	1869.4261	3036.8353	3047.4553	3076.0636	3117.7068	3119.8587	3133.9521	3603.1537
CC1COC(=O)NC1=O	C[C@H]1COC(=O)NC1=O	
InChI=1S/C5H7NO3/c1-3-2-9-5(8)6-4(3)7/h3H,2H2,1H3,(H,6,7,8)	InChI=1S/C5H7NO3/c1-3-2-9-5(8)6-4(3)7/h3H,2H2,1H3,(H,6,7,8)/t3-/m0/s1
