21
gdb 6745	4.74217	0.84335	0.79578	2.814	80.19	-0.2404	0.0331	0.2734	1552.4391	0.185864	-366.270829	-366.260721	-366.259776	-366.306371	35.749	
C	 0.2763781472	 0.8224416322	-0.8791057474	-0.395634
C	-0.3420707101	 0.2775304868	 0.4132474821	-0.1087
N	-1.4744276072	-0.628538797	 0.3270455451	-0.231757
C	-1.9320775421	-0.9813477686	-0.7890237176	 0.123528
O	-2.9572063201	-1.8579349939	-0.8552137768	-0.213628
C	-3.5425073772	-2.0793253567	-2.1489414963	 0.127315
C	-4.1061271179	-3.4942310842	-2.1349157057	-0.386743
C	-4.6034502892	-1.0173182091	-2.431344439	-0.381421
H	 1.1096409048	 1.4877462567	-0.6333986906	 0.114455
H	 0.6688712454	 0.0215512305	-1.5150899009	 0.117726
H	-0.446115459	 1.3998166782	-1.4662648281	 0.116638
H	 0.4358749055	-0.2365834813	 0.9939592443	 0.111013
H	-0.6555924078	 1.1207006043	 1.0435123767	 0.110603
H	-1.5638609185	-0.6584442116	-1.7722610915	 0.07275
H	-2.7483670145	-2.0128432729	-2.9075780248	 0.079971
H	-4.8754121447	-3.5888641882	-1.3626100019	 0.131737
H	-4.555166343	-3.7356564297	-3.1027814485	 0.116179
H	-3.3173317993	-4.2205990812	-1.9235610079	 0.127037
H	-5.0627120768	-1.1834046341	-3.4109022696	 0.117287
H	-5.3866455512	-1.0533507663	-1.6679998399	 0.132337
H	-4.1665980342	-0.014133764	-2.4250533616	 0.119305
43.8624	65.5207	122.816	173.5034	212.7136	233.9793	241.1616	282.5345	321.2204	330.362	422.5823	463.7601	487.8412	598.3201	780.395	837.5633	899.6264	930.2523	945.0019	968.6097	988.5191	1073.7399	1089.7508	1146.4039	1149.5966	1164.0924	1200.4538	1251.402	1315.072	1363.9901	1370.0506	1378.6302	1398.9422	1400.629	1416.107	1432.2991	1479.3179	1484.9774	1485.7885	1492.7453	1495.0931	1507.2999	1508.2069	1776.9063	2991.2551	3011.4993	3024.0828	3031.0334	3033.5358	3037.9395	3045.6997	3098.2142	3105.9464	3111.288	3115.5426	3121.7164	3125.5988
CCN=COC(C)C	CCN=COC(C)C	
InChI=1S/C6H13NO/c1-4-7-5-8-6(2)3/h5-6H,4H2,1-3H3	InChI=1S/C6H13NO/c1-4-7-5-8-6(2)3/h5-6H,4H2,1-3H3
