14
gdb 132611	3.15956	1.3909	0.96656	2.0874	69.54	-0.1995	-0.0155	0.184	1114.9331	0.101953	-478.039928	-478.032439	-478.031495	-478.071583	29.358	
N	 0.0344132426	 1.3818219226	-0.0935181192	-0.570961
C	-0.0179792315	-0.0036605691	-0.0400019391	 0.367322
C	-1.2326409431	-0.7028536303	-0.0124680443	-0.180512
C	-1.2104672473	-2.0915903608	-0.0206087609	-0.146778
C	 0.0086625028	-2.7591683673	-0.0604193646	 0.209615
O	 0.0753213992	-4.1204103177	-0.0707385653	-0.446115
C	 1.142384122	-1.9508457463	-0.0847547003	 0.214523
F	 2.3308875044	-2.5807750666	-0.1172731722	-0.095283
N	 1.1599361929	-0.6445987251	-0.0710035905	-0.3728
H	 0.9362400322	 1.7568652587	 0.1620760594	 0.2563
H	-0.7370454159	 1.8685132436	 0.3365299029	 0.249906
H	-2.174338886	-0.1664080024	 0.008462413	 0.09303
H	-2.127819695	-2.6690985091	 0.0019759455	 0.119357
H	 1.0076476227	-4.3656215302	-0.0994674845	 0.302396
139.0108	245.9654	296.5857	324.6391	349.4119	371.7438	384.6506	472.9063	488.7578	539.288	579.2406	594.421	681.8278	747.864	762.8756	810.7769	835.9609	953.4863	981.1319	1109.8465	1129.7222	1182.7375	1265.3783	1319.0918	1346.7665	1423.573	1482.9335	1520.997	1636.0431	1638.4722	1678.5008	3188.6295	3205.3938	3573.2948	3683.149	3807.3211
NC1=CC=C(O)C(F)=N1	Nc1ccc(O)c(F)n1	
InChI=1S/C5H5FN2O/c6-5-3(9)1-2-4(7)8-5/h1-2,9H,(H2,7,8)	InChI=1S/C5H5FN2O/c6-5-3(9)1-2-4(7)8-5/h1-2,9H,(H2,7,8)
