23
gdb 94201	2.7066	1.18343	1.06549	1.7255	85.12	-0.2396	0.0826	0.3221	1284.393	0.204756	-388.263441	-388.25378	-388.252836	-388.298288	36.725	
C	-0.5035521271	 1.4060792753	 0.0212989705	-0.414821
C	 0.1820956143	 0.0567962898	-0.030497058	 0.132015
O	 1.4789742394	 0.1076230763	-0.6695409367	-0.297201
C	 2.0413617145	-0.7753932859	 0.3187635341	-0.111636
C	 0.8011512188	-0.6193006457	 1.2408949936	 0.268973
C	 1.0728583614	 0.3488136594	 2.3905749364	-0.480128
C	 0.1285948283	-1.9158719448	 1.6435877085	-0.042092
C	 0.4142889024	-2.6514104428	 2.9313255075	-0.283536
C	-0.9343956079	-2.0122646254	 2.7129234714	-0.278348
H	 0.1001671789	 2.1520881973	 0.5434876609	 0.119363
H	-0.6796014184	 1.7667015242	-0.9973643731	 0.127286
H	-1.4743442747	 1.3232249925	 0.5219070776	 0.116658
H	-0.4691568775	-0.6563646852	-0.5609858274	 0.061076
H	 2.1838916343	-1.7928861285	-0.0722138929	 0.089226
H	 2.9978639936	-0.4043324012	 0.7058868467	 0.095881
H	 1.5971518487	 1.2369560529	 2.0275692311	 0.128534
H	 0.1520173382	 0.6838463797	 2.8777828318	 0.118754
H	 1.7102065448	-0.1139576337	 3.1506870556	 0.118446
H	-0.0393243456	-2.5679520672	 0.7889507088	 0.082009
H	 0.4879127636	-3.7326224289	 2.8913226978	 0.112079
H	 1.0746729569	-2.1935615728	 3.6589049843	 0.11306
H	-1.1684258063	-1.1272915605	 3.2939085974	 0.112569
H	-1.7885754705	-2.6535633544	 2.5255726041	 0.111834
40.8409	74.1046	180.6463	204.6198	224.9791	256.256	297.1439	327.6917	365.0086	387.0935	467.0003	510.7068	620.3142	762.4461	785.3675	828.893	864.3785	875.9986	894.3534	935.2058	950.2749	966.9955	1024.359	1039.7981	1055.9761	1077.7086	1094.1589	1101.1397	1118.0517	1149.6247	1165.0176	1174.3782	1195.1703	1200.9205	1234.3969	1274.9067	1316.387	1355.7837	1388.1634	1404.7101	1410.0232	1422.9229	1464.861	1479.2454	1491.715	1501.0828	1506.2548	1511.55	1526.1884	2966.2523	2996.8728	3036.6141	3040.0541	3050.9876	3102.7431	3104.765	3110.9065	3121.308	3125.9478	3136.3676	3140.6663	3212.254	3226.9293
CC1OCC1(C)C1CC1	C[C@H]1OC[C@]1(C)C1CC1	
InChI=1S/C8H14O/c1-6-8(2,5-9-6)7-3-4-7/h6-7H,3-5H2,1-2H3	InChI=1S/C8H14O/c1-6-8(2,5-9-6)7-3-4-7/h6-7H,3-5H2,1-2H3/t6-,8+/m1/s1
