17
gdb 126740	4.59541	1.06437	0.92815	4.9229	82.64	-0.2223	-0.0434	0.1789	1270.7242	0.138025	-414.199626	-414.191459	-414.190514	-414.233204	29.884	
C	-0.047401676	 1.5711474391	 0.1573147536	-0.375986
C	-0.0509016857	 0.0586474174	-0.0587702872	-0.145167
N	-1.3982325483	-0.5055494943	-0.072130259	-0.010047
C	-2.0221048253	-0.9446402705	-1.1973207431	 0.115723
N	-3.219871196	-1.4151469229	-1.2608892063	-0.345799
C	-3.9450873699	-1.4723439557	-0.0578570361	 0.308052
N	-5.1441417497	-1.9058305352	 0.0535089335	-0.532766
C	-3.2369759964	-0.9921609053	 1.1336304215	 0.021014
N	-2.0344151184	-0.530597657	 1.1372704659	-0.195555
H	 0.9812449647	 1.9410164031	 0.1993068871	 0.127124
H	-0.5670788608	 2.0866251963	-0.6559601709	 0.127963
H	-0.5433704387	 1.8192455572	 1.0988571719	 0.150807
H	 0.4168943362	-0.2031266465	-1.0120442243	 0.124286
H	 0.5087754193	-0.443633476	 0.7358704465	 0.136582
H	-1.4197280953	-0.8809727437	-2.1030391929	 0.131919
H	-5.4769425188	-2.1968438794	-0.8687667096	 0.217278
H	-3.750074921	-1.0231891866	 2.0897263092	 0.144573
54.9586	72.6096	145.6661	218.2565	338.2421	377.8161	440.4825	447.1708	463.1087	532.2791	671.5687	757.5004	763.238	792.538	841.6249	903.65	959.5962	969.7163	981.5139	984.1387	1083.6348	1102.5757	1134.0709	1241.5568	1270.1156	1315.4802	1363.0628	1387.0745	1402.9275	1412.274	1456.2044	1480.8645	1489.5873	1506.5928	1617.5477	1663.0145	1700.7614	3045.9327	3058.0695	3100.8998	3120.7975	3134.2582	3138.3062	3190.9008	3453.6797
CCN1C=NC(=N)C=N1	CCN1CN=C([NH])C=N1	
InChI=1S/C5H8N4/c1-2-9-4-7-5(6)3-8-9/h3-4,6H,2H2,1H3	InChI=1S/C5H9N4/c1-2-9-4-7-5(6)3-8-9/h3,6H,2,4H2,1H3
