21
gdb 90065	2.57966	1.65878	1.43368	0.8986	83.91	-0.2076	0.0774	0.285	1037.9009	0.182319	-386.969943	-386.961735	-386.960791	-387.001924	33.733	
C	-0.2245579214	 1.5964508568	-0.1168537166	-0.420999
C	 0.0110579116	 0.0931884658	-0.0296938267	-0.035881
C	 1.0262242459	-0.5915996857	-1.0592663443	-0.365553
C	 1.9440232388	-0.8539966978	 0.1482777423	 0.261426
C	 2.6580705086	-1.7477531629	 1.208260454	-0.338158
C	 2.0921734197	-0.4599951911	 1.9947545545	-0.170424
C	 2.652389918	 0.3646474943	 0.8258878648	-0.246479
C	 0.7894902859	-0.6522405981	 1.1487084952	 0.417418
O	-0.0591704367	-1.7154316907	 1.5343730135	-0.487017
H	 0.6919095858	 2.1775786866	-0.2422065872	 0.120361
H	-0.8660521549	 1.8220728824	-0.9766669035	 0.115471
H	-0.7362985457	 1.9615438631	 0.7798905094	 0.122158
H	-0.962814888	-0.3995136539	-0.0698730401	 0.100906
H	 0.5926570027	-1.4911694544	-1.5023921274	 0.113153
H	 1.4347128684	 0.0395264321	-1.8540389496	 0.096924
H	 2.199587021	-2.7146631157	 1.4221448815	 0.093794
H	 3.7487799908	-1.8315901782	 1.1730667265	 0.094466
H	 2.2180255619	-0.2596569592	 3.0660128475	 0.061663
H	 3.7405637233	 0.3787360099	 0.7245690267	 0.090153
H	 2.2368314809	 1.359353683	 0.6824493687	 0.096885
H	 0.3418742132	-2.1764699663	 2.2766952308	 0.279735
136.6382	197.7566	229.5319	247.8002	297.3633	343.3914	359.9496	449.1034	496.8434	532.7904	573.7481	635.1549	718.5092	754.2804	787.9372	855.0064	872.8074	891.1044	928.5115	950.6894	973.7818	1007.5486	1018.2693	1054.8654	1072.9115	1075.93	1110.8015	1130.6253	1147.4435	1169.4933	1190.6512	1200.7932	1209.3427	1225.4234	1237.4701	1267.4953	1295.8216	1337.7742	1365.7101	1411.4029	1477.0169	1489.8138	1495.1626	1507.6298	1538.9699	3024.7211	3032.0289	3051.4882	3054.9528	3072.1795	3078.6102	3091.313	3114.0332	3119.1267	3124.1139	3163.9779	3831.2935
CC1CC23CC(C2)C13O	C[C@H]1C[C@@]23C[C@@H](C2)[C@@]13O	
InChI=1S/C8H12O/c1-5-2-7-3-6(4-7)8(5,7)9/h5-6,9H,2-4H2,1H3	InChI=1S/C8H12O/c1-5-2-7-3-6(4-7)8(5,7)9/h5-6,9H,2-4H2,1H3/t5-,6-,7+,8-/m0/s1
