16
gdb 46627	3.07737	1.69227	1.11684	1.3918	72.44	-0.2266	0.005	0.2315	1031.9622	0.128122	-434.127682	-434.120334	-434.119389	-434.159841	27.328	
O	-0.0030603568	-0.0318219522	 0.0354193141	-0.368158
C	 0.000460182	 1.1747548027	-0.0006714523	 0.390164
C	-1.2263601311	 2.1167684996	 0.0581871009	-0.294322
N	-0.6525750768	 3.4514244514	-0.104860794	-0.401322
C	 0.7134684993	 3.3719430471	-0.0497858668	 0.494358
N	 1.650493753	 4.2293064653	 0.0146066804	-0.376731
C	 2.9049467093	 3.4486643534	 0.0190114563	-0.172766
C	 2.5223723801	 1.9215106899	-0.0618874877	-0.206674
N	 1.0711261921	 2.0209026024	-0.0904548995	-0.119547
H	-1.9331199834	 1.8633932483	-0.7385723719	 0.146995
H	-1.734714799	 1.9782638782	 1.0207389932	 0.142364
H	-1.1107188614	 4.2722575815	 0.2546340887	 0.26457
H	 3.53190079	 3.7421515244	-0.8296206827	 0.117514
H	 3.4764607441	 3.6647772967	 0.9282028328	 0.116044
H	 2.9013351012	 1.4336819196	-0.9641284869	 0.133311
H	 2.8563785075	 1.3456348118	 0.8055134452	 0.1342
107.6254	113.342	176.6523	263.407	304.6064	417.5591	563.9374	583.0022	627.8948	663.9623	719.542	755.707	807.6735	827.3354	914.1557	1004.499	1014.5385	1040.2175	1068.4316	1106.8356	1148.579	1194.0957	1212.9654	1238.9439	1270.2397	1315.5203	1337.2934	1371.92	1412.2524	1456.8177	1502.1771	1509.4933	1529.5004	1781.488	1846.9072	3030.7449	3038.6776	3059.0522	3065.2705	3076.4286	3102.1872	3657.4876
O=C1CNC2=NCCN12	O=C1CNC2=NCCN12	
InChI=1S/C5H7N3O/c9-4-3-7-5-6-1-2-8(4)5/h1-3H2,(H,6,7)	InChI=1S/C5H7N3O/c9-4-3-7-5-6-1-2-8(4)5/h1-3H2,(H,6,7)
