15
gdb 5240	7.41835	1.12837	0.99163	2.9272	63.57	-0.2366	0.0056	0.2422	1137.1744	0.119125	-399.812752	-399.805102	-399.804158	-399.84613	26.027	
C	 0.3546389858	 1.4308841108	 0.041565031	-0.224658
O	 0.5619043232	 0.0393008205	-0.0385655496	-0.228573
C	 0.197833337	-0.632848381	 1.1404000499	-0.170681
C	 0.4603953191	-2.0839151718	 0.9345990282	 0.311558
C	 0.9430218456	-2.8320043813	-0.0849660927	-0.17409
N	 0.9660814272	-4.1706715482	 0.3013550208	-0.255349
C	 0.5064787899	-4.1587296287	 1.5061605005	 0.067337
O	 0.1728444218	-2.9282214401	 1.9727522567	-0.183918
H	 0.9523433054	 1.8856200773	 0.8468272222	 0.109903
H	 0.6632167104	 1.8589905424	-0.9144241253	 0.13481
H	-0.7045187807	 1.6750862744	 0.2176952148	 0.109888
H	 0.773726668	-0.2594276418	 2.0063854634	 0.109692
H	-0.8680566555	-0.4677411279	 1.3805141135	 0.109697
H	 1.2716567731	-2.507594033	-1.0575650873	 0.13569
H	 0.3552701597	-4.9867718515	 2.180345574	 0.148695
37.1594	75.9193	138.4541	216.7696	248.5784	352.7771	408.3526	641.6907	667.6158	749.4767	827.8471	863.4269	939.0386	991.0037	1004.8353	1052.0264	1115.5601	1125.8302	1168.349	1184.1541	1211.3545	1234.3774	1237.7627	1252.085	1342.0858	1432.4186	1481.1897	1484.5138	1501.549	1523.0702	1554.6119	1645.8295	2937.6293	2953.9803	2975.3885	3021.128	3124.0288	3279.136	3288.6451
COCC1=CN=CO1	COCc1cnco1	
InChI=1S/C5H7NO2/c1-7-3-5-2-6-4-8-5/h2,4H,3H2,1H3	InChI=1S/C5H7NO2/c1-7-3-5-2-6-4-8-5/h2,4H,3H2,1H3
