12
gdb 5177	6.27237	1.46713	1.18903	4.4455	59.69	-0.2301	-0.0184	0.2117	918.766	0.085214	-414.706177	-414.699556	-414.698612	-414.737869	23.309	
O	-0.406139441	 0.0985137278	 0.0075755095	-0.257259
C	-0.0903887559	 1.2567037068	 0.0084815607	 0.153608
N	 1.2027113234	 1.7529010492	-0.0038696156	-0.416846
C	 2.3805901459	 1.0327863952	-0.0181460395	 0.535187
N	 2.5886720634	-0.2414174438	-0.033549615	-0.308049
C	 3.9791655756	-0.341181662	-0.042220332	-0.10265
C	 4.5272530052	 0.8917166829	-0.0324881805	-0.045995
O	 3.4943916776	 1.8058011123	-0.016184791	-0.197952
H	-0.8130021324	 2.0961493494	 0.019291011	 0.088292
H	 1.315967059	 2.7555015425	 0.0008464393	 0.270354
H	 4.4707138081	-1.3007491198	-0.0553398097	 0.131407
H	 5.5228933211	 1.2977248296	-0.0343548471	 0.149903
45.3072	162.9121	195.6897	357.8492	360.4906	546.0773	620.104	643.5316	716.6708	753.7438	861.0139	869.9788	925.6739	970.7993	1015.8524	1093.2495	1130.8328	1141.0986	1187.0923	1240.2114	1356.3534	1441.3839	1550.1789	1577.3704	1646.5927	1843.7248	2942.8128	3267.9711	3311.3808	3628.5695
O=CNC1=NC=CO1	O=CNc1ncco1	
InChI=1S/C4H4N2O2/c7-3-6-4-5-1-2-8-4/h1-3H,(H,5,6,7)	InChI=1S/C4H4N2O2/c7-3-6-4-5-1-2-8-4/h1-3H,(H,5,6,7)
