16
gdb 57822	3.97847	0.71162	0.6345	3.9382	85.77	-0.2854	-0.1031	0.1824	1709.4289	0.121647	-400.754424	-400.744524	-400.74358	-400.790397	33.93	
C	-0.0957546026	 1.3910107709	-0.316894281	-0.398733
C	 0.0151171092	-0.0970908825	 0.0787370956	-0.081205
C	 0.7370840289	-0.2932771045	 1.4125668156	-0.39708
C	-1.3703886658	-0.7249637611	 0.111836027	 0.191428
O	-1.9099471046	-1.1475472487	 1.1092454966	-0.274445
C	-2.0654102272	-0.8031639684	-1.1743564677	 0.020813
C	-2.6557898599	-0.8980305627	-2.2265954923	 0.153306
C	-3.3166154778	-1.0022303377	-3.4162805138	 0.20936
N	-3.8748974723	-1.0885553972	-4.4312016491	-0.31887
H	 0.903976012	 1.8238349193	-0.4095311584	 0.133386
H	-0.6106694142	 1.5219183197	-1.2726560707	 0.133966
H	-0.640489331	 1.9544354547	 0.4474552723	 0.135357
H	 0.5646745324	-0.6116126727	-0.7227811611	 0.108415
H	 0.1971678127	 0.2036718645	 2.2229855135	 0.136624
H	 0.8166996401	-1.3521295598	 1.6708735534	 0.131526
H	 1.7448393102	 0.1278915661	 1.3582363301	 0.116153
37.2535	64.9816	107.0164	198.2123	200.3469	220.4886	259.7136	290.9789	323.6463	351.1464	418.175	539.7646	584.6689	589.613	680.0004	746.4184	864.7154	933.6988	957.5566	972.413	1103.9331	1120.1531	1165.3014	1205.9533	1306.0453	1362.9722	1401.2778	1422.2295	1484.1281	1486.5858	1501.2999	1508.2071	1765.3416	2248.4511	2384.8307	3009.5733	3041.9487	3050.0273	3115.7746	3120.9039	3123.8977	3127.1409
CC(C)C(=O)C#CC#N	CC(C)C(=O)C#CC#N	
InChI=1S/C7H7NO/c1-6(2)7(9)4-3-5-8/h6H,1-2H3	InChI=1S/C7H7NO/c1-6(2)7(9)4-3-5-8/h6H,1-2H3
