17
gdb 8632	2.43543	1.72588	1.37732	3.7906	74.11	-0.2827	0.0136	0.2963	1001.1769	0.139509	-326.711081	-326.701803	-326.700859	-326.744489	33.635	
C	-0.100282897	 1.5530866127	 0.0928599778	-0.413572
C	 0.0145038857	 0.0312110823	-0.0062963062	-0.184047
C	 0.750295673	-0.4959159096	-1.2823493375	-0.110142
C	 2.2190215157	 0.0015462846	-1.3492578824	-0.406537
C	 0.7290858549	-1.9640314508	-1.2697054731	 0.337114
C	 0.730003584	-3.1636032075	-1.2194548225	-0.442232
C	 0.0322934937	-0.0197438505	-2.4836631559	 0.298065
N	-0.5257504667	 0.3838257478	-3.4114720372	-0.347538
H	 0.8764784867	 2.0365137746	 0.1849275159	 0.124052
H	-0.6075179586	 1.9719221439	-0.7814467661	 0.147402
H	-0.6833005713	 1.8218223855	 0.9783358793	 0.125172
H	 0.5573312011	-0.3726210266	 0.854741605	 0.116652
H	-0.9820940195	-0.4197674442	 0.0093906703	 0.127973
H	 2.7481037877	-0.3210510935	-0.4490399362	 0.13424
H	 2.7234890997	-0.4191979079	-2.2209168298	 0.14703
H	 2.2554622608	 1.0904198338	-1.4172278877	 0.139666
H	 0.7234342203	-4.2255011346	-1.1896447136	 0.206703
100.1616	130.8651	146.2847	178.7369	225.6901	231.4415	283.7758	316.6988	387.9017	472.7537	503.8185	580.0583	586.7578	646.534	661.8962	664.6856	788.8719	898.808	928.5218	999.2356	1020.3666	1078.4951	1145.7566	1190.1887	1215.5308	1316.4846	1362.1374	1407.5773	1419.0644	1480.4358	1486.6497	1497.1673	1505.3706	1509.3562	2242.9816	2356.691	3045.5693	3051.5353	3057.618	3091.4699	3115.522	3121.9807	3139.0233	3146.5069	3500.5189
CCC(C)(C#C)C#N	CC[C@@](C)(C#C)C#N	
InChI=1S/C7H9N/c1-4-7(3,5-2)6-8/h1H,5H2,2-3H3	InChI=1S/C7H9N/c1-4-7(3,5-2)6-8/h1H,5H2,2-3H3/t7-/m1/s1
