16
gdb 33676	3.15553	1.44201	1.3728	3.604	73.24	-0.2544	0.0125	0.2668	986.6148	0.126643	-400.733721	-400.726899	-400.725955	-400.764999	26.921	
N	-0.0525246659	-1.1664517244	-0.0460968668	-0.358056
C	-0.03395002	-0.0089160069	-0.0082384783	 0.14531
C	-0.0026861519	 1.4055605539	 0.0405658164	 0.185586
C	-1.0153726545	 2.35715272	 0.6845902903	-0.140331
C	-0.3028264298	 3.3009651354	 1.6538757526	-0.232422
C	 1.2124130371	 3.0798090075	 1.3709969562	-0.217957
C	 1.2105801088	 2.3759331091	 0.0224353046	 0.034895
O	 0.5282619063	 3.2448804416	-0.9442231072	-0.298928
C	-0.6643879896	 2.4952155138	-0.7748187405	 0.050263
H	-1.9980640802	 1.9601588926	 0.9116756592	 0.117025
H	-0.5936024472	 4.3381791469	 1.4666863589	 0.124444
H	-0.5622047462	 3.0652245256	 2.6886194441	 0.116059
H	 1.7757650186	 4.0154111271	 1.3296217083	 0.120835
H	 1.6732498949	 2.4350760497	 2.1275654965	 0.116353
H	 2.1617180076	 2.0142505175	-0.3670523388	 0.106946
H	-1.361785038	 2.4372620806	-1.6017483955	 0.129977
131.7559	155.4507	218.423	370.1767	457.9646	520.4245	530.7302	550.8853	666.6909	733.7563	756.967	828.3156	852.883	886.8659	912.248	926.3408	965.2054	1013.344	1020.1861	1056.596	1058.0524	1082.3434	1148.2484	1167.0245	1193.6728	1255.3092	1261.383	1285.5267	1298.513	1332.2538	1348.3772	1436.4827	1473.5494	1497.614	2343.6183	3049.9854	3066.633	3101.5946	3116.5726	3129.0452	3189.4932	3199.5059
N#CC12C3CCC1OC23	N#C[C@@]12[C@H]3CC[C@@H]1O[C@@H]23	
InChI=1S/C7H7NO/c8-3-7-4-1-2-5(7)9-6(4)7/h4-6H,1-2H2	InChI=1S/C7H7NO/c8-3-7-4-1-2-5(7)9-6(4)7/h4-6H,1-2H2/t4-,5-,6+,7+/m0/s1
