20
gdb 60244	3.30515	0.94268	0.78374	2.4945	77.04	-0.2502	-0.0354	0.2148	1470.669	0.169848	-440.28069	-440.271289	-440.270345	-440.315518	34.74	
C	 0.1368030278	 1.5381205602	-0.0897165586	-0.38267
C	-0.0516677813	 0.054968259	 0.2088519689	 0.153714
O	 0.1491408181	-0.1281481524	 1.6004562864	-0.450308
C	-1.4424391765	-0.4479489119	-0.2157947523	-0.211667
C	-1.567863415	-1.9714456316	-0.1463308541	-0.11104
N	-1.2495207104	-2.5808984157	 1.1946300775	-0.336272
C	-2.5822205428	-3.2450117133	 1.2964103665	-0.289645
C	-2.9900460077	-2.548802708	-0.0141144426	 0.382867
O	-3.9959929593	-2.4624797858	-0.6492390626	-0.279541
H	 1.1048921456	 1.8715860411	 0.2939828588	 0.124177
H	 0.1016794674	 1.7323346366	-1.1662438883	 0.105191
H	-0.6434490063	 2.1285596293	 0.4013863111	 0.118939
H	 0.7072321683	-0.5127095691	-0.3634189587	 0.048716
H	-0.2830778904	-0.9640271112	 1.8417195396	 0.284622
H	-2.1863708274	 0.0190495749	 0.4410914787	 0.107673
H	-1.6680781188	-0.1345980859	-1.2413219352	 0.111402
H	-1.0110043458	-2.4365362191	-0.9712955319	 0.104802
H	-0.4880206906	-3.2479055222	 1.1447611454	 0.237643
H	-2.570476027	-4.3388570764	 1.219436307	 0.134515
H	-3.1581020479	-2.9616423885	 2.1833221245	 0.146883
56.2442	96.1018	110.775	155.8242	229.9997	251.1149	305.4569	371.5848	437.0639	470.5106	516.2853	547.553	616.6049	683.5148	792.932	806.9399	867.2065	883.1661	936.0035	953.3805	992.3234	1006.4388	1061.1128	1077.7305	1088.4119	1111.4206	1148.7248	1162.335	1226.3084	1230.3117	1272.3012	1313.736	1345.8322	1353.529	1366.9388	1380.6634	1402.4532	1465.5426	1467.1962	1476.5202	1490.9574	1499.9794	1914.9214	2908.2723	3016.776	3032.5248	3035.0895	3038.9158	3082.7928	3086.8858	3111.5568	3119.2422	3543.7467	3634.9542
CC(O)CC1NCC1=O	C[C@@H](O)C[C@H]1NCC1=O	
InChI=1S/C6H11NO2/c1-4(8)2-5-6(9)3-7-5/h4-5,7-8H,2-3H2,1H3	InChI=1S/C6H11NO2/c1-4(8)2-5-6(9)3-7-5/h4-5,7-8H,2-3H2,1H3/t4-,5-/m1/s1
