16
gdb 36478	2.95517	1.08337	0.863	4.6565	73.78	-0.2619	0.0022	0.2641	1290.2171	0.125478	-396.933154	-396.924626	-396.923682	-396.967266	30.22	
N	 0.1721376707	-1.1718633583	-0.2637725735	-0.300375
C	 0.0577550901	-0.0277749177	-0.1493267839	 0.259419
C	-0.0383129368	 1.4217896196	 0.0027759113	-0.34911
C	 1.3560177828	 2.0583993271	 0.0241396783	 0.034527
N	 2.0702860376	 2.0366941417	-1.2619579562	-0.29694
C	 2.5695574735	 3.4116763144	-1.0666550046	-0.166543
C	 1.4762448983	 3.6226180865	 0.0290978592	-0.208449
C	 0.2920932443	 4.3370330887	-0.4161394119	 0.297622
N	-0.6583467118	 4.8972111158	-0.7624336866	-0.326496
H	-0.6188436034	 1.8362759819	-0.8268788696	 0.177847
H	-0.5732024685	 1.6496698213	 0.9321207207	 0.157965
H	 1.9294696345	 1.64830735	 0.8673015443	 0.097509
H	 2.7664640981	 1.30944406	-1.3769194009	 0.239116
H	 3.5753805857	 3.4876619183	-0.6335377728	 0.111706
H	 2.5073380141	 4.0496654339	-1.9515296397	 0.136368
H	 1.8257686108	 4.0533399964	 0.9682485859	 0.135833
66.5555	94.3638	104.2938	158.3776	236.0886	322.4585	392.2331	404.0949	487.6147	536.1227	595.7868	695.013	804.4761	817.9798	872.1811	946.12	970.0596	998.3124	1040.5764	1060.4095	1106.1449	1128.0149	1144.3506	1185.2552	1232.4642	1260.1391	1302.8512	1339.9315	1363.8272	1386.6437	1401.2236	1452.3779	1523.1069	2355.4175	2363.7084	3002.3294	3017.9451	3051.3171	3096.1064	3104.3638	3109.9312	3548.0812
N#CCC1NCC1C#N	N#CC[C@H]1NC[C@H]1C#N	
InChI=1S/C6H7N3/c7-2-1-6-5(3-8)4-9-6/h5-6,9H,1,4H2	InChI=1S/C6H7N3/c7-2-1-6-5(3-8)4-9-6/h5-6,9H,1,4H2/t5-,6-/m1/s1
