18
gdb 82672	2.76277	1.59677	1.21804	1.9558	82.92	-0.2389	0.0232	0.2621	1062.8022	0.147461	-364.725276	-364.717335	-364.716391	-364.7574	31.365	
C	-0.0173342393	 1.6349897713	-0.0806065863	-0.433684
C	 0.1020173184	 0.1220623014	 0.0199047557	-0.03626
C	 1.1317846843	-0.6872503382	-0.798561454	-0.040915
C	 2.532465317	-0.146449437	-0.4518098767	-0.247011
C	 2.2353217641	-0.7209932192	 0.9188839031	-0.080218
N	 1.2529293457	-1.7145384449	 0.3786238934	-0.195882
C	 0.768944338	-0.5440039458	 1.2232536783	 0.193521
C	 0.2284704912	-0.6902907351	 2.5321999245	 0.15772
C	-0.2482845596	-0.7730077384	 3.6339291546	-0.379573
H	 0.9435109488	 2.1365203697	 0.0644887132	 0.120061
H	-0.4116155931	 1.9317652787	-1.0585529881	 0.119126
H	-0.7053534231	 2.0121629457	 0.6830430754	 0.13075
H	-0.8793226966	-0.3464502763	-0.1105490816	 0.095019
H	 0.8929235445	-1.0514462406	-1.7954535594	 0.087083
H	 3.3091855827	-0.7349281382	-0.9469378365	 0.117988
H	 2.7440236378	 0.9198234267	-0.5710440694	 0.102862
H	 2.9295296225	-0.9919662529	 1.7062492542	 0.10268
H	-0.6664942632	-0.858577357	 4.6061442195	 0.186732
125.5998	152.8112	183.6968	231.9939	279.6399	407.1713	494.0061	498.5321	547.5684	596.524	613.6561	659.7369	691.3099	749.8166	787.0381	839.116	860.0926	926.4733	940.1172	983.5079	1003.6946	1028.2552	1082.8284	1097.0811	1125.7739	1147.193	1169.7807	1208.2348	1237.3763	1257.5494	1270.0132	1314.3722	1368.414	1406.6498	1414.9814	1487.6662	1493.8313	1507.7765	2234.4546	3036.3458	3054.8444	3056.9513	3100.7734	3108.9035	3115.8014	3142.2412	3185.0062	3502.5165
CC1C2CC3N2C13C#C	C[C@H]1[C@H]2C[C@@H]3N2[C@]13C#C	
InChI=1S/C8H9N/c1-3-8-5(2)6-4-7(8)9(6)8/h1,5-7H,4H2,2H3	InChI=1S/C8H9N/c1-3-8-5(2)6-4-7(8)9(6)8/h1,5-7H,4H2,2H3/t5-,6+,7-,8+,9?/m0/s1
