16
gdb 50603	2.27834	1.45887	0.99398	3.6324	77.62	-0.2562	-0.0569	0.1993	1168.0937	0.124507	-400.790511	-400.782214	-400.78127	-400.824442	29.556	
O	-0.7091340259	 1.2164314479	-0.9015321723	-0.231242
C	-0.0490471467	 1.2221807271	 0.1037969662	 0.148012
C	 1.3617135035	 1.8015690953	 0.2082814698	-0.204982
C	 1.8278990374	 2.5517763875	-1.0603448529	-0.240058
C	 1.7145195953	 4.0634417193	-0.7282584346	-0.257693
C	 1.5823542693	 4.0989018981	 0.7679752154	-0.142872
C	 1.4047624412	 2.8784804377	 1.2922186134	 0.178452
C	 1.2333697192	 2.5773953123	 2.6700381473	 0.216218
N	 1.0947890485	 2.2890540507	 3.7838489706	-0.335119
H	-0.4387685283	 0.7941468665	 1.0530561223	 0.105867
H	 2.0157334283	 0.960072662	 0.4752271353	 0.117507
H	 2.8656986851	 2.2929181003	-1.2814167727	 0.115637
H	 1.2151625237	 2.2647378975	-1.9159727573	 0.140425
H	 2.5813185958	 4.6363860258	-1.0752452251	 0.124963
H	 0.8362897358	 4.5288016971	-1.195398506	 0.136617
H	 1.6112389479	 5.0127723051	 1.3498221806	 0.128268
51.908	85.908	141.8859	170.1593	261.721	275.3264	410.5841	496.5276	554.6995	618.8477	629.9859	724.6747	770.6391	819.063	878.6849	921.9863	934.5707	991.2986	1019.5676	1064.729	1080.6953	1148.7558	1175.0493	1238.037	1254.5587	1284.4999	1304.2734	1332.9977	1347.9227	1421.3077	1471.8682	1494.064	1674.2875	1831.0596	2335.2584	2900.2577	3019.225	3025.8641	3062.8258	3081.7492	3134.2233	3210.6316
O=CC1CCC=C1C#N	O=C[C@H]1CCC=C1C#N	
InChI=1S/C7H7NO/c8-4-6-2-1-3-7(6)5-9/h2,5,7H,1,3H2	InChI=1S/C7H7NO/c8-4-6-2-1-3-7(6)5-9/h2,5,7H,1,3H2/t7-/m1/s1
