18
gdb 122772	3.47653	0.72813	0.62894	1.2846	78.86	-0.2564	-0.0255	0.2308	1768.5235	0.144521	-439.037239	-439.027041	-439.026096	-439.073836	35.19	
C	 0.005460725	 1.3391256485	-0.1116479153	-0.225157
O	-0.0522906959	-0.0632863078	-0.0138776784	-0.226023
C	 0.7527922391	-0.5734036094	 1.0212340343	-0.066714
C	 0.6709656664	-2.0830404594	 1.0155774564	-0.070001
O	 1.3778312783	-2.5567474306	-0.1391199759	-0.229612
C	 1.3934550174	-3.8876511377	-0.3180281126	 0.263271
N	 0.8289276459	-4.6921237987	 0.4923869927	-0.541678
C	 2.1144095978	-4.2572712007	-1.5066919449	 0.27993
C	 2.7068397597	-4.6193814014	-2.4879399531	-0.408283
H	 1.0273152484	 1.6927641303	-0.3216280274	 0.106199
H	-0.6471030978	 1.6360063781	-0.9360144574	 0.129628
H	-0.3431675604	 1.8294127234	 0.8117844247	 0.102217
H	 1.8016902947	-0.2565420015	 0.8983076136	 0.097787
H	 0.4087727594	-0.2073442157	 2.0043183792	 0.088849
H	 1.1244284319	-2.5015791478	 1.9201895646	 0.120691
H	-0.369723993	-2.4177639568	 0.9722748112	 0.134549
H	 0.9527158939	-5.6530983803	 0.1824693269	 0.235227
H	 3.2301946892	-4.9345645325	-3.3572219286	 0.20912
47.4753	56.2498	83.7984	132.3747	157.8989	226.4743	256.3682	280.6445	311.3768	326.4123	514.4595	540.8485	595.2084	657.9091	659.4234	732.833	841.9134	858.9333	881.6009	941.9574	1055.7011	1062.3808	1120.4674	1127.4225	1172.5305	1187.267	1227.7447	1260.7735	1297.4027	1355.7607	1409.0615	1436.5228	1479.4911	1485.1578	1493.4699	1497.7091	1521.4529	1679.4544	2236.8995	2953.1665	2969.8752	2990.1751	3011.9876	3054.3989	3103.5308	3116.5186	3500.0734	3526.7839
COCCOC(=N)C#C	COCCO[C]([NH])C#C	
InChI=1S/C6H9NO2/c1-3-6(7)9-5-4-8-2/h1,7H,4-5H2,2H3	InChI=1S/C6H9NO2/c1-3-6(7)9-5-4-8-2/h1,7H,4-5H2,2H3
