25
gdb 100039	2.45976	1.13844	0.97778	1.3971	88.98	-0.2601	0.0636	0.3236	1399.3915	0.226535	-389.48743	-389.476415	-389.47547	-389.52309	41.837	
C	 0.7927759864	 1.6563061867	-0.0820123027	-0.394026
C	 0.5440745511	 0.1599610634	-0.2965852054	-0.206168
C	 1.2902936005	-0.4705946692	-1.4950006727	 0.317385
C	 0.9251068209	 0.2046556439	-2.8222118192	-0.395836
O	 2.7029147557	-0.2696417097	-1.3563102093	-0.466032
C	 0.9265020335	-1.9567430554	-1.5825122278	 0.008013
C	 1.7975673897	-2.9620725783	-2.2896623763	-0.315781
C	 1.5552002121	-3.0960615118	-0.8034794499	-0.009979
C	 2.6921940542	-2.9765580683	 0.1939366395	-0.435217
H	 1.8640411918	 1.8746822394	-0.0462029405	 0.121469
H	 0.3585289849	 2.2603144729	-0.8840130661	 0.119624
H	 0.3454353076	 1.9904227173	 0.8591747841	 0.108544
H	 0.8401606981	-0.3931671253	 0.605911867	 0.091488
H	-0.530061972	-0.0269762986	-0.4166938249	 0.094685
H	 1.2020462624	 1.2612436516	-2.8104864526	 0.118895
H	 1.4626569676	-0.2783823016	-3.6422419302	 0.123909
H	-0.1483644496	 0.1241904431	-3.0185613637	 0.106178
H	 2.9391806489	-0.4620981097	-0.4438968034	 0.27895
H	-0.1426060059	-2.0849163805	-1.7412208299	 0.074709
H	 1.3466515697	-3.6709786612	-2.9758550285	 0.102359
H	 2.7829046439	-2.6123787771	-2.5813020494	 0.122275
H	 0.8377905023	-3.8643890993	-0.5231121413	 0.080801
H	 3.5237051948	-2.3873308228	-0.1992538715	 0.124453
H	 2.3661966616	-2.5311465428	 1.142034154	 0.111207
H	 3.0904900398	-3.9703089267	 0.4271788107	 0.118094
50.328	100.2315	139.7182	180.4682	204.3837	242.5302	246.7269	280.982	288.1098	353.8351	364.5399	392.6355	404.0845	419.6884	524.6542	624.9361	705.6024	771.4192	786.8749	836.4817	860.484	918.7217	929.9437	965.2062	1000.6892	1004.0562	1028.7376	1070.5791	1079.8176	1085.3898	1124.8644	1135.8858	1155.0541	1175.4738	1200.769	1220.9334	1258.7403	1293.3938	1358.4387	1370.4233	1392.2983	1408.099	1409.8014	1414.6032	1419.9944	1479.0265	1485.8063	1490.3393	1494.8386	1503.148	1506.0128	1512.1877	1514.9622	3010.1348	3022.584	3041.8869	3047.4039	3051.9578	3076.5784	3106.4676	3109.0087	3115.771	3117.0976	3121.5039	3127.095	3129.7187	3132.4024	3213.6173	3827.2605
CCC(C)(O)C1CC1C	CC[C@@](C)(O)[C@H]1C[C@H]1C	
InChI=1S/C8H16O/c1-4-8(3,9)7-5-6(7)2/h6-7,9H,4-5H2,1-3H3	InChI=1S/C8H16O/c1-4-8(3,9)7-5-6(7)2/h6-7,9H,4-5H2,1-3H3/t6-,7+,8-/m1/s1
