16
gdb 97826	4.27275	0.71338	0.68478	1.2963	74.66	-0.2567	0.0125	0.2692	1638.9796	0.1243	-437.854624	-437.845709	-437.844764	-437.890675	30.527	
O	 0.1980510846	 1.1665803696	-0.6372178411	-0.398543
C	-0.1195113089	 0.3642230408	 0.489489875	-0.195472
C	-1.3852065069	-0.356981975	 0.3599702207	 0.047771
C	-2.4119504464	-0.9689148419	 0.207354398	 0.088945
C	-3.6776740752	-1.6578431061	 0.0329201594	-0.085669
C	-4.5817413266	-1.0856171217	-1.1123838907	-0.193867
N	-4.7647190643	-2.2035728282	-2.0469685606	-0.256309
C	-4.1234445365	-3.1779815146	-1.5570603153	 0.125322
O	-3.4593624823	-3.042772245	-0.3836515383	-0.220425
H	 0.168039987	 0.5997829527	-1.4151890225	 0.289903
H	 0.6820954517	-0.3582684362	 0.7115972155	 0.125326
H	-0.1678399021	 1.0514163817	 1.3414253851	 0.145435
H	-4.2131696479	-1.7023701623	 0.9865070412	 0.124352
H	-5.550416302	-0.748516985	-0.7321731037	 0.125355
H	-4.1065405837	-0.2410908956	-1.6184716069	 0.132309
H	-4.0439412707	-4.1651584933	-1.9990298857	 0.145568
25.7281	46.4075	89.3322	125.7163	233.9931	275.5694	346.1631	398.1783	482.6661	529.0262	593.4255	720.2542	773.1993	870.7515	911.8433	958.824	966.8693	983.6986	985.6821	1045.4111	1054.021	1116.4897	1173.3545	1206.5535	1215.4426	1292.9167	1312.6157	1335.8231	1360.0369	1369.0299	1416.5604	1486.3544	1499.0205	1713.6555	2357.0822	2979.7133	3052.3649	3060.1574	3065.7635	3100.1404	3216.1279	3815.4709
OCC#CC1CN=CO1	OCC#C[C@H]1CN=CO1	
InChI=1S/C6H7NO2/c8-3-1-2-6-4-7-5-9-6/h5-6,8H,3-4H2	InChI=1S/C6H7NO2/c8-3-1-2-6-4-7-5-9-6/h5-6,8H,3-4H2/t6-/m0/s1
