19
gdb 71673	2.72424	2.03026	1.78361	1.2355	76.79	-0.2462	0.0784	0.3246	873.1717	0.162685	-385.879393	-385.873051	-385.872107	-385.909515	28.097	
O	-0.0932022836	 1.4095499132	-0.0190137036	-0.495786
C	 0.0458847544	 0.0237276098	-0.0016591843	 0.412276
C	 0.926621411	-0.7849871488	-1.0035473391	-0.295497
C	 0.7330461097	-1.9025263906	 0.0622157496	-0.058742
C	-0.7868334458	-2.1579511378	 0.0531107835	-0.062161
C	-1.4158506627	-1.5303574491	 1.2845518679	-0.068299
C	-0.3047342832	-1.1023466207	 2.2269624835	-0.25252
C	 0.7330733738	-0.7833790477	 1.1609500902	-0.098951
C	-1.2920948348	-0.7298840459	 0.0031255896	-0.09464
H	 0.7860598801	 1.800679554	-0.0362960907	 0.277402
H	 0.5420584496	-0.9551001678	-2.0130919726	 0.091689
H	 1.9589599459	-0.4200664848	-1.0473533689	 0.08115
H	 1.4005208072	-2.760947957	 0.1198742336	 0.062712
H	-1.2458945881	-2.9703248763	-0.4943936629	 0.08169
H	-2.3852794807	-1.8599111073	 1.6388164395	 0.079302
H	-0.5714926775	-0.2223828027	 2.823240081	 0.102197
H	 0.0100710629	-1.9025572744	 2.9063519551	 0.093802
H	 1.7159063816	-0.4244561174	 1.4670287303	 0.058464
H	-2.1344423298	-0.3976308489	-0.5881530519	 0.085911
241.2551	315.9285	324.1427	415.4721	446.1155	509.8365	595.5363	676.667	689.555	736.2778	798.7231	819.0693	825.0626	867.0447	893.9892	915.5316	939.2757	961.4191	975.4057	985.7115	1010.0224	1024.8673	1043.4802	1063.4165	1068.4554	1078.3976	1106.8858	1130.3226	1175.8663	1202.8854	1226.7406	1237.7399	1243.9768	1262.742	1287.1336	1297.6057	1342.3434	1383.4255	1401.5134	1485.7648	1497.8999	3035.6162	3038.6338	3078.318	3100.4216	3115.5655	3125.8779	3185.5315	3198.6522	3211.8427	3816.3512
OC12CC3C4C(CC13)C24	O[C@@]12C[C@@H]3[C@H]4[C@@H](C[C@H]13)[C@@H]24	
InChI=1S/C8H10O/c9-8-2-4-5(8)1-3-6(4)7(3)8/h3-7,9H,1-2H2	InChI=1S/C8H10O/c9-8-2-4-5(8)1-3-6(4)7(3)8/h3-7,9H,1-2H2/t3-,4+,5+,6-,7-,8+/m1/s1
