19
gdb 59688	2.14642	1.40784	0.97766	2.4118	77.01	-0.2535	0.0235	0.277	1247.2223	0.15656	-422.963575	-422.953829	-422.952885	-422.998521	35.58	
C	-0.0285626255	 1.5682098485	-0.0645288431	-0.412077
C	 0.0225954245	 0.0451229848	 0.0671511299	 0.113752
O	 0.7484097533	-0.3561490244	 1.2250501046	-0.431245
C	-1.3692028091	-0.5745989253	 0.0673968692	-0.052786
C	-2.2369900759	-0.4831594695	-1.2041382808	-0.095052
O	-2.4603345138	-1.9069831688	-1.2147201382	-0.275684
C	-1.5227156819	-2.1183058941	-0.1247352248	-0.081043
C	-0.3482429784	-2.8743358955	-0.5313631802	 0.379257
C	 0.6093417116	-3.5127585155	-0.8781726642	-0.474911
H	 0.9840177683	 1.9793382852	-0.0400854963	 0.12978
H	-0.5040423748	 1.8761470168	-1.0014790985	 0.122288
H	-0.5989424308	 2.0130853166	 0.7611103281	 0.106169
H	 0.5928176933	-0.372869434	-0.7700403688	 0.103938
H	 0.3348074518	 0.0607054772	 1.9895718311	 0.275115
H	-1.9113346207	-0.2436733015	 0.9598622432	 0.074989
H	-3.1734296145	 0.0792587964	-1.1240283637	 0.106233
H	-1.6964097469	-0.1500732468	-2.1011438473	 0.102991
H	-2.0154892391	-2.6282626683	 0.7115553633	 0.106187
H	 1.4580329387	-4.0774129417	-1.1765147535	 0.202099
53.2224	100.728	108.9485	183.6417	212.8855	240.8715	289.1004	312.7839	349.943	411.3414	472.8704	538.756	588.7275	632.9694	668.4906	763.3135	820.9678	892.3778	916.9046	971.6815	979.0279	1021.3977	1047.0797	1071.4223	1090.3624	1122.4128	1165.9931	1183.9527	1227.1824	1261.383	1275.533	1326.3519	1354.0562	1357.993	1403.1647	1404.7139	1421.4736	1490.371	1495.6837	1525.6404	2233.2603	3004.0821	3022.0861	3028.4565	3043.294	3057.4087	3068.3669	3093.6568	3120.1241	3502.8336	3792.4957
CC(O)C1COC1C#C	C[C@@H](O)[C@H]1CO[C@H]1C#C	
InChI=1S/C7H10O2/c1-3-7-6(4-9-7)5(2)8/h1,5-8H,4H2,2H3	InChI=1S/C7H10O2/c1-3-7-6(4-9-7)5(2)8/h1,5-8H,4H2,2H3/t5-,6-,7+/m1/s1
