19
gdb 78495	2.49542	1.63048	1.29305	2.5923	75.	-0.2305	0.0813	0.3117	1064.5915	0.158119	-422.975529	-422.967039	-422.966095	-423.008128	32.987	
C	 0.0392144591	 1.3559339766	-0.011382107	-0.50834
C	 0.000609049	-0.132449076	 0.049660067	 0.417611
O	 0.9851971144	-0.88488701	-0.6911632494	-0.344881
C	 0.1474006906	-2.0557242716	-0.4518215252	-0.054795
C	 0.3690589298	-2.3021016254	 1.0645353868	 0.192387
O	 1.6872933147	-2.4301844798	 1.5066008809	-0.450818
C	-0.393432298	-0.9884212835	 1.2637717811	-0.282579
C	-1.0852625413	-1.1489676662	-0.1020550993	 0.238707
C	-2.5153835739	-1.1187427413	-0.5317604872	-0.531286
H	 0.9627360953	 1.7390269046	 0.4360592277	 0.134618
H	-0.0130155762	 1.7078681877	-1.0464030337	 0.132677
H	-0.8041767924	 1.7797477038	 0.5416841698	 0.128249
H	 0.246539173	-2.8257070553	-1.2145793371	 0.08384
H	-0.2024164787	-3.1594139917	 1.4291534592	 0.090406
H	 2.1878479507	-1.7820181364	 0.9916386468	 0.283145
H	-0.794978466	-0.5641117893	 2.1760158586	 0.087443
H	-3.0353314796	-0.2671394173	-0.0802253759	 0.12663
H	-2.6057456267	-1.0263481066	-1.61981704	 0.129409
H	-3.048080074	-2.0264664624	-0.2267473732	 0.127579
156.434	164.259	181.5475	186.7714	232.2274	275.4343	333.3706	410.2237	510.9958	560.9086	593.2134	651.529	694.8995	746.0909	775.6298	825.4689	861.2206	923.8786	926.1285	956.4163	978.9891	1020.284	1085.6401	1098.7085	1109.2173	1125.8929	1134.8206	1162.8893	1204.3484	1247.5819	1284.1468	1290.1087	1344.1038	1412.1526	1414.7824	1440.4974	1472.2829	1480.9882	1488.9363	1494.8618	1515.3023	3024.8098	3035.2691	3085.6344	3090.56	3094.8231	3100.5471	3114.7476	3141.7739	3193.7889	3751.1421
CC12OC3C(O)C1C23C	C[C@@]12O[C@H]3[C@@H](O)[C@@H]1[C@@]23C	
InChI=1S/C7H10O2/c1-6-4-3(8)5(6)9-7(4,6)2/h3-5,8H,1-2H3	InChI=1S/C7H10O2/c1-6-4-3(8)5(6)9-7(4,6)2/h3-5,8H,1-2H3/t3-,4+,5-,6+,7+/m0/s1
