19
gdb 105771	2.1597	1.47839	1.17935	2.8978	77.	-0.2522	0.0379	0.2901	1147.5052	0.158417	-422.992238	-422.983137	-422.982192	-423.026577	34.194	
O	 0.1013627625	 1.2132407338	 0.3609369847	-0.419639
C	-0.0499147895	-0.15020552	 0.0591976833	-0.079489
C	-1.5272812872	-0.5309962788	-0.163836981	 0.138502
C	-1.7378673938	-2.0753655478	-0.1758686457	-0.292321
C	-2.3482657567	-2.3703028879	 1.2056174908	-0.217845
C	-3.0832583394	-1.064286424	 1.5041363632	-0.076145
O	-2.2259208207	-0.0429247058	 1.0055927991	-0.293838
C	-2.0699701859	 0.1087903047	-1.3651577075	 0.364326
C	-2.5137759182	 0.6067274698	-2.3648879746	-0.480031
H	-0.5455663113	 1.4036823562	 1.0517842642	 0.293589
H	 0.527333882	-0.3530997148	-0.8481284645	 0.114107
H	 0.336989419	-0.7943815878	 0.8668913533	 0.078773
H	-2.4280727141	-2.350816434	-0.9754926415	 0.122635
H	-0.7958256761	-2.6017618738	-0.3500991668	 0.116233
H	-3.0059361405	-3.2429016766	 1.2005994449	 0.107579
H	-1.5648085683	-2.5368364351	 1.9514335439	 0.112179
H	-4.0573643947	-1.0322142866	 0.9926195466	 0.101942
H	-3.244242435	-0.8725833665	 2.5683034758	 0.112382
H	-2.9017562519	 1.0634936651	-3.2416780681	 0.19706
36.879	110.4906	162.6939	176.5352	222.9253	275.3233	373.2543	421.5845	463.6418	495.2455	549.5953	596.8032	622.6342	657.522	668.4666	745.4609	857.048	884.5123	903.1108	932.6388	988.9735	1008.8075	1057.0555	1080.4979	1094.5043	1137.4032	1181.8685	1207.2495	1229.0788	1255.3903	1273.1689	1323.2943	1338.2031	1382.9226	1383.7724	1435.8594	1485.2207	1494.1859	1497.8813	1520.8167	2233.349	2960.2694	2991.138	3055.9673	3070.978	3084.2154	3093.8178	3106.3876	3124.2697	3501.2248	3783.0785
OCC1(CCCO1)C#C	OC[C@]1(CCCO1)C#C	
InChI=1S/C7H10O2/c1-2-7(6-8)4-3-5-9-7/h1,8H,3-6H2	InChI=1S/C7H10O2/c1-2-7(6-8)4-3-5-9-7/h1,8H,3-6H2/t7-/m1/s1
