17
gdb 108134	3.09103	1.53931	1.39502	1.3976	66.54	-0.2456	0.0554	0.3011	972.5189	0.136806	-458.901721	-458.894598	-458.893653	-458.933515	28.25	
O	-0.0322269099	 1.4344288039	 0.0057505285	-0.414229
C	 0.0307139089	 0.0186198643	 0.0775484848	-0.208684
C	-1.3411457449	-0.5814299149	 0.0312567485	 0.417715
O	-2.1796790445	-0.3112581937	 1.1631346304	-0.338398
C	-3.0689238336	-1.3298203096	 0.6100174654	 0.024656
C	-3.6344436925	-0.600846866	-0.6217540662	-0.212194
C	-2.2506320512	-0.5401532101	-1.290872002	-0.003218
O	-1.9743795279	-1.9590421878	-1.5070168147	-0.294312
C	-1.8142754407	-2.0340779593	-0.093181267	-0.007203
H	-0.5817609247	 1.7273790182	 0.7414188159	 0.29582
H	 0.6062266373	-0.3202156609	-0.7894209789	 0.128151
H	 0.5515011534	-0.319713568	 0.9860904639	 0.100596
H	-3.7198966268	-1.7958437027	 1.3460502842	 0.089391
H	-4.3363449765	-1.1788220755	-1.2256486414	 0.114286
H	-4.0585508756	 0.3644197074	-0.340084779	 0.113024
H	-2.0586472566	 0.0901013486	-2.1557071623	 0.097028
H	-1.3611926043	-2.9410748639	 0.3027582498	 0.097572
79.8172	138.4089	268.3325	334.4073	404.5468	453.1974	527.7167	565.5405	648.2144	712.3359	758.5141	798.6984	848.0902	876.9538	922.5372	936.9915	937.4101	964.7119	993.5172	1005.5954	1038.7926	1064.8428	1096.6906	1103.5278	1125.4479	1165.7035	1214.2737	1231.1181	1246.5507	1257.1059	1297.4032	1319.9248	1356.7838	1389.538	1437.9781	1462.2866	1492.5892	2994.2873	3082.1556	3088.4665	3141.8381	3145.3429	3155.837	3161.0084	3805.7642
OCC12OC3CC1OC23	OC[C@@]12O[C@H]3C[C@@H]1O[C@@H]23	
InChI=1S/C6H8O3/c7-2-6-4-1-3(9-6)5(6)8-4/h3-5,7H,1-2H2	InChI=1S/C6H8O3/c7-2-6-4-1-3(9-6)5(6)8-4/h3-5,7H,1-2H2/t3-,4-,5+,6+/m0/s1
