21
gdb 52323	4.16355	0.73861	0.70813	2.9907	79.61	-0.255	-0.0261	0.2288	1652.0026	0.181628	-424.240625	-424.231092	-424.230147	-424.277219	33.642	
O	-0.3826343826	 0.171410157	-0.3006185494	-0.238907
C	-0.0164044292	 1.241964398	-0.7064767919	 0.140116
C	 1.3505493472	 1.8349607631	-0.4090116641	-0.153277
O	 1.4535264674	 3.0551579467	-1.0903465921	-0.266872
C	 2.6483753115	 3.7933743973	-0.8283162848	 0.147499
C	 3.8700017281	 3.2176623847	-1.5985274823	-0.225395
C	 4.0780447794	 4.1395233934	-2.8329463316	-0.195666
C	 2.8166115807	 5.0220982392	-2.8953520043	-0.194215
C	 2.4407375767	 5.1936843145	-1.416629841	-0.221166
H	-0.656542388	 1.8974585736	-1.3373636727	 0.094865
H	 1.444945335	 1.9648907536	 0.6836567936	 0.119099
H	 2.1195670241	 1.1043048205	-0.7082999004	 0.121145
H	 2.815248992	 3.8127996717	 0.2582759567	 0.060512
H	 4.7596720904	 3.1903815108	-0.9629420945	 0.100688
H	 3.6642563422	 2.1860196518	-1.8969930935	 0.106967
H	 4.9620588412	 4.7690966808	-2.6831830182	 0.099684
H	 4.244494217	 3.5742698012	-3.7535131668	 0.098969
H	 2.9844789973	 5.9703058256	-3.4129504336	 0.093157
H	 2.008832852	 4.4966538312	-3.4157591788	 0.110908
H	 1.4215263125	 5.5482142539	-1.2466248137	 0.105328
H	 3.1315542654	 5.8925655315	-0.9297352067	 0.096559
32.8919	51.189	63.8652	126.9397	133.401	225.0339	308.6858	377.2451	457.596	535.2893	588.8592	705.9386	742.74	797.4055	846.5312	864.6618	899.8826	909.0382	942.5917	984.1444	1017.8896	1045.5514	1051.3845	1096.1566	1115.6828	1149.9592	1192.1656	1203.558	1223.0796	1242.1957	1252.416	1296.4209	1313.3954	1341.3722	1343.4517	1352.2159	1356.4997	1391.5628	1415.6846	1475.3845	1478.8452	1485.8876	1492.9997	1510.7148	1844.1627	2898.8895	2956.845	2990.8508	2996.4993	3040.9512	3042.2742	3051.2555	3061.2086	3086.77	3098.6252	3106.8906	3111.9144
O=CCOC1CCCC1	O=CCOC1CCCC1	
InChI=1S/C7H12O2/c8-5-6-9-7-3-1-2-4-7/h5,7H,1-4,6H2	InChI=1S/C7H12O2/c8-5-6-9-7-3-1-2-4-7/h5,7H,1-4,6H2
