18
gdb 76165	2.11791	1.44699	1.20544	4.7209	73.79	-0.2588	0.0361	0.2949	1129.2257	0.144153	-439.081895	-439.07172	-439.070776	-439.116164	37.274	
C	-0.0639954267	 1.5670518512	-0.0120618691	-0.452015
C	 0.0133284212	 0.0578884745	 0.0099342576	 0.324699
O	-1.1494964983	-0.5881160312	-0.4210629548	-0.443515
C	 1.3045262417	-0.6551813399	-0.256485349	-0.012539
O	 2.4316648119	 0.1164952527	-0.5059216335	-0.413094
C	 0.6987524808	-0.66959144	 1.172470447	 0.038601
C	 1.3840655374	 0.1106900164	 2.2844994599	-0.472522
C	 0.1173488739	-1.9187665662	 1.5905252014	 0.267976
N	-0.30874627	-2.9279565735	 1.963359331	-0.354802
H	 0.8823252432	 2.0342501098	 0.2609588424	 0.14175
H	-0.313874049	 1.9015510013	-1.0255981781	 0.119607
H	-0.8510082291	 1.9167733158	 0.6620803877	 0.135303
H	-1.2431438289	-0.4381965649	-1.368915749	 0.287914
H	 1.2288661211	-1.5924835931	-0.8054657471	 0.115972
H	 3.2119780104	-0.3871083179	-0.2483325542	 0.299986
H	 2.0328305711	 0.8832732452	 1.869445374	 0.137937
H	 0.6516802642	 0.583106627	 2.9451276082	 0.1408
H	 1.9991959752	-0.5597759573	 2.8911653156	 0.137942
122.5462	149.4983	154.2064	176.2346	204.3307	229.1316	242.3233	290.6571	311.232	346.293	384.5945	418.9847	461.2506	536.7265	563.9321	623.5843	671.2572	719.1826	866.3084	939.9366	999.9533	1025.3054	1066.9092	1092.7687	1156.5029	1173.0389	1198.2697	1261.7349	1283.6649	1309.9468	1347.0093	1406.5576	1418.3742	1465.4436	1482.7711	1490.9029	1502.5001	1514.4532	2347.7214	3039.5782	3051.5516	3103.315	3115.1961	3122.3973	3141.813	3153.4997	3793.3587	3799.108
CC1(O)C(O)C1(C)C#N	C[C@@]1(O)[C@@H](O)[C@]1(C)C#N	
InChI=1S/C6H9NO2/c1-5(3-7)4(8)6(5,2)9/h4,8-9H,1-2H3	InChI=1S/C6H9NO2/c1-5(3-7)4(8)6(5,2)9/h4,8-9H,1-2H3/t4-,5-,6+/m0/s1
