25
gdb 102611	1.86467	1.00324	0.74816	2.4372	89.8	-0.2417	-0.0076	0.2341	1686.1776	0.225378	-389.528918	-389.51703	-389.516086	-389.567416	41.821	
C	-0.259169831	 1.653058622	 0.5813131049	-0.391121
C	-0.1788968958	 0.1528970113	 0.2806055965	-0.182395
C	 0.5654688234	-0.2044804278	-1.0227908976	 0.065515
C	 2.0819270966	 0.048492554	-0.9099599482	-0.189213
C	 2.8354196656	 0.0351365677	-2.2447012294	-0.389548
C	 0.2685292283	-1.6581239945	-1.4189333746	-0.321493
C	-1.1317434217	-1.8969242244	-1.9748526423	 0.386174
C	-1.5415835161	-3.3505967307	-2.1440881387	-0.473372
O	-1.8731484	-0.989810925	-2.2788024238	-0.298286
H	 0.7282686664	 2.1052383333	 0.7180203374	 0.114695
H	-0.7606661045	 2.1864361974	-0.233429549	 0.122402
H	-0.8295258396	 1.8357580911	 1.4975892225	 0.110153
H	 0.3023660022	-0.3685451637	 1.1206600471	 0.083582
H	-1.1996390222	-0.2385979081	 0.2161941204	 0.104343
H	 0.1631881714	 0.4350028598	-1.8190693881	 0.087651
H	 2.2443387493	 1.0219493271	-0.4344735469	 0.097227
H	 2.5212377742	-0.6942731756	-0.2290743403	 0.087947
H	 2.7740877419	-0.9349111532	-2.7490218434	 0.112686
H	 2.4325319162	 0.7885701658	-2.9304951579	 0.118954
H	 3.8974720739	 0.2547317427	-2.0964354033	 0.112601
H	 0.9626836316	-2.0075139709	-2.1962907268	 0.117847
H	 0.432386723	-2.3373866662	-0.5700314659	 0.108497
H	-1.6606880313	-3.8167443235	-1.1587946621	 0.140671
H	-2.4858355193	-3.4107147813	-2.6866085294	 0.141253
H	-0.7679119225	-3.9189864076	-2.6713774511	 0.133232
37.4757	65.8516	69.9635	92.1807	110.7422	156.7704	204.5855	228.2376	250.0555	274.6873	333.787	388.3179	435.6004	478.1108	482.2712	598.6514	755.4111	775.8948	798.0712	828.5063	873.032	925.688	949.2206	998.0311	1012.7946	1027.4859	1048.0079	1057.6058	1136.4129	1150.2872	1170.8428	1189.6619	1238.5947	1274.002	1302.6152	1329.95	1343.4518	1369.1529	1381.3372	1388.0385	1398.3147	1413.3563	1416.4678	1446.3582	1464.2094	1476.4255	1483.4265	1489.0357	1500.0596	1503.1968	1505.1514	1508.9121	1808.1709	3005.3531	3009.1935	3011.063	3031.0931	3032.4371	3034.0866	3035.7801	3044.0519	3061.4489	3067.2866	3096.2463	3099.2505	3100.5261	3101.0188	3105.1273	3151.0581
CCC(CC)CC(C)=O	CCC(CC)CC(=O)C	
InChI=1S/C8H16O/c1-4-8(5-2)6-7(3)9/h8H,4-6H2,1-3H3	InChI=1S/C8H16O/c1-4-8(5-2)6-7(3)9/h8H,4-6H2,1-3H3
