19
gdb 100419	2.95412	0.88552	0.69011	8.0239	76.39	-0.2371	0.0133	0.2505	1589.6011	0.15699	-456.393922	-456.383189	-456.382245	-456.431204	36.38	
C	-0.0100822199	 1.4347868764	-0.0550326739	-0.319232
N	-0.0195057627	-0.0133445902	-0.0388829525	-0.312093
C	-1.1608844482	-0.7359534264	 0.1285999599	 0.390322
C	-0.983664293	-2.2367198644	 0.1810149913	-0.490371
N	-2.2889305429	-0.1277403379	 0.2159202262	-0.31979
H	-3.366555926	 1.3519344163	 0.2915606247	 0.300068
C	-3.5218512167	-0.8733436312	 0.3605149729	-0.30582
C	-4.7086337982	 0.0984610929	 0.4622205447	 0.413049
O	-4.3465501368	 1.3839234986	 0.3936292682	-0.362555
O	-5.8461046891	-0.2688306441	 0.590625236	-0.347286
H	 1.0127394115	 1.7786348925	-0.2198108436	 0.125924
H	-0.6454185633	 1.8144041238	-0.8613203516	 0.145526
H	-0.380866149	 1.8533301072	 0.8882992947	 0.137656
H	 0.8581307014	-0.4976122496	 0.0088854403	 0.250744
H	-1.3703687041	-2.6311075269	 1.1256797525	 0.15576
H	-1.5522686959	-2.7120197981	-0.6241426049	 0.157056
H	 0.0622788728	-2.5364536521	 0.0836101166	 0.121124
H	-3.7296709874	-1.5403348905	-0.4886830847	 0.130478
H	-3.5493434425	-1.5033659163	 1.261315743	 0.129439
42.975	63.6178	93.0791	113.3441	118.3183	152.663	221.6189	254.1999	282.5262	305.7247	460.9883	487.0676	572.6954	597.6161	638.1719	640.3371	832.2444	865.3962	888.8767	993.4916	1000.3769	1050.9297	1082.8895	1127.4272	1159.2202	1215.8827	1224.6178	1231.5548	1308.6554	1354.0178	1409.22	1445.6678	1454.416	1462.5419	1473.4541	1476.0761	1490.0515	1516.1083	1558.3309	1715.128	1873.7716	2993.3391	3026.4742	3027.734	3045.5368	3084.9625	3110.397	3126.3006	3133.8586	3418.2268	3688.3164	42.9758	63.6175	93.0791	113.344	118.3189	152.6632	221.619	254.1999	282.5259	305.7247	460.9883	487.0675	572.6954	597.6162	638.1717	640.337	832.2455	865.3962	888.8769	993.4914	1000.3769	1050.9297	1082.8896	1127.4272	1159.2201	1215.8827	1224.6176	1231.5548	1308.6554	1354.0177	1409.2199	1445.6673	1454.4158	1462.5416	1473.454	1476.076	1490.0514	1516.1081	1558.331	1715.1281	1873.7706	2993.3391	3026.4742	3027.734	3045.5368	3084.9625	3110.397	3126.3006	3133.8586	3418.2285	3688.3164
CNC(C)=[NH+]CC([O-])=O	CNC(=NCC(=O)O)C	
InChI=1S/C5H10N2O2/c1-4(6-2)7-3-5(8)9/h3H2,1-2H3,(H,6,7)(H,8,9)	InChI=1S/C5H10N2O2/c1-4(6-2)7-3-5(8)9/h3H2,1-2H3,(H,6,7)(H,8,9)
