19
gdb 22223	3.09926	0.91288	0.77398	3.629	76.67	-0.2466	-0.0009	0.2457	1480.7127	0.156571	-456.33874	-456.32824	-456.327295	-456.374947	36.962	
C	-0.1335268725	 1.4190894884	 0.3674256899	-0.397694
C	 0.1829440162	-0.0573960977	 0.051897603	-0.031374
N	 0.8587660445	-0.1932063567	-1.2276493676	-0.276056
C	 0.2006949693	-0.0844361526	-2.4050819942	 0.152449
O	-0.9777966134	 0.1922548871	-2.5210072982	-0.337492
C	 1.0035318568	-0.6912625825	 1.1560014083	 0.360323
C	 0.3898478395	-0.8421311297	 2.5199426601	-0.478571
N	 2.1926793918	-1.0517331159	 0.8634265867	-0.182241
O	 2.8715517839	-1.5934222519	 1.9612147231	-0.399199
H	 0.7905922216	 2.0018810622	 0.4230841893	 0.120978
H	-0.7650077465	 1.8206313298	-0.4270710147	 0.157727
H	-0.6666031467	 1.5158628711	 1.3176845454	 0.117862
H	-0.7735570835	-0.5933920608	-0.0144513119	 0.116432
H	 1.820518239	-0.4974850778	-1.1999965929	 0.255457
H	 0.8647718847	-0.2744891818	-3.271727801	 0.076059
H	 0.5865915616	-1.845340075	 2.9071098347	 0.155005
H	 0.8408046469	-0.1375468832	 3.2272698489	 0.15193
H	-0.6872141605	-0.6673614752	 2.4941205307	 0.130168
H	 3.7192213272	-1.8435516978	 1.5784735803	 0.308236
53.8439	65.067	91.2623	155.0314	190.7299	232.8696	246.8386	268.3147	310.053	359.2776	390.003	435.8943	487.469	550.3567	580.9571	641.8418	756.4931	865.9611	899.1036	980.2399	1017.8471	1029.9272	1033.9419	1091.3027	1099.6739	1127.0829	1209.7121	1243.2333	1329.839	1371.4469	1393.1342	1402.1143	1407.8906	1425.5635	1472.9862	1476.1418	1488.2896	1505.4599	1520.4777	1732.5871	1792.904	2935.2073	3021.1123	3045.045	3046.9464	3107.165	3118.5474	3139.8357	3144.2093	3614.993	3820.3249
CC(NC=O)C(C)=NO	C[C@@H](NC=O)C(=NO)C	
InChI=1S/C5H10N2O2/c1-4(6-3-8)5(2)7-9/h3-4,9H,1-2H3,(H,6,8)	InChI=1S/C5H10N2O2/c1-4(6-3-8)5(2)7-9/h3-4,9H,1-2H3,(H,6,8)/t4-/m1/s1
