16
gdb 14575	14.29154	0.65823	0.63674	1.0074	74.09	-0.2607	0.0283	0.2889	1663.9321	0.126541	-346.519121	-346.509781	-346.508836	-346.553916	32.291	
C	-0.0188902397	-1.1859239027	-0.0040596495	-0.445582
C	-0.014271981	 0.0157367715	 0.0020056867	 0.284797
C	 0.0285648474	 1.471527295	 0.0090892907	-0.351925
C	 1.4640655602	 2.0065657395	-0.0012654986	-0.038269
O	 1.3875248413	 3.4158584044	 0.0066515985	-0.242443
C	 2.662962147	 4.0280028606	-0.0018085345	-0.206907
C	 2.5199806279	 5.4776360794	 0.007208421	 0.278978
C	 2.4318250376	 6.6749671796	 0.0144006839	-0.41203
H	-0.0389315387	-2.2474398858	-0.0091469914	 0.19741
H	-0.5004867169	 1.8740175006	-0.8626297657	 0.143728
H	-0.4844853555	 1.8650026909	 0.8943769603	 0.143731
H	 2.0123476931	 1.6365105681	 0.8797632115	 0.102382
H	 1.9961419258	 1.6455900317	-0.8958916207	 0.102382
H	 3.2502554882	 3.7072580671	 0.8757442432	 0.120917
H	 3.234003001	 3.7166660046	-0.893367849	 0.120916
H	 2.3466671922	 7.7335040157	 0.0211630137	 0.201915
42.41	83.0959	98.1734	131.2405	157.5065	293.4619	333.9194	354.4323	370.5905	491.2903	580.4074	609.8636	624.108	650.8697	678.208	797.7316	952.8294	978.5015	1029.5578	1030.1652	1079.9961	1091.3774	1147.7024	1225.5079	1257.9705	1299.0621	1303.9189	1384.9254	1443.29	1476.8453	1498.2452	1528.2777	2242.7023	2249.284	2952.9166	2972.1977	2972.4629	3002.8201	3037.5716	3075.4383	3506.6388	3507.4847
C#CCCOCC#C	C#CCCOCC#C	
InChI=1S/C7H8O/c1-3-5-7-8-6-4-2/h1-2H,5-7H2	InChI=1S/C7H8O/c1-3-5-7-8-6-4-2/h1-2H,5-7H2
