21
gdb 90439	2.10682	1.69004	1.43443	2.7792	77.68	-0.2327	0.0565	0.2891	1065.7603	0.181837	-424.186174	-424.177117	-424.176173	-424.219531	34.759	
C	 0.4538430056	 1.0434646504	-0.9546392012	-0.412243
C	 0.1820091846	-0.2303180011	-0.1775946332	 0.152162
O	 0.7372342591	-1.4043365379	-0.8384031659	-0.295015
C	 1.4394082726	-1.7918689952	 0.3402281117	 0.125035
C	 2.8888655132	-1.2102590578	 0.4558661286	 0.041999
O	 3.3487877721	-0.7205802797	-0.7827559522	-0.403212
C	 2.3454463745	-0.1433794533	 1.4759748814	 0.001886
C	 2.8161872915	 1.3029578333	 1.3942340331	-0.43214
C	 0.8922467744	-0.5938693807	 1.1621388473	-0.143903
H	 1.5074182005	 1.103839567	-1.2293260553	 0.145458
H	-0.1360099454	 1.0391761549	-1.877200468	 0.120094
H	 0.1690095337	 1.9279096602	-0.3748960843	 0.108783
H	-0.9035687257	-0.3631807833	-0.06511122	 0.075009
H	 1.3097009926	-2.8485312059	 0.5888088431	 0.070661
H	 3.6131451255	-1.9100054052	 0.8956244303	 0.062524
H	 4.2267135565	-0.3516821767	-0.643098595	 0.28672
H	 2.5646042296	-0.5186836038	 2.4837006238	 0.074265
H	 2.7829263358	 1.6945531097	 0.3766123135	 0.127601
H	 2.1969780622	 1.9509756477	 2.0238428022	 0.117974
H	 3.8481179203	 1.3927144141	 1.7542195613	 0.106799
H	 0.2199183671	-0.6977771067	 2.0141924187	 0.069545
83.7426	150.4686	184.2226	217.1456	242.9656	272.4697	277.8561	291.2475	402.2613	519.5334	523.0842	598.8472	647.9356	702.8232	794.745	843.5696	864.7076	875.6766	921.2674	939.1779	1007.6734	1059.0029	1066.2605	1082.901	1087.7712	1148.0684	1162.3341	1169.7017	1178.6761	1212.0694	1223.5151	1245.8748	1296.4438	1320.8776	1327.7461	1344.2047	1373.643	1389.2562	1405.0559	1407.2918	1422.815	1477.117	1490.6233	1501.7292	1517.6351	2990.2198	2992.2877	3020.4682	3032.887	3039.6631	3069.5705	3086.2067	3101.1828	3102.0859	3138.2441	3153.0127	3819.5513
CC1OC2C(O)C(C)C12	C[C@H]1O[C@H]2[C@@H](O)[C@@H](C)[C@@H]12	
InChI=1S/C7H12O2/c1-3-5-4(2)9-7(5)6(3)8/h3-8H,1-2H3	InChI=1S/C7H12O2/c1-3-5-4(2)9-7(5)6(3)8/h3-8H,1-2H3/t3-,4+,5-,6-,7+/m0/s1
