17
gdb 13296	4.78371	1.22058	1.08397	3.978	74.48	-0.2501	0.0057	0.2557	1104.903	0.143654	-326.762547	-326.754873	-326.753929	-326.795211	27.915	
N	 0.0382492498	-1.1050028202	 0.6673071742	-0.312877
C	 0.0292347293	-0.0229980784	 0.2619149477	 0.26524
C	 0.0352022907	 1.3547271509	-0.2421302184	-0.447399
C	 1.392961148	 2.0036012315	-0.1437083177	 0.350978
C	 2.0798974047	 2.5352276658	-1.154504826	-0.169418
C	 3.3685302432	 3.1735845968	-0.6979892662	-0.245009
C	 3.5195419234	 2.655720941	 0.7572499963	-0.204868
C	 2.1041601128	 2.1882902684	 1.1801962299	-0.304003
H	-0.3141766056	 1.3487813314	-1.2797257733	 0.155425
H	-0.7051212199	 1.9214496218	 0.3398280906	 0.15613
H	 1.7487654239	 2.5499647792	-2.1879164199	 0.092303
H	 4.2226036043	 2.9050098512	-1.3294467291	 0.108977
H	 3.2904319931	 4.2693653686	-0.7395865263	 0.108987
H	 4.2002091389	 1.7992962087	 0.7671440246	 0.114177
H	 3.9357023602	 3.4065589413	 1.4328213587	 0.101582
H	 1.5836327385	 2.9423925057	 1.7887987446	 0.104824
H	 2.1239444845	 1.2713406265	 1.7792696804	 0.12495
62.9035	96.2187	144.0427	254.0799	309.2621	387.6562	429.2113	497.6488	617.8784	708.1528	807.5944	842.9955	866.7688	898.1288	915.0856	936.0879	946.6001	983.9517	1038.1984	1069.4331	1154.754	1163.3647	1209.9417	1231.2166	1244.0328	1292.5333	1319.1868	1325.1503	1333.2962	1371.8208	1452.9653	1483.3842	1488.7659	1506.4297	1723.0977	2361.2621	3001.6011	3008.2544	3017.506	3051.5416	3060.5331	3069.6207	3081.1871	3108.3589	3184.9873
N#CCC1=CCCC1	N#CCC1=CCCC1	
InChI=1S/C7H9N/c8-6-5-7-3-1-2-4-7/h3H,1-2,4-5H2	InChI=1S/C7H9N/c8-6-5-7-3-1-2-4-7/h3H,1-2,4-5H2
