19
gdb 77932	2.50573	1.65436	1.14549	2.2557	71.97	-0.2374	0.0674	0.3047	1080.467	0.158141	-460.098957	-460.090398	-460.089454	-460.1312	34.703	
C	-0.2698790089	 1.5499598482	-0.1198428882	-0.493654
C	-0.019267954	 0.0520418318	-0.0187456533	 0.456662
O	-1.3022663043	-0.5861201647	-0.1451507449	-0.495964
C	 1.1850023326	-0.6453736052	-0.76291523	-0.222186
C	 2.1218870617	-0.1170018386	 0.3512714604	 0.144772
O	 2.5316065303	 1.2268884652	 0.2983276076	-0.434668
C	 0.837285952	-0.5873195914	 1.1194902123	-0.230013
C	 0.9879768867	-1.8706211979	 0.2136449316	 0.190943
O	-0.0130210176	-2.8128362383	 0.053898018	-0.450828
H	 0.6367585854	 2.1355608642	-0.0050765418	 0.156935
H	-0.7042030449	 1.7837302984	-1.1018682414	 0.100803
H	-0.9994768336	 1.8455415846	 0.6413221739	 0.120153
H	-1.7563834045	-0.1883733461	-0.8953281036	 0.282734
H	 1.3900428264	-0.667511688	-1.8346225939	 0.071111
H	 2.9911319975	-0.7598665783	 0.5336638677	 0.077659
H	 2.9906912002	 1.4255567275	 1.1204150122	 0.286941
H	 0.6454070694	-0.5441229262	 2.1932608875	 0.070766
H	 1.9085724249	-2.4304261648	 0.4000948554	 0.078087
H	-0.8328865492	-2.3160399304	-0.0872382995	 0.289748
165.8425	207.8582	250.6523	272.1241	299.9275	310.8646	322.016	397.4013	410.2499	461.4613	473.0962	538.2328	642.4852	655.9358	701.0988	717.2428	810.4255	819.5445	900.4158	935.6401	959.4142	1037.9153	1063.8859	1067.7546	1080.8177	1119.6902	1134.6085	1155.7439	1164.2213	1214.0659	1220.2253	1245.5332	1277.9994	1324.1707	1363.5349	1378.9523	1406.4253	1466.9939	1489.6824	1512.3881	1520.5544	3015.3367	3022.1922	3068.8165	3083.4712	3098.2832	3105.5666	3198.9483	3694.4237	3811.8774	3819.7374
CC1(O)C2C(O)C1C2O	C[C@@]1(O)[C@H]2[C@@H](O)[C@@H]1[C@H]2O	
InChI=1S/C6H10O3/c1-6(9)2-4(7)3(6)5(2)8/h2-5,7-9H,1H3	InChI=1S/C6H10O3/c1-6(9)2-4(7)3(6)5(2)8/h2-5,7-9H,1H3/t2-,3+,4+,5-,6-
