22
gdb 33228	5.13114	0.64387	0.61759	1.7856	89.65	-0.1985	0.0517	0.2502	1892.9543	0.195333	-367.260395	-367.250791	-367.249847	-367.29606	35.466	
C	 0.0500790886	 1.5775654055	 0.1533385536	-0.38066
C	-0.0305015698	 0.055406115	 0.008040721	-0.159074
C	 0.7272253151	-0.4746954842	-1.2130366964	-0.142994
C	 0.6513471771	-2.0056068396	-1.3617424772	-0.329379
C	 1.4063565922	-2.5332835344	-2.5479850522	 0.290075
C	 0.8625607398	-3.0398336312	-3.7080998171	-0.186641
N	 1.8897870388	-3.3884038329	-4.5505180831	-0.231665
C	 3.0912841183	-3.1152617802	-3.9493774162	-0.07498
C	 2.8253957528	-2.584741663	-2.70968856	-0.239008
H	 1.0890057674	 1.9106579732	 0.255870743	 0.112343
H	-0.3710627348	 2.081577542	-0.7237950509	 0.112184
H	-0.4994520263	 1.9267764612	 1.0334160714	 0.108081
H	 0.3655347657	-0.4208630597	 0.9151543451	 0.091532
H	-1.0833151483	-0.2511279415	-0.0571680085	 0.090733
H	 0.3328714711	-0.0080980771	-2.1253496131	 0.091931
H	 1.7805314588	-0.1706677653	-1.1514668	 0.093905
H	 1.0326752453	-2.4672628567	-0.4405321956	 0.096584
H	-0.4014911311	-2.3057729994	-1.4370721116	 0.090577
H	-0.1671511621	-3.1812962505	-3.9970242763	 0.109314
H	 1.7774852195	-3.7927334778	-5.4628865973	 0.258508
H	 4.0236754936	-3.3246295706	-4.4487950495	 0.11346
H	 3.5637746683	-2.2690028229	-1.9874825091	 0.085175
36.886	80.3567	88.9989	122.1322	236.2036	242.1112	317.9463	324.5607	428.6286	457.8189	638.6061	654.0586	681.8612	717.9946	734.8609	769.1174	793.3221	827.7559	904.4484	907.8629	930.4755	969.6124	1014.2489	1062.1821	1083.9875	1089.3853	1096.505	1122.7828	1162.8679	1232.6632	1271.6783	1282.2502	1299.4576	1319.0533	1328.5749	1366.6214	1394.5096	1412.29	1415.4479	1465.9742	1481.2361	1486.2509	1499.2484	1499.7022	1512.6718	1522.072	1610.7774	3005.8877	3008.7542	3020.289	3028.3113	3031.0738	3042.1147	3066.0871	3094.5234	3098.4008	3236.6993	3254.6244	3266.5772	3689.9981
CCCCC1=CNC=C1	CCCCc1c[nH]cc1	
InChI=1S/C8H13N/c1-2-3-4-8-5-6-9-7-8/h5-7,9H,2-4H2,1H3	InChI=1S/C8H13N/c1-2-3-4-8-5-6-9-7-8/h5-7,9H,2-4H2,1H3
