16
gdb 48559	4.02099	1.46615	1.35578	1.7308	72.73	-0.2403	-0.0295	0.2107	951.4645	0.125537	-400.700706	-400.694076	-400.693132	-400.731863	26.203	
O	-0.2678535963	 0.3704690466	-0.7670525765	-0.281531
C	 0.067582078	 1.0876023472	 0.1504375111	 0.020419
C	 1.3165131509	 1.8464792571	 0.1929487018	 0.256289
C	 2.5729121865	 1.4624802509	-0.5924332594	-0.129079
C	 3.7625792837	 1.7697176285	 0.2975122491	-0.175334
N	 3.3011473729	 2.9619372672	 1.0254843061	-0.116982
C	 2.393477432	 3.7301005883	 0.1563099065	-0.065319
C	 1.891941131	 2.7407590774	-0.9316026144	-0.118809
C	 1.846952818	 2.8649816459	 1.2356580163	-0.148602
H	-0.5858793691	 1.217541522	 1.0428097913	 0.070051
H	 2.5050259399	 0.6094467881	-1.2548662887	 0.124959
H	 3.988293772	 0.966616214	 1.0049599734	 0.118711
H	 4.6655623164	 2.0109391968	-0.2715506267	 0.118036
H	 2.4974145238	 4.8032010108	 0.0684318738	 0.105608
H	 1.4057237175	 2.9709178829	-1.8681343417	 0.11876
H	 1.4197628129	 3.0964644063	 2.2031556181	 0.102822
108.1858	179.3715	191.1801	408.6517	435.8255	568.825	684.0766	707.3049	758.8011	769.5876	787.1373	829.3456	870.1669	875.2575	906.2716	950.3287	962.5789	975.6262	993.0419	1034.9598	1050.2149	1064.9227	1085.18	1140.6762	1178.2688	1203.4166	1220.7146	1253.8221	1269.7241	1302.7217	1321.6554	1408.643	1439.0735	1496.7124	1784.7107	2870.8179	3058.2281	3106.9948	3192.1887	3207.1566	3216.6987	3235.3266
O=CC12C3CN4C(C13)C24	O=C[C@@]12[C@@H]3CN4[C@@H]([C@H]13)[C@@H]24	
InChI=1S/C7H7NO/c9-2-7-3-1-8-5(4(3)7)6(7)8/h2-6H,1H2	InChI=1S/C7H7NO/c9-2-7-3-1-8-5(4(3)7)6(7)8/h2-6H,1H2/t3-,4-,5+,6+,7-,8?/m1/s1
