12
gdb 130554	3.73272	1.3471	0.98987	0.8339	69.97	-0.2805	-0.0903	0.1902	1081.2498	0.077297	-431.639644	-431.632278	-431.631334	-431.672088	26.322	
O	 0.0219582335	-0.0512976889	 0.0035802063	-0.296151
C	-0.0043430272	 1.1542136674	 0.007339359	 0.297617
C	 1.1607455122	 1.9978002794	 0.0013185634	 0.261351
C	 2.1888878936	 2.6193627355	-0.0043608158	-0.368869
N	-1.2430972327	 1.8439463961	 0.0184227524	-0.01798
C	-2.490768284	 1.2890458287	 0.025892202	-0.060925
C	-3.3290610813	 2.3642428556	 0.035206626	-0.074587
N	-2.5756388507	 3.5162625669	 0.0330565917	-0.170954
N	-1.3252160667	 3.2105459525	 0.0230810827	-0.119391
H	 3.0890001064	 3.1854461849	-0.0092844063	 0.227161
H	-2.6341203666	 0.22315824	 0.0237903458	 0.179563
H	-4.4059901764	 2.3973635819	 0.0431763128	 0.143164
77.0916	131.8392	157.3581	252.644	272.8536	453.1748	509.6521	626.3194	672.13	681.4912	710.3967	721.6158	767.6025	818.8139	889.4012	947.316	986.472	1040.5105	1106.0423	1126.1833	1195.7385	1306.1745	1371.5753	1453.3236	1542.4531	1788.2843	2235.2375	3279.8609	3313.2895	3494.7
O=C(C#C)N1C=CN=N1	O=C(C#C)n1ccnn1	
InChI=1S/C5H3N3O/c1-2-5(9)8-4-3-6-7-8/h1,3-4H	InChI=1S/C5H3N3O/c1-2-5(9)8-4-3-6-7-8/h1,3-4H
