15
gdb 5630	3.26108	1.79582	1.16887	2.7751	63.19	-0.1946	0.0353	0.2299	968.0586	0.119372	-399.807343	-399.799394	-399.79845	-399.84004	28.743	
N	 0.0621235468	 1.4233420587	 0.1447260037	-0.608541
C	 0.0252726457	 0.0224799396	 0.0211214549	 0.092255
C	-1.0531536202	-0.8101873399	-0.0075406315	-0.076551
O	-0.6444637861	-2.1149639288	-0.0357754907	-0.154029
C	 0.7102193478	-2.1026995717	-0.0370806945	-0.087064
C	 1.1862468094	-0.8305591067	 0.0015583344	 0.215197
C	 2.6136483344	-0.3950224437	 0.0449565881	-0.196747
O	 3.4396795291	-1.5459143765	-0.016375374	-0.417363
H	 0.7151851364	 1.8506095141	-0.5021515174	 0.242235
H	-0.8476239313	 1.84547511	 0.0056297502	 0.242265
H	-2.1171904026	-0.6438889337	 0.0021304027	 0.119464
H	 1.2018780126	-3.0593598782	-0.0639698385	 0.145246
H	 2.8279252012	 0.2888885497	-0.7968939938	 0.08567
H	 2.7953464753	 0.1833676495	 0.966584847	 0.107472
H	 4.3532036117	-1.2637471624	 0.0811995795	 0.290491
51.5487	164.3132	199.1708	227.5802	246.0797	309.1753	332.6765	515.3771	606.5692	622.5174	638.5641	691.7562	753.7182	777.5614	800.1893	899.0803	1048.3709	1072.8397	1078.7729	1109.9632	1197.5083	1207.1359	1221.3854	1245.3654	1270.1304	1330.5418	1430.9547	1477.4144	1517.4423	1592.964	1648.6706	1682.9138	2927.2459	2963.1858	3277.081	3296.6778	3517.8046	3607.2539	3840.6553
NC1=COC=C1CO	Nc1cocc1CO	
InChI=1S/C5H7NO2/c6-5-3-8-2-4(5)1-7/h2-3,7H,1,6H2	InChI=1S/C5H7NO2/c6-5-3-8-2-4(5)1-7/h2-3,7H,1,6H2
