19
gdb 133846	3.56122	1.8266	1.7578	2.6531	82.42	-0.1882	0.004	0.1921	880.3544	0.159966	-348.64074	-348.633709	-348.632765	-348.671477	29.424	
C	 6.4239001266	-0.0566508075	 0.3639604241	-0.516337
C	 5.0711755277	-0.1911943605	-0.2564423853	 0.353452
C	 3.6959713779	 0.3756685491	 0.3864392215	-0.079274
C	 4.1750561313	 0.7945244234	-0.9690503433	-0.134405
C	 3.5467539887	-0.3111893333	-1.856086647	-0.087345
C	 2.1625316995	-0.5606063062	-1.2452212244	-0.232883
C	 2.6568361861	-0.7292941811	 0.2072393631	-0.049812
C	 3.841304052	-1.6878662371	 0.2170205288	-0.164716
C	 4.4651439014	-1.3464196716	-1.0890073474	-0.098693
H	 7.2077725516	-0.0457871911	-0.4021889271	 0.122376
H	 6.6182903559	-0.8884166921	 1.0458251947	 0.150885
H	 6.5021591297	 0.8762129379	 0.9332513096	 0.119647
H	 3.8104927071	 0.9731555926	 1.2787989717	 0.10741
H	 4.4229798376	 1.8185997889	-1.2168784244	 0.097316
H	 3.6439594911	-0.2166309673	-2.9350472446	 0.066234
H	 1.684064689	-1.4679583056	-1.6297793942	 0.099569
H	 1.4790531322	 0.2866454513	-1.37183507	 0.094324
H	 1.9252057578	-0.8376644017	 1.0034511969	 0.068855
H	 5.1361792067	-2.0336253884	-1.5922912028	 0.083397
175.1805	219.6815	252.8938	287.4086	373.4537	412.1613	540.5441	644.2638	659.7237	731.7466	778.3655	827.0748	845.0436	870.1173	881.3699	901.62	919.5445	933.4086	957.5601	970.8145	995.3743	1004.4876	1032.9102	1048.1922	1083.5699	1113.3614	1115.7478	1148.4777	1182.9234	1193.9714	1221.0803	1226.9546	1239.8357	1278.1038	1292.8732	1326.4826	1395.921	1419.9627	1481.1245	1482.9967	1496.0667	3027.5984	3038.22	3087.1917	3089.5329	3117.83	3144.4164	3147.6732	3176.7552	3196.4419	3229.1098
CC12C3C1C1CC3C2=C1	C[C@@]12[C@H]3[C@@H]1[C@@H]1C[C@H]3[C][C@H]21	
InChI=1S/C9H10/c1-9-6-3-4-2-5(6)8(9)7(4)9/h3-5,7-8H,2H2,1H3	InChI=1S/C9H10/c1-9-6-3-4-2-5(6)8(9)7(4)9/h4-8H,2H2,1H3/t4-,5+,6-,7+,8-,9+/m0/s1
