13
gdb 76034	2.87832	1.22483	1.09604	3.5978	64.99	-0.2908	-0.027	0.2638	1093.0904	0.087176	-452.736241	-452.727501	-452.726557	-452.769741	31.057	
O	-0.1326114985	 1.3648112799	-0.1218846015	-0.417256
C	-0.0060892347	-0.0120813449	-0.0255066015	 0.025051
C	-0.454093813	-0.7188597403	 1.2496904831	-0.322668
C	-0.8632616038	 0.1008681449	 2.3489044525	 0.307739
N	-1.156278693	 0.8139531496	 3.2114796539	-0.321692
C	-1.3404773315	-0.7309067465	-0.0272964253	 0.257634
O	-2.4756123727	 0.04357391	-0.060857342	-0.437954
C	-1.4498254853	-2.001281917	-0.7056669718	 0.283049
N	-1.4990727884	-3.0271381215	-1.2355187026	-0.32257
H	 0.1353438533	 1.782307048	 0.7070316221	 0.321994
H	 0.8294872302	-0.4443713674	-0.568763148	 0.147297
H	 0.0555304593	-1.6413180003	 1.504778997	 0.167506
H	-2.1846441218	 0.9494562054	-0.2537038959	 0.311871
98.8601	122.7313	146.8745	178.0802	213.4835	277.1464	348.6493	400.5865	455.6749	491.4012	498.2099	574.9884	643.7525	668.0751	728.7007	822.6673	851.075	1001.2388	1037.5587	1083.6489	1121.3966	1201.2576	1281.9466	1326.8547	1340.9185	1383.3548	1433.7181	2354.8188	2362.4279	3155.7645	3184.8828	3701.3526	3773.8599
OC1C(C#N)C1(O)C#N	O[C@H]1[C@@H](C#N)[C@]1(O)C#N	
InChI=1S/C5H4N2O2/c6-1-3-4(8)5(3,9)2-7/h3-4,8-9H	InChI=1S/C5H4N2O2/c6-1-3-4(8)5(3,9)2-7/h3-4,8-9H/t3-,4+,5-/m1/s1
