19
gdb 98864	3.9178	0.99591	0.92079	2.9858	77.91	-0.2239	-0.0186	0.2054	1350.6375	0.157692	-423.045398	-423.036166	-423.035222	-423.080699	32.808	
C	 0.1449508457	 1.5748537821	 0.0093379339	-0.376213
C	-0.0608014523	 0.0687289453	-0.1313957325	-0.291016
C	 0.694953293	-0.5413838761	-1.302604808	 0.365985
O	 1.2701435182	 0.1186378469	-2.1313339047	-0.294694
C	 0.7039561562	-2.0882118784	-1.3663206386	-0.023395
O	 0.9454536371	-2.5474390926	-2.6810651421	-0.252205
C	 2.2594033073	-3.0946617966	-2.778424102	-0.113734
C	 2.7440297751	-3.1848064972	-1.3586450551	-0.085881
C	 1.8522348851	-2.6333101651	-0.5440906264	-0.097599
H	 1.1966106606	 1.8100692671	 0.1944452481	 0.128718
H	-0.1451741251	 2.0903378474	-0.9090793435	 0.138122
H	-0.4487270011	 1.9730291365	 0.8367544493	 0.110464
H	 0.2256922479	-0.4652727483	 0.7854751428	 0.116662
H	-1.124118776	-0.1723541388	-0.2756975431	 0.128712
H	-0.2744662662	-2.4615771686	-1.0255966199	 0.092408
H	 2.202354197	-4.0735637373	-3.2755533284	 0.109034
H	 2.9018613767	-2.445555822	-3.3924744419	 0.120914
H	 3.6889183707	-3.6328495912	-1.0792980601	 0.112092
H	 1.9174449202	-2.5334047631	 0.5312089222	 0.111624
49.3693	58.5005	77.6069	169.3307	201.9585	223.2212	312.0483	350.206	415.1767	551.7853	656.5343	709.919	766.2346	787.2179	820.0774	875.5117	923.848	931.3218	953.088	989.3745	1003.1021	1030.7955	1045.0359	1082.8475	1119.435	1123.5975	1157.1706	1199.5402	1248.7019	1282.666	1331.2951	1350.2382	1370.3992	1386.4131	1413.2242	1449.5888	1492.8636	1498.5302	1512.1641	1683.1803	1826.1021	2980.6186	2989.9674	3012.9883	3016.3056	3038.7884	3051.7757	3120.7861	3131.1104	3211.4184	3235.9021
CCC(=O)C1OCC=C1	CCC(=O)[C@H]1OCC=C1	
InChI=1S/C7H10O2/c1-2-6(8)7-4-3-5-9-7/h3-4,7H,2,5H2,1H3	InChI=1S/C7H10O2/c1-2-6(8)7-4-3-5-9-7/h3-4,7H,2,5H2,1H3/t7-/m0/s1
