23
gdb 115048	2.24444	1.28244	0.89237	1.0021	87.75	-0.2373	0.0234	0.2607	1400.6512	0.205571	-388.295853	-388.286061	-388.285117	-388.330754	36.319	
C	-0.308941501	 1.5463224281	 0.0489960971	-0.391337
C	-0.3082671857	 0.019295892	 0.1638447944	-0.155533
C	 0.7934782637	-0.5167841549	 1.1030298261	-0.080708
C	 0.566074181	-0.1451724388	 2.5528176939	-0.067984
C	 0.141362048	-1.1770833415	 3.2815778885	-0.070604
C	 0.0415899623	-2.4426241309	 2.4657041	-0.283603
C	 0.8463383451	-2.0701760169	 1.1896030203	 0.12371
O	 0.3863664436	-2.657700161	-0.0068691837	-0.241619
C	 0.6153355431	-4.0443506258	-0.0878887354	-0.233521
H	 0.6578494849	 1.9171861387	-0.3110464927	 0.110161
H	-1.0756707964	 1.8862964866	-0.6542738869	 0.110554
H	-0.5096994556	 2.0270824865	 1.0121526909	 0.113033
H	-1.2866697696	-0.3256207438	 0.5191477289	 0.09411
H	-0.1638100419	-0.4289392125	-0.8235426036	 0.110432
H	 1.7541485557	-0.1316684251	 0.7358526785	 0.069426
H	 0.6987097216	 0.8648410297	 2.9241164959	 0.092795
H	-0.1224341533	-1.135493901	 4.3328611747	 0.090217
H	 0.4457585677	-3.319734624	 2.9829890042	 0.098532
H	-1.0006610498	-2.6770498989	 2.2066562133	 0.11214
H	 1.8956888714	-2.3660057928	 1.3560156312	 0.065798
H	 0.2885143675	-4.3703353764	-1.0785414065	 0.12495
H	 1.6836567544	-4.286770633	 0.0313543815	 0.102147
H	 0.0502267935	-4.6061248443	 0.6706212893	 0.106902
80.0481	92.9635	110.9531	159.2002	202.8262	223.2704	261.0415	304.7029	337.5975	429.6374	492.7485	516.1498	675.7135	746.0612	749.418	793.1503	825.4825	889.1277	960.4336	973.2294	981.6604	1006.9285	1030.6341	1043.0364	1092.7825	1109.9604	1125.9087	1137.9323	1165.8308	1174.0524	1187.181	1233.5333	1270.0963	1279.2678	1309.5371	1329.196	1346.106	1376.6342	1383.1083	1392.5408	1411.8317	1480.0612	1485.1076	1487.581	1494.1987	1500.3201	1508.1548	1510.1219	1683.8713	2952.7599	2972.8368	3010.7227	3012.2611	3021.826	3028.5204	3039.3335	3059.6736	3079.5505	3097.3408	3104.7245	3110.6898	3179.3287	3204.9353
CCC1C=CCC1OC	CC[C@H]1C=CC[C@H]1OC	
InChI=1S/C8H14O/c1-3-7-5-4-6-8(7)9-2/h4-5,7-8H,3,6H2,1-2H3	InChI=1S/C8H14O/c1-3-7-5-4-6-8(7)9-2/h4-5,7-8H,3,6H2,1-2H3/t7-,8+/m0/s1
