17
gdb 124339	2.60661	1.69084	1.0386	1.4209	77.45	-0.2483	-0.0371	0.2112	1120.2671	0.1361	-418.07082	-418.062314	-418.06137	-418.104146	31.079	
C	-0.1213772669	 1.5118946499	-0.0260212283	-0.477398
C	 0.0581949669	 0.0141011907	-0.0195972413	 0.42391
O	 1.1297475122	-0.5430038059	-0.0358534692	-0.321499
N	-1.1393495931	-0.7363939131	 0.0073672491	-0.101298
N	-2.3468024323	-0.091091227	 0.0255264486	-0.262357
C	-3.2398363389	-1.0582625757	 0.0482119818	 0.007718
C	-2.6359222792	-2.3417083744	 0.0453218741	-0.305382
C	-1.2832197341	-2.1152153564	 0.0188368511	 0.386121
C	-0.1533166342	-3.0890876846	 0.0041921296	-0.473249
H	 0.8683170231	 1.9671109686	-0.0467238031	 0.140301
H	-0.7072007355	 1.8255297229	-0.8931853225	 0.160907
H	-0.6759360384	 1.8368981832	 0.8573427217	 0.16092
H	-4.2924953241	-0.8132278967	 0.0660885149	 0.12301
H	-3.1220656739	-3.3042519414	 0.0604897318	 0.111741
H	 0.4730153866	-2.9670748863	-0.8833399852	 0.152136
H	 0.505101339	-2.9561417325	 0.8665824589	 0.152124
H	-0.5579937772	-4.1039594212	 0.017969478	 0.122295
75.9079	137.5344	147.1978	201.2601	224.4983	268.4198	328.6717	425.7932	512.1186	579.0701	652.0986	658.3632	672.018	691.4164	813.9185	911.6003	921.8466	963.1808	1008.9917	1055.9723	1057.5943	1066.1325	1102.7146	1190.131	1236.1785	1287.8396	1368.4678	1380.2252	1403.0004	1422.4888	1457.723	1466.8656	1473.1738	1476.7739	1504.867	1610.9786	1813.7325	3051.9589	3066.465	3115.3392	3130.8716	3135.0304	3170.5317	3237.5446	3264.5397
CC(=O)N1N=CC=C1C	CC(=O)n1nccc1C	
InChI=1S/C6H8N2O/c1-5-3-4-7-8(5)6(2)9/h3-4H,1-2H3	InChI=1S/C6H8N2O/c1-5-3-4-7-8(5)6(2)9/h3-4H,1-2H3
