15
gdb 62006	2.46347	1.24108	1.0761	4.4812	61.7	-0.2861	0.0229	0.309	1153.8545	0.112004	-491.132907	-491.123794	-491.12285	-491.167598	32.327	
N	 0.341693662	 0.2210580585	 0.9719154849	-0.550457
C	-0.1345019904	-0.685357228	 0.0878672319	 0.520303
O	 0.5458535245	-1.5116763791	-0.4930866021	-0.415932
O	-1.4674077164	-0.5267826883	-0.0777732452	-0.245977
C	-2.1041836312	-1.281179071	-1.1176595076	-0.111524
C	-2.2255562602	-2.7972237548	-0.848338052	-0.029324
O	-1.1114453485	-3.5429457762	-1.2473117546	-0.411438
C	-2.5777212678	-3.0342202832	 0.5745883667	 0.26907
N	-2.8401546757	-3.222805015	 1.683709589	-0.326016
H	 1.2760568439	 0.0825580547	 1.315297497	 0.28199
H	-0.3019411652	 0.7705602041	 1.5147973722	 0.280296
H	-3.0986596177	-0.8370631372	-1.1891549622	 0.138395
H	-1.5701752978	-1.1518524238	-2.0635641619	 0.145113
H	-3.0719142017	-3.1518902162	-1.4514382962	 0.13881
H	-0.3233957377	-3.0275214545	-0.9916476599	 0.316692
42.5387	72.8564	163.8011	195.6949	245.8371	250.5404	322.862	339.9521	409.2789	480.6236	542.8193	582.6867	619.7868	657.8477	723.1918	786.6237	788.5624	894.3762	945.1716	1036.5616	1112.8154	1128.6142	1148.2814	1283.8241	1308.5159	1356.7068	1365.9625	1424.8883	1477.8281	1489.1086	1615.384	1801.1963	2355.5509	3032.3519	3069.3475	3134.3826	3583.3923	3621.7627	3752.7328
NC(=O)OCC(O)C#N	NC(=O)OC[C@@H](O)C#N	
InChI=1S/C4H6N2O3/c5-1-3(7)2-9-4(6)8/h3,7H,2H2,(H2,6,8)	InChI=1S/C4H6N2O3/c5-1-3(7)2-9-4(6)8/h3,7H,2H2,(H2,6,8)/t3-/m0/s1
