15
gdb 23509	4.55555	1.28026	1.13363	1.9602	80.87	-0.2093	-0.0738	0.1355	1044.6243	0.112592	-416.625896	-416.619011	-416.618067	-416.657016	27.751	
O	-0.1423702226	 1.3585588859	 0.0205444451	-0.380848
N	-0.0196257865	-0.0259415482	-0.1558222141	-0.259142
C	-1.1117018414	-0.6259444852	 0.1421337432	 0.415264
C	-2.4832597329	-0.1111883192	 0.2854800492	-0.159899
C	-3.2645056958	-1.1998153591	 0.5055819423	 0.049839
N	-3.8188168357	-1.839489537	-0.7208378252	-0.356502
C	-2.6231030198	-2.7792320331	-0.4718442288	-0.019353
C	-2.4646187758	-2.4349097007	 0.9530090787	-0.148001
C	-1.2782629582	-2.1161719961	 0.0833057449	-0.13396
H	 0.7018499615	 1.6825996463	-0.3115201874	 0.308955
H	-2.7971602196	 0.7444788667	-0.3006855104	 0.133648
H	-4.6178961881	-2.4338733789	-0.4776326749	 0.228712
H	-2.5820317859	-3.7346274927	-0.9876760576	 0.11222
H	-2.5041252306	-3.0022144745	 1.8744771058	 0.107317
H	-0.4118894885	-2.7703034143	 0.0422883891	 0.101751
122.4237	213.1366	265.1035	391.442	422.681	454.6045	466.0408	623.6074	649.1765	688.4581	723.658	767.2122	796.8332	814.4849	848.1518	908.7782	922.2416	961.397	977.4405	997.7476	1041.2587	1047.8785	1105.6528	1115.3804	1194.7757	1211.5614	1238.4313	1261.6589	1291.4314	1349.0982	1409.3141	1545.169	1692.7547	3152.9141	3164.2187	3187.7337	3204.9192	3377.4026	3815.9379
ON=C1C=C2NC3C2C13	ON=C1[CH][C]2N[C@@H]3[C@H]2[C@H]13	
InChI=1S/C6H6N2O/c9-8-3-1-2-4-5(3)6(4)7-2/h1,4-7,9H	InChI=1S/C6H6N2O/c9-8-3-1-2-4-5(3)6(4)7-2/h1,4-7,9H/t4-,5+,6-/m1/s1
