21
gdb 95630	2.10665	1.77989	1.02639	4.0023	79.98	-0.2256	0.0579	0.2835	1193.9755	0.1847	-420.464898	-420.455756	-420.454812	-420.498756	34.447	
C	 0.0466506202	 1.5910599503	-0.0646608074	-0.402078
C	 0.0608492628	 0.0591714231	 0.0121587457	 0.060323
C	 0.6292305568	-0.5246959989	-1.2831077766	-0.199655
C	 0.8289780031	-2.0279923164	-1.1574777475	-0.178301
N	 1.676643523	-2.2660092586	-0.0069957795	-0.352283
C	 1.5353269669	-1.606530629	 1.1978501435	 0.463124
O	 2.0579607917	-2.0468333426	 2.2115181028	-0.426875
N	 0.8224856801	-0.4165695049	 1.1740671137	-0.128253
C	 0.502589993	 0.1747490774	 2.4650800459	-0.346865
H	 1.0677398258	 1.9834142249	-0.1136654633	 0.126251
H	-0.487623821	 1.9067995203	-0.9660825443	 0.116544
H	-0.4553303686	 2.0452929483	 0.7923506191	 0.123624
H	-0.9858290934	-0.2802920928	 0.1140049447	 0.073545
H	-0.0521160286	-0.2946631602	-2.1074997496	 0.103844
H	 1.5935790167	-0.0518383049	-1.5015406218	 0.114079
H	-0.1471320304	-2.533451563	-1.0694710842	 0.09951
H	 1.3205886657	-2.4293087499	-2.0496478093	 0.109938
H	 2.0832763538	-3.1793193227	 0.1185284426	 0.247379
H	 0.9806254996	-0.4298727807	 3.2333183003	 0.169813
H	 0.8704784228	 1.2030461445	 2.5417341036	 0.119293
H	-0.5837391301	 0.1842911157	 2.6335411117	 0.107041
60.677	135.3181	163.9722	191.497	244.825	268.3098	331.8139	385.1059	430.1769	447.9987	474.1275	528.5528	574.5746	679.0418	713.8228	763.7646	861.0977	932.3232	951.3349	985.897	1012.6804	1081.1451	1113.8023	1122.4568	1156.9401	1167.8137	1220.107	1226.2886	1262.6131	1291.5087	1335.9125	1359.5617	1384.7409	1400.0728	1409.0185	1428.1131	1444.3964	1470.044	1483.1319	1490.9914	1498.1455	1511.7249	1521.5566	1534.3603	1769.509	2930.1296	2962.7689	3001.7664	3038.8522	3043.8226	3065.2268	3068.4016	3095.4834	3111.0172	3124.9121	3170.4458	3640.426
CC1CCNC(=O)N1C	C[C@H]1CCNC(=O)N1C	
InChI=1S/C6H12N2O/c1-5-3-4-7-6(9)8(5)2/h5H,3-4H2,1-2H3,(H,7,9)	InChI=1S/C6H12N2O/c1-5-3-4-7-6(9)8(5)2/h5H,3-4H2,1-2H3,(H,7,9)/t5-/m0/s1
