23
gdb 60961	2.90659	0.90447	0.7495	2.8058	87.28	-0.2427	-0.0177	0.2249	1595.042	0.203625	-388.30133	-388.291002	-388.290058	-388.337553	37.543	
C	 0.0293810528	 1.5423755924	 0.1216043925	-0.414844
C	-0.1149363268	 0.0140593647	 0.0319358659	-0.085545
C	-1.5768982033	-0.3584055959	-0.1098479784	 0.170688
O	-2.1820467235	-1.1079310098	 0.6123359477	-0.255509
C	 0.6617199567	-0.5574185656	-1.1614915615	 0.043685
C	 2.2147212953	-0.4684891325	-1.1542894924	-0.25689
C	 2.2602291299	-1.8875001206	-1.7904202856	 0.051941
C	 3.3350621405	-2.8645447735	-1.3412824631	-0.407393
C	 0.7962867327	-2.0986948873	-1.3120493718	-0.257685
H	 1.0851371542	 1.8239377337	 0.1716419315	 0.130121
H	-0.4045159718	 2.031903694	-0.7580128456	 0.119805
H	-0.470376696	 1.9399798277	 1.0099909525	 0.126719
H	 0.2476383829	-0.4538255792	 0.9544077734	 0.0871
H	-2.0801211741	 0.1248959292	-0.983573229	 0.064099
H	 0.2705871264	-0.1224637382	-2.0900829621	 0.070448
H	 2.6875283368	 0.3549479108	-1.6954184705	 0.096602
H	 2.6059140125	-0.4841542713	-0.130236707	 0.097398
H	 2.2767581158	-1.7946853508	-2.8825504846	 0.07206
H	 3.3362891741	-2.9734536731	-0.2506758178	 0.111644
H	 3.1749452834	-3.8582035259	-1.774563168	 0.115997
H	 4.3326825796	-2.5267605708	-1.6439946897	 0.113826
H	 0.7641272388	-2.5946411223	-0.3353908524	 0.106212
H	 0.103420463	-2.6130637456	-1.9826472943	 0.099519
44.4643	66.9417	77.1855	162.7423	210.5369	229.5715	271.711	284.9833	299.0606	403.4077	409.8822	425.4194	508.7278	624.5047	776.3154	809.7914	891.8742	895.9489	906.8796	947.3497	953.2564	971.3884	996.7888	1020.7136	1065.2456	1111.2458	1130.2463	1143.5919	1159.9647	1192.1415	1232.2875	1234.8257	1266.4144	1267.9868	1291.2588	1302.3879	1323.3211	1367.537	1391.082	1405.0084	1410.9921	1428.6877	1475.9799	1493.7893	1495.937	1496.4011	1499.8734	1503.3278	1832.3729	2828.1175	3021.2054	3022.5918	3032.3013	3033.076	3037.6726	3045.0205	3051.1889	3090.2254	3090.9594	3098.1375	3100.7496	3104.7999	3113.443
CC(C=O)C1CC(C)C1	C[C@@H](C=O)[C@H]1C[C@@H](C)C1	
InChI=1S/C8H14O/c1-6-3-8(4-6)7(2)5-9/h5-8H,3-4H2,1-2H3	InChI=1S/C8H14O/c1-6-3-8(4-6)7(2)5-9/h5-8H,3-4H2,1-2H3/t6-,7-,8+/m0/s1
