18
gdb 6316	3.40052	1.18322	0.99104	1.6016	69.04	-0.2519	-0.0234	0.2285	1211.2662	0.149563	-384.980682	-384.970986	-384.970042	-385.016405	33.001	
C	-0.0473891644	 1.7381502205	-0.2424688293	-0.415567
C	 0.0449630365	 0.2265156802	 0.0279404721	-0.067108
C	-1.3157392606	-0.4628735112	 0.1090372811	-0.308946
C	-2.0407778152	-0.2313623478	 1.428109112	 0.378812
C	-3.4727946241	-0.7280081047	 1.4981069785	-0.473053
O	-1.5046851044	 0.3085982246	 2.3703920043	-0.29839
C	 0.960498905	-0.4390590572	-0.9789387545	 0.150453
O	 0.7255924473	-1.4636351036	-1.5685061335	-0.251896
H	 0.9474647495	 2.1905010025	-0.3106210562	 0.121945
H	-0.5749651831	 1.9412071918	-1.1810129807	 0.121391
H	-0.5841710933	 2.2297120682	 0.5716986696	 0.145978
H	 0.5433966288	 0.1088916856	 1.0027345099	 0.126073
H	-1.9670631482	-0.1535731144	-0.7187940985	 0.11892
H	-1.191755605	-1.5454874557	-0.0259506182	 0.146236
H	-3.5391443591	-1.7724156311	 1.1751026934	 0.14047
H	-3.8537229998	-0.6252786664	 2.5147308933	 0.143868
H	-4.1008195417	-0.1449943971	 0.8142351372	 0.142497
H	 1.9219199817	 0.1023425157	-1.1399478505	 0.078317
36.6675	67.0292	105.2507	116.1925	155.5811	233.5083	241.7724	318.6016	397.7406	404.7231	475.5178	581.0799	653.2466	802.2228	819.0668	864.3502	917.1952	939.1175	963.5149	993.4666	1107.3153	1127.2961	1168.3939	1178.7078	1247.951	1289.3778	1316.3374	1377.7848	1387.0874	1401.1391	1427.9488	1447.9936	1464.1748	1476.0281	1497.2733	1507.7928	1804.8641	1826.1025	2863.0293	3002.8624	3029.4081	3035.4242	3038.8462	3060.0257	3098.3194	3099.8695	3129.8222	3153.5229
CC(CC(C)=O)C=O	C[C@@H](CC(=O)C)C=O	
InChI=1S/C6H10O2/c1-5(4-7)3-6(2)8/h4-5H,3H2,1-2H3	InChI=1S/C6H10O2/c1-5(4-7)3-6(2)8/h4-5H,3H2,1-2H3/t5-/m0/s1
