20
gdb 117632	2.63694	1.0466	0.97945	4.4107	70.68	-0.2417	0.0243	0.2661	1307.9294	0.170199	-477.456588	-477.446628	-477.445684	-477.491543	37.065	
C	 0.170034666	 1.5984151859	 0.2430928794	-0.430818
C	-0.096278575	 0.0945531828	 0.0834326201	 0.105478
N	 0.3692678223	-0.7058845136	 1.2382657985	-0.577651
H	 1.1351016	-0.2333333433	 1.7088323291	 0.236872
H	-0.3856722059	-0.8210341367	 1.90979623	 0.252819
H	 1.1368245657	-1.7703141	-0.0370482161	 0.303811
C	-1.5914808962	-0.207502549	-0.1943992735	-0.216679
C	-2.5807919226	 0.1559451866	 0.9157457752	-0.103275
O	-2.4331778116	-0.639743146	 2.0955985469	-0.405912
C	 0.6596758848	-0.4086869132	-1.179868129	 0.431167
O	 1.2936984665	-1.569286062	-0.9925868809	-0.377286
O	 0.6387878802	 0.175548726	-2.2324195198	-0.362158
H	 1.2347583207	 1.7771635011	 0.429609941	 0.120417
H	-0.0962961489	 2.1318434627	-0.6715106165	 0.148965
H	-0.3908066544	 2.0161069471	 1.0837964279	 0.114941
H	-1.8692163684	 0.3268447766	-1.1084362374	 0.13384
H	-1.698245709	-1.2782928451	-0.4171221987	 0.102161
H	-2.44636781	 1.1902554725	 1.2444794172	 0.124994
H	-3.6047385399	 0.0740858156	 0.5258826206	 0.107149
H	-2.7289327244	-1.532485488	 1.8873744959	 0.291161
60.4374	73.1025	177.044	187.9121	231.5448	274.9722	294.9854	307.1882	364.931	384.4419	400.5525	447.6322	487.9107	550.4047	630.8821	729.2159	765.3315	839.9658	888.092	903.7545	934.5927	973.6729	989.3878	1005.7005	1078.8347	1089.9367	1116.533	1175.1147	1222.9255	1250.3508	1288.1886	1342.5497	1381.6581	1392.4504	1403.5956	1412.614	1447.5668	1469.89	1488.6072	1496.3141	1511.3742	1662.7342	1856.9252	3010.7027	3020.3787	3040.0708	3087.2448	3094.8632	3105.6963	3139.4215	3364.8713	3478.7365	3563.1115	3811.892
CC([NH3+])(CCO)C([O-])=O	C[C@@](N)(CCO)C(=O)O	
InChI=1S/C5H11NO3/c1-5(6,2-3-7)4(8)9/h7H,2-3,6H2,1H3,(H,8,9)	InChI=1S/C5H11NO3/c1-5(6,2-3-7)4(8)9/h7H,2-3,6H2,1H3,(H,8,9)/t5-/m1/s1
