17
gdb 29789	2.51533	1.52439	0.96003	3.2071	72.54	-0.167	0.0437	0.2106	1181.632	0.135571	-455.158712	-455.14907	-455.148126	-455.193016	35.146	
C	-0.0603271437	 1.4797655899	 0.0120409233	-0.339388
N	 0.0715252252	 0.0404011989	-0.0141686944	-0.048636
C	 0.1077466062	-0.7460971913	-1.174154676	-0.239035
C	 0.1394553555	-2.0536668733	-0.7720949207	 0.316714
O	 0.1975689883	-3.1629734344	-1.5528078914	-0.453479
C	 0.1119765954	-2.0935517457	 0.6569581935	-0.083447
N	 0.1457045679	-3.3086750667	 1.3962336129	-0.6427
C	 0.0653916542	-0.7764488124	 1.0708799784	 0.34457
O	 0.0141579844	-0.2290452055	 2.3144060109	-0.445384
H	 0.622984332	 1.9281180375	-0.7151413764	 0.134913
H	-1.0823299382	 1.7999693771	-0.2256363793	 0.13188
H	 0.1967922664	 1.8454296763	 1.0067854343	 0.153159
H	 0.1164767012	-0.2924419284	-2.149464216	 0.110721
H	 0.2060582038	-3.9065170465	-0.9325458948	 0.29048
H	-0.6774837216	-3.4747373538	 1.9642577878	 0.237146
H	 0.9722482749	-3.426264017	 1.9716382362	 0.236649
H	 0.0760138582	-0.9525261146	 2.9471215714	 0.295838
61.9963	117.805	184.0951	193.4535	231.1182	267.3923	285.7201	300.3043	313.1156	347.1546	521.3107	568.0983	581.5998	599.342	624.5421	651.1808	695.5202	711.4783	776.8068	938.3322	1070.7597	1123.4356	1150.109	1178.6159	1189.7082	1232.1077	1285.0519	1310.2248	1400.8183	1449.3246	1467.6977	1491.2941	1511.0888	1582.4376	1614.4722	1648.7403	1671.9738	3023.2304	3087.3385	3147.615	3283.538	3496.2557	3567.5644	3733.1356	3821.6836
CN1C=C(O)C(N)=C1O	Cn1cc(O)c(N)c1O	
InChI=1S/C5H8N2O2/c1-7-2-3(8)4(6)5(7)9/h2,8-9H,6H2,1H3	InChI=1S/C5H8N2O2/c1-7-2-3(8)4(6)5(7)9/h2,8-9H,6H2,1H3
