18
gdb 80262	2.65011	1.53161	1.37358	3.2649	79.26	-0.218	-0.0566	0.1613	1022.5513	0.148467	-401.952958	-401.945049	-401.944105	-401.985358	30.557	
C	 0.0441880831	 1.6760489952	-0.0298199593	-0.43141
C	 0.0194421173	 0.1670474507	-0.0388339587	 0.00943
C	 0.5007720706	-0.6963610946	-1.1897515728	-0.098387
C	 1.1439319463	-0.1095910272	-2.3714315503	-0.015731
C	 2.2881849526	 0.5920233276	-2.3154094523	-0.201727
C	 3.0152966311	 0.7649589422	-1.0499551103	 0.355331
O	 3.987364343	 1.4863914362	-0.9391395439	-0.334994
C	 2.5331775782	-0.0681192153	 0.147038206	-0.269603
N	 1.1994012973	-0.6707184422	 0.1042220265	-0.121444
H	 0.7636987309	 2.1029315997	-0.7312242997	 0.141844
H	-0.9470796831	 2.0623756973	-0.2873699879	 0.127789
H	 0.2900628211	 2.0446252925	 0.9724114405	 0.133667
H	-0.8335037737	-0.2484527866	 0.4980440234	 0.101454
H	-0.0575466923	-1.611105413	-1.3820986342	 0.101287
H	 0.6508828721	-0.2799170587	-3.3260334314	 0.112348
H	 2.7416779174	 1.0317191624	-3.1975367102	 0.112716
H	 3.2613823278	-0.880569649	 0.2669837449	 0.138979
H	 2.6211206303	 0.5524198529	 1.0440579996	 0.138452
77.4344	176.536	180.2625	230.8871	312.3164	425.8578	439.3444	452.6012	518.3714	561.9572	626.3265	701.6269	749.7755	775.3797	812.2697	863.7483	914.4786	976.0526	995.0502	1013.661	1050.6008	1067.1073	1104.2765	1152.8427	1162.7492	1174.6802	1245.0908	1260.0591	1332.507	1340.7778	1377.358	1409.8346	1424.3675	1426.9403	1457.3356	1492.5174	1498.9778	1666.7079	1769.8868	3029.3893	3040.021	3088.2346	3097.5392	3098.78	3116.0984	3133.454	3153.4211	3193.8663
CC1C2C=CC(=O)CN12	C[C@H]1[C@H]2C=CC(=O)CN12	
InChI=1S/C7H9NO/c1-5-7-3-2-6(9)4-8(5)7/h2-3,5,7H,4H2,1H3	InChI=1S/C7H9NO/c1-5-7-3-2-6(9)4-8(5)7/h2-3,5,7H,4H2,1H3/t5-,7+,8?/m0/s1
