15
gdb 67359	3.01732	1.96323	1.38738	3.0814	64.31	-0.2756	-0.006	0.2696	890.4731	0.113855	-457.753406	-457.746811	-457.745867	-457.78415	26.602	
O	 0.0625990305	 1.4199629401	 0.0433603756	-0.486556
C	 0.0086383279	 0.0500341005	 0.035059177	 0.280724
C	 0.0923222997	-0.8357456863	 1.3410640682	-0.130628
C	-1.4061061496	-0.5476558826	 1.6106179453	-0.275341
C	-1.340135626	-0.7717952912	 0.078917618	-0.130616
C	-0.3297667927	-1.9217230295	 0.3196142363	 0.110075
O	 0.6274588726	-1.9763052242	-0.7695924561	-0.241996
C	 0.8727390657	-0.658416673	-0.981301054	 0.400926
O	 1.612428148	-0.1852726645	-1.7969647048	-0.369745
H	 0.685973475	 1.6738146744	-0.6528736076	 0.302918
H	 0.9215240455	-0.8802394635	 2.0472062891	 0.096015
H	-1.9539740442	-1.2925584533	 2.1947216657	 0.101663
H	-1.6459833076	 0.4650656324	 1.9342017651	 0.13208
H	-2.1455484854	-0.7436540656	-0.6550646948	 0.095983
H	-0.6334935495	-2.9214229337	 0.6134112971	 0.114498
153.5105	262.2538	309.8078	335.1502	401.5307	426.4779	545.6232	618.5845	687.3341	707.0952	735.232	833.1768	861.866	909.6385	911.4887	926.2599	966.7586	997.2987	1029.763	1067.9678	1098.841	1107.1856	1139.9491	1144.3755	1178.6988	1209.9862	1237.8079	1266.2874	1334.2032	1375.0719	1413.351	1520.2655	1893.5493	3062.7487	3120.935	3123.0218	3142.3017	3186.0094	3735.1659
OC12C3CC1C3OC2=O	O[C@@]12[C@H]3C[C@@H]1[C@H]3OC2=O	
InChI=1S/C6H6O3/c7-5-6(8)2-1-3(6)4(2)9-5/h2-4,8H,1H2	InChI=1S/C6H6O3/c7-5-6(8)2-1-3(6)4(2)9-5/h2-4,8H,1H2/t2-,3+,4-,6-
