19
gdb 35805	2.95841	1.43048	1.12869	1.0198	79.93	-0.2464	0.0495	0.2959	1111.6862	0.160148	-385.851436	-385.843443	-385.842498	-385.884271	31.222	
C	-0.1145462544	-1.2406547796	 0.0301010377	-0.462898
C	-0.0613096132	-0.0392456504	 0.0379911239	 0.321064
C	 0.0041476845	 1.4115044548	 0.0687267624	-0.190599
C	-0.4942055522	 2.0398486099	 1.3967746791	-0.10599
O	 0.0434610559	 3.3501700124	 1.4062440836	-0.253555
C	 1.3445467984	 3.2935332772	 0.8442040888	 0.107902
C	 2.4625752247	 2.706243559	 1.7543286998	-0.244604
C	 2.5350813164	 1.4407451785	 0.8511907571	-0.238232
C	 1.4204683085	 2.0236414788	-0.0636651102	-0.047611
H	-0.167333506	-2.3010462789	 0.0144703867	 0.195654
H	-0.6125861552	 1.817960469	-0.7419371473	 0.110106
H	-1.582175939	 2.1151964888	 1.4561422681	 0.119801
H	-0.1393068602	 1.4447732217	 2.2515065499	 0.102041
H	 1.5506581801	 4.2702455197	 0.4018826448	 0.079723
H	 3.3757418551	 3.3054998641	 1.7784865289	 0.101858
H	 2.1358850961	 2.5357522005	 2.7831609646	 0.109317
H	 3.4913737572	 1.30323604	 0.3425700442	 0.104066
H	 2.2725235328	 0.4979451177	 1.3368892094	 0.113248
H	 1.7002201405	 2.167933937	-1.1075638615	 0.078708
58.667	133.9013	160.2918	238.8806	332.801	410.5342	489.0838	501.8764	598.1831	628.5779	635.5526	643.7295	730.5988	754.3491	822.1053	866.2361	899.6154	947.5738	959.6975	982.7141	1009.8446	1038.2412	1057.0542	1106.8831	1115.6965	1143.0564	1201.6369	1216.9504	1236.5734	1246.9013	1269.0347	1269.4048	1297.8455	1306.8649	1333.8371	1355.4252	1388.1243	1469.6388	1490.2647	1517.1073	2234.7034	2995.1318	3033.0445	3062.8233	3069.4952	3085.6812	3102.1245	3107.0711	3109.9694	3127.6396	3503.8825
C#CC1COC2CCC12	C#C[C@H]1CO[C@H]2CC[C@@H]12	
InChI=1S/C8H10O/c1-2-6-5-9-8-4-3-7(6)8/h1,6-8H,3-5H2	InChI=1S/C8H10O/c1-2-6-5-9-8-4-3-7(6)8/h1,6-8H,3-5H2/t6-,7-,8-/m0/s1
