21
gdb 9403	5.16351	0.7719	0.73156	3.9777	77.56	-0.2386	0.0335	0.2721	1612.0582	0.187483	-366.29734	-366.287264	-366.28632	-366.333352	34.609	
C	 0.0600486213	 1.5518650771	-0.1081256119	-0.381098
C	-0.0030880323	 0.0285124073	 0.0315034423	-0.161461
C	-1.4321304949	-0.5204020785	-0.0382046763	-0.167346
C	-1.4809258519	-2.0481426256	 0.105013395	-0.182686
N	-2.8194606402	-2.611289571	 0.0534673478	-0.027022
C	-3.5210657671	-2.649808706	-1.2179887642	-0.347501
C	-3.4198024925	-3.116681886	 1.1686760379	 0.151317
O	-4.5337204341	-3.5955237031	 1.2205194106	-0.344625
H	 1.0908743123	 1.9144294271	-0.0508981088	 0.115431
H	-0.3557172042	 1.879153237	-1.0674336399	 0.116451
H	-0.5118772873	 2.0454146822	 0.6851195226	 0.118127
H	 0.6037205498	-0.4375233198	-0.756173143	 0.098437
H	 0.4551235311	-0.2712636226	 0.9834704342	 0.098745
H	-2.045619195	-0.0718115139	 0.7535031234	 0.104521
H	-1.8889765592	-0.2229750085	-0.9903246661	 0.10202
H	-0.8695243851	-2.512667352	-0.6816615115	 0.105869
H	-1.0342395873	-2.3379975515	 1.062995651	 0.115407
H	-2.9082856627	-3.1506460191	-1.9771568136	 0.121372
H	-4.4467878369	-3.2055834425	-1.0681186103	 0.168606
H	-3.7644826924	-1.6439670449	-1.5785437082	 0.127568
H	-2.7571482113	-3.0444707659	 2.0541116389	 0.067868
45.6028	71.1439	93.5352	121.0632	142.6853	225.4679	248.5777	295.2729	338.2995	369.7254	384.4325	445.1837	706.458	737.3632	796.3996	877.9402	912.1426	942.7973	1013.4133	1028.5675	1061.7385	1091.6764	1126.5676	1141.2891	1163.5276	1244.0678	1276.2267	1293.5475	1318.0963	1330.5558	1384.0877	1406.0495	1415.5093	1433.2557	1438.9932	1444.0095	1481.7974	1486.681	1498.0504	1499.4328	1500.7995	1512.1215	1522.1418	1794.8886	2930.7889	3003.4462	3012.467	3022.255	3026.6693	3032.7026	3038.3595	3056.0557	3072.9725	3078.6131	3099.5331	3105.2386	3155.0905
CCCCN(C)C=O	CCCCN(C)C=O	
InChI=1S/C6H13NO/c1-3-4-5-7(2)6-8/h6H,3-5H2,1-2H3	InChI=1S/C6H13NO/c1-3-4-5-7(2)6-8/h6H,3-5H2,1-2H3
