23
gdb 59336	3.0824	1.08432	0.98294	1.6335	82.	-0.249	0.0734	0.3224	1354.1688	0.203447	-425.43085	-425.42064	-425.419696	-425.465614	38.939	
C	-0.2030152517	 1.4955678291	 0.108246557	-0.404386
C	-0.1412013336	-0.0293852622	-0.0120425629	 0.11121
O	-1.4239007943	-0.5772396277	-0.2827134072	-0.439041
C	 0.8507770336	-0.4682636074	-1.0898150542	 0.141716
C	 0.997677164	-1.9725820692	-1.3795812568	-0.358684
C	 0.5453851831	-1.6152284763	-2.8192206183	 0.441156
C	 1.6494547485	-1.658475367	-3.8683925179	-0.422712
C	-0.7380001429	-2.2709852159	-3.3047680063	-0.443228
O	 0.3004399992	-0.2255705847	-2.4113191608	-0.360845
H	 0.7563572891	 1.906730962	 0.4402950973	 0.109533
H	-0.4468282447	 1.9435803295	-0.861263464	 0.127261
H	-0.9740921261	 1.7839318947	 0.8270125974	 0.122195
H	 0.1754460329	-0.4636688864	 0.9450091987	 0.085497
H	-1.6098848422	-0.3303343608	-1.1986856249	 0.284104
H	 1.8057833407	 0.0587641665	-0.9586987008	 0.068579
H	 2.0025327369	-2.387002212	-1.2833569285	 0.100334
H	 0.2844410942	-2.5914714293	-0.8330327483	 0.119709
H	 1.9054016391	-2.6937110094	-4.1189221869	 0.114885
H	 1.3255511525	-1.1535685878	-4.784092924	 0.122379
H	 2.552517547	-1.1591359135	-3.5053780144	 0.117067
H	-1.5049922098	-2.2384024571	-2.5267777727	 0.125289
H	-1.1171151306	-1.7588041141	-4.1954827844	 0.120785
H	-0.5582336651	-3.3194861209	-3.5658738771	 0.117197
70.1467	84.0793	162.781	217.1225	230.5975	247.6811	260.8617	312.269	343.1481	364.9547	413.0103	444.3475	477.91	508.4432	614.3432	673.0488	750.9284	867.2024	875.5057	914.3517	922.0384	953.0867	966.2995	982.7738	1010.8226	1041.0257	1050.9479	1072.5775	1128.3454	1159.1367	1175.8789	1241.5304	1276.4937	1279.3385	1293.4765	1315.6132	1341.2484	1392.5397	1400.1852	1400.598	1412.3608	1430.2055	1475.8644	1482.774	1485.5362	1492.7611	1495.4985	1498.6942	1509.439	3006.727	3030.6655	3033.5309	3034.0464	3036.4752	3078.7383	3099.6331	3103.0068	3107.2388	3111.4171	3121.4061	3122.2956	3137.9619	3759.9362
CC(O)C1CC(C)(C)O1	C[C@@H](O)[C@H]1CC(C)(C)O1	
InChI=1S/C7H14O2/c1-5(8)6-4-7(2,3)9-6/h5-6,8H,4H2,1-3H3	InChI=1S/C7H14O2/c1-5(8)6-4-7(2,3)9-6/h5-6,8H,4H2,1-3H3/t5-,6-/m1/s1
