19
gdb 117894	2.28606	0.71339	0.57207	2.291	77.99	-0.2583	0.0262	0.2844	1936.3471	0.155558	-460.101619	-460.090304	-460.08936	-460.140271	37.787	
C	-0.6753496704	 1.0515224328	-0.8297289751	-0.225063
O	-0.8046783734	-0.3372946717	-0.6375434022	-0.226403
C	-0.8496775656	-0.7031751484	 0.7170963167	-0.062733
C	-1.0207472052	-2.2286793866	 0.8108238488	-0.059821
O	-0.8493727064	-2.6518456806	 2.1611714278	-0.417201
C	-2.2948355127	-2.6734691212	 0.247485934	 0.061822
C	-3.3693872897	-3.0231093501	-0.1722531184	 0.032525
C	-4.6519918149	-3.5091575081	-0.6792642876	-0.18931
O	-4.5643260912	-4.76039652	-1.3448632931	-0.40062
H	-0.6456081249	 1.2300938937	-1.9070679893	 0.130773
H	-1.5263756998	 1.6033054129	-0.4003095229	 0.105797
H	 0.2500220018	 1.4421814757	-0.3778180077	 0.105929
H	 0.081845424	-0.4355870002	 1.2406945814	 0.098413
H	-1.6852034069	-0.2050286047	 1.2387990765	 0.081232
H	-0.1975140706	-2.686434727	 0.2500835102	 0.129463
H	-1.6820716855	-2.4957854964	 2.6196678483	 0.285485
H	-5.3775211513	-3.5449923148	 0.149832323	 0.116711
H	-5.0533135916	-2.8056941453	-1.4173199895	 0.144104
H	-4.0860992158	-5.3628221399	-0.765570581	 0.288896
23.6597	55.1633	83.6066	107.2425	130.7522	170.2987	211.1341	236.3637	251.469	287.1886	329.0985	397.8349	414.5931	519.344	563.3448	599.5798	739.1353	971.6116	992.8303	1009.5966	1029.8482	1056.6205	1094.0526	1155.113	1176.4599	1182.6418	1216.4737	1227.3378	1238.7339	1263.867	1338.7162	1356.4084	1404.7037	1413.3591	1421.3266	1480.0976	1485.6338	1490.2193	1501.7751	1524.8599	2353.9295	2952.9668	2971.2361	2973.3559	2999.8153	3016.7392	3052.7135	3062.9013	3117.5908	3812.0876	3816.6895
COCC(O)C#CCO	COC[C@@H](O)C#CCO	
InChI=1S/C6H10O3/c1-9-5-6(8)3-2-4-7/h6-8H,4-5H2,1H3	InChI=1S/C6H10O3/c1-9-5-6(8)3-2-4-7/h6-8H,4-5H2,1H3/t6-/m0/s1
