14
gdb 132975	3.28241	1.42093	0.99788	7.5185	67.68	-0.2418	-0.0307	0.211	1092.0716	0.101371	-478.029557	-478.021823	-478.020879	-478.062604	27.725	
C	-0.0096269455	 1.505739749	 0.0067840766	-0.352363
N	-0.0164331497	 0.0440133723	 0.011328714	-0.146035
C	-1.174839143	-0.6951138489	-0.154591879	 0.027106
C	-1.146759218	-2.0386741416	-0.1453961927	-0.253623
C	 0.1187809895	-2.7624069529	 0.0417103099	 0.385589
O	 0.2044428567	-3.9707009112	 0.0587806982	-0.354904
N	 1.2638244759	-1.939796104	 0.205392577	-0.398615
C	 1.1284519428	-0.680956905	 0.1808878889	 0.420243
F	 2.1894562782	 0.1047618537	 0.3324880386	-0.06907
H	 0.6181057976	 1.888932906	-0.801096878	 0.16246
H	-1.0326643112	 1.8514999271	-0.143318021	 0.147589
H	 0.3624138716	 1.8957219751	 0.9570910227	 0.162468
H	-2.0770049304	-0.1111533138	-0.2882387581	 0.142614
H	-2.0529719946	-2.614908726	-0.2752232871	 0.126542
62.6909	87.1246	207.4134	219.1666	321.8466	386.3539	431.0062	488.4793	546.2804	598.6104	711.4652	753.3453	761.3806	790.6313	846.888	964.2161	975.1423	1029.4288	1152.2774	1152.5838	1201.0716	1254.8492	1298.6865	1401.5811	1447.9357	1481.4684	1481.8331	1518.6487	1622.2501	1729.9187	1794.1837	3056.9744	3126.2933	3153.7609	3208.1069	3232.8337
CN1C=CC(=O)N=C1F	Cn1ccc(=O)nc1F	
InChI=1S/C5H5FN2O/c1-8-3-2-4(9)7-5(8)6/h2-3H,1H3	InChI=1S/C5H5FN2O/c1-8-3-2-4(9)7-5(8)6/h2-3H,1H3
