21
gdb 90348	2.96212	1.3963	1.13831	1.5129	85.17	-0.2329	0.0233	0.2563	1154.911	0.184297	-387.07987	-387.071826	-387.070881	-387.112166	32.115	
C	-0.2168891133	 1.5206814798	-0.1305643645	-0.394557
C	-0.0257086745	 0.0111137364	-0.0322649379	-0.014912
C	 1.1810159592	-0.5239220902	-0.8941265687	-0.334881
C	 1.9712262385	-0.5626675226	 0.3934907046	 0.348923
C	 3.1838525298	-0.2621903723	 0.8340157946	-0.271991
C	 3.3801166293	-0.0358682655	 2.3146967562	-0.0955
O	 2.2097086444	-0.22433773	 3.0951472986	-0.256037
C	 1.0107593837	 0.2867881412	 2.5144637472	-0.118499
C	 0.7278259656	-0.5146682003	 1.2486835075	-0.061482
H	 0.7293939623	 2.0545386031	 0.0085113523	 0.120715
H	-0.6062488117	 1.7931080727	-1.1173999318	 0.114396
H	-0.9248926173	 1.8883826054	 0.6197806417	 0.115476
H	-0.9757213999	-0.4963061388	-0.2216227757	 0.069157
H	 0.9781164573	-1.5187469967	-1.3055838455	 0.107794
H	 1.5470970772	 0.1198250617	-1.6998226463	 0.104102
H	 4.0349035953	-0.0887060832	 0.1803396483	 0.086573
H	 4.1224122328	-0.7280708987	 2.7314843279	 0.116219
H	 3.7804181572	 0.9839268559	 2.4668178203	 0.092914
H	 0.241831962	 0.1748606385	 3.2842993692	 0.102505
H	 1.1155209658	 1.3580988165	 2.2858788749	 0.08728
H	 0.3603046562	-1.512171553	 1.5161280071	 0.081807
92.2553	191.8577	239.8638	268.1788	290.0021	327.4647	373.688	426.4549	486.6199	521.415	655.4613	755.0262	777.0647	815.7958	834.5039	870.4643	895.3193	923.1264	972.0868	1005.8211	1025.4363	1044.5485	1070.9651	1084.3158	1101.3119	1150.0243	1152.272	1167.9868	1208.6506	1237.9058	1250.6428	1272.2455	1293.8329	1312.5322	1359.4683	1360.8828	1374.7297	1408.4837	1410.0885	1474.4868	1488.8681	1495.4871	1499.2501	1506.7236	1774.6162	2930.9972	2993.1278	3028.642	3032.1625	3037.2795	3038.9891	3061.0496	3083.0347	3088.1219	3095.0188	3100.6088	3159.8602
CC1CC2=CCOCC12	C[C@H]1C[C]2[CH]COC[C@@H]12	
InChI=1S/C8H12O/c1-6-4-7-2-3-9-5-8(6)7/h2,6,8H,3-5H2,1H3	InChI=1S/C8H12O/c1-6-4-7-2-3-9-5-8(6)7/h2,6,8H,3-5H2,1H3/t6-,8-/m0/s1
