19
gdb 40016	3.54712	1.44051	1.19515	1.0356	82.8	-0.2221	0.0149	0.237	1079.9675	0.160214	-385.86234	-385.854906	-385.853962	-385.894059	30.508	
C	-0.1432506358	 1.4633553588	 0.0827767285	-0.319517
C	 1.2721930257	 0.9461220314	-0.0186236955	-0.319183
C	 0.0917015703	-0.0134897709	-0.0401310719	 0.415481
O	-0.1788474459	-0.7149071904	 1.1513612716	-0.305316
C	 0.2031014822	-2.065595131	 1.1668383981	 0.080742
C	-0.9108154609	-3.0708067669	 1.0534397814	-0.303568
C	 0.0551294381	-2.8499307372	-0.104453784	-0.100666
C	-0.3151970201	-2.069238749	-1.3101480188	-0.115152
C	-0.2508682033	-0.7374248738	-1.2876814177	-0.114704
H	-0.4810868095	 1.8077121372	 1.053386711	 0.126651
H	-0.5735860818	 1.9858128636	-0.7648862	 0.114265
H	 1.8268665724	 1.1077352218	-0.9363494572	 0.11398
H	 1.8686063992	 0.9459861846	 0.8865601491	 0.122513
H	 1.0411696478	-2.2716887059	 1.8288241867	 0.088954
H	-0.8380012804	-3.9994098171	 1.6093517602	 0.109524
H	-1.9092647626	-2.6607693604	 0.9541046112	 0.123883
H	 0.774221819	-3.6473263076	-0.2731769517	 0.09577
H	-0.5939400447	-2.6041264597	-2.213229013	 0.092724
H	-0.4523376597	-0.1393166377	-2.171421808	 0.093619
86.7371	175.7854	277.4316	318.7925	346.6259	448.2241	472.9754	537.7365	583.2155	669.8911	739.7453	766.8875	775.3914	821.4045	840.9617	887.1431	908.2034	928.0729	960.0432	971.8288	986.4794	1022.9529	1034.1876	1049.7695	1055.7024	1078.4762	1097.3765	1120.8309	1162.6712	1183.2908	1192.9503	1227.9809	1286.5276	1301.5701	1367.3239	1396.8639	1434.3146	1452.4115	1473.6659	1488.914	1702.6269	3121.8296	3133.6757	3133.7557	3136.3342	3139.7279	3160.0497	3181.6924	3219.6476	3231.2805	3234.0282
C1CC11OC2CC2C=C1	C1CC21O[C@H]1C[C@H]1C=C2	
InChI=1S/C8H10O/c1-2-8(3-4-8)9-7-5-6(1)7/h1-2,6-7H,3-5H2	InChI=1S/C8H10O/c1-2-8(3-4-8)9-7-5-6(1)7/h1-2,6-7H,3-5H2/t6-,7+/m1/s1
