18
gdb 12858	2.84457	2.3635	1.71816	1.6785	66.47	-0.2508	0.0699	0.3207	829.8085	0.154994	-384.924085	-384.916888	-384.915944	-384.955451	27.48	
C	-0.1003306368	 1.5312917596	 0.0018258355	-0.491347
C	-0.0091348707	 0.0155437621	-0.0220093796	 0.278861
C	-1.230490188	-0.8215172811	 0.4163168419	-0.128984
O	-0.4126755057	-1.6310500484	 1.2883638353	-0.295917
C	 0.7111307724	-0.7323670318	 1.1282135265	 0.070044
C	 1.9603095416	-1.3705378035	 0.5054674078	-0.099357
O	 2.0610084426	-0.8227297288	-0.8059268237	-0.249496
C	 0.7399307352	-0.5492770381	-1.2504274976	-0.140201
H	 0.8879815219	 1.9790113222	-0.1484467261	 0.131099
H	-0.7569705459	 1.9004957782	-0.7943335265	 0.120374
H	-0.4950929923	 1.8949313534	 0.9559900538	 0.118781
H	-1.9802367365	-0.2517896438	 0.9815314955	 0.096383
H	-1.7362636137	-1.4179129509	-0.3525096816	 0.102647
H	 0.9081661645	-0.1726262374	 2.0497225779	 0.076355
H	 2.8878356077	-1.1336609909	 1.0339032984	 0.107377
H	 1.8271054821	-2.4625300009	 0.480231834	 0.103837
H	 0.2540772627	-1.4686383868	-1.6152508511	 0.091575
H	 0.8107379191	 0.159480577	-2.0800686406	 0.10797
95.4544	176.1336	234.2847	262.3342	337.4423	375.5607	422.3322	591.6548	674.9281	684.3316	832.4093	869.9223	911.7338	937.3414	951.0758	980.8631	999.1849	1019.8879	1043.7651	1081.8485	1103.915	1157.1871	1181.0236	1197.1994	1214.8975	1256.7343	1271.9355	1297.0365	1338.1723	1355.0679	1366.897	1397.6867	1415.2282	1493.5961	1497.2048	1498.2979	1512.4853	1526.158	2972.5629	2997.2507	3006.0433	3026.4452	3039.2687	3055.8418	3087.0974	3092.0637	3092.8643	3101.8877
CC12COC1COC2	C[C@]12CO[C@H]1COC2	
InChI=1S/C6H10O2/c1-6-3-7-2-5(6)8-4-6/h5H,2-4H2,1H3	InChI=1S/C6H10O2/c1-6-3-7-2-5(6)8-4-6/h5H,2-4H2,1H3/t5-,6-/m0/s1
