16
gdb 29035	2.63781	1.68992	1.05975	3.0126	85.82	-0.231	-0.0788	0.1522	1094.3113	0.125019	-400.790751	-400.782865	-400.781921	-400.823737	29.358	
C	-0.3712469028	 1.4995580506	 0.0121112744	-0.439335
C	-0.0911910967	 0.022754673	-0.0108835699	 0.220082
N	 0.0584725679	-0.5347093749	-1.167912896	-0.288853
C	 0.2553867342	-1.8470467318	-1.4756142279	-0.002902
C	 0.0773402529	-2.9673175753	-0.7192187816	-0.089325
C	-0.2134203232	-3.0243526495	 0.6733615745	-0.074842
C	-0.2175111865	-2.0071768696	 1.5734234436	-0.157366
C	 0.0268597214	-0.5833504118	 1.3653691376	 0.289349
O	 0.2217398157	 0.1624432857	 2.3177172283	-0.347254
H	 0.4592546371	 2.0252448204	 0.4949919509	 0.157123
H	-0.5117369596	 1.8679487851	-1.0035173957	 0.130465
H	-1.2523463183	 1.7154271493	 0.6258642298	 0.142834
H	 0.5234161905	-1.9941422735	-2.5204130043	 0.116115
H	 0.1668369022	-3.9184554532	-1.2364286651	 0.107754
H	-0.4057062477	-4.0190861611	 1.0690458951	 0.11476
H	-0.4073322473	-2.2418133432	 2.6174761463	 0.121394
42.3209	144.3294	176.2843	312.922	335.1067	350.8243	402.0668	423.4483	513.5943	607.8876	652.2762	695.2125	719.1105	834.8803	877.2932	897.4133	939.9261	977.1851	998.1838	1028.3387	1042.7574	1126.3165	1153.7234	1238.8364	1313.8178	1327.9345	1393.2164	1430.3913	1453.6411	1462.255	1488.8351	1553.0229	1649.2661	1657.603	1708.3484	3044.51	3097.3506	3140.0833	3151.2853	3161.8048	3173.0887	3180.5004
CC1=NC=CC=CC1=O	Cc1nccccc1=O	
InChI=1S/C7H7NO/c1-6-7(9)4-2-3-5-8-6/h2-5H,1H3	InChI=1S/C7H7NO/c1-6-7(9)4-2-3-5-8-6/h2-5H,1H3
