17
gdb 22433	4.66686	1.13541	1.07619	2.032	78.89	-0.2185	-0.0128	0.2057	1134.9257	0.135807	-417.801008	-417.793664	-417.79272	-417.83272	29.457	
O	-0.0967905295	 1.4089620582	 0.2016026896	-0.384289
N	 0.0825904145	 0.0179488843	 0.1690513492	-0.240964
C	-1.0128252373	-0.5842634716	-0.0191883569	 0.363071
C	-2.5014072074	-0.1666844608	-0.2613311082	-0.418228
C	-2.6222490821	-1.6200953172	-0.8106133391	 0.230617
C	-3.0128929681	-3.1375175995	-0.8404915718	-0.251056
N	-1.4939351242	-3.1685281925	-1.2087682454	-0.174996
C	-1.8353530261	-1.9663549571	-2.0962789036	-0.184088
C	-1.3902320914	-2.0730346902	-0.0632252526	-0.050836
H	 0.8017507068	 1.7272756833	 0.3432524658	 0.311033
H	-3.0180217638	 0.0118358896	 0.6870138336	 0.131961
H	-2.6860639712	 0.6696447224	-0.9392606403	 0.131266
H	-3.2458541672	-3.6169547677	 0.1129960414	 0.112599
H	-3.6412137689	-3.5135660471	-1.6525593316	 0.110564
H	-2.4096244485	-2.2309466763	-2.9879710261	 0.098557
H	-0.9651266325	-1.3562078188	-2.3507839561	 0.119246
H	-1.4750723431	-2.5246868492	 0.9284928622	 0.095542
90.4479	183.4213	269.9354	332.8775	391.3753	402.8629	461.4129	496.2031	591.6539	639.7036	671.0879	738.3168	814.1865	828.1427	866.9179	883.9633	907.1997	975.8225	992.7289	1001.0231	1028.9535	1063.9935	1075.2328	1101.3074	1152.5757	1167.482	1171.7184	1192.3573	1200.2712	1227.3072	1275.4741	1315.7473	1399.7851	1459.6318	1504.91	1542.3389	1765.4369	3052.8199	3056.6347	3059.1342	3076.1464	3119.4142	3121.5357	3131.3901	3811.7189
ON=C1CC23CN(C2)C13	ON=C1C[C@@]23CN(C2)[C@@H]13	
InChI=1S/C6H8N2O/c9-7-4-1-6-2-8(3-6)5(4)6/h5,9H,1-3H2	InChI=1S/C6H8N2O/c9-7-4-1-6-2-8(3-6)5(4)6/h5,9H,1-3H2/t5-/m0/s1
