17
gdb 28726	3.36572	1.03133	0.83633	1.9029	79.92	-0.1845	-0.0215	0.163	1346.802	0.136299	-418.049846	-418.040866	-418.039922	-418.084811	32.334	
N	 0.2416874213	 1.3374939155	-0.0609070981	-0.607433
C	-0.0050540981	-0.0459435641	-0.0132051797	 0.290739
C	-1.1537275096	-0.7807118247	 0.1895064161	-0.207862
C	-0.7745649492	-2.1542729108	 0.2273968517	-0.223745
C	 0.5864134375	-2.225152099	 0.0460086634	 0.274703
C	 1.5269731203	-3.3859120535	-0.0524070293	-0.382484
C	 2.092382573	-3.4289470283	-1.463157956	 0.154072
O	 3.2025783383	-3.0642245458	-1.7589158901	-0.251081
N	 1.0427864381	-0.9255968506	-0.1005777251	-0.31021
H	 0.5516662332	 1.6480865677	-0.9771755977	 0.245914
H	-0.5934532115	 1.856959248	 0.1782173732	 0.249086
H	-2.1497324352	-0.3774617507	 0.2906802647	 0.084053
H	-1.4308404688	-3.0005057163	 0.3656170766	 0.091462
H	 2.3621008361	-3.3127429571	 0.6540587725	 0.119985
H	 0.9696424356	-4.3060494424	 0.1497482049	 0.125306
H	 1.3665728392	-3.7661476947	-2.2367392426	 0.081715
H	 2.0084790298	-0.6563177633	-0.1898790946	 0.26578
34.1297	64.2312	137.5868	160.9073	251.7976	261.4162	361.2465	415.2521	478.336	490.4133	615.4389	647.2848	671.4326	709.5561	757.8842	810.3766	822.637	865.053	984.7962	1004.2258	1023.9286	1054.5929	1064.0563	1139.0763	1183.8377	1212.5074	1282.4715	1292.8732	1309.0215	1415.8845	1434.6575	1460.0479	1481.4448	1550.8794	1630.8339	1658.51	1819.3203	2883.4328	3032.6529	3097.1829	3238.0247	3253.1893	3495.4636	3604.8274	3665.6331
NC1=CC=C(CC=O)N1	Nc1ccc(CC=O)[nH]1	
InChI=1S/C6H8N2O/c7-6-2-1-5(8-6)3-4-9/h1-2,4,8H,3,7H2	InChI=1S/C6H8N2O/c7-6-2-1-5(8-6)3-4-9/h1-2,4,8H,3,7H2
