18
gdb 100488	3.51751	0.60554	0.56534	2.492	81.54	-0.2739	0.0116	0.2855	1972.55	0.14515	-401.931873	-401.921325	-401.920381	-401.969687	36.174	
C	-0.3588411834	 1.4812302976	 0.5413636619	-0.386886
C	-0.8438699461	 0.0352655624	 0.6530103052	-0.176883
C	-1.2658438023	-0.5485125918	-0.7102244699	-0.054391
O	-0.2115807595	-0.4993284142	-1.6680073831	-0.41203
C	-1.7950947374	-1.9099240683	-0.5656607267	 0.064313
C	-2.182530893	-3.0413980927	-0.4350645478	 0.11048
C	-2.6695047962	-4.4112911175	-0.2938517149	-0.476298
C	-1.9081921083	-5.1953902053	 0.6884260096	 0.278886
N	-1.3146211028	-5.8199101909	 1.456869437	-0.299068
H	-0.0186201199	 1.8543551388	 1.5114325683	 0.114746
H	 0.4680768848	 1.5566770488	-0.1689204608	 0.132781
H	-1.1608439124	 2.1404999645	 0.1911664786	 0.11633
H	-0.0563794756	-0.6043352885	 1.0719837935	 0.103176
H	-1.6964695782	-0.0372215933	 1.3379172425	 0.110311
H	-2.0498547983	 0.091279962	-1.1354765231	 0.119041
H	 0.4548100999	-1.1415149648	-1.3975373467	 0.285882
H	-3.7245082124	-4.4132061336	 0.0092041802	 0.184607
H	-2.628218269	-4.9356617333	-1.257309544	 0.185001
14.9669	55.6854	88.1763	120.1192	182.4333	220.2788	276.7691	286.6566	317.1399	355.2582	375.6703	395.0245	499.944	549.445	617.8331	766.9157	810.9832	887.9626	933.3644	935.4801	980.3807	1060.6258	1093.795	1115.7677	1164.6899	1234.676	1252.8146	1293.7689	1328.2102	1336.8283	1374.519	1406.2885	1420.5205	1446.2961	1480.5997	1494.2061	1508.5543	2367.9991	2375.6107	3024.1198	3026.7157	3035.3248	3039.7985	3057.0432	3070.8747	3106.2907	3128.2853	3798.9863
CCC(O)C#CCC#N	CC[C@@H](O)C#CCC#N	
InChI=1S/C7H9NO/c1-2-7(9)5-3-4-6-8/h7,9H,2,4H2,1H3	InChI=1S/C7H9NO/c1-2-7(9)5-3-4-6-8/h7,9H,2,4H2,1H3/t7-/m1/s1
