16
gdb 7128	7.3267	0.86374	0.7801	3.2126	63.72	-0.2534	-0.0215	0.2318	1375.3176	0.130034	-417.084339	-417.075441	-417.074497	-417.118679	30.476	
O	 0.0291255448	 1.4086791201	-0.0400856972	-0.427059
C	 0.2041173081	-0.0020701993	-0.0258686864	-0.07614
C	-1.1895895203	-0.6111761091	 0.0224122881	-0.272989
C	-1.1854936003	-2.1210852454	 0.0431893511	 0.385444
N	-0.1098046723	-2.7905645676	 0.0170860685	-0.502437
N	-2.4964475257	-2.6608586868	 0.0933713653	-0.340458
C	-2.8436640832	-3.9878658245	 0.1221530723	 0.168766
O	-2.0750065577	-4.9228446939	 0.1092420606	-0.298897
H	 0.900083141	 1.8140900664	-0.0743026181	 0.288548
H	 0.7323109021	-0.3596177457	-0.9195645155	 0.109873
H	 0.7829151683	-0.3353937936	 0.8456598328	 0.10963
H	-1.7158704827	-0.2330088598	 0.9094594308	 0.125401
H	-1.7657619591	-0.2576484758	-0.8435548464	 0.125684
H	-0.3011848123	-3.7924225282	 0.0368760925	 0.252958
H	-3.2599430932	-2.0007191994	 0.1097757798	 0.257693
H	-3.9427949776	-4.1169604374	 0.1598658619	 0.093983
55.5128	79.0278	123.7443	140.8226	253.8324	260.9522	264.5833	336.9353	418.4726	538.2352	557.2229	605.2563	813.4148	824.2507	932.601	972.7688	1015.2032	1026.2796	1056.0707	1085.6786	1101.0901	1190.2742	1212.8568	1240.4713	1301.2079	1307.2366	1389.8732	1440.5674	1462.3605	1475.842	1509.2802	1521.7566	1739.2411	1814.4889	2946.5565	3010.0555	3019.6548	3035.7632	3060.2534	3490.9457	3611.7956	3836.0797
OCCC(=N)NC=O	OCCC(=N)NC=O	
InChI=1S/C4H8N2O2/c5-4(1-2-7)6-3-8/h3,7H,1-2H2,(H2,5,6,8)	InChI=1S/C4H8N2O2/c5-4(1-2-7)6-3-8/h3,7H,1-2H2,(H2,5,6,8)
