18
gdb 95525	2.60174	1.64279	1.30916	1.146	73.23	-0.2399	0.0163	0.2562	1020.2579	0.148663	-439.08073	-439.07262	-439.071676	-439.113428	31.048	
O	 0.1052120463	 1.4123594381	-0.0869881204	-0.436212
C	 0.0319328843	-0.0053307143	-0.0046400503	 0.01976
C	 0.722202491	-0.516462714	 1.2590812572	-0.09269
O	-0.027338831	-0.1518506215	 2.4307407349	-0.231113
C	-1.3732976104	-0.2738653742	 2.315386468	 0.086471
N	-2.0679210178	-0.4635789887	 1.2730725647	-0.31153
C	-1.3955137497	-0.5233468941	 0.0027065799	 0.349508
C	-2.2617728139	-0.2747432555	-1.2067355255	-0.307266
C	-1.7929904456	-1.6713164259	-0.9022737738	-0.311591
H	-0.4776677027	 1.7806797623	 0.5859381259	 0.29184
H	 0.5740813018	-0.3751783358	-0.8808270842	 0.089282
H	 0.8227995471	-1.6090046388	 1.22826689	 0.112886
H	 1.7068159545	-0.0623929956	 1.3807656387	 0.125212
H	-1.8454498718	-0.1691034139	 3.2898742057	 0.128155
H	-3.3008573566	-0.03897687	-1.0110079391	 0.125154
H	-1.8133652508	 0.2581960293	-2.0374606816	 0.1243
H	-1.0235081156	-2.1111645254	-1.5285942896	 0.11252
H	-2.5144660991	-2.3731197418	-0.5014464904	 0.125312
73.1486	145.4114	196.5187	244.509	290.1861	318.7944	386.7181	434.1952	476.9647	613.6737	650.0327	730.749	777.0133	857.294	882.7918	906.2603	935.1021	935.5307	952.1956	982.155	1016.6773	1034.3681	1053.2595	1078.9942	1113.0415	1164.9065	1191.7826	1237.4328	1275.1856	1299.8576	1306.5457	1366.3307	1391.2267	1414.4656	1428.0441	1458.7492	1490.1741	1495.3786	1716.3666	3027.8746	3066.0865	3122.656	3134.2302	3143.4762	3165.187	3223.5444	3239.1107	3811.3926
OC1COC=NC11CC1	O[C@H]1COC=NC21CC2	
InChI=1S/C6H9NO2/c8-5-3-9-4-7-6(5)1-2-6/h4-5,8H,1-3H2	InChI=1S/C6H9NO2/c8-5-3-9-4-7-6(5)1-2-6/h4-5,8H,1-3H2/t5-/m0/s1
