20
gdb 115071	2.88591	1.45337	1.1602	0.9148	79.7	-0.2217	0.0138	0.2355	1109.9809	0.172815	-403.125707	-403.117572	-403.116628	-403.158239	32.13	
O	 0.0178497067	 1.5094845	 0.0673641403	-0.420298
C	 0.0274324455	 0.0905930205	 0.0027021826	-0.081378
C	-1.3753660405	-0.5263939351	 0.0455180966	 0.03889
C	-2.1033686015	-0.2132962963	 1.3723378197	-0.279547
C	-3.5605462899	-0.5749960998	 1.3013083516	-0.104425
C	-4.2227354687	-0.5722718991	 0.1427284915	-0.032412
C	-3.5639392805	-0.214790488	-1.1358362999	-0.065736
C	-2.8438217083	 1.0974757733	-1.2397928889	-0.265266
N	-2.0966570406	-0.155988153	-1.1800597435	-0.112613
H	-0.3063107255	 1.8309982543	-0.779279224	 0.294305
H	 0.5454442613	-0.2605949375	-0.9001562986	 0.097923
H	 0.5986175978	-0.2485327254	 0.8737786223	 0.105354
H	-1.249333829	-1.6155598567	-0.0187607199	 0.082936
H	-1.6116886918	-0.7632705736	 2.1837886482	 0.102225
H	-1.9680704679	 0.849389433	 1.6122045202	 0.129002
H	-4.0696103469	-0.8403105943	 2.223315302	 0.090644
H	-5.2724152601	-0.8466007524	 0.0954992454	 0.088833
H	-4.0195822292	-0.6182934861	-2.0376566115	 0.090624
H	-2.7992116015	 1.6174330326	-2.1944412777	 0.112516
H	-2.8813634094	 1.7435531636	-0.3670420665	 0.128424
95.8654	121.4972	241.1331	261.638	290.1389	328.4022	375.0343	454.7934	516.3633	563.827	638.6499	707.9435	732.1979	777.8358	829.888	891.3308	915.0991	929.3254	963.0684	983.437	993.7906	1049.3194	1066.1956	1077.5198	1103.4963	1114.1091	1117.4433	1158.404	1194.9277	1210.4953	1235.3348	1297.5578	1321.6929	1356.2205	1361.5283	1387.351	1403.3623	1416.6435	1424.1333	1479.6341	1491.9682	1505.8123	1708.7968	3006.3669	3020.7184	3023.9547	3054.3976	3075.2014	3098.1919	3123.6932	3159.1371	3181.6891	3188.7786	3831.7047
OCC1CC=CC2CN12	OC[C@H]1CC=C[C@H]2CN12	
InChI=1S/C7H11NO/c9-5-7-3-1-2-6-4-8(6)7/h1-2,6-7,9H,3-5H2	InChI=1S/C7H11NO/c9-5-7-3-1-2-6-4-8(6)7/h1-2,6-7,9H,3-5H2/t6-,7+,8?/m0/s1
