16
gdb 113289	2.48431	1.18852	0.90522	3.2284	73.72	-0.2529	-0.0455	0.2073	1271.208	0.121309	-437.819216	-437.809724	-437.80878	-437.85394	33.861	
O	 0.1921366029	 1.2536822521	 0.030177638	-0.416489
C	 0.1269669803	-0.1134622013	 0.4079108213	-0.093985
C	-1.3040055953	-0.597151558	 0.313275336	-0.062238
N	-1.7929798768	-0.8808342155	-1.0248345968	-0.350249
C	-1.7021797907	-2.0173706703	-0.0685491893	 0.02487
C	-0.6537878843	-3.0618505299	-0.3788176189	 0.101524
O	 0.3138006405	-2.8775076127	-1.0675622009	-0.239342
C	-2.9140221901	-2.5385084215	 0.5060933817	 0.231134
C	-3.9194587062	-3.0114454613	 0.9669080592	-0.402525
H	-0.0059222869	 1.2881880414	-0.9123971018	 0.293874
H	 0.7782641186	-0.7388752965	-0.2094856542	 0.134844
H	 0.4691059079	-0.1637933856	 1.4464423454	 0.114014
H	-1.9900855305	-0.1202539571	 1.0110929856	 0.111656
H	-2.7718272345	-0.6203669004	-1.1209648882	 0.250982
H	-0.8518239756	-4.0404607213	 0.1067493882	 0.095813
H	-4.8099192693	-3.4177358423	 1.3798589246	 0.206117
65.3338	110.6888	126.4089	144.2681	176.9539	246.6461	279.0812	374.1394	401.1775	448.0366	525.7574	541.8343	584.6779	609.0802	676.1195	735.0106	816.7801	880.2545	979.9676	1005.2765	1036.7269	1053.4105	1074.3601	1089.7312	1175.3282	1250.2054	1270.4679	1314.53	1376.3902	1414.645	1426.426	1458.3645	1501.519	1828.8757	2232.9403	2915.057	3054.0219	3104.5629	3134.3668	3498.791	3504.8931	3805.3702
OCC1NC1(C=O)C#C	OC[C@H]1N[C@]1(C=O)C#C	
InChI=1S/C6H7NO2/c1-2-6(4-9)5(3-8)7-6/h1,4-5,7-8H,3H2	InChI=1S/C6H7NO2/c1-2-6(4-9)5(3-8)7-6/h1,4-5,7-8H,3H2/t5-,6+/m1/s1
