13
gdb 129272	5.50956	1.03195	0.9172	2.7398	62.08	-0.2608	-0.0352	0.2257	1199.2125	0.088775	-489.835704	-489.828435	-489.827491	-489.868435	26.108	
N	-0.2058862638	 1.2267890195	 0.2969638527	-0.57204
C	-0.023592017	 0.0106340694	 0.0718424337	 0.507379
O	 1.1190608429	-0.6601340831	-0.2736095503	-0.240102
N	 0.8087582394	-2.0345984791	-0.4349049584	-0.17756
C	-0.4407990019	-2.1091869588	-0.1675166122	 0.457231
O	-1.028550913	-0.9278643666	 0.1392692031	-0.207262
C	-1.2655936082	-3.3334032026	-0.157634664	-0.069974
C	-0.626847159	-4.6540715273	-0.1694216344	-0.159741
O	-1.1901896977	-4.1269761662	 1.0304029065	-0.209074
H	 0.6572788193	 1.7543813886	 0.1961631718	 0.249917
H	-2.2687812438	-3.2006531699	-0.5575636877	 0.133744
H	-1.1656444777	-5.486860263	-0.6164323961	 0.133366
H	 0.4581722805	-4.7164933209	-0.1897225147	 0.154117
50.03	126.036	176.6685	224.1157	363.6956	425.3921	516.4656	631.9192	714.7093	747.2011	768.2	784.5161	855.0319	899.1332	915.0309	930.3957	985.2576	1012.1927	1064.2353	1098.912	1163.2875	1168.1167	1246.7758	1284.1554	1311.4762	1465.8007	1526.2983	1692.3737	1822.1449	3104.4228	3141.4897	3201.5537	3550.6713
N=C1ON=C(O1)C1CO1	[NH][C@@H]1ON=C(O1)[C@H]1CO1	
InChI=1S/C4H4N2O3/c5-4-8-3(6-9-4)2-1-7-2/h2,5H,1H2	InChI=1S/C4H5N2O3/c5-4-8-3(6-9-4)2-1-7-2/h2,4-5H,1H2/t2-,4+/m1/s1
