16
gdb 29871	3.25395	1.44428	1.00662	5.4196	77.68	-0.2035	-0.0084	0.1951	1127.3738	0.12654	-434.116795	-434.108679	-434.107735	-434.150266	29.908	
C	 0.0082610066	 1.4841052089	-0.0039006657	-0.337485
N	 0.011267019	 0.0260542262	-0.0141065289	-0.135206
C	-1.1593128299	-0.7173592538	-0.1321518922	-0.002287
C	-1.1341099686	-2.0572422541	-0.1393764161	-0.157186
C	 0.1353658889	-2.773836392	-0.0223281601	 0.324819
N	 0.1662435511	-4.0553222915	-0.0285812024	-0.548818
N	 1.2870035671	-1.9695339531	 0.0943237433	-0.446218
C	 1.1715050685	-0.6915293638	 0.0924099543	 0.500296
O	 2.2603773061	 0.0925246044	 0.2028689668	-0.410314
H	 0.5944425295	 1.8837632726	-0.8356657511	 0.153229
H	-1.0230529778	 1.8257906525	-0.1006882609	 0.139452
H	 0.4245252895	 1.8710490512	 0.929996365	 0.15323
H	-2.0657854204	-0.1314251704	-0.2151946938	 0.130669
H	-2.0456123801	-2.6317762596	-0.2312616806	 0.118092
H	 1.1373844311	-4.3603223437	 0.0627106329	 0.204708
H	 3.0064163595	-0.5203034036	 0.2702719594	 0.313018
41.3795	92.0793	192.7216	218.5268	327.6577	364.3955	417.9214	485.2184	534.876	553.8289	596.5889	695.0088	756.2982	757.997	788.1793	827.9956	895.667	956.0405	958.1619	1031.172	1124.2319	1152.3948	1173.5598	1233.9177	1256.4148	1335.0413	1343.3575	1425.4067	1467.9589	1478.9861	1500.9631	1528.6825	1623.3455	1690.9207	1732.431	3049.2087	3113.1499	3145.691	3211.2282	3235.9853	3459.1561	3770.979
CN1C=CC(=N)N=C1O	CN1C=CC(=N[C@H]1O)[NH]	
InChI=1S/C5H7N3O/c1-8-3-2-4(6)7-5(8)9/h2-3H,1H3,(H2,6,7,9)	InChI=1S/C5H8N3O/c1-8-3-2-4(6)7-5(8)9/h2-3,5-6,9H,1H3/t5-/m1/s1
