19
gdb 66341	2.79147	1.26168	1.22146	2.9845	78.35	-0.2385	-0.0302	0.2083	1134.4885	0.158574	-423.041137	-423.032413	-423.031468	-423.074483	32.726	
C	-0.0201310422	 1.5942795192	-0.0487887352	-0.438301
C	 0.0179824176	 0.0634732011	-0.0374363238	 0.117722
C	 0.778449352	-0.4905030054	-1.262812814	-0.129762
O	 1.0004062862	-1.8842545313	-1.1619691258	-0.250357
C	 1.8586438357	-2.2306521806	-0.0922195843	-0.122835
C	 1.5412996062	-1.4967161954	 1.1792660264	-0.088077
C	 0.7003157469	-0.464939186	 1.210121696	-0.089121
C	-1.4012221343	-0.5135241721	-0.0371148547	 0.139373
O	-2.3987098561	 0.1157531119	 0.2066883927	-0.257885
H	 0.9889105621	 2.0073453477	 0.0401501746	 0.115062
H	-0.4697834143	 1.9672925962	-0.9744555559	 0.123231
H	-0.6269401649	 1.9657099839	 0.7800597635	 0.137619
H	 0.2061425583	-0.3394617975	-2.1837045914	 0.115963
H	 1.7315529166	 0.0535932863	-1.36174249	 0.097786
H	 1.748702152	-3.3120965663	 0.0486912667	 0.12456
H	 2.9137154631	-2.052284936	-0.3703834467	 0.105535
H	 2.05003497	-1.8343680191	 2.0782783305	 0.10251
H	 0.4690149418	 0.0424780561	 2.1430582107	 0.10203
H	-1.4376226865	-1.5994843926	-0.2671264192	 0.094947
79.624	111.6217	202.8202	223.9121	248.538	291.4124	318.0036	368.8555	419.3018	477.3565	512.7681	626.1484	717.9913	748.1751	827.8552	900.6144	909.4127	920.5465	991.0391	998.359	1012.9671	1033.0201	1056.8611	1123.9635	1168.1927	1198.2447	1200.718	1251.8915	1266.0363	1320.469	1361.9818	1397.6531	1407.28	1412.4036	1425.3784	1484.5884	1489.4742	1492.6859	1498.9105	1710.0996	1820.6952	2912.9486	2940.7271	2976.6682	3042.8424	3056.2972	3077.1978	3111.5296	3129.5796	3153.9476	3176.2968
CC1(COCC=C1)C=O	C[C@]1(COCC=C1)C=O	
InChI=1S/C7H10O2/c1-7(5-8)3-2-4-9-6-7/h2-3,5H,4,6H2,1H3	InChI=1S/C7H10O2/c1-7(5-8)3-2-4-9-6-7/h2-3,5H,4,6H2,1H3/t7-/m1/s1
