21
gdb 59680	2.11015	1.38759	0.96771	1.8854	83.93	-0.2531	0.0217	0.2748	1296.0939	0.180237	-387.039958	-387.030037	-387.029092	-387.074833	36.734	
C	-0.0507732879	 1.556120856	-0.0842183446	-0.395862
C	 0.0443698183	 0.0310941808	 0.0708226951	 0.010448
C	 0.8139141406	-0.3472143005	 1.3438575148	-0.396854
C	-1.3496086131	-0.5898514242	 0.0661675349	-0.017068
C	-2.2230718847	-0.4703988115	-1.2001286304	-0.100781
O	-2.4869321184	-1.8892676749	-1.2138846038	-0.27546
C	-1.5377254915	-2.1310458484	-0.1462263743	-0.085455
C	-0.3836543813	-2.904724134	-0.5843655974	 0.365021
C	 0.5592386376	-3.5570070167	-0.9477276027	-0.475451
H	 0.9459195826	 2.0078031237	-0.1128099871	 0.114966
H	-0.5699297018	 1.8396462687	-1.0058322167	 0.115412
H	-0.5939082228	 2.0042337425	 0.7564921816	 0.112657
H	 0.5925273088	-0.3696023757	-0.7919890756	 0.086015
H	 0.9128434372	-1.4318316613	 1.4428252697	 0.124923
H	 1.8215248543	 0.0809277909	 1.3327997731	 0.111869
H	 0.3020314782	 0.0324135999	 2.2366405956	 0.108523
H	-1.8953609503	-0.2719306574	 0.9605112257	 0.082032
H	-3.1448418961	 0.1152475356	-1.116967982	 0.105509
H	-1.6761162722	-0.1527325093	-2.0985859751	 0.101853
H	-2.0226934922	-2.6472650288	 0.6914718065	 0.105274
H	 1.3886946349	-4.1364811554	-1.2706938374	 0.202431
62.9513	100.3088	119.2941	190.4763	215.4699	232.9816	252.7569	307.8738	333.712	392.9737	448.6236	531.9538	576.2192	625.7207	668.2479	741.0013	819.4939	882.9807	912.4099	933.5439	965.9206	981.9906	988.4325	1022.1298	1037.2119	1095.9794	1142.463	1164.4456	1178.6291	1203.7339	1245.6382	1268.7053	1305.5914	1347.7049	1352.6522	1357.7865	1400.6438	1403.8207	1422.7888	1488.0172	1494.5011	1506.3441	1512.3471	1525.2598	2227.8564	3005.669	3019.4077	3024.2503	3024.4611	3028.9197	3051.6183	3070.226	3089.2535	3094.9478	3100.8553	3113.243	3502.3834
CC(C)C1COC1C#C	CC(C)[C@H]1CO[C@H]1C#C	
InChI=1S/C8H12O/c1-4-8-7(5-9-8)6(2)3/h1,6-8H,5H2,2-3H3	InChI=1S/C8H12O/c1-4-8-7(5-9-8)6(2)3/h1,6-8H,5H2,2-3H3/t7-,8+/m1/s1
