18
gdb 55642	2.84848	1.13151	0.9848	1.96	74.58	-0.2657	0.0352	0.3009	1260.5944	0.143852	-439.100257	-439.089984	-439.08904	-439.134995	37.979	
C	 0.0629039538	 1.5923823977	 0.0108249664	-0.422128
C	 0.0327043051	 0.0560596513	 0.0720813455	 0.184049
C	 0.8257636381	-0.4969872808	 1.2682032519	-0.421222
O	-1.3464072856	-0.4314034133	 0.0979864757	-0.309564
C	-2.1657342485	-0.0979936764	 1.1255467925	 0.505454
N	-3.4085256224	-0.6143839373	 0.8876884983	-0.554692
O	-1.8752572894	 0.5700398764	 2.0926859079	-0.404473
C	 0.5712489394	-0.4987647811	-1.1756485092	 0.337568
C	 1.0559659529	-0.9310378569	-2.1857418494	-0.465682
H	 1.0929924477	 1.9279473479	-0.1343030355	 0.125147
H	-0.5354755247	 1.9441548085	-0.8331184827	 0.12845
H	-0.3302879413	 2.0108478536	 0.9368622588	 0.156506
H	 0.4344487543	-0.0854977488	 2.1980366182	 0.156384
H	 0.7546825006	-1.5872481291	 1.2914004098	 0.125765
H	 1.8786938975	-0.2238993576	 1.1608028863	 0.125109
H	-3.5174203361	-1.3186995685	 0.1783580813	 0.266602
H	-4.0473294199	-0.6124881927	 1.6637738301	 0.268148
H	 1.4776136185	-1.3160798431	-3.0813058059	 0.198579
78.8442	105.8471	131.209	189.3351	239.4336	242.7807	259.034	317.742	324.986	388.6045	393.173	419.6151	515.7851	562.8974	569.8116	622.17	643.4086	672.7517	757.2312	783.2049	842.7502	936.3851	961.9578	1027.2425	1040.7917	1112.4207	1174.7683	1192.9755	1267.2911	1367.413	1387.9769	1408.5636	1473.2088	1491.9358	1493.797	1512.8402	1607.8174	1816.124	2242.8426	3055.2538	3059.0152	3126.8207	3130.2264	3163.0966	3166.079	3502.0625	3616.1499	3748.0956
CC(C)(OC(N)=O)C#C	CC(C)(OC(=O)N)C#C	
InChI=1S/C6H9NO2/c1-4-6(2,3)9-5(7)8/h1H,2-3H3,(H2,7,8)	InChI=1S/C6H9NO2/c1-4-6(2,3)9-5(7)8/h1H,2-3H3,(H2,7,8)
