19
gdb 93119	2.02673	1.74348	1.30296	3.3179	80.55	-0.2341	0.0138	0.2479	1077.5941	0.160651	-382.085388	-382.076876	-382.075932	-382.118364	32.133	
C	 0.0282829565	 1.4693266657	-0.0215776713	-0.331904
N	 0.0596742906	 0.0146955075	-0.0038667599	-0.057061
C	 0.5248897462	-0.5444253582	-1.271626425	-0.200975
C	 0.6957242476	-2.0343018586	-1.2127262694	-0.047514
C	 0.6583718175	-2.7232194984	-0.0760726224	-0.055416
C	 0.4647616749	-2.0545450677	 1.2564188875	-0.268984
C	 0.7397417316	-0.5419154893	 1.157951781	-0.134364
C	 2.2026598699	-0.2643242967	 1.1504613612	 0.274015
N	 3.3279192695	-0.0025497545	 1.0982928386	-0.335481
H	 1.0260317851	 1.9276486607	-0.1368441721	 0.120661
H	-0.5975338567	 1.8043773093	-0.8543951469	 0.125395
H	-0.4164297812	 1.8413268106	 0.9069328797	 0.121362
H	-0.216413296	-0.2863946228	-2.0397867844	 0.116179
H	 1.4774158023	-0.0824586376	-1.6009889284	 0.111182
H	 0.8673747382	-2.5333875819	-2.1618177961	 0.097992
H	 0.7754751722	-3.8029050098	-0.0808085187	 0.095747
H	-0.5641693914	-2.1908957572	 1.6120648688	 0.123868
H	 1.1218125805	-2.498075069	 2.0127880333	 0.123331
H	 0.3349756725	-0.046576812	 2.0476857444	 0.121967
100.4398	131.6287	149.6227	231.4887	248.4017	335.0569	362.5414	397.3701	433.9155	474.9671	607.158	624.4041	673.8494	750.96	815.2339	905.9333	939.072	953.4782	994.4706	1025.274	1032.2908	1065.9752	1084.8111	1152.4097	1167.8507	1179.3049	1227.3395	1256.0501	1286.902	1309.9456	1362.0606	1367.6229	1402.7671	1419.2744	1461.6212	1470.186	1482.6445	1496.2476	1510.6606	1734.3449	2338.7506	2903.7369	2959.6187	3024.5325	3028.1119	3049.4424	3064.8365	3069.5589	3106.59	3162.5353	3184.5576
CN1CC=CCC1C#N	CN1CC=CC[C@H]1C#N	
InChI=1S/C7H10N2/c1-9-5-3-2-4-7(9)6-8/h2-3,7H,4-5H2,1H3	InChI=1S/C7H10N2/c1-9-5-3-2-4-7(9)6-8/h2-3,7H,4-5H2,1H3/t7-/m0/s1
