20
gdb 18369	3.04147	2.14124	1.53787	1.3739	73.27	-0.2555	0.0718	0.3273	892.8718	0.179449	-349.007366	-349.000011	-348.999067	-349.038858	29.257	
O	-0.0153915499	 1.4222326927	 0.0010000766	-0.438851
C	 0.0304531638	 0.0079265077	 0.1061513121	 0.134477
C	 0.5314158738	-0.525991346	 1.4634016934	-0.255509
C	-0.0169408349	-1.962976191	 1.5087444678	-0.220577
C	-1.410118578	-1.8609792612	 0.8606029907	-7.*^-6
C	-2.5185080984	-1.197795751	 1.7324710444	-0.223752
C	-2.480881996	 0.0703790344	 0.8335126054	-0.219174
C	-1.3787314328	-0.5824295141	-0.0489904619	-0.01058
H	 0.8768742586	 1.7592319973	 0.1268697312	 0.280699
H	 0.6687917124	-0.4087753827	-0.6912466724	 0.059323
H	 1.6203500944	-0.4744139479	 1.5668144959	 0.084573
H	 0.0971296844	 0.085376608	 2.263469914	 0.106758
H	 0.6238479519	-2.6245250328	 0.9130670314	 0.094045
H	-0.0517625871	-2.3768604435	 2.5219170785	 0.094835
H	-1.7157189637	-2.7955037796	 0.3856085756	 0.058851
H	-3.4723859184	-1.7308990073	 1.7233357285	 0.094752
H	-2.2355551238	-1.0366882191	 2.7776895608	 0.091675
H	-3.4122373571	 0.2714223029	 0.2996092287	 0.094942
H	-2.1677908056	 0.9930478856	 1.3255365578	 0.111947
H	-1.6525117034	-0.7082802125	-1.0979098786	 0.061573
79.959	186.3364	242.9182	265.3258	346.911	381.9917	515.8241	570.9057	583.9085	738.8564	745.838	817.5549	821.8435	870.9809	893.5379	945.6539	958.1032	960.7514	986.1206	1023.2907	1067.7608	1078.87	1095.8944	1154.7817	1172.3815	1188.0839	1209.0651	1232.9684	1245.9072	1259.1022	1269.2901	1282.8049	1302.0561	1321.4228	1342.8784	1343.5015	1378.5752	1423.2466	1479.2271	1487.8268	1493.525	1506.925	2950.7939	3028.472	3036.5801	3045.5374	3069.6411	3072.1971	3074.5407	3084.2179	3090.0626	3097.573	3125.6649	3821.2274
OC1CCC2CCC12	O[C@H]1CC[C@H]2CC[C@@H]12	
InChI=1S/C7H12O/c8-7-4-2-5-1-3-6(5)7/h5-8H,1-4H2	InChI=1S/C7H12O/c8-7-4-2-5-1-3-6(5)7/h5-8H,1-4H2/t5-,6-,7+/m1/s1
