19
gdb 68551	2.4046	1.87866	1.50879	1.6914	79.1	-0.2268	0.0027	0.2295	979.8574	0.158342	-385.826678	-385.81887	-385.817926	-385.858359	31.849	
C	 0.0249884918	 1.5168312133	-0.0695934577	-0.519017
C	-0.0390100326	 0.0201279514	 0.0217859078	 0.276181
O	 0.3836823405	-0.710937795	-1.1878849014	-0.318081
C	-0.2854200935	-1.8403772782	-0.539766897	-0.085619
C	 0.5772025638	-2.020432998	 0.7256808788	-0.081179
C	 0.7446366796	-0.7541232802	 1.1095247862	-0.116703
C	-1.340479969	-0.8311194754	-0.03958288	 0.416348
C	-2.5437627756	-0.9377866326	 0.826466782	-0.355523
C	-2.6611270173	-0.4791430152	-0.6256264042	-0.35663
H	 1.0563342091	 1.843328678	-0.2354307902	 0.135909
H	-0.5878720278	 1.8812096068	-0.8982609673	 0.132383
H	-0.3316900444	 1.9743005263	 0.8591357148	 0.122395
H	-0.5019571815	-2.6838391777	-1.1941993883	 0.078455
H	 0.9152010676	-2.9472962738	 1.1650845306	 0.109125
H	 1.2637796457	-0.3303839653	 1.9571811873	 0.10667
H	-2.9154485204	-1.9252259945	 1.0819939702	 0.112864
H	-2.6903888939	-0.1957013419	 1.6054121223	 0.111958
H	-2.8867365888	 0.5670025939	-0.8095580568	 0.114395
H	-3.1107463431	-1.1596873216	-1.3418281171	 0.116071
170.5648	177.8852	208.3824	226.4755	317.2685	333.6871	466.3698	544.2302	576.108	627.9182	648.8568	725.7006	747.0598	767.4262	805.7001	852.7306	866.4921	885.5289	898.9097	916.4444	954.2015	977.2572	1021.7954	1048.8017	1060.5657	1076.9419	1108.9388	1145.971	1178.4042	1187.6462	1208.6656	1250.8827	1284.8231	1327.9381	1398.4871	1415.8854	1459.2044	1477.9232	1493.6038	1512.564	1617.5457	3040.2467	3109.4048	3119.8169	3120.6895	3123.4636	3132.6952	3196.087	3210.2437	3225.395	3254.1073
CC12OC(C=C1)C21CC1	C[C@@]12O[C@@H](C=C1)C12CC1	
InChI=1S/C8H10O/c1-7-3-2-6(9-7)8(7)4-5-8/h2-3,6H,4-5H2,1H3	InChI=1S/C8H10O/c1-7-3-2-6(9-7)8(7)4-5-8/h2-3,6H,4-5H2,1H3/t6-,7+/m0/s1
