14
gdb 67123	2.91062	1.67887	1.39411	3.1897	70.6	-0.2408	-0.0903	0.1505	918.9511	0.100048	-436.559688	-436.552705	-436.55176	-436.590866	27.698	
O	-0.3066989634	 1.4925310274	 0.1546940712	-0.454878
C	-0.0152507935	 0.1615880725	 0.0403286005	 0.331494
C	-0.8739458188	-1.0146430301	-0.0779607349	-0.081916
N	-0.2676967464	-1.5047423612	-1.4103446165	-0.345396
C	 0.841227774	-0.6324053629	-0.977155776	 0.023697
C	 1.9307341674	-1.2098088375	-0.4270686409	-0.221518
C	 1.6218016277	-1.3152303413	 1.0546204592	 0.383629
O	 2.2789332545	-1.8295797889	 1.9223364351	-0.322031
C	 0.1729300124	-0.8704288251	 1.1376183055	-0.231963
H	 0.4354795153	 1.9375053082	 0.581845523	 0.300266
H	-1.9223994839	-1.1953051405	 0.1391936855	 0.128609
H	-0.8564978516	-1.0273778458	-2.0999690903	 0.240228
H	 2.4710000892	-2.0320874634	-0.884050892	 0.137236
H	-0.3139246828	-0.7524315114	 2.1025589907	 0.112543
123.1697	228.1375	269.7552	322.2539	423.4159	446.1358	462.7593	584.0997	594.5176	617.1212	697.7228	740.3253	779.4494	806.3421	875.1834	896.7155	944.1873	979.9228	983.0038	1031.3226	1080.8053	1093.3421	1138.7408	1169.832	1229.6772	1244.1358	1275.7138	1302.4376	1489.8044	1575.091	1808.5555	3159.2037	3171.3673	3195.1116	3394.7864	3781.8237
OC12C3NC1=CC(=O)C23	O[C@@]12[C@H]3N[C]1[CH]C(=O)[C@@H]23	
InChI=1S/C6H5NO2/c8-2-1-3-6(9)4(2)5(6)7-3/h1,4-5,7,9H	InChI=1S/C6H5NO2/c8-2-1-3-6(9)4(2)5(6)7-3/h1,4-5,7,9H/t4-,5+,6+/m1/s1
