17
gdb 86012	2.37919	1.61845	1.28396	3.3297	69.33	-0.2525	-0.0504	0.2021	1024.868	0.134747	-458.975268	-458.966818	-458.965874	-459.007987	32.344	
O	-0.5467299397	 1.2663645469	-0.8834433065	-0.439041
C	-0.0574514942	 0.1406068744	-0.1751573031	 0.08968
C	-1.160589783	-0.869088884	 0.2249242307	-0.30293
C	-1.1552531579	-1.9503880239	-0.8896065592	 0.27365
O	-1.506607016	-3.2569462975	-0.4643163219	-0.487407
C	-2.1605991917	-1.6218262454	-1.9959354362	 0.148388
O	-2.3309123722	-0.5151063127	-2.4449648463	-0.256032
C	 0.2549987703	-1.8279823447	-1.449711339	-0.160031
C	 0.8547323473	-0.7107340713	-1.0423933083	-0.080908
H	-1.1091905864	 0.9243586034	-1.5963292955	 0.290668
H	 0.4555991156	 0.5536687982	 0.6988198566	 0.085844
H	-0.8992439841	-1.3697053226	 1.1630457001	 0.100084
H	-2.1264003254	-0.3779461853	 0.357657766	 0.12066
H	-0.8237482138	-3.5647246981	 0.1406384307	 0.282929
H	-2.7266015291	-2.4992665323	-2.3695643733	 0.111174
H	 0.6509720067	-2.5710317647	-2.1332396387	 0.111736
H	 1.8416629936	-0.37751848	-1.3431490261	 0.111536
114.7939	146.1539	174.6286	247.1794	267.6094	314.9283	360.578	403.4842	439.4391	503.9275	576.5484	609.8606	644.267	751.6997	804.2157	829.4604	858.5055	920.8361	963.8568	976.2628	992.2143	1032.7929	1078.3227	1104.033	1138.7669	1182.7051	1190.9549	1266.0273	1310.3748	1320.4446	1346.3453	1365.5734	1398.3648	1468.3161	1475.3519	1667.3155	1815.5729	2936.7627	3052.2534	3067.122	3123.1573	3186.2773	3211.7206	3689.6654	3818.5219
OC1CC(O)(C=O)C=C1	O[C@H]1C[C@@](O)(C=O)C=C1	
InChI=1S/C6H8O3/c7-4-6(9)2-1-5(8)3-6/h1-2,4-5,8-9H,3H2	InChI=1S/C6H8O3/c7-4-6(9)2-1-5(8)3-6/h1-2,4-5,8-9H,3H2/t5-,6-/m1/s1
