14
gdb 130332	3.25883	1.39874	1.00596	5.2544	67.86	-0.2253	-0.0319	0.1934	1094.2128	0.103048	-466.148941	-466.141381	-466.140437	-466.181216	28.492	
N	 0.7058461129	 0.6421134041	-1.1320565579	-0.599077
C	 0.2593002589	-0.360333934	-0.3158766743	 0.310364
N	-1.0049706987	-0.6630998438	-0.1434119667	-0.168456
O	-1.0350974106	-1.6441811959	 0.8281079179	-0.165255
N	 0.219499378	-1.9704468315	 1.2367251466	-0.160474
C	 1.0316485963	-1.2050317195	 0.5598301169	 0.381684
N	 2.3978617336	-1.2678574371	 0.8272922923	-0.391469
C	 3.4463029289	-1.0022758435	-0.0134857141	 0.097109
N	 3.3219351011	-0.5361196207	-1.1942472613	-0.464469
H	 1.633576332	 0.4510253329	-1.5113518064	 0.27646
H	 0.017800132	 0.9588357654	-1.8000730845	 0.257725
H	 2.6167741779	-1.7746789766	 1.6714799893	 0.27412
H	 4.402342264	-1.2346349083	 0.4661727954	 0.114044
H	 4.2309694635	-0.3944103815	-1.6240727531	 0.237695
71.1353	198.5226	227.3646	274.2145	308.0765	402.566	457.9838	499.2577	540.6723	592.9387	596.2218	719.9822	743.3814	781.5631	790.8292	826.2931	919.9312	970.2552	1039.8052	1054.5632	1133.5431	1193.1139	1241.5019	1348.9821	1420.4873	1448.3129	1523.4911	1598.0749	1624.7596	1671.4855	1729.3273	3076.8165	3405.3109	3539.7961	3629.9417	3632.1947
NC1=NON=C1NC=N	Nc1nonc1NC=N	
InChI=1S/C3H5N5O/c4-1-6-3-2(5)7-9-8-3/h1H,(H2,5,7)(H2,4,6,8)	InChI=1S/C3H5N5O/c4-1-6-3-2(5)7-9-8-3/h1H,(H2,5,7)(H2,4,6,8)
