20
gdb 11753	4.83846	1.26934	1.17757	1.4485	75.26	-0.2444	0.0776	0.322	1099.9881	0.176687	-348.979809	-348.971389	-348.970445	-349.012498	32.09	
C	-0.258119189	 1.4972419578	 0.0129504454	-0.371834
C	 0.0974029954	 0.004546409	 0.0569324362	-0.294324
C	 0.8063666373	-0.465669423	-1.1834854105	 0.390606
C	 0.0948056193	-0.8994352812	-2.4342141832	-0.319771
C	 0.9889986584	-1.889277642	-1.7328576744	-0.125059
C	 2.4463871765	-1.5984771773	-2.054305054	 0.128199
O	 2.7822463252	-1.8081450961	-3.4103516732	-0.433762
C	 2.2622050145	-0.1250375233	-1.5439832873	-0.338026
H	 0.63984524	 2.11357648	-0.1033915384	 0.117236
H	-0.9221490249	 1.7174980964	-0.829211429	 0.118925
H	-0.7610321692	 1.8116232243	 0.9327807936	 0.109311
H	 0.7265697967	-0.1934399736	 0.9356092264	 0.092168
H	-0.8169686833	-0.5864504424	 0.1950664751	 0.095005
H	-0.9677126471	-1.0927338978	-2.3201525772	 0.10455
H	 0.3780651808	-0.5091128872	-3.4076752661	 0.115233
H	 0.6091921935	-2.8290272155	-1.3490818275	 0.079134
H	 3.1226273415	-2.1567799548	-1.3928156052	 0.06613
H	 3.7014592364	-1.550793311	-3.5344654764	 0.280639
H	 2.4008584014	 0.6550924091	-2.2997799088	 0.091758
H	 2.8889835666	 0.1002563488	-0.6762827154	 0.093882
86.9005	109.6277	182.2754	223.1068	279.8892	312.3173	352.0558	393.6857	434.6876	558.9752	634.4543	697.8947	788.8285	824.2963	863.333	883.6863	959.2349	961.5341	982.0599	999.1547	1014.7489	1042.1084	1074.5981	1084.6379	1097.3689	1131.0455	1166.3693	1213.1769	1229.9003	1241.1426	1283.5155	1304.7505	1341.6337	1356.2423	1404.6996	1414.7092	1421.7436	1475.4892	1481.2587	1497.2265	1505.5825	1508.1885	3002.4088	3009.5347	3032.7481	3040.3649	3045.3217	3095.8592	3101.1259	3105.4876	3115.6315	3175.9022	3200.6082	3813.7195
CCC12CC1C(O)C2	CC[C@]12C[C@H]1[C@@H](O)C2	
InChI=1S/C7H12O/c1-2-7-3-5(7)6(8)4-7/h5-6,8H,2-4H2,1H3	InChI=1S/C7H12O/c1-2-7-3-5(7)6(8)4-7/h5-6,8H,2-4H2,1H3/t5-,6-,7+/m0/s1
