18
gdb 65818	2.49646	1.3241	1.18455	2.4093	76.99	-0.2263	-0.0205	0.2058	1137.6343	0.146128	-401.933182	-401.924324	-401.92338	-401.966595	33.973	
C	-0.0545582053	 1.5533112384	 0.0510471292	-0.444154
C	 0.0258918467	 0.0240479828	-0.0089189707	 0.03016
C	 0.8308354665	-0.514206292	-1.2238813821	-0.354939
C	 1.4450762351	-1.8186950804	-0.7046349031	 0.399562
O	 1.9731331638	-2.6768579896	-1.3595610484	-0.302792
C	 1.2608840875	-1.8171886884	 0.8227449456	-0.288426
N	 0.7504430137	-0.4931914879	 1.1883583693	-0.304212
C	-1.3279181904	-0.551076873	-0.0235726673	 0.415177
C	-2.4333606885	-1.0200775255	-0.0678491269	-0.506379
H	 0.9521388489	 1.9858449707	 0.0325217966	 0.111298
H	-0.6125460332	 1.9445484657	-0.8026174788	 0.136063
H	-0.5566439211	 1.8671997476	 0.9695030186	 0.141789
H	 0.2493835252	-0.6803158192	-2.1317809206	 0.140483
H	 1.6484582573	 0.1778262746	-1.4640417243	 0.124033
H	 0.5308894027	-2.5960165232	 1.0796248858	 0.147227
H	 2.1929693266	-2.0598912391	 1.3382604141	 0.132716
H	 1.5344928063	 0.1299494195	 1.3601552802	 0.220024
H	-3.4107376217	-1.4351885111	-0.0939334771	 0.202369
65.8093	129.6849	187.4548	212.2149	246.0636	295.0664	400.8707	442.9325	454.2469	480.3447	558.5832	599.6772	635.3283	641.4686	657.3783	746.1732	765.2336	791.2654	833.8881	911.4161	953.8392	999.3461	1072.768	1093.4583	1099.3944	1162.3659	1179.7366	1228.1137	1265.7174	1285.5423	1312.7414	1404.247	1443.2365	1456.1647	1460.2894	1489.3097	1496.5821	1854.8479	2235.351	3031.3112	3034.7375	3038.1884	3109.4784	3112.577	3128.5266	3135.3164	3500.5855	3503.9675
CC1(CC(=O)CN1)C#C	C[C@]1(CC(=O)CN1)C#C	
InChI=1S/C7H9NO/c1-3-7(2)4-6(9)5-8-7/h1,8H,4-5H2,2H3	InChI=1S/C7H9NO/c1-3-7(2)4-6(9)5-8-7/h1,8H,4-5H2,2H3/t7-/m1/s1
