16
gdb 28575	5.32101	0.98252	0.88059	2.6562	74.13	-0.2324	-0.009	0.2235	1310.2136	0.12434	-437.899664	-437.891608	-437.890664	-437.933189	28.841	
C	 0.4563199134	 1.4026589503	 0.0971461626	-0.495902
C	 0.0670901147	-0.0190069894	-0.0690584408	 0.320933
C	-0.3500598825	-0.7878311462	-1.1070043679	-0.191145
N	-0.5893592454	-2.0805994073	-0.6669723523	-0.308024
C	-0.3044269102	-2.0483496772	 0.5960038905	 0.401933
O	 0.1005433449	-0.8272917345	 1.0379887639	-0.20867
C	-0.3389276106	-3.1389345606	 1.5856752125	-0.057057
C	-0.9023347437	-4.4492880423	 1.236679354	-0.165367
O	 0.5080015032	-4.2725645098	 1.329629692	-0.222967
H	 1.4863891331	 1.4974397193	 0.4581040931	 0.146025
H	 0.3811984935	 1.9189035633	-0.8624490268	 0.143182
H	-0.1931295565	 1.9161538295	 0.8148365891	 0.14374
H	-0.4997814193	-0.5003205755	-2.1358398808	 0.122766
H	-0.344407159	-2.8061534261	 2.6214413231	 0.109683
H	-1.3558093722	-5.0558133424	 2.0194821161	 0.117512
H	-1.2887055334	-4.5925787111	 0.2302119518	 0.143357
44.4378	132.0879	152.8154	167.9085	253.9492	300.5589	417.6248	453.2679	649.2282	653.3604	704.8941	762.709	840.0457	853.2018	904.1267	964.2685	994.9477	1012.6079	1044.641	1067.281	1099.0285	1158.4628	1162.0818	1168.3448	1219.5567	1248.4401	1284.3375	1328.3261	1418.1661	1453.3312	1472.496	1491.3422	1520.7492	1600.5252	1644.918	3034.2228	3086.886	3090.3004	3130.7279	3140.9714	3189.4393	3262.2254
CC1=CN=C(O1)C1CO1	Cc1cnc(o1)[C@H]1CO1	
InChI=1S/C6H7NO2/c1-4-2-7-6(9-4)5-3-8-5/h2,5H,3H2,1H3	InChI=1S/C6H7NO2/c1-4-2-7-6(9-4)5-3-8-5/h2,5H,3H2,1H3/t5-/m1/s1
