20
gdb 115698	2.44392	1.30546	0.95911	15.5117	80.26	-0.1573	-0.0347	0.1225	1255.1232	0.171539	-440.227148	-440.217821	-440.216877	-440.262104	34.245	
N	 0.1931327764	 0.7819069738	 0.0393002646	-0.435684
H	 0.8178193744	-0.0225374947	 0.1261638486	 0.31675
H	 0.7679121729	 1.6268827738	 0.0833081275	 0.328145
H	-0.2708102663	 0.7441643088	-0.8690094344	 0.324894
C	-0.8364618689	 0.8259955461	 1.2220161333	-0.224436
C	-0.0190414112	 0.9745769141	 2.488260815	 0.030767
C	 0.8312178942	 2.2718018202	 2.6723770255	-0.267192
C	 0.3559713149	 2.3260196417	 4.1553126314	-0.204779
C	-0.7769577359	 1.3372123525	 3.7979041709	-0.137183
C	-2.1752696652	 2.0208073122	 3.535190166	 0.327817
O	-2.4368014205	 3.0015453562	 4.2372011755	-0.441658
O	-2.8443551178	 1.4530155465	 2.6291754066	-0.493795
H	-1.4989650599	 1.6648686629	 1.0276152383	 0.193841
H	-1.4098041187	-0.0964583425	 1.1537399616	 0.164869
H	 0.6093585974	 0.0788545603	 2.6129930118	 0.050542
H	 1.9089109802	 2.2020865657	 2.4872369581	 0.075947
H	 0.4256780266	 3.111760441	 2.0941855358	 0.10402
H	 1.1120988287	 1.9256679332	 4.8375496529	 0.079506
H	-0.0114577979	 3.2841172894	 4.5236089528	 0.132899
H	-0.9384627133	 0.4996925487	 4.481870648	 0.074729
48.5555	83.4793	93.3935	193.1313	220.3295	242.2615	275.6887	369.6334	409.395	543.9303	566.5915	644.8427	696.694	758.1877	778.2352	800.3942	820.445	888.8241	924.6426	930.0903	953.0263	980.8505	1037.151	1072.1622	1121.9248	1133.2759	1195.0555	1213.2473	1221.5519	1248.7737	1255.8885	1263.8042	1282.3955	1310.1399	1351.1344	1372.3443	1419.6706	1456.5238	1473.7195	1490.6162	1644.5864	1656.8814	1753.465	2970.0927	3016.8574	3048.7459	3068.288	3074.247	3136.4202	3136.7471	3209.6103	3407.3274	3503.7611	3527.8784
[NH3+]CC1CCC1C([O-])=O	[NH3]C[C@H]1CC[C@H]1C(=O)[O]	
InChI=1S/C6H11NO2/c7-3-4-1-2-5(4)6(8)9/h4-5H,1-3,7H2,(H,8,9)	InChI=1S/C6H11NO2/c7-3-4-1-2-5(4)6(8)9/h4-5H,1-3H2,7H3/t4-,5-/m1/s1
