22
gdb 110939	2.76894	1.04183	0.9101	1.2832	83.13	-0.229	0.0731	0.3021	1399.4392	0.193575	-404.290803	-404.281222	-404.280277	-404.325617	35.748	
C	 0.5590013708	 1.7084511331	 0.363449306	-0.373038
C	 0.4801201998	 0.2562793519	-0.1057589409	-0.117546
N	 0.9627058999	-0.6281681	 0.9479673706	-0.064722
C	 0.1195404206	-1.2413219811	 1.9433518153	-0.048495
C	-1.2091286224	-1.7830578627	 1.3731719419	-0.276004
C	-0.3882921143	-2.7135184716	 0.4232261136	 0.039265
C	-0.6767162875	-2.7875401382	-1.0653014049	-0.108646
O	-1.9038563992	-3.4913653685	-1.2203634922	-0.42282
C	 0.9144087738	-2.070224281	 0.9521211823	-0.10262
H	 1.5823912371	 1.9647334625	 0.6507819571	 0.12447
H	 0.2338383516	 2.3902420775	-0.4287216617	 0.107905
H	-0.0854897961	 1.8699637981	 1.2337494617	 0.11871
H	-0.5477688138	 0.0376789623	-0.4281410088	 0.090875
H	 1.1272801136	 0.1077830605	-0.9782809051	 0.099396
H	 0.3212189679	-1.0445317081	 2.991113153	 0.090217
H	-1.7920199897	-2.3423222845	 2.1067666743	 0.108049
H	-1.8686344686	-1.0495566061	 0.9000790573	 0.102619
H	-0.4445088631	-3.7375916611	 0.8079498391	 0.088945
H	-0.7409389265	-1.7860224542	-1.5119998763	 0.086691
H	 0.1525708693	-3.3153691108	-1.5660073743	 0.083752
H	-2.1244936512	-3.5094370689	-2.1561530124	 0.285411
H	 1.8497535679	-2.6042995391	 1.0906269344	 0.087585
67.7004	76.1189	133.2309	174.8045	219.4605	241.8249	276.3639	297.3839	404.9897	421.6786	474.76	587.9578	707.5845	768.2643	805.6484	829.1253	853.2697	881.612	901.1369	963.86	977.203	1022.5248	1042.7352	1054.0533	1072.1106	1098.2596	1107.1975	1120.7982	1162.8434	1179.8284	1206.8784	1244.0194	1258.7344	1265.3849	1276.2545	1291.8112	1307.3386	1369.8566	1375.3868	1397.5819	1412.9062	1460.0957	1481.1121	1488.859	1499.0385	1514.519	1520.4694	2960.7663	2995.8545	3021.6127	3038.1561	3052.2228	3054.0831	3062.3086	3106.8179	3119.0456	3120.2559	3150.1973	3166.095	3827.6912
CCN1C2CC(CO)C12	CCN1[C@H]2C[C@@H](CO)[C@@H]12	
InChI=1S/C7H13NO/c1-2-8-6-3-5(4-9)7(6)8/h5-7,9H,2-4H2,1H3	InChI=1S/C7H13NO/c1-2-8-6-3-5(4-9)7(6)8/h5-7,9H,2-4H2,1H3/t5-,6-,7+,8?/m0/s1
