21
gdb 113044	5.83591	0.6843	0.64615	4.5395	84.53	-0.2367	0.0234	0.2601	1754.0519	0.182246	-383.262357	-383.252706	-383.251762	-383.297709	34.776	
C	 0.155358369	 1.4616165956	-0.1157197539	-0.379764
C	 0.0481304564	-0.0465224417	 0.1337724493	-0.200154
C	-1.3815659484	-0.5607907498	 0.0600506655	 0.039676
C	-2.09192609	-0.6240124818	-1.3195082091	-0.18781
N	-2.6636406213	-1.9282160591	-0.9249208007	-0.074776
C	-2.7817166976	-2.9450897365	-1.9469626222	-0.286157
C	-3.3407805609	-4.1893290252	-1.4046964312	 0.277836
N	-3.7612052573	-5.1758323886	-0.9757351016	-0.304812
C	-1.6382462971	-2.0882758769	 0.1296891663	-0.20124
H	 1.1935709652	 1.8010896466	-0.0548585732	 0.117079
H	-0.2230767419	 1.7287337206	-1.108625892	 0.118986
H	-0.4246097454	 2.0267443058	 0.6220448829	 0.11865
H	 0.6662372893	-0.5866887581	-0.5954024984	 0.094489
H	 0.4629778026	-0.2859385189	 1.1215734986	 0.102736
H	-2.0119226775	-0.0359754239	 0.7845207519	 0.087059
H	-2.831932918	 0.1417089029	-1.5724279557	 0.109522
H	-1.3624082874	-0.703242031	-2.1444511205	 0.084281
H	-3.4509018906	-2.5817216751	-2.736238434	 0.154297
H	-1.8162994719	-3.1913648124	-2.4326101875	 0.122192
H	-0.7597579955	-2.6641128653	-0.2079912999	 0.088338
H	-2.0064237218	-2.5194598172	 1.0646755753	 0.119572
51.1704	67.4841	108.272	149.9593	197.0042	242.9587	320.9175	338.4088	389.5421	402.0023	424.5757	501.4727	669.748	776.4429	798.5029	895.1948	932.5367	938.8465	952.4315	982.1551	995.4543	1015.0605	1096.9436	1106.0265	1129.6839	1149.5328	1160.9169	1214.9998	1223.354	1259.9901	1271.0409	1294.6144	1298.6528	1330.5509	1352.7022	1388.0335	1402.2764	1413.9138	1471.1827	1486.326	1500.5776	1502.3542	1506.5673	1528.1487	2366.8879	2907.6085	2950.1904	2963.7821	3016.7905	3031.8599	3044.4435	3055.0225	3060.1937	3071.7516	3084.5902	3098.4075	3106.863
CCC1CN(CC#N)C1	CCC1CN(CC#N)C1	
InChI=1S/C7H12N2/c1-2-7-5-9(6-7)4-3-8/h7H,2,4-6H2,1H3	InChI=1S/C7H12N2/c1-2-7-5-9(6-7)4-3-8/h7H,2,4-6H2,1H3
