21
gdb 42026	3.17772	1.41803	1.05013	1.8613	77.61	-0.2543	0.0836	0.3379	1163.623	0.186672	-424.241776	-424.23428	-424.233336	-424.273804	30.051	
C	-0.0310010178	 1.5193270935	-0.0656722878	-0.208005
C	 1.455753605	 2.011996942	-0.0192249073	-0.258867
C	 2.2111084817	 0.8127956358	 0.5582624677	 0.043243
C	 3.7042823435	 0.6121867937	 0.3414838448	-0.138953
O	 4.0523518959	-0.6823667168	 0.8399212536	-0.241016
C	 3.3048210418	-1.7132094628	 0.2475424038	 0.012649
O	 1.9133618419	-1.5983202874	 0.4505617863	-0.260021
C	 1.473886969	-0.3651771113	-0.0860815539	 0.161631
C	 0.0044124681	-0.0283134075	 0.133611644	-0.262983
H	-0.6263344053	 1.9949415354	 0.7176244782	 0.107418
H	-0.4980866066	 1.786230739	-1.0171248438	 0.104506
H	 1.8142603968	 2.2382790625	-1.0305506227	 0.09854
H	 1.5753379874	 2.9226011217	 0.5730825611	 0.100815
H	 2.0263475792	 0.7486948007	 1.6388878898	 0.085639
H	 3.9543561519	 0.688370805	-0.731018918	 0.085902
H	 4.3254993489	 1.3263573416	 0.888779765	 0.109753
H	 3.5118248707	-1.7455951043	-0.8399697684	 0.073395
H	 3.6218912436	-2.6437249482	 0.7216555789	 0.116735
H	 1.6917645977	-0.3544473031	-1.1719129088	 0.05673
H	-0.2718235441	-0.3028602309	 1.1567783863	 0.112127
H	-0.6666193692	-0.5614062785	-0.5439295489	 0.100759
92.3825	173.8388	210.3155	342.2167	352.796	379.4343	447.6917	520.6134	540.0203	624.8013	689.1917	773.342	821.6159	892.3524	919.8001	935.8318	965.4113	989.4878	1009.8952	1031.0415	1054.5978	1079.6986	1116.6026	1133.0238	1162.6207	1185.4683	1197.2528	1229.5387	1250.4124	1266.447	1271.85	1312.1748	1319.5137	1327.8835	1333.8035	1342.137	1387.968	1399.6579	1418.5873	1448.0635	1489.8514	1498.4144	1500.0558	1507.5868	1517.1004	2908.0513	2918.0078	2961.2859	3022.9905	3038.398	3055.2716	3066.0926	3085.995	3088.7557	3100.0907	3114.8809	3117.4823
C1CC2COCOC2C1	C1C[C@@H]2COCO[C@H]2C1	
InChI=1S/C7H12O2/c1-2-6-4-8-5-9-7(6)3-1/h6-7H,1-5H2	InChI=1S/C7H12O2/c1-2-6-4-8-5-9-7(6)3-1/h6-7H,1-5H2/t6-,7+/m1/s1
