18
gdb 62811	2.28858	1.53475	1.3608	4.5396	77.18	-0.2625	-0.0065	0.256	1059.2997	0.145988	-401.894642	-401.886026	-401.885082	-401.927558	32.936	
C	-0.1449228897	 1.5929104016	-0.0558755906	-0.481621
C	-0.0239125811	 0.0733263648	-0.0044525761	 0.294755
C	-1.3857993547	-0.5814324565	-0.2127154165	-0.462924
C	 1.1980200593	-0.6537699993	-0.6690743511	-0.011391
C	 2.1694739322	-0.0823407054	 0.3902180189	-0.275359
C	 0.8899980278	-0.6064833983	 1.0932912603	 0.292211
O	 0.9755944687	-1.8109390764	 0.2416687996	-0.327275
C	 0.6260735337	-0.762836724	 2.5032309146	 0.175958
N	 0.3960361571	-0.8368379586	 3.6336435835	-0.343419
H	 0.796130754	 2.1272557964	 0.0771817992	 0.123214
H	-0.5654790281	 1.8960163806	-1.0207274119	 0.129653
H	-0.8368236482	 1.93735736	 0.7199024547	 0.13798
H	-1.7969302211	-0.2902068757	-1.1854368362	 0.118281
H	-1.3169419009	-1.6676494518	-0.1713310337	 0.14796
H	-2.0917425732	-0.243135896	 0.5532108609	 0.127992
H	 1.3787938094	-0.8813303354	-1.7187319151	 0.10852
H	 3.0452227209	-0.7042056743	 0.570650883	 0.129246
H	 2.3938919537	 0.9822578783	 0.4117223864	 0.116219
118.0109	129.3294	149.4988	219.291	249.0757	348.8919	350.9069	392.9145	499.8986	521.1678	551.644	571.1996	615.6022	706.2981	737.4303	800.7515	907.1406	946.8447	951.776	960.0517	982.8284	1019.7882	1033.6846	1089.2103	1154.3322	1190.6123	1205.002	1210.9197	1241.8688	1266.6293	1307.1771	1399.8958	1421.8546	1476.9758	1485.561	1495.8272	1512.5264	1512.9609	2354.8725	3038.0595	3044.4272	3094.0537	3100.5695	3101.5739	3135.2467	3138.7921	3158.4832	3180.051
CC1(C)C2CC1(O2)C#N	CC1(C)[C@H]2C[C@@]1(O2)C#N	
InChI=1S/C7H9NO/c1-6(2)5-3-7(6,4-8)9-5/h5H,3H2,1-2H3	InChI=1S/C7H9NO/c1-6(2)5-3-7(6,4-8)9-5/h5H,3H2,1-2H3/t5-,7-/m1/s1
