18
gdb 19484	3.85567	1.59064	1.53621	2.8257	66.57	-0.2423	0.0668	0.3091	907.9301	0.155505	-384.90904	-384.901873	-384.900929	-384.940701	27.693	
O	 0.2928705523	 0.6606627832	 1.0231973174	-0.421352
C	-0.0427976853	 0.4119121766	-0.33668498	-0.128185
C	-1.375245045	-0.3074751083	-0.3376196797	 0.047942
C	-1.9888842495	-0.9801796489	-1.5905230002	 0.04325
C	-0.9056248875	-1.9594925195	-2.0941955362	-0.219354
C	-0.5498508287	-2.5888200982	-0.7088690939	-0.221727
C	-1.5465652935	-1.7723169938	 0.13951123	 0.073547
O	-2.7557326101	-1.8348410058	-0.6860118974	-0.301973
H	 1.1325722996	 1.1288690603	 1.0453410328	 0.288125
H	-0.1383558753	 1.3521647292	-0.9045409048	 0.087939
H	 0.7362260343	-0.1863823526	-0.8308445521	 0.087034
H	-2.1336594789	 0.3105372852	 0.1478298417	 0.094228
H	-2.5956327632	-0.4429429761	-2.3200299962	 0.07554
H	-1.3336630787	-2.6851310362	-2.788417766	 0.108053
H	-0.0636120138	-1.4651374453	-2.5866758741	 0.095199
H	-0.7777726467	-3.6552083784	-0.6603576287	 0.107831
H	 0.4915259728	-2.4436048027	-0.4096496425	 0.101653
H	-1.7027126329	-2.0418468786	 1.1829872401	 0.082249
63.733	178.8285	242.7233	285.9138	312.9844	424.5692	502.8573	580.227	722.7698	771.8175	836.2335	847.857	863.6938	873.2368	921.8061	941.6014	991.5285	1006.117	1024.9185	1054.8487	1073.4715	1130.7957	1134.0262	1167.1915	1198.0764	1216.4888	1244.9236	1258.8074	1267.5649	1276.8749	1305.1386	1310.8402	1340.4438	1386.3518	1468.5766	1479.1737	1500.072	1526.1661	2966.6587	3008.7576	3062.4197	3072.1084	3096.5961	3108.9975	3119.052	3125.5475	3136.8861	3828.4684
OCC1C2CCC1O2	OC[C@H]1[C@H]2CC[C@@H]1O2	
InChI=1S/C6H10O2/c7-3-4-5-1-2-6(4)8-5/h4-7H,1-3H2	InChI=1S/C6H10O2/c7-3-4-5-1-2-6(4)8-5/h4-7H,1-3H2/t4-,5+,6-
