23
gdb 38690	2.37654	2.02316	1.95786	0.0071	86.27	-0.2862	0.0785	0.3647	925.288	0.213223	-351.203753	-351.197574	-351.19663	-351.23369	28.575	
C	-0.0137721538	 1.5654222018	-0.0157828282	-0.206667
C	 1.4950888795	 1.8707159052	-0.0086360114	 0.006782
C	 1.9375834	 0.9806875825	-1.184207933	-0.206667
C	 1.3284577515	-0.377914095	-0.7622027213	-0.01142
C	 2.255822548	-0.9724688448	 0.3247302281	-0.206667
C	 1.8241487813	-0.1488754974	 1.551625082	 0.006782
C	 0.3044621091	-0.387739896	 1.493147253	-0.206667
C	 0.0049990838	 0.0186653385	 0.030248527	-0.01142
C	 2.1299171589	 1.3537900422	 1.3102775442	-0.217259
H	-0.5597123947	 1.9990165788	 0.8281354818	 0.08287
H	-0.4721675454	 1.9438605814	-0.9363791417	 0.083839
H	 1.7259120297	 2.9306622633	-0.1535924528	 0.050638
H	 1.5075826222	 1.3506173042	-2.1218070483	 0.083839
H	 3.0227488713	 0.9255145241	-1.3169615364	 0.082871
H	 1.1525689015	-1.0543264855	-1.6006480814	 0.054844
H	 2.0595509161	-2.0369935092	 0.4953325487	 0.083839
H	 3.3150088186	-0.8681869191	 0.0687958134	 0.08287
H	 2.2826637926	-0.486400353	 2.4863007812	 0.050638
H	 0.0797972746	-1.4437568081	 1.6807490404	 0.083839
H	-0.2674644084	 0.2053043327	 2.2138766674	 0.08287
H	-0.9011694537	-0.4389099557	-0.3709307977	 0.054844
H	 3.2160743492	 1.5069828713	 1.2794980528	 0.087701
H	 1.754129668	 1.9450649378	 2.1548666823	 0.087701
276.7793	346.9551	399.5853	470.8206	472.1276	518.9266	521.7267	672.485	785.4025	792.522	801.4707	826.7786	843.8909	868.3288	889.9749	915.3091	917.2155	919.3477	966.4913	983.6412	993.553	998.922	1034.4101	1035.6066	1093.3677	1098.3603	1121.3465	1122.8714	1144.7325	1161.569	1174.5199	1238.3851	1253.9682	1273.8821	1277.8865	1300.379	1310.0674	1310.2914	1329.376	1338.344	1355.679	1362.9527	1378.7049	1381.18	1482.2125	1484.9041	1502.4966	1506.2072	1527.0983	3016.4594	3030.4372	3032.3869	3034.0886	3035.674	3053.4229	3058.7337	3062.0435	3071.0196	3076.8777	3078.3971	3083.0299	3084.0016	3094.5137
C1C2CC3CC(CC13)C2	C1[C@@H]2C[C@H]3C[C@H](C[C@@H]13)C2	
InChI=1S/C9H14/c1-6-2-8-4-7(1)5-9(8)3-6/h6-9H,1-5H2	InChI=1S/C9H14/c1-6-2-8-4-7(1)5-9(8)3-6/h6-9H,1-5H2/t6-,7+,8-,9+
