19
gdb 87508	3.45377	1.38318	1.27541	1.7518	79.33	-0.2281	0.0009	0.2291	1070.6285	0.159138	-385.819223	-385.811552	-385.810607	-385.851064	30.971	
C	-0.048962534	 1.5213275543	-0.0357573773	-0.404321
C	 0.0343561549	 0.0111454451	 0.0096674456	-0.098398
C	 1.3680575137	-0.6970302347	-0.2314695156	-0.385609
C	 0.7356307734	-0.6961075432	 1.1170303233	 0.44615
C	 1.1643486153	-0.175219921	 2.511887211	-0.08048
O	-0.0855234491	-0.7491492416	 3.0227270896	-0.284724
C	 0.2140342165	-1.8114645788	 2.0550015265	-0.079712
C	 1.5343314499	-2.3729020808	 2.6191901375	-0.078325
C	 2.186956501	-1.250776104	 2.9307124883	-0.075713
H	 0.8668551934	 1.9787954125	 0.3532585607	 0.110936
H	-0.1863645943	 1.879358863	-1.0618530849	 0.116997
H	-0.8864698818	 1.8904759045	 0.5659274438	 0.12624
H	-0.8391087535	-0.4989599988	-0.3919807524	 0.08643
H	 1.3706319055	-1.6184604449	-0.8054999475	 0.110555
H	 2.2444330171	-0.0743879541	-0.3880564456	 0.110222
H	 1.3235521618	 0.8726911174	 2.7613485642	 0.080999
H	-0.621041283	-2.4711569422	 1.8223727848	 0.079304
H	 1.8228016823	-3.4097900687	 2.7050761598	 0.109883
H	 3.1693846009	-1.0928958339	 3.3497678782	 0.109565
139.8869	143.2985	204.6165	235.1804	339.1036	402.9176	487.6339	545.5899	568.9402	639.0459	721.8271	759.2618	810.8106	836.0716	858.8203	864.2784	889.0478	898.9761	904.9497	946.2995	962.5224	996.6416	1004.8272	1045.2748	1102.5783	1128.1045	1154.7246	1161.8595	1172.0015	1192.5663	1211.3713	1224.3402	1282.8625	1297.6265	1337.6984	1411.1682	1431.2062	1492.9882	1494.011	1512.0864	1613.0343	3028.1663	3092.4075	3094.8847	3118.1109	3126.55	3132.939	3138.6005	3201.5824	3233.4256	3260.7575
CC1CC11C2OC1C=C2	C[C@H]1C[C@]21[C@H]1O[C@@H]2C=C1	
InChI=1S/C8H10O/c1-5-4-8(5)6-2-3-7(8)9-6/h2-3,5-7H,4H2,1H3	InChI=1S/C8H10O/c1-5-4-8(5)6-2-3-7(8)9-6/h2-3,5-7H,4H2,1H3/t5-,6-,7+,8-/m0/s1
