13
gdb 125282	5.32034	1.30855	1.05715	4.9498	69.35	-0.2406	-0.0547	0.1859	1049.6502	0.089334	-452.72521	-452.71823	-452.717286	-452.756676	25.929	
C	 0.072849028	 1.4488329349	 0.0468095936	-0.490242
C	-0.0766658023	-0.0268916337	 0.0057354133	 0.381657
C	-1.1643069932	-0.8294537075	-0.246027251	-0.454957
C	-0.6584001907	-2.1577528744	-0.1360589246	 0.379798
C	 0.6702781071	-2.0380940744	 0.1671626511	 0.304002
O	 1.0697375403	-0.7511622678	 0.2635736457	-0.215204
N	 1.2302925587	-3.2535248002	 0.2875621326	-0.203636
N	 0.3630838909	-4.1405899221	 0.0856504147	-0.043332
O	-0.9677250194	-3.4336130172	-0.2133175679	-0.258594
H	 0.8075751768	 1.7911163416	-0.6900329459	 0.15578
H	-0.8848587907	 1.9258122483	-0.169329095	 0.147267
H	 0.4149330374	 1.7830443581	 1.0322893802	 0.155782
H	-2.1610458528	-0.4883463857	-0.4711073669	 0.141678
118.0947	149.4832	281.9021	289.0544	361.797	370.2831	530.3856	560.8093	628.5073	642.5357	754.9271	767.1323	797.5893	827.909	940.1428	982.2189	1018.3258	1060.4352	1165.0163	1197.533	1298.8128	1399.7971	1419.6683	1468.3015	1468.3349	1480.703	1538.6682	1545.705	1601.5328	3038.8144	3093.6262	3140.6087	3274.3297
CC1=CC2=C(O1)N=NO2	Cc1cc2c(o1)nno2	
InChI=1S/C5H4N2O2/c1-3-2-4-5(8-3)6-7-9-4/h2H,1H3	InChI=1S/C5H4N2O2/c1-3-2-4-5(8-3)6-7-9-4/h2H,1H3
