19
gdb 52766	2.10489	1.10802	0.99009	2.377	81.67	-0.2316	0.0302	0.2618	1363.4529	0.154956	-422.982556	-422.971575	-422.970631	-423.019245	38.447	
C	-0.0681776097	 1.4895036633	-0.1259650331	-0.50282
C	-0.0429282638	 0.0355055	-0.0549873866	 0.0503
C	 0.0133367205	-1.1672951516	 0.0334387964	 0.023709
C	 0.0369001891	-2.6059195742	 0.0538292468	 0.153752
O	 1.1094853694	-3.2192033408	-0.6136815741	-0.441792
C	-0.4548216247	-3.3825584603	 1.2635536486	-0.081354
C	-0.8685205448	-2.6990384777	 2.5442054577	-0.407498
C	-1.3178632034	-3.3121698814	 0.0229587708	 0.024855
O	-2.4941518692	-2.5671144636	 0.0434017298	-0.421654
H	 0.9265724922	 1.9085792644	 0.0608334461	 0.156759
H	-0.399945021	 1.8415936757	-1.108892815	 0.149861
H	-0.7485588592	 1.9070913488	 0.6241687733	 0.155715
H	 1.0775228238	-2.9423305017	-1.5369833742	 0.282186
H	 0.0860851826	-4.3179019625	 1.3784693472	 0.103647
H	-1.4902377719	-1.8253727641	 2.3402271401	 0.126613
H	-1.4530916919	-3.3841258174	 3.1667907564	 0.120551
H	 0.0041151455	-2.3762134785	 3.1205735839	 0.119717
H	-1.3655359801	-4.1960881153	-0.6094912583	 0.100834
H	-2.2891681436	-1.6798703033	-0.2787225657	 0.286621
40.4645	82.2444	87.1298	132.7619	182.4899	218.3005	229.6219	258.3572	281.0808	316.0537	351.7383	373.4799	435.931	555.7208	584.6503	603.8253	635.3127	805.3453	854.6912	915.9137	1003.1864	1044.5373	1050.5622	1054.8057	1067.187	1101.612	1139.0961	1159.7404	1222.3827	1297.5919	1340.2768	1355.026	1370.0378	1413.9168	1417.4342	1436.0568	1475.0747	1478.7777	1488.8767	1499.0833	2347.7418	3028.5289	3041.9181	3089.2489	3092.6874	3101.3349	3128.4511	3132.2955	3156.1558	3752.1939	3786.6951
CC#CC1(O)C(C)C1O	CC#C[C@@]1(O)[C@@H](C)[C@H]1O	
InChI=1S/C7H10O2/c1-3-4-7(9)5(2)6(7)8/h5-6,8-9H,1-2H3	InChI=1S/C7H10O2/c1-3-4-7(9)5(2)6(7)8/h5-6,8-9H,1-2H3/t5-,6+,7+/m0/s1
