15
gdb 49917	3.26365	1.10871	0.94978	4.1574	72.1	-0.2578	-0.0471	0.2107	1221.7802	0.111717	-453.967786	-453.959219	-453.958275	-454.002045	29.45	
N	 0.1612369417	 1.143902709	 0.1884389459	-0.407078
C	-0.0158573681	-0.1043175553	 0.0599757313	 0.072525
N	-1.276640125	-0.6784381652	-0.0018536217	-0.095827
C	-1.6641836881	-2.09232645	-0.1731002386	-0.194558
C	-3.1417544285	-1.6494623658	-0.0984911911	-0.261574
C	-3.9353918898	-2.1253735447	 1.0936659493	 0.150928
O	-3.503987536	-2.8646616205	 1.9408463837	-0.233437
C	-2.5836572487	-0.1917802469	 0.0592275246	 0.425335
O	-3.0624102712	 0.892313091	 0.1827821571	-0.312393
H	 1.15714466	 1.3557597644	 0.216898746	 0.235587
H	 0.7681513191	-0.8685533446	-0.01622126	 0.104831
H	-1.3545196909	-2.516369962	-1.1315938219	 0.126935
H	-1.3614221191	-2.7372553148	 0.6541974666	 0.151641
H	-3.7294838981	-1.7560682489	-1.0142960444	 0.13075
H	-4.9655276573	-1.7159640956	 1.1483254833	 0.106334
53.9535	104.2076	137.3069	167.557	181.438	222.8728	291.9964	460.7588	496.9018	619.8882	687.8235	758.2729	769.7924	816.8173	862.1313	959.2439	1019.9286	1049.5323	1064.9515	1080.8523	1107.0274	1161.4376	1170.8155	1231.7778	1277.7473	1329.39	1399.3651	1419.6167	1426.6476	1516.789	1720.2543	1818.6935	1904.2269	2921.0479	3038.5608	3065.28	3090.1329	3128.2522	3504.7705
N=CN1CC(C=O)C1=O	[NH][CH]N1C[C@@H](C=O)C1=O	
InChI=1S/C5H6N2O2/c6-3-7-1-4(2-8)5(7)9/h2-4,6H,1H2	InChI=1S/C5H6N2O2/c6-3-7-1-4(2-8)5(7)9/h2-4,6H,1H2/t4-/m0/s1
