19
gdb 48432	3.60377	0.8062	0.72266	2.1748	82.73	-0.2542	-0.028	0.2262	1568.4635	0.156403	-385.858707	-385.849009	-385.848065	-385.893876	35.293	
O	-0.4725770272	 0.6085012971	-1.0565409213	-0.272162
C	-0.107386133	 1.1929612387	-0.0639867797	 0.094514
C	 1.2061228501	 1.8810610085	 0.0834182224	 0.270529
C	 1.5410586396	 2.4134720644	 1.4632630661	-0.306668
C	 1.8590453896	 1.2901954356	 2.477503787	-0.354254
C	 2.1787411117	 1.8014989413	 3.8038552759	 0.295284
C	 2.4380518829	 2.2546541841	 4.8864917073	-0.434786
C	 2.3171775975	 1.3845150338	-0.8327419821	-0.28529
C	 1.6367312409	 2.6685523545	-1.157198899	-0.305287
H	-0.773567931	 1.2698778339	 0.8261450386	 0.073016
H	 2.4012000178	 3.0873941862	 1.4027638013	 0.11502
H	 0.7070145412	 3.0140802372	 1.8462462008	 0.117577
H	 1.0055888938	 0.6030364721	 2.5476260852	 0.134065
H	 2.6962621465	 0.6902777109	 2.0992956679	 0.136123
H	 2.6688262644	 2.640066763	 5.848526901	 0.196467
H	 3.3265998951	 1.4176900542	-0.437010305	 0.120391
H	 2.0775182115	 0.5206166424	-1.4418584419	 0.142254
H	 0.9371612713	 2.6736032932	-1.9849998979	 0.140066
H	 2.1613565173	 3.6012344789	-0.9813191667	 0.123139
59.2474	82.426	113.666	140.0969	198.2538	264.5628	301.6267	315.5538	362.4527	420.3646	485.0928	622.0716	643.7559	646.3312	746.1238	759.2564	800.9989	828.6051	931.9685	943.8056	968.2049	991.299	1037.6189	1056.9977	1064.1576	1069.5415	1103.751	1180.5805	1207.3531	1281.3724	1290.8893	1311.8274	1354.0844	1382.0002	1433.8716	1453.4282	1470.3835	1483.4142	1491.5842	1807.8127	2239.8198	2863.4845	3020.1408	3037.0477	3051.5097	3086.9072	3137.0998	3138.9335	3225.4511	3239.3394	3507.0181
O=CC1(CCC#C)CC1	O=CC1(CCC#C)CC1	
InChI=1S/C8H10O/c1-2-3-4-8(7-9)5-6-8/h1,7H,3-6H2	InChI=1S/C8H10O/c1-2-3-4-8(7-9)5-6-8/h1,7H,3-6H2
