19
gdb 65994	2.24281	1.50921	1.37512	1.0062	75.07	-0.2536	-0.0315	0.2221	1078.7588	0.157001	-423.01298	-423.003942	-423.002997	-423.046897	33.471	
C	 0.4288969389	 1.6329790361	-0.8534227989	-0.427539
C	 0.0696892639	 0.2482242824	-0.3241079623	 0.278154
O	 1.0691135229	-0.7459572764	-0.735462249	-0.326583
C	 1.5145686358	-1.0148483659	 0.6044964774	-0.187728
C	 0.4953179329	-0.007103143	 1.1366876155	 0.295989
O	 0.1608088005	 0.4063730988	 2.2060628908	-0.289008
C	-1.3339834977	-0.163419534	-0.6944558778	-0.02111
C	-2.1050731734	-1.1977327292	 0.0845592294	-0.286876
C	-2.5041297445	 0.2537580155	 0.1643541396	-0.26992
H	 1.4542824105	 1.9041303855	-0.5878656432	 0.12211
H	 0.3440164521	 1.642535997	-1.9447112662	 0.130941
H	-0.2527267057	 2.3836277097	-0.4438260669	 0.136867
H	 1.3466683613	-2.0535741854	 0.9176571001	 0.131863
H	 2.5672783503	-0.7536222229	 0.7754856952	 0.129845
H	-1.4963974876	-0.157020412	-1.769569861	 0.094052
H	-2.7343563622	-1.8801395625	-0.4752819355	 0.115539
H	-1.6472688165	-1.6404340358	 0.9625192862	 0.120264
H	-2.2834937918	 0.7766264284	 1.088478804	 0.138862
H	-3.4126543998	 0.5747552238	-0.3324410374	 0.114278
76.0864	98.9774	136.8041	195.6771	203.4281	231.1033	323.2644	371.5316	450.9632	497.0651	552.5481	653.155	711.014	786.8499	830.6351	859.1566	873.7639	938.2531	949.5087	973.042	1014.255	1043.3374	1063.2835	1081.6256	1091.8306	1124.5685	1134.711	1138.0546	1161.79	1198.4058	1228.9737	1294.3151	1296.5511	1390.5592	1400.9509	1469.5138	1479.6771	1481.7184	1488.7386	1506.3906	1909.7325	3011.0868	3040.6365	3054.7759	3114.2191	3124.9907	3134.5004	3136.5225	3140.9184	3215.4767	3230.5895
CC1(OCC1=O)C1CC1	C[C@]1(OCC1=O)C1CC1	
InChI=1S/C7H10O2/c1-7(5-2-3-5)6(8)4-9-7/h5H,2-4H2,1H3	InChI=1S/C7H10O2/c1-7(5-2-3-5)6(8)4-9-7/h5H,2-4H2,1H3/t7-/m0/s1
