16
gdb 55332	1.96181	1.74258	1.16173	4.1527	70.23	-0.241	0.0117	0.2527	1083.9747	0.122614	-437.854263	-437.845132	-437.844188	-437.889291	32.782	
N	 0.0264042114	 1.2447153899	-0.6278681821	-0.525149
C	 0.0604041012	 0.086335715	 0.0962295784	 0.38588
O	 1.0331282882	-0.2924443766	 0.7108388836	-0.345922
C	-1.2551040126	-0.7028223167	 0.07727264	 0.008724
O	-1.0560044961	-2.0855225926	 0.369018227	-0.26234
C	-1.5438749805	-1.9296835635	 1.7164756893	-0.08286
C	-2.1185091341	-0.5265918198	 1.3764406892	-0.240186
C	-1.8845537474	 0.5880179365	 2.2660756239	 0.3457
C	-1.6950047523	 1.5163476438	 3.0060053058	-0.464747
H	 0.7895372561	 1.8913162054	-0.5045922568	 0.26424
H	-0.8363772536	 1.6071890782	-0.9968564029	 0.259607
H	-1.7920640718	-0.5557177337	-0.8678281291	 0.090127
H	-2.2707395933	-2.7014386398	 1.986691616	 0.112361
H	-0.7251846407	-1.9005278016	 2.4417447541	 0.133442
H	-3.1804209671	-0.594463777	 1.1243196902	 0.11815
H	-1.5167313474	 2.3289882623	 3.6660850934	 0.202974
24.8998	91.822	104.1601	198.0813	241.2684	276.9614	292.791	402.8015	480.6129	503.9921	564.3167	607.3016	631.6081	652.298	700.1717	747.1823	836.1769	894.6648	973.1923	1004.0343	1053.5892	1066.1439	1093.5823	1121.1878	1162.1867	1202.4807	1255.4106	1284.7509	1338.524	1352.9678	1405.2941	1515.6707	1621.263	1816.9925	2237.9544	3028.7522	3045.6637	3068.0856	3105.3555	3503.1159	3591.8367	3722.22
NC(=O)C1OCC1C#C	NC(=O)[C@H]1OC[C@H]1C#C	
InChI=1S/C6H7NO2/c1-2-4-3-9-5(4)6(7)8/h1,4-5H,3H2,(H2,7,8)	InChI=1S/C6H7NO2/c1-2-4-3-9-5(4)6(7)8/h1,4-5H,3H2,(H2,7,8)/t4-,5+/m1/s1
