17
gdb 55885	3.39531	0.90247	0.84607	3.8118	76.	-0.2359	0.0185	0.2544	1385.5288	0.135206	-417.980935	-417.971722	-417.970777	-418.0158	33.931	
N	-0.1275785072	 0.3427192125	 0.9806055589	-0.505689
C	 0.043508366	-0.0152383165	-0.3238807826	 0.369042
O	 0.9172034214	 0.4396849173	-1.0358624769	-0.361146
C	-1.0003094518	-1.0200245774	-0.8287070318	-0.312903
C	-1.0040586257	-2.3202568648	-0.0524865389	-0.013935
N	-1.5011371186	-2.2696505815	 1.3296525894	-0.330818
C	-2.2720308182	-3.0336177812	 0.3165824497	-0.249691
C	-3.5716357235	-2.5395987887	-0.0438922457	 0.376363
C	-4.661568859	-2.150014844	-0.3686393412	-0.437148
H	 0.559438575	 0.9481542833	 1.3989795406	 0.254094
H	-0.7767969312	-0.1641326949	 1.56436214	 0.271249
H	-1.9929282343	-0.5624216906	-0.7664362353	 0.135337
H	-0.7783314771	-1.2130476879	-1.8800087959	 0.129757
H	-0.1494192014	-2.9672478141	-0.2415667351	 0.106602
H	-0.9865228921	-2.915022682	 1.9228006173	 0.243788
H	-2.2043177412	-4.1178644253	 0.3731165518	 0.119587
H	-5.6251002612	-1.8012740041	-0.6481228742	 0.205511
44.5638	63.1469	124.9017	190.4382	227.3007	317.9318	360.9421	381.31	453.6738	530.3669	553.9631	596.6651	615.7292	628.9927	665.0177	718.9172	808.8432	828.7194	871.4827	923.2206	946.1693	985.8813	1010.6683	1102.7365	1134.8868	1167.4874	1209.0211	1246.7372	1270.5567	1307.094	1357.138	1400.2873	1446.0903	1468.1336	1619.1143	1804.9467	2241.7112	3062.0701	3118.9699	3129.1584	3136.203	3502.5698	3509.1574	3557.5557	3708.0909
NC(=O)CC1NC1C#C	NC(=O)C[C@H]1N[C@H]1C#C	
InChI=1S/C6H8N2O/c1-2-4-5(8-4)3-6(7)9/h1,4-5,8H,3H2,(H2,7,9)	InChI=1S/C6H8N2O/c1-2-4-5(8-4)3-6(7)9/h1,4-5,8H,3H2,(H2,7,9)/t4-,5+/m0/s1
