14
gdb 66054	2.61895	1.3101	1.14499	4.5496	68.52	-0.2849	-0.0177	0.2672	1090.6144	0.098257	-436.626136	-436.617365	-436.616421	-436.660161	31.393	
O	 0.1149374241	 1.4115980265	-0.0254735037	-0.433824
C	 0.0643598588	 0.0107016095	-0.0271414209	 0.154119
C	 0.0383783547	-0.5111621188	 1.4304540653	-0.096687
O	-1.3114090687	-1.0068058452	 1.2941090732	-0.268986
C	-1.3905249664	-0.6186598036	-0.082274681	-0.076748
C	-2.4636775214	 0.3290823693	-0.3739428722	 0.292346
N	-3.298795142	 1.0806516483	-0.6435777564	-0.316241
C	 1.0141684703	-0.5917073943	-0.9487003655	 0.284871
C	 1.781143733	-1.0751740314	-1.7375902698	-0.4516
H	 0.0872134265	 1.7276701572	-0.9364884336	 0.299585
H	 0.7486682481	-1.3097084772	 1.6602267689	 0.126165
H	 0.1114380653	 0.2991540981	 2.1614064976	 0.138974
H	-1.475872404	-1.4851220019	-0.747482817	 0.132506
H	 2.4684869516	-1.5027363165	-2.4262988148	 0.21552
42.9369	130.2305	139.9474	172.7157	237.9308	310.2245	352.1587	397.2111	461.9533	501.3198	562.0079	604.3293	655.9869	663.065	681.2453	843.6078	935.24	958.9493	995.8531	1018.4696	1054.8741	1117.4292	1146.6658	1191.8143	1264.3835	1328.8843	1356.0907	1382.5383	1508.6567	2236.5779	2358.5671	3049.662	3055.9283	3116.6976	3495.6477	3800.0814
OC1(COC1C#N)C#C	O[C@]1(CO[C@H]1C#N)C#C	
InChI=1S/C6H5NO2/c1-2-6(8)4-9-5(6)3-7/h1,5,8H,4H2	InChI=1S/C6H5NO2/c1-2-6(8)4-9-5(6)3-7/h1,5,8H,4H2/t5-,6-/m0/s1
