16
gdb 55588	4.21269	0.78407	0.70759	2.7689	70.38	-0.2596	-0.0404	0.2192	1562.9521	0.120897	-475.073171	-475.063388	-475.062444	-475.110401	32.782	
C	 0.2380896533	 0.6780750827	-0.7372064872	-0.486268
C	-0.0588300988	-0.0735589438	 0.5393408333	 0.386368
O	 0.6336885427	-0.0135944097	 1.52405168	-0.279511
C	-1.3371671766	-0.9376283988	 0.552390133	-0.412176
C	-1.1964794764	-2.1853000895	-0.2944381602	 0.455646
O	-0.7541059782	-2.2346312299	-1.4113934583	-0.337213
O	-1.6576642448	-3.2730500702	 0.3946067157	-0.194782
C	-1.6088877411	-4.5029732177	-0.226699113	 0.117689
N	-2.0680714516	-5.4885645264	 0.4016891463	-0.409998
H	 1.204564612	 1.1764881462	-0.6589000202	 0.14404
H	 0.219034811	-0.0101098102	-1.5870379381	 0.174004
H	-0.5458924088	 1.4251814722	-0.9118325519	 0.140255
H	-1.5740482379	-1.206593038	 1.5806557514	 0.15863
H	-2.167811651	-0.3606727277	 0.1275495843	 0.151199
H	-1.1605431708	-4.4599516956	-1.2188729826	 0.147673
H	-1.9700372531	-6.3337415333	-0.1593352029	 0.244444
14.8666	53.2013	102.6399	125.1985	159.0037	167.0086	234.5241	335.3187	396.8516	493.2206	529.9357	551.275	604.1748	753.8223	807.2522	854.7786	885.2027	941.3481	1010.2586	1042.02	1056.4993	1071.8267	1142.2853	1182.4835	1240.5041	1259.1957	1317.0466	1384.1135	1388.495	1450.1293	1468.3826	1476.1648	1748.8885	1817.3957	1834.7807	3038.1192	3049.4011	3109.7231	3145.0738	3155.2233	3161.6901	3508.2828
CC(=O)CC(=O)OC=N	CC(=O)CC(=O)O[CH][NH]	
InChI=1S/C5H7NO3/c1-4(7)2-5(8)9-3-6/h3,6H,2H2,1H3	InChI=1S/C5H7NO3/c1-4(7)2-5(8)9-3-6/h3,6H,2H2,1H3
