21
gdb 109083	4.18366	1.0109	0.92011	2.2395	84.35	-0.234	0.0162	0.2502	1354.838	0.183796	-387.091442	-387.082973	-387.082029	-387.125068	32.194	
C	-0.2539605169	 1.4261120661	 0.0875864295	-0.375242
C	 0.0445043494	-0.0778212396	-0.0475754017	-0.284494
C	 0.7899768997	-0.4335700005	-1.301166231	 0.338545
C	 2.0132342742	-0.9700029726	-1.3752299325	-0.204297
C	 2.448079098	-1.2259317937	-2.7878015206	 0.096454
O	 2.3415594952	-2.6191713489	-3.2007146018	-0.295243
C	 1.1160363143	-2.3463052202	-3.9116579258	-0.079947
C	 1.2144787505	-0.8283993723	-3.6392609097	-0.07688
C	 0.1891322465	-0.2020069849	-2.6798897192	-0.32882
H	 0.6722437871	 2.0094338432	 0.0910499055	 0.121473
H	-0.8751503772	 1.788884003	-0.7371729065	 0.120354
H	-0.7875397769	 1.6314439352	 1.0204172503	 0.116031
H	 0.6166673511	-0.4168610629	 0.8228389697	 0.104844
H	-0.9073283285	-0.6275052968	-0.0292194898	 0.104898
H	 2.6294498369	-1.2239230865	-0.5191167997	 0.090104
H	 3.4388452863	-0.8299554098	-3.0382726401	 0.072604
H	 1.1829878232	-2.6531464211	-4.9622750363	 0.099322
H	 0.249153485	-2.8414419846	-3.4521547449	 0.093605
H	 1.4064734398	-0.2292115634	-4.5293261817	 0.076579
H	-0.8048406617	-0.6620774028	-2.7696041792	 0.102728
H	 0.045111044	 0.867730003	-2.8785235947	 0.107381
60.8161	97.5365	138.8205	218.0303	226.5072	331.6241	369.8178	479.6742	505.5435	597.5901	670.8307	779.2033	799.1048	855.7859	858.9814	875.0372	897.5618	934.018	966.322	971.2733	1010.481	1015.9022	1056.9519	1068.2734	1084.2993	1105.7276	1159.4638	1164.3682	1202.5823	1235.782	1267.7536	1269.169	1300.2337	1322.2895	1334.3799	1348.5573	1352.8254	1376.5534	1407.8385	1478.4704	1483.3203	1499.6144	1507.6561	1522.352	1702.6055	3000.2954	3007.6283	3011.9269	3035.8995	3039.1595	3039.8224	3048.9242	3064.1791	3109.1847	3109.8983	3110.9421	3187.8176
CCC1=CC2OCC2C1	CCC1=C[C@H]2OC[C@H]2C1	
InChI=1S/C8H12O/c1-2-6-3-7-5-9-8(7)4-6/h4,7-8H,2-3,5H2,1H3	InChI=1S/C8H12O/c1-2-6-3-7-5-9-8(7)4-6/h4,7-8H,2-3,5H2,1H3/t7-,8-/m1/s1
