21
gdb 92856	2.82798	1.51093	1.12937	1.5632	83.6	-0.2329	0.0178	0.2507	1136.6136	0.184904	-387.10301	-387.095032	-387.094088	-387.135434	31.534	
C	-0.1562345081	 1.5467188904	-0.1266794003	-0.393164
C	-0.0000872352	 0.0244000922	-0.0377956939	-0.019519
C	 0.9634682822	-0.5054304482	-1.1530399457	-0.255073
C	 2.3027348643	-0.6120159484	-0.4486020796	-0.248177
C	 2.1347753292	-0.6085016475	 0.8693344812	 0.341762
C	 2.967266922	-0.5174025406	 2.1113191893	-0.183379
O	 2.0502139419	-0.1214852809	 3.1413078479	-0.269692
C	 0.8413265176	 0.3673581753	 2.5450715616	-0.106698
C	 0.6838828373	-0.469369008	 1.2674917379	-0.071794
H	 0.8129477648	 2.0520942833	-0.0565333778	 0.121263
H	-0.6066560041	 1.8253582365	-1.0849194785	 0.111559
H	-0.7995664571	 1.9375715365	 0.6681973781	 0.114244
H	-0.9907228296	-0.4287028421	-0.1432928236	 0.067873
H	 0.634592676	-1.4825117953	-1.5350280754	 0.10283
H	 0.9941790509	 0.1665013469	-2.0195402251	 0.098101
H	 3.2467828134	-0.672499604	-0.9788727992	 0.090775
H	 3.4171476646	-1.4719981631	 2.4129711113	 0.114999
H	 3.7800294984	 0.2172767198	 2.0093918041	 0.107216
H	 0.0454420033	 0.2328945688	 3.2824831456	 0.104293
H	 0.9297557663	 1.4396229545	 2.3167748788	 0.09074
H	 0.2782749818	-1.4503985763	 1.5551891934	 0.081841
84.9882	160.2256	219.3186	259.0837	287.743	323.7788	397.7276	434.0766	576.4345	608.1625	672.9117	750.2228	793.8733	831.8011	856.7283	913.1032	921.6202	934.786	981.1743	1007.4813	1022.1005	1034.5845	1057.5387	1079.1328	1106.6089	1134.3489	1168.1086	1205.4786	1220.1695	1225.9923	1250.7464	1268.9023	1305.4546	1315.6696	1333.3409	1357.8128	1370.569	1398.731	1408.4009	1486.2351	1500.0738	1501.1469	1504.9851	1520.7835	1745.7781	2987.0578	2990.4554	3001.8288	3002.9316	3031.0155	3031.1376	3045.4853	3054.0225	3088.8127	3099.3055	3102.6735	3190.7854
CC1CC=C2COCC12	C[C@H]1CC=C2COC[C@@H]12	
InChI=1S/C8H12O/c1-6-2-3-7-4-9-5-8(6)7/h3,6,8H,2,4-5H2,1H3	InChI=1S/C8H12O/c1-6-2-3-7-4-9-5-8(6)7/h3,6,8H,2,4-5H2,1H3/t6-,8-/m0/s1
