16
gdb 29415	4.94622	0.87786	0.75938	2.3547	76.54	-0.181	0.0126	0.1936	1438.	0.125065	-434.084332	-434.075566	-434.074621	-434.118211	32.102	
N	 0.3009390561	 1.1795668026	 0.6430936541	-0.605982
C	 0.0243845657	-0.1119993278	 0.1550395685	 0.27399
C	-1.1804551294	-0.5923206472	-0.3055018852	-0.171361
N	-1.0107567258	-1.9405444356	-0.5939776145	-0.314542
C	 0.2765175129	-2.2887015588	-0.3374105419	 0.405995
O	 0.6607333414	-3.5703816558	-0.6020747726	-0.212554
C	 1.4382827243	-4.1945457463	 0.3264988054	 0.107232
N	 1.9602093767	-5.3038040726	 0.0420906145	-0.430115
C	 0.962829985	-1.1926844633	 0.1308228484	-0.351617
H	 1.2187399552	 1.5041533666	 0.3640090364	 0.240708
H	-0.385499489	 1.8585846713	 0.3387736527	 0.237822
H	-2.1302491184	-0.1059418995	-0.4508679722	 0.109072
H	-1.7077133914	-2.5704526711	-0.9492408809	 0.268599
H	 1.5128222909	-3.6273086174	 1.2608069544	 0.110326
H	 2.4855966256	-5.6537762071	 0.8406494371	 0.235737
H	 2.00590977	-1.1551368181	 0.4018523359	 0.096688
59.1814	112.245	138.8707	192.1694	259.4367	293.3398	349.6436	426.6259	440.7109	497.2688	605.4626	646.6236	665.0054	676.5223	748.4042	795.4871	807.5878	830.7001	987.2215	1004.4106	1054.1448	1061.3263	1102.108	1117.097	1204.3508	1265.0014	1296.5114	1335.585	1401.73	1455.1627	1509.6313	1562.0468	1637.0899	1660.4164	1746.5006	3067.0932	3255.5398	3272.0369	3521.1546	3526.5898	3614.4039	3694.6768
NC1=CNC(OC=N)=C1	Nc1c[nH]c(O[CH][NH])c1	
InChI=1S/C5H7N3O/c6-3-9-5-1-4(7)2-8-5/h1-3,6,8H,7H2	InChI=1S/C5H7N3O/c6-3-9-5-1-4(7)2-8-5/h1-3,6,8H,7H2
