16
gdb 123442	5.2646	0.9193	0.81001	3.682	69.95	-0.2638	-0.0459	0.2179	1350.5622	0.125485	-433.995987	-433.988335	-433.987391	-434.02966	27.686	
C	 0.1867614994	 1.2140678202	 0.6712156197	-0.347743
C	-0.0266413087	-0.0985825248	-0.054051282	 0.027853
C	-1.3916070684	-0.6175017656	-0.2982940522	-0.248856
N	-0.5776725836	-0.1129193119	-1.4222426284	-0.315725
C	 1.4602128322	 1.8946946444	 0.2618576107	 0.33026
N	 2.2067128152	 2.5583506352	 1.1052052782	-0.148466
O	 3.2607963991	 3.0404110209	 0.381298272	-0.146988
N	 3.176458727	 2.66702063	-0.929224133	-0.061034
C	 2.0819008285	 1.9655840544	-1.0209925	-0.101686
H	-0.6641355825	 1.8790104286	 0.4682816426	 0.122262
H	 0.210240408	 1.0603626694	 1.7548816284	 0.143456
H	 0.7743685536	-0.8221843245	 0.0844227416	 0.108603
H	-1.5731773343	-1.6878850616	-0.3077386787	 0.128693
H	-2.232941563	-0.0190016983	 0.0421222355	 0.117302
H	-0.9012591111	 0.8197607385	-1.6720043846	 0.229193
H	 1.7734523086	 1.5267469851	-1.9571042996	 0.162877
35.2663	86.1642	125.0433	286.8819	312.9934	350.2839	456.3457	650.7122	678.4825	737.8231	792.1778	831.0665	895.5284	909.7373	928.1791	932.7817	945.083	982.4013	1026.8021	1043.7447	1066.8955	1128.5092	1148.7779	1178.1305	1204.6108	1254.4876	1267.4331	1307.5848	1320.2163	1416.5266	1430.6744	1462.9376	1469.7797	1513.0113	1611.4411	3017.6971	3082.306	3111.6934	3130.133	3198.5442	3271.747	3480.7726
C(C1CN1)C1=NON=C1	C([C@H]1CN1)c1nonc1	
InChI=1S/C5H7N3O/c1(4-2-6-4)5-3-7-9-8-5/h3-4,6H,1-2H2	InChI=1S/C5H7N3O/c1(4-2-6-4)5-3-7-9-8-5/h3-4,6H,1-2H2/t4-/m0/s1
