22
gdb 116777	3.48615	0.75611	0.7502	2.8216	87.	-0.2418	0.0305	0.2722	1693.6879	0.191417	-404.335271	-404.324945	-404.324	-404.371159	37.865	
C	-6.7767770447	 1.1034894821	-0.3237326243	-0.395648
C	-5.3618559459	 1.4482493303	 0.1543896798	-0.109222
N	-4.2632314743	 0.5645174657	-0.1973268507	-0.231224
C	-4.4687463371	-0.4742238598	-0.8731632442	 0.108543
O	-3.4331511941	-1.3008140627	-1.1666889774	-0.244093
C	-3.7197836822	-2.3740617022	-2.044934391	 0.420812
C	-3.7707660614	-1.9671217803	-3.4989062726	-0.445378
C	-3.0870774623	-3.6669259273	-1.6351871838	-0.307267
C	-4.587753653	-3.4866811733	-1.5110452933	-0.317536
H	-7.4764756437	 1.8705181798	 0.0218204961	 0.11472
H	-6.8407027684	 1.0650242948	-1.4165962172	 0.117367
H	-7.1193543839	 0.1408527508	 0.071099909	 0.117884
H	-5.0938582014	 2.4493595014	-0.2093347472	 0.111647
H	-5.3635018798	 1.5352979155	 1.2493527195	 0.111551
H	-5.4324039894	-0.8230635298	-1.2606250812	 0.083818
H	-2.8316551488	-1.4867768303	-3.7911572698	 0.135161
H	-3.9267554835	-2.8399580041	-4.1389561295	 0.119921
H	-4.5861467494	-1.2601345009	-3.6878807777	 0.119423
H	-2.7017284332	-4.3169908041	-2.4126561928	 0.115484
H	-2.508767783	-3.6543956409	-0.7190478523	 0.132616
H	-4.9907539256	-3.373775221	-0.5111244469	 0.124375
H	-5.2364527152	-4.0108792437	-2.2045124428	 0.117046
49.4054	63.1709	109.376	177.2198	217.677	244.5634	260.9179	302.2993	326.245	327.1639	408.4826	434.0801	505.8651	577.0173	738.3395	773.791	779.2118	865.3573	887.7023	932.5255	948.2145	980.0433	991.4747	1037.7799	1062.3726	1078.1488	1081.0691	1092.0476	1140.8988	1147.3766	1189.501	1225.2478	1279.7675	1314.8061	1344.3965	1378.2546	1394.8798	1416.0208	1418.9981	1455.1629	1482.7316	1484.6053	1490.1926	1495.0948	1505.9384	1507.2895	1775.877	3013.5896	3030.5511	3032.4586	3033.6641	3056.2084	3098.8015	3099.0519	3106.4031	3117.0868	3135.9275	3142.7483	3220.868	3236.5639
CCN=COC1(C)CC1	CCN=COC1(C)CC1	
InChI=1S/C7H13NO/c1-3-8-6-9-7(2)4-5-7/h6H,3-5H2,1-2H3	InChI=1S/C7H13NO/c1-3-8-6-9-7(2)4-5-7/h6H,3-5H2,1-2H3
