22
gdb 99745	1.89096	1.36404	0.90612	14.078	82.62	-0.169	-0.0239	0.1451	1366.8531	0.192323	-441.458802	-441.447882	-441.446938	-441.495209	39.317	
C	-0.1480300009	 1.6841923724	 0.3123105117	-0.380728
C	-0.0133369401	 0.1668822523	 0.1379768435	-0.215087
C	 0.7811451812	-0.5032771868	 1.2770133795	-0.106373
C	 0.7395916418	-2.0190284739	 1.2383300356	-0.004826
C	 1.4096861611	-2.7208006456	 2.408170767	-0.413632
N	-0.7499557121	-2.5006721209	 1.2164191364	-0.435469
H	-0.8309338116	-3.5041792236	 1.0438155949	 0.31278
H	-1.1880187561	-2.2897679523	 2.1149657331	 0.315781
H	-1.2536234027	-1.9830971715	 0.4913152294	 0.314622
C	 2.3421150676	-0.0843693266	 1.1190763892	 0.368113
O	 3.0369149242	-0.975799495	 0.5884278997	-0.472989
O	 2.6040171109	 1.0525636113	 1.5175915298	-0.44579
H	 0.8394892842	 2.1177133549	 0.4779758219	 0.184473
H	-0.6148315596	 2.1383645518	-0.567266367	 0.096023
H	-0.7676896553	 1.9215508709	 1.1846946733	 0.096811
H	-1.0425344878	-0.2386093506	 0.0313651333	 0.027081
H	 0.4920628251	-0.0584224622	-0.8103390398	 0.124037
H	 0.4253285522	-0.139119278	 2.2506812824	 0.060721
H	 1.1617026426	-2.3629792307	 0.2928156032	 0.14577
H	 1.0200860016	-2.3642659299	 3.3692258813	 0.117703
H	 1.2961460859	-3.8107444197	 2.360524888	 0.099096
H	 2.4705552981	-2.4783523764	 2.3414124837	 0.211883
45.6992	71.3618	96.4401	188.6844	204.8163	216.6973	223.0593	265.2504	275.8929	313.8399	364.0177	368.497	436.1763	482.1801	619.8784	693.1775	755.3837	781.2099	834.5193	875.4462	898.1234	933.2466	948.5734	1037.5289	1045.1824	1069.9381	1105.0292	1156.6265	1190.2604	1219.304	1262.5447	1294.1815	1325.7416	1330.938	1376.7891	1387.9551	1392.222	1408.1327	1418.7141	1474.1426	1478.9989	1490.3789	1513.8396	1515.593	1633.0105	1653.3502	1790.091	2843.4074	3012.688	3021.0984	3030.8634	3038.4152	3082.0869	3095.1842	3126.7278	3146.9808	3159.3857	3395.7921	3489.1021	3515.6959
CCC(C(C)[NH3+])C([O-])=O	CC[C@@H]([C@@H](C)[NH3])C(=O)[O]	
InChI=1S/C6H13NO2/c1-3-5(4(2)7)6(8)9/h4-5H,3,7H2,1-2H3,(H,8,9)	InChI=1S/C6H13NO2/c1-3-5(4(2)7)6(8)9/h4-5H,3H2,1-2,7H3/t4-,5+/m1/s1
