16
gdb 55481	4.74894	0.64789	0.57413	2.3515	77.27	-0.2516	-0.0591	0.1925	1836.3932	0.121158	-437.914578	-437.904268	-437.903324	-437.952472	34.744	
C	 0.1009222957	 1.0958442778	-0.1317066274	-0.479445
C	-0.1921791993	-0.3670947826	-0.380556313	 0.249134
O	 0.6207989652	-1.1399516237	-0.8437372107	-0.279022
C	-1.526694334	-0.8195087594	-0.0311322469	 0.106566
C	-2.6219471807	-1.2515708882	 0.2412366919	 0.000367
C	-3.9107340451	-1.8473103153	 0.5406341107	-0.489869
C	-4.064109313	-3.3568502853	 0.2325122717	 0.428589
N	-2.9725890227	-3.9668816025	-0.2865532329	-0.523454
O	-5.1183218503	-3.9115237099	 0.4607510269	-0.355119
H	 1.1259641341	 1.3204427432	-0.4294601331	 0.146433
H	-0.6001741779	 1.7203428473	-0.6960122296	 0.149794
H	-0.0434356092	 1.3325279985	 0.9280659123	 0.149797
H	-4.1556728349	-1.7211264408	 1.6015289716	 0.174038
H	-4.7083317493	-1.3358953423	-0.0104449072	 0.174039
H	-2.1158898515	-3.4683463975	-0.4610582938	 0.281377
H	-3.0317225972	-4.9483980593	-0.5010102704	 0.266775
22.997	43.218	48.2095	118.3681	144.7737	166.673	317.6824	334.7509	370.7412	406.3855	473.2941	514.2024	551.3454	602.9672	622.635	680.8432	703.9562	839.4649	939.8376	963.783	1043.8079	1056.418	1100.7173	1210.7654	1246.7503	1298.0937	1350.6091	1384.0306	1432.9168	1459.8972	1468.2155	1612.8776	1763.9736	1813.1478	2323.8086	3039.2721	3047.3547	3080.7821	3102.8882	3153.3328	3596.0263	3730.3859
CC(=O)C#CCC(N)=O	CC(=O)C#CCC(=O)N	
InChI=1S/C6H7NO2/c1-5(8)3-2-4-6(7)9/h4H2,1H3,(H2,7,9)	InChI=1S/C6H7NO2/c1-5(8)3-2-4-6(7)9/h4H2,1H3,(H2,7,9)
