20
gdb 76123	2.9593	1.29871	1.0903	4.3817	83.1	-0.2687	0.0306	0.2992	1182.4969	0.170464	-366.01234	-366.003237	-366.002292	-366.04584	34.384	
C	-0.1710851584	 1.580072717	 0.0811382849	-0.418151
C	 0.0389255015	 0.0736430798	 0.0382430682	-0.052075
C	 1.1409449925	-0.5435925258	-0.9223808138	-0.182544
C	 1.9868349754	 0.3784565845	-1.6698920377	 0.286504
N	 2.6531594801	 1.1289728813	-2.2450283584	-0.3441
C	 1.7714002172	-1.2418469011	 0.2943836078	-0.105251
C	 2.1568517542	-0.2262959461	 1.3335251016	-0.340073
C	 0.7140553718	-0.640457994	 1.2260393755	 0.362077
C	-0.0456373419	-1.2748011722	 2.3559957206	-0.501568
H	 0.7589383771	 2.1187665223	 0.2805002387	 0.13413
H	-0.5667574697	 1.9485287499	-0.8707237333	 0.128539
H	-0.8888330905	 1.8410003948	 0.8661454987	 0.118452
H	-0.9105966697	-0.4203540633	-0.1912857481	 0.083799
H	 0.6923358881	-1.2507641139	-1.6236976712	 0.121493
H	 2.1872943062	-2.2415803902	 0.2706324773	 0.097879
H	 2.6829413555	-0.6339392759	 2.1910317682	 0.117074
H	 2.5003020353	 0.7615145553	 1.038307313	 0.127511
H	-0.4808794837	-0.5165368451	 3.0179235434	 0.126106
H	-0.8654055452	-1.9007700704	 1.9847956337	 0.117704
H	 0.6077848941	-1.906045967	 2.9667690907	 0.122494
93.9728	132.0561	184.2788	192.4269	197.4746	246.2332	295.1268	349.7777	412.0363	478.4499	526.7489	603.1216	660.0979	689.3791	769.9223	815.0093	894.7637	911.5551	945.5618	974.8442	983.1371	1021.1687	1064.5754	1078.4483	1101.4716	1107.5437	1115.8165	1138.2099	1186.0981	1243.3406	1258.5959	1298.2156	1328.3204	1362.5251	1402.533	1414.1576	1428.2673	1485.1092	1490.5353	1492.1781	1497.1694	1504.8732	2347.5681	3021.2138	3038.2242	3050.7759	3079.6004	3086.1316	3097.225	3103.0356	3116.2902	3120.713	3186.0283	3203.2683
CC1C(C#N)C2CC12C	C[C@H]1[C@@H](C#N)[C@H]2C[C@@]12C	
InChI=1S/C8H11N/c1-5-6(4-9)7-3-8(5,7)2/h5-7H,3H2,1-2H3	InChI=1S/C8H11N/c1-5-6(4-9)7-3-8(5,7)2/h5-7H,3H2,1-2H3/t5-,6+,7+,8-/m0/s1
