18
gdb 66375	2.355	1.4034	1.31544	2.4815	71.43	-0.2671	0.0114	0.2785	1072.6924	0.148487	-439.103638	-439.095299	-439.094355	-439.136255	32.081	
O	-0.0824941082	 1.4096278623	 0.0108367466	-0.453373
C	 0.0219870359	-0.0049183677	-0.0166124284	 0.225676
C	 0.7707177232	-0.5569277361	 1.215669676	-0.254387
C	 0.6234510322	-2.0805675628	 1.3189507601	-0.092245
O	-0.7375126907	-2.4662449221	 1.341234365	-0.239418
C	-1.4194271573	-2.0784058294	 0.1614842152	-0.099347
C	-1.4137236826	-0.5578082495	-0.0193694312	-0.222759
C	 0.7299277828	-0.4192354428	-1.2546184017	 0.244468
N	 1.3057678296	-0.7243791707	-2.2095172303	-0.341911
H	 0.8068568704	 1.7829652542	 0.0178803708	 0.289763
H	 1.8302006577	-0.2789863398	 1.1766913477	 0.107037
H	 0.3228443824	-0.0819961846	 2.0942717138	 0.124213
H	 1.1480832751	-2.5686551016	 0.4812276612	 0.112795
H	 1.0658286113	-2.4435484125	 2.2502478365	 0.118386
H	-0.9694537491	-2.566924518	-0.7182921033	 0.112357
H	-2.4444327135	-2.4440615159	 0.2613681166	 0.119085
H	-1.9347176162	-0.0817724935	 0.8169999571	 0.125454
H	-1.922776443	-0.2725011694	-0.9442592917	 0.124208
112.3475	143.8123	211.476	255.0802	306.7977	338.6427	347.0048	394.777	429.5086	483.6063	570.5953	592.3275	651.4066	673.4633	821.5015	858.0104	919.4642	929.6593	1005.5083	1015.3462	1048.6319	1094.3755	1114.7236	1154.7058	1176.3616	1204.1015	1255.5348	1291.9241	1323.6008	1336.8938	1360.6486	1376.4025	1393.9932	1426.0192	1467.248	1485.3294	1494.3571	1506.6196	2346.6767	2977.8553	2981.5623	3041.5563	3059.1821	3092.9652	3098.4636	3099.8845	3112.4015	3795.7873
OC1(CCOCC1)C#N	OC1(CCOCC1)C#N	
InChI=1S/C6H9NO2/c7-5-6(8)1-3-9-4-2-6/h8H,1-4H2	InChI=1S/C6H9NO2/c7-5-6(8)1-3-9-4-2-6/h8H,1-4H2
