18
gdb 88578	3.64756	1.08804	0.99054	2.6487	74.27	-0.245	0.0066	0.2516	1257.4597	0.147808	-439.08215	-439.073632	-439.072688	-439.116287	30.535	
C	-0.3632820925	 1.4155685664	-0.123107006	-0.433225
C	 0.0082313455	-0.0342468909	 0.0278362268	 0.082122
O	 1.3668331359	-0.395714447	-0.2083213278	-0.237614
C	 0.8695117935	-0.5650541633	 1.1131527533	-0.04143
C	 1.4418223062	 0.2846247849	 2.1868374035	 0.405881
N	 2.050825786	 1.3921325987	 2.0687016408	-0.309835
C	 2.4183994569	 1.8116151313	 3.4295009155	-0.186602
C	 1.8402377076	 0.7072027838	 4.3530805715	-0.113637
O	 1.2610161199	-0.2435459853	 3.4313938604	-0.261121
H	 0.3777680745	 2.0553437399	 0.3582443714	 0.164011
H	-0.41983229	 1.6738877139	-1.185673385	 0.128794
H	-1.3481990877	 1.6007473796	 0.319234665	 0.117301
H	-0.708565116	-0.7480234988	-0.3848920227	 0.095249
H	 0.7209416917	-1.5974049053	 1.4274435965	 0.107674
H	 3.5073342319	 1.8984089585	 3.5083155906	 0.121181
H	 1.9984457087	 2.7996091836	 3.6442967195	 0.118916
H	 2.5964522372	 0.1888420279	 4.9482667387	 0.122577
H	 1.0490640706	 1.064504742	 5.018650008	 0.119758
49.112	93.339	129.3125	180.2754	205.8283	272.83	369.8722	421.8878	471.1138	690.0652	742.9901	759.592	804.1494	831.5641	858.5384	925.3107	972.5923	986.6577	1003.6929	1019.4655	1062.8138	1088.4745	1120.4151	1162.683	1173.5507	1208.1661	1215.0202	1246.3817	1288.1134	1328.9044	1370.6238	1397.5271	1427.8464	1466.9831	1495.595	1502.4491	1503.6001	1527.3946	1737.3727	3038.7304	3041.9444	3056.0241	3070.5379	3082.1834	3100.3255	3105.2745	3123.8404	3149.3611
CC1OC1C1=NCCO1	C[C@H]1O[C@H]1C1=NCCO1	
InChI=1S/C6H9NO2/c1-4-5(9-4)6-7-2-3-8-6/h4-5H,2-3H2,1H3	InChI=1S/C6H9NO2/c1-4-5(9-4)6-7-2-3-8-6/h4-5H,2-3H2,1H3/t4-,5-/m1/s1
