20
gdb 104653	2.30586	1.31091	1.01404	1.1125	77.15	-0.2167	-0.0362	0.1805	1266.2236	0.167801	-440.249392	-440.239505	-440.238561	-440.284487	35.246	
C	 0.3409555709	 1.3470110265	-0.0794921715	-0.26187
O	 0.2021540956	-0.0426311604	 0.1554243665	-0.294346
C	-1.1231305309	-0.5135682973	 0.1148394938	 0.309882
C	-1.8538939123	-0.5008896796	-1.2568147903	-0.23726
N	-1.5043788556	-1.9205907037	-1.4480854325	-0.067741
C	-2.5109199845	-2.8077326465	-1.9858497076	-0.324904
C	-1.1275541284	-2.0654578123	-0.0329389877	-0.211863
C	-1.9085776124	-0.0116580801	 1.3137610415	 0.092773
O	-3.1075668444	 0.092075558	 1.3583903896	-0.249412
H	 1.4015734268	 1.5805485485	 0.0337010308	 0.13724
H	 0.0228934495	 1.6258611939	-1.0928946872	 0.11915
H	-0.2315103508	 1.9506068504	 0.640576652	 0.11317
H	-2.9281550049	-0.3145898897	-1.1131240494	 0.114306
H	-1.4629109734	 0.1726159644	-2.0261893603	 0.106811
H	-2.7357445383	-2.5250206341	-3.019686193	 0.123097
H	-2.1319700026	-3.8352395761	-1.9962644151	 0.122169
H	-3.4579905846	-2.7954374702	-1.4133851281	 0.097756
H	-0.1537242511	-2.5321075659	 0.1452738087	 0.120729
H	-1.8944379651	-2.5489848259	 0.591310876	 0.099686
H	-1.2630198236	 0.22216701	 2.1911964136	 0.090626
65.7873	76.0728	141.7908	179.7373	203.7275	225.2149	266.0602	288.9515	315.5664	338.9177	397.4751	482.3915	563.9713	650.1758	762.1818	877.2355	892.7654	930.5829	977.0409	1007.0583	1089.0371	1105.5524	1128.7809	1143.7886	1149.3058	1179.4374	1187.5458	1220.7958	1237.0894	1263.4969	1273.3546	1303.4274	1340.5067	1398.5334	1451.9147	1478.6547	1483.5737	1485.0711	1490.6071	1499.6348	1506.0907	1514.767	1827.0875	2875.8582	2928.0803	2986.1886	2988.6807	3004.0149	3044.2024	3057.2719	3070.8061	3075.6506	3098.845	3125.9534
COC1(CN(C)C1)C=O	COC1(CN(C)C1)C=O	
InChI=1S/C6H11NO2/c1-7-3-6(4-7,5-8)9-2/h5H,3-4H2,1-2H3	InChI=1S/C6H11NO2/c1-7-3-6(4-7,5-8)9-2/h5H,3-4H2,1-2H3
