16
gdb 54535	3.42245	1.34308	1.11204	2.8845	64.88	-0.2504	0.0061	0.2565	1076.5717	0.124747	-475.038394	-475.030459	-475.029515	-475.071032	29.806	
N	 0.5303256178	 0.182956013	-0.9833086597	-0.535126
C	-0.0863866899	 0.1941798203	 0.2271268072	 0.30407
O	 0.3568578042	 0.7200457675	 1.2306802877	-0.363522
C	-1.4001769384	-0.5412328696	 0.2459160737	 0.301434
C	-2.4678581786	-0.1912099184	 1.261967008	-0.142189
O	-3.3778956951	-1.287917578	 1.2497779603	-0.259357
C	-2.7048223469	-2.4624849725	 0.8212457841	-0.099564
C	-1.5502590637	-1.9795353941	-0.0296692462	-0.043747
O	-1.9360213675	-1.0062193338	-1.006292015	-0.300016
H	 1.3736143995	 0.7207945373	-1.0955713805	 0.266296
H	 0.0223961934	-0.1348849568	-1.7924561202	 0.275467
H	-1.9875249719	-0.0511723473	 2.2394618265	 0.12859
H	-3.0318398593	 0.7111971393	 1.0088060904	 0.124289
H	-2.3058435707	-3.0463605053	 1.6671299242	 0.103776
H	-3.4225906196	-3.0828780681	 0.2749544476	 0.124652
H	-0.7199800631	-2.6290052036	-0.2915263881	 0.114945
76.1372	156.1431	188.8205	222.4063	335.2711	364.9494	368.9103	440.1893	507.1535	608.4694	633.3891	702.3013	760.3525	777.3143	893.3536	899.0676	937.8611	973.1947	999.3897	1057.2558	1095.4822	1108.1609	1117.893	1177.3795	1219.7208	1238.7126	1274.336	1344.0406	1367.4154	1390.1186	1455.2173	1498.0433	1510.4884	1598.3565	1797.0045	2975.7688	3026.9045	3075.9463	3091.4619	3165.8042	3594.5113	3732.7032
NC(=O)C12COCC1O2	NC(=O)[C@]12COC[C@H]1O2	
InChI=1S/C5H7NO3/c6-4(7)5-2-8-1-3(5)9-5/h3H,1-2H2,(H2,6,7)	InChI=1S/C5H7NO3/c6-4(7)5-2-8-1-3(5)9-5/h3H,1-2H2,(H2,6,7)/t3-,5+/m1/s1
