17
gdb 132771	2.32766	1.78414	1.02271	1.8443	79.04	-0.2441	-0.0192	0.225	1133.6751	0.135271	-426.050767	-426.04212	-426.041176	-426.084876	31.149	
C	 0.0104369924	 1.5093285341	 0.0085695553	-0.484023
C	 0.0015490762	 0.0051668499	-0.0150360037	 0.217994
N	-0.0488208412	-0.6191709792	-1.1970560862	-0.324025
C	-0.0563001407	-1.9545141118	-1.2059170978	-0.009816
C	-0.0147548402	-2.7357310939	-0.0572267987	-0.199134
C	 0.0382806231	-2.1157269931	 1.1921656977	 0.179526
C	 0.0859875201	-2.8682110675	 2.4933349564	-0.497291
C	 0.0448096789	-0.7271783925	 1.1703284747	 0.157733
F	 0.0947637528	-0.0620475657	 2.3368942569	-0.078227
H	 0.9106871095	 1.8937924636	 0.4999854976	 0.135498
H	-0.0262419005	 1.8829368373	-1.0151747703	 0.141039
H	-0.8462580288	 1.9030881831	 0.5660958994	 0.135531
H	-0.0977767352	-2.4247857497	-2.1851345706	 0.107186
H	-0.0233170615	-3.8185325537	-0.1279333028	 0.099332
H	 0.988038461	-2.6170946075	 3.0609027984	 0.145196
H	-0.7674159352	-2.6104412806	 3.1290942441	 0.145206
H	 0.0751427994	-3.9465670227	 2.3212091198	 0.128277
57.7613	62.6043	132.1461	234.8702	265.4731	280.6709	297.3482	488.4267	515.5078	538.3657	557.2065	579.028	683.4458	774.8875	852.6326	854.288	932.3283	971.9046	993.0032	1056.5428	1060.4642	1062.1036	1125.5853	1237.6025	1289.7387	1300.4133	1314.7891	1405.0748	1414.9306	1453.3358	1471.9929	1479.5512	1481.0587	1492.7813	1512.9399	1609.7631	1644.5108	3039.4272	3041.4583	3091.9229	3096.7701	3129.1832	3150.4656	3156.9992	3185.5899
CC1=NC=CC(C)=C1F	Cc1nccc(C)c1F	
InChI=1S/C7H8FN/c1-5-3-4-9-6(2)7(5)8/h3-4H,1-2H3	InChI=1S/C7H8FN/c1-5-3-4-9-6(2)7(5)8/h3-4H,1-2H3
