19
gdb 92105	2.74455	1.72308	1.46278	2.4983	73.69	-0.2319	0.079	0.3108	979.9169	0.160338	-423.001062	-422.993545	-422.9926	-423.032603	30.74	
C	 0.0407472756	 1.4464106688	-0.011148635	-0.500592
C	-0.0099530286	-0.0429676953	 0.0468522225	 0.463909
O	 0.8946459185	-0.7748404529	-0.8063586424	-0.360525
C	-0.0502680428	-1.9106287432	-0.8023470786	 0.083294
C	 0.4623717717	-2.9353302111	 0.1974675058	-0.250189
C	 0.612078209	-2.0852042175	 1.4949863913	 0.128747
O	 1.9491227719	-1.6768098501	 1.7325935684	-0.444978
C	-0.3376994194	-0.9018435969	 1.2563726123	-0.151583
C	-1.098409545	-1.0642535047	-0.0524500763	-0.208264
H	 1.0109461022	 1.8137003	 0.341319119	 0.134448
H	-0.1097601574	 1.8022925444	-1.0351584761	 0.130568
H	-0.7353629175	 1.8783626371	 0.6272257313	 0.127472
H	-0.2611260412	-2.2494644619	-1.8174813076	 0.082712
H	-0.2766974319	-3.7354015598	 0.3222370879	 0.100469
H	 1.4181911828	-3.3839028258	-0.0859954312	 0.11189
H	 0.319074625	-2.6530948399	 2.3817648964	 0.081889
H	 2.2215078097	-1.2163456323	 0.9280563771	 0.284433
H	-0.817692072	-0.4060886842	 2.0924464561	 0.088887
H	-2.1655682905	-0.9940301947	-0.2111682211	 0.097412
147.2109	183.9254	206.0373	280.8219	356.6588	432.5012	469.9995	519.1231	552.7513	591.4739	721.1869	746.3536	811.5992	833.1486	839.3163	870.2188	889.9045	916.3487	953.9275	973.0609	983.2592	1005.0517	1041.9856	1055.25	1073.707	1112.0627	1160.8671	1172.6194	1201.4707	1237.4454	1261.2982	1295.1817	1316.3377	1325.9256	1336.5696	1405.6628	1451.425	1464.4704	1471.6123	1475.2223	1499.2331	3034.4251	3041.1342	3077.3947	3099.6845	3104.7463	3108.9379	3117.1651	3182.1465	3206.9504	3765.2196
CC12OC3CC(O)C1C23	C[C@@]12O[C@H]3C[C@@H](O)[C@@H]1[C@@H]23	
InChI=1S/C7H10O2/c1-7-5-3(8)2-4(9-7)6(5)7/h3-6,8H,2H2,1H3	InChI=1S/C7H10O2/c1-7-5-3(8)2-4(9-7)6(5)7/h3-6,8H,2H2,1H3/t3-,4+,5-,6+,7-/m1/s1
