19
gdb 55800	4.20738	1.03474	0.95023	1.7958	76.74	-0.2664	0.0164	0.2828	1297.9066	0.158921	-423.015064	-423.006583	-423.005638	-423.049653	31.156	
C	 0.0906776851	 1.4330711251	-0.1066468332	-0.481621
C	-0.0495995232	-0.0663563171	 0.0001631209	 0.416794
O	-0.4388780484	-0.6691091214	 0.9674441103	-0.350087
O	 0.3313858088	-0.663121493	-1.1535294307	-0.269271
C	 0.2877590476	-2.0909457281	-1.1601546383	 0.208945
C	-1.0414155668	-2.8004656489	-1.5289181719	-0.075364
C	-0.850934683	-2.2569804562	-2.9795136331	-0.223555
C	 0.5627493847	-2.742384331	-2.5316587888	-0.095676
C	-0.1437499806	-4.0017335238	-1.9461992006	-0.22574
H	-0.2415616605	 1.8960017798	 0.8216575017	 0.147644
H	 1.1336231818	 1.6978278634	-0.3032001382	 0.149828
H	-0.502371183	 1.8077680427	-0.9456338358	 0.148622
H	 0.8250839413	-2.4753400097	-0.2915573095	 0.093508
H	-1.9536711517	-2.828661734	-0.9349803736	 0.085957
H	-1.3274397046	-2.8347105878	-3.7753463904	 0.09173
H	-0.9782825229	-1.1847724411	-3.1273422153	 0.105168
H	 1.4926715962	-2.7071959563	-3.0995509496	 0.076329
H	 0.3743853759	-4.5394173556	-1.1472097894	 0.09678
H	-0.5752350467	-4.686989797	-2.6781536445	 0.100011
39.723	61.1151	99.2337	143.8389	310.8344	348.8055	367.6482	533.2009	580.3658	609.9702	676.5985	774.0325	803.8279	889.7641	900.1623	901.8286	911.6206	939.4219	1000.391	1016.7268	1025.2641	1030.6548	1064.1232	1086.3517	1095.6882	1109.5707	1140.8583	1156.742	1195.8348	1213.3466	1245.2034	1254.5573	1264.7698	1278.0873	1390.398	1412.5173	1469.2084	1476.0665	1497.3756	1534.9981	1825.0404	3056.3289	3056.7046	3068.1442	3097.975	3113.7441	3120.8675	3126.5749	3129.6058	3143.8799	3168.5192
CC(=O)OC1C2CC1C2	CC(=O)O[C@H]1[C@H]2C[C@@H]1C2	
InChI=1S/C7H10O2/c1-4(8)9-7-5-2-6(7)3-5/h5-7H,2-3H2,1H3	InChI=1S/C7H10O2/c1-4(8)9-7-5-2-6(7)3-5/h5-7H,2-3H2,1H3/t5-,6+,7-
