15
gdb 124217	5.02186	1.00021	0.83844	3.8132	70.35	-0.2384	-0.0177	0.2208	1309.5597	0.113417	-450.132503	-450.124307	-450.123363	-450.166284	29.086	
C	-0.1122571898	 1.4748303178	-0.1422686536	-0.488633
C	-0.0039055432	 0.0049297288	 0.20815542	 0.348228
N	 0.0760605537	-0.5102149997	 1.3670013879	-0.457326
N	 0.0020458752	-0.804279698	-0.9250038648	-0.407412
C	 0.0862427538	-2.1716429015	-1.0097620171	 0.48731
N	 0.1811963389	-3.0264835702	-0.0164896143	-0.184475
O	 0.2328820226	-4.2688448307	-0.7020414712	-0.15869
C	 0.1626827096	-3.9915813874	-1.9956656878	 0.123967
N	 0.0707318457	-2.7326170991	-2.2762933913	-0.341421
H	 0.7287446484	 1.7916935599	-0.7692892	 0.143789
H	-1.0347304265	 1.6787392787	-0.6975634435	 0.143777
H	-0.1142771036	 2.0806661898	 0.7645088867	 0.139969
H	 0.0584795156	 0.2170361957	 2.0791224658	 0.219028
H	-0.063505839	-0.3606767538	-1.8265710186	 0.2663
H	 0.1878884887	-4.8229466503	-2.6853469482	 0.165588
63.0358	78.9849	120.4699	156.1005	336.1587	350.9861	364.7149	482.9379	570.097	576.3917	611.6456	766.7633	789.0811	853.4585	881.5134	909.7602	950.3626	971.2676	997.769	1060.1038	1064.7554	1129.4144	1172.1593	1280.6161	1319.7923	1365.77	1407.2026	1478.6338	1482.3929	1525.4632	1594.375	1637.8854	1737.1413	3035.1078	3094.1249	3145.3857	3262.8255	3505.0342	3654.718
CC(=N)NC1=NOC=N1	CC(=N)Nc1nocn1	
InChI=1S/C4H6N4O/c1-3(5)7-4-6-2-9-8-4/h2H,1H3,(H2,5,7,8)	InChI=1S/C4H6N4O/c1-3(5)7-4-6-2-9-8-4/h2H,1H3,(H2,5,7,8)
