17
gdb 96647	2.38738	1.39364	0.96206	1.8494	77.7	-0.2356	0.0071	0.2427	1233.0563	0.133082	-417.947793	-417.938218	-417.937274	-417.982155	35.269	
C	-0.0271972503	 1.4588612522	-0.0286760616	-0.340794
N	-0.0447892114	 0.0081604889	-0.0474873526	-0.281353
C	 0.5374899166	-0.6028169188	 0.9053410047	 0.290631
N	 1.2314196444	-0.0597655536	 1.9666215792	-0.568648
C	 0.572250333	-2.1150406629	 0.878739584	 0.161484
C	 1.8808133393	-2.7981904998	 1.0360462698	-0.195794
O	 0.9700738404	-2.7294302734	 2.1285419069	-0.283756
C	-0.4835609005	-2.7826934882	 0.1623315077	 0.272805
C	-1.3512348192	-3.379836889	-0.4136648561	-0.384769
H	 0.9944462528	 1.8655341777	-0.0874673468	 0.113805
H	-0.5870338725	 1.8405903266	-0.8858258062	 0.126915
H	-0.4945016862	 1.8761859605	 0.8795316719	 0.104181
H	 1.0665650569	 0.9122547463	 2.1721165341	 0.256994
H	 1.3259738523	-0.6647151606	 2.7697841082	 0.267999
H	 2.007602679	-3.7845545103	 0.5957495945	 0.134099
H	 2.7780367388	-2.190305427	 1.1327118805	 0.129438
H	-2.1269055035	-3.8905826387	-0.9287074983	 0.196763
63.2425	127.0119	130.3751	169.0673	226.5215	245.4532	316.3433	353.6028	401.1972	454.4891	471.4492	549.5791	568.2601	589.1924	631.1551	667.9684	728.1568	734.319	841.167	895.5517	949.2273	995.9176	1103.7323	1107.5641	1138.6242	1166.0827	1191.8914	1201.6997	1332.4781	1383.2676	1434.7209	1489.6953	1505.3752	1509.7921	1616.9684	1748.9246	2251.0954	2955.8148	3007.3402	3096.1971	3101.7483	3195.5898	3503.4857	3572.2659	3692.7962
CN=C(N)C1(CO1)C#C	CN=C(N)[C@]1(CO1)C#C	
InChI=1S/C6H8N2O/c1-3-6(4-9-6)5(7)8-2/h1H,4H2,2H3,(H2,7,8)	InChI=1S/C6H8N2O/c1-3-6(4-9-6)5(7)8-2/h1H,4H2,2H3,(H2,7,8)/t6-/m1/s1
