13
gdb 127895	1.57356	1.11182	0.66068	2.2319	64.56	-0.2629	-0.0191	0.2438	1567.9662	0.083792	-486.140864	-486.129102	-486.128158	-486.183858	33.67	
C	-0.2934045068	 1.3208096754	-0.1276934925	-0.329734
N	-0.0205114055	-0.086159144	-0.0268431079	-0.281447
C	-0.0256311789	-1.0823851257	-0.681173215	 0.541586
N	 2.7757905819	 0.8496137353	-2.1074456462	-0.011759
N	 3.7362696247	 0.6121843037	-2.5844788301	 0.012562
O	 1.9230677343	-2.189607469	-2.3424637011	-0.375178
C	 0.8958361016	-2.7304789823	-2.0067414671	 0.426657
O	 0.5545034597	-3.9784053078	-2.3805112742	-0.370336
N	-0.1133531723	-2.2029996654	-1.2070581163	-0.394977
H	-1.1684171046	 1.5115266113	-0.756914317	 0.151411
H	-0.4778355558	 1.7247688257	 0.8697856967	 0.153599
H	 0.5734292399	 1.8307286755	-0.5573149454	 0.168701
H	 1.2837925018	-4.2932950027	-2.9321078038	 0.308915
12.2498	36.9164	48.3011	52.2214	60.7854	66.3338	73.0029	101.5715	163.6417	192.6597	470.8318	529.3641	607.8146	619.0547	678.3846	786.7159	835.378	982.633	1134.2718	1156.359	1195.5232	1377.7542	1455.2855	1487.5022	1498.8521	1534.9429	1798.4296	2319.5891	2434.7685	3040.6977	3113.5556	3128.2409	3786.7282	12.2426	36.9169	48.3016	52.221	60.7887	66.3377	73.0025	101.5717	163.6421	192.66	470.8319	529.3641	607.8152	619.0543	678.3845	786.7156	835.3778	982.6331	1134.2711	1156.3582	1195.5231	1377.754	1455.2846	1487.5011	1498.851	1534.9426	1798.4288	2319.5885	2434.7684	3040.6977	3113.5556	3128.241	3786.7289
CN=C1N=NOC(O)=N1	C[N][C][N]C(=O)O.N#N	
InChI=1S/C3H4N4O2/c1-4-2-5-3(8)9-7-6-2/h1H3,(H,4,5,8)	InChI=1S/C3H4N2O2.N2/c1-4-2-5-3(6)7;1-2/h1H3,(H,6,7);
