15
gdb 12916	2.99073	1.48212	1.16769	2.4676	65.94	-0.2421	-0.0729	0.1692	1032.6697	0.115763	-399.736658	-399.727641	-399.726697	-399.770921	31.138	
O	 0.4855303051	 1.2593845046	 0.0148414792	-0.461152
C	-0.1121656159	-0.0148936648	-0.0629024839	 0.352871
C	 0.4831373204	-0.7287075754	-1.2673785801	-0.20813
N	 0.1489421275	-2.1505121193	-1.252351937	-0.513141
H	-0.8436322917	-2.2819731143	-1.4247895751	 0.22875
H	 0.6360274265	-2.6239930142	-2.006050486	 0.233218
C	-1.5006295995	-0.231692989	 0.4203890425	-0.31942
C	-0.5494207651	-0.7596322811	 1.1557580034	 0.15109
C	-0.1935555887	-1.5110010249	 2.3645556517	 0.049337
O	-0.9827323868	-2.1770557901	 2.9919343675	-0.250225
H	 0.0466251707	 1.7566271499	 0.712760883	 0.27442
H	 0.1738144734	-0.1856740537	-2.1760620694	 0.09381
H	 1.5723632558	-0.6307448213	-1.2005002216	 0.119808
H	-2.5537802406	-0.0133177575	 0.3232906978	 0.153896
H	 0.8721617388	-1.4391396989	 2.6603309178	 0.094868
51.7442	78.3726	147.4185	153.9403	214.9217	286.5724	291.1482	352.6844	384.6198	425.1467	559.4794	599.1494	745.2882	789.2623	834.4974	857.4343	986.7465	1015.2814	1033.7157	1051.6775	1067.7059	1106.9766	1179.7501	1243.8579	1309.1211	1392.6818	1426.0841	1430.0745	1509.7008	1656.4693	1766.8097	1779.551	2929.7459	2962.2493	3064.2103	3241.0428	3495.3701	3576.7025	3816.8468
OC12C[NH2+]C1[C-]2C=O	O[C@]1(CN)C=C1C=O	
InChI=1S/C5H6NO2/c7-1-3-4-5(3,8)2-6-4/h1,4,6,8H,2H2/q-1/p+1	InChI=1S/C5H7NO2/c6-3-5(8)1-4(5)2-7/h1-2,8H,3,6H2/t5-/m0/s1
