21
gdb 62704	2.79925	1.69842	1.50383	1.4956	80.52	-0.2247	0.0893	0.314	997.8754	0.183534	-387.066064	-387.058299	-387.057355	-387.097538	32.25	
C	-0.116035778	 1.5864547774	-0.0360554131	-0.46172
C	 0.0273295362	 0.0637039107	-0.0248102466	 0.329249
C	-1.3281690819	-0.6008581471	 0.2334560401	-0.436756
C	 0.7318537422	-0.5867779593	-1.2267724477	-0.131455
C	 2.2388800495	-0.4628190612	-1.0947382091	 0.097693
O	 2.794603627	 0.5601215305	-0.2936514164	-0.271662
C	 2.3554017958	 0.3091194631	 1.0506629135	-0.097674
C	 1.1356117946	-0.5942118199	 0.8925400305	-0.115971
C	 1.5402117563	-1.5053400656	-0.3003718068	-0.123937
H	 0.8291060118	 2.0784188828	-0.2723288916	 0.137925
H	-0.8493385242	 1.8877552048	-0.7932844039	 0.107522
H	-0.476406047	 1.9597610886	 0.9302220041	 0.105093
H	-2.0473170732	-0.3397649755	-0.5513533407	 0.109722
H	-1.2407354585	-1.6917187024	 0.2590202465	 0.113005
H	-1.7472944624	-0.2699544071	 1.1907932536	 0.108573
H	 0.2619854708	-0.8273591281	-2.1760704463	 0.07418
H	 2.8525273398	-0.7122052403	-1.9522580885	 0.101919
H	 3.1528015252	-0.1894999879	 1.6227432418	 0.09235
H	 2.133656737	 1.2705327494	 1.5241383376	 0.108069
H	 0.7845094538	-1.052350151	 1.8176520702	 0.067114
H	 1.7185524754	-2.5720424918	-0.3096084273	 0.086758
184.562	216.0862	250.6564	255.5608	311.3877	347.3695	360.794	440.1608	567.0292	602.2845	683.057	745.6655	759.1921	796.2971	834.3306	887.8662	918.7276	935.153	948.6726	957.011	997.3431	1003.48	1009.3389	1024.7458	1053.7683	1065.426	1077.1867	1123.7485	1177.7531	1204.2771	1216.6464	1232.5163	1238.202	1256.3453	1279.0598	1335.2786	1364.3636	1397.3471	1409.5432	1419.2047	1483.5473	1490.3867	1500.2967	1510.5849	1526.4823	2987.6826	3020.2547	3026.5482	3077.0449	3080.4984	3087.2313	3098.7759	3110.5959	3134.2098	3149.9109	3187.5414	3202.9484
CC1(C)C2C3OCC1C23	CC1(C)[C@H]2[C@H]3OC[C@@H]1[C@@H]23	
InChI=1S/C8H12O/c1-8(2)4-3-9-7-5(4)6(7)8/h4-7H,3H2,1-2H3	InChI=1S/C8H12O/c1-8(2)4-3-9-7-5(4)6(7)8/h4-7H,3H2,1-2H3/t4-,5+,6-,7+/m1/s1
