21
gdb 103936	3.15865	1.17563	1.08038	1.3111	78.96	-0.2404	0.0805	0.3209	1226.9958	0.180015	-424.186169	-424.176632	-424.175687	-424.219837	36.727	
C	 0.0942302509	 1.3089407186	-0.0776514848	-0.247034
O	-0.0190447277	-0.0825468742	 0.121149111	-0.285254
C	-1.3336338402	-0.6104008635	 0.0716684794	 0.434983
C	-2.2336949945	-0.0464653741	 1.1680455486	-0.458531
C	-2.014613397	-0.6280429357	-1.3543888493	-0.372856
C	-1.9722982907	-2.1586984201	-1.3026079266	 0.404045
O	-3.0161550314	-2.9766227531	-1.7001206198	-0.465051
C	-0.5618296637	-2.6483979306	-1.1521486786	-0.349844
C	-1.3063471371	-2.1410427703	 0.0636818499	-0.150541
H	 1.1609917162	 1.529534536	-0.1691923911	 0.124801
H	-0.41110005	 1.6387651246	-0.997707935	 0.104304
H	-0.3084878803	 1.8908677094	 0.7633074945	 0.107451
H	-2.4391226698	 1.0181320592	 1.0202901625	 0.114742
H	-3.1924474677	-0.5724725288	 1.1761879954	 0.126849
H	-1.7598295249	-0.1768168284	 2.1466830609	 0.121375
H	-3.0340725901	-0.2359319296	-1.3323241725	 0.104882
H	-1.4567951623	-0.1529303305	-2.1677846167	 0.089806
H	-2.8802278905	-3.2106629035	-2.6247692955	 0.284926
H	-0.4618714157	-3.7287718725	-1.18422683	 0.109532
H	 0.282665634	-2.0897353309	-1.5446781871	 0.114553
H	-1.4828836174	-2.7663365521	 0.9306355148	 0.086864
103.5108	128.1169	175.4253	208.9506	245.52	261.1547	314.7936	346.0105	355.118	401.1475	418.8975	467.6577	527.3448	587.8739	686.1217	784.9197	846.4039	887.4209	907.3717	931.2424	962.6148	970.0871	1011.2668	1028.8741	1069.8896	1102.079	1105.116	1151.4266	1181.0658	1181.8434	1210.4777	1218.7454	1246.0604	1277.8855	1281.1751	1336.8716	1401.6181	1403.6439	1468.4942	1475.495	1485.0522	1491.0102	1499.7233	1504.9652	1512.4009	2985.8981	3032.3782	3038.7502	3045.9805	3105.8066	3108.1343	3110.013	3116.6037	3119.7341	3185.0593	3211.6325	3794.5312
COC1(C)CC2(O)CC12	CO[C@@]1(C)C[C@@]2(O)C[C@@H]12	
InChI=1S/C7H12O2/c1-6(9-2)4-7(8)3-5(6)7/h5,8H,3-4H2,1-2H3	InChI=1S/C7H12O2/c1-6(9-2)4-7(8)3-5(6)7/h5,8H,3-4H2,1-2H3/t5-,6-,7-/m0/s1
