18
gdb 34746	2.86124	1.64523	1.46398	4.1742	77.79	-0.2747	0.028	0.3027	961.7945	0.150977	-364.813371	-364.806424	-364.80548	-364.844676	28.025	
N	-0.1946205601	-1.1957948945	-0.2277928259	-0.345518
C	-0.1119675033	-0.0489381231	-0.1012541883	 0.277774
C	 0.0028592237	 1.3977448965	 0.0583077341	-0.153701
C	-0.2368971187	 2.0397337865	 1.4303156007	-0.078064
C	 0.9823864725	 1.9216746225	 2.3305781922	-0.028877
C	 2.0238224328	 0.8360021	 2.0590341087	-0.246804
C	 2.5082238125	 1.1388951132	 0.613026977	-0.215037
C	 1.4314134506	 2.0712395158	 0.0459098247	-0.059312
C	 0.9641489488	 2.9519944297	 1.2393568646	-0.091539
H	-0.634280672	 1.8765524327	-0.690629699	 0.123368
H	-1.2161791497	 2.2700818987	 1.831766317	 0.097892
H	 0.8094723614	 2.2493983781	 3.3498089708	 0.091008
H	 2.8446913385	 0.9003285338	 2.7790850106	 0.102202
H	 1.5987023893	-0.1680617168	 2.1433506237	 0.127885
H	 3.4678464437	 1.6665024096	 0.629373746	 0.101765
H	 2.6351063576	 0.2342724138	 0.0116946854	 0.121162
H	 1.6891369018	 2.557684882	-0.8937778806	 0.081291
H	 1.0547333405	 4.0234162815	 1.3506440084	 0.094504
123.4751	145.6985	230.5601	356.0609	397.7004	530.4526	552.8957	626.2083	695.8653	747.7856	788.6837	802.8101	820.7463	853.165	895.7121	905.2984	954.6759	988.6412	994.7507	1032.9012	1038.563	1049.768	1069.8124	1090.0849	1105.0865	1145.0634	1191.9929	1223.6028	1235.8081	1269.0245	1281.9504	1301.6838	1318.3668	1340.9608	1351.3891	1409.1613	1484.143	1506.6172	2345.3994	3045.967	3059.2449	3071.0064	3089.2074	3105.5305	3124.4718	3174.7059	3185.2376	3213.5016
N#CC1C2C3CCC1C23	N#C[C@H]1[C@H]2[C@H]3CC[C@@H]1[C@@H]23	
InChI=1S/C8H9N/c9-3-6-4-1-2-5-7(4)8(5)6/h4-8H,1-2H2	InChI=1S/C8H9N/c9-3-6-4-1-2-5-7(4)8(5)6/h4-8H,1-2H2/t4-,5-,6+,7+,8+/m0/s1
