17
gdb 13795	3.80727	1.25824	1.20329	2.5919	64.98	-0.2478	0.0156	0.2634	1080.5228	0.141152	-401.01995	-401.011279	-401.010335	-401.053486	31.238	
C	 1.3656642114	 1.1493768695	 0.3178744349	-0.378984
C	 0.2553287625	 0.0960805128	 0.2128319639	-0.223933
C	 0.0338432294	-0.3442851022	-1.2126403955	 0.095114
O	 1.0105055058	-1.2114710256	-1.8116591207	-0.268558
C	-0.3189350271	-1.7146348325	-1.6348307558	-0.05423
C	-0.5256356702	-2.85664153	-0.6660958635	 0.355925
N	 0.6052816165	-3.2588687189	-0.0253395766	-0.516643
O	-1.6258200288	-3.3469082943	-0.5046878991	-0.360134
H	 2.3156827386	 0.7496390338	-0.0496548908	 0.129507
H	 1.1271485861	 2.0399868465	-0.2735455042	 0.118864
H	 1.5074897553	 1.4652451928	 1.3551962247	 0.118941
H	 0.4940356592	-0.7712307014	 0.8343450663	 0.115493
H	-0.689737653	 0.5077394909	 0.5889776914	 0.113632
H	-0.2878055387	 0.4528086694	-1.8869279951	 0.099749
H	-0.9028746849	-1.8348034039	-2.545952041	 0.119205
H	 1.4956177156	-2.8922823509	-0.3193104782	 0.271998
H	 0.5623618221	-4.076463446	 0.5601161692	 0.264056
66.622	89.316	146.1605	197.2051	240.9519	276.9075	341.1715	433.0092	462.0983	491.1813	548.2969	643.1192	748.5278	756.2618	802.8538	855.4793	922.3838	956.0682	1027.8348	1060.4752	1093.6837	1099.2797	1150.8182	1179.0119	1274.8207	1295.383	1335.3131	1356.7364	1397.6828	1409.6557	1470.8993	1481.	1498.9386	1508.4512	1596.5911	1804.8508	3036.6157	3038.0751	3081.0946	3093.4969	3112.7063	3116.4148	3134.162	3593.7637	3733.2003
CCC1OC1C(N)=O	CC[C@H]1O[C@H]1C(=O)N	
InChI=1S/C5H9NO2/c1-2-3-4(8-3)5(6)7/h3-4H,2H2,1H3,(H2,6,7)	InChI=1S/C5H9NO2/c1-2-3-4(8-3)5(6)7/h3-4H,2H2,1H3,(H2,6,7)/t3-,4-/m1/s1
