18
gdb 125924	4.53541	1.18338	0.97077	3.563	77.57	-0.2499	-0.0073	0.2426	1201.3372	0.149829	-401.958693	-401.951292	-401.950348	-401.990562	29.077	
C	-0.7973773911	 1.2271674916	 0.0167517467	-0.406055
C	 0.1894198364	 0.0632042783	 0.001225134	 0.040343
C	 1.1557496454	 0.0615520992	-1.2337790481	-0.376402
C	 2.3563832833	-0.6559331718	-0.6955450008	 0.167257
C	 3.5054089645	-1.3029984582	-0.9968041994	-0.091437
O	 4.1150704226	-1.7061033121	 0.141565666	-0.176514
N	 3.3467613187	-1.3139205611	 1.2504189042	-0.251279
C	 2.3235872264	-0.7001166074	 0.7241815872	 0.37531
C	 1.1049253897	-0.0155860126	 1.2670775733	-0.354606
H	-0.2704925532	 2.1874775174	 0.0605353516	 0.117243
H	-1.4221364425	 1.2296556951	-0.882591928	 0.117687
H	-1.4638552396	 1.1721902017	 0.8837356666	 0.119272
H	-0.375010055	-0.8766758143	-0.0397528246	 0.089157
H	 0.6970831765	-0.4110830971	-2.1069996939	 0.116695
H	 1.40746257	 1.0910373255	-1.5228289531	 0.115018
H	 4.0192894481	-1.5656888229	-1.9084218371	 0.14759
H	 1.3618785446	 0.9906574582	 1.6234817589	 0.122689
H	 0.6317204553	-0.5431178896	 2.0987735065	 0.128035
85.0503	229.5718	251.5133	273.8184	280.8839	406.8472	462.5282	503.4862	595.7042	668.024	716.9978	768.9017	812.3173	827.4287	880.1021	897.3038	925.3981	940.3648	957.5337	1056.3416	1110.7048	1111.9702	1120.2265	1149.2842	1179.8035	1234.8823	1263.8541	1277.4005	1300.3249	1345.1407	1370.7885	1409.5228	1422.3081	1477.6258	1490.481	1495.9571	1500.8469	1555.8791	1671.4469	3014.3562	3022.6577	3026.5787	3033.1095	3082.5302	3094.5326	3100.3354	3102.0376	3262.8226
CC1CC2=CON=C2C1	C[C@H]1Cc2conc2C1	
InChI=1S/C7H9NO/c1-5-2-6-4-9-8-7(6)3-5/h4-5H,2-3H2,1H3	InChI=1S/C7H9NO/c1-5-2-6-4-9-8-7(6)3-5/h4-5H,2-3H2,1H3/t5-/m0/s1
