18
gdb 44362	3.16464	1.61437	1.36326	2.2846	73.8	-0.2365	-0.0183	0.2182	971.2302	0.150021	-401.932951	-401.926023	-401.925079	-401.964409	28.027	
O	 0.003574676	-0.1422277371	 0.2804664242	-0.312801
C	 0.0098719665	 1.0376014312	 0.0236784958	 0.371744
C	-1.3055846075	 1.8051242579	-0.156508946	-0.335398
C	-1.2316592201	 3.183215493	-0.7877228078	-0.012546
C	 0.0381897806	 3.9155047542	-0.951033887	-0.060527
C	 1.1607281542	 2.9029175176	-1.2067358114	-0.054942
C	 0.353121995	 2.4961392803	-2.4724945589	-0.177383
N	-0.7563342257	 3.4634096715	-2.1656546188	-0.15071
C	 1.2998675151	 1.8361775867	-0.1182393249	-0.313379
H	-2.0044785113	 1.148595952	-0.6864848649	 0.140215
H	-1.7210343182	 1.9222903289	 0.8540164263	 0.139818
H	-2.1012897432	 3.8018653721	-0.579924996	 0.102331
H	 0.1672491647	 4.9634583443	-0.6999499381	 0.094197
H	 2.1236697409	 3.3581333082	-1.4416463247	 0.087209
H	 0.832205857	 2.7935451982	-3.4069678709	 0.117377
H	 0.0361135665	 1.4502868938	-2.5611862311	 0.114027
H	 1.5146990022	 2.3167150189	 0.8468161561	 0.125012
H	 2.1108572273	 1.1299261182	-0.3172741016	 0.125757
70.6378	204.3417	321.7428	369.6127	424.7753	451.4736	487.3551	578.0133	693.9161	715.014	727.8786	773.984	807.826	862.2477	867.8515	930.2323	960.3189	993.5542	993.9682	1050.0957	1057.3429	1075.7597	1096.1729	1149.5487	1179.1505	1210.693	1227.8515	1239.4358	1274.731	1286.9033	1300.2988	1329.3252	1346.9468	1369.8825	1431.6985	1444.9665	1455.0552	1511.0637	1817.6239	3019.0885	3026.1772	3038.1989	3073.8871	3092.0118	3098.7202	3113.6455	3138.3456	3162.4459
O=C1CC2C3C(CN23)C1	O=C1C[C@H]2[C@H]3[C@H](CN23)C1	
InChI=1S/C7H9NO/c9-5-1-4-3-8-6(2-5)7(4)8/h4,6-7H,1-3H2	InChI=1S/C7H9NO/c9-5-1-4-3-8-6(2-5)7(4)8/h4,6-7H,1-3H2/t4-,6-,7+,8?/m0/s1
