17
gdb 30385	4.00271	1.12188	0.88587	3.1221	84.41	-0.2212	-0.0235	0.1977	1303.0515	0.135952	-418.043533	-418.034954	-418.03401	-418.077036	31.068	
C	 0.0105578381	 1.4499868088	-0.0308138409	-0.329265
N	 0.0093161951	 0.0024941661	 0.0306528755	-0.312338
C	-1.0941632622	-0.6344401943	 0.1024157491	 0.36496
C	-1.1041774142	-2.0925758128	 0.1647409197	-0.257252
C	-2.2538386244	-2.7730566421	 0.2399279972	 0.377628
C	-2.4424703696	-4.248999662	 0.3101196096	-0.474907
O	-3.4619949812	-2.101439515	 0.2600905511	-0.231988
C	-3.4029333422	-0.745801472	 0.2004534598	 0.117406
N	-2.3733016507	-0.0132087354	 0.1278997283	-0.31583
H	 0.60055508	 1.83941529	 0.8083734186	 0.119453
H	 0.5305743824	 1.7650370685	-0.9442111863	 0.119445
H	-0.9838540644	 1.9081288451	-0.0105125405	 0.125887
H	-0.1562662138	-2.6144994539	 0.1487343096	 0.118758
H	-1.4768442489	-4.7566057468	 0.2927337504	 0.143406
H	-2.9739424904	-4.5277619767	 1.2267979655	 0.146855
H	-3.0448594992	-4.6024197994	-0.5340940833	 0.146859
H	-4.4068488244	-0.3291301579	 0.2234241368	 0.140922
85.5146	109.2746	157.2587	172.1462	226.1217	293.4651	332.6795	432.5777	451.732	519.9051	561.593	640.4499	768.19	780.9364	862.3348	895.1355	919.5555	965.9396	1017.4393	1040.4727	1068.412	1122.5243	1127.4909	1152.8522	1211.2622	1252.9358	1349.0766	1415.4944	1416.4347	1428.8497	1468.382	1484.0812	1487.494	1494.6694	1668.796	1714.9522	1747.6953	3010.7148	3037.167	3060.0405	3091.1043	3091.3939	3144.24	3175.0131	3222.0133
CN=C1C=C(C)OC=N1	C[N]C1=C[C@H](C)OC=N1	
InChI=1S/C6H8N2O/c1-5-3-6(7-2)8-4-9-5/h3-4H,1-2H3	InChI=1S/C6H9N2O/c1-5-3-6(7-2)8-4-9-5/h3-5H,1-2H3/t5-/m0/s1
