19
gdb 102862	1.83784	1.0876	0.73179	3.6168	74.11	-0.2596	-0.0362	0.2234	1535.4266	0.155326	-460.198521	-460.188022	-460.187077	-460.236069	35.342	
C	 0.2120965311	 1.5749191964	 0.0028437559	-0.406981
C	 0.0865078327	 0.0498146898	-0.0214067037	-0.171941
C	-1.359045771	-0.4511980499	-0.0023217955	 0.088391
C	-1.4455726756	-1.9825937081	-0.0820067524	-0.282514
C	-2.8683949931	-2.4992516739	-0.1571214543	 0.139728
O	-3.2924651583	-3.1711080891	-1.062175958	-0.231604
O	-1.9904752469	-0.0417657353	 1.2287722818	-0.196679
C	-2.9521863426	 0.9031875603	 1.1894907759	 0.170119
O	-3.4912824996	 1.3134198304	 2.1717830047	-0.271495
H	 1.2628330204	 1.8741885599	-0.0419567736	 0.127483
H	-0.2986751689	 2.0317869389	-0.852185812	 0.118132
H	-0.212674649	 1.9964739091	 0.9182129478	 0.141661
H	 0.5650757549	-0.3505908566	-0.9228490482	 0.110758
H	 0.6125854346	-0.3865670619	 0.8359482467	 0.118006
H	-1.9111180122	-0.006657068	-0.8433319726	 0.099325
H	-0.9028795293	-2.3436008841	-0.9594632482	 0.128166
H	-0.973968547	-2.3956657028	 0.8195917468	 0.135687
H	-3.5167841748	-2.2131796988	 0.698926879	 0.099301
H	-3.1819445453	 1.2406942635	 0.1602515798	 0.084458
33.7263	58.4032	69.197	104.8816	161.6255	165.7818	228.5518	262.0357	292.5258	354.108	428.6898	474.8148	543.9879	611.9465	786.3892	842.9574	890.1252	946.7823	990.3826	1032.1244	1043.8739	1047.2241	1108.2066	1130.7329	1147.0397	1184.4536	1240.7547	1280.2723	1306.7471	1345.7326	1376.9259	1393.0782	1413.7377	1426.8404	1440.5808	1452.0053	1477.4465	1499.7916	1509.4703	1831.3806	1865.7494	2903.8656	2950.4452	3002.7498	3031.099	3036.5618	3039.3314	3073.7154	3107.7019	3113.0374	3120.8428
CCC(CC=O)OC=O	CC[C@@H](CC=O)OC=O	
InChI=1S/C6H10O3/c1-2-6(3-4-7)9-5-8/h4-6H,2-3H2,1H3	InChI=1S/C6H10O3/c1-2-6(3-4-7)9-5-8/h4-6H,2-3H2,1H3/t6-/m0/s1
