16
gdb 56610	2.03347	1.39488	0.87356	3.2002	75.98	-0.2766	-0.0605	0.2161	1273.5867	0.120386	-400.732193	-400.722202	-400.721258	-400.768145	34.483	
C	 0.0197149603	 1.580008716	 0.0013924676	-0.403993
C	 0.0300676737	 0.0390777094	-0.0138894572	-0.183932
C	 0.6589133195	-0.4710520203	-1.2275611839	 0.320795
C	 1.1986810902	-0.8700334158	-2.223695707	-0.431527
C	 0.7592372268	-0.533056803	 1.2549953775	-0.223284
C	 0.0263008891	-0.0884915081	 2.5316113463	 0.155634
O	 0.4394054864	 0.7632706571	 3.2668057856	-0.226727
C	 0.8099543926	-1.9937203003	 1.2350108951	 0.273692
N	 0.8142026256	-3.1487934166	 1.2685071376	-0.307402
H	 1.0404579421	 1.9719867432	-0.0115320189	 0.141551
H	-0.4990404259	 1.9519855641	-0.8846055067	 0.140556
H	-0.4861617731	 1.9671758109	 0.8892640974	 0.138443
H	-1.0061482748	-0.3232805729	 0.0184883551	 0.13035
H	 1.6634357502	-1.2382231299	-3.105188393	 0.209291
H	 1.7748704323	-0.1278898603	 1.2937798449	 0.154871
H	-0.9386525651	-0.6105071836	 2.7073384997	 0.111681
37.2982	62.4702	111.1064	174.811	189.5594	195.739	243.1324	288.8839	345.7608	430.1397	482.1705	528.6828	539.2741	591.6981	647.5896	663.3721	823.6193	907.9155	937.2185	1002.0929	1048.392	1088.2106	1095.7424	1136.2158	1217.1593	1286.3074	1327.0783	1345.3155	1415.4584	1420.078	1488.3251	1497.4017	1842.568	2241.6579	2358.9416	2908.7126	3019.8192	3053.0871	3082.169	3129.2389	3136.8439	3502.0393
CC(C#C)C(C=O)C#N	C[C@@H](C#C)[C@@H](C=O)C#N	
InChI=1S/C7H7NO/c1-3-6(2)7(4-8)5-9/h1,5-7H,2H3	InChI=1S/C7H7NO/c1-3-6(2)7(4-8)5-9/h1,5-7H,2H3/t6-,7+/m0/s1
