17
gdb 49983	3.81037	0.91083	0.83895	2.6175	75.39	-0.2555	-0.0405	0.2149	1360.3612	0.133403	-421.82918	-421.820725	-421.819781	-421.863165	31.319	
O	-0.1862446857	 0.1523717791	-0.6826630633	-0.264026
C	-0.0431487827	 1.2159343032	-0.1329715845	 0.166699
C	 1.2380259804	 1.9488702505	-0.0281497538	-0.160108
C	 1.185447999	 3.4771124665	 0.0024555376	-0.355536
C	 1.5421019044	 2.7338223085	 1.2352808308	 0.32551
C	 0.7606378119	 2.7162294453	 2.5674772755	-0.427782
C	 2.1217831289	 2.8472272184	 3.2818934109	 0.411929
O	 2.4453880389	 2.9855674802	 4.4227830033	-0.278264
C	 2.9039192699	 2.7588761171	 1.9547749079	-0.421177
H	-0.9055575198	 1.7372685128	 0.3477500256	 0.06676
H	 2.0725136389	 1.4764913988	-0.5362057968	 0.11029
H	 1.9628153248	 4.0028560423	-0.5413077251	 0.13322
H	 0.2026272902	 3.9365424646	-0.0553750585	 0.128652
H	 0.0705916607	 3.5466599409	 2.744701756	 0.138365
H	 0.2479549547	 1.7791386841	 2.8077423628	 0.144418
H	 3.495086542	 1.8408065218	 1.8704879894	 0.142795
H	 3.5540993133	 3.6144292159	 1.7476315721	 0.138256
39.902	99.4872	143.5516	222.8428	315.3276	365.537	390.3033	418.6052	457.8906	501.2224	545.4282	670.2247	716.9504	841.8428	858.1441	888.7928	899.2304	964.842	1016.2708	1045.9128	1059.2196	1071.1252	1074.0278	1083.5127	1174.2483	1185.4501	1192.2818	1213.0541	1225.4528	1297.0034	1388.1224	1425.4938	1440.2997	1449.2714	1486.6703	1820.6938	1905.0337	2843.1302	3048.7768	3054.1546	3102.3994	3105.1691	3123.9963	3172.3935	3213.8647
O=CC1CC11CC(=O)C1	O=C[C@H]1CC21CC(=O)C2	
InChI=1S/C7H8O2/c8-4-5-1-7(5)2-6(9)3-7/h4-5H,1-3H2	InChI=1S/C7H8O2/c8-4-5-1-7(5)2-6(9)3-7/h4-5H,1-3H2/t5-/m1/s1
