20
gdb 63381	2.66263	1.33832	1.05094	4.2891	79.52	-0.2714	0.0155	0.2869	1214.5071	0.167989	-403.166357	-403.156523	-403.155579	-403.200727	36.731	
C	-0.4218817154	 1.4554969234	 0.8883410261	-0.434072
C	 0.1290058286	 0.1130560019	 0.4365297634	 0.425213
C	-0.6844299752	-1.0595600433	 0.968432932	-0.432888
C	 0.5308198346	 0.0030880597	-1.0573520232	-0.377672
C	 1.965361417	-0.2551585713	-0.5219739292	 0.266612
C	 3.0675912399	 0.7044079805	-0.9539564064	-0.440436
O	 1.5374450281	-0.0208030508	 0.8349541656	-0.340126
C	 2.4065175519	-1.6538510471	-0.6958501107	 0.266326
N	 2.7444304726	-2.7495235899	-0.8428724159	-0.34621
H	 0.19406058	 2.2779052145	 0.5145311362	 0.118114
H	-1.445462114	 1.5933058873	 0.5237400321	 0.121262
H	-0.4389091473	 1.510760161	 1.981475784	 0.131111
H	-1.7178115062	-1.0051666645	 0.6092716144	 0.117943
H	-0.255325482	-2.0123552259	 0.6469352464	 0.137934
H	-0.6994062244	-1.0433949881	 2.062562758	 0.129275
H	 0.0753216728	-0.8110608681	-1.6207514208	 0.129378
H	 0.4493962741	 0.9335234472	-1.6218841036	 0.115468
H	 2.7223103112	 1.733800151	-0.8310919731	 0.127873
H	 3.9590949351	 0.5576146062	-0.338417367	 0.147714
H	 3.3358588287	 0.5378718162	-2.001610298	 0.137181
53.3095	143.2725	179.9352	202.1063	219.1482	238.6224	275.8345	323.4829	346.2444	354.3866	414.3334	469.8424	523.928	585.6048	619.0919	715.9985	843.0791	868.6959	908.3225	923.1494	929.8333	951.4042	991.3366	1005.1213	1038.491	1109.9044	1175.9012	1200.0057	1248.24	1256.9829	1283.5779	1301.5284	1402.6044	1405.7168	1416.4742	1472.6988	1477.9376	1481.3526	1482.7907	1490.0254	1495.7442	1505.2495	2349.1726	3033.4478	3039.0662	3045.5849	3083.3698	3104.4428	3111.7135	3116.0111	3120.9924	3124.5007	3131.9779	3146.8903
CC1(C)CC(C)(O1)C#N	CC1(C)C[C@@](C)(O1)C#N	
InChI=1S/C7H11NO/c1-6(2)4-7(3,5-8)9-6/h4H2,1-3H3	InChI=1S/C7H11NO/c1-6(2)4-7(3,5-8)9-6/h4H2,1-3H3/t7-/m1/s1
