17
gdb 96954	3.95488	1.28256	1.21591	2.0124	74.74	-0.2435	0.0067	0.2502	1077.1669	0.136337	-417.931633	-417.923982	-417.923038	-417.96417	28.843	
C	-0.0507735212	 1.4249334653	 0.0854883207	-0.343807
N	-0.0309546247	-0.0302160045	 0.1399172988	-0.33223
C	-1.0971527024	-0.6671710172	 0.0127171286	 0.454223
O	-2.4122313975	-0.210196594	-0.180016797	-0.286433
C	-2.9186928784	-1.5789673595	-0.1438371522	 0.094161
C	-2.983223529	-2.3011793239	-1.4951271537	-0.044328
C	-1.8648001133	-1.9319245225	-2.3805613132	-0.246177
N	-1.5836277986	-2.8907324501	-1.297405079	-0.146807
C	-1.5029781215	-2.1263132072	 0.0282917503	-0.140264
H	 0.5913517088	 1.7583895928	-0.7371015471	 0.131802
H	-1.0495336241	 1.8560093614	-0.0479333182	 0.128927
H	 0.3857204145	 1.8196510856	 1.0091818952	 0.132554
H	-3.7411711007	-1.7003416792	 0.5577929309	 0.103934
H	-3.8133025995	-2.9221065295	-1.814907091	 0.104684
H	-1.8402719554	-2.408058317	-3.3558469824	 0.13131
H	-1.4452335258	-0.9317856159	-2.354098481	 0.144158
H	-1.1545638211	-2.7652754247	 0.8353388101	 0.114292
81.2923	102.6569	187.8984	209.5932	311.324	395.0724	479.768	562.6259	679.3423	697.0976	720.6492	769.9248	802.707	882.6244	893.5901	942.8875	963.8497	985.8751	1023.1496	1050.1763	1060.4211	1089.0913	1107.9289	1130.5969	1139.416	1169.5429	1203.2916	1228.2534	1239.5875	1278.7438	1313.9196	1357.8348	1438.335	1493.8734	1495.7798	1504.5518	1839.8903	3019.6857	3086.4672	3091.951	3129.3776	3140.7171	3156.7526	3170.9536	3215.8214
CN=C1OC2C3CN3C12	CN=C1O[C@H]2[C@H]3CN3[C@@H]12	
InChI=1S/C6H8N2O/c1-7-6-4-5(9-6)3-2-8(3)4/h3-5H,2H2,1H3	InChI=1S/C6H8N2O/c1-7-6-4-5(9-6)3-2-8(3)4/h3-5H,2H2,1H3/t3-,4-,5+,8?/m1/s1
