20
gdb 109832	2.15478	1.37016	0.97134	3.8806	76.73	-0.2362	-0.0428	0.1933	1263.163	0.169052	-440.251162	-440.241376	-440.240432	-440.285948	35.441	
C	 0.0655901955	 1.3495958148	 1.0401946445	-0.416013
C	 0.2256160752	-0.0312638138	 0.4400400236	-0.013351
C	 0.5276876774	-0.2864676951	-1.005514389	-0.036949
C	 0.6905533092	 0.8145973815	-2.0373022196	-0.089736
O	 1.4625187448	 0.4054977233	-3.1453160344	-0.427858
N	 1.5254272773	-0.585207017	 0.0390029359	-0.120339
C	 2.7377407666	 0.2192425533	 0.1382061851	-0.226311
C	 3.7765104706	-0.5550461558	-0.6589133008	 0.167267
O	 3.9795923959	-0.3701882196	-1.8353120831	-0.236614
H	 0.3540680215	 1.3424110381	 2.0972595155	 0.125562
H	 0.6552822857	 2.1167868685	 0.5360256969	 0.12416
H	-0.9849327394	 1.6548949857	 0.9915585187	 0.130733
H	-0.3913007305	-0.7768225577	 0.9418269794	 0.095351
H	 0.1188813123	-1.1927284977	-1.4507294979	 0.101047
H	-0.3044667296	 1.0575648407	-2.4290873951	 0.11153
H	 1.080188367	 1.739735034	-1.5894448358	 0.082126
H	 2.3695249374	 0.2491018463	-2.8414563339	 0.298454
H	 2.6767610057	 1.2405186429	-0.2604930829	 0.110226
H	 3.0387206418	 0.2706843509	 1.1907342037	 0.115027
H	 4.3129006458	-1.3562615134	-0.111619131	 0.105687
85.9848	105.4233	138.2509	162.9733	177.2306	189.3849	237.9981	301.2867	339.3925	471.4348	510.7494	526.7233	567.4125	581.4883	719.7656	776.63	837.5755	906.612	980.8316	1008.1722	1026.7241	1044.6122	1084.6421	1091.0647	1108.9441	1148.2997	1162.6222	1191.6259	1238.3804	1250.8521	1334.6276	1339.0218	1361.9716	1404.5716	1414.4211	1421.1871	1443.7518	1453.4597	1480.3707	1494.975	1503.2123	1512.6089	1813.3291	2934.5721	2996.7994	3013.1917	3039.5042	3054.7767	3071.5363	3094.0828	3096.1864	3116.8843	3137.6998	3699.3622
CC1C(CO)N1CC=O	C[C@H]1[C@@H](CO)N1CC=O	
InChI=1S/C6H11NO2/c1-5-6(4-9)7(5)2-3-8/h3,5-6,9H,2,4H2,1H3	InChI=1S/C6H11NO2/c1-5-6(4-9)7(5)2-3-8/h3,5-6,9H,2,4H2,1H3/t5-,6+,7?/m0/s1
