19
gdb 71006	3.07565	1.5896	1.4727	0.9977	76.11	-0.2258	0.0605	0.2862	974.8059	0.159855	-422.933622	-422.926352	-422.925408	-422.964616	30.734	
O	 0.002006706	 1.4553199149	-0.0899233766	-0.476262
C	 0.0232254539	 0.0720356241	-0.0115082245	 0.308217
C	 0.2710891945	-0.7550215903	 1.3742031753	-0.39661
C	-0.424357583	-1.8214117088	 0.5025424739	 0.407955
C	-1.5287942661	-2.8698002267	 0.2303991894	-0.308256
C	-2.018923188	-1.8766078692	-0.9121734276	-0.280496
C	-1.3091362512	-0.7447053745	-0.0829520751	-0.03235
O	 0.5799653913	-2.0479158131	-0.5410196892	-0.306526
C	 0.9345469029	-0.7236855754	-0.9459007289	-0.134715
H	 0.9072629386	 1.7836276088	-0.0456897553	 0.28512
H	 1.304795696	-0.9213905861	 1.6904423353	 0.095927
H	-0.3421261629	-0.3613284246	 2.1848477593	 0.1119
H	-1.1950774464	-3.8678482213	-0.0604409722	 0.111804
H	-2.2591022942	-2.9380665901	 1.039547687	 0.108982
H	-1.5555942002	-2.1073142614	-1.8700735893	 0.125934
H	-3.0968317728	-1.7628777866	-1.0404296008	 0.099723
H	-2.000618507	-0.3612349283	 0.6699070231	 0.089423
H	 0.7060611794	-0.557480745	-2.0062942902	 0.102491
H	 2.0037989493	-0.5329720366	-0.7769092635	 0.087738
235.7905	255.2327	261.2915	288.2132	362.0126	380.4081	472.6243	487.5324	582.1887	600.9589	644.9437	726.0231	758.6063	811.0874	835.8907	842.5276	901.1375	933.2874	979.1685	990.9758	1027.4467	1033.6002	1070.4776	1093.409	1122.6313	1132.9274	1154.1187	1173.6586	1192.5367	1205.1388	1220.31	1228.8485	1249.7472	1278.5961	1339.5795	1356.9914	1396.6529	1469.273	1479.0108	1481.6113	1528.3748	2999.0288	3043.4344	3059.7695	3071.5326	3084.4223	3090.1749	3132.3792	3148.4991	3158.8532	3795.2905
OC12CC3(CCC13)OC2	O[C@@]12C[C@]3(CC[C@H]13)OC2	
InChI=1S/C7H10O2/c8-6-3-7(9-4-6)2-1-5(6)7/h5,8H,1-4H2	InChI=1S/C7H10O2/c8-6-3-7(9-4-6)2-1-5(6)7/h5,8H,1-4H2/t5-,6-,7+/m1/s1
