20
gdb 97505	3.36053	0.75639	0.62817	3.882	89.68	-0.2367	-0.0129	0.2238	1817.6748	0.16839	-403.155457	-403.144303	-403.143359	-403.193523	37.645	
C	-0.2257781977	 1.5137033618	 0.1119689932	-0.369187
C	 0.1076763108	 0.0113499029	 0.0742286721	-0.324903
C	 0.7558878304	-0.4110174689	-1.1608144233	 0.174286
C	 1.2910401875	-0.7497245169	-2.1880415187	-0.096647
C	 1.9064676066	-1.3203175931	-3.3771247754	 0.289804
O	 1.9612684809	-2.5318460656	-3.5264083124	-0.375768
N	 2.4055711167	-0.4277501941	-4.2923440794	-0.08974
C	 3.0289658752	-0.9363231418	-5.4997482497	-0.347241
C	 2.3582259208	 1.0113780343	-4.144498253	-0.336615
H	 0.68133321	 2.1168062398	 0.017031906	 0.128911
H	-0.8998306861	 1.7832436358	-0.7055228824	 0.131009
H	-0.7118251703	 1.7703179354	 1.0575343092	 0.120859
H	 0.7584619021	-0.2458487579	 0.9198830915	 0.140687
H	-0.8085711606	-0.5766048704	 0.2129043682	 0.141579
H	 2.5020617065	-0.5693573805	-6.3897696018	 0.121169
H	 4.0742820434	-0.6078914142	-5.5624742443	 0.121271
H	 2.9897635661	-2.024099477	-5.4750615721	 0.171463
H	 1.8745603256	 1.2723691283	-3.2040631337	 0.15199
H	 3.3709486698	 1.4358362341	-4.1505161711	 0.123556
H	 1.7961609922	 1.4690728981	-4.9694362228	 0.123516
22.7551	69.2592	76.9827	109.2224	155.9697	166.7435	194.4627	225.0421	257.198	327.9495	375.1664	399.7291	435.2395	532.23	592.839	702.6218	749.9907	781.9097	875.8541	974.1206	1062.1103	1081.9038	1088.8338	1100.9896	1131.1068	1180.5475	1208.2193	1284.6578	1294.9432	1349.2545	1410.457	1421.0154	1431.711	1464.0753	1467.7982	1481.7776	1496.0913	1500.3895	1500.9868	1504.6108	1542.1905	1726.8902	2340.2081	3004.38	3014.3039	3024.1987	3046.2437	3048.5541	3052.5617	3058.6721	3120.6421	3124.3941	3155.7558	3168.7887
CCC#CC(=O)N(C)C	CCC#CC(=O)N(C)C	
InChI=1S/C7H11NO/c1-4-5-6-7(9)8(2)3/h4H2,1-3H3	InChI=1S/C7H11NO/c1-4-5-6-7(9)8(2)3/h4H2,1-3H3
