21
gdb 67776	2.61775	1.99999	1.51565	0.291	85.7	-0.2128	0.0183	0.2312	968.1775	0.185087	-349.944023	-349.936823	-349.935879	-349.974932	30.839	
C	 0.0221140679	 1.5831968842	-0.0488382415	-0.517685
C	 0.0315386816	 0.0708362312	 0.0022055874	 0.315668
C	 0.5022222306	-0.7002871119	-1.232277979	-0.149604
C	 0.3954363357	-1.9817452	-0.8779594749	-0.112249
C	-0.1330207409	-1.9068316725	 0.5474128375	-0.080111
C	 0.7088416924	-0.740517785	 1.1847301795	-0.029812
C	-0.0353363978	-0.3407893341	 2.4571195801	-0.240115
C	-1.5005264172	-0.3681553423	 1.9154467963	-0.240114
C	-1.2247989867	-0.7766674655	 0.4698861849	-0.029809
H	 1.0274048757	 1.9766753081	-0.2386673586	 0.117052
H	-0.6302236113	 1.9456358885	-0.8516845008	 0.117051
H	-0.332493833	 2.0245193688	 0.8876874424	 0.115849
H	 0.8367643792	-0.2556629989	-2.159946295	 0.093591
H	 0.618157004	-2.880989518	-1.4347302818	 0.097716
H	-0.320288353	-2.8294362351	 1.1006492408	 0.052304
H	 1.7979208416	-0.8217584279	 1.221792416	 0.053379
H	 0.1260910588	-1.0544828854	 3.2710433221	 0.095479
H	 0.2623936207	 0.6458587974	 2.8258887018	 0.096276
H	-2.128849746	-1.0966400952	 2.4373802162	 0.095475
H	-1.9987529676	 0.6036038393	 1.989999638	 0.096281
H	-2.0728139247	-0.8941302855	-0.2091862214	 0.05338
188.021	246.1758	255.4918	302.1325	370.6771	382.7661	523.2201	597.461	629.1309	661.4795	711.0492	735.6471	782.0268	827.8106	896.5607	897.1007	909.1525	914.0225	925.843	954.0579	962.7551	993.2983	1019.8083	1021.4161	1073.7357	1085.0473	1097.5387	1164.5397	1175.4566	1194.4282	1223.2822	1229.05	1250.5327	1255.9748	1257.1475	1288.3449	1310.7077	1339.2129	1354.6782	1414.0739	1481.9236	1493.1697	1499.3521	1511.6959	1636.2435	3026.5741	3043.2809	3051.7424	3075.3573	3085.5024	3087.0322	3087.6137	3093.5232	3097.9728	3100.0121	3211.243	3240.8121
CC12C=CC3C1CCC23	C[C@@]12C=C[C@H]3[C@@H]1CC[C@@H]23	
InChI=1S/C9H12/c1-9-5-4-6-7(9)2-3-8(6)9/h4-8H,2-3H2,1H3	InChI=1S/C9H12/c1-9-5-4-6-7(9)2-3-8(6)9/h4-8H,2-3H2,1H3/t6-,7-,8+,9+
