16
gdb 16749	4.71704	1.58983	1.40585	5.1894	65.85	-0.2383	0.0307	0.2691	893.1939	0.133159	-379.926943	-379.920156	-379.919212	-379.958503	25.448	
O	-0.043703203	-0.0220632973	-0.0134945074	-0.341204
C	 0.021321672	 1.19015235	-0.0106193186	 0.150843
N	 1.174305788	 1.9071835252	 0.0082011458	-0.046481
C	 2.4770513381	 1.2664984618	-0.184066566	-0.163373
C	 3.2789664494	 2.3249439129	-0.9164416062	-0.047985
N	 2.5906756624	 2.8254205084	-2.123292364	-0.325687
C	 2.5257319078	 3.6017737695	-0.8710349092	-0.043359
C	 1.2376082298	 3.3641384451	-0.1047382908	-0.175312
H	-0.873728114	 1.8439336418	-0.0148499364	 0.068133
H	 2.9545009082	 1.0214825621	 0.7743732026	 0.11085
H	 2.3374164361	 0.339725611	-0.745120217	 0.14672
H	 4.3622129387	 2.2898085314	-0.8880458112	 0.097399
H	 3.2723083033	 3.2511894069	-2.7466214744	 0.2365
H	 3.0147630037	 4.5670385311	-0.8022334087	 0.097525
H	 0.3521190996	 3.7456876085	-0.6223316325	 0.126679
H	 1.2997990498	 3.8497934716	 0.8798266541	 0.108754
45.1788	230.3774	249.3776	315.0604	350.0933	404.0202	545.4212	661.2111	750.4752	819.1908	851.4178	864.7646	890.4402	950.4391	967.8659	1012.8963	1033.7489	1070.2751	1101.8912	1123.2369	1161.7829	1189.642	1205.4245	1243.2455	1251.4028	1331.0757	1360.3474	1376.6456	1413.428	1431.4125	1449.0549	1501.135	1508.9996	1793.0597	2930.7206	2999.5838	3017.3964	3077.9479	3108.3396	3172.9689	3182.9901	3506.0366
O=CN1CC2NC2C1	O=CN1C[C@H]2N[C@H]2C1	
InChI=1S/C5H8N2O/c8-3-7-1-4-5(2-7)6-4/h3-6H,1-2H2	InChI=1S/C5H8N2O/c8-3-7-1-4-5(2-7)6-4/h3-6H,1-2H2/t4-,5+
