21
gdb 52320	5.43049	0.63113	0.59013	1.83	79.93	-0.247	-0.024	0.2231	1845.0192	0.181967	-424.241234	-424.231545	-424.230601	-424.278191	33.506	
O	 0.0467598209	-0.1923484586	-0.2189454614	-0.235401
C	 0.0628632276	 1.0080386491	-0.1326816002	 0.160606
C	 1.3102650751	 1.8605158636	-0.0887382319	-0.280337
C	 1.3291855693	 2.897329562	-1.2286418771	-0.225427
C	 2.5464100924	 3.8231912448	-1.1927775715	 0.009496
C	 2.6039849578	 4.8481890509	-2.338687636	-0.248853
C	 3.5569264913	 5.9024350144	-1.7724418053	-0.068541
O	 3.350417532	 5.9089292749	-0.3598084966	-0.263304
C	 2.6232244165	 4.7497640784	 0.034547232	-0.062399
H	-0.8884292421	 1.5905162701	-0.0872333963	 0.070257
H	 1.3178734001	 2.3811644954	 0.8795283701	 0.124129
H	 2.1839301909	 1.203194358	-0.1295533009	 0.122829
H	 1.3057843111	 2.3688174683	-2.1894894976	 0.113781
H	 0.4144433008	 3.5046911952	-1.1868958266	 0.103655
H	 3.4581737119	 3.2119475919	-1.2269443655	 0.082241
H	 2.9510477917	 4.4218080902	-3.2833558006	 0.105306
H	 1.6095214206	 5.2793100407	-2.505776883	 0.104737
H	 4.6043453233	 5.6459457025	-1.9935453523	 0.09318
H	 3.3687047373	 6.9097797741	-2.1590032811	 0.104994
H	 1.6114795432	 5.0421657814	 0.3612663274	 0.086109
H	 3.1299732483	 4.2877881526	 0.8896143042	 0.102942
34.6512	49.7863	64.3125	101.855	125.8557	193.5798	284.5466	343.387	425.4293	523.5273	590.9785	673.3344	766.2717	838.0055	855.6944	895.1016	922.7962	964.8125	975.2323	988.5615	1018.3619	1059.8007	1082.0059	1125.0192	1130.9238	1162.7466	1187.9488	1205.897	1232.9554	1259.3534	1269.5016	1307.0768	1309.7331	1347.1464	1353.6504	1379.9543	1385.2914	1413.5602	1429.8029	1463.7633	1489.0195	1494.3172	1523.2146	1535.184	1837.6765	2846.9401	2963.4852	2985.7843	3009.9014	3014.8883	3019.6946	3038.8167	3049.7132	3057.4929	3064.2984	3097.8666	3103.6319
O=CCCC1CCOC1	O=CCC[C@H]1CCOC1	
InChI=1S/C7H12O2/c8-4-1-2-7-3-5-9-6-7/h4,7H,1-3,5-6H2	InChI=1S/C7H12O2/c8-4-1-2-7-3-5-9-6-7/h4,7H,1-3,5-6H2/t7-/m0/s1
