15
gdb 43082	2.73366	2.10235	1.7674	3.0842	62.98	-0.2378	-0.0291	0.2087	815.0029	0.115198	-457.7657	-457.759783	-457.758839	-457.795918	24.351	
O	 0.0089995507	 0.0233457145	-0.0113818278	-0.324854
C	-0.0333332951	 1.2212656308	-0.002842184	 0.472205
C	-1.2546142183	 2.1538575691	 0.0152895518	-0.221821
C	-1.4022067123	 2.7089527747	 1.4684636483	-0.253674
C	-0.2185663535	 3.644583285	 1.1445606443	 0.067256
O	 1.0317965465	 2.9451532431	 1.234609588	-0.269669
C	 1.1338546803	 2.2365520892	-0.0016381524	 0.020592
O	 0.7090131156	 3.1516120828	-0.9881717651	-0.237656
C	-0.5345703907	 3.4842567672	-0.3843957317	 0.084553
H	-2.1185693445	 1.7731758866	-0.5253943175	 0.101512
H	-2.3390254258	 3.2605749307	 1.5918388901	 0.115525
H	-1.269888331	 2.0128008846	 2.2985572651	 0.128987
H	-0.1176082759	 4.6135836475	 1.6315791392	 0.095164
H	 2.1446053418	 1.8725296771	-0.1661249164	 0.115715
H	-1.0593848876	 4.2590395771	-0.9347181718	 0.106166
148.3969	277.6449	411.6086	436.0868	538.9306	585.7277	642.8227	747.7886	755.8879	773.4185	825.1578	859.2197	880.6462	903.7538	936.1689	967.0523	994.224	1005.3787	1031.6237	1107.6508	1113.2702	1125.6198	1163.9527	1200.7376	1225.7423	1241.8226	1258.4707	1278.2529	1291.72	1328.3889	1345.6256	1478.6073	1878.7306	3060.146	3125.5	3127.0455	3141.2788	3173.9328	3177.9391
O=C1C2CC3OC1OC23	O=C1[C@H]2C[C@H]3O[C@@H]1O[C@@H]23	
InChI=1S/C6H6O3/c7-4-2-1-3-5(2)9-6(4)8-3/h2-3,5-6H,1H2	InChI=1S/C6H6O3/c7-4-2-1-3-5(2)9-6(4)8-3/h2-3,5-6H,1H2/t2-,3-,5+,6-/m1/s1
