17
gdb 26000	3.63853	1.05304	0.92123	4.0544	75.14	-0.2178	-0.0028	0.215	1273.8829	0.136519	-418.070172	-418.061596	-418.060651	-418.104768	30.889	
C	 0.3975449035	 0.5634288754	-0.7737126597	-0.479617
C	-0.2496588478	 0.1346636898	 0.5266401688	 0.380542
O	 0.156027782	 0.4859328608	 1.6093926922	-0.299994
C	-1.4667404859	-0.7967552526	 0.4002467038	-0.392323
C	-1.0406255866	-2.2014498465	 0.0875469591	 0.262746
C	-0.9124116719	-3.2610653427	 0.9498211275	-0.171833
N	-0.4615655899	-4.3100833044	 0.1789703628	-0.228575
C	-0.3338852697	-3.8492530864	-1.0953686224	 0.010834
N	-0.6736859796	-2.5845368621	-1.1873088117	-0.297579
H	 1.3481029325	 1.0604265634	-0.5756176228	 0.131702
H	 0.5307586642	-0.2982908573	-1.4348153819	 0.166866
H	-0.2721152545	 1.2597143775	-1.2940667338	 0.135779
H	-2.003164063	-0.7647251253	 1.3509526707	 0.118949
H	-2.1249321521	-0.4363833858	-0.3980195682	 0.12037
H	-1.0946349473	-3.3627726068	 2.006427131	 0.138018
H	-0.2714094072	-5.2445263187	 0.49968956	 0.270288
H	 0.0019498834	-4.4774406484	-1.9067540254	 0.133828
39.6273	59.8022	116.7636	164.6571	295.3408	297.7183	390.2485	495.9289	529.4192	554.9071	657.4328	686.8002	726.9131	764.3846	799.4466	821.7228	882.5957	950.6699	977.0577	1013.0179	1051.093	1095.4532	1132.0543	1150.7049	1230.3712	1257.0557	1286.4531	1302.5534	1361.0713	1383.8745	1455.4562	1459.2494	1469.8402	1474.8931	1526.2748	1592.5765	1817.0451	3033.2194	3047.4386	3100.912	3118.978	3153.3476	3253.3542	3279.0566	3668.0113
CC(=O)CC1=CNC=N1	CC(=O)Cc1c[nH]cn1	
InChI=1S/C6H8N2O/c1-5(9)2-6-3-7-4-8-6/h3-4H,2H2,1H3,(H,7,8)	InChI=1S/C6H8N2O/c1-5(9)2-6-3-7-4-8-6/h3-4H,2H2,1H3,(H,7,8)
