14
gdb 24849	2.48432	1.77236	1.07932	3.845	75.05	-0.2577	-0.1025	0.1553	1041.981	0.103675	-432.91045	-432.903235	-432.902291	-432.94268	26.959	
N	-0.1109673069	 1.2748323634	 0.5232615937	-0.490327
C	 0.0333570402	 0.106679089	 0.0385368246	 0.376275
N	-1.1215564215	-0.6849582342	-0.0894642986	-0.352465
C	-1.5532739084	-1.5240789218	-1.1013312089	 0.387203
O	-2.7030810041	-1.9212216646	-1.1201243184	-0.349887
C	-0.6122078679	-1.9303997221	-2.1729099791	-0.138082
C	 0.7219990721	-1.8098904216	-2.2067015771	-0.097923
C	 1.5793778122	-1.2387113255	-1.1697461389	 0.007667
N	 1.2973854666	-0.4415662287	-0.2132305571	-0.247852
H	 0.8096662417	 1.6762237997	 0.7010912112	 0.234017
H	-1.8911891249	-0.3423672705	 0.4739589845	 0.272258
H	-1.1277041934	-2.4392595084	-2.9805110588	 0.143393
H	 1.2536516088	-2.2360249147	-3.0538246858	 0.12548
H	 2.6282027056	-1.5395067	-1.2332634914	 0.130242
70.232	112.6365	246.0032	348.7043	378.5008	448.8626	467.9327	527.0013	600.8084	677.8192	721.1892	741.6446	824.3545	838.5291	866.0935	898.6034	952.8736	976.1967	1002.245	1033.8853	1139.082	1219.9017	1338.106	1382.8053	1422.0112	1428.8959	1453.0831	1670.3137	1701.0026	1716.6705	1768.7492	3097.2709	3163.0975	3201.5018	3497.2285	3574.2446
N=C1NC(=O)C=CC=N1	[NH][C]1NC(=O)C=CC=N1	
InChI=1S/C5H5N3O/c6-5-7-3-1-2-4(9)8-5/h1-3H,(H2,6,8,9)	InChI=1S/C5H5N3O/c6-5-7-3-1-2-4(9)8-5/h1-3H,(H2,6,8,9)
