20
gdb 108048	3.69102	1.39985	1.24899	2.0463	78.05	-0.2045	0.0744	0.2788	1072.6563	0.171881	-403.073395	-403.065665	-403.064721	-403.105484	30.654	
C	 0.0215886093	 1.3822216623	-0.0322212379	-0.266462
O	-0.0021507883	-0.0316947063	-0.0051282072	-0.294222
C	 0.6306940491	-0.5773372268	 1.1069909428	 0.438637
C	 2.1826259358	-0.4960043409	 1.2003191298	-0.301086
C	 2.2203285531	-1.9560296498	 1.7315175841	-0.050648
C	 1.7319543484	-2.059939445	 3.1887710786	-0.169406
N	 0.2885115727	-1.9413720901	 2.7839660957	-0.146666
C	-0.0534435784	-0.5050410166	 2.4926005847	-0.236147
C	 0.7189599612	-2.1148474091	 1.3284919029	-0.077913
H	 1.0486563564	 1.7741875006	-0.0644756226	 0.111027
H	-0.5029191278	 1.6953371617	-0.9375336269	 0.12974
H	-0.4881033879	 1.8172053226	 0.840134545	 0.111473
H	 2.5966390051	-0.4464892812	 0.1886311929	 0.110172
H	 2.6362025497	 0.2851486168	 1.8186541595	 0.089682
H	 3.036312116	-2.5979851516	 1.3984764707	 0.070784
H	 1.9037468434	-3.0505827258	 3.6220571226	 0.107395
H	 2.0755274891	-1.3016808236	 3.9023066719	 0.095042
H	 0.3156813805	 0.2151313152	 3.2311525285	 0.093202
H	-1.1395005957	-0.4009561209	 2.3968067321	 0.109746
H	 0.2630072484	-2.8866916016	 0.7109181526	 0.07565
90.3084	173.9313	188.1979	289.4098	306.6613	382.8211	418.7838	447.3302	594.7303	620.3228	732.3438	804.3092	813.6356	869.4361	903.0252	923.0647	931.8456	946.0658	971.5906	1001.3801	1029.4016	1054.491	1112.4101	1138.3323	1157.9335	1172.5957	1181.0234	1187.9453	1194.5743	1202.4882	1213.9946	1239.5767	1249.2084	1259.3611	1306.6734	1316.505	1343.6806	1474.68	1482.6763	1489.912	1490.85	1505.043	1507.0747	2984.9737	3024.3885	3029.7192	3034.971	3041.9618	3076.9085	3083.3141	3095.9866	3103.4579	3120.483	3131.1035
COC12CC3CN(C1)C23	CO[C@@]12C[C@H]3CN(C1)[C@@H]23	
InChI=1S/C7H11NO/c1-9-7-2-5-3-8(4-7)6(5)7/h5-6H,2-4H2,1H3	InChI=1S/C7H11NO/c1-9-7-2-5-3-8(4-7)6(5)7/h5-6H,2-4H2,1H3/t5-,6+,7-/m0/s1
