22
gdb 57458	2.92622	1.24556	1.15364	1.8076	80.89	-0.2319	0.0598	0.2916	1197.1494	0.193131	-404.303989	-404.294618	-404.293674	-404.337636	36.618	
C	-1.4023496304	-0.7096316421	-0.4817952219	-0.426383
C	-0.1100208395	-0.0594485223	 0.0325173642	 0.3028
C	-0.3356409932	 1.4171039825	 0.3668163583	-0.395913
O	 0.2710450204	-0.6696054507	 1.2728959612	-0.458778
C	 1.0035861403	-0.1935702841	-1.0217309446	 0.035619
C	 2.4632598528	 0.2456925595	-0.7261332134	-0.210978
N	 3.0209571733	-1.0466992146	-1.277022837	-0.122296
C	 2.5349249529	-2.0937711503	-0.3688218532	-0.245729
C	 1.5930763406	-1.5606642712	-1.3838040153	-0.096831
H	-1.7654762393	-0.2178768534	-1.3898294686	 0.115715
H	-1.238021971	-1.7675210432	-0.7200298503	 0.11077
H	-2.1833253028	-0.6489045156	 0.281494348	 0.122673
H	-1.1226766025	 1.5162298301	 1.119430062	 0.120639
H	 0.5773838108	 1.8622726533	 0.7722294438	 0.124779
H	-0.6307168142	 1.9792203755	-0.5241709506	 0.110666
H	 0.2734852472	-1.6227031136	 1.1359587168	 0.277491
H	 0.6588719759	 0.2965920968	-1.9381010018	 0.078521
H	 2.8109945409	 1.0946673721	-1.316602261	 0.108711
H	 2.7124542913	 0.4069200946	 0.3268119445	 0.115732
H	 2.9708327915	-3.0667440856	-0.5765402305	 0.117979
H	 2.4198891165	-1.8574028511	 0.6845601058	 0.122032
H	 1.2823582986	-2.1638593266	-2.2320032766	 0.092781
65.4539	167.684	185.6619	207.8087	247.003	280.1412	318.1173	353.5748	373.6515	391.6937	455.7603	504.7543	583.7041	680.5751	755.8923	775.7234	798.9776	876.4152	931.1716	947.3532	958.2611	967.768	992.8502	1024.5313	1044.3682	1063.1559	1073.8298	1118.2824	1129.6946	1138.6719	1199.8417	1203.1578	1225.6717	1257.7716	1265.4771	1293.5881	1350.6457	1373.6342	1383.4229	1401.5995	1416.545	1477.5466	1485.7808	1486.1669	1497.5165	1506.0893	1509.2074	3025.5869	3042.6092	3051.8794	3058.2159	3092.7221	3113.6998	3117.1486	3117.6018	3120.5095	3122.2007	3148.6972	3205.4752	3812.2361
CC(C)(O)C1CN2CC12	CC(C)(O)[C@H]1CN2C[C@@H]12	
InChI=1S/C7H13NO/c1-7(2,9)5-3-8-4-6(5)8/h5-6,9H,3-4H2,1-2H3	InChI=1S/C7H13NO/c1-7(2,9)5-3-8-4-6(5)8/h5-6,9H,3-4H2,1-2H3/t5-,6-,8?/m0/s1
