13
gdb 48063	2.02947	1.83289	1.10101	4.1235	65.02	-0.2817	-0.1231	0.1586	1046.4377	0.087422	-452.734044	-452.725605	-452.724661	-452.767924	29.113	
O	 0.3186574742	 1.4687110711	 1.8966407397	-0.199273
C	 0.713428639	 1.0454982668	 0.845939592	 0.084992
C	 1.3139492796	 1.9352205067	-0.2470761955	 0.246992
O	 1.9617713244	 1.4147138094	-1.127162408	-0.291901
C	 1.1691166082	 3.4322832312	-0.1687795392	 0.067772
C	 2.4899032729	 4.1792142374	-0.1456541624	-0.232548
N	 1.67444012	 4.1792369232	-1.3384339871	-0.312681
C	 0.0153112842	 4.0026533124	 0.484514069	 0.263712
N	-0.9067939101	 4.4887132991	 0.9823721022	-0.331893
H	 0.7455327838	-0.0299918775	 0.5796390568	 0.128768
H	 2.5221929544	 5.1132071573	 0.4061111052	 0.163389
H	 3.3875735263	 3.5677541652	-0.110643794	 0.148446
H	 2.0272675131	 3.4827636875	-1.9974627986	 0.264224
48.0483	119.5875	140.4017	185.9662	241.0087	251.4652	314.4576	462.602	528.4259	548.7866	588.4637	605.5419	695.2182	847.653	867.2379	954.5168	1010.4734	1016.2622	1087.2083	1130.4081	1176.5289	1278.4066	1327.1504	1352.7143	1373.6672	1496.8785	1781.5985	1830.484	2367.4095	2948.3007	3118.4458	3219.6786	3459.0239
O=CC(=O)C1(CN1)C#N	O=CC(=O)[C@]1(CN1)C#N	
InChI=1S/C5H4N2O2/c6-2-5(3-7-5)4(9)1-8/h1,7H,3H2	InChI=1S/C5H4N2O2/c6-2-5(3-7-5)4(9)1-8/h1,7H,3H2/t5-/m1/s1
