21
gdb 62928	2.56441	1.65642	1.49904	1.4141	77.31	-0.2353	0.0812	0.3165	1018.5717	0.18307	-424.210911	-424.202632	-424.201688	-424.242973	33.097	
C	-0.0952005111	 1.6071513277	 0.0145586251	-0.484103
C	 0.0251535621	 0.0852381223	 0.0106180726	 0.31949
C	-1.3505749479	-0.5649425036	-0.1676289758	-0.445551
C	 1.0892107609	-0.6262565103	-0.8770763668	 0.030192
C	 2.4211367889	 0.1083218819	-0.9108405128	-0.081092
O	 2.7191899221	 0.7017237707	 0.3515326934	-0.273996
C	 2.124317974	 0.078643875	 1.4883901843	-0.081091
C	 0.8429836908	-0.6508791806	 1.1132188643	 0.030191
O	 1.2254889905	-1.6649145231	 0.1374654112	-0.308351
H	 0.8673445697	 2.1033069986	 0.1397699982	 0.144252
H	-0.5443206016	 1.9534490494	-0.9235535366	 0.113401
H	-0.7603983171	 1.9318380772	 0.8231220457	 0.113401
H	-1.8087782463	-0.2469557052	-1.1109024636	 0.110868
H	-1.2732396667	-1.6546516851	-0.1715223443	 0.133975
H	-2.0257909537	-0.2686160118	 0.6429894078	 0.110868
H	 0.7973653107	-1.0222600391	-1.8553888676	 0.074342
H	 3.2041454216	-0.610953454	-1.1939181369	 0.104638
H	 2.4161056148	 0.9233334235	-1.644403703	 0.104794
H	 2.8169171497	-0.6496690227	 1.9361171257	 0.104637
H	 1.9382371473	 0.8755532636	 2.2182487458	 0.104794
H	 0.3227570214	-1.0697201742	 1.9809886135	 0.074342
187.4983	201.788	217.5437	237.9575	247.725	287.1473	359.0863	405.7868	434.5965	443.3955	618.0024	626.4314	719.9627	830.5765	847.627	879.7603	889.8146	952.255	966.0535	971.621	982.7521	1003.1617	1035.8192	1042.4236	1087.2263	1155.0222	1189.1645	1195.4132	1217.5542	1255.2987	1266.0346	1269.9377	1302.6875	1338.9849	1362.9667	1370.0127	1396.2238	1408.7246	1428.3703	1484.6096	1487.0364	1498.4985	1498.8611	1504.2125	1522.8149	2992.2018	2998.4945	3027.2062	3032.6371	3054.1333	3055.9102	3060.6238	3064.4632	3082.4523	3090.2284	3124.2158	3147.4102
CC1(C)C2COCC1O2	CC1(C)[C@H]2COC[C@@H]1O2	
InChI=1S/C7H12O2/c1-7(2)5-3-8-4-6(7)9-5/h5-6H,3-4H2,1-2H3	InChI=1S/C7H12O2/c1-7(2)5-3-8-4-6(7)9-5/h5-6H,3-4H2,1-2H3/t5-,6+
