19
gdb 40369	3.48961	1.28588	1.16538	1.9295	78.47	-0.219	0.0634	0.2824	1120.5714	0.159005	-385.791348	-385.783754	-385.78281	-385.823592	30.626	
C	-0.0937159214	 1.4625629953	-0.162673321	-0.278536
C	 1.285373297	 0.8914617258	 0.055433184	-0.269344
C	 0.0824453142	-0.0246380213	 0.0411366834	-0.100485
C	-0.3705049281	-0.7048161138	 1.2811585988	 0.338735
C	-0.3412711745	-2.1954891763	 1.4942007127	-0.341032
C	-1.6636805201	-1.4714190116	 1.5661717231	-0.161365
C	-1.8009592859	-0.6887502788	 2.9072825431	 0.023205
O	-0.6410502287	-0.9226435434	 3.7214644851	-0.241109
C	-0.5623729915	 0.0348040449	 2.6566137507	-0.050944
H	-0.537547347	 2.043524415	 0.6388560635	 0.112076
H	-0.356413587	 1.8137531738	-1.1545085627	 0.111602
H	 1.9714489288	 0.8546497004	-0.7833914439	 0.113102
H	 1.7650391362	 1.0768701183	 1.0108855635	 0.114805
H	-0.0312910373	-0.6351179364	-0.850879933	 0.081172
H	-0.1954196853	-2.7730706569	 0.5862294435	 0.109265
H	 0.0965151351	-2.6225065723	 2.3877255368	 0.134356
H	-2.4905818399	-1.6674784457	 0.8963304013	 0.092224
H	-2.7159094271	-0.3995055122	 3.4095446295	 0.107436
H	-0.2460558476	 1.0393435952	 2.9116980116	 0.104836
73.193	146.3183	166.6797	349.4715	374.1798	417.1704	475.6442	532.8622	632.6685	749.5057	775.9298	787.7178	806.7412	824.0516	830.5597	879.5766	902.0812	923.2013	924.8246	968.5295	985.634	1005.6841	1025.1248	1051.4468	1060.6891	1075.2829	1077.2604	1101.4275	1130.819	1194.9313	1197.5405	1208.7262	1225.0811	1251.4622	1279.4847	1330.4729	1387.3492	1432.477	1470.9302	1478.6971	1508.9811	3130.7402	3133.1903	3135.2084	3138.8768	3179.4296	3194.4523	3203.7761	3207.8507	3222.9901	3228.0479
C1CC1C12CC1C1OC21	C1CC1[C@]12C[C@H]1[C@H]1O[C@@H]21	
InChI=1S/C8H10O/c1-2-4(1)8-3-5(8)6-7(8)9-6/h4-7H,1-3H2	InChI=1S/C8H10O/c1-2-4(1)8-3-5(8)6-7(8)9-6/h4-7H,1-3H2/t5-,6+,7+,8+/m0/s1
