18
gdb 51893	4.37079	0.92231	0.79973	4.7901	70.35	-0.2304	0.0025	0.2329	1393.9522	0.148756	-476.237441	-476.229134	-476.22819	-476.27097	30.506	
O	-0.0460314	 0.0246064535	-0.0137556096	-0.267986
C	-0.013174054	 1.2139882926	 0.0545018244	 0.17814
O	 1.1348810962	 1.9181265897	-0.0979186703	-0.184347
C	 1.0210533076	 3.3235991582	-0.0555869138	 0.204162
C	 2.4153333437	 3.9197117829	 0.1374518404	-0.199842
N	 2.4143787899	 5.3750769402	-0.0053920062	-0.29152
C	 1.7326293891	 5.7931704836	-1.2328334138	-0.165063
C	 0.3537821647	 5.1477057614	-1.3835740917	-0.075773
O	 0.4553377927	 3.72882438	-1.279444097	-0.252308
H	-0.887351693	 1.8594558882	 0.2569992031	 0.089731
H	 0.3538772455	 3.6254446994	 0.7752126618	 0.063251
H	 2.8109663479	 3.6438503352	 1.1190038677	 0.116297
H	 3.0695838211	 3.4839115369	-0.626647867	 0.131879
H	 1.9597414424	 5.7980697716	 0.7989966769	 0.218113
H	 1.6467189536	 6.8846194142	-1.2421535861	 0.107909
H	 2.3573058658	 5.5007192296	-2.0860156676	 0.121448
H	-0.3306257325	 5.5330981303	-0.607988658	 0.086749
H	-0.0896674806	 5.3483745825	-2.3629315533	 0.11916
70.8582	110.8125	139.1221	234.2162	247.5251	347.1919	362.6438	435.1475	475.2061	523.2888	573.9903	729.4959	783.5027	847.7741	892.3367	927.7949	989.4882	1035.8659	1045.6108	1075.6542	1104.6153	1121.9991	1148.0233	1168.2857	1182.7693	1231.7192	1290.5617	1322.3734	1340.6753	1372.8264	1382.7798	1404.3032	1417.6198	1441.3975	1467.9816	1477.7066	1486.1988	1496.6902	1877.1457	2914.4088	2960.8493	2975.2771	3033.0199	3045.6816	3086.5956	3091.8927	3103.165	3502.043
O=COC1CNCCO1	O=CO[C@H]1CNCCO1	
InChI=1S/C5H9NO3/c7-4-9-5-3-6-1-2-8-5/h4-6H,1-3H2	InChI=1S/C5H9NO3/c7-4-9-5-3-6-1-2-8-5/h4-6H,1-3H2/t5-/m0/s1
