17
gdb 10704	2.42105	2.1198	1.38942	1.7717	64.74	-0.2566	-0.025	0.2316	933.0787	0.141273	-400.991468	-400.982971	-400.982027	-401.024513	30.944	
C	 0.5283676319	 0.9555332052	-0.9291560662	-0.503987
C	 0.0037523084	 0.0567385612	 0.1656935002	 0.3456
O	 0.5442530255	-0.0273766465	 1.2500444395	-0.324581
C	-1.2469063913	-0.7497108728	-0.111511632	 0.187066
C	-2.1792644703	-0.3195712303	-1.221577609	-0.143672
O	-2.735065378	 0.9608520284	-0.9664383879	-0.419091
C	-1.1704701351	-2.1898674443	 0.2944412193	-0.261089
N	-1.9422544987	-1.2465529079	 1.094871777	-0.347966
H	 1.4321387349	 1.459716138	-0.5866812608	 0.141607
H	 0.7477029606	 0.3770804578	-1.8337255031	 0.140567
H	-0.2418354105	 1.687895063	-1.1924420225	 0.170954
H	-1.6506154972	-0.2385266514	-2.1762709709	 0.111343
H	-2.9627178307	-1.081326344	-1.337719245	 0.101919
H	-3.1942561548	 0.8938450956	-0.1207433525	 0.29481
H	-1.7509984093	-2.9217885105	-0.2611525064	 0.123605
H	-0.2201432294	-2.5412286574	 0.6856319555	 0.133446
H	-1.3689534959	-0.969791164	 1.8934147548	 0.249469
73.4054	100.3488	178.8848	211.8845	270.3996	290.2329	350.1047	397.107	448.8442	471.6999	584.7339	616.2819	692.3467	823.9839	906.1045	937.3225	964.8423	1004.594	1015.5074	1046.3757	1073.6701	1113.2687	1128.003	1189.9713	1213.5245	1305.7993	1339.0695	1362.1538	1383.8659	1399.5173	1431.2231	1468.0119	1478.3647	1495.4692	1499.2653	1783.4521	3009.7587	3039.9567	3085.3943	3105.6936	3109.6828	3158.3782	3203.2242	3456.5809	3793.4577
CC(=O)C1(CO)CN1	CC(=O)[C@@]1(CO)CN1	
InChI=1S/C5H9NO2/c1-4(8)5(3-7)2-6-5/h6-7H,2-3H2,1H3	InChI=1S/C5H9NO2/c1-4(8)5(3-7)2-6-5/h6-7H,2-3H2,1H3/t5-/m0/s1
