12
gdb 132071	2.4671	1.88005	1.06806	1.3618	62.59	-0.222	-0.0557	0.1662	987.2305	0.077837	-513.967469	-513.960286	-513.959341	-513.999117	26.985	
N	-0.0019823101	 1.4134302942	 0.1517591203	-0.589239
C	-0.0311606075	 0.0391594737	 0.0521117842	 0.000078
C	-1.1507972791	-0.7354477589	 0.0240113538	 0.266698
F	-2.3463668336	-0.1505670981	 0.0259687331	-0.066084
N	-1.1621166857	-2.0886248678	-0.0060663605	-0.304874
C	-0.0183926618	-2.6644492048	-0.0180580498	 0.116034
O	 1.1711183634	-2.0379231501	-0.0139290597	-0.193089
C	 1.2503018186	-0.6438520348	 0.0087015846	 0.425488
O	 2.3302479959	-0.1144383556	-0.016892854	-0.354317
H	 0.8805080678	 1.8171613686	-0.1292456686	 0.274093
H	-0.8188758067	 1.8993004959	-0.1846116395	 0.264786
H	 0.0879938988	-3.7421794322	-0.0353695241	 0.160426
124.5029	200.9919	262.5344	306.0047	363.8209	370.8079	499.3673	517.6796	534.3869	580.701	594.0333	674.8546	714.7969	767.1212	879.8313	897.8547	960.856	1089.5219	1165.4681	1254.4363	1329.214	1405.5456	1430.5651	1605.4164	1633.7011	1692.2482	1834.9111	3223.0685	3567.3568	3684.7798
NC1=C(F)N=COC1=O	Nc1c(F)ncoc1=O	
InChI=1S/C4H3FN2O2/c5-3-2(6)4(8)9-1-7-3/h1H,6H2	InChI=1S/C4H3FN2O2/c5-3-2(6)4(8)9-1-7-3/h1H,6H2
