19
gdb 74335	3.55871	1.11854	1.05992	1.4537	77.89	-0.2305	0.0206	0.2511	1230.5254	0.158589	-423.00888	-423.000272	-422.999328	-423.042581	31.721	
C	 0.1541180088	 1.4538853081	 0.169969672	-0.494391
C	 0.0362438622	-0.0277510422	 0.0253012619	 0.305576
C	-1.0277597108	-0.8083268242	 0.1879147292	-0.200817
C	-0.6523670188	-2.2542739163	-0.0126425663	 0.035048
O	 0.7011971634	-2.2163504644	-0.4582557694	-0.274119
C	 1.2171193646	-0.8943353791	-0.3333578567	-0.149976
C	-0.7851549676	-3.077676157	 1.262421842	 0.073475
C	 0.2367716953	-4.0481207622	 1.6654209539	-0.172096
O	 0.1305854574	-2.7708371131	 2.3077713571	-0.236127
H	 0.8874444705	 1.715713033	 0.9429134402	 0.135007
H	 0.5014904431	 1.9180746627	-0.7615650878	 0.129296
H	-0.801667368	 1.9084430421	 0.4417440941	 0.129572
H	-2.0250013212	-0.4914640629	 0.4670029931	 0.099444
H	-1.2656589884	-2.7433725124	-0.7877732183	 0.084217
H	 1.683940789	-0.5994807353	-1.2853921339	 0.101215
H	 1.9977550368	-0.8566488759	 0.4428237693	 0.110734
H	-1.8159376762	-3.236374037	 1.5883725716	 0.085889
H	-0.0424335236	-4.9032405659	 2.2795233226	 0.108472
H	 1.1134088535	-4.1708757278	 1.0355026655	 0.12958
73.3742	92.1863	158.4501	170.9398	250.2223	273.7074	307.7781	417.9157	461.5793	599.5192	628.3849	767.9115	809.7246	837.9131	902.8193	905.1011	917.6062	955.1105	990.902	1001.0256	1032.8468	1054.9122	1092.6013	1098.3236	1119.3626	1162.8784	1168.9894	1204.0041	1216.5004	1283.533	1284.4912	1322.8012	1355.4761	1386.5591	1414.2985	1424.5787	1479.5391	1488.5549	1511.1389	1520.089	1735.5919	2963.6059	2977.7507	3001.9497	3021.687	3068.409	3081.0967	3094.839	3117.4712	3194.9523	3211.3126
CC1=CC(OC1)C1CO1	CC1=C[C@@H](OC1)[C@H]1CO1	
InChI=1S/C7H10O2/c1-5-2-6(8-3-5)7-4-9-7/h2,6-7H,3-4H2,1H3	InChI=1S/C7H10O2/c1-5-2-6(8-3-5)7-4-9-7/h2,6-7H,3-4H2,1H3/t6-,7-/m1/s1
