19
gdb 105705	2.43796	1.23326	1.04741	3.5701	73.57	-0.2537	0.018	0.2717	1227.4106	0.159002	-456.304558	-456.295069	-456.294125	-456.340124	34.023	
O	 0.2458649311	 1.3681016874	 0.1087251667	-0.420254
C	 0.0674468841	 0.0112514646	-0.2483868813	-0.148296
C	-1.3951427549	-0.4135148109	-0.2507609301	 0.308006
C	-2.1882528607	-0.0128809568	-1.4738250177	-0.15772
O	-2.0582140779	 1.3929486057	-1.7213211374	-0.207374
C	-2.8718365567	 2.2120349558	-1.0125748639	 0.138556
N	-2.5877263642	 3.4380206139	-0.9362279394	-0.450889
C	-1.8040832347	-1.6179874556	 0.5174791474	-0.291532
N	-2.1461629255	-0.2741746966	 1.0084377446	-0.342887
H	-0.207899995	 1.9114707942	-0.5479164865	 0.309144
H	 0.5173921474	-0.2161338467	-1.2282055125	 0.094147
H	 0.6154577647	-0.5688552326	 0.502429959	 0.103266
H	-1.8022856625	-0.5005253577	-2.3735858296	 0.121921
H	-3.2435864628	-0.2830213619	-1.3479480241	 0.114476
H	-3.7336218085	 1.6983178461	-0.5710713076	 0.113744
H	-3.3049677321	 3.9329428348	-0.4105415578	 0.2334
H	-2.6512485861	-2.216321102	 0.1915246977	 0.118231
H	-1.0244088215	-2.1825023156	 1.0221652665	 0.119627
H	-1.5105852443	 0.0192442641	 1.747085666	 0.244433
34.1023	70.5852	97.2135	136.69	216.3977	285.9297	306.1088	329.5047	394.8751	465.864	521.4482	542.1715	648.5329	766.9336	828.3732	880.7136	910.0392	932.8529	948.5684	969.7785	998.7678	1034.9083	1057.0304	1081.1102	1090.615	1120.5404	1154.6743	1201.3324	1236.8017	1262.6806	1314.8303	1346.9374	1368.9666	1387.7468	1405.4843	1424.9421	1441.7748	1486.5691	1498.249	1516.0778	1742.4846	2976.7767	3034.5356	3060.7112	3063.6138	3099.7225	3105.1905	3188.3066	3500.2012	3521.75	3783.6575
OCC1(COC=N)CN1	OC[C@@]1(CO[CH][NH])CN1	
InChI=1S/C5H10N2O2/c6-4-9-3-5(2-8)1-7-5/h4,6-8H,1-3H2	InChI=1S/C5H10N2O2/c6-4-9-3-5(2-8)1-7-5/h4,6-8H,1-3H2/t5-/m1/s1
