20
gdb 116657	1.85524	1.12314	0.7496	2.3686	85.18	-0.2399	0.0242	0.2641	1557.4922	0.166984	-403.107938	-403.097019	-403.096075	-403.144821	38.108	
C	 0.2707507838	 0.9901372507	 0.4005289896	-0.251051
O	-0.6225007927	 0.3040711669	-0.4672254101	-0.194716
C	-1.2032322829	-0.7986720803	 0.0540252716	 0.127464
N	-2.0548180593	-1.4300836929	-0.6209352114	-0.235004
C	-2.6835264795	-2.6441353335	-0.1308663696	 0.067057
C	-2.435936672	-3.755786883	-1.1611900983	-0.379962
C	-2.2861786318	-3.1438524816	 1.2862625718	-0.383507
C	-2.687347561	-2.266740563	 2.3793839829	 0.300569
C	-3.0345941249	-1.5437443228	 3.2754539538	-0.44421
H	 0.6928589793	 1.8117934706	-0.1794599344	 0.144161
H	-0.2514285725	 1.398499328	 1.2742738262	 0.129772
H	 1.0849060523	 0.3379161151	 0.7406900539	 0.123686
H	-0.8610454282	-1.0416942239	 1.0669390097	 0.086751
H	-3.7628069943	-2.4418609265	-0.1084886386	 0.100813
H	-3.0211001168	-4.650260345	-0.9250660558	 0.107831
H	-2.7126720766	-3.404862644	-2.1575043154	 0.132321
H	-1.3756723943	-4.031134369	-1.1832389885	 0.114352
H	-2.7523036166	-4.125775922	 1.4323685463	 0.132672
H	-1.2024107389	-3.3195115756	 1.3208849419	 0.125956
H	-3.3440117432	-0.9094317181	 4.0686928545	 0.195045
48.3161	75.3432	89.5326	137.1453	149.6296	162.4799	225.6588	250.5103	319.2623	340.1968	361.6554	444.6496	469.4115	559.6903	575.414	622.289	631.3751	837.397	900.2257	935.5264	981.1947	988.0533	1057.634	1074.6096	1108.1983	1143.0613	1176.5632	1182.5702	1231.212	1275.9618	1299.1602	1350.6038	1372.1094	1403.0805	1427.3781	1468.4486	1485.3477	1487.2028	1493.9661	1498.8819	1501.6008	1777.0324	2233.7107	3010.3569	3011.175	3021.4772	3035.7531	3051.572	3055.1781	3074.7663	3103.4612	3131.5836	3142.6179	3506.2003
COC=NC(C)CC#C	COC=N[C@@H](C)CC#C	
InChI=1S/C7H11NO/c1-4-5-7(2)8-6-9-3/h1,6-7H,5H2,2-3H3	InChI=1S/C7H11NO/c1-4-5-7(2)8-6-9-3/h1,6-7H,5H2,2-3H3/t7-/m0/s1
