18
gdb 63026	2.28933	1.78131	1.40883	1.5621	71.	-0.2314	-0.0333	0.1981	997.0106	0.146721	-439.080804	-439.072441	-439.071497	-439.113408	32.446	
C	 0.1239539186	 1.5941265868	-0.0151576354	-0.443567
C	 0.0884550187	 0.0725877855	-0.011297012	 0.294879
O	-1.2577785367	-0.4203501632	 0.0000479618	-0.474142
C	 0.7817459131	-0.6283435019	-1.1562211069	-0.04456
C	 2.264541173	-0.6040424704	-1.1803335478	-0.263505
N	 1.5719188899	-1.7980849102	-0.6816718876	-0.102901
C	 1.4876861276	-1.8276614654	 0.7815652565	-0.273339
C	 0.7675411338	-0.554875108	 1.2363293804	 0.326722
O	 0.6564404998	-0.1363970586	 2.3592992693	-0.322883
H	 1.1438640874	 1.9726197352	-0.1253099036	 0.123085
H	-0.4853570642	 1.9808692336	-0.836502943	 0.127653
H	-0.2712077076	 1.9726357955	 0.9338245486	 0.129887
H	-1.6909848821	-0.0494395286	 0.7784414243	 0.289645
H	 0.2083277358	-0.7734260248	-2.0662376862	 0.108423
H	 2.7914785232	-0.7358795366	-2.1203352341	 0.126622
H	 2.7844477817	 0.030423443	-0.4620894558	 0.114187
H	 0.8932314605	-2.6949372139	 1.0934866211	 0.146989
H	 2.4726725377	-1.915621228	 1.2492943005	 0.136804
78.8619	199.4649	205.5937	229.0515	286.4733	347.0892	371.302	385.4657	464.4092	498.3346	559.6661	607.4403	661.9343	698.7712	787.9781	839.203	877.0419	945.4087	970.0912	1000.1311	1044.6203	1076.6541	1086.7273	1117.4563	1134.8135	1146.9902	1174.2008	1216.5403	1228.9349	1272.8965	1294.542	1358.3396	1400.6314	1407.8655	1453.3209	1487.7621	1492.7899	1510.0332	1846.6318	3038.3006	3041.6321	3087.5535	3095.6465	3110.2432	3124.8692	3162.7098	3186.0285	3790.6209
CC1(O)C2CN2CC1=O	C[C@@]1(O)[C@H]2CN2CC1=O	
InChI=1S/C6H9NO2/c1-6(9)4-2-7(4)3-5(6)8/h4,9H,2-3H2,1H3	InChI=1S/C6H9NO2/c1-6(9)4-2-7(4)3-5(6)8/h4,9H,2-3H2,1H3/t4-,6-,7?/m1/s1
