21
gdb 95039	2.46389	1.73185	1.22191	1.3571	82.21	-0.2324	0.0327	0.2651	1077.395	0.185645	-387.116897	-387.109059	-387.108115	-387.149221	31.606	
O	 0.0184330708	 1.4260926008	 0.030449168	-0.436695
C	 0.0206095934	 0.0129307588	 0.1517702047	 0.13312
C	 0.5230004984	-0.5289735105	 1.498473966	-0.24336
C	 0.0242500193	-1.9793269834	 1.4801486302	-0.22163
C	-1.4001997497	-1.8773951231	 0.8625592698	-0.050954
C	-2.4833293424	-1.6467792093	 1.8877035884	-0.068922
C	-3.0752966495	-0.4614771662	 1.7642019938	-0.067663
C	-2.5266910628	 0.3463385055	 0.6174933227	-0.265519
C	-1.4123499465	-0.556603096	 0.0097784112	-0.03287
H	 0.9188221282	 1.73533135	 0.168744282	 0.281087
H	 0.6414302238	-0.425345709	-0.6477420129	 0.060428
H	 1.6081994952	-0.4421976795	 1.6186385607	 0.082002
H	 0.046473379	 0.034934014	 2.3089746131	 0.109897
H	 0.6707632648	-2.589168391	 0.8381290346	 0.092686
H	 0.0184599371	-2.4459646276	 2.4695408314	 0.09461
H	-1.6160268766	-2.7700816451	 0.264190851	 0.067686
H	-2.7176865767	-2.3894005835	 2.644229129	 0.08497
H	-3.8723592057	-0.093711229	 2.4024814449	 0.086825
H	-3.3049480952	 0.5749936149	-0.121472834	 0.099027
H	-2.1271072281	 1.3128654139	 0.9414302645	 0.125888
H	-1.627334537	-0.7553684646	-1.0417378692	 0.069387
67.8134	178.779	249.2517	255.1489	289.4221	380.0826	447.1158	500.8117	569.2859	585.9991	722.9632	751.3165	785.8412	816.0737	825.5563	878.9642	921.3197	950.8148	972.7077	982.3462	994.2696	1000.8457	1034.5984	1075.7865	1098.2335	1126.2875	1131.2114	1144.5923	1179.9983	1205.1499	1231.9371	1258.322	1290.6175	1304.7773	1308.6337	1322.5486	1340.5522	1343.3062	1382.6519	1389.8263	1424.7514	1488.2358	1494.8022	1501.4044	1693.4932	2950.6339	3023.5371	3025.5752	3036.5064	3039.6395	3072.1629	3079.4026	3085.3248	3090.2764	3168.7737	3195.6125	3822.79
OC1CCC2C=CCC12	O[C@H]1CC[C@H]2C=CC[C@@H]12	
InChI=1S/C8H12O/c9-8-5-4-6-2-1-3-7(6)8/h1-2,6-9H,3-5H2	InChI=1S/C8H12O/c9-8-5-4-6-2-1-3-7(6)8/h1-2,6-9H,3-5H2/t6-,7-,8+/m1/s1
