20
gdb 94389	2.81639	1.4005	1.22569	1.9749	78.47	-0.2416	0.0272	0.2688	1115.2921	0.172018	-403.162074	-403.153806	-403.152861	-403.19529	31.644	
C	-0.5624036313	 1.3538735458	-0.1370625865	-0.427551
C	 0.1385497453	 0.0052210453	-0.1488862999	-0.007285
C	 1.5800511204	-0.1202103419	-0.719065016	-0.24071
C	 1.88042205	-1.179471714	 0.3754482725	-0.288044
C	 0.6595966885	-0.6508392753	 1.1639050173	 0.388033
C	 0.9425617592	 0.2359852662	 2.4067249872	-0.251291
N	 0.223028693	-0.4016649331	 3.5224669782	-0.263327
C	-0.3544410563	-1.4084399765	 3.0161313055	 0.100219
O	-0.2140447589	-1.6778542088	 1.6976201342	-0.256221
H	 0.0723739271	 2.1415043945	 0.2825221844	 0.11771
H	-0.8249337005	 1.6572418801	-1.1561798404	 0.119352
H	-1.4887115865	 1.3194142049	 0.4469701057	 0.124279
H	-0.5023822055	-0.7396065176	-0.6334835983	 0.089174
H	 1.683880722	-0.4270399517	-1.7613244937	 0.104057
H	 2.1541727599	 0.7991050209	-0.5668308558	 0.103785
H	 1.6974862316	-2.1975543639	 0.0227325897	 0.115983
H	 2.8496428274	-1.1436643917	 0.8793165408	 0.101668
H	 2.0124123804	 0.2882334315	 2.6373927134	 0.115567
H	 0.5872424216	 1.2645261523	 2.2872999105	 0.118467
H	-0.9815066472	-2.1108572671	 3.5545915313	 0.136135
59.1878	97.2074	209.9879	219.7577	265.7105	334.5468	414.4614	469.1962	481.9057	528.5782	656.8169	784.2446	788.9222	850.9104	887.118	909.9109	917.219	945.2337	965.098	968.0609	984.8903	1050.2069	1063.6185	1123.4603	1142.7959	1152.4858	1171.4348	1193.0126	1224.9777	1248.6489	1264.1849	1271.7307	1287.195	1328.7138	1337.5906	1377.1984	1409.0483	1477.504	1488.4203	1497.9769	1498.9218	1502.4432	1710.109	3028.3601	3039.9303	3046.0148	3056.9354	3061.2931	3074.3038	3096.241	3097.8271	3109.808	3123.8243	3211.9955
CC1CCC11CN=CO1	C[C@H]1CC[C@]21CN=CO2	
InChI=1S/C7H11NO/c1-6-2-3-7(6)4-8-5-9-7/h5-6H,2-4H2,1H3	InChI=1S/C7H11NO/c1-6-2-3-7(6)4-8-5-9-7/h5-6H,2-4H2,1H3/t6-,7+/m0/s1
