21
gdb 111839	2.77756	1.22565	1.10682	1.8646	83.33	-0.2333	0.0149	0.2482	1211.4352	0.184761	-387.083836	-387.075354	-387.074409	-387.11715	33.006	
O	 0.1057108614	 1.4066840245	 0.2495460012	-0.422647
C	 0.0608639033	 0.0635147496	-0.2194555837	-0.07957
C	-1.3250681153	-0.524300691	-0.1062718145	-0.055358
C	-1.6112714338	-2.0128061733	-0.1134297612	-0.066218
C	-0.4921436667	-3.0573890998	-0.1511579508	-0.232744
C	-0.2133189389	-3.6854552721	 1.229883408	-0.245979
C	-0.1702645603	-2.6538925442	 2.3318913453	-0.054259
C	-0.8935077316	-1.5329216014	 2.2918123853	-0.076104
C	-1.8068592266	-1.2244881	 1.1619836932	-0.093594
H	-0.1716910492	 1.3921028524	 1.171423165	 0.279498
H	 0.3671257551	 0.1119817175	-1.2705250995	 0.107111
H	 0.7940348751	-0.5601008384	 0.3091431756	 0.090662
H	-2.0745142735	 0.0934962988	-0.5948535685	 0.089359
H	-2.5174970549	-2.3004275985	-0.6369986396	 0.083602
H	-0.7562472558	-3.8436782643	-0.865494815	 0.097693
H	 0.4366823901	-2.6146224925	-0.5240386874	 0.109406
H	-0.9895736673	-4.4281540679	 1.4665297626	 0.112165
H	 0.7289385764	-4.2437706937	 1.1982148119	 0.100695
H	 0.4617254566	-2.8615644512	 3.1915723806	 0.087384
H	-0.8483080307	-0.824251865	 3.1166108631	 0.07984
H	-2.8289909136	-0.9951245096	 1.4542175186	 0.089058
69.9331	101.4548	173.1186	225.9633	272.2693	339.1729	384.1893	463.7116	512.3254	544.3859	554.5716	719.0105	741.2882	783.1635	799.6765	845.9175	896.248	938.0314	965.0631	992.5331	999.4111	1012.8009	1027.9269	1062.9887	1073.3687	1101.2996	1131.3781	1136.2259	1197.0017	1209.7261	1222.7651	1250.5761	1267.9727	1338.6636	1347.5643	1350.5282	1387.5229	1389.3239	1417.7592	1423.3307	1448.1651	1479.8603	1498.9646	1507.0559	1707.1417	3000.8353	3012.3678	3044.7146	3058.7736	3064.6985	3081.9241	3122.9395	3134.9235	3136.9428	3152.7886	3165.6341	3812.8273
OCC1C2CCC=CC12	OC[C@H]1[C@H]2CCC=C[C@@H]12	
InChI=1S/C8H12O/c9-5-8-6-3-1-2-4-7(6)8/h1,3,6-9H,2,4-5H2	InChI=1S/C8H12O/c9-5-8-6-3-1-2-4-7(6)8/h1,3,6-9H,2,4-5H2/t6-,7+,8-/m1/s1
