15
gdb 46772	2.83206	1.87134	1.28822	2.9661	64.64	-0.2442	0.0041	0.2483	935.2445	0.116401	-453.998911	-453.992112	-453.991168	-454.030671	25.633	
O	-0.023066994	-0.067955009	-0.2509153921	-0.369379
C	-0.0274997798	 1.1285953129	-0.077827656	 0.395603
N	-1.1194742055	 1.9419190382	 0.0078353051	-0.311185
C	-0.8697929106	 3.3655219717	 0.1445549221	-0.180785
C	 0.6541948973	 3.445959603	 0.4149107956	-0.014941
N	 0.9672666383	 3.6525634534	 1.8413371705	-0.269035
C	 1.6404772956	 2.6385683893	 2.1984459717	 0.119388
O	 1.9180930707	 1.6574224724	 1.3082723942	-0.211214
C	 1.207816801	 2.034215265	 0.1062547133	-0.038842
H	-2.0427590467	 1.5552794509	-0.1106928973	 0.25894
H	-1.1402318989	 3.9088647912	-0.7694807062	 0.113363
H	-1.4250556588	 3.7990294813	 0.9811217832	 0.135567
H	 1.106172313	 4.2495337806	-0.1712492157	 0.100619
H	 2.0459591061	 2.4696827177	 3.1896272897	 0.151193
H	 1.8926316824	 1.9408866316	-0.7368995581	 0.120707
74.643	129.7701	237.3994	339.3259	461.2622	515.3387	553.249	585.6956	692.0671	733.6234	795.6242	854.2586	888.3127	911.0747	961.57	971.1472	998.6359	1026.1955	1084.8512	1092.5963	1128.7357	1225.6084	1240.1396	1273.2948	1287.4405	1313.1894	1317.2846	1346.7857	1372.9034	1451.6415	1531.9765	1693.535	1840.3843	3021.5316	3076.178	3086.6196	3117.4907	3222.3376	3640.3882
O=C1NCC2N=COC12	O=C1NC[C@H]2N=CO[C@@H]12	
InChI=1S/C5H6N2O2/c8-5-4-3(1-6-5)7-2-9-4/h2-4H,1H2,(H,6,8)	InChI=1S/C5H6N2O2/c8-5-4-3(1-6-5)7-2-9-4/h2-4H,1H2,(H,6,8)/t3-,4-/m1/s1
