15
gdb 48132	3.21147	1.26434	1.03088	1.8339	67.98	-0.2349	-0.0994	0.1355	1133.9681	0.110698	-457.771012	-457.762726	-457.761782	-457.805064	28.898	
O	-0.8377168963	 1.32221538	-0.1624340554	-0.219744
C	 0.2881100976	 0.9395849603	-0.3516660731	 0.077601
C	 1.5141889668	 1.8589984727	-0.2773568364	 0.276471
O	 2.593984278	 1.412584199	-0.5707858412	-0.264617
C	 1.2567637777	 3.3102070755	 0.1514224591	-0.022579
O	 2.4704921502	 3.9801957364	 0.4150964149	-0.254386
C	 2.7049682026	 4.9829854984	-0.5756659587	-0.117694
C	 1.4398415575	 5.029483401	-1.385217934	-0.082088
C	 0.5996963116	 4.0895422572	-0.9687941406	-0.113589
H	 0.5451239265	-0.1092818234	-0.6105874197	 0.115395
H	 0.6342910569	 3.2856627053	 1.0589022165	 0.118404
H	 2.9258384825	 5.9355846505	-0.0738051306	 0.115768
H	 3.5819731532	 4.7196375121	-1.1863957675	 0.120804
H	 1.2716151698	 5.7413862762	-2.1830177008	 0.117221
H	-0.3886624947	 3.8585563589	-1.3394578325	 0.133033
58.4283	73.2201	126.0994	156.9607	220.9627	293.2278	410.0088	495.1357	544.6945	634.3265	714.9592	771.6002	822.8241	833.1421	931.5426	951.9701	962.8969	994.0163	1025.7815	1046.2684	1116.4543	1130.0963	1178.3825	1200.5686	1248.4096	1325.1313	1348.6434	1362.8375	1384.9274	1514.6041	1682.6512	1815.8822	1819.5633	2924.1573	2989.0863	2993.6248	3018.8159	3218.1144	3250.6292
O=CC(=O)C1OCC=C1	O=CC(=O)[C@H]1OCC=C1	
InChI=1S/C6H6O3/c7-4-5(8)6-2-1-3-9-6/h1-2,4,6H,3H2	InChI=1S/C6H6O3/c7-4-5(8)6-2-1-3-9-6/h1-2,4,6H,3H2/t6-/m0/s1
