19
gdb 110964	2.66674	1.24659	1.12971	2.6647	71.87	-0.2475	0.062	0.3095	1171.4476	0.157453	-460.089375	-460.080316	-460.079371	-460.123139	34.245	
C	 0.2394785303	 1.2768317135	 0.0166336581	-0.519218
C	 0.0798258643	-0.2015826584	 0.1543444047	 0.358029
O	 0.6392948473	-1.0893708567	-0.9287183062	-0.378161
C	 0.0286182797	-2.0173587762	 0.0606194242	-0.045979
C	 0.7400965798	-1.1927291404	 1.1695747813	 0.141509
O	 2.1269517614	-1.2261136353	 1.2191931948	-0.449081
C	-1.1990471811	-1.0797765887	 0.1181460899	 0.006288
C	-2.2062674003	-1.0768020416	 1.2525591476	-0.140506
O	-2.8322028992	 0.20180158	 1.2352223458	-0.415997
H	 1.289219589	 1.5638838852	 0.1329482898	 0.128879
H	-0.1136585773	 1.6118656016	-0.9630067446	 0.1358
H	-0.3553484712	 1.7776958802	 0.7855704105	 0.143218
H	 0.0821515753	-3.0827068138	-0.1663524565	 0.093046
H	 0.3602230648	-1.2324801469	 2.1906512833	 0.084052
H	 2.4035023582	-1.19692061	 0.2906320341	 0.28563
H	-1.6968746522	-1.0082750342	-0.8515007149	 0.094469
H	-2.9386854673	-1.8823395191	 1.08574328	 0.093775
H	-1.7322381292	-1.268992305	 2.2252365433	 0.093786
H	-3.5170450622	 0.2122323457	 1.9105326947	 0.290461
64.9113	135.8777	181.2645	199.806	236.626	274.1199	311.6354	346.8447	376.6548	476.0224	587.088	600.4453	644.8023	668.6077	747.8663	794.3472	856.2894	863.2516	911.8238	965.0696	1028.5836	1053.8188	1067.4846	1106.0605	1123.6098	1152.091	1162.2595	1198.7859	1227.8855	1232.8176	1255.3626	1262.2583	1308.0051	1315.8693	1390.3677	1412.6241	1463.8472	1469.0308	1477.4528	1485.7732	1526.6041	2977.459	3009.6542	3041.4068	3095.588	3113.9337	3115.2181	3122.3576	3124.7389	3722.8516	3826.5348
CC12OC(C1O)C2CO	C[C@@]12O[C@@H]([C@H]1O)[C@H]2CO	
InChI=1S/C6H10O3/c1-6-3(2-7)4(9-6)5(6)8/h3-5,7-8H,2H2,1H3	InChI=1S/C6H10O3/c1-6-3(2-7)4(9-6)5(6)8/h3-5,7-8H,2H2,1H3/t3-,4-,5-,6+/m1/s1
