12
gdb 10238	2.2285	1.94397	1.34424	1.9575	59.9	-0.2969	-0.0705	0.2264	920.4764	0.081285	-377.552762	-377.544317	-377.543373	-377.587058	27.784	
C	 0.7864319985	 0.3891910584	 0.7307048255	-0.498997
C	-0.3978133602	 0.1800908413	-0.172950222	 0.403698
O	-1.4383532207	 0.7676684756	-0.1121565726	-0.256295
C	-0.2334094353	-0.9260591488	-1.3056303613	-0.364508
C	 0.8481176139	-0.5617971247	-2.2229495086	 0.293045
N	 1.6971387552	-0.2223149674	-2.9283876993	-0.296536
C	-0.0158253715	-2.2436851693	-0.7052966797	 0.293022
N	 0.1351311173	-3.2632756504	-0.1843582988	-0.296507
H	 1.0379582656	-0.5463763772	 1.2413853803	 0.179614
H	 1.6618830358	 0.6786155487	 0.1397649084	 0.179704
H	 0.5544013907	 1.164066944	 1.4607599984	 0.165453
H	-1.1842743893	-0.9272799202	-1.8482469902	 0.198305
28.1669	112.4736	130.7299	136.9614	160.3756	347.9314	378.0887	432.6599	452.8242	563.8906	585.3537	599.1743	768.796	934.8143	984.6296	995.4156	1078.3345	1154.8077	1219.6988	1309.0412	1388.4908	1459.0785	1466.2127	1857.818	2363.0714	2369.1279	3047.5091	3075.3585	3111.3667	3167.6454
CC(=O)C(C#N)C#N	CC(=O)C(C#N)C#N	
InChI=1S/C5H4N2O/c1-4(8)5(2-6)3-7/h5H,1H3	InChI=1S/C5H4N2O/c1-4(8)5(2-6)3-7/h5H,1H3
