17
gdb 106871	2.56043	1.33103	1.0136	1.6931	76.48	-0.2473	0.0139	0.2612	1190.5959	0.133632	-421.750838	-421.742006	-421.741062	-421.784581	33.124	
O	 0.096610271	 1.2968171738	-0.452260988	-0.412362
C	 0.0924673274	 0.0228543023	 0.1732116687	-0.17343
C	-1.2974358399	-0.5125346174	 0.3177378983	 0.292795
C	-2.4112996514	-0.1417932748	 1.3084107694	-0.285751
C	-2.9909078627	-1.5876097795	 1.1367928798	-0.308692
C	-1.8463400084	-1.8872296101	 0.1487354522	 0.211428
O	-1.9516561479	-0.9034062941	-0.9009578808	-0.325056
C	-1.2225576498	-3.1342147883	-0.1332973598	 0.197341
C	-0.7178883144	-4.2074634791	-0.3339432302	-0.380077
H	-0.3093133073	 1.1824905229	-1.3191130835	 0.295119
H	 0.6975829942	-0.7092233087	-0.3810438696	 0.107461
H	 0.5469198356	 0.1639649431	 1.1590299001	 0.115871
H	-2.0414143309	 0.0449453614	 2.3190249968	 0.112858
H	-3.0468620496	 0.6870826507	 0.9918902812	 0.119476
H	-2.927516108	-2.1819334463	 2.0500190662	 0.120469
H	-3.9896134627	-1.675819752	 0.7051590006	 0.118404
H	-0.2682335151	-5.151166424	-0.5216335713	 0.194146
66.4158	101.2088	157.783	184.2629	277.5826	298.9445	382.9107	408.3114	457.0843	542.2919	559.1675	602.6845	620.1931	672.8276	723.26	749.6406	778.2664	898.848	908.546	937.7924	1001.3341	1042.9317	1070.6674	1127.5124	1162.5862	1184.7795	1213.9096	1222.913	1256.5818	1304.5922	1368.4258	1419.0593	1451.1719	1465.636	1489.6368	1494.5795	2238.7465	3003.8054	3072.8599	3079.7343	3083.802	3126.7527	3143.2142	3501.3798	3803.0815
OCC12CCC1(O2)C#C	OC[C@]12CC[C@]1(O2)C#C	
InChI=1S/C7H8O2/c1-2-6-3-4-7(6,5-8)9-6/h1,8H,3-5H2	InChI=1S/C7H8O2/c1-2-6-3-4-7(6,5-8)9-6/h1,8H,3-5H2/t6-,7-/m1/s1
