13
gdb 15489	3.06151	2.27382	1.53193	4.2097	61.1	-0.2385	-0.0327	0.2058	800.1441	0.09603	-394.80135	-394.794237	-394.793293	-394.833352	25.13	
N	-0.0044406726	 1.2415018105	 0.2788799793	-0.530932
C	 0.0189780326	-0.0157056974	 0.1364031632	 0.411224
N	 1.0898845551	-0.918942474	 0.1099783107	-0.343073
C	 0.6022844552	-2.1837892007	-0.1651633975	 0.068168
N	-0.6645578466	-2.2829612851	-0.3097249562	-0.258943
C	-1.1884342754	-0.9222679346	-0.0713169993	-0.151524
C	-2.1249295994	-1.0190694962	 1.1426722189	 0.166154
O	-1.9739103288	-0.4390156849	 2.1802532115	-0.21926
H	 0.9279934673	 1.6355742075	 0.4128229529	 0.212764
H	 2.058443439	-0.6749198701	 0.2314074186	 0.263284
H	 1.2903059546	-3.0184523348	-0.2527776008	 0.14354
H	-1.7911828571	-0.5944181288	-0.9272140861	 0.136359
H	-2.9608952739	-1.7296002714	 0.9727926548	 0.10224
57.1911	127.0579	166.5737	264.7126	381.5133	429.8299	498.0969	590.8569	667.4234	739.6711	806.075	858.7319	882.1213	941.9432	967.4808	1009.0543	1051.2941	1088.7394	1095.0716	1219.6318	1251.7671	1307.6467	1347.1458	1413.2862	1418.9107	1669.8152	1768.9516	1849.6256	2916.5637	3043.3592	3197.0339	3462.2267	3662.7291
N=C1NC=NC1C=O	[NH][C]1NC=N[C@H]1C=O	
InChI=1S/C4H5N3O/c5-4-3(1-8)6-2-7-4/h1-3H,(H2,5,6,7)	InChI=1S/C4H5N3O/c5-4-3(1-8)6-2-7-4/h1-3H,(H2,5,6,7)/t3-/m0/s1
