18
gdb 87928	4.29476	1.03496	0.92885	4.1962	72.69	-0.2426	0.0321	0.2747	1273.1706	0.147479	-439.119076	-439.110509	-439.109564	-439.152796	31.855	
C	 0.2588373732	 1.516172056	-0.3535388593	-0.425173
C	 0.0869785414	 0.050877896	-0.0432183943	 0.004591
O	 1.2793436864	-0.7222337168	 0.1650497068	-0.28541
C	 0.3789032348	-0.5481893318	 1.2637245426	 0.393696
C	 0.911547283	 0.2490253489	 2.4631580995	-0.238902
N	 0.8252267794	-0.7107454304	 3.5463229794	-0.319626
C	 0.1417241711	-1.8677135191	 3.2792656471	 0.417768
O	-0.0735176324	-2.7618484457	 4.0656632237	-0.37619
C	-0.2999223604	-1.7914130931	 1.814593831	-0.436328
H	 1.001232867	 1.981112729	 0.2995078811	 0.128366
H	 0.5885680783	 1.6482395549	-1.3889956645	 0.135898
H	-0.6926529988	 2.0459667292	-0.2355021832	 0.126085
H	-0.6565904837	-0.4604896255	-0.6588194231	 0.091036
H	 1.9416913238	 0.5669502489	 2.2735839693	 0.13086
H	 0.3048450874	 1.1443196079	 2.6605755497	 0.112193
H	 1.1563685477	-0.5245533827	 4.4794470424	 0.253381
H	-1.3925965675	-1.7259914338	 1.7813117406	 0.136216
H	-0.0007950507	-2.690022612	 1.2713275113	 0.151538
45.9227	125.8927	170.5419	181.9985	229.979	353.7252	390.8588	466.2132	475.6826	506.3554	545.6934	596.1735	689.9902	761.2045	801.5866	875.0264	898.2136	938.0399	987.3042	1030.6342	1061.4	1077.1148	1127.5179	1155.6288	1174.6076	1212.8911	1235.9198	1251.8736	1269.602	1339.6788	1359.3107	1410.8147	1445.5462	1451.5215	1472.7313	1489.9808	1517.7156	1525.7945	1836.7745	2998.2764	3039.4924	3060.7227	3069.0451	3081.5456	3103.2893	3122.4753	3128.4483	3644.8565
CC1OC11CNC(=O)C1	C[C@H]1O[C@]21CNC(=O)C2	
InChI=1S/C6H9NO2/c1-4-6(9-4)2-5(8)7-3-6/h4H,2-3H2,1H3,(H,7,8)	InChI=1S/C6H9NO2/c1-4-6(9-4)2-5(8)7-3-6/h4H,2-3H2,1H3,(H,7,8)/t4-,6+/m1/s1
