19
gdb 62447	3.6002	1.16624	1.13829	1.6483	82.47	-0.2278	0.0481	0.2758	1164.6594	0.158495	-385.845866	-385.837164	-385.83622	-385.878967	33.332	
C	-0.0168241077	 1.560572418	 0.0465309386	-0.473219
C	 0.0158192474	 0.0426425297	-0.0103457459	 0.08516
C	-1.1358313084	-0.6181108228	 0.5431147606	 0.248355
C	-2.094714134	-1.1743132693	 1.012205797	-0.423232
C	 0.6821936511	-0.7114512057	-1.1786042401	-0.116938
C	 1.6102873602	 0.0633510911	-2.1122926224	-0.276647
C	 2.897489383	 0.2097822735	-1.2704440827	-0.066432
O	 2.5051834015	 0.073572809	 0.1035554975	-0.25942
C	 1.3445682431	-0.7041103321	 0.1621396842	 0.057302
H	 0.9747616057	 1.980531697	-0.1303842302	 0.131514
H	-0.7160567776	 1.9709409352	-0.6888795172	 0.122371
H	-0.3427293816	 1.8862479608	 1.0381603184	 0.131321
H	-2.9424727703	-1.6597364574	 1.4276265465	 0.188647
H	 0.1678543695	-1.5885178761	-1.5500738788	 0.104902
H	 1.792919318	-0.4972008356	-3.0325401438	 0.110642
H	 1.1992267888	 1.036142108	-2.397541421	 0.114613
H	 3.6237554652	-0.5755922471	-1.5250571731	 0.101427
H	 3.3874037365	 1.181118728	-1.380423013	 0.11221
H	 1.3971290896	-1.5616638042	 0.8247396555	 0.107422
108.4628	133.2297	157.1525	164.8213	229.2259	284.0256	393.8116	434.6019	520.0878	528.771	578.7634	644.5766	650.4979	698.3446	733.4979	821.1267	862.4028	876.1106	931.7798	959.9809	971.5333	1025.0421	1046.7478	1072.1173	1090.3634	1135.0578	1138.3791	1195.9756	1230.0783	1243.2922	1281.4376	1296.6862	1310.9427	1376.2276	1393.844	1413.3746	1483.816	1497.2887	1504.348	1522.0625	2228.9282	2999.4513	3045.2171	3058.3441	3087.6589	3105.1031	3109.4352	3137.5615	3163.0563	3192.8497	3503.8975
CC1(C#C)C2CCOC12	C[C@@]1(C#C)[C@H]2CCO[C@@H]12	
InChI=1S/C8H10O/c1-3-8(2)6-4-5-9-7(6)8/h1,6-7H,4-5H2,2H3	InChI=1S/C8H10O/c1-3-8(2)6-4-5-9-7(6)8/h1,6-7H,4-5H2,2H3/t6-,7+,8+/m0/s1
