14
gdb 14332	4.5157	1.87131	1.58072	3.6259	56.9	-0.2649	0.0063	0.2712	793.0574	0.108592	-419.701724	-419.695536	-419.694592	-419.73245	23.187	
O	 0.0878090397	 0.0461006223	 0.2749164077	-0.319206
C	-0.0157676541	 1.2134082239	 0.0524027716	 0.423655
C	-1.2717923092	 2.084419738	 0.1110164499	-0.380463
C	-0.7630416369	 3.4995438378	-0.0688107427	 0.095177
O	-0.371250775	 4.1322248627	 1.1706105051	-0.290024
C	 1.0166643977	 4.1906078573	 0.7632665757	-0.096199
C	 0.7203163041	 3.3486350258	-0.4853145695	 0.052281
O	 1.0564762036	 1.9743046061	-0.3399763551	-0.225261
H	-1.9501753337	 1.7717833103	-0.6892911774	 0.143074
H	-1.7835111699	 1.9425191423	 1.0647943025	 0.160083
H	-1.4022351966	 4.1483219565	-0.6740530345	 0.091409
H	 1.3370356666	 5.2182307403	 0.5524700879	 0.111035
H	 1.6907036912	 3.7297071096	 1.4919050326	 0.127686
H	 1.0714944626	 3.701424907	-1.4547541438	 0.106753
95.9301	134.088	355.4096	391.3946	492.8683	555.953	659.8519	670.9844	809.811	828.2078	861.7726	905.4802	922.9872	1007.4696	1021.7096	1039.7527	1075.6696	1119.48	1136.7559	1171.7569	1182.8778	1239.9946	1265.2038	1298.1668	1342.8158	1353.5385	1378.4196	1439.762	1510.1888	1894.4793	3026.9496	3063.0883	3075.3578	3090.1458	3118.9201	3129.1615
O=C1CC2OCC2O1	O=C1C[C@H]2OC[C@H]2O1	
InChI=1S/C5H6O3/c6-5-1-3-4(8-5)2-7-3/h3-4H,1-2H2	InChI=1S/C5H6O3/c6-5-1-3-4(8-5)2-7-3/h3-4H,1-2H2/t3-,4-/m1/s1
