20
gdb 36601	5.09993	0.76389	0.7509	4.146	84.54	-0.3036	0.0385	0.3421	1544.2966	0.172144	-365.985715	-365.977326	-365.976382	-366.019605	31.758	
N	 0.0192353506	-1.1723943071	-0.0045022681	-0.305836
C	-0.0060762909	-0.017027417	 0.0023483456	 0.259186
C	-0.0150334052	 1.4435601165	 0.0107724435	-0.342954
C	 1.4055326882	 2.0478140835	-0.0009818285	-0.346796
C	 1.3816689214	 3.5567791714	 0.0079892926	 0.373541
C	 0.7730428652	 4.5013166133	 1.0966447909	-0.252068
C	 1.3814113628	 5.4410238551	 0.0187909548	-0.042122
C	 2.6208686192	 4.503629536	-0.0011854125	-0.269153
C	 0.7476725966	 4.513666464	-1.0551288586	-0.252076
H	-0.5804955719	 1.7931810908	-0.860341676	 0.155219
H	-0.5617090099	 1.7831549902	 0.8976961851	 0.155208
H	 1.9597384216	 1.680459186	 0.8703169655	 0.122403
H	 1.9408741074	 1.6906080882	-0.8881471494	 0.122401
H	-0.3168181332	 4.5097170882	 1.19378211	 0.088682
H	 1.2605343806	 4.4944439153	 2.0759956591	 0.092458
H	 1.3807846705	 6.5307203482	 0.0250491102	 0.077225
H	 3.2473835709	 4.4949727628	 0.8955055912	 0.091772
H	 3.2260974079	 4.505304352	-0.9124185653	 0.091768
H	 1.211925935	 4.5181084907	-2.0457210652	 0.092457
H	-0.3441763766	 4.5230279419	-1.1264211549	 0.088684
60.782	82.355	104.1936	202.4415	303.0205	357.8208	402.4741	504.5147	542.3856	547.2274	692.2319	744.5612	796.7661	800.7883	882.7039	921.2363	928.061	960.4729	961.6608	982.808	999.824	1026.2909	1026.4927	1099.2078	1100.9558	1136.7871	1143.8211	1156.2975	1161.06	1220.1308	1231.0504	1238.9517	1250.5147	1290.5097	1317.4137	1322.4915	1382.8016	1467.9548	1487.439	1497.1815	1498.7434	1554.8855	2362.1293	3035.2708	3038.5653	3041.2746	3047.7198	3049.2345	3069.8979	3092.0074	3102.5103	3107.5732	3110.9112	3115.9069
N#CCCC12CC(C1)C2	N#CCC[C@@]12C[C@@H](C1)C2	
InChI=1S/C8H11N/c9-3-1-2-8-4-7(5-8)6-8/h7H,1-2,4-6H2	InChI=1S/C8H11N/c9-3-1-2-8-4-7(5-8)6-8/h7H,1-2,4-6H2/t7-,8+
