15
gdb 55597	5.06475	0.82734	0.71395	2.8745	68.74	-0.2381	-0.0282	0.2099	1480.2289	0.112836	-487.334152	-487.324944	-487.324	-487.369281	32.448	
N	 0.5319331312	 0.201140346	-0.8913966183	-0.549817
C	 0.1367207192	-0.018458003	 0.3966789594	 0.436633
N	 0.8346094801	-0.1332804213	 1.4620941989	-0.56751
N	-1.253333315	-0.2050609027	 0.5765279603	-0.40794
C	-2.2688062805	 0.0159298934	-0.3258196011	 0.57557
O	-2.1186200516	 0.4034798918	-1.4639869052	-0.369784
N	-3.5285618218	-0.275320187	 0.2292567458	-0.399263
C	-4.7725150495	-0.0834978695	-0.3678996139	 0.170457
O	-4.9898807813	 0.3965210278	-1.4435674323	-0.248126
H	 1.4625649322	 0.5585078878	-1.0229290457	 0.253901
H	-0.1857305783	 0.4706626438	-1.553872264	 0.287973
H	 1.8264662057	-0.0128767748	 1.2696372368	 0.210257
H	-1.4592465564	-0.4199617538	 1.5406520575	 0.261411
H	-3.554830476	-0.6903931031	 1.148789005	 0.257091
H	-5.5689942583	-0.4437128655	 0.3148930768	 0.089147
36.7385	84.1445	104.0316	147.7084	228.5928	278.4096	350.1092	402.2444	434.5561	483.3938	532.3324	579.3322	605.7621	637.5106	719.8725	763.9285	793.8403	873.5892	970.7333	987.5076	1027.6401	1125.845	1139.5741	1171.1053	1208.2393	1449.3864	1451.8357	1490.3498	1517.8201	1623.4648	1744.1137	1795.0746	1873.6017	2925.7326	3514.4314	3519.0746	3611.2587	3627.5186	3699.0781
NC(=N)NC(=O)NC=O	NC(=N)NC(=O)NC=O	
InChI=1S/C3H6N4O2/c4-2(5)7-3(9)6-1-8/h1H,(H5,4,5,6,7,8,9)	InChI=1S/C3H6N4O2/c4-2(5)7-3(9)6-1-8/h1H,(H5,4,5,6,7,8,9)
