15
gdb 24002	3.44944	1.43509	1.02669	4.2914	84.37	-0.2108	-0.0082	0.2026	1104.1014	0.114187	-379.641319	-379.63395	-379.633006	-379.673318	27.874	
C	-0.0558252058	-1.22533783	-0.1173291337	-0.415655
C	-0.0918062725	-0.0256050204	-0.022773578	 0.29162
C	-0.0983620851	 1.3797977839	 0.0961048148	 0.130502
N	-1.1377103842	 2.1998534321	-0.0696687645	-0.311329
C	-0.7026005173	 3.4842406117	 0.1391425687	-0.234359
C	 0.640971185	 3.4435759924	 0.4407824298	 0.285862
C	 2.0481441367	 3.9065581939	 0.7994643727	-0.377778
C	 2.4212831015	 2.376080205	 0.7529349117	-0.171937
N	 1.0003415556	 2.1347643234	 0.4103187223	-0.054651
H	-0.0383527955	-2.2833435661	-0.2039537058	 0.194046
H	-1.3760254956	 4.3224115583	 0.0580055352	 0.112021
H	 2.5544598795	 4.5194921542	 0.0506551884	 0.13481
H	 2.1621478732	 4.3712384755	 1.7812165883	 0.134804
H	 3.113963658	 2.0786669406	-0.0368376175	 0.141029
H	 2.7196965765	 1.9295567254	 1.7034958277	 0.141015
126.0674	135.7498	142.3746	253.4414	388.2517	469.2072	550.2515	585.9129	590.3486	650.3795	680.1778	709.3825	717.4712	800.1098	832.7148	841.1831	903.3668	1052.2085	1057.0612	1126.0061	1137.9721	1181.5688	1199.0588	1222.2665	1253.7669	1301.4398	1361.8465	1434.298	1465.2345	1485.3909	1512.6512	1547.6481	2235.4129	3072.8761	3077.3264	3119.3993	3137.502	3261.4858	3503.4895
C#CC1=NC=C2CCN12	C#Cc1ncc2CCn12	
InChI=1S/C7H6N2/c1-2-7-8-5-6-3-4-9(6)7/h1,5H,3-4H2	InChI=1S/C7H6N2/c1-2-7-8-5-6-3-4-9(6)7/h1,5H,3-4H2
