17
gdb 65078	2.70908	1.3488	1.1665	2.6239	68.53	-0.253	-0.0456	0.2074	1103.4829	0.132286	-458.921782	-458.912633	-458.911689	-458.956173	33.202	
O	 0.1967921061	 1.2779753633	 0.5507573339	-0.459601
C	 0.1024152733	-0.01645774	 0.0099929812	 0.268425
C	 0.9603521214	-0.3085059393	-1.1814498422	-0.301545
C	 1.2747467298	-0.9532708394	 0.153627811	-0.331241
C	-1.3005807275	-0.560488752	 0.0714604172	 0.28821
C	-2.2551511053	-0.3352997616	-1.034797659	-0.206111
O	-1.6344802092	-1.6008699825	-0.8512727383	-0.25723
C	-1.8828345224	-0.7503829448	 1.4519599088	 0.109131
O	-2.9555922422	-1.2495477602	 1.6655748005	-0.24343
H	 0.4221865891	 1.205455282	 1.4839402631	 0.289061
H	 0.5491173466	-0.9391925358	-1.960104788	 0.136314
H	 1.6034707751	 0.4989920352	-1.5098479246	 0.125903
H	 2.1378967879	-0.5858944937	 0.6984280843	 0.117225
H	 1.0739818702	-2.013088594	 0.2669366385	 0.131671
H	-3.3181960302	-0.3095174641	-0.8071438579	 0.1411
H	-1.9169050616	 0.2376126784	-1.8959408927	 0.12889
H	-1.2380897612	-0.3877590514	 2.2839759043	 0.063227
49.2646	79.006	170.2825	186.1096	237.7006	257.6523	328.4798	343.6892	351.1144	484.1776	523.0527	534.9207	736.5459	778.5815	826.0919	862.1235	906.487	925.7327	941.0752	956.2199	995.3983	1045.9327	1055.3651	1087.0939	1134.9023	1144.2353	1173.9283	1196.5029	1259.9729	1315.0422	1349.6964	1395.2882	1438.5093	1443.7184	1488.8293	1502.6403	1834.0243	2874.0748	3096.2421	3131.9349	3149.2491	3198.5462	3221.1183	3246.6084	3809.5572
OC1(CC1)C1(CO1)C=O	OC1(CC1)[C@]1(CO1)C=O	
InChI=1S/C6H8O3/c7-3-6(4-9-6)5(8)1-2-5/h3,8H,1-2,4H2	InChI=1S/C6H8O3/c7-3-6(4-9-6)5(8)1-2-5/h3,8H,1-2,4H2/t6-/m1/s1
