15
gdb 133097	2.82783	1.26439	0.87851	1.1108	70.66	-0.2565	-0.0159	0.2406	1219.9503	0.112971	-461.964962	-461.957157	-461.956213	-461.997971	28.688	
O	 0.0173190685	 1.4272756559	 0.008563545	-0.41754
C	-0.0043678751	 0.0129798478	 0.0036683742	-0.148115
C	-1.4325582469	-0.4779060412	 0.0140626803	 0.313301
N	-1.5750195931	-1.809276759	 0.0124299411	-0.32448
C	-2.8158299456	-2.2959141852	 0.0211319547	 0.003242
C	-3.9642569181	-1.5086799766	 0.0317951157	-0.26519
C	-3.7792346791	-0.1351775856	 0.0332080703	 0.335198
F	-4.8383823662	 0.672636046	 0.0432204771	-0.071725
C	-2.5051724403	 0.4105758264	 0.0243180768	-0.315195
H	 0.933887068	 1.7150109804	 0.0009282581	 0.295339
H	 0.4937306807	-0.4031065474	-0.8857293287	 0.115183
H	 0.5088074055	-0.4095662271	 0.881342685	 0.115215
H	-2.9065264616	-3.3794975275	 0.0195947495	 0.114227
H	-4.9578935122	-1.9384175694	 0.0387280016	 0.114461
H	-2.3475498444	 1.4798669926	 0.0253325394	 0.136079
55.9933	178.8679	192.7768	217.031	245.4256	399.8825	459.6509	467.5317	521.293	590.3029	599.6446	750.0527	769.0703	855.0148	899.1755	969.2264	984.6459	1011.8869	1040.8596	1078.9491	1115.4455	1150.4019	1227.593	1243.5565	1296.4786	1314.3253	1323.3411	1439.2523	1458.698	1502.6668	1514.7889	1624.0905	1638.9158	2979.9992	3005.9188	3157.9768	3217.2123	3241.7421	3848.9443
OCC1=NC=CC(F)=C1	OCc1nccc(F)c1	
InChI=1S/C6H6FNO/c7-5-1-2-8-6(3-5)4-9/h1-3,9H,4H2	InChI=1S/C6H6FNO/c7-5-1-2-8-6(3-5)4-9/h1-3,9H,4H2
