20
gdb 82569	4.09788	1.09471	1.02159	2.8123	79.44	-0.2274	0.0763	0.3037	1254.665	0.170747	-403.086687	-403.078327	-403.077383	-403.119866	31.941	
C	-0.0767802553	 1.4564212833	-0.1732876311	-0.417119
C	 0.039526251	-0.0467054823	-0.1083953858	 0.019142
C	 0.8180285496	-0.7742576263	-1.1369968402	-0.128974
N	 1.3707081884	-0.5555478267	 0.2653517093	-0.14252
C	 1.1866752095	-2.0313766693	 0.5086714773	-0.243075
C	 0.7042734647	-2.2795762775	-0.9393752414	 0.452297
C	-0.5099657478	-3.12405932	-1.3776556716	-0.357213
C	 0.5113232066	-3.8978815036	-2.2304314604	-0.075497
O	 1.59634752	-3.0800493751	-1.7406768802	-0.316668
H	 0.8307128598	 1.8926436795	-0.5992129248	 0.131097
H	-0.93018819	 1.755646262	-0.7908613218	 0.116293
H	-0.2146301996	 1.8763365047	 0.8281728986	 0.125077
H	-0.8228943192	-0.554953781	 0.3270024077	 0.079206
H	 1.2487674837	-0.2934415444	-2.0102587462	 0.098245
H	 2.1526397125	-2.5104693298	 0.6814044082	 0.126109
H	 0.4985175401	-2.2675293896	 1.3287066169	 0.097425
H	-0.9808418232	-3.6988098762	-0.5777638207	 0.112606
H	-1.27771546	-2.5766391889	-1.9278204384	 0.113177
H	 0.6510647753	-4.9545366246	-1.9751143156	 0.105589
H	 0.3917006041	-3.8072990141	-3.3166066698	 0.104801
69.0433	111.4834	186.5693	226.0742	243.3419	310.9463	394.7611	432.9627	446.8137	543.95	740.2163	780.4366	814.938	840.4879	857.4677	884.2606	935.8161	962.3501	979.4434	996.1067	1015.697	1025.8681	1034.9221	1116.7954	1132.2024	1153.815	1157.6891	1185.8362	1187.1242	1199.5449	1225.0992	1244.3416	1265.8503	1285.9303	1332.5241	1354.0146	1409.9633	1437.8904	1478.1954	1485.0192	1488.6134	1497.5215	1530.9644	3022.0877	3034.2921	3037.4113	3062.7088	3074.3827	3082.1514	3102.9539	3118.1277	3122.3291	3129.3122	3160.5205
CC1C2N1CC21CCO1	C[C@H]1[C@H]2N1C[C@]12CCO1	
InChI=1S/C7H11NO/c1-5-6-7(2-3-9-7)4-8(5)6/h5-6H,2-4H2,1H3	InChI=1S/C7H11NO/c1-5-6-7(2-3-9-7)4-8(5)6/h5-6H,2-4H2,1H3/t5-,6+,7-,8?/m0/s1
