17
gdb 69678	3.39336	1.29923	1.20063	3.7696	77.02	-0.242	0.0136	0.2556	1082.9207	0.135797	-380.795737	-380.7879	-380.786956	-380.827906	30.469	
C	 0.151148365	 1.5466300191	 0.0574492833	-0.478441
C	-0.0840272456	 0.0671017786	 0.0031695089	 0.330067
C	-0.9226049271	-0.6868636539	 0.9566768008	-0.314392
N	 0.5476547333	-0.8803124925	 1.001336284	-0.175359
C	 1.0153693858	-1.7077786739	-0.1641988093	-0.024288
C	 0.0362633326	-2.2145328482	-1.2165560745	-0.16932
C	-1.2800021739	-2.7837446738	-1.087909337	 0.289715
N	-2.3222081228	-3.2855025804	-1.0445059072	-0.357238
C	 0.4526739986	-0.7587509641	-1.1895738543	-0.165553
H	 1.1705545157	 1.7949707586	-0.2575774468	 0.127354
H	-0.5467789613	 2.0730797912	-0.60401311	 0.129536
H	 0.0093564078	 1.9204823025	 1.0748009879	 0.135416
H	-1.266099506	-0.1293004483	 1.8240135173	 0.128831
H	-1.5828409726	-1.491479057	 0.6652302682	 0.165926
H	 1.9909644178	-2.1691118041	-0.0769685714	 0.120253
H	 0.5989709469	-2.7473011392	-1.9821331378	 0.146973
H	 0.9246172658	-0.3004452846	-2.0491700721	 0.110522
97.5298	169.259	196.6495	261.8972	290.9028	389.9887	396.8003	465.0027	585.202	624.3523	646.2518	716.7308	721.2207	747.6255	856.55	887.5496	917.5793	945.7387	980.8686	987.3687	1005.3729	1061.5129	1080.5921	1097.0128	1115.7568	1139.4781	1189.4349	1229.4811	1298.9049	1323.002	1380.4947	1411.6099	1423.6123	1480.6841	1492.8266	1515.9335	2343.014	3029.7752	3091.2844	3119.8118	3125.5378	3135.3849	3188.6618	3199.8577	3243.9969
CC12CN1C1C(C#N)C21	C[C@]12CN1[C@H]1[C@@H](C#N)[C@@H]21	
InChI=1S/C7H8N2/c1-7-3-9(7)6-4(2-8)5(6)7/h4-6H,3H2,1H3	InChI=1S/C7H8N2/c1-7-3-9(7)6-4(2-8)5(6)7/h4-6H,3H2,1H3/t4-,5+,6-,7+,9?/m0/s1
