19
gdb 121650	3.40706	0.79543	0.68238	2.0563	73.55	-0.2675	-0.0046	0.2629	1680.6432	0.157023	-460.17376	-460.163853	-460.162909	-460.210333	33.946	
C	-0.1650189465	 1.3328345365	 0.0300934649	-0.384634
C	-0.3392819515	-0.1099564442	-0.4523751633	-0.190996
C	 0.8451211855	-0.5727046214	-1.2840264874	-0.045271
O	 0.592176478	-1.9319683938	-1.6948582743	-0.240346
C	 1.5293181335	-2.4919598366	-2.4714333092	 0.427225
O	 2.5456064961	-1.9492645358	-2.829238327	-0.367772
C	 1.190335801	-3.9076489884	-2.8416314963	-0.032716
C	 0.5702099562	-4.826675162	-1.867185958	-0.166092
O	-0.1839078008	-4.272590939	-2.9335367625	-0.212329
H	 0.7296423489	 1.4410008622	 0.6528264533	 0.12071
H	-0.0684671271	 2.0262495654	-0.8123026088	 0.122231
H	-1.0249815357	 1.6510973716	 0.6256333175	 0.121995
H	-0.4576087816	-0.7843557794	 0.4035054287	 0.108197
H	-1.2510979313	-0.2028527201	-1.0528464845	 0.115558
H	 0.9840400891	 0.0459576617	-2.1768585012	 0.124391
H	 1.780967845	-0.5413161243	-0.7154012413	 0.120382
H	 1.84184069	-4.3053267595	-3.6158436921	 0.122042
H	 0.7880495082	-5.8909379426	-1.9412030702	 0.126035
H	 0.3209701329	-4.4534367504	-0.8765187485	 0.131389
41.9072	62.6333	88.103	99.2382	167.4618	206.3415	229.3467	309.3165	327.438	395.9173	486.8773	645.7231	756.7591	764.9499	853.2404	883.216	891.3033	916.1351	938.4175	979.3928	1048.0129	1065.8609	1099.8129	1147.3479	1157.9396	1169.4606	1188.4906	1263.6602	1268.8792	1304.5647	1313.844	1338.0147	1394.2616	1414.2567	1428.3502	1491.7508	1499.6938	1504.3264	1514.2147	1520.2294	1814.2913	3034.5515	3037.8762	3047.0433	3067.9782	3090.0382	3092.986	3106.9893	3113.2839	3153.7061	3189.6888
CCCOC(=O)C1CO1	CCCOC(=O)[C@H]1CO1	
InChI=1S/C6H10O3/c1-2-3-8-6(7)5-4-9-5/h5H,2-4H2,1H3	InChI=1S/C6H10O3/c1-2-3-8-6(7)5-4-9-5/h5H,2-4H2,1H3/t5-/m1/s1
