18
gdb 102527	2.13926	1.19678	0.83694	3.5066	68.47	-0.2709	0.0089	0.2798	1345.2328	0.145292	-476.208277	-476.197773	-476.196829	-476.244274	36.806	
O	 0.073019694	 1.4262704963	-0.0878510827	-0.414859
C	-0.009468043	 0.018034457	 0.0716802701	-0.075901
C	-1.4548933115	-0.4975392756	-0.06045423	-0.113043
C	-2.0481150491	-0.047111837	-1.4081026694	-0.052397
O	-3.2875231216	-0.650808115	-1.7309468671	-0.413666
C	-1.501670505	-2.042172452	 0.0813107315	 0.011594
O	-0.6287015067	-2.5492590798	 1.0819170997	-0.41706
C	-2.8748448094	-2.5107464603	 0.3512312702	 0.265721
N	-3.9250469391	-2.8675734993	 0.6769285116	-0.33348
H	-0.2820956504	 1.8392150102	 0.7056583166	 0.286044
H	 0.6066521451	-0.4104418296	-0.7274870916	 0.119787
H	 0.425327444	-0.3097767759	 1.0220259022	 0.106004
H	-2.0500211492	-0.0640780088	 0.7588360637	 0.070888
H	-2.1008693017	 1.0478922039	-1.4255782382	 0.112139
H	-1.3635158606	-0.3465587259	-2.2110148199	 0.115572
H	-3.9478176868	-0.3856494305	-1.0820127719	 0.2921
H	-1.1578852932	-2.4919930653	-0.8568517473	 0.144857
H	-1.0096510858	-2.3557259023	 1.9462257726	 0.295699
51.2829	83.5571	114.3511	149.9633	207.8354	227.9513	236.4892	275.7459	310.1286	333.5073	351.9322	415.6691	440.5379	514.5197	597.0077	621.3602	841.3711	887.7261	934.4755	1033.6535	1046.6864	1063.939	1083.8796	1106.759	1109.4112	1166.3087	1202.6709	1268.6798	1302.7757	1336.526	1363.0755	1382.8305	1400.9536	1408.1042	1416.0621	1424.539	1503.7558	1507.9064	2351.9253	2983.3414	3027.8929	3036.2675	3062.5139	3070.7526	3082.0594	3802.8098	3815.64	3818.8131
OCC(CO)C(O)C#N	OCC(CO)[C@@H](O)C#N	
InChI=1S/C5H9NO3/c6-1-5(9)4(2-7)3-8/h4-5,7-9H,2-3H2	InChI=1S/C5H9NO3/c6-1-5(9)4(2-7)3-8/h4-5,7-9H,2-3H2/t5-/m0/s1
