19
gdb 99614	2.20017	1.31415	1.05072	1.5468	77.65	-0.263	0.0289	0.2919	1245.1745	0.154979	-422.956625	-422.946445	-422.9455	-422.99186	36.598	
C	 0.1926742072	 1.5669167563	-0.6856886307	-0.236242
O	-0.2292830565	 0.2262714642	-0.8402563603	-0.236497
C	 0.8048401281	-0.6668611881	-1.220276068	-0.124724
C	 1.8405501838	-0.8012037522	-0.185545268	 0.345547
C	 2.6832562147	-0.9056238391	 0.6652214348	-0.467154
C	 0.1334749729	-2.0064740938	-1.5300339203	 0.411509
C	-0.5746820919	-2.6815151599	-0.381758169	-0.470516
C	-0.2658970639	-2.2524898661	-2.9208755929	-0.230123
O	 0.9200443152	-2.8454027194	-2.3788267286	-0.278453
H	 0.9419196512	 1.6690266389	 0.1100926996	 0.123946
H	 0.617166309	 1.9641560568	-1.6205377077	 0.10609
H	-0.6937723556	 2.1480305969	-0.4227375309	 0.130177
H	 1.2883792063	-0.3158580445	-2.1464427326	 0.096836
H	 3.4333683969	-1.003558671	 1.4110536003	 0.202121
H	-1.3479561875	-2.0214996536	 0.0202248514	 0.140238
H	-1.0349054955	-3.6145345975	-0.7147229789	 0.122149
H	 0.1327005854	-2.9082711281	 0.4213460513	 0.137658
H	-1.0814752397	-2.9438509555	-3.1266173524	 0.115033
H	-0.1032665301	-1.4882426042	-3.6798253472	 0.112402
57.2833	102.6962	135.5186	171.8557	176.3458	189.976	242.027	321.6858	339.2233	362.8137	390.1265	480.854	538.789	594.3858	636.2681	675.1274	781.0419	857.2237	900.169	926.1884	973.5079	1010.6144	1044.2751	1113.1973	1132.759	1139.2154	1164.484	1184.4416	1213.497	1282.914	1302.068	1344.1721	1401.4736	1430.0824	1476.5777	1480.7196	1484.899	1500.7047	1510.7329	1534.2336	2229.6759	2971.9926	2986.4022	3050.2109	3050.6928	3083.5755	3122.0985	3124.0975	3134.1773	3170.3507	3500.6222
COC(C#C)C1(C)CO1	CO[C@@H](C#C)[C@@]1(C)CO1	
InChI=1S/C7H10O2/c1-4-6(8-3)7(2)5-9-7/h1,6H,5H2,2-3H3	InChI=1S/C7H10O2/c1-4-6(8-3)7(2)5-9-7/h1,6H,5H2,2-3H3/t6-,7+/m0/s1
