20
gdb 118815	2.1032	1.12441	0.83929	4.0732	77.42	-0.2492	0.0033	0.2526	1415.3878	0.168454	-440.276272	-440.266087	-440.265143	-440.311859	36.262	
C	-0.1670689023	 1.6883872907	-0.4170955845	-0.453223
C	 0.0564961567	 0.2110772152	-0.1560006484	 0.286695
C	-1.0808617694	-0.5450572863	 0.5137548031	-0.241319
C	-1.5066410366	-0.0034407294	 1.8773923828	-0.081675
O	-2.5578812761	-0.8357242852	 2.3379213555	-0.415226
C	 0.924030633	-0.5647973585	-1.1150732989	-0.284261
N	 1.437484243	-0.1535672036	 0.1702558199	-0.089958
C	 1.8885853341	-1.0276903044	 1.1396490162	 0.134608
O	 2.5117719076	-2.0395248424	 0.9246775177	-0.292121
H	 0.6765750222	 2.112362023	-0.9665134798	 0.130688
H	-1.0784560903	 1.8396313027	-1.0053335826	 0.124993
H	-0.271705492	 2.2495519939	 0.5165937207	 0.12798
H	-1.9560531605	-0.5226040455	-0.1469626205	 0.117172
H	-0.8042287317	-1.5980341435	 0.6351676804	 0.123977
H	-0.6514040019	-0.015609537	 2.572462152	 0.090944
H	-1.8386146573	 1.0421780172	 1.7874082184	 0.091924
H	-2.846008057	-0.5138108126	 3.1969367248	 0.289519
H	 0.7293732468	-1.6262916735	-1.2469467197	 0.135783
H	 1.3463662416	-0.0617617571	-1.9812080882	 0.122541
H	 1.68100862	-0.6528187836	 2.160525481	 0.080958
64.931	90.3739	113.6842	161.035	178.3677	227.1588	260.6582	264.2566	316.9302	348.8435	395.4669	434.9836	501.667	611.8756	765.6134	802.5843	859.1972	914.3111	956.2631	993.9911	1022.7637	1038.5796	1048.3271	1077.0831	1122.6912	1125.3563	1138.7089	1204.9508	1240.5061	1263.207	1284.0709	1321.035	1345.9861	1406.3512	1416.4736	1428.4328	1463.1388	1478.2832	1490.8768	1498.808	1510.9901	1526.5307	1793.9963	2945.4511	2968.2106	2998.3246	3035.3137	3040.9001	3083.6091	3104.6922	3105.4619	3125.476	3193.6113	3832.3333
CC1(CCO)CN1C=O	C[C@@]1(CCO)CN1C=O	
InChI=1S/C6H11NO2/c1-6(2-3-8)4-7(6)5-9/h5,8H,2-4H2,1H3	InChI=1S/C6H11NO2/c1-6(2-3-8)4-7(6)5-9/h5,8H,2-4H2,1H3/t6-,7?/m1/s1
