19
gdb 118028	3.54411	0.7699	0.66171	1.2643	74.31	-0.2546	0.0287	0.2832	1654.1046	0.154982	-460.107319	-460.09626	-460.095316	-460.143941	39.108	
O	-0.0752781476	 1.4764924634	 0.0122561115	-0.422399
C	 0.0392935494	 0.0610038809	-0.0000450751	-0.084493
C	-1.3703950283	-0.5159791271	-0.0196414218	-0.190624
C	-1.3846248388	-2.0435942929	 0.0161755969	 0.099621
O	-0.7832932143	-2.5645109586	 1.1924272841	-0.422959
C	-2.8262636005	-2.5971731469	-0.153159896	-0.084604
O	-3.4347680045	-2.1104098182	-1.3462150185	-0.414663
C	-2.8488182842	-4.0589705703	-0.0962424706	 0.300292
C	-2.8658893778	-5.2604933801	-0.1252366498	-0.435068
H	 0.810214992	 1.8476469594	 0.0638261692	 0.285558
H	 0.5922563347	-0.2875367622	-0.8882639659	 0.083884
H	 0.5775736762	-0.309333362	 0.8841268761	 0.095887
H	-1.9239218817	-0.1252782642	 0.846709651	 0.092575
H	-1.8996703998	-0.1698901752	-0.9116339403	 0.128547
H	-0.7797560752	-2.442465534	-0.8085454338	 0.089208
H	-1.2430593951	-2.1881421809	 1.9519351317	 0.281664
H	-3.4369983885	-2.1926332678	 0.6667026327	 0.107725
H	-3.1456792269	-2.6781466803	-2.0690544313	 0.289478
H	-2.882796779	-6.322503663	-0.12778974	 0.200372
51.1339	87.3625	96.232	119.1968	180.7054	222.72	248.9404	265.0339	270.1264	302.9563	360.3545	384.1038	444.1888	467.5622	593.858	609.1185	635.2339	670.8829	803.3173	908.1033	934.464	1022.7358	1047.9154	1072.9933	1079.4534	1110.3427	1121.1952	1204.7031	1213.136	1250.7402	1274.013	1299.2599	1316.1288	1357.7196	1378.2768	1411.6944	1417.9151	1462.0591	1491.9132	1531.9603	2234.3877	2963.1742	3007.0787	3008.6201	3017.1392	3039.0547	3103.618	3503.3265	3791.7272	3810.7224	3830.8194
OCCC(O)C(O)C#C	OCC[C@@H](O)[C@@H](O)C#C	
InChI=1S/C6H10O3/c1-2-5(8)6(9)3-4-7/h1,5-9H,3-4H2	InChI=1S/C6H10O3/c1-2-5(8)6(9)3-4-7/h1,5-9H,3-4H2/t5-,6+/m0/s1
