14
gdb 11761	4.94515	1.79972	1.62679	1.8664	67.85	-0.2416	-0.0072	0.2344	800.0709	0.106641	-345.313932	-345.307571	-345.306627	-345.344099	25.708	
C	 0.0839014635	-1.2029828688	-0.0153542422	-0.324376
C	 0.0486974662	-0.0020361024	 0.0007706078	 0.047328
C	-0.0237107056	 1.4335848756	 0.0325414161	 0.31655
C	-0.329339849	 2.2730127183	 1.3242439073	-0.253526
C	 0.4335935294	 3.2867979687	 0.4256188495	-0.005426
O	 1.2565317157	 2.1663872359	-0.0410905835	-0.312689
C	-0.5486344331	 3.4638996669	-0.748961589	-0.082904
C	-0.8658706008	 2.1992921916	-1.0217138605	-0.125445
H	 0.12304622	-2.2642796437	-0.032098456	 0.188412
H	-1.3726512748	 2.4662524428	 1.5786074873	 0.104308
H	 0.2576904878	 1.9349354779	 2.1803364694	 0.119205
H	 0.9990095215	 4.1342271138	 0.8072429693	 0.088979
H	-0.8755339775	 4.3889206953	-1.1997200724	 0.117126
H	-1.5198524034	 1.7554468581	-1.7563795031	 0.122459
155.4565	164.8771	435.687	471.5391	505.1568	542.1596	552.1685	617.6588	626.8878	683.611	708.6186	749.5641	833.4839	859.8145	883.7223	903.1221	922.2875	976.3639	981.9228	1048.8965	1060.4242	1111.9704	1205.3214	1230.6411	1251.8497	1288.4287	1310.2974	1484.4545	1618.6522	2245.5265	3072.6122	3148.7134	3151.4424	3238.3854	3267.0962	3501.3715
C#CC12CC(O1)C=C2	C#C[C@@]12C[C@@H](O1)C=C2	
InChI=1S/C7H6O/c1-2-7-4-3-6(5-7)8-7/h1,3-4,6H,5H2	InChI=1S/C7H6O/c1-2-7-4-3-6(5-7)8-7/h1,3-4,6H,5H2/t6-,7+/m0/s1
