19
gdb 124637	4.29227	0.90674	0.85483	1.5757	78.31	-0.2042	0.0076	0.2119	1412.7652	0.160771	-415.394696	-415.385666	-415.384722	-415.429098	33.223	
C	 0.0029973098	 1.5537306628	 0.066904653	-0.395459
C	 0.0066915961	 0.0250055347	 0.0157671614	 0.052263
C	 0.5750678916	-0.587679402	 1.3057198291	-0.384093
N	-1.3486438126	-0.4351292456	-0.2948502039	-0.385117
C	-1.5752363279	-1.7559769771	-0.6295546498	 0.377599
N	-2.7513913875	-2.3467056284	-0.393847671	-0.316503
N	-2.587560801	-3.5627963648	-0.9259432492	-0.076648
N	-1.4151942143	-3.8189671921	-1.4702216106	-0.194602
C	-0.7390718394	-2.6810568814	-1.2986351312	-0.125412
H	 1.0117307565	 1.9379059018	 0.2426697544	 0.119175
H	-0.3759643099	 1.972998483	-0.8685897863	 0.127201
H	-0.6342045559	 1.9124079258	 0.8846417296	 0.113559
H	 0.6401631998	-0.2837073948	-0.8252059726	 0.093772
H	 0.5577410324	-1.6803949988	 1.2622750693	 0.127499
H	 1.6101092438	-0.2693076635	 1.4682669237	 0.114315
H	-0.0156609913	-0.2730054694	 2.1738289668	 0.112564
H	-2.0546676222	-0.0799306919	 0.3375446708	 0.235739
H	-3.3249031956	-4.2466227914	-0.905540546	 0.289035
H	 0.2741886777	-2.5805991269	-1.6499083475	 0.115113
51.1347	71.9019	135.4567	224.5431	254.44	306.357	326.0539	381.2062	432.0277	442.7553	473.2887	600.083	702.6076	740.8879	772.9193	832.3277	851.3062	928.5008	949.3549	973.5969	994.8397	1033.7468	1142.1666	1164.1873	1185.8677	1189.7049	1209.1887	1266.8314	1323.1615	1354.7412	1376.2964	1397.4032	1411.8801	1419.353	1482.5779	1484.8171	1486.2707	1504.4847	1507.7323	1522.3334	1604.2782	3026.6631	3028.0045	3035.2781	3095.1863	3103.7529	3112.7746	3125.7144	3277.4502	3569.2369	3683.4944
CC(C)NC1=NNN=C1	CC(C)Nc1n[nH]nc1	
InChI=1S/C5H10N4/c1-4(2)7-5-3-6-9-8-5/h3-4H,1-2H3,(H2,6,7,8,9)	InChI=1S/C5H10N4/c1-4(2)7-5-3-6-9-8-5/h3-4H,1-2H3,(H2,6,7,8,9)
