18
gdb 41168	3.01107	1.77991	1.59124	1.8495	76.46	-0.2309	-0.0044	0.2265	910.9475	0.149744	-401.80784	-401.801224	-401.80028	-401.838337	28.242	
C	 0.0639800759	 1.5811091213	-0.1400174032	-0.206044
O	 1.5363760549	 1.4440990313	 0.0702187973	-0.329673
C	 1.1579584367	 0.3068706938	 0.938240842	 0.153003
C	 1.1518326526	-1.2477731409	 1.2531865035	-0.137183
N	-0.3928530359	-1.003032198	 1.1509808041	-0.40109
C	-0.0162715982	 0.0283344204	 0.1005366204	 0.266323
C	 0.2801172322	-0.6796863556	-1.2475548436	-0.285757
C	 1.2066867829	-1.856332433	-1.0803779482	-0.068137
C	 1.6537174082	-2.1248327454	 0.1436047631	-0.047076
H	-0.3809613464	 2.1998195905	 0.645979009	 0.11703
H	-0.1568687011	 1.9750452233	-1.1353666261	 0.111868
H	 0.8574981253	 0.7606739528	 1.889839396	 0.09985
H	 1.4728106622	-1.549617795	 2.2510063867	 0.08345
H	-0.8533896071	-1.8174076285	 0.7428091361	 0.215516
H	-0.6821975113	-0.9941102455	-1.6807542185	 0.105803
H	 0.7180453875	 0.0214831552	-1.9659330305	 0.126809
H	 1.5100019929	-2.4211488583	-1.9566125211	 0.097716
H	 2.3559715687	-2.9216615585	 0.3632351528	 0.09759
185.7519	265.9911	343.6094	389.4951	437.6842	480.3987	524.708	575.2061	643.825	705.4093	727.3425	772.428	811.3273	828.5062	867.3185	908.6579	949.3477	960.166	973.6601	989.1898	998.6369	1035.3518	1056.267	1118.571	1137.9812	1168.4455	1186.7133	1211.2991	1217.8353	1256.8557	1273.704	1328.9486	1359.5392	1365.7325	1387.7893	1458.928	1463.972	1504.4273	1707.6833	2991.902	3020.123	3041.8657	3064.7753	3103.8722	3116.3556	3168.9438	3195.0058	3448.5679
C1OC2C3NC12CC=C3	C1O[C@@H]2[C@H]3N[C@@]12CC=C3	
InChI=1S/C7H9NO/c1-2-5-6-7(3-1,8-5)4-9-6/h1-2,5-6,8H,3-4H2	InChI=1S/C7H9NO/c1-2-5-6-7(3-1,8-5)4-9-6/h1-2,5-6,8H,3-4H2/t5-,6+,7-/m0/s1
