16
gdb 31403	3.02027	1.34505	0.94127	2.9756	75.34	-0.2578	-0.0669	0.1909	1209.3975	0.124736	-434.108075	-434.099932	-434.098987	-434.141476	29.577	
C	-0.0810596735	 1.5306676986	 0.134287006	-0.378678
C	 0.0274800315	 0.0204345191	-0.048394696	-0.264195
C	 0.7374213107	-0.426153498	-1.2924210017	 0.352212
N	 1.2083324822	 0.4395299832	-2.125959958	-0.291761
C	 1.8547363839	 0.0010975079	-3.2586022648	 0.432407
N	 2.3488385211	 0.7614698303	-4.1329129051	-0.513413
O	 1.9580288039	-1.4183158953	-3.429853322	-0.209207
C	 1.4275026865	-2.2020482593	-2.4924373301	 0.147633
N	 0.8233819504	-1.8192381006	-1.4337923009	-0.313393
H	 0.9073043926	 1.9949962718	 0.1737914197	 0.135861
H	-0.6211380883	 1.9904646566	-0.6969210497	 0.135919
H	-0.610745446	 1.7605784745	 1.0629384384	 0.111096
H	 0.5450250446	-0.4519326676	 0.7978708051	 0.134735
H	-0.9623907105	-0.4562294188	-0.0609687682	 0.134755
H	 2.777543144	 0.2204515801	-4.88249686	 0.232336
H	 1.5630473468	-3.2567288825	-2.7230726925	 0.153693
65.028	105.336	157.7407	183.7803	233.6491	396.1235	400.6219	494.0693	555.5982	598.8977	610.8801	727.1402	762.8214	815.4598	817.3658	859.6658	942.0162	985.6448	994.0517	1061.2193	1103.8013	1118.6922	1146.1166	1253.5259	1275.5433	1285.5599	1392.0063	1417.7474	1420.405	1449.367	1492.0584	1499.2404	1602.342	1696.3432	1771.3948	3023.9777	3045.8895	3053.2514	3124.5786	3130.5003	3169.8302	3513.5845
CCC1=NC(=N)OC=N1	CC[C@@H]1N=C([NH])OC=N1	
InChI=1S/C5H7N3O/c1-2-4-7-3-9-5(6)8-4/h3,6H,2H2,1H3	InChI=1S/C5H8N3O/c1-2-4-7-3-9-5(6)8-4/h3-4,6H,2H2,1H3/t4-/m0/s1
