15
gdb 17420	2.96379	2.74961	1.85554	4.2372	64.	-0.2441	0.0045	0.2486	748.0975	0.118883	-362.62629	-362.61962	-362.618675	-362.656884	25.669	
C	-0.0339101039	 1.5841639451	 0.0600819786	-0.509565
C	 0.014894351	 0.0832444267	 0.0757551632	 0.148117
C	-1.2597562889	-0.815568192	 0.1598584422	-0.281633
C	-0.3329348467	-1.8925518188	 0.7298607968	-0.03024
C	 0.6863032258	-0.9143281777	 1.1182866838	-0.092212
N	 0.973546817	-1.8841869141	-0.0288943058	-0.206672
C	 0.8552138665	-0.7236735064	-0.9093066606	 0.419038
O	 1.4236050069	-0.5009295893	-1.931602166	-0.323138
H	 0.9728443326	 2.0128343152	 0.0475379227	 0.137185
H	-0.5527825468	 1.9330454991	-0.838836425	 0.141285
H	-0.5667774654	 1.9775150929	 0.9313598364	 0.123959
H	-1.956711402	-0.4586377188	 0.9228976489	 0.116524
H	-1.7947308269	-1.0161410284	-0.7743646407	 0.114914
H	-0.5896806618	-2.8414949301	 1.1818714668	 0.116712
H	 1.3813010428	-0.7943882834	 1.9359395187	 0.125726
143.398	180.8706	229.6229	289.6467	401.0251	491.6933	636.4112	652.6979	688.0891	762.4887	780.3421	847.2018	854.1506	891.2049	899.1952	960.1782	1005.8017	1024.1275	1035.811	1110.5334	1124.3187	1159.3796	1205.7965	1217.1123	1250.406	1330.3039	1357.2363	1417.165	1486.3232	1489.9219	1498.0163	1913.9523	3037.0092	3046.798	3105.727	3107.7177	3109.578	3205.2162	3237.3466
CC12CC3C1N3C2=O	C[C@]12C[C@@H]3[C@H]1N3C2=O	
InChI=1S/C6H7NO/c1-6-2-3-4(6)7(3)5(6)8/h3-4H,2H2,1H3	InChI=1S/C6H7NO/c1-6-2-3-4(6)7(3)5(6)8/h3-4H,2H2,1H3/t3-,4-,6+,7?/m1/s1
