15
gdb 26643	3.40107	1.27588	0.9324	1.0607	78.72	-0.1935	0.0141	0.2076	1182.7378	0.112546	-416.805784	-416.796906	-416.795962	-416.838993	33.297	
N	 0.1505108221	 1.4279287905	-0.0089671865	-0.618718
C	 0.023734371	 0.02332297	-0.0206017302	 0.187716
C	-1.0504677459	-0.8352793447	-0.0166094913	 0.15541
O	-2.3541914552	-0.452240721	 0.0015764122	-0.453131
C	-0.5546598593	-2.1801337167	-0.0346582919	 0.073072
C	 0.8324864526	-2.0891134469	-0.0496676034	-0.199001
N	 1.1601381824	-0.7731753276	-0.0407477752	-0.256851
C	-1.3780419425	-3.3243976226	-0.0359956112	 0.203101
C	-2.1552222771	-4.248016194	-0.0363243848	-0.467309
H	-0.2823819134	 1.8337119759	 0.8150913182	 0.2475
H	-0.3019714152	 1.8489234666	-0.8146599371	 0.24752
H	-2.8905653195	-1.2549037296	 0.0001227906	 0.297641
H	 1.5767572683	-2.867311318	-0.0654423767	 0.131097
H	 2.0887107867	-0.3876151796	-0.0475915816	 0.266001
H	-2.814026295	-5.0802252323	-0.0376790212	 0.185952
115.0171	122.346	125.2894	258.5323	264.5067	313.7014	356.0129	416.1307	443.4832	486.5149	516.8201	534.1226	586.7678	636.8404	669.3849	700.9055	729.4445	731.159	773.9277	824.8964	1011.2722	1109.0276	1218.6873	1226.5397	1237.6137	1308.5543	1366.8549	1428.4076	1498.7731	1541.8345	1659.4061	1684.84	2216.8357	3276.8776	3493.8384	3502.0342	3552.55	3681.5123	3780.818
NC1=C(O)C(=CN1)C#C	Nc1c(O)c(c[nH]1)C#C	
InChI=1S/C6H6N2O/c1-2-4-3-8-6(7)5(4)9/h1,3,8-9H,7H2	InChI=1S/C6H6N2O/c1-2-4-3-8-6(7)5(4)9/h1,3,8-9H,7H2
