16
gdb 81405	4.34046	1.15651	1.10582	4.749	68.47	-0.2606	0.0095	0.2701	1093.5605	0.125303	-437.860876	-437.853449	-437.852504	-437.892686	28.835	
O	-0.0087044334	 1.3888312357	-0.1319214423	-0.43622
C	 0.0343546452	-0.0091648708	-0.0188694717	 0.120778
C	 0.0516872428	-0.6110654988	 1.4211467412	 0.057174
C	-1.4325849141	-0.2048672735	 1.5328538638	-0.253798
C	-1.4064439312	-0.6101324705	 0.0241442131	-0.086363
C	-1.0335577525	-2.099692396	 0.1415259249	-0.045639
O	 0.0118289749	-2.0260508157	 1.1395328813	-0.279713
C	-2.1307454026	-2.9670674129	 0.5909576335	 0.296952
N	-3.0030734506	-3.6474609483	 0.9237632182	-0.324339
H	 0.8737361816	 1.7326483235	 0.0408220596	 0.293073
H	 0.7429689846	-0.4650597888	-0.7236095188	 0.078307
H	 0.8156613512	-0.4131392607	 2.1710982084	 0.089903
H	-2.064435374	-0.7760554254	 2.2146755448	 0.126434
H	-1.569105051	 0.8672365566	 1.6549791494	 0.132075
H	-2.1775715302	-0.3347594908	-0.6920306525	 0.103547
H	-0.6268773406	-2.5112039837	-0.789422993	 0.127827
121.2869	144.3389	274.6905	304.6135	326.7265	349.5801	453.4965	469.8131	559.9353	576.2427	701.3078	826.8009	852.6357	893.6173	915.267	930.7625	956.7062	979.0833	1011.8953	1026.9318	1078.707	1081.6027	1127.2563	1143.5601	1190.8261	1236.6729	1239.9448	1254.7531	1273.2118	1301.0672	1322.9498	1365.1437	1422.2771	1484.849	2360.6394	3015.5308	3044.5874	3095.3738	3141.9165	3151.0813	3176.7166	3817.4495
OC1C2CC1C(O2)C#N	O[C@H]1[C@H]2C[C@@H]1[C@@H](O2)C#N	
InChI=1S/C6H7NO2/c7-2-5-3-1-4(9-5)6(3)8/h3-6,8H,1H2	InChI=1S/C6H7NO2/c7-2-5-3-1-4(9-5)6(3)8/h3-6,8H,1H2/t3-,4-,5+,6-/m1/s1
