24
gdb 122994	4.43719	0.64798	0.6008	2.501	87.23	-0.2338	0.0832	0.317	1974.7383	0.215743	-405.525312	-405.514374	-405.51343	-405.562308	39.109	
C	-0.3035900532	 1.552469	 0.5504558094	-0.38275
C	-0.4026711	 0.1257597735	 1.0957601501	-0.186109
C	 0.9120077707	-0.6325649963	 0.9790291339	-0.027478
O	 0.7386178414	-1.9324691079	 1.5067453225	-0.256275
C	 1.8943947569	-2.7366362091	 1.433104112	-0.128326
C	 1.598594158	-4.1165572663	 1.9937852481	 0.314242
C	 2.7481124189	-5.090476881	 1.8574228337	-0.451095
C	 0.6432345416	-4.2345927318	 3.1221196609	-0.268577
N	 0.2599742127	-4.6811225917	 1.7630663075	-0.355082
H	-0.031718067	 1.5571218269	-0.510826706	 0.117914
H	-1.2578246314	 2.0772752345	 0.6501384076	 0.119701
H	 0.4528207869	 2.134251341	 1.0887076535	 0.11755
H	-0.7027879792	 0.1415564509	 2.1498508115	 0.10779
H	-1.1768366443	-0.4339149229	 0.5583671647	 0.107186
H	 1.2314639233	-0.6909058538	-0.0757790014	 0.087128
H	 1.7105867597	-0.1042439565	 1.5275467696	 0.086979
H	 2.2261023813	-2.8294280062	 0.3834723126	 0.088852
H	 2.7255285046	-2.2741635568	 1.9931317072	 0.091747
H	 3.6280802347	-4.7471427593	 2.413662757	 0.111376
H	 2.4569586895	-6.0709411344	 2.2408030041	 0.130564
H	 3.0377681537	-5.213664886	 0.807306704	 0.11587
H	 0.7647954323	-5.0330612953	 3.8495218489	 0.106297
H	 0.1923190524	-3.323703699	 3.5021849636	 0.118272
H	-0.3219284533	-3.9533800025	 1.3519894249	 0.234223
47.5073	57.0071	94.224	133.6104	157.7627	193.2234	225.6428	237.5628	287.6731	346.4588	388.8304	401.3242	427.6778	554.3541	724.0919	765.6014	836.7695	900.654	905.8348	917.7663	939.4589	981.607	1002.0828	1025.259	1041.3653	1062.6843	1097.127	1128.4986	1150.2215	1153.2848	1164.8768	1195.3843	1262.7818	1274.0005	1293.2191	1315.1437	1318.7656	1337.6722	1380.7293	1405.8678	1413.9389	1423.0724	1451.7015	1485.2453	1491.6908	1495.479	1501.3284	1503.644	1508.7138	1514.9083	1534.5283	2940.2299	2954.123	2969.9484	2977.5993	3027.5724	3032.9841	3038.5483	3071.7921	3086.3006	3101.0244	3110.3758	3111.6679	3125.0979	3204.6867	3490.4032
CCCOCC1(C)CN1	CCCOC[C@@]1(C)CN1	
InChI=1S/C7H15NO/c1-3-4-9-6-7(2)5-8-7/h8H,3-6H2,1-2H3	InChI=1S/C7H15NO/c1-3-4-9-6-7(2)5-8-7/h8H,3-6H2,1-2H3/t7-/m1/s1
