20
gdb 85885	1.80795	1.68434	1.07364	2.26	82.92	-0.2167	0.0374	0.2541	1219.6838	0.167103	-403.085766	-403.075654	-403.07471	-403.120202	37.782	
C	 0.0004299155	 1.5060754857	-0.0146846458	-0.328309
N	-0.0487291221	 0.0663052167	 0.0855090991	-0.055076
C	-1.3007104496	-0.584005852	 0.5046604716	-0.226174
C	-0.4684009647	-1.6172140391	 1.3200705398	 0.389579
C	-0.9306075574	-1.9632278752	 2.725705254	-0.457858
O	-0.1426802624	-2.7753271033	 0.5828402609	-0.46134
C	 0.7009900122	-0.5826219238	 1.1836565293	-0.228892
C	 2.0463208092	-1.0367006316	 0.8839602008	 0.374552
C	 3.1741117758	-1.3878360705	 0.6621840757	-0.434248
H	 1.0234765871	 1.8229332409	-0.241323623	 0.131089
H	-0.6453317528	 1.842462337	-0.8325325913	 0.122101
H	-0.3232684505	 2.0202981249	 0.911760712	 0.085609
H	-1.9348563752	 0.0465918059	 1.1504062452	 0.078542
H	-1.9049326978	-0.9837074814	-0.3172004431	 0.099421
H	-1.8487716136	-2.5631972706	 2.6908705485	 0.109677
H	-0.1623768611	-2.5490546601	 3.239552346	 0.135716
H	-1.1433781185	-1.0667847548	 3.3149439101	 0.118518
H	-0.9180590083	-3.3468026153	 0.5723587247	 0.278012
H	 0.7270228251	 0.0461068149	 2.0923780351	 0.076787
H	 4.1620266192	-1.7140901881	 0.4501166306	 0.192295
83.2561	116.9737	155.2481	216.779	222.1014	232.2655	281.0461	298.0671	318.8016	361.954	377.8117	418.0694	538.9468	573.8422	605.8501	616.7719	658.0737	811.2471	837.943	907.3225	953.9147	975.8145	994.2959	1068.8026	1102.7686	1114.4011	1157.1644	1166.7083	1197.9564	1226.1035	1261.5987	1289.6816	1322.0419	1359.9829	1386.672	1410.1262	1450.4814	1485.6349	1489.9704	1492.8025	1497.7662	1506.3352	2238.0329	2913.096	2927.8899	2961.119	3025.4287	3055.4699	3059.881	3093.0018	3103.6837	3118.6713	3504.0677	3805.9457
CN1CC(C)(O)C1C#C	CN1C[C@@](C)(O)[C@H]1C#C	
InChI=1S/C7H11NO/c1-4-6-7(2,9)5-8(6)3/h1,6,9H,5H2,2-3H3	InChI=1S/C7H11NO/c1-4-6-7(2,9)5-8(6)3/h1,6,9H,5H2,2-3H3/t6-,7-/m1/s1
