18
gdb 107222	3.95031	1.23059	1.11271	3.1008	70.53	-0.242	0.0651	0.307	1117.2712	0.148612	-439.035452	-439.02773	-439.026785	-439.067874	30.264	
O	 0.05179285	 1.3448457664	-0.3622762437	-0.417626
C	 0.059842869	 0.0233873077	 0.1555854114	-0.14571
C	-1.3326264107	-0.5435085409	 0.2383363697	 0.363009
C	-2.3681445059	 0.0508957699	 1.1984704993	-0.280874
C	-3.3590395601	-1.0786673604	 1.4844791996	-0.044954
N	-4.1427653982	-1.530675235	 0.3217455487	-0.3132
C	-2.9460152252	-2.2953729994	 0.7295101911	-0.082385
C	-1.6984423777	-1.9439287078	-0.0567984433	-0.026268
O	-1.8811560332	-0.9233344886	-1.0396543313	-0.280114
H	-0.3680140976	 1.2982839183	-1.2290152002	 0.294189
H	 0.6832791125	-0.646724919	-0.4550629063	 0.092554
H	 0.5082814486	 0.0904798751	 1.1526659495	 0.107627
H	-1.8716424648	 0.3555497779	 2.1261947931	 0.10484
H	-2.8519321934	 0.9335445005	 0.7719916378	 0.128939
H	-3.8097809425	-1.1428757626	 2.4701076641	 0.089291
H	-4.9705922064	-2.021415278	 0.6536457901	 0.230975
H	-3.0537020598	-3.2998986898	 1.1233269773	 0.087319
H	-0.9745454646	-2.7166678543	-0.303860677	 0.092386
67.2049	134.0896	235.7792	297.9112	349.2959	371.2147	420.8294	436.5355	603.702	685.0061	704.8539	721.9247	809.6156	846.3761	848.8267	882.3013	907.2273	950.5826	971.9729	985.9163	1020.1563	1042.9923	1081.3376	1088.2071	1144.2437	1162.7953	1181.5823	1208.3098	1222.6488	1261.691	1282.7332	1327.2374	1362.043	1380.2403	1418.1857	1426.4736	1447.709	1466.078	1489.796	2994.0411	3053.7415	3073.8242	3104.9044	3142.3286	3153.4261	3176.4903	3489.4206	3799.4928
OCC12CC3NC3C1O2	OC[C@]12C[C@H]3N[C@H]3[C@H]1O2	
InChI=1S/C6H9NO2/c8-2-6-1-3-4(7-3)5(6)9-6/h3-5,7-8H,1-2H2	InChI=1S/C6H9NO2/c8-2-6-1-3-4(7-3)5(6)9-6/h3-5,7-8H,1-2H2/t3-,4-,5-,6-/m1/s1
