19
gdb 49146	4.37767	0.96616	0.85546	3.8376	88.95	-0.2391	-0.0508	0.1883	1362.2652	0.159567	-385.910614	-385.902277	-385.901333	-385.944027	31.525	
O	-0.0966250083	 0.0063444376	 0.0116187699	-0.279048
C	 0.0014353092	 1.215145217	-0.0241207468	 0.074487
C	 1.2672769812	 1.9401877039	 0.0136597521	 0.213976
C	 1.3810183469	 3.2778000444	-0.0559913563	-0.21658
C	 2.7880760228	 3.7184315066	-0.0172667588	 0.353841
C	 3.2790522278	 4.7920759314	-0.9807328687	-0.304739
C	 3.1855946384	 5.0906201735	 0.4861843842	-0.310467
C	 3.6053534237	 2.4535515439	 0.3023261855	-0.320661
C	 2.6216307145	 1.2683015531	 0.0917703943	-0.319741
H	-0.9022904226	 1.8631638888	-0.0887420627	 0.06032
H	 0.5478463478	 3.9681215646	-0.1507591704	 0.108658
H	 4.2619084187	 4.6440431538	-1.415836849	 0.121994
H	 2.5570540453	 5.2484326819	-1.6494504935	 0.118538
H	 2.4018928249	 5.7578111429	 0.8295980646	 0.117437
H	 4.1065485034	 5.1529958499	 1.0570437575	 0.120223
H	 4.5007252224	 2.3688753112	-0.3190025745	 0.105973
H	 3.9384478969	 2.4839761138	 1.3450761511	 0.111315
H	 2.6669107896	 0.5299503204	 0.8972895218	 0.123759
H	 2.8244873675	 0.7188371213	-0.8353241702	 0.120717
61.8084	100.7644	168.1616	206.9198	294.4194	314.8062	390.7455	438.5848	502.1597	547.5885	717.689	756.5127	781.0186	840.6684	856.6343	889.0655	897.6944	933.285	953.7239	976.0377	999.8109	1027.1346	1054.8032	1061.9993	1081.7098	1170.6343	1181.3953	1193.2389	1219.7439	1268.8728	1294.6283	1316.5256	1354.5822	1381.2499	1423.8185	1465.7152	1483.1336	1496.4914	1501.8028	1668.7321	1776.1185	2868.5355	3037.9851	3045.3764	3081.9457	3096.6544	3125.2769	3129.7442	3178.4793	3205.6522	3221.8637
O=CC1=CC2(CC2)CC1	O=CC1=CC2(CC2)CC1	
InChI=1S/C8H10O/c9-6-7-1-2-8(5-7)3-4-8/h5-6H,1-4H2	InChI=1S/C8H10O/c9-6-7-1-2-8(5-7)3-4-8/h5-6H,1-4H2
