21
gdb 70355	2.68447	1.68575	1.36655	1.7582	80.89	-0.2436	0.0838	0.3274	1039.0613	0.184506	-387.076985	-387.069307	-387.068363	-387.108667	31.372	
C	-0.2032201185	 1.4699902267	 0.0422142853	-0.492174
C	 0.0571166277	-0.0190148037	 0.0250712212	 0.359747
C	-0.7101993552	-0.9133615359	 0.9778776825	-0.340148
C	 0.7750128847	-0.7343478487	 1.162200421	-0.073807
C	 1.6826970368	-1.8168275971	 0.5905209853	-0.251739
C	 1.3624772164	-1.8811486828	-0.9073978154	 0.119182
O	 0.2737727422	-2.7711177727	-1.2740897376	-0.297062
C	-0.4230490544	-1.6924951161	-1.9406835733	-0.097337
C	 0.5083235388	-0.6476180209	-1.2947770835	-0.128703
H	 0.6660419879	 2.0324408813	-0.3193565193	 0.112876
H	-1.0561027264	 1.7354255976	-0.5942411979	 0.116342
H	-0.4288510229	 1.8204928276	 1.0543458923	 0.114608
H	-1.3666051473	-0.4174076299	 1.6861141408	 0.10223
H	-1.0656849937	-1.8795724884	 0.6370257537	 0.130745
H	 1.1225234235	-0.1764393513	 2.0260310925	 0.076583
H	 2.7344453387	-1.5387722035	 0.7263204503	 0.09759
H	 1.5408226738	-2.7983902249	 1.0561339113	 0.114322
H	 2.2456032915	-2.0894430998	-1.5240780431	 0.07096
H	-0.3257821915	-1.768428589	-3.0318822271	 0.095459
H	-1.4843205443	-1.655444667	-1.6721207853	 0.10382
H	 0.9482757222	 0.0954428985	-1.9632596436	 0.066506
144.5544	193.9003	218.6479	280.7656	301.4295	365.4328	405.6544	453.0596	575.8582	672.1897	691.7825	786.9609	819.5663	848.0787	853.9884	894.9356	903.6735	952.0879	987.04	994.5777	1008.4841	1045.9559	1056.0434	1071.1806	1079.3566	1099.1776	1105.5427	1129.4602	1169.6356	1199.6961	1217.6126	1236.9114	1266.868	1294.5796	1314.7778	1342.9506	1356.9798	1360.2655	1409.2142	1421.269	1472.2006	1488.9314	1492.3195	1501.29	1520.6942	3008.5497	3017.9571	3020.4943	3039.8237	3066.7709	3074.5315	3077.9296	3085.8467	3096.5335	3125.704	3155.4117	3213.6272
CC12CC1CC1OCC21	C[C@]12C[C@H]1C[C@H]1OC[C@@H]21	
InChI=1S/C8H12O/c1-8-3-5(8)2-7-6(8)4-9-7/h5-7H,2-4H2,1H3	InChI=1S/C8H12O/c1-8-3-5(8)2-7-6(8)4-9-7/h5-7H,2-4H2,1H3/t5-,6-,7-,8+/m1/s1
