23
gdb 120441	3.76537	0.73066	0.70756	0.1419	82.32	-0.2521	0.0736	0.3256	1692.5357	0.203606	-425.414564	-425.404062	-425.403117	-425.450328	39.159	
C	 0.6536358113	 1.2809989226	 0.2814438904	-0.453479
C	-0.0016426388	-0.0645935381	-0.0084426156	 0.436487
O	-1.3913078435	 0.0960966454	-0.249047339	-0.475802
C	 0.7565568493	-0.9534639263	-1.0476490668	-0.310033
C	 1.1773919911	-1.9281298657	 0.0928903029	 0.02545
C	 2.6629840708	-1.9171333516	 0.4450966286	-0.186808
C	 3.0071639583	-2.8302902135	 1.6150329854	-0.073895
O	 4.3999503887	-2.7130353256	 1.8683125866	-0.421718
C	 0.231370398	-1.1578483523	 1.0668623387	-0.277281
H	 1.7165177502	 1.1699361416	 0.5158862721	 0.122718
H	 0.5780080395	 1.945055618	-0.5896720446	 0.103112
H	 0.1602426165	 1.7671095528	 1.1292216379	 0.122274
H	-1.4991706601	 0.7656674597	-0.9336881768	 0.2709
H	 0.0624641263	-1.4012972893	-1.7623300685	 0.097866
H	 1.5744442605	-0.4733348935	-1.5944799856	 0.088902
H	 0.8609926801	-2.9606292292	-0.0865668045	 0.06783
H	 3.253205167	-2.2313513124	-0.4248970666	 0.102882
H	 2.9940881031	-0.9005653945	 0.693117012	 0.103374
H	 2.4171879084	-2.5447462871	 2.5010697022	 0.08712
H	 2.7330935988	-3.8688013446	 1.365161244	 0.082981
H	 4.6186060048	-3.2812354921	 2.6124858634	 0.284504
H	 0.6730733672	-0.8150018256	 2.0074060364	 0.093133
H	-0.6963089976	-1.6900194584	 1.2860119572	 0.109483
49.9249	91.7147	107.7011	148.8938	261.9875	266.6319	268.3036	276.3562	311.3046	350.5027	372.2209	433.6037	456.9068	463.1301	642.2837	780.2337	829.868	833.1464	849.0756	908.1045	934.5566	957.2358	964.9873	987.4733	1037.4919	1059.2667	1076.6094	1113.9461	1125.8609	1188.5939	1189.7103	1221.1214	1238.838	1245.2925	1271.0662	1282.9242	1292.0599	1313.6182	1330.6312	1374.5179	1388.3348	1406.3841	1461.893	1463.3975	1480.305	1488.6247	1493.0283	1496.2231	1526.8918	2958.7894	2984.8757	3017.9795	3024.2579	3041.9729	3047.4184	3057.028	3068.1165	3087.0601	3110.8608	3114.2488	3120.5592	3796.3443	3830.2859
CC1(O)CC(CCO)C1	C[C@@]1(O)C[C@@H](CCO)C1	
InChI=1S/C7H14O2/c1-7(9)4-6(5-7)2-3-8/h6,8-9H,2-5H2,1H3	InChI=1S/C7H14O2/c1-7(9)4-6(5-7)2-3-8/h6,8-9H,2-5H2,1H3/t6-,7-
