17
gdb 11608	4.55581	1.2606	1.06654	6.9539	64.85	-0.2398	0.0367	0.2766	1089.2769	0.143054	-401.014924	-401.007127	-401.006183	-401.047738	28.481	
O	-0.8312922219	 1.2694340397	 1.5842769818	-0.381588
C	-0.3448464549	 1.486984745	 0.357051021	 0.387216
O	 0.8369998366	 1.4163231979	 0.1340189037	-0.330257
C	-1.3441972366	 1.8393950801	-0.7546959287	-0.321166
C	-2.6886406729	 1.0789856452	-0.7404852206	-0.240149
C	-3.7647740321	 1.7552399261	 0.0833678781	 0.012722
C	-4.6324710705	 1.0046804099	 1.0230477666	-0.245244
N	-3.5130161486	 1.8142260159	 1.5388557297	-0.32003
H	-1.8104162002	 1.4116909604	 1.6464180552	 0.327383
H	-3.8425133163	 2.6841279747	 1.9447229067	 0.249339
H	-1.5263964349	 2.9216553964	-0.7087505971	 0.120015
H	-0.8096389111	 1.6578815015	-1.6885107327	 0.134886
H	-3.0585773247	 0.982993199	-1.7670909863	 0.116385
H	-2.5334941734	 0.0587206482	-0.3725925119	 0.120408
H	-4.1895424705	 2.6528406236	-0.3619582984	 0.102431
H	-5.6399348083	 1.3644960098	 1.2075933036	 0.128736
H	-4.5047924095	-0.0682501932	 1.1298233594	 0.138914
58.7226	105.5908	168.4955	243.6095	263.293	359.4852	420.3015	497.9982	590.7909	678.0511	765.2588	836.7448	857.5308	881.1991	911.0595	946.508	948.8168	1002.4449	1036.9506	1050.0589	1125.0403	1136.0353	1167.4432	1208.4806	1258.7388	1274.8223	1286.2497	1306.6187	1349.1222	1352.5571	1430.9198	1447.7805	1470.2757	1483.4245	1512.7304	1844.4975	3028.8491	3042.8627	3080.2157	3118.1286	3122.6256	3131.9614	3211.7093	3249.7707	3529.6086
[O-]C(=O)CCC1C[NH2+]1	OC(=O)CC[C@H]1CN1	
InChI=1S/C5H9NO2/c7-5(8)2-1-4-3-6-4/h4,6H,1-3H2,(H,7,8)	InChI=1S/C5H9NO2/c7-5(8)2-1-4-3-6-4/h4,6H,1-3H2,(H,7,8)/t4-/m0/s1
