12
gdb 21294	7.17569	1.41144	1.18835	3.3711	54.08	-0.2478	0.0188	0.2666	939.8479	0.083469	-451.774488	-451.767536	-451.766592	-451.805982	24.399	
C	-0.0459307594	 1.3408665842	 0.066651846	-0.249038
O	 0.0350815896	-0.0934182278	-0.0465404464	-0.241006
C	 0.6427791409	-0.5333335108	-1.1199912079	 0.531855
N	 1.1694919488	 0.1492396375	-2.0736057896	-0.25862
O	 1.6739209647	-0.8710774458	-2.9503491812	-0.249819
C	 1.3894082355	-2.0909210381	-2.41674495	 0.516221
N	 1.6434207755	-3.2386550967	-2.8444127238	-0.570748
O	 0.7201562114	-1.8726057107	-1.2287297643	-0.202354
H	 0.9576608995	 1.7723713081	 0.09279098	 0.159988
H	-0.5991476705	 1.7533675284	-0.7806205671	 0.159987
H	-0.5724096142	 1.5268355672	 1.0010214227	 0.155772
H	 2.1401739682	-3.1966011054	-3.7306179182	 0.247761
98.7673	147.452	196.5346	215.2934	345.9137	397.3022	549.8412	691.0723	695.738	743.05	765.8106	782.5181	912.9847	956.6269	974.7984	1031.8107	1102.3294	1181.5991	1220.209	1260.8404	1431.576	1480.7104	1494.2603	1506.0419	1711.2479	1826.2134	3055.8539	3135.3487	3178.1837	3548.5714
COC1=NOC(=N)O1	COC1=NO[C@@H]([NH])O1	
InChI=1S/C3H4N2O3/c1-6-3-5-8-2(4)7-3/h4H,1H3	InChI=1S/C3H5N2O3/c1-6-3-5-8-2(4)7-3/h2,4H,1H3/t2-/m0/s1
