14
gdb 29059	2.75582	1.76803	1.07704	2.7017	81.93	-0.2265	-0.082	0.1445	1027.9631	0.103116	-432.90549	-432.898242	-432.897298	-432.937359	27.609	
N	-0.0044369067	 1.331139466	 0.0086704347	-0.481686
C	-0.0428286098	-0.0059024332	 0.0012295597	 0.29484
N	-1.2177871232	-0.5931601159	 0.0048075495	-0.354237
C	-1.4432357132	-1.9156728312	-0.0007792488	 0.010928
C	-0.5875577106	-2.9991985661	-0.0106726255	-0.022111
N	 0.7597897241	-3.0401997262	-0.0177650799	-0.233687
C	 1.5756553804	-2.0287513172	-0.0174063062	-0.061709
C	 1.3492271007	-0.5905946032	-0.0097580279	 0.30601
O	 2.2942183548	 0.1964672588	-0.0121888537	-0.375247
H	 0.9077866634	 1.7642365138	 0.0049002646	 0.288864
H	-0.8606390279	 1.8583363539	 0.0158195252	 0.274484
H	-2.504148414	-2.1668534394	 0.0034858402	 0.115802
H	-1.0624473269	-3.9778016098	-0.0130788219	 0.110524
H	 2.6410169986	-2.2642572005	-0.0240802898	 0.127224
81.1392	149.2247	351.9448	352.6633	372.188	397.528	446.4465	455.8138	516.0069	647.73	668.2549	696.9703	756.6238	797.3348	858.2775	881.6984	957.4423	959.4218	989.3357	1069.5661	1195.0862	1284.6276	1366.6778	1411.554	1427.4159	1453.3725	1506.1797	1561.3274	1612.1729	1645.8538	1691.521	3122.29	3123.5922	3155.6932	3570.2844	3729.6327
NC1=NC=CN=CC1=O	Nc1nccncc1=O	
InChI=1S/C5H5N3O/c6-5-4(9)3-7-1-2-8-5/h1-3H,(H2,6,8,9)	InChI=1S/C5H5N3O/c6-5-4(9)3-7-1-2-8-5/h1-3H,(H2,6,8,9)
