18
gdb 68904	2.61825	1.61748	1.22313	4.4724	73.45	-0.2409	0.0563	0.2972	1071.2555	0.146364	-439.102106	-439.093638	-439.092694	-439.134788	32.57	
C	-0.1876107862	 1.4648426815	-0.0470762289	-0.472877
C	 0.1091868952	-0.004364535	-0.0301044501	 0.347326
C	 1.4745644153	-0.6183599549	-0.2701972616	-0.408818
C	 0.7558451528	-0.8155579425	 1.050664156	 0.356251
C	 1.2715868739	-0.3573589637	 2.3814857153	-0.471489
O	-0.0054489244	-2.0109143319	 1.1294644694	-0.258867
C	-0.9955019639	-1.9845013538	 0.2010728064	 0.462884
N	-1.788368691	-2.9450371874	 0.0350239793	-0.573297
O	-0.9740319478	-0.8028896279	-0.4897433338	-0.284559
H	 0.650048969	 2.0281731883	 0.3721624433	 0.127577
H	-0.3488020477	 1.813106602	-1.0720940194	 0.140773
H	-1.0853996644	 1.6873157238	 0.5373486338	 0.136715
H	 1.5508181339	-1.461294227	-0.9486276305	 0.136577
H	 2.3232167609	 0.0578102535	-0.2698105647	 0.123609
H	 1.8011568931	 0.5933249199	 2.2793574452	 0.125746
H	 0.4505346839	-0.2268989493	 3.0926058759	 0.137908
H	 1.9705544058	-1.0912170276	 2.7943747964	 0.143564
H	-2.4524356283	-2.7263784679	-0.7034257721	 0.230978
114.8837	187.9752	191.1069	201.1792	206.2142	310.8189	350.7295	442.3186	465.7166	501.1765	588.1496	646.4551	719.9004	744.6652	778.8282	798.4788	876.5126	919.9498	935.8293	953.6843	961.2595	1024.4457	1037.4399	1066.5448	1118.7574	1124.1349	1173.3506	1228.152	1292.1246	1336.3504	1397.0854	1417.5625	1431.3921	1473.7559	1475.5854	1487.0443	1495.424	1514.9352	1799.8955	3042.289	3044.7171	3110.5021	3112.6963	3123.0882	3125.6734	3131.4457	3225.953	3540.4105
CC12CC1(C)OC(=N)O2	C[C@@]12C[C@]1(C)O[C]([NH])O2	
InChI=1S/C6H9NO2/c1-5-3-6(5,2)9-4(7)8-5/h7H,3H2,1-2H3	InChI=1S/C6H9NO2/c1-5-3-6(5,2)9-4(7)8-5/h7H,3H2,1-2H3/t5-,6+
