15
gdb 70974	4.3496	1.24415	1.134	0.9685	71.78	-0.2278	0.0123	0.2401	1060.0146	0.11043	-420.510452	-420.502887	-420.501943	-420.542083	30.209	
O	-0.1094195393	 1.3645248666	-0.0334190292	-0.45348
C	 0.0555398701	-0.0003529724	-0.0473552073	 0.316303
C	 0.9794967815	-0.8405487281	-0.9295130189	-0.336971
C	 0.1052199006	-2.0396896487	-0.4456648762	 0.336718
O	 0.4346638373	-2.1401862826	 0.9833136318	-0.330102
C	-0.2846766849	-0.9203350107	 1.1466266791	 0.013542
C	-1.0667691048	-1.0188802469	-0.1211031636	-0.24465
C	 0.023102268	-3.2793485911	-1.1545868955	 0.074104
C	-0.0516805525	-4.3067352307	-1.7737812367	-0.315364
H	 0.5625467134	 1.7498436286	 0.5403801942	 0.292536
H	 0.8165789893	-0.6310587421	-1.9885895332	 0.121781
H	 2.0460453199	-0.9091916691	-0.6952410673	 0.104309
H	-0.5487427856	-0.5791545498	 2.1387686665	 0.115217
H	-2.1143938083	-0.9751323471	-0.3818283068	 0.116649
H	-0.1149029948	-5.2190249059	-2.3142717069	 0.189408
135.8075	144.7552	271.0272	327.5296	348.6397	430.6111	477.2273	487.1952	541.2456	550.3667	626.207	644.9842	686.6243	759.1993	783.9077	832.6831	871.0498	923.9198	949.6053	976.6285	1023.7763	1024.7007	1059.7361	1081.2385	1127.6484	1182.2544	1213.311	1295.4494	1301.4864	1313.6973	1430.4286	1493.5033	2244.1272	3055.841	3129.7342	3209.956	3226.0512	3500.4131	3790.6087
OC12CC3(OC1C23)C#C	O[C@@]12C[C@]3(O[C@@H]1[C@@H]23)C#C	
InChI=1S/C7H6O2/c1-2-6-3-7(8)4(6)5(7)9-6/h1,4-5,8H,3H2	InChI=1S/C7H6O2/c1-2-6-3-7(8)4(6)5(7)9-6/h1,4-5,8H,3H2/t4-,5-,6-,7-/m1/s1
