13
gdb 131011	5.21501	1.08958	0.90127	3.853	73.94	-0.2504	-0.0818	0.1686	1172.1232	0.09039	-452.781403	-452.774346	-452.773402	-452.813274	25.98	
O	-0.0884731411	-0.0560261729	-0.0001479132	-0.242105
C	-0.0272419072	 1.1350832876	 0.0090895237	 0.188299
N	 1.1757582761	 1.8842401202	 0.0018041301	-0.069145
C	 1.139424321	 3.2609813104	 0.0135632707	 0.068368
C	 2.2658818928	 4.00213499	 0.0070543055	-0.276754
C	 3.5602875463	 3.3343021977	-0.0130708962	 0.347879
O	 4.6469401035	 3.8905379623	-0.0203893845	-0.3579
C	 3.4343035238	 1.8573433294	-0.0236496192	-0.063402
N	 2.3374547038	 1.1772949477	-0.0169841148	-0.147141
H	-0.8998463582	 1.812601844	 0.0243103424	 0.108591
H	 0.1427575159	 3.6889498712	 0.0282772551	 0.153699
H	 2.223578228	 5.0837904041	 0.0164921851	 0.13571
H	 4.3527807152	 1.2763764382	-0.0386729246	 0.153901
82.1305	173.1385	233.6284	293.821	421.5027	427.4913	447.4232	467.4174	626.1153	647.7174	757.4996	807.6409	851.4894	854.7662	965.7151	978.1857	980.7005	1019.0207	1127.3051	1224.8334	1257.0481	1310.1552	1349.6771	1448.5569	1455.3679	1618.4044	1659.6454	1754.9349	1864.2697	2979.3224	3179.1159	3189.2401	3223.2799
O=CN1C=CC(=O)C=N1	O=Cn1ccc(=O)cn1	
InChI=1S/C5H4N2O2/c8-4-7-2-1-5(9)3-6-7/h1-4H	InChI=1S/C5H4N2O2/c8-4-7-2-1-5(9)3-6-7/h1-4H
