14
gdb 132752	2.31303	1.78896	1.01508	1.6666	67.47	-0.2605	-0.0273	0.2332	1068.5803	0.100162	-485.993212	-485.985616	-485.984671	-486.025611	27.874	
C	-0.0223931008	 1.5236155251	-0.0055500813	-0.500207
C	-0.0059029609	 0.0200517351	 0.0040735775	 0.116928
C	 0.0249042473	-0.702235673	-1.1832226439	 0.128232
F	 0.0402354944	-0.0701593434	-2.354009504	-0.050633
C	 0.0398393086	-2.0914753458	-1.1520478047	 0.119289
F	 0.0693415628	-2.7808539889	-2.2903333749	-0.056966
C	 0.0235294998	-2.7341825472	 0.0770361256	-0.100646
N	-0.0060501901	-2.0683413579	 1.2318911505	-0.271193
C	-0.0200047787	-0.7359859577	 1.1800730506	-0.054098
H	 0.8639482864	 1.9285208026	-0.5049478539	 0.145856
H	-0.8946549017	 1.9089934685	-0.5436262451	 0.145834
H	-0.0490671098	 1.9137908873	 1.0142674882	 0.134648
H	 0.0351067791	-3.8202168465	 0.1090663949	 0.129799
H	-0.0441772864	-0.2184763781	 2.1365478404	 0.113158
91.7003	147.688	242.3135	262.2401	280.3433	307.9216	480.6427	502.3908	538.5076	596.0755	601.5656	680.2954	759.3132	844.545	914.1136	957.9823	986.8336	1063.6187	1065.273	1187.8694	1262.4774	1303.4813	1309.7022	1335.3324	1418.0635	1457.4484	1480.2456	1486.836	1543.5613	1616.4031	1651.5712	3040.8366	3096.307	3127.8692	3153.4672	3171.3895
CC1=C(F)C(F)=CN=C1	Cc1c(F)c(F)cnc1	
InChI=1S/C6H5F2N/c1-4-2-9-3-5(7)6(4)8/h2-3H,1H3	InChI=1S/C6H5F2N/c1-4-2-9-3-5(7)6(4)8/h2-3H,1H3
