15
gdb 5690	4.76632	2.06828	1.47893	1.3702	67.24	-0.1808	0.0239	0.2047	812.8873	0.122659	-362.674443	-362.668387	-362.667443	-362.704517	23.816	
C	 0.035822031	 1.4405478645	 0.0671318671	-0.162554
C	 1.532189923	 1.8827817832	-0.0835177957	-0.345449
C	 2.1662283219	 0.5445560217	 0.0805664377	 0.290153
C	 1.2873028405	-0.4742593637	-0.0574251642	 0.25089
N	-0.0239857406	-0.0122492167	-0.2953158359	-0.404504
C	 2.0524568374	-1.681625208	-0.0684683238	-0.337569
C	 3.3502963773	-1.2674708692	 0.0564774886	-0.00913
O	 3.446701366	 0.0934395209	 0.1275514951	-0.195962
H	-0.2711138224	 1.5887800789	 1.111260537	 0.103994
H	-0.6358864586	 2.0184975998	-0.5720090957	 0.11143
H	 1.7237195233	 2.3176537512	-1.0748301947	 0.116878
H	 1.80443077	 2.6363433771	 0.662053506	 0.114937
H	-0.7426276566	-0.498744075	 0.2278669936	 0.228495
H	 1.7178190985	-2.7039530487	-0.1478156257	 0.108125
H	 4.2830916495	-1.8019555561	 0.1312027606	 0.130267
158.5356	194.2343	305.4927	426.4352	575.4077	605.8618	661.4997	703.556	719.9673	726.0859	801.3795	825.1589	862.6175	921.9465	938.3178	1013.8189	1054.1295	1079.4729	1099.4783	1164.687	1181.0846	1235.7199	1266.017	1299.985	1327.0131	1356.2843	1406.13	1490.6674	1504.0835	1510.8994	1516.8472	1668.6905	3000.0692	3008.5662	3066.3051	3094.4405	3253.9826	3281.4886	3534.8572
C1CC2=C(N1)C=CO2	C1Cc2c(N1)cco2	
InChI=1S/C6H7NO/c1-3-7-5-2-4-8-6(1)5/h2,4,7H,1,3H2	InChI=1S/C6H7NO/c1-3-7-5-2-4-8-6(1)5/h2,4,7H,1,3H2
