19
gdb 41479	3.11991	1.67804	1.28353	1.3682	73.96	-0.2358	0.0517	0.2876	1012.7718	0.161216	-422.997594	-422.990445	-422.989501	-423.029176	28.679	
C	 0.2290068607	 1.5577223126	 0.3399671815	-0.108452
O	 1.5444512555	 1.457276791	-0.2711026936	-0.338372
C	 1.3273682835	 0.0846182426	-0.6199197361	 0.429873
C	 1.868877502	-0.4314619192	-1.9453825469	-0.326568
C	 2.6240885608	-1.7339811549	-1.5701835912	-0.208253
C	 1.9323357608	-2.2509030794	-0.2860424963	-0.243911
C	 1.604200709	-0.9646693193	 0.4835158798	 0.068254
O	 0.2395035068	-0.8626553084	 0.9819020978	-0.312005
C	-0.1025806132	 0.0989937292	-0.027510309	-0.009228
H	 0.2733961517	 1.7558194059	 1.415951693	 0.113217
H	-0.3768256256	 2.3226639638	-0.1604554022	 0.105434
H	 1.0551967385	-0.6314325427	-2.6504754439	 0.108405
H	 2.5173406776	 0.3190410559	-2.4053777656	 0.120641
H	 2.6246062044	-2.4749551337	-2.3735859003	 0.102851
H	 3.6718373917	-1.4974372522	-1.3525747058	 0.1092
H	 0.99218765	-2.756683933	-0.5311374977	 0.112575
H	 2.5506300686	-2.9534537812	 0.278423499	 0.103996
H	 2.3390750106	-0.7024802626	 1.2512613955	 0.086404
H	-1.0429230434	-0.1222862943	-0.536579908	 0.085938
102.4118	166.9344	225.9234	335.8094	366.6875	465.4805	480.6859	542.7252	671.8523	741.2064	805.0617	834.9083	846.6196	878.4752	902.1758	925.9113	972.6805	991.7428	1001.2203	1005.1874	1045.8348	1082.2931	1101.7064	1110.8267	1139.7359	1169.767	1183.4187	1200.7764	1225.3872	1259.6596	1281.5928	1307.6474	1317.1601	1333.0771	1340.6023	1352.5831	1369.5883	1477.186	1487.9987	1502.1879	1503.2438	3023.7925	3043.2023	3049.5371	3051.9288	3060.8194	3082.3789	3091.9411	3094.0468	3102.3294	3109.5017
C1OC23CCCC2OC13	C1O[C@@]23CCC[C@@H]2O[C@@H]13	
InChI=1S/C7H10O2/c1-2-5-7(3-1)6(9-5)4-8-7/h5-6H,1-4H2	InChI=1S/C7H10O2/c1-2-5-7(3-1)6(9-5)4-8-7/h5-6H,1-4H2/t5-,6-,7-/m0/s1
