23
gdb 59650	2.65104	1.11795	0.97827	2.505	81.26	-0.2546	0.0686	0.3232	1340.5346	0.205845	-425.442163	-425.432386	-425.431442	-425.476883	37.555	
C	 0.1345050491	 1.3966416544	-0.2191740233	-0.406326
C	-0.0750968082	-0.112212589	-0.0819576213	 0.124271
O	 0.7499248932	-0.6350474048	 0.9597417097	-0.433785
C	-1.5496204804	-0.4991233936	 0.1256940462	 0.029297
C	-2.4569731943	-0.0888155169	-1.0732839196	-0.21738
C	-3.353857179	-1.311019519	-1.3434539997	-0.241782
C	-2.4427790316	-2.4975691514	-1.0003016009	 0.131265
O	-1.425303051	-2.6759727186	-1.9875527182	-0.437852
C	-1.7440911858	-2.0357572097	 0.2806481672	-0.233822
H	 1.1983289203	 1.6178981885	-0.3405223311	 0.121705
H	-0.4053973105	 1.8084918847	-1.0768261845	 0.118032
H	-0.2219390869	 1.917937733	 0.6791795146	 0.099836
H	 0.2787692479	-0.6186940332	-0.987812285	 0.103921
H	 0.4949863831	-0.1957355658	 1.7790606734	 0.271126
H	-1.8926268261	 0.007798855	 1.0383260553	 0.048511
H	-3.030397043	 0.8208973955	-0.8782918336	 0.092419
H	-1.8374358022	 0.1029005625	-1.9553206391	 0.105135
H	-4.2210796467	-1.3170210117	-0.6716069712	 0.09565
H	-3.7384470522	-1.3505969504	-2.3691018725	 0.082501
H	-3.001999237	-3.4333901592	-0.8581210561	 0.054569
H	-1.857108681	-2.8329170478	-2.8335289212	 0.278428
H	-0.7966744983	-2.5554750397	 0.4333576236	 0.127072
H	-2.3860428395	-2.259714873	 1.1385779772	 0.087212
45.6739	90.2416	183.2606	211.4872	235.5753	301.4531	319.8936	329.525	358.6669	388.4395	402.2449	455.5057	483.3915	634.2633	758.6074	777.3928	844.1461	864.5819	896.7575	918.5425	955.8962	963.5479	988.8004	1013.8971	1040.5066	1062.6626	1077.6016	1108.9701	1134.7265	1189.0499	1196.8465	1210.5133	1238.6683	1270.1626	1298.852	1317.2946	1325.5112	1338.6963	1355.6675	1365.5834	1389.9543	1400.8513	1419.7559	1425.9171	1479.461	1486.0059	1491.9104	1495.1407	1499.8212	2994.5325	2996.9372	3020.6377	3030.0047	3048.3492	3051.5116	3059.5203	3070.4239	3094.4069	3099.5631	3119.8454	3123.9115	3791.816	3812.172
CC(O)C1CCC(O)C1	C[C@@H](O)[C@H]1CC[C@@H](O)C1	
InChI=1S/C7H14O2/c1-5(8)6-2-3-7(9)4-6/h5-9H,2-4H2,1H3	InChI=1S/C7H14O2/c1-5(8)6-2-3-7(9)4-6/h5-9H,2-4H2,1H3/t5-,6+,7-/m1/s1
