15
gdb 124249	2.81876	1.5062	0.98771	1.0167	71.08	-0.2273	-0.0299	0.1974	1124.3069	0.111703	-453.978931	-453.970245	-453.9693	-454.012895	30.796	
C	-0.0270704772	 1.4994882269	 0.0716697449	-0.491018
C	-0.0246188471	-0.0160951091	 0.0247881343	 0.296223
O	-0.0351026798	-0.6822903975	 1.0597290525	-0.376745
C	-0.0077637596	-0.6652532168	-1.2677872667	-0.018117
C	-0.0002316665	-2.0497978295	-1.4350953675	 0.485453
N	-0.029393988	-3.0082133953	-0.5079963459	-0.589427
O	 0.0295305338	-2.3702886652	-2.7230554037	-0.22611
N	 0.0417386767	-1.158455413	-3.4990027059	-0.159968
C	 0.0187142891	-0.20240112	-2.6133238576	-0.054895
H	 0.8600354893	 1.9026459387	-0.4291235259	 0.140173
H	-0.9042229552	 1.8999316573	-0.4484643152	 0.140441
H	-0.0389383013	 1.8282856305	 1.1111811771	 0.143833
H	-0.0068411398	-2.6820975669	 0.4505014609	 0.296417
H	 0.0529619291	-3.9781074764	-0.7555643487	 0.27749
H	 0.0228968067	 0.8193597162	-2.9694053225	 0.136251
71.5353	87.1503	116.2513	187.2562	225.6331	285.9073	315.2947	431.6394	496.4116	577.7642	621.2661	636.7297	642.0397	743.0071	770.3152	834.9804	923.8018	935.7019	955.7641	1044.4806	1050.3697	1104.3994	1209.1073	1312.3603	1367.2413	1389.4958	1464.5928	1468.4404	1477.2004	1516.6875	1602.2973	1663.1945	1722.8783	3037.4615	3098.7031	3153.7366	3232.255	3533.2951	3725.4418
CC(=O)C1=C(N)ON=C1	CC(=O)c1c(N)onc1	
InChI=1S/C5H6N2O2/c1-3(8)4-2-7-9-5(4)6/h2H,6H2,1H3	InChI=1S/C5H6N2O2/c1-3(8)4-2-7-9-5(4)6/h2H,6H2,1H3
