15
gdb 15325	3.17268	1.30096	0.98289	1.437	77.06	-0.2358	0.025	0.2608	1183.5669	0.116536	-325.434897	-325.426093	-325.425148	-325.470222	30.588	
C	 0.1503175493	 1.5208067537	 0.0159239799	-0.500989
C	 0.0867552541	 0.0675471925	 0.0144753867	 0.127575
C	 0.0242220175	-1.1347081372	 0.0268720574	 0.123735
C	-0.0297034405	-2.5676868183	 0.0013890377	-0.260718
N	-0.4924659888	-3.2708420487	 1.2145199895	-0.31666
C	-1.3319319622	-3.3348722364	 0.0022361449	-0.246286
C	-2.6099768056	-2.6834682812	 0.0332970953	 0.389422
C	-3.6911503927	-2.1590817346	 0.0208256172	-0.429548
H	 1.1858873849	 1.8746946951	-0.0360617323	 0.148499
H	-0.3896313841	 1.9438601081	-0.8383968573	 0.150058
H	-0.2961608248	 1.9320358034	 0.9278401183	 0.154246
H	 0.7664293315	-3.043779444	-0.5690526353	 0.110411
H	 0.018309528	-4.1447426227	 1.3174349716	 0.23921
H	-1.313784561	-4.2620367829	-0.5679177584	 0.113643
H	-4.6421570556	-1.6870098467	 0.0229092747	 0.197402
13.4732	67.4257	125.6705	177.1648	217.6324	304.6939	327.4852	431.1513	500.8065	561.4452	604.2915	623.8294	657.377	720.2632	816.3386	870.8884	917.8523	972.6404	1051.3981	1052.7328	1068.1622	1145.8517	1191.97	1203.2869	1259.8353	1401.9437	1413.4356	1439.4119	1476.274	1477.3573	2244.4029	2375.5702	3027.1169	3087.6057	3090.3516	3110.7218	3121.4572	3498.4273	3505.7488
CC#CC1NC1C#C	CC#C[C@H]1N[C@H]1C#C	
InChI=1S/C7H7N/c1-3-5-7-6(4-2)8-7/h2,6-8H,1H3	InChI=1S/C7H7N/c1-3-5-7-6(4-2)8-7/h2,6-8H,1H3/t6-,7+/m0/s1
