25
gdb 103962	2.17912	1.46827	1.10837	0.1664	92.34	-0.2454	0.0806	0.326	1268.6208	0.228288	-352.335332	-352.325374	-352.32443	-352.369665	38.872	
C	-1.4517147547	-0.2765685889	-0.0280636425	-0.386679
C	 0.0137168206	 0.1744977522	-0.0585380882	-0.237599
C	 0.8482143883	-0.4524377427	-1.1871051313	 0.348387
C	 0.39965824	 0.0754661491	-2.5560371041	-0.438296
C	 2.4137597655	-0.3636486275	-1.0710238218	-0.308812
C	 2.5098170935	-1.8831734023	-1.2731500019	-0.071727
C	 1.8154629492	-2.6426979843	-0.1781610252	-0.004632
C	 1.8800010291	-2.3348031138	 1.3054865253	-0.423088
C	 0.9761807239	-1.9927485639	-1.2519280045	-0.099025
H	-1.9976988046	 0.0311169772	-0.9252018952	 0.115043
H	-1.5239400454	-1.366969164	 0.0480058315	 0.119389
H	-1.9730591674	 0.1513904142	 0.8339452156	 0.109366
H	 0.0589661894	 1.2680048282	-0.1577049438	 0.086631
H	 0.4682879036	-0.057574099	 0.9084780905	 0.092044
H	 0.4973474785	 1.1662477766	-2.6037428843	 0.107002
H	 1.0078175488	-0.3547063487	-3.3583398569	 0.111582
H	-0.6449306314	-0.1781452227	-2.7659852529	 0.111435
H	 2.8608095511	 0.2135843946	-1.8837872137	 0.096244
H	 2.8111856352	 0.0200574758	-0.1253715141	 0.089142
H	 3.2100638434	-2.3650581745	-1.9456595331	 0.078171
H	 1.86496368	-3.7156402393	-0.3650825358	 0.082572
H	 2.06305836	-1.2795331642	 1.5158198972	 0.123523
H	 0.9530943817	-2.6210665753	 1.8147075993	 0.115862
H	 2.6977828757	-2.9004492853	 1.7662647283	 0.111252
H	 0.3458222062	-2.6054584616	-1.8894087985	 0.072214
61.8555	135.079	152.151	205.8819	238.8011	250.4052	272.4373	294.7688	354.9651	375.3392	415.9663	482.2407	580.382	629.2852	713.9044	772.5127	781.3972	823.3279	870.4433	900.9727	931.6297	947.7559	974.4207	998.9171	1006.3993	1010.8438	1043.2836	1051.0931	1069.5285	1092.0037	1120.6733	1150.1808	1187.7781	1209.7322	1226.7336	1246.1406	1267.339	1289.2189	1325.2957	1359.1751	1364.6907	1403.0894	1408.8472	1415.1402	1446.7015	1477.1902	1492.1108	1493.7397	1494.8131	1500.1328	1505.4041	1509.8595	1511.6859	3014.1784	3024.3622	3032.3155	3034.7518	3044.4424	3078.4016	3085.6607	3090.9469	3094.5776	3099.992	3100.6425	3102.4088	3108.7376	3130.6908	3148.3393	3172.8301
CCC1(C)CC2C(C)C12	CC[C@@]1(C)C[C@H]2[C@@H](C)[C@@H]12	
InChI=1S/C9H16/c1-4-9(3)5-7-6(2)8(7)9/h6-8H,4-5H2,1-3H3	InChI=1S/C9H16/c1-4-9(3)5-7-6(2)8(7)9/h6-8H,4-5H2,1-3H3/t6-,7+,8-,9+/m1/s1
