18
gdb 106198	3.44924	1.5029	1.42704	2.5965	73.76	-0.2203	0.0758	0.2961	986.1323	0.148635	-401.873135	-401.865949	-401.865005	-401.904802	28.559	
C	 0.1055684659	 1.3395548608	-0.1598438591	-0.260035
O	-0.1670721166	-0.0203408176	 0.1477752308	-0.284948
C	 0.5776969706	-0.5037278342	 1.1881006115	 0.435996
C	 2.0569548231	-0.8822353301	 1.1409643945	-0.159673
C	 2.7709572208	-0.4542002988	 2.4063555733	-0.243997
C	 1.6091040774	-0.6011307592	 3.3661839452	-0.042451
C	 0.313263483	-0.3110506154	 2.7006076504	-0.14485
N	 0.7056525202	-1.7322562141	 2.9757202952	-0.151783
C	 0.9890988832	-1.9040311105	 1.4971488939	-0.12403
H	 1.1559464548	 1.4797481872	-0.4485416785	 0.113637
H	-0.5403338911	 1.6109098518	-0.9972403849	 0.131258
H	-0.1160717492	 1.9984760312	 0.6910805327	 0.115593
H	 2.5393476793	-0.9533847862	 0.1742817844	 0.096507
H	 3.6053863486	-1.1141628631	 2.6665941687	 0.110978
H	 3.1394857159	 0.5767556109	 2.3658978575	 0.10545
H	 1.7329096968	-0.4726387105	 4.4361500409	 0.097033
H	-0.5640183836	 0.1344158171	 3.1557344281	 0.099311
H	 0.8220843607	-2.8558988493	 1.0126433255	 0.106005
92.5128	162.9214	183.5256	357.1011	378.7018	412.918	547.1259	609.9423	716.0335	726.9872	755.5713	805.0484	818.5442	853.9075	901.1099	945.2787	956.9162	976.949	993.3674	1014.2153	1029.337	1053.195	1060.2429	1076.195	1141.8808	1165.6296	1179.3079	1196.0992	1206.075	1228.7421	1249.1606	1285.7169	1306.1357	1367.3091	1432.2258	1487.3034	1488.4188	1498.7887	1506.254	2996.9871	3042.4999	3053.2038	3085.2245	3127.8833	3171.1817	3181.8773	3203.5089	3214.0239
COC12C3CC4C1N4C23	CO[C@@]12[C@H]3C[C@H]4[C@@H]1N4[C@@H]23	
InChI=1S/C7H9NO/c1-9-7-3-2-4-6(7)8(4)5(3)7/h3-6H,2H2,1H3	InChI=1S/C7H9NO/c1-9-7-3-2-4-6(7)8(4)5(3)7/h3-6H,2H2,1H3/t3-,4-,5+,6-,7+,8?/m0/s1
