17
gdb 36224	3.60817	1.07478	0.95491	3.1105	78.17	-0.2454	-0.0041	0.2413	1243.3441	0.13773	-380.868639	-380.860861	-380.859917	-380.901603	29.41	
N	-0.1039922795	-1.0743557393	 0.5631529294	-0.313022
C	-0.0572602724	 0.0304616972	 0.2279005486	 0.262518
C	 0.0252672681	 1.4367914399	-0.1799765598	-0.454466
C	 1.4354747726	 1.9656784844	-0.1443832809	 0.383161
C	 2.0812352987	 2.5813315622	-1.138233688	-0.188836
C	 3.4738197323	 3.0232318359	-0.7387380058	-0.254357
C	 3.5512857513	 2.6244010206	 0.7323257059	-0.032499
N	 2.5665113064	 3.3166316024	 1.5909674359	-0.336884
C	 2.2804323114	 1.9404224851	 1.0903663573	-0.159751
H	-0.3979054756	 1.5367170801	-1.1847252061	 0.156937
H	-0.6161824572	 2.0176738207	 0.4968549913	 0.166479
H	 1.6632557542	 2.7854253712	-2.1183165872	 0.098044
H	 4.2436605395	 2.5164759179	-1.3349188581	 0.113281
H	 3.6176204047	 4.1013814406	-0.8763543959	 0.124754
H	 4.5008682153	 2.3288562285	 1.1642359838	 0.09446
H	 2.8859641539	 3.248000203	 2.5562918933	 0.231094
H	 2.2184927263	 1.1200452995	 1.7972650264	 0.109089
55.2069	101.231	202.9038	285.3954	326.5403	388.068	394.3236	464.0858	593.3482	667.2217	752.9085	816.4131	818.0299	845.0131	863.4576	914.1366	926.1409	937.631	954.1667	990.2256	1008.7268	1076.7904	1134.2798	1166.8221	1182.3377	1193.6134	1211.7017	1246.1229	1283.6792	1323.1058	1333.1285	1390.1899	1415.3905	1453.3343	1465.2777	1705.9615	2361.436	3022.3592	3026.0168	3063.8281	3082.5718	3169.5778	3178.7753	3190.1487	3475.0687
N#CCC1=CCC2NC12	N#CCC1=CC[C@H]2N[C@@H]12	
InChI=1S/C7H8N2/c8-4-3-5-1-2-6-7(5)9-6/h1,6-7,9H,2-3H2	InChI=1S/C7H8N2/c8-4-3-5-1-2-6-7(5)9-6/h1,6-7,9H,2-3H2/t6-,7+/m1/s1
