20
gdb 68227	3.16226	1.67286	1.43668	1.1779	77.65	-0.2154	0.0857	0.3011	986.3877	0.172738	-403.115406	-403.108055	-403.107111	-403.146587	30.589	
C	 0.0061360068	 1.5709981183	 0.024017009	-0.470928
C	-0.0019395536	 0.0632007126	-0.0544387438	 0.393496
C	 0.7322902425	-0.6569688365	-1.2134793561	-0.285586
C	 1.1132930607	-1.6302902472	-0.0791159139	 0.059711
O	 0.9299212968	-0.56730297	 0.8921993273	-0.323996
C	 0.0002666465	-2.646351757	 0.0831910371	-0.02027
C	-0.7383298244	-2.7106366841	 1.3678124606	-0.245293
N	-1.3439388608	-2.0531796555	 0.2026201588	-0.10857
C	-1.3772182453	-0.5748881773	 0.1884677588	-0.193939
H	 1.0221550146	 1.9538252187	-0.1047984165	 0.12433
H	-0.6298903686	 1.9995687915	-0.7576567541	 0.122493
H	-0.3695428841	 1.9110155602	 0.994880933	 0.126551
H	 0.1418116189	-1.0414422646	-2.0479427848	 0.106425
H	 1.5836286566	-0.0763423243	-1.5733335758	 0.104234
H	 2.1158541102	-2.0648038988	-0.0442322007	 0.078777
H	 0.0636297467	-3.5196122152	-0.5649784119	 0.08805
H	-1.2234285233	-3.6347357346	 1.671642016	 0.107496
H	-0.3682334098	-2.0817786938	 2.1719360953	 0.128026
H	-1.7879241435	-0.2097608739	 1.1370501824	 0.105618
H	-2.0651515568	-0.2651774185	-0.6088263206	 0.103375
177.4976	203.5876	275.8324	282.7342	375.7212	413.2716	433.7523	478.484	542.8737	645.4418	683.6127	758.6389	799.8498	835.3325	876.1758	901.9793	926.2995	935.5255	958.4968	981.0118	1024.2791	1030.3934	1059.5745	1094.6887	1112.5915	1130.8158	1141.7632	1171.4271	1225.2133	1237.9638	1251.5974	1261.5664	1294.2596	1303.5072	1344.5817	1370.1279	1397.3744	1407.8069	1474.8108	1481.0962	1490.6446	1494.74	1497.0035	3017.5021	3035.823	3062.2548	3067.5459	3076.7856	3105.5466	3106.5617	3114.4221	3116.672	3133.8494	3202.514
CC12CC(O1)C1CN1C2	C[C@@]12C[C@@H](O1)[C@H]1CN1C2	
InChI=1S/C7H11NO/c1-7-2-6(9-7)5-3-8(5)4-7/h5-6H,2-4H2,1H3	InChI=1S/C7H11NO/c1-7-2-6(9-7)5-3-8(5)4-7/h5-6H,2-4H2,1H3/t5-,6-,7+,8?/m1/s1
