21
gdb 117288	2.92959	0.8106	0.71752	1.3925	80.89	-0.2474	-0.0404	0.207	1684.7501	0.178548	-424.278174	-424.267216	-424.266272	-424.31603	37.83	
C	 0.2492020858	 0.9514479982	-0.7236187942	-0.387807
C	 0.0684989771	-0.3484532977	 0.0637287364	-0.163238
C	-1.3671074555	-0.8691350533	 0.016118017	-0.28473
C	-1.5955152386	-2.1422410651	 0.8058736192	 0.363072
O	-0.7551877101	-2.6529310453	 1.5098974094	-0.301395
C	-2.9669195765	-2.8072650268	 0.6093379442	-0.379685
C	-2.8152483388	-3.8192086646	-0.536981962	 0.380173
C	-2.3839085929	-5.2089796052	-0.1267700732	-0.477855
O	-2.9867567928	-3.4847606128	-1.6852312592	-0.294541
H	 1.2859849326	 1.2981579084	-0.6786995727	 0.116475
H	-0.0120056717	 0.8181048784	-1.7793113355	 0.117667
H	-0.3859117862	 1.7510131562	-0.3256409239	 0.11318
H	 0.7403022058	-1.1210343551	-0.3265514586	 0.111099
H	 0.3603374145	-0.203345462	 1.1092120442	 0.113703
H	-2.0727654124	-0.1164485217	 0.3998517727	 0.12285
H	-1.6998102075	-1.0625747313	-1.0140630525	 0.144044
H	-3.2413055991	-3.3081299964	 1.5398906843	 0.127931
H	-3.7218541337	-2.0733011447	 0.3217353221	 0.128162
H	-2.1351701827	-5.8048371695	-1.0054688054	 0.142328
H	-1.5279954234	-5.1414294464	 0.5535725982	 0.164784
H	-3.1936364839	-5.6958377933	 0.4296788595	 0.143782
34.0919	51.4373	74.4832	95.4606	154.8639	162.2211	176.7362	247.3116	313.2863	355.4217	414.7438	493.2949	500.0199	563.8701	651.1625	740.279	791.7072	829.5429	882.1285	902.4396	913.9392	981.6256	1032.2955	1052.4159	1088.4644	1114.4345	1135.9485	1162.3289	1231.5968	1247.7901	1261.9173	1318.7481	1331.1975	1382.7684	1397.4444	1415.4479	1450.3785	1461.2095	1471.5792	1473.1479	1487.6231	1500.3731	1508.1339	1791.801	1819.7806	3004.4822	3029.5557	3035.2391	3035.7496	3047.3896	3073.8569	3075.4171	3098.7963	3100.5102	3105.3335	3143.7918	3156.3061
CCCC(=O)CC(C)=O	CCCC(=O)CC(=O)C	
InChI=1S/C7H12O2/c1-3-4-7(9)5-6(2)8/h3-5H2,1-2H3	InChI=1S/C7H12O2/c1-3-4-7(9)5-6(2)8/h3-5H2,1-2H3
