19
gdb 61836	2.36062	1.06029	0.80979	2.6035	73.47	-0.2766	0.004	0.2807	1429.3594	0.155723	-460.169736	-460.159623	-460.158679	-460.206624	35.002	
C	 0.3169413556	 1.4842595904	 0.1367660347	-0.397602
C	-0.1867734211	 0.0508050687	 0.0260026259	 0.0731
O	-1.6298005295	 0.0574174917	 0.0427023046	-0.188955
C	-2.2659853015	-0.5623584156	 1.052989682	 0.170799
O	-3.4558352596	-0.6103676048	 1.1367287774	-0.274249
C	 0.2321545797	-0.5952711541	-1.2778528682	 0.054822
O	 1.6165562804	-0.9221411172	-1.3992485304	-0.261859
C	 0.6622214804	-1.9954008521	-1.4244787844	 0.077874
C	 0.7270794451	-3.0160892931	-0.3181765296	-0.427803
H	 1.408177135	 1.4943903115	 0.0698313055	 0.144704
H	-0.0900269536	 2.095884819	-0.6737240593	 0.136241
H	 0.0160143888	 1.9283088037	 1.0894180023	 0.126433
H	 0.1821638044	-0.5392247794	 0.8721927774	 0.090253
H	-1.5691191984	-1.0128347613	 1.7875270664	 0.076247
H	-0.1976703197	-0.1030617601	-2.1529298741	 0.103429
H	 0.5311627074	-2.4254799102	-2.4194245899	 0.098889
H	 0.8869934647	-2.5570574661	 0.6596660393	 0.1257
H	-0.1978477494	-3.6017263787	-0.2864252923	 0.133908
H	 1.5550999411	-3.7090432624	-0.4986333373	 0.138066
26.4166	37.5701	135.3978	156.8919	187.5007	202.905	222.7612	269.3815	360.9191	380.5867	422.3343	467.1044	563.4642	665.9515	784.5495	827.4025	913.0557	955.708	991.4681	1006.0836	1045.2092	1065.8801	1100.4894	1135.5725	1145.1634	1172.3463	1192.9571	1216.2512	1297.6162	1313.1902	1350.1115	1404.3821	1406.4834	1420.4668	1434.9135	1469.5827	1487.2329	1490.1362	1496.0676	1516.021	1865.8076	2939.0225	3041.108	3046.7298	3050.7987	3085.0236	3096.9539	3105.2242	3124.0147	3130.3673	3131.929
CC(OC=O)C1OC1C	C[C@@H](OC=O)[C@H]1O[C@H]1C	
InChI=1S/C6H10O3/c1-4(8-3-7)6-5(2)9-6/h3-6H,1-2H3	InChI=1S/C6H10O3/c1-4(8-3-7)6-5(2)9-6/h3-6H,1-2H3/t4-,5+,6-/m1/s1
