19
gdb 101049	2.22253	1.18113	1.0373	1.1756	77.4	-0.2611	0.0217	0.2827	1269.8842	0.155511	-422.963405	-422.953214	-422.95227	-422.998546	37.03	
C	-0.3334889754	 1.6425237285	-0.2376942367	-0.410928
C	-0.0274677898	 0.1485398175	-0.0771770095	-0.051191
C	-1.2902364767	-0.6675634012	 0.2135062016	-0.088701
O	-1.8335798712	-0.1975813322	 1.4393202831	-0.424627
C	 0.6998431366	-0.419838517	-1.2906974801	 0.198301
C	 2.177083786	-0.4733362459	-1.3022884755	-0.217996
O	 1.4168315565	-1.6490981405	-1.0479261468	-0.275484
C	 0.0032703159	-0.3661025168	-2.557511712	 0.322419
C	-0.5928269507	-0.3067889713	-3.5999830727	-0.447671
H	 0.5857875538	 2.2257894586	-0.3506135016	 0.10963
H	-0.9564413202	 1.8201073671	-1.1204009866	 0.124642
H	-0.8715825862	 2.0043952695	 0.640298435	 0.139542
H	 0.6447563398	 0.0075825266	 0.7772734565	 0.092665
H	-2.0060376819	-0.5476760228	-0.6143648925	 0.095623
H	-1.0232017707	-1.7326054258	 0.277084672	 0.104043
H	-2.6420106059	-0.686745731	 1.6155648879	 0.288278
H	 2.7044064582	-0.4517993635	-2.254013695	 0.123441
H	 2.7216054573	-0.0683504275	-0.4498420802	 0.117701
H	-1.1126742954	-0.2625179922	-4.5252237468	 0.200312
61.904	100.2668	138.3024	165.8472	218.9168	234.0598	235.1578	264.0273	293.9761	386.1717	428.3111	473.989	565.557	590.2423	622.1209	663.5345	713.5096	851.7564	860.2389	921.0101	933.7654	968.0333	1019.999	1079.949	1113.1645	1137.6426	1161.8917	1174.0078	1231.4758	1263.6347	1273.072	1302.6864	1356.3004	1387.3433	1402.7355	1458.7892	1494.7426	1504.7884	1520.6662	1524.4001	2234.768	2980.6356	3016.6936	3041.3943	3047.7907	3083.3329	3106.5789	3137.7315	3177.0249	3500.0924	3837.2188
CC(CO)C1(CO1)C#C	C[C@@H](CO)[C@]1(CO1)C#C	
InChI=1S/C7H10O2/c1-3-7(5-9-7)6(2)4-8/h1,6,8H,4-5H2,2H3	InChI=1S/C7H10O2/c1-3-7(5-9-7)6(2)4-8/h1,6,8H,4-5H2,2H3/t6-,7+/m0/s1
