15
gdb 14118	4.12997	1.77143	1.39409	2.3369	61.76	-0.2506	0.0076	0.2582	877.7635	0.118777	-399.798035	-399.790674	-399.789729	-399.82969	27.655	
N	 0.4329494137	 0.3214356352	-1.0359836078	-0.539297
C	-0.030855099	 0.1921186873	 0.2365726637	 0.285525
O	 0.55224412	 0.5812377536	 1.2312251873	-0.364352
C	-1.3389524191	-0.5237934527	 0.3365614727	 0.35295
C	-2.2957981298	-0.5663743483	 1.5315829649	-0.29478
C	-2.7094540443	-2.017150095	 1.0964177481	-0.241991
C	-1.7203595265	-1.8992699795	-0.0695447482	-0.035471
O	-2.1054006113	-0.7687927169	-0.8565683131	-0.297504
H	 1.2783545312	 0.8461674403	-1.1865534081	 0.263131
H	-0.1784844301	 0.1173887311	-1.8087200267	 0.271865
H	-1.7576536823	-0.5437562229	 2.4794523845	 0.138774
H	-3.0755006342	 0.1976879144	 1.5265029338	 0.113498
H	-2.4201680667	-2.7742947472	 1.8279457731	 0.116864
H	-3.7493497749	-2.1706762068	 0.8001966565	 0.117286
H	-1.1343615567	-2.6664206824	-0.5630667106	 0.113502
79.7305	170.9441	193.9661	303.3659	328.6142	379.0584	489.7376	507.0537	603.4043	651.7011	736.4581	757.6002	772.2618	881.8281	906.8336	930.9691	942.2218	1008.8669	1054.6571	1093.9285	1129.4356	1167.4045	1209.2558	1220.5197	1247.9235	1273.26	1346.9922	1442.6466	1464.4525	1487.1965	1598.8126	1794.2246	3073.9663	3085.0535	3129.019	3152.2597	3186.6856	3597.9734	3736.8666
NC(=O)C12CCC1O2	NC(=O)[C@]12CC[C@H]1O2	
InChI=1S/C5H7NO2/c6-4(7)5-2-1-3(5)8-5/h3H,1-2H2,(H2,6,7)	InChI=1S/C5H7NO2/c6-4(7)5-2-1-3(5)8-5/h3H,1-2H2,(H2,6,7)/t3-,5+/m1/s1
