14
gdb 10790	4.8928	1.62195	1.28712	3.8376	59.89	-0.2432	-0.0005	0.2428	892.3801	0.108862	-415.895981	-415.888909	-415.887965	-415.927636	25.802	
N	-0.1822485895	 1.3461913437	-0.0369064579	-0.528242
C	 0.012838985	 0.0942260114	 0.114191399	 0.365574
C	-1.1356754746	-0.8551251644	-0.1544400854	-0.139294
O	-1.1696804606	-1.9857903616	 0.7330556251	-0.214884
C	-0.0262913202	-2.6681347627	 0.9534234135	 0.440619
O	-0.0353404032	-3.7197658856	 1.5272127628	-0.319317
C	 1.2467777235	-2.0078171932	 0.4301703769	-0.321282
N	 1.1550932398	-0.5610471028	 0.4950290112	-0.330747
H	 0.6748048427	 1.8832282139	 0.1124426452	 0.202933
H	-2.0759736094	-0.325650406	-0.0179615604	 0.165576
H	-1.0850526541	-1.2155316595	-1.1906475123	 0.13504
H	 2.0685450869	-2.3594009924	 1.0546524892	 0.156492
H	 1.4290852444	-2.3812509994	-0.5915706104	 0.138338
H	 2.0066828593	-0.0307246413	 0.5900374335	 0.249193
71.7623	142.433	192.9295	375.2025	411.4089	422.8227	440.5063	542.6574	567.6121	627.8724	787.2819	794.4664	850.2266	898.1938	1003.7909	1041.93	1044.8543	1102.123	1163.543	1218.4992	1252.8398	1266.569	1333.0142	1392.4019	1426.4829	1458.3715	1487.8744	1503.0181	1741.066	1864.277	2966.5596	3024.3796	3127.8548	3166.7211	3444.8296	3628.6757
N=C1COC(=O)CN1	[NH][C]1COC(=O)CN1	
InChI=1S/C4H6N2O2/c5-3-2-8-4(7)1-6-3/h1-2H2,(H2,5,6)	InChI=1S/C4H6N2O2/c5-3-2-8-4(7)1-6-3/h1-2H2,(H2,5,6)
