18
gdb 41433	3.67482	1.93535	1.52044	0.3312	74.03	-0.2298	0.084	0.3138	881.8895	0.151192	-401.882673	-401.876691	-401.875747	-401.91264	25.883	
C	-0.0006297814	 1.5514240272	-0.0324350958	-0.117274
O	 1.4249834751	 1.8533964482	-0.029331003	-0.341747
C	 1.9596187061	 0.568637602	 0.0202463282	 0.501036
C	 3.4079266738	 0.1558669002	 0.0483265511	-0.358147
C	 3.1142001752	-1.3877801296	 0.0989863437	-0.15531
N	 1.616116051	-1.5117233052	 0.0890207158	-0.150803
C	 1.1459209548	-0.3740430549	 0.9643102624	-0.086153
C	-0.0147537896	 0.0124233904	 0.020722836	-0.101631
C	 1.1633907105	-0.437621129	-0.8716419525	-0.086153
H	-0.4719559421	 2.0198927092	 0.8389993837	 0.111586
H	-0.4550078948	 1.9581939834	-0.9429775985	 0.111587
H	 3.9596773434	 0.4603758232	-0.8449805257	 0.110473
H	 3.9427821785	 0.5217960356	 0.9287700428	 0.110473
H	 3.5225931136	-1.9207370117	-0.7639162494	 0.108898
H	 3.5057595718	-1.8595009861	 1.0042972597	 0.108898
H	 1.1633804921	-0.4265630885	 2.0548992618	 0.074897
H	-0.9731238284	-0.5045388221	 0.0295041162	 0.084475
H	 1.2015370504	-0.5654439223	-1.9554565167	 0.074897
243.1067	264.1704	396.0351	418.6132	441.6213	647.4642	720.916	738.3359	762.4573	765.58	830.7029	838.4316	868.0815	911.8264	920.5137	921.4845	956.2519	970.4501	990.8957	1005.7095	1053.7161	1071.5725	1117.4258	1135.7715	1146.1364	1162.8301	1202.1847	1208.3027	1235.1665	1249.6446	1249.6842	1285.5731	1293.2109	1310.0106	1358.6341	1384.4163	1491.6282	1512.0158	1516.4687	3032.3457	3057.6465	3065.5688	3075.2293	3091.0389	3095.9425	3097.8241	3116.1239	3136.9905
C1OC23CCN4C2C1C34	C1O[C@@]23CCN4[C@@H]2[C@@H]1[C@@H]34	
InChI=1S/C7H9NO/c1-2-8-5-4-3-9-7(1,5)6(4)8/h4-6H,1-3H2	InChI=1S/C7H9NO/c1-2-8-5-4-3-9-7(1,5)6(4)8/h4-6H,1-3H2/t4-,5-,6+,7+
