20
gdb 13250	7.26479	0.77903	0.74161	2.8629	76.88	-0.247	-0.0181	0.2288	1522.5524	0.176288	-349.007642	-348.998889	-348.997945	-349.042204	31.103	
O	-0.6114625293	 0.7860873555	 0.8651280324	-0.238178
C	 0.0340671313	 1.0332550811	-0.1206333119	 0.159709
C	 1.3312811127	 1.8058466523	-0.1429381774	-0.270731
C	 1.2513756589	 3.0363267082	-1.0661839504	-0.22572
C	 2.5846111185	 3.7598179345	-1.2040051353	 0.066436
C	 3.7530955974	 3.0670811329	-1.9655937202	-0.219003
C	 4.1168402871	 4.4461388069	-2.5795237036	-0.210479
C	 2.695222494	 4.9445839762	-2.2054439667	-0.238371
H	-0.3112166317	 0.696687148	-1.1279544897	 0.067064
H	 1.5897763906	 2.0872850224	 0.8822061489	 0.119708
H	 2.1127403805	 1.1294616966	-0.5195212346	 0.120586
H	 0.9065465799	 2.7233955557	-2.0616976954	 0.096043
H	 0.4933141441	 3.7304581874	-0.6805122636	 0.109959
H	 2.9313003297	 4.0805860557	-0.2140815036	 0.073013
H	 4.516364371	 2.5496713359	-1.3792508642	 0.096848
H	 3.3731475107	 2.3769183809	-2.7273298521	 0.095818
H	 4.8903281452	 4.9558106942	-1.9980326738	 0.103998
H	 4.4036508271	 4.4720195166	-3.6331008543	 0.097964
H	 1.9942831368	 4.8239774934	-3.0384585931	 0.097991
H	 2.5916045256	 5.9581358754	-1.8103263513	 0.097347
54.4562	63.8432	105.4771	130.7062	171.6768	296.2408	355.4902	416.7521	524.6795	632.3517	756.0755	772.2701	787.8904	848.0092	897.6925	934.2845	949.4157	971.7834	985.3507	1011.1725	1037.0569	1100.7419	1121.6448	1165.3765	1199.8947	1210.2702	1247.6284	1257.0928	1258.7393	1267.3822	1285.3989	1293.8624	1322.5752	1356.7988	1390.5465	1430.815	1463.4032	1478.6606	1486.324	1492.9589	1511.5977	1836.3364	2842.6854	3006.5074	3011.7554	3028.5391	3041.1303	3046.8123	3051.6169	3059.9599	3096.0026	3097.4649	3100.1415	3117.9943
O=CCCC1CCC1	O=CCCC1CCC1	
InChI=1S/C7H12O/c8-6-2-5-7-3-1-4-7/h6-7H,1-5H2	InChI=1S/C7H12O/c8-6-2-5-7-3-1-4-7/h6-7H,1-5H2
