20
gdb 94292	2.78794	1.56326	1.22288	1.6526	78.56	-0.2293	0.0661	0.2954	1080.6524	0.171803	-403.085619	-403.077521	-403.076577	-403.118128	32.	
O	 0.511966049	 0.8316684728	-0.7513117988	-0.426788
C	 0.1060150992	-0.2834087783	 0.0051434473	 0.06621
C	 0.0034782173	-0.1599104934	 1.552849832	-0.26322
C	-1.302121719	-1.0042563645	 1.5123194987	-0.322623
C	-1.3626219378	-0.756883471	 0.0013816585	 0.346439
C	-2.5295375808	-0.2159442334	-0.7237571338	-0.137998
C	-2.2199467833	 0.1323022617	-2.1803597039	-0.242848
C	-1.6337269166	-1.2961401539	-2.2991683572	-0.159481
N	-2.0706362781	-1.6644459957	-0.9004527178	-0.196287
H	-0.027960844	 1.5814393205	-0.4782961849	 0.279964
H	 0.7762460309	-1.0985442723	-0.2887395865	 0.099772
H	 0.8408812137	-0.5399618652	 2.1405619077	 0.107255
H	-0.1887320363	 0.8771722911	 1.8469393969	 0.096236
H	-1.1350305235	-2.0605827462	 1.7374494853	 0.117762
H	-2.1431540236	-0.6466601413	 2.1101137144	 0.105912
H	-3.4544809576	 0.0222317517	-0.2044193572	 0.091175
H	-3.1271091171	 0.2583209904	-2.7746296346	 0.10893
H	-1.5490949875	 0.9729260168	-2.3634262539	 0.107232
H	-2.1398959343	-1.9323493382	-3.0270947927	 0.108772
H	-0.5526346907	-1.3687102516	-2.4514928895	 0.113589
83.7942	160.0042	186.1496	257.5574	278.2587	363.0338	386.3657	432.6596	520.5709	610.2986	684.	768.4105	784.2878	786.6068	822.5942	851.1302	927.2476	943.5787	967.4086	977.7685	981.7883	1027.2401	1054.0069	1071.6037	1108.2155	1125.2751	1138.597	1193.3208	1206.31	1219.7846	1225.9424	1259.7274	1264.7593	1273.4488	1287.6576	1308.4519	1316.3838	1428.6565	1434.7663	1477.8557	1481.8863	1495.3648	1508.5944	3050.2727	3056.43	3058.6934	3066.7967	3075.5892	3111.194	3111.9328	3124.6975	3130.7577	3140.4911	3804.4656
OC1CCC11C2CCN12	O[C@H]1CC[C@]21[C@H]1CCN21	
InChI=1S/C7H11NO/c9-6-1-3-7(6)5-2-4-8(5)7/h5-6,9H,1-4H2	InChI=1S/C7H11NO/c9-6-1-3-7(6)5-2-4-8(5)7/h5-6,9H,1-4H2/t5-,6+,7-,8?/m1/s1
