17
gdb 32252	2.63945	1.55912	0.98724	3.672	80.16	-0.201	0.003	0.2041	1160.8691	0.138208	-418.058531	-418.050426	-418.049481	-418.091031	30.989	
C	-0.0656024372	 1.366170897	 0.103617754	-0.250979
O	-0.0174094434	-0.0439455662	-0.0179836926	-0.27954
C	 0.60626114	-0.572892981	-1.10552027	 0.37924
C	 1.2078796078	 0.1480597816	-2.1286875267	-0.267165
C	 1.8180398486	-0.5531633995	-3.1707380609	-0.013675
N	 1.8616240691	-1.8809980463	-3.2382045914	-0.278391
C	 1.2781019454	-2.5619881182	-2.2477695466	-0.053745
C	 0.6298350831	-1.9813363002	-1.1577627894	 0.169511
N	-0.0200161983	-2.727138281	-0.1777467241	-0.594978
H	 0.9408550411	 1.7998535748	 0.1561979027	 0.130007
H	-0.6085439031	 1.8217101793	-0.7335876197	 0.13233
H	-0.5973842255	 1.5740373427	 1.0333099458	 0.137989
H	 1.2140478448	 1.230365311	-2.1295248997	 0.095929
H	 2.292340307	-0.006916098	-3.9820258306	 0.09876
H	 1.3200521254	-3.6486247076	-2.3140311677	 0.090687
H	 0.3489130793	-3.6572814335	-0.0437908433	 0.248081
H	-0.142199754	-2.2325091048	 0.6939396403	 0.255938
94.4712	177.7799	227.7679	241.5426	303.5661	322.6588	336.5433	460.1895	510.7795	516.3605	599.6141	622.462	641.717	775.7195	784.1411	828.9874	861.5733	922.1032	951.0851	1070.1546	1085.9218	1106.4899	1178.6967	1210.296	1229.8017	1261.2628	1314.9364	1339.1586	1366.7202	1460.6476	1480.1245	1490.4383	1507.2489	1547.3156	1613.6409	1621.8962	1650.2873	3011.754	3073.9658	3129.8486	3137.7312	3157.2107	3210.6959	3563.8499	3667.2156
COC1=CC=NC=C1N	COc1ccncc1N	
InChI=1S/C6H8N2O/c1-9-6-2-3-8-4-5(6)7/h2-4H,7H2,1H3	InChI=1S/C6H8N2O/c1-9-6-2-3-8-4-5(6)7/h2-4H,7H2,1H3
