12
gdb 130630	3.2586	1.29391	0.93154	1.5694	69.09	-0.2493	-0.0801	0.1692	1118.5272	0.078176	-468.857899	-468.850495	-468.849551	-468.890362	26.511	
O	-0.1929735171	 0.0214071275	 0.0055567451	-0.340037
C	-0.0589734383	 1.2172438841	 0.0102662036	 0.447255
C	-1.1831013832	 2.2677707848	 0.0333070726	-0.466475
C	-0.4015449097	 3.553217822	 0.0293417571	 0.188156
C	 1.0435196841	 3.3072680172	 0.0061809673	 0.386382
N	 1.143392583	 1.9039488312	-0.0037777654	-0.377641
O	 1.9706737037	 4.0788525883	-0.0030976259	-0.362309
N	-1.3119453307	 5.8052384966	 0.0540926172	-0.217694
N	-0.8922808402	 4.7523963413	 0.0425772548	 0.138069
H	-1.824883522	 2.1250476081	-0.8426248892	 0.162321
H	-1.7983934539	 2.114470955	 0.9262793793	 0.162338
H	 2.0375009045	 1.4354626939	-0.0196735766	 0.279635
89.237	143.382	157.0184	221.1016	360.4099	473.3865	507.3895	543.7119	560.1018	613.7767	630.2733	683.725	739.5849	771.5018	867.402	969.5185	1103.4271	1154.0993	1218.8125	1257.7738	1321.678	1353.1891	1424.5037	1468.0936	1825.4575	1866.8382	2220.7841	3048.4179	3086.575	3634.1834
O=C1CC2=C(N1)ON=N2	O=C1C[C](C(=O)N1)[N][N]	
InChI=1S/C4H3N3O2/c8-3-1-2-4(5-3)9-7-6-2/h1H2,(H,5,8)	InChI=1S/C4H3N3O2/c5-7-2-1-3(8)6-4(2)9/h1H2,(H,6,8,9)
