15
gdb 10890	3.07752	2.04255	1.56881	2.9617	61.41	-0.2392	-0.0179	0.2213	843.6081	0.117387	-399.776583	-399.76877	-399.767826	-399.808557	28.487	
C	-0.0059038556	 1.5500088522	 0.0361641192	-0.497178
C	-0.0359334077	 0.0552590998	-0.0520046492	 0.337342
C	-0.8422958829	-0.8135763021	 0.8124729337	-0.278749
N	 0.6477420317	-0.8372590817	 1.0201162513	-0.215421
C	 1.1243521459	-1.6792530783	-0.0573563922	 0.36921
O	 1.7718413985	-2.678936996	-0.0164852251	-0.303403
C	 0.579305288	-0.7672921224	-1.1822490414	-0.076036
O	-0.3235018227	-1.2952357746	-2.1203430311	-0.428316
H	 0.9804186673	 1.9436048228	-0.2290323485	 0.131426
H	-0.7408532677	 1.9856915029	-0.6495674744	 0.138992
H	-0.2465973528	 1.8834874904	 1.0491427889	 0.137586
H	-1.3573652966	-0.3566142357	 1.6510826791	 0.138363
H	-1.3237615097	-1.6990699872	 0.4083467055	 0.146041
H	 1.4096683094	-0.2248656675	-1.6607724001	 0.100164
H	 0.1409498451	-1.9688415327	-2.6298151456	 0.299979
106.7442	158.8949	184.5139	235.5747	261.2909	290.8394	357.2288	507.9351	531.5691	627.2482	650.6579	718.6768	757.8259	866.2203	930.1211	977.6344	1011.0358	1043.0153	1075.8958	1132.777	1145.3733	1152.0194	1179.2446	1278.7688	1310.4237	1375.9728	1417.2697	1439.4683	1484.0958	1492.9296	1512.4797	1915.2939	2989.0903	3037.1096	3101.7388	3119.7679	3126.0974	3216.2456	3808.01
CC12CN1C(=O)C2O	C[C@]12CN1C(=O)[C@H]2O	
InChI=1S/C5H7NO2/c1-5-2-6(5)4(8)3(5)7/h3,7H,2H2,1H3	InChI=1S/C5H7NO2/c1-5-2-6(5)4(8)3(5)7/h3,7H,2H2,1H3/t3-,5-,6?/m1/s1
