21
gdb 90292	2.91102	1.38006	1.2237	1.2375	85.29	-0.2256	0.0101	0.2357	1142.8635	0.182282	-387.073104	-387.064445	-387.063501	-387.106187	33.582	
C	 0.0151810856	 1.5605007058	 0.0204528765	-0.388207
C	 0.0185071439	 0.040293548	-0.0095216909	-0.034457
C	 1.2033578554	-0.5939859029	-0.8506454864	-0.329153
C	 1.9128606738	-0.7260413969	 0.4782930418	 0.23034
C	 2.928777592	-0.2504173434	 1.1873442545	-0.253376
C	 2.4136381078	 0.0540040225	 2.5928942796	 0.111606
C	 2.8526306479	 1.4087958894	 3.1348898989	-0.39347
O	 0.968260479	 0.0374665512	 2.4639253657	-0.291213
C	 0.6526422334	-0.6495910372	 1.2713335353	 0.082333
H	 1.0114925752	 1.9513334136	 0.2496215012	 0.12186
H	-0.2951646829	 1.968395541	-0.9470012759	 0.110142
H	-0.6710856152	 1.933969889	 0.7862454974	 0.12539
H	-0.9704166216	-0.3473679556	-0.270289823	 0.071829
H	 0.9148092374	-1.547696652	-1.3019413843	 0.112136
H	 1.6774273988	 0.0329292473	-1.6093589921	 0.111649
H	 3.9191646284	 0.0339047257	 0.8536255104	 0.099444
H	 2.7031379601	-0.7268167222	 3.3167412779	 0.079699
H	 2.6157099144	 2.2069445516	 2.4252377795	 0.121573
H	 2.3373762469	 1.6184114591	 4.0765275126	 0.126849
H	 3.9311322012	 1.4151608423	 3.3241230578	 0.111645
H	 0.1428488685	-1.5982398062	 1.4922196536	 0.073379
79.5782	139.9992	198.7225	210.1783	226.9363	311.2355	331.4297	370.1147	471.3901	501.0076	652.5936	693.9966	755.3893	789.4322	808.998	828.8415	841.0986	887.3099	899.9212	948.6475	1013.8635	1021.4598	1051.8647	1073.7309	1089.8234	1114.7485	1128.7954	1151.7649	1161.7438	1191.09	1238.0909	1254.0228	1295.5461	1312.4191	1346.4662	1360.8604	1376.7053	1401.265	1409.5781	1477.3252	1483.1338	1490.6235	1493.927	1494.8532	1727.2315	2949.5792	2995.2007	3036.3401	3038.1813	3054.1036	3064.3459	3104.3365	3110.0912	3111.7311	3113.0464	3119.7864	3208.1625
CC1CC2=CC(C)OC12	C[C@H]1C[C]2[CH][C@@H](C)O[C@@H]12	
InChI=1S/C8H12O/c1-5-3-7-4-6(2)9-8(5)7/h4-6,8H,3H2,1-2H3	InChI=1S/C8H12O/c1-5-3-7-4-6(2)9-8(5)7/h4-6,8H,3H2,1-2H3/t5-,6+,8-/m0/s1
