18
gdb 55265	3.28541	1.10718	0.94101	3.4177	75.05	-0.2235	0.0115	0.2351	1282.6347	0.14716	-439.13193	-439.122824	-439.12188	-439.166304	33.187	
C	-0.0089791728	 1.3555080111	 0.8870867494	-0.493149
C	 0.0142672976	 0.0039242509	 0.2512022101	 0.302955
C	-0.5530616603	-0.4026530913	-0.8808962725	-0.206832
C	-0.2645901763	-1.8584014588	-1.1203490651	-0.005551
O	 0.5190524176	-2.2697597257	 0.0043384626	-0.289551
C	 0.7484693482	-1.1574480254	 0.8722126326	-0.158403
C	-1.5561514931	-2.6829667789	-1.2785651332	 0.364224
N	-1.7554871344	-3.599439119	-0.3008154716	-0.514733
O	-2.3074173279	-2.4801608722	-2.2128924871	-0.376321
H	 1.0057659578	 1.755496489	 1.0064663831	 0.131333
H	-0.5871580338	 2.066499263	 0.2924283681	 0.135279
H	-0.4490138979	 1.3130046509	 1.8913058425	 0.131664
H	-1.1587157913	 0.1793929947	-1.5617238984	 0.122607
H	 0.3083075161	-2.0182751301	-2.046701367	 0.11385
H	 1.8308685164	-0.9709466763	 0.9562564412	 0.108136
H	 0.3814387421	-1.3920130255	 1.8836314204	 0.104629
H	-1.0284830183	-3.756028837	 0.3768762351	 0.270029
H	-2.5444657897	-4.2203829195	-0.3658932102	 0.259833
60.316	78.3157	142.5178	168.3483	247.7354	300.5711	313.9883	340.4658	434.9083	467.4185	521.9083	593.6051	650.3699	707.574	793.5397	838.1145	905.7161	917.6427	960.2708	988.2845	1003.7352	1040.8664	1087.0652	1094.7338	1109.5918	1198.4696	1207.9636	1269.3543	1309.438	1324.371	1363.0277	1387.5685	1416.1014	1479.557	1488.599	1520.469	1586.7357	1733.7244	1802.8561	2974.4565	2988.4599	2994.537	3021.6736	3067.5778	3121.396	3236.1532	3597.1424	3738.554
CC1=CC(OC1)C(N)=O	CC1=C[C@@H](OC1)C(=O)N	
InChI=1S/C6H9NO2/c1-4-2-5(6(7)8)9-3-4/h2,5H,3H2,1H3,(H2,7,8)	InChI=1S/C6H9NO2/c1-4-2-5(6(7)8)9-3-4/h2,5H,3H2,1H3,(H2,7,8)/t5-/m1/s1
