14
gdb 50049	3.12837	0.78316	0.65665	5.3586	83.81	-0.2673	-0.0554	0.2119	1596.045	0.099725	-399.532468	-399.523897	-399.522953	-399.566817	29.999	
O	 0.0958477834	-0.0646256292	-0.4453697079	-0.250673
C	 0.0858660914	 1.0605467597	-0.0178615333	 0.164018
C	 1.2948449481	 1.9235123571	 0.0567688249	-0.102817
C	 1.143348512	 3.4079078248	-0.1742172368	-0.293912
C	 1.452344524	 2.9238341308	 1.2202996911	-0.214086
C	 0.476460811	 3.0213771971	 2.2584660813	 0.118985
C	-0.3236716947	 3.1250221739	 3.1596740308	 0.035285
C	-1.2335668458	 3.2430835567	 4.16921683	 0.209258
N	-2.0090165455	 3.3458040682	 5.0285640411	-0.332808
H	-0.8504224493	 1.5408086956	 0.3436360876	 0.09048
H	 2.2081146905	 1.4433494888	-0.2754471619	 0.129019
H	 1.9298516857	 3.9180350078	-0.7168183656	 0.149129
H	 0.1419572493	 3.7843175396	-0.3520700916	 0.150067
H	 2.47696032	 3.0446557791	 1.5592370205	 0.148054
56.8194	97.7652	118.3605	190.2593	231.2952	307.0954	322.5507	451.0002	479.1867	546.9142	577.3232	596.9011	686.0181	815.9757	855.6999	873.2223	934.9699	1039.8133	1057.4367	1089.1737	1120.2538	1159.003	1180.4221	1237.2043	1335.6535	1387.5113	1439.615	1478.4683	1827.8298	2264.0673	2392.955	2890.2354	3146.2265	3156.487	3190.1542	3240.2212
O=CC1CC1C#CC#N	O=C[C@H]1C[C@H]1C#CC#N	
InChI=1S/C7H5NO/c8-3-1-2-6-4-7(6)5-9/h5-7H,4H2	InChI=1S/C7H5NO/c8-3-1-2-6-4-7(6)5-9/h5-7H,4H2/t6-,7-/m1/s1
