22
gdb 68846	2.33876	1.82261	1.39023	1.3976	85.1	-0.2137	0.0848	0.2985	1056.8691	0.194844	-367.194501	-367.18604	-367.185096	-367.226695	34.359	
C	-0.0795532636	 1.5510156378	-0.028464312	-0.486943
C	-0.0443790648	 0.0454144432	 0.0830777369	 0.314526
C	 1.2353182946	-0.7158332951	-0.2280879235	-0.382956
C	 0.6904547485	-0.7280132849	 1.1738220112	 0.302813
C	 1.4498893794	-0.1168335508	 2.3223906298	-0.474093
N	-0.03844854	-1.9521543032	 1.5016271748	-0.123142
C	-1.3312630177	-1.6722230456	 2.151086867	-0.254014
C	-1.2743301192	-1.9434223169	 0.6921354715	-0.008138
C	-1.3205399325	-0.7348268232	-0.2433041512	-0.315758
H	 0.8632671283	 2.0033552457	 0.2936680813	 0.11536
H	-0.2529121843	 1.8660972618	-1.0647189753	 0.117643
H	-0.8821261031	 1.9797361733	 0.5837454965	 0.112374
H	 1.1714969559	-1.6307855019	-0.8096358274	 0.109538
H	 2.1308025664	-0.1292428093	-0.4090760226	 0.104028
H	 1.9788829102	 0.7878987351	 2.0116451383	 0.115366
H	 0.7810034935	 0.1493097267	 3.1484818163	 0.114512
H	 2.1901576115	-0.8260613647	 2.7070304594	 0.129431
H	-1.6725386789	-2.4363648098	 2.8428531633	 0.112634
H	-1.5383454328	-0.6491750815	 2.4598331244	 0.108214
H	-1.6001860984	-2.9075537932	 0.3140923214	 0.088778
H	-2.2132531428	-0.1223429584	-0.0680259167	 0.099236
H	-1.3506653303	-1.0499574652	-1.2930858432	 0.100593
156.4288	195.6135	203.3577	230.0968	237.0771	340.0462	366.3793	424.4599	432.5531	477.1366	558.0016	648.998	676.1248	752.4298	779.8341	837.8205	889.415	907.5236	941.2347	946.3367	954.3965	991.5448	1015.2831	1042.1724	1055.4271	1081.1706	1107.3218	1110.8843	1125.7412	1164.6104	1179.4774	1215.8433	1233.5756	1263.0109	1295.1011	1340.2441	1374.7812	1388.0543	1414.8595	1425.9356	1479.9353	1483.3861	1491.6728	1496.1017	1499.1452	1505.376	1513.0378	3017.7779	3024.3733	3032.8592	3056.4058	3073.1049	3093.1219	3099.1156	3100.0884	3114.7294	3118.0935	3153.3592	3190.4016	3204.1535
CC12CC1(C)N1CC1C2	C[C@@]12C[C@]1(C)N1C[C@H]1C2	
InChI=1S/C8H13N/c1-7-3-6-4-9(6)8(7,2)5-7/h6H,3-5H2,1-2H3	InChI=1S/C8H13N/c1-7-3-6-4-9(6)8(7,2)5-7/h6H,3-5H2,1-2H3/t6-,7-,8+,9?/m1/s1
