21
gdb 73363	2.34711	1.91523	1.54336	1.2083	79.61	-0.2538	0.0752	0.3291	980.293	0.185742	-387.10292	-387.09551	-387.094566	-387.134285	31.238	
O	-0.0473030113	 1.396764324	 0.0221505731	-0.495822
C	 0.0303007858	-0.0202741058	 0.0018861506	 0.391742
C	 0.6331513217	-0.5684230653	-1.3163960474	-0.251981
C	-0.0035500633	-1.9617205951	-1.5305918812	-0.246781
C	-1.3079718408	-1.9148564365	-0.7327071716	-0.044469
C	-1.2511438549	-1.9333602882	 0.7881762119	-0.044466
C	 0.1091132428	-1.9984533495	 1.4851233138	-0.246779
C	 0.729614479	-0.5999498791	 1.2575754104	-0.252037
C	-1.387222827	-0.6276223013	 0.0475395467	-0.09639
H	 0.8511245918	 1.7413305228	-0.0065046433	 0.273608
H	 0.3159255496	 0.1084356038	-2.1166069578	 0.104303
H	 1.7288896202	-0.5879177914	-1.3073053432	 0.081539
H	-0.2040280667	-2.1469193196	-2.5895279225	 0.09906
H	 0.6552938873	-2.7706062156	-1.1941912968	 0.099415
H	-2.2015580559	-2.3343610786	-1.1824141023	 0.079277
H	-2.1090591527	-2.3645048975	 1.2929703517	 0.079275
H	-0.0120518335	-2.2091110858	 2.5513245458	 0.099061
H	 0.7401413181	-2.7985895052	 1.0812510118	 0.099423
H	 1.8215576033	-0.6185755786	 1.1658362099	 0.081559
H	 0.4741463821	 0.0570903499	 2.0955126185	 0.104298
H	-2.2497673354	 0.0251163325	 0.0877000019	 0.086165
116.4392	244.8958	259.905	300.8757	386.0403	408.1226	444.3661	530.9736	581.6857	680.6451	685.7945	734.3858	774.5897	798.9604	859.7364	860.4139	910.3052	928.2131	954.4884	968.5224	998.6382	1025.3473	1044.2114	1046.8597	1083.4722	1096.5151	1108.7029	1140.629	1163.6932	1211.9904	1217.9581	1232.4569	1235.5745	1272.7859	1295.0079	1316.7932	1326.7962	1338.4649	1346.0013	1389.3487	1410.5631	1479.2962	1496.5309	1498.2209	1519.6959	3029.7483	3034.6486	3036.6146	3041.554	3073.0203	3075.7149	3088.9293	3093.1947	3157.1903	3166.5922	3195.0891	3814.2629
OC12CCC3C(CC1)C23	O[C@@]12CC[C@H]3[C@@H](CC1)[C@@H]23	
InChI=1S/C8H12O/c9-8-3-1-5-6(2-4-8)7(5)8/h5-7,9H,1-4H2	InChI=1S/C8H12O/c9-8-3-1-5-6(2-4-8)7(5)8/h5-7,9H,1-4H2/t5-,6+,7-,8-
