18
gdb 93161	2.47993	1.58463	1.0758	4.1674	73.37	-0.2541	0.0058	0.2599	1116.3467	0.149565	-439.125289	-439.117139	-439.116195	-439.158059	31.402	
O	 0.5366667825	 0.3241280925	 1.0270711912	-0.43911
C	-0.1758420784	-0.2301232753	-0.0443822801	 0.023387
C	-1.4916103733	 0.5395253861	-0.2639594147	-0.267095
C	-2.4689715103	-0.0761957165	-1.226584153	-0.048395
C	-2.2404314592	-0.9952583825	-2.1632806429	-0.056096
C	-0.9233484696	-1.6379050219	-2.5335334555	-0.226619
N	 0.259395105	-0.7915372911	-2.4098683836	-0.306066
C	 0.7111801098	-0.1762607322	-1.2931931526	 0.380268
O	 1.7708018861	 0.4354804745	-1.2566791311	-0.395129
H	 1.3472951505	 0.6789297522	 0.6200860669	 0.291691
H	-0.4192921762	-1.2813399976	 0.1782659109	 0.090266
H	-1.9700629993	 0.6254604525	 0.7186955371	 0.125438
H	-1.2523371049	 1.5701880481	-0.561677304	 0.123618
H	-3.4922851015	 0.2784658778	-1.1202606866	 0.096974
H	-3.0856639108	-1.3620091038	-2.7407037883	 0.096496
H	-0.7876359898	-2.5710311345	-1.9640815786	 0.132209
H	-0.9700033767	-1.9404743248	-3.583223469	 0.124264
H	 0.8793609261	-0.7242242736	-3.2030750462	 0.253898
76.5894	139.3136	180.3317	284.1672	333.142	362.5065	398.1384	441.8176	503.5594	522.1442	577.7567	629.729	658.5921	739.9415	790.18	819.5947	867.731	951.9215	988.2863	1007.4197	1025.2952	1085.0659	1126.2172	1141.7527	1187.8239	1251.2645	1282.8347	1292.0209	1325.2353	1350.1126	1382.6187	1399.9552	1423.9676	1466.493	1470.8151	1486.5444	1510.0438	1737.2596	1770.0368	2975.1516	2980.1037	3017.0902	3059.3203	3082.8735	3138.1562	3162.947	3619.5802	3628.1707
OC1CC=CCNC1=O	O[C@H]1CC=CCNC1=O	
InChI=1S/C6H9NO2/c8-5-3-1-2-4-7-6(5)9/h1-2,5,8H,3-4H2,(H,7,9)	InChI=1S/C6H9NO2/c8-5-3-1-2-4-7-6(5)9/h1-2,5,8H,3-4H2,(H,7,9)/t5-/m0/s1
