20
gdb 40722	4.0588	1.18013	1.0997	2.5464	79.1	-0.2325	0.0874	0.3199	1173.5318	0.172777	-403.088335	-403.08092	-403.079975	-403.120484	29.691	
C	 1.2919915972	 0.0666845909	-0.3533238798	-0.223886
C	 0.6286399603	-1.1393100859	-0.9205602511	-0.227956
N	-0.1075294572	-0.2209163744	-0.0575257723	-0.059323
C	-0.3977146332	-0.691443778	 1.2855070878	 0.074781
C	-0.7048639256	 0.4732727757	 2.2806964785	-0.250336
C	-2.1425895056	 0.0474132553	 2.646801282	 0.081265
C	-2.0246902196	-1.4731356558	 2.9011098967	-0.235454
C	-1.7794335607	-1.3845047951	 1.3783268998	 0.05687
O	-2.707788825	-0.2605122512	 1.3354372758	-0.288608
H	 2.0259114335	-0.0970457347	 0.4349165987	 0.106907
H	 1.4762686626	 0.9406439477	-0.9714776506	 0.117241
H	 0.3176147059	-1.1636737965	-1.9608581147	 0.118722
H	 0.9229869635	-2.1048214148	-0.5102438092	 0.105723
H	 0.3980793943	-1.3572248929	 1.6636467495	 0.050313
H	-0.0276410446	 0.5068474682	 3.1379672304	 0.093776
H	-0.6928510305	 1.4366924825	 1.7681996582	 0.120717
H	-2.7555791135	 0.7157315289	 3.2513299612	 0.078226
H	-1.2335125413	-1.8504790433	 3.5554223145	 0.090652
H	-2.9887295628	-1.9270457078	 3.1311022369	 0.111912
H	-2.0080764575	-2.1841817788	 0.6740049278	 0.07846
80.8339	135.6935	186.5824	309.2223	384.0829	429.2092	461.5063	580.1907	723.0651	761.0137	825.4356	842.2517	848.4086	870.9644	879.4328	908.7196	916.8111	950.8305	971.3213	992.9434	1027.3734	1042.4211	1057.5182	1096.3827	1100.4554	1112.8881	1118.3045	1147.0889	1173.0244	1202.6361	1204.3185	1227.4603	1235.2707	1266.9926	1298.0577	1311.0365	1326.2159	1332.5369	1390.5774	1473.6914	1490.3821	1491.1239	1519.0148	2936.1078	3059.9107	3070.1374	3089.1274	3094.2822	3122.3296	3126.5373	3130.0919	3144.7049	3174.8549	3188.9661
C1CN1C1CC2CC1O2	C1CN1[C@H]1C[C@@H]2C[C@H]1O2	
InChI=1S/C7H11NO/c1-2-8(1)6-3-5-4-7(6)9-5/h5-7H,1-4H2	InChI=1S/C7H11NO/c1-2-8(1)6-3-5-4-7(6)9-5/h5-7H,1-4H2/t5-,6+,7-/m1/s1
