20
gdb 17271	4.47019	1.18732	1.10325	0.9311	75.69	-0.234	0.0841	0.318	1173.3092	0.175794	-348.964476	-348.955889	-348.954945	-348.998147	32.013	
C	 0.0404155257	 1.5263946923	-0.0503398328	-0.395522
C	 0.2297239207	 0.0258504869	-0.0153661987	-0.033738
C	 1.5928788847	-0.5682327811	 0.2934142494	-0.319302
C	 0.4586985096	-0.6889746037	 1.2822836621	 0.129682
O	 0.456438977	 0.0863954884	 2.4454064564	-0.250615
C	 1.1187896595	-0.5109720498	 3.520998272	 0.155139
C	 2.5857594474	-0.2502499387	 3.7428639132	-0.283186
C	 1.5376519056	 0.3983275254	 4.6281107435	-0.293881
H	 0.613776032	 2.0104049342	 0.7434031768	 0.125533
H	 0.3646843482	 1.9389670068	-1.0117386502	 0.11196
H	-1.0119130912	 1.7945125675	 0.0930125474	 0.117322
H	-0.3695317921	-0.5212633924	-0.738698693	 0.083903
H	 1.9244152427	-1.4533775256	-0.2389811587	 0.107081
H	 2.3818793704	 0.1331535786	 0.5417331841	 0.114288
H	 0.0034678046	-1.6714918835	 1.4143513788	 0.081199
H	 0.7343389131	-1.4977177218	 3.7813042146	 0.083076
H	 3.2008119581	-1.0447746517	 4.1513130787	 0.111183
H	 3.0863346201	 0.390615004	 3.0270784017	 0.117842
H	 1.3516951256	 1.4556373447	 4.4771879671	 0.124463
H	 1.4250417782	 0.0579764095	 5.6511711475	 0.113573
45.0373	95.5397	132.4074	198.3516	249.9861	301.5025	381.7705	395.55	497.28	546.9884	748.45	757.6867	813.5658	825.0445	837.6307	872.8892	924.8204	960.5546	981.581	1018.6656	1028.1102	1054.6971	1070.7365	1073.9785	1113.0016	1127.5415	1147.5862	1180.1557	1190.2427	1193.0541	1204.4786	1237.5531	1256.3057	1363.0935	1392.5912	1419.1008	1426.8864	1453.433	1479.9978	1495.156	1500.6787	1507.3106	3035.0637	3086.8687	3092.3117	3095.086	3121.3667	3131.9894	3138.1818	3141.9787	3142.4695	3219.7587	3222.7227	3235.9821
CC1CC1OC1CC1	C[C@H]1C[C@H]1OC1CC1	
InChI=1S/C7H12O/c1-5-4-7(5)8-6-2-3-6/h5-7H,2-4H2,1H3	InChI=1S/C7H12O/c1-5-4-7(5)8-6-2-3-6/h5-7H,2-4H2,1H3/t5-,7+/m0/s1
