19
gdb 38151	2.96214	1.78355	1.2885	1.9716	78.69	-0.2436	0.0027	0.2463	1003.5766	0.16195	-385.894957	-385.887994	-385.88705	-385.926166	28.734	
C	-0.0629924994	 1.5176185418	 0.2160645986	-0.203949
C	 1.3729013532	 2.0714870765	 0.0612078299	-0.229198
C	 2.2591645501	 0.8707371261	 0.4587195294	-0.104074
C	 3.6281408589	 0.7381454606	-0.1674123965	-0.108832
C	 3.6870127951	-0.2814178612	-1.0333249572	-0.086956
C	 2.3731914904	-0.9880431993	-1.094391759	-0.099549
O	 1.9609354324	-1.6059160478	 0.1581244151	-0.319948
C	 1.4797994192	-0.305724519	-0.1427316782	 0.474441
C	 0.0036526896	 0.0416844013	-0.2634742193	-0.335975
H	-0.3514265381	 1.5483625469	 1.2726261276	 0.105026
H	-0.7999344707	 2.1068759321	-0.3352959314	 0.099664
H	 1.5658156436	 2.3368066323	-0.9850069002	 0.102042
H	 1.5512659914	 2.9642778659	 0.6663705762	 0.098719
H	 2.3124575899	 0.7955843562	 1.552832429	 0.090376
H	 4.461334375	 1.3795579853	 0.0997825355	 0.099821
H	 4.5546385581	-0.5765379891	-1.6111821868	 0.100007
H	 2.0281294484	-1.5058533124	-1.9846223663	 0.09376
H	-0.6052178888	-0.6242842315	 0.3541237042	 0.11659
H	-0.3477013782	-0.0630545545	-1.2947510104	 0.108036
110.8201	194.214	279.2089	372.8569	381.2033	491.6862	538.0635	592.9009	642.3475	717.7803	764.2999	788.7084	817.7852	863.5544	882.756	913.5053	930.5971	954.6032	968.0976	984.3111	1001.9114	1045.903	1072.8095	1077.3224	1135.466	1151.4106	1178.4543	1207.0812	1231.5244	1265.3638	1285.8381	1302.0503	1313.9048	1337.2806	1341.8317	1372.0727	1442.6594	1484.4189	1492.3059	1506.5175	1646.0158	3025.187	3040.0134	3044.8596	3052.1308	3089.6108	3096.2701	3106.1693	3157.4507	3182.5823	3212.282
C1CC2C=CC3OC23C1	C1C[C@@H]2C=C[C@H]3O[C@@]23C1	
InChI=1S/C8H10O/c1-2-6-3-4-7-8(6,5-1)9-7/h3-4,6-7H,1-2,5H2	InChI=1S/C8H10O/c1-2-6-3-4-7-8(6,5-1)9-7/h3-4,6-7H,1-2,5H2/t6-,7-,8+/m1/s1
