15
gdb 123556	4.00939	1.61288	1.25393	3.3409	70.23	-0.2288	-0.014	0.2148	947.7975	0.115728	-416.761885	-416.755758	-416.754814	-416.792304	24.769	
C	 0.0409723367	 1.4738363332	-0.0162730613	-0.24646
C	 1.2827489755	 0.6628765559	 0.0420080009	-0.020091
C	 1.9531383964	 0.365344661	 1.4059260988	-0.386897
C	 0.8258074007	-0.3738150898	 2.0547799987	 0.376858
C	-0.2346850342	-0.5483710042	 1.2338591784	 0.16705
C	-1.1610198586	-1.2667164719	 2.0250650847	-0.102509
N	-0.6735489986	-1.4939990463	 3.229847917	-0.14599
O	 0.6149686441	-0.9162121186	 3.2521166894	-0.224393
N	-0.0642137607	-0.0061083799	-0.0729288276	-0.196757
H	-0.3046679146	 1.9589369253	 0.8930467577	 0.125918
H	-0.217015498	 1.9826114708	-0.9402150027	 0.126997
H	 1.9038173658	 0.5979838274	-0.84462072	 0.10955
H	 2.8472530939	-0.2554131504	 1.277449376	 0.137868
H	 2.2569850117	 1.2712733794	 1.9412627852	 0.139054
H	-2.1506749701	-1.6328688517	 1.7931787548	 0.139803
168.2646	226.0156	346.4257	419.8121	461.638	597.7329	633.4979	693.6833	718.0927	749.0536	781.5333	820.5937	861.6998	905.6178	915.0414	962.6594	970.8519	1055.288	1089.666	1111.4793	1119.3856	1165.6702	1172.6395	1194.6586	1245.6648	1276.8733	1355.7098	1377.7834	1419.2015	1482.0626	1493.4122	1508.3222	1649.2447	3039.2249	3073.9155	3110.6197	3171.9498	3203.8047	3249.976
C1C2CC3=C(C=NO3)N12	C1[C@H]2Cc3c(cno3)N12	
InChI=1S/C6H6N2O/c1-4-3-8(4)5-2-7-9-6(1)5/h2,4H,1,3H2	InChI=1S/C6H6N2O/c1-4-3-8(4)5-2-7-9-6(1)5/h2,4H,1,3H2/t4-,8?/m1/s1
