15
gdb 29208	3.11384	1.42164	0.98191	6.4943	72.62	-0.2146	-0.0507	0.1639	1127.3811	0.112946	-454.011518	-454.003364	-454.00242	-454.044228	30.395	
C	-0.0327748707	 1.4882232013	 0.0386078532	-0.469154
C	-0.0048085833	-0.0135040516	 0.0118063061	 0.284289
N	-0.0256521656	-0.616079922	-1.145574473	-0.370392
C	-0.0017830751	-2.001054455	-1.240445429	 0.432762
O	-0.0188092755	-2.6247562954	-2.2803456532	-0.391145
N	 0.0458108491	-2.6889492934	-0.0112289315	-0.343021
C	 0.0682346219	-2.0781277915	 1.2061521347	-0.079139
C	 0.0438136384	-0.7221630266	 1.2631881145	 0.244647
O	 0.0617514898	 0.0235717085	 2.4101803583	-0.440192
H	 0.852207984	 1.8796845282	 0.5518825792	 0.143805
H	-0.0700611723	 1.8690742345	-0.9814230995	 0.148832
H	-0.9001276009	 1.8462596571	 0.6037082632	 0.143774
H	 0.0630867458	-3.6956227761	-0.0831462744	 0.2683
H	 0.105032296	-2.7191812003	 2.0806212102	 0.126873
H	 0.0930784581	-0.5576249277	 3.1771757114	 0.299759
91.669	134.2091	204.0007	257.2003	286.2477	352.0985	373.6278	401.2597	488.8199	531.2886	591.0844	603.4022	688.0261	734.737	796.7682	799.8343	867.6521	904.5971	1035.4083	1052.9261	1114.4519	1161.5914	1208.7756	1264.2208	1348.2112	1397.4771	1421.2076	1464.43	1473.4887	1509.1608	1574.8013	1707.3099	1807.4518	3042.5852	3096.5869	3163.3321	3185.3609	3621.2301	3821.2077
CC1=NC(=O)NC=C1O	Cc1nc(=O)[nH]cc1O	
InChI=1S/C5H6N2O2/c1-3-4(8)2-6-5(9)7-3/h2,8H,1H3,(H,6,7,9)	InChI=1S/C5H6N2O2/c1-3-4(8)2-6-5(9)7-3/h2,8H,1H3,(H,6,7,9)
