18
gdb 55307	2.50257	1.52909	1.11122	2.636	71.93	-0.2341	0.0295	0.2636	1115.6956	0.147406	-439.08511	-439.076421	-439.075477	-439.118892	32.437	
N	 0.7970882219	-0.0071656775	-0.3758552937	-0.519668
C	-0.3718855941	 0.5925431877	-0.0511117423	 0.369668
O	-0.5121946223	 1.7772127756	 0.1973796921	-0.380321
C	-1.5632714159	-0.3556946364	 0.0114210002	-0.02529
O	-1.2382548542	-1.748507259	-0.2218235839	-0.310531
C	-1.7204255352	-2.1383835866	 1.0916194813	-0.142833
C	-2.0705828344	-0.6909180021	 1.4168461614	 0.296499
C	-1.864764618	 0.0790275884	 2.6831482695	-0.322974
C	-3.258169613	-0.1344724581	 2.1343169954	-0.327426
H	 1.6365496368	 0.5426054195	-0.4466111138	 0.261795
H	 0.804494023	-0.9960226672	-0.5651319949	 0.272613
H	-2.3279022335	 0.007258615	-0.6864258837	 0.108992
H	-2.5664389856	-2.8322885403	 1.0157720069	 0.110066
H	-0.9277134339	-2.5965104806	 1.6962220499	 0.107289
H	-1.5730358995	-0.4732278549	 3.5710253904	 0.11154
H	-1.4297876238	 1.0680809215	 2.5919907407	 0.149617
H	-3.7639316495	 0.7158064989	 1.6885679866	 0.127594
H	-3.9140007587	-0.8311153439	 2.6474557479	 0.113372
60.5112	83.1816	147.9005	237.5305	285.6561	302.2136	320.3398	397.2447	452.2634	522.7013	590.273	648.8905	722.6401	778.5658	844.3221	866.9102	892.1686	948.2518	967.41	978.4289	1014.16	1042.049	1066.1068	1085.2884	1092.9528	1101.6397	1153.4271	1192.9858	1229.081	1258.6258	1313.5323	1330.2876	1376.6677	1408.9379	1458.2077	1505.0175	1521.368	1590.3334	1792.7211	3012.2612	3035.6499	3057.9739	3124.5892	3130.5012	3207.8859	3225.3812	3592.9405	3735.8993
NC(=O)C1OCC11CC1	NC(=O)[C@H]1OCC21CC2	
InChI=1S/C6H9NO2/c7-5(8)4-6(1-2-6)3-9-4/h4H,1-3H2,(H2,7,8)	InChI=1S/C6H9NO2/c7-5(8)4-6(1-2-6)3-9-4/h4H,1-3H2,(H2,7,8)/t4-/m1/s1
