18
gdb 45754	3.03717	1.34322	0.98293	3.0151	77.58	-0.215	-0.002	0.213	1190.0343	0.148655	-401.978221	-401.970074	-401.969129	-402.011547	30.944	
O	 0.2787333272	 0.0595175637	-0.0313165205	-0.370211
C	 0.1045606377	 1.2552553188	 0.0044981087	 0.409386
N	-1.1182887831	 1.9023263381	-0.0337469655	-0.324454
C	-0.9640396153	 3.2953621462	 0.0465429736	-0.030258
C	 0.3255148951	 3.6364702414	 0.1199254467	-0.152626
C	 1.1655494974	 2.380000848	 0.1019527173	-0.186243
C	 2.0861881241	 2.1974298874	 1.29491114	 0.041138
C	 3.2047035246	 1.1923981217	 1.2329935509	-0.251959
C	 3.5188407562	 2.6684596339	 1.2297300695	-0.285841
H	-1.9935551094	 1.4077917387	-0.0757268305	 0.260103
H	-1.8425906149	 3.9248939972	 0.0374735192	 0.12844
H	 0.7170738788	 4.6393692078	 0.1943538151	 0.108705
H	 1.7721834579	 2.3209048789	-0.8131092682	 0.109386
H	 1.5874083825	 2.3076948779	 2.2536880107	 0.086063
H	 3.4250449553	 0.6185910722	 2.1257046349	 0.113327
H	 3.3284507174	 0.6376633919	 0.3101246091	 0.124615
H	 3.8657592164	 3.112937081	 0.3022372062	 0.109106
H	 3.9554137722	 3.1073222751	 2.1199727328	 0.111322
63.8316	85.7603	150.7443	227.6977	298.4803	366.448	437.5146	510.5508	535.4815	660.7387	686.8354	719.4526	771.4615	806.5356	834.155	875.7	894.3604	909.8621	933.52	989.9959	1036.8458	1057.1613	1073.736	1077.6214	1128.5967	1135.9416	1169.2146	1193.9114	1196.4804	1226.1894	1243.0599	1266.3042	1372.0367	1402.7886	1408.7236	1471.7664	1506.1757	1667.7581	1834.014	3009.6041	3129.6049	3142.5821	3146.9717	3210.154	3230.1001	3231.5097	3257.8011	3666.0365
O=C1NC=CC1C1CC1	O=C1NC=C[C@H]1C1CC1	
InChI=1S/C7H9NO/c9-7-6(3-4-8-7)5-1-2-5/h3-6H,1-2H2,(H,8,9)	InChI=1S/C7H9NO/c9-7-6(3-4-8-7)5-1-2-5/h3-6H,1-2H2,(H,8,9)/t6-/m0/s1
