16
gdb 45038	2.3991	1.70301	1.14411	2.434	69.88	-0.2448	-0.0418	0.2029	1042.8387	0.124182	-437.897007	-437.889359	-437.888415	-437.930313	28.828	
O	-0.034540985	 0.0984595619	 0.6293403385	-0.292257
C	-0.0522565406	 1.1685951733	 0.0763944011	 0.368365
C	-1.3669432387	 1.7726568117	-0.4351223772	-0.263825
N	-1.4160270683	 3.1934201387	-0.762203678	-0.089402
C	-0.8354174243	 4.1421404971	 0.1580527304	-0.255783
C	-0.16658214	 3.8658340597	-1.1627720151	-0.116586
C	 1.111087876	 3.0952958717	-1.1883849064	 0.401819
O	 1.9883973064	 3.3497790505	-1.9823476048	-0.318029
C	 1.2343142862	 1.9551764229	-0.1879414623	-0.444013
H	-1.6194746257	 1.2126537871	-1.3462776398	 0.152124
H	-2.1497879605	 1.548033968	 0.2950902053	 0.149365
H	-1.3752981739	 5.0774594185	 0.2752274509	 0.139447
H	-0.3521553572	 3.7831525223	 1.0649070283	 0.123515
H	-0.2632118826	 4.5860123945	-1.9695580923	 0.120734
H	 1.5465341975	 2.3721121801	 0.7797946199	 0.163027
H	 2.0292302507	 1.2738761621	-0.5002514784	 0.1615
25.7599	104.8923	253.7863	327.2177	390.666	407.7105	461.7998	492.5333	513.1318	527.8758	636.9824	745.7931	787.2879	821.6235	847.8646	899.9118	979.3613	1003.0545	1048.2729	1094.9051	1109.4916	1141.5942	1170.0185	1178.5297	1253.34	1272.0646	1284.5002	1312.3148	1335.6434	1369.3361	1415.681	1445.1866	1509.9282	1796.0006	1825.1617	3025.0979	3029.9878	3095.9178	3101.3383	3114.899	3164.0022	3189.2307
O=C1CN2CC2C(=O)C1	O=C1CN2C[C@H]2C(=O)C1	
InChI=1S/C6H7NO2/c8-4-1-6(9)5-3-7(5)2-4/h5H,1-3H2	InChI=1S/C6H7NO2/c8-4-1-6(9)5-3-7(5)2-4/h5H,1-3H2/t5-,7?/m0/s1
