20
gdb 10174	3.20592	1.06947	0.84636	0.998	77.21	-0.2576	0.0515	0.3091	1381.59	0.174324	-348.972263	-348.962128	-348.961184	-349.00744	35.973	
C	-1.5191265171	-0.2653404588	-0.0210943506	-0.391385
C	-0.0004766409	-0.0945042592	 0.0345628693	-0.172999
C	 0.7369062647	-0.6273267126	-1.217662559	-0.153656
C	 2.2428247404	-0.291850444	-1.157195646	-0.174571
C	 3.0082474108	-0.6682506179	-2.4189806473	-0.085482
O	 4.3536337453	-0.2477435276	-2.2429740518	-0.421781
C	 0.5145522345	-2.0637620175	-1.3912001782	 0.357384
C	 0.3390412219	-3.2481253526	-1.5087048839	-0.499269
H	-1.9467776692	 0.2687481065	-0.8771663878	 0.112086
H	-1.7934228871	-1.3200244135	-0.1146384149	 0.131934
H	-1.9891062314	 0.1287175484	 0.8850338351	 0.112978
H	 0.250719525	 0.967556418	 0.1412034814	 0.096828
H	 0.4018718573	-0.6028233239	 0.9187946604	 0.106539
H	 0.3117617515	-0.1142630038	-2.0938973127	 0.100496
H	 2.35544268	 0.7855040997	-0.9910082734	 0.105012
H	 2.6999606521	-0.7994684228	-0.3006142526	 0.11281
H	 2.9435564922	-1.7533579708	-2.5834518778	 0.1017
H	 2.5485452557	-0.1755480141	-3.2925827925	 0.080502
H	 4.8616915895	-0.5453945691	-3.0029135729	 0.285608
H	 0.180455625	-4.2918730144	-1.6232107347	 0.195269
78.7341	88.9248	108.8752	143.1399	164.0069	220.5313	254.9137	261.1326	313.2661	350.6862	431.0866	534.3716	598.6154	625.3788	633.8804	760.0511	794.2805	860.7429	930.8784	1002.8237	1022.8196	1048.6605	1070.3368	1104.3084	1134.2744	1138.098	1222.6285	1243.1871	1279.9599	1301.9126	1313.5409	1351.4298	1365.7148	1373.9442	1412.7118	1464.5116	1482.7819	1493.1378	1497.1494	1508.1249	1529.5004	2227.5023	2958.4287	2989.3077	3014.7625	3028.9624	3034.6571	3041.3435	3066.7747	3088.6514	3101.3455	3116.4754	3502.9142	3833.0223
CCC(CCO)C#C	CC[C@@H](CCO)C#C	
InChI=1S/C7H12O/c1-3-7(4-2)5-6-8/h1,7-8H,4-6H2,2H3	InChI=1S/C7H12O/c1-3-7(4-2)5-6-8/h1,7-8H,4-6H2,2H3/t7-/m0/s1
