19
gdb 109733	2.04049	1.60391	1.06426	5.0056	72.84	-0.2454	0.0295	0.2748	1172.5193	0.159292	-456.359468	-456.350075	-456.349131	-456.393436	35.082	
C	 0.1749600506	 1.4901556436	 0.3851496184	-0.408925
C	-0.1156339489	 0.062675654	-0.0196525531	-0.035035
C	 0.4725277506	-0.5977765062	-1.2402110365	-0.035231
C	 1.4390780125	 0.0796134188	-2.195635118	-0.080646
O	 2.355812327	-0.84251033	-2.7359240319	-0.426395
N	 0.8885358262	-0.9954792687	 0.0973007298	-0.131953
C	 2.1813647461	-0.8789845184	 0.5916496752	 0.418161
N	 2.2324442712	-0.5463233738	 1.9245274373	-0.52819
O	 3.1905196068	-1.095556046	-0.0655851443	-0.395186
H	 1.1735255678	 1.8169097774	 0.0908165534	 0.140554
H	-0.5577550465	 2.1602804725	-0.0762080494	 0.130704
H	 0.095488835	 1.6073185085	 1.4707390071	 0.124497
H	-1.1110570922	-0.2736746351	 0.2708995889	 0.098732
H	-0.13599265	-1.3577777618	-1.7290007729	 0.105737
H	 0.8641294201	 0.4927169575	-3.032999357	 0.105589
H	 1.9504105937	 0.9184885865	-1.7036461406	 0.088333
H	 2.8827579496	-1.1411963471	-1.9748488664	 0.300644
H	 1.4187877848	-0.7258255995	 2.4902625209	 0.262282
H	 3.1251505657	-0.7054667323	 2.364472109	 0.266326
86.9707	148.6028	160.4219	171.1389	191.511	226.6408	280.3852	389.127	449.6201	461.6743	483.714	532.0722	548.1226	622.0009	675.5033	726.9806	778.4185	827.4835	859.2498	984.4815	1004.0405	1051.4307	1085.7289	1102.9414	1121.7253	1145.2521	1160.8938	1195.8604	1250.0432	1294.3995	1355.8381	1402.216	1417.4399	1422.138	1455.7985	1477.3545	1488.5258	1491.3883	1500.2627	1616.8578	1756.7766	3004.6003	3044.1933	3058.6367	3098.6279	3102.3701	3118.8593	3141.8399	3591.3856	3645.7188	3713.8338
CC1C(CO)N1C(N)=O	C[C@H]1[C@@H](CO)N1C(=O)N	
InChI=1S/C5H10N2O2/c1-3-4(2-8)7(3)5(6)9/h3-4,8H,2H2,1H3,(H2,6,9)	InChI=1S/C5H10N2O2/c1-3-4(2-8)7(3)5(6)9/h3-4,8H,2H2,1H3,(H2,6,9)/t3-,4+,7?/m0/s1
