22
gdb 64248	3.14341	1.20882	1.16064	2.2437	81.81	-0.2427	0.0742	0.317	1204.4251	0.193844	-404.337507	-404.328324	-404.32738	-404.371264	35.638	
C	 0.1543539423	 1.4097289517	 0.1212328266	-0.42607
C	-0.0652135458	-0.1006650018	-0.0572326609	 0.391256
C	-1.5511383648	-0.4445042519	-0.0645320555	-0.430706
C	 0.7010232804	-0.650826631	-1.2794781785	-0.33392
C	 2.0996852147	-0.8468579706	-0.719333846	 0.305658
C	 3.2406051201	-1.3688687741	-1.4997802492	-0.307701
N	 3.2156952045	 0.0472266839	-1.0770412389	-0.348744
C	 1.8857808564	-1.1218611656	 0.7689956775	-0.122866
O	 0.5235240789	-0.8111850972	 1.0487742722	-0.302044
H	 1.2202865587	 1.6559835767	 0.1219544564	 0.130273
H	-0.3280231325	 1.9755453018	-0.6831723348	 0.106482
H	-0.2708745899	 1.7361804009	 1.0745397869	 0.122072
H	-2.0584290495	 0.0396033873	-0.9051328685	 0.110649
H	-1.6919659934	-1.5259386523	-0.1454348251	 0.116386
H	-2.0251220379	-0.1063760245	 0.8616360937	 0.122858
H	 0.2690518556	-1.6122363598	-1.5803580526	 0.104461
H	 0.6770565478	 0.0182655217	-2.1447470182	 0.095731
H	 4.0022097444	-1.975049169	-1.0151158721	 0.118531
H	 3.0809263698	-1.6054159578	-2.5493313406	 0.110896
H	 2.9549194659	 0.632765045	-1.867561866	 0.226136
H	 2.0510057701	-2.1759871285	 1.0249654137	 0.100419
H	 2.5708591443	-0.5075683348	 1.3670013898	 0.110242
56.9971	106.6299	208.6763	236.0984	270.1217	272.4465	332.9081	380.4995	390.7894	415.5841	454.3297	506.5072	623.8113	780.5955	788.1297	836.2671	861.3001	907.7639	913.8792	940.1287	953.9843	960.7224	991.4848	1019.2571	1065.7475	1071.6839	1078.8655	1127.116	1147.3497	1197.6675	1222.7934	1229.3351	1265.0483	1276.8498	1313.1752	1325.8588	1350.7963	1399.6684	1413.3709	1423.9395	1473.0952	1481.349	1488.3166	1498.5272	1507.273	1515.6004	1523.3893	3012.8399	3033.573	3035.3554	3041.7481	3049.7994	3088.9921	3098.3701	3105.0144	3112.6569	3116.6851	3119.2896	3180.7438	3486.6774
CC1(C)CC2(CN2)CO1	CC1(C)C[C@]2(CN2)CO1	
InChI=1S/C7H13NO/c1-6(2)3-7(4-8-7)5-9-6/h8H,3-5H2,1-2H3	InChI=1S/C7H13NO/c1-6(2)3-7(4-8-7)5-9-6/h8H,3-5H2,1-2H3/t7-/m0/s1
