15
gdb 123675	4.26173	1.59184	1.38821	2.7427	70.43	-0.2289	0.0188	0.2478	906.9282	0.116759	-416.762569	-416.756579	-416.755634	-416.792768	24.694	
C	-0.0630683614	 1.5806847921	-0.0547998029	-0.21994
C	 1.4792985222	 1.3455911512	 0.0269478107	-0.104284
O	 1.1715964647	 0.1639138346	 0.8638221856	-0.290274
C	-0.0007066249	 0.0206296046	-0.0250889153	-0.06924
C	 0.7037719657	-0.2653418425	-1.3382672158	 0.392352
N	 0.698809489	-1.0271751845	-2.4084139535	-0.364204
N	 1.7818416057	-0.5620743039	-3.0970378682	-0.19621
C	 2.4503647064	 0.4591718334	-2.4627657748	-0.275829
C	 1.7593455255	 0.6775166959	-1.3056405897	 0.311512
H	-0.4640767913	 1.9879636332	 0.8754702189	 0.113198
H	-0.4758845076	 2.0780408802	-0.9353005924	 0.10663
H	 2.1754093512	 2.0466731985	 0.481338557	 0.089582
H	-0.7908218126	-0.6183453853	 0.3608753345	 0.097508
H	 2.0276039187	-1.005047986	-3.9656270961	 0.272371
H	 3.3258005487	 0.9055869584	-2.9072465681	 0.136827
155.2142	311.0902	396.8038	433.1459	480.0577	569.2958	632.1959	687.3484	704.4437	768.2083	790.2665	828.9128	843.6904	884.7357	922.586	970.8967	1010.9178	1030.9973	1037.3345	1061.5939	1120.2929	1156.1807	1163.3916	1222.9412	1252.2172	1260.9336	1275.4512	1292.5346	1402.8458	1449.5819	1481.3178	1540.6957	1649.6848	3066.642	3139.6316	3153.8311	3163.1259	3259.7492	3680.414
C1C2OC1C1=NNC=C21	C1[C@H]2O[C@@H]1c1n[nH]cc21	
InChI=1S/C6H6N2O/c1-4-3-2-7-8-6(3)5(1)9-4/h2,4-5H,1H2,(H,7,8)	InChI=1S/C6H6N2O/c1-4-3-2-7-8-6(3)5(1)9-4/h2,4-5H,1H2,(H,7,8)/t4-,5+/m1/s1
