24
gdb 100311	1.9401	1.48395	1.06421	1.3552	84.75	-0.2289	0.0796	0.3085	1278.2629	0.215526	-405.512713	-405.502061	-405.501117	-405.547921	40.236	
C	-0.8675173523	 1.9574319647	-0.1467974469	-0.404349
C	-0.4392853525	 0.5198240218	 0.1677601031	-0.175177
C	-1.4820141574	-0.5958333262	-0.0739577563	 0.248864
C	-2.019392482	-0.5792692934	-1.5167546601	-0.447958
C	-0.757124383	-1.9407392979	 0.1702671051	-0.068225
O	-1.6062345835	-3.0713962805	 0.0772903355	-0.430402
N	-2.503246358	-0.50516102	 0.9950752951	-0.101518
C	-3.6214024821	 0.4244147494	 0.9213217627	-0.228776
C	-3.8514000621	-1.0403178495	 0.8110803852	-0.246926
H	-0.0324309169	 2.6429622736	 0.0293424862	 0.113313
H	-1.1711525451	 2.0764135564	-1.1915944977	 0.11466
H	-1.696439165	 2.2849479539	 0.4858027563	 0.126114
H	 0.4474695671	 0.2786431819	-0.4330522008	 0.091699
H	-0.1310066977	 0.4600743319	 1.2178243678	 0.102469
H	-1.1862280742	-0.4823396455	-2.2203370044	 0.114859
H	-2.5337749904	-1.5156425192	-1.7449843168	 0.135102
H	-2.701371273	 0.2534842194	-1.7087524274	 0.113236
H	 0.0141075835	-2.0784972324	-0.5952756116	 0.100517
H	-0.2615980727	-1.8998319334	 1.1505442853	 0.089717
H	-2.1976078466	-3.0393315882	 0.8355911998	 0.292039
H	-3.8472583198	 0.9574019459	 1.8414958293	 0.114127
H	-3.7693890565	 1.0087106511	 0.0165502839	 0.114538
H	-4.1440827088	-1.419531931	-0.164014533	 0.121844
H	-4.2534741011	-1.5996467128	 1.6531226798	 0.110234
70.9427	93.8738	126.1759	196.9374	212.7954	241.8092	256.6756	289.456	297.6887	360.5961	380.1482	393.8951	418.5796	462.8399	600.5186	646.5225	771.3529	816.6616	846.2998	892.8551	905.3686	930.7655	981.2987	1011.5592	1029.4423	1042.8573	1056.8861	1096.499	1113.2761	1123.4499	1160.8225	1168.0811	1174.9984	1199.8074	1231.449	1254.4259	1306.7951	1343.5737	1375.6052	1384.1826	1409.2139	1410.707	1419.9415	1473.8753	1482.2192	1488.1283	1496.9247	1505.2392	1508.2514	1513.6903	1525.4925	3002.4749	3019.559	3041.6318	3045.2832	3061.8737	3075.2908	3099.4388	3101.8871	3103.8481	3107.1073	3120.6558	3126.6418	3177.1643	3191.6061	3828.8744
CCC(C)(CO)N1CC1	CC[C@@](C)(CO)N1CC1	
InChI=1S/C7H15NO/c1-3-7(2,6-9)8-4-5-8/h9H,3-6H2,1-2H3	InChI=1S/C7H15NO/c1-3-7(2,6-9)8-4-5-8/h9H,3-6H2,1-2H3/t7-/m0/s1
