14
gdb 44716	3.48602	1.35806	1.16235	3.7896	61.73	-0.2609	-0.0119	0.2489	1018.1103	0.102808	-473.890047	-473.883106	-473.882162	-473.921962	26.108	
O	 0.0331529432	 0.0584098426	-0.5910875352	-0.310824
C	 0.0470261744	 1.156712583	-0.143991003	 0.45316
O	-0.9721460551	 1.8283384023	 0.490551242	-0.250711
C	-0.1626597946	 3.0401153792	 0.6703820667	 0.111077
C	 0.2133940906	 3.3077214568	 2.1171513182	-0.359688
C	 1.5703795452	 2.6135593206	 2.32117265	 0.399393
O	 2.1735914552	 2.4808286506	 3.3566170762	-0.350933
N	 1.9989360264	 2.1829555107	 1.0812739936	-0.294689
C	 1.0468650026	 2.3269334491	 0.0133528304	-0.213342
H	-0.6160353985	 3.8713522865	 0.1327811306	 0.115276
H	 0.3216261058	 4.3758962962	 2.3256351665	 0.145575
H	-0.5239524391	 2.9043639092	 2.8144750149	 0.162418
H	 2.8308372245	 1.6183206864	 1.0035110075	 0.268663
H	 1.4739327692	 2.7197479668	-0.9111399985	 0.124624
83.59	115.1757	246.2886	357.1751	450.8653	465.8172	499.708	586.3278	646.1473	662.2646	746.6106	813.3569	852.5577	863.8656	881.5854	957.9322	1001.8465	1035.1498	1098.978	1118.2751	1175.426	1205.6677	1235.5031	1280.1578	1313.124	1333.4067	1366.9735	1421.531	1446.7272	1846.4712	1946.211	3076.4474	3097.7499	3126.898	3132.7489	3638.8557
O=C1OC2CC(=O)NC12	O=C1O[C@H]2CC(=O)N[C@@H]12	
InChI=1S/C5H5NO3/c7-3-1-2-4(6-3)5(8)9-2/h2,4H,1H2,(H,6,7)	InChI=1S/C5H5NO3/c7-3-1-2-4(6-3)5(8)9-2/h2,4H,1H2,(H,6,7)/t2-,4+/m0/s1
