19
gdb 126947	6.13011	0.79031	0.71274	1.2985	81.59	-0.1996	0.0108	0.2105	1615.8148	0.160465	-415.39398	-415.384548	-415.383604	-415.429484	32.975	
C	-0.0973743614	 1.5168593324	-0.0388179894	-0.397857
C	-0.0717423697	-0.0024019798	-0.1679576582	-0.115486
N	-1.3717414007	-0.5661696509	 0.1685091433	-0.387001
C	-1.5459242504	-1.9347658723	 0.0999829484	 0.379969
N	-2.7573887071	-2.482268597	-0.0470044512	-0.355376
N	-2.5117742233	-3.7975010012	-0.010428188	 0.158346
C	-3.5722133761	-4.7711740765	-0.1345753598	-0.307711
N	-1.2462180589	-4.1419240589	 0.138411514	-0.224214
C	-0.5991247841	-2.9745428441	 0.2105001675	-0.139971
H	 0.8862162051	 1.9377768381	-0.2640942164	 0.123012
H	-0.8157832368	 1.9593344318	-0.7384803934	 0.118283
H	-0.3814812053	 1.8156134066	 0.9742728198	 0.131936
H	 0.2537614308	-0.2892995896	-1.1822635055	 0.096162
H	 0.6691777825	-0.4152020109	 0.5272850222	 0.115295
H	-2.1552267128	-0.061571398	-0.2238556231	 0.238515
H	-4.0867680126	-4.6506632569	-1.0919687383	 0.145966
H	-3.1160368663	-5.7584142629	-0.0785070301	 0.159472
H	-4.2964818019	-4.6470213325	 0.6751616946	 0.147486
H	 0.4702038591	-2.9378922977	 0.3335751135	 0.113175
48.8517	66.3962	78.9398	126.4079	183.706	258.413	315.1775	338.3168	357.8614	480.0757	579.9822	656.6983	727.4825	732.5294	788.1345	813.5674	824.8157	935.0999	1015.2792	1035.4525	1070.2871	1091.596	1150.3335	1153.6021	1188.3184	1214.5946	1293.8232	1329.4392	1365.919	1388.6582	1411.892	1425.8708	1448.0341	1448.9729	1475.7131	1490.0617	1499.8287	1508.2305	1518.4726	1529.2155	1606.2935	2958.3727	3035.6701	3044.1552	3050.9474	3104.716	3113.2814	3123.956	3173.6603	3277.5165	3581.5858
CCNC1=NN(C)N=C1	CCNc1nn(C)nc1	
InChI=1S/C5H10N4/c1-3-6-5-4-7-9(2)8-5/h4H,3H2,1-2H3,(H,6,8)	InChI=1S/C5H10N4/c1-3-6-5-4-7-9(2)8-5/h4H,3H2,1-2H3,(H,6,8)
