20
gdb 38066	3.37074	1.43205	1.25539	1.4246	84.21	-0.229	0.0122	0.2412	1074.159	0.173397	-365.980389	-365.973	-365.972056	-366.012078	30.294	
C	-0.0537409171	 1.5546362495	-0.1046292542	-0.213682
C	 1.490040811	 1.5474886801	 0.0546225581	-0.253705
C	 1.4047852675	 0.0941522983	 0.6209203898	 0.371207
C	-0.0343316333	 0.0081813516	 0.0133198263	-0.277473
C	 2.4379244599	-0.9257698432	 0.2134995743	-0.17428
C	 2.9715604676	-1.5744443405	 1.2520851037	-0.064119
C	 2.4130729597	-1.0478492301	 2.5317398658	-0.09566
N	 2.7364738968	 0.398371632	 2.7392978408	-0.339352
C	 1.4395925515	 0.0073489065	 2.1474831141	-0.127809
H	-0.5522358711	 2.027100635	 0.7465901105	 0.10012
H	-0.4649872316	 1.982173427	-1.021799723	 0.095331
H	 2.0001724461	 1.5708373865	-0.9129636816	 0.096082
H	 1.9530900327	 2.2863652411	 0.7119196953	 0.110156
H	-0.7988876714	-0.4748428892	 0.6291935664	 0.094054
H	-0.0228729737	-0.479520881	-0.9658265194	 0.098043
H	 2.7142361404	-1.0666994784	-0.8266629808	 0.090693
H	 3.7340237598	-2.3424822198	 1.2021387924	 0.097391
H	 2.2898620405	-1.6807895362	 3.4040956602	 0.086753
H	 2.580738104	 0.6239786599	 3.7212558525	 0.224194
H	 0.5316045102	 0.1896301809	 2.7143374287	 0.082053
118.4192	136.4744	210.991	326.6602	387.2264	429.4398	476.0745	589.3275	670.2841	740.3968	762.9215	799.9267	802.4779	840.4838	854.1312	880.3192	910.514	922.6659	938.7688	951.2428	971.5275	974.8422	1029.3459	1056.9483	1083.0867	1104.5687	1129.0989	1158.5728	1174.7756	1203.8312	1213.0935	1251.4208	1253.7572	1272.2018	1272.6063	1291.3921	1337.8648	1394.6777	1406.5841	1474.44	1485.4213	1506.2635	1657.8718	3046.7235	3056.0146	3059.7677	3093.0115	3108.0179	3120.8555	3150.9241	3168.6212	3177.6614	3210.9148	3467.2537
C1CC2(C1)C=CC1NC21	C1CC2(C1)C=C[C@H]1N[C@@H]21	
InChI=1S/C8H11N/c1-3-8(4-1)5-2-6-7(8)9-6/h2,5-7,9H,1,3-4H2	InChI=1S/C8H11N/c1-3-8(4-1)5-2-6-7(8)9-6/h2,5-7,9H,1,3-4H2/t6-,7-/m1/s1
