23
gdb 118157	3.44763	0.78489	0.67443	2.1433	82.66	-0.2435	0.0736	0.3171	1713.9492	0.204074	-425.393864	-425.383354	-425.38241	-425.430439	36.884	
C	 0.0008069191	 1.3554614242	-0.0880616253	-0.228745
O	 0.0202688039	-0.0487861139	-0.0068663458	-0.233114
C	-1.2699264891	-0.6193270811	-0.0032388399	-0.053437
C	-1.1437297883	-2.1389107463	 0.1146653096	-0.021677
C	-0.4609892766	-2.5375541694	 1.4294803248	-0.399248
C	-2.514201284	-2.7964559064	-0.0290127299	-0.014232
C	-3.2161428389	-2.766302655	-1.4076133451	-0.094697
O	-3.33999092	-4.2016847311	-1.4288198163	-0.272753
C	-2.5697510633	-4.3304448259	-0.2169914889	-0.094238
H	 1.0382161501	 1.6987820853	-0.0904044764	 0.127519
H	-0.4910990551	 1.70520766	-1.0098648351	 0.103595
H	-0.5217219319	 1.8080201618	 0.7699141116	 0.10358
H	-1.8629471446	-0.2228829967	 0.8413411433	 0.080703
H	-1.806745033	-0.3470909176	-0.9287999387	 0.084953
H	-0.513254124	-2.4730818896	-0.7214707103	 0.08367
H	-1.0732821534	-2.2436452906	 2.2908635675	 0.108527
H	-0.3040885043	-3.6194910331	 1.484760309	 0.113102
H	 0.5088284378	-2.0441104913	 1.5210770879	 0.135263
H	-3.1749315749	-2.45868911	 0.7765778138	 0.076009
H	-4.1922062795	-2.2693998404	-1.4573556684	 0.100779
H	-2.5888001215	-2.3978080339	-2.2322702721	 0.096024
H	-1.5937648073	-4.8017106475	-0.4013455627	 0.09672
H	-3.1018173412	-4.9063024118	 0.5490652572	 0.101697
57.5079	74.9019	103.6618	106.735	127.407	219.3678	223.3033	238.9527	307.8866	339.7282	376.4994	443.3513	524.8338	750.5887	862.0777	895.1808	904.2581	931.3327	977.342	984.7506	996.9721	1018.5372	1044.4888	1090.99	1137.6128	1156.5298	1163.349	1164.4271	1171.4076	1191.3241	1205.6656	1233.4733	1267.2705	1274.4534	1295.7789	1310.0422	1356.5819	1374.2734	1398.8376	1407.4524	1426.9487	1480.5493	1485.738	1492.3399	1502.8724	1505.1874	1510.2539	1527.2008	1536.3483	2934.9121	2963.564	2969.3265	2990.3677	3000.5954	3010.9746	3012.7595	3029.558	3039.1227	3049.7339	3063.7564	3093.7569	3113.5066	3129.7769
COCC(C)C1COC1	COC[C@@H](C)C1COC1	
InChI=1S/C7H14O2/c1-6(3-8-2)7-4-9-5-7/h6-7H,3-5H2,1-2H3	InChI=1S/C7H14O2/c1-6(3-8-2)7-4-9-5-7/h6-7H,3-5H2,1-2H3/t6-/m1/s1
