14
gdb 53204	3.26122	1.04327	0.85768	1.7426	70.77	-0.2596	-0.032	0.2277	1325.5287	0.09993	-436.700402	-436.691903	-436.690958	-436.735968	28.893	
C	-0.0237925208	 1.5059341247	-0.0158805788	-0.498896
C	 0.0275595849	 0.0531434664	 0.0328157499	 0.069043
C	 0.0743092845	-1.1477761687	 0.0730673223	 0.123579
C	 0.1052440372	-2.6006584866	 0.1172738989	-0.31419
N	 0.5334921503	-3.1432837924	 1.4226943568	-0.231522
C	-0.4127548936	-3.8957549673	 1.794649092	 0.126943
O	-1.5199812681	-4.0338977946	 0.9923918474	-0.201159
C	-1.2857659832	-3.2309318365	-0.1232623278	 0.431431
O	-2.0536386374	-3.1349482982	-1.0216209135	-0.29811
H	 0.7108370822	 1.9052228491	-0.7231089675	 0.155261
H	-1.0140704075	 1.8541140038	-0.3281064371	 0.157997
H	 0.1884068315	 1.9387042691	 0.9675415792	 0.156926
H	 0.7818684346	-2.986436119	-0.6581183979	 0.159693
H	-0.4518380446	-4.4704105099	 2.7122579659	 0.163004
15.9527	72.1734	84.783	170.3469	260.4673	301.6445	408.2639	431.0387	510.8222	518.1538	662.4203	700.888	849.7752	858.4814	871.5519	953.8403	986.2932	1050.2805	1052.9168	1058.1862	1136.3762	1187.9675	1234.6403	1303.7623	1338.5123	1413.4166	1474.985	1476.2969	1699.4949	1931.4672	2381.6396	3016.3174	3032.1294	3096.0395	3096.4945	3226.5987
CC#CC1N=COC1=O	CC#C[C@H]1N=COC1=O	
InChI=1S/C6H5NO2/c1-2-3-5-6(8)9-4-7-5/h4-5H,1H3	InChI=1S/C6H5NO2/c1-2-3-5-6(8)9-4-7-5/h4-5H,1H3/t5-/m1/s1
