21
gdb 63741	3.17356	1.22703	1.19921	1.2038	86.46	-0.2088	0.0178	0.2266	1189.4408	0.180575	-387.092527	-387.0835	-387.082556	-387.125988	35.562	
C	 0.2209343621	 1.4165026885	-0.1986842152	-0.405785
C	-0.1087690571	-0.0618851367	 0.0512710773	 0.311378
C	-1.6239566758	-0.2752274156	 0.175658201	-0.405796
O	 0.3706092341	-0.833886652	-1.0746966426	-0.339149
C	 1.3258548812	-1.7802034389	-0.6461706095	 0.421618
C	 1.3648519327	-3.1126077011	-1.3508124029	-0.328041
C	 2.4701629015	-2.098462442	-1.5749754634	-0.328035
C	 1.4647185156	-1.6084247082	 0.8151394412	-0.167308
C	 0.6563223505	-0.6366021023	 1.2243697914	-0.133909
H	 1.2996680965	 1.5517267079	-0.3108198592	 0.119832
H	-0.2701822262	 1.7622164367	-1.1134672705	 0.120205
H	-0.1240062564	 2.0396599495	 0.6331756943	 0.108181
H	-2.1272790604	 0.0591466914	-0.7367020387	 0.12021
H	-1.847531375	-1.3341718309	 0.327898137	 0.119832
H	-2.0302351114	 0.2918256673	 1.0198667502	 0.10818
H	 1.5803746069	-4.0044022184	-0.7715127711	 0.110994
H	 0.6451544829	-3.2489613657	-2.1502597126	 0.124102
H	 2.4755700489	-1.5695173395	-2.5214737394	 0.124098
H	 3.450640356	-2.2883877676	-1.1507963402	 0.11099
H	 2.1354894935	-2.206108341	 1.419038387	 0.108037
H	 0.5293961398	-0.2743097114	 2.2366453258	 0.100367
49.6469	166.8385	202.6942	229.4192	268.2815	307.9121	327.0114	329.1978	402.2745	478.2511	519.8541	586.9444	649.4795	760.8132	762.7748	813.6607	863.7157	872.8143	888.887	918.5121	922.5116	923.7042	940.87	977.8731	1009.836	1012.2841	1058.0421	1062.7255	1090.6849	1187.6069	1192.2769	1195.5562	1228.5239	1289.5299	1326.8488	1391.059	1396.8857	1414.3519	1449.602	1474.8181	1481.16	1489.0511	1494.2205	1504.1051	1681.6075	3033.7665	3038.9442	3104.4571	3111.24	3120.8381	3123.0897	3128.6594	3131.2614	3203.9332	3214.5284	3227.8448	3229.9855
CC1(C)OC2(CC2)C=C1	CC1(C)OC2(CC2)C=C1	
InChI=1S/C8H12O/c1-7(2)3-4-8(9-7)5-6-8/h3-4H,5-6H2,1-2H3	InChI=1S/C8H12O/c1-7(2)3-4-8(9-7)5-6-8/h3-4H,5-6H2,1-2H3
