18
gdb 99677	2.52588	1.1838	0.86679	2.4955	72.48	-0.2603	0.0079	0.2682	1324.7816	0.146395	-439.055946	-439.046509	-439.045565	-439.091362	32.391	
C	-0.1013036815	 1.4117916232	-0.0931918891	-0.252951
O	-0.0934872864	 0.0336329314	 0.2444148794	-0.236051
C	-1.3290618995	-0.6136221032	 0.0669228939	-0.027322
C	-1.7059704067	-0.6899779457	-1.3658530242	 0.266698
N	-1.993449112	-0.7503001489	-2.483471014	-0.322464
C	-1.2140206951	-2.0112801647	 0.6692458203	-0.046278
C	-1.1704077089	-2.0235275831	 2.2106859226	-0.090797
O	-2.5091536098	-2.5574713829	 2.2836268759	-0.270899
C	-2.5526675401	-2.756923915	 0.8557966442	-0.092806
H	 0.8968589523	 1.7929897508	 0.1284826466	 0.142044
H	-0.3185004542	 1.5654843214	-1.1583211408	 0.137772
H	-0.8406707989	 1.9646602686	 0.5043022761	 0.116278
H	-2.1334828572	-0.0623834173	 0.5840213151	 0.11924
H	-0.4197893874	-2.5586184139	 0.1605477909	 0.108135
H	-0.4293643818	-2.7096121829	 2.6386444926	 0.108108
H	-1.0802219584	-1.0479345052	 2.7014170727	 0.113594
H	-3.4384231771	-2.3004586192	 0.3976989133	 0.115387
H	-2.5215542373	-3.8192522335	 0.5852490144	 0.112311
62.3361	70.819	106.2329	129.3197	172.0786	197.7399	261.2477	329.3262	371.0003	446.2534	520.7134	604.6295	832.7881	862.8033	880.2006	930.3612	969.0461	984.2044	1036.2542	1068.9977	1081.1303	1135.964	1153.6915	1157.2951	1182.9691	1187.7785	1234.3176	1247.7412	1289.6847	1308.4785	1363.0587	1373.0139	1393.9472	1480.0195	1489.4109	1507.6716	1512.7828	1537.5166	2352.1241	2961.6293	2995.4276	3015.4985	3025.8434	3057.4988	3061.8116	3068.9179	3112.2345	3136.1302
COC(C#N)C1COC1	CO[C@@H](C#N)C1COC1	
InChI=1S/C6H9NO2/c1-8-6(2-7)5-3-9-4-5/h5-6H,3-4H2,1H3	InChI=1S/C6H9NO2/c1-8-6(2-7)5-3-9-4-5/h5-6H,3-4H2,1H3/t6-/m0/s1
