17
gdb 46298	3.26013	1.3245	1.23035	3.3994	75.78	-0.2222	0.0061	0.2282	1072.2414	0.13737	-417.996976	-417.98928	-417.988336	-418.029387	29.419	
N	-0.0517009771	 1.2228055055	-0.1900423164	-0.539772
C	 0.0155050857	-0.0104386639	 0.0098902175	 0.399177
O	 1.0976406906	-0.8147331954	 0.3191300973	-0.258341
C	 0.2625929004	-1.9983614586	 0.4491816695	-0.133918
C	-0.9954562702	-1.1721716166	 0.0072025993	 0.16663
N	-2.1540650681	-1.0716459904	 0.8673435787	-0.362368
C	-3.3312948186	-1.6643396532	 0.2234876359	-0.211583
C	-2.883544301	-1.8209323994	-1.202565165	-0.083522
C	-1.5911216516	-1.5380949647	-1.3258946811	-0.093403
H	 0.862275101	 1.6689853507	-0.0908994392	 0.226642
H	 0.5935791851	-2.7972881762	-0.2192910731	 0.116803
H	 0.2377116794	-2.3531105237	 1.4848485427	 0.109595
H	-1.996274596	-1.3708648721	 1.8181362999	 0.223263
H	-3.6254124105	-2.6366329386	 0.6546824307	 0.099679
H	-4.2064426663	-1.004508203	 0.3122455447	 0.118172
H	-3.5516749584	-2.1241276769	-1.9986438911	 0.109711
H	-1.0000271842	-1.5613720134	-2.2322341603	 0.113236
99.6963	110.8154	169.8588	261.1922	311.8895	386.1256	457.8076	537.2163	582.6068	668.1566	736.2546	780.7764	801.7184	863.4351	866.0145	915.2399	953.4688	961.393	965.4793	985.0911	1017.7088	1022.2508	1058.2206	1131.984	1151.1118	1182.9936	1198.6215	1220.9735	1236.1477	1339.756	1350.0805	1359.3986	1456.8799	1511.3929	1515.3655	1688.2612	1823.5353	2954.8179	3004.2976	3041.4151	3107.2173	3208.593	3232.6825	3469.7243	3600.949
N=C1OCC11NCC=C1	[NH][C]1OC[C@]21NCC=C2	
InChI=1S/C6H8N2O/c7-5-6(4-9-5)2-1-3-8-6/h1-2,7-8H,3-4H2	InChI=1S/C6H8N2O/c7-5-6(4-9-5)2-1-3-8-6/h1-2,7-8H,3-4H2/t6-/m1/s1
