17
gdb 54950	3.14033	1.06135	0.95083	3.353	77.36	-0.2523	-0.0387	0.2136	1288.5066	0.130891	-421.791583	-421.781722	-421.780778	-421.826522	35.338	
C	 0.6788085208	 1.425362003	 0.1792350666	-0.489828
C	-0.1407258469	 0.1577144588	 0.0401940371	 0.370287
O	-0.7904351425	-0.3079907233	 0.9468380548	-0.298175
C	-0.0929466732	-0.4796465308	-1.3281988127	-0.095889
O	-0.5228980819	-1.8243280074	-1.459398482	-0.251494
C	-1.3437420492	-0.8320331569	-2.0818112897	 0.180063
C	-2.7252381064	-0.6450994121	-1.4932157482	-0.48602
C	-1.2686832506	-0.7832177907	-3.5256955522	 0.293685
C	-1.2376766057	-0.7299948855	-4.7260512588	-0.415137
H	 1.7462748591	 1.1934666902	 0.0843023353	 0.149581
H	 0.4359769959	 2.133781215	-0.6211423021	 0.14423
H	 0.4909178171	 1.8807683999	 1.1517245141	 0.149277
H	 0.7755487915	-0.2170128568	-1.9331151785	 0.106688
H	-2.6812951839	-0.6931506903	-0.4055122272	 0.169364
H	-3.1460361578	 0.314511592	-1.8077086939	 0.129408
H	-3.3827902488	-1.4381016579	-1.8609807711	 0.140267
H	-1.2041123475	-0.6912404475	-5.7871051515	 0.203694
64.2228	101.9474	126.1453	143.9484	188.4177	214.6155	256.9399	337.2606	354.5184	406.5192	513.2376	554.2989	598.6865	620.7906	632.6107	665.6586	696.2907	822.0928	879.476	912.1519	962.8013	1000.3376	1046.8012	1098.5897	1108.6203	1193.8269	1244.3594	1312.0943	1379.5277	1408.6889	1419.2031	1462.3895	1472.7568	1486.1978	1494.9488	1811.4561	2237.0795	3033.6943	3051.4817	3092.9632	3108.969	3116.7205	3157.0002	3163.7577	3500.4582
CC(=O)C1OC1(C)C#C	CC(=O)[C@H]1O[C@]1(C)C#C	
InChI=1S/C7H8O2/c1-4-7(3)6(9-7)5(2)8/h1,6H,2-3H3	InChI=1S/C7H8O2/c1-4-7(3)6(9-7)5(2)8/h1,6H,2-3H3/t6-,7-/m1/s1
