19
gdb 48163	5.30903	0.65485	0.60086	3.9796	80.42	-0.2361	-0.0663	0.1698	1814.8648	0.158479	-419.203446	-419.193826	-419.192882	-419.239383	34.183	
N	 0.0416460149	 1.3198871957	-0.5360110891	-0.517344
C	-0.0545896551	 0.1230515345	-0.0937260601	 0.289935
N	-1.245964655	-0.5265708709	 0.058297662	-0.327653
C	-2.5176786207	 0.1514674044	-0.1409329528	-0.145268
C	-3.651206837	-0.8426412055	-0.1770905512	-0.003533
C	-4.2344011124	-1.3676390374	 1.1171471162	-0.265918
C	-5.0309155985	-0.4231088185	 0.2524194284	-0.268735
C	 1.1500026051	-0.7184314082	 0.2713366738	 0.108042
O	 2.2784381031	-0.3140282307	 0.1799375712	-0.235183
H	 1.0340136265	 1.5529423552	-0.6073525926	 0.233223
H	-1.262902556	-1.3550552759	 0.6326106233	 0.24212
H	-2.6901956262	 0.8967501516	 0.6510850416	 0.106756
H	-2.4461845813	 0.7138146802	-1.077281669	 0.141608
H	-3.5969927511	-1.5511132741	-0.9992003823	 0.094405
H	-4.5396469741	-2.4069277587	 1.1633744105	 0.116489
H	-3.8354153468	-0.9785257488	 2.0487731127	 0.114441
H	-5.1640628937	 0.5940388802	 0.6054207019	 0.120194
H	-5.8783907476	-0.8167515592	-0.2967144321	 0.119049
H	 0.9312972857	-1.7490833539	 0.6349128578	 0.077372
34.1975	64.4076	94.098	139.9742	206.8618	252.3415	276.053	348.2058	390.3018	397.2905	507.2965	577.2832	730.6949	780.5607	814.893	837.2469	869.3362	907.4292	937.8415	954.2851	1024.8227	1028.7126	1057.8455	1082.5331	1095.1612	1140.8235	1177.9254	1182.5279	1200.0572	1225.8906	1264.6958	1307.4966	1360.9981	1420.944	1440.0026	1469.1149	1501.9084	1512.4254	1543.5898	1698.4576	1834.497	2866.5452	2987.4382	3077.6701	3129.4685	3138.3686	3146.4715	3210.5196	3226.6708	3466.9178	3623.2475
N=C(NCC1CC1)C=O	N=C(NCC1CC1)C=O	
InChI=1S/C6H10N2O/c7-6(4-9)8-3-5-1-2-5/h4-5H,1-3H2,(H2,7,8)	InChI=1S/C6H10N2O/c7-6(4-9)8-3-5-1-2-5/h4-5H,1-3H2,(H2,7,8)
