13
gdb 24008	1.98549	1.86779	0.96242	0.2382	80.81	-0.2302	-0.0161	0.2141	1126.6133	0.087907	-382.254135	-382.246302	-382.245358	-382.286502	29.711	
C	 0.0398371981	-1.1900539794	-0.0042804454	-0.40672
C	 0.0144534506	 0.0131881288	 0.002520149	 0.186459
C	-0.0025681474	 1.4247243082	 0.010873391	 0.050398
C	-1.0976347837	 2.2391225141	 0.0290407584	-0.108613
O	-0.7299110834	 3.5425086168	 0.0320099567	-0.13472
C	 0.6237061597	 3.5812084649	 0.0155869914	-0.108614
C	 1.1463180474	 2.3204810258	 0.0019322899	 0.050455
C	 2.5109604404	 1.959652383	-0.0168967892	 0.186465
C	 3.6715315165	 1.6413690717	-0.0330736251	-0.40676
H	 0.0635835244	-2.2514416375	-0.0098513847	 0.188547
H	-2.1553500765	 2.0381417543	 0.0408882134	 0.157278
H	 1.076616259	 4.5580232348	 0.0156353984	 0.157275
H	 4.6949610649	 1.3593779444	-0.0477078137	 0.188551
100.2474	155.133	187.4925	195.5111	425.2745	447.602	503.9422	508.2723	566.9868	579.4331	613.339	621.2479	648.3656	658.9699	660.8415	688.0757	779.9767	780.5327	892.9251	1093.5576	1158.0242	1194.6162	1245.5151	1308.9817	1338.6393	1565.0838	1602.8186	2238.0085	2241.9883	3286.5429	3291.5246	3503.3112	3503.848
C#CC1=COC=C1C#C	C#Cc1cocc1C#C	
InChI=1S/C8H4O/c1-3-7-5-9-6-8(7)4-2/h1-2,5-6H	InChI=1S/C8H4O/c1-3-7-5-9-6-8(7)4-2/h1-2,5-6H
