15
gdb 25751	2.81202	1.58738	1.02098	3.1515	70.87	-0.2186	-0.0296	0.189	1095.1382	0.113164	-454.022408	-454.014379	-454.013435	-454.055866	29.168	
C	 0.066958845	 1.4631987055	 0.0028836422	-0.479105
C	 0.0039871043	-0.0424330362	 0.0351334905	 0.334782
O	 1.0320576884	-0.7365670079	 0.0719208863	-0.409278
C	-1.2760803355	-0.7031997496	 0.0253851131	 0.027492
C	-1.3559181841	-2.0896273527	 0.0572872703	 0.409362
O	-0.3879596832	-2.9870161489	 0.0982885621	-0.410218
N	-2.679716997	-2.3945274186	 0.038073873	-0.337694
C	-3.3622251015	-1.1823259504	-0.00475754	-0.003419
N	-2.5553957856	-0.1629250988	-0.0131997249	-0.314556
H	 1.1075779723	 1.7887116184	-0.0044739388	 0.135421
H	-0.4561372414	 1.8434020429	-0.8802576838	 0.1505
H	-0.4516372228	 1.8783994388	 0.8731893578	 0.150503
H	 0.4302608702	-2.4197707607	 0.1007956523	 0.32739
H	-3.0721335889	-3.3218226544	 0.0523252475	 0.279435
H	-4.4408279002	-1.1477733676	-0.0272720377	 0.139385
37.9585	122.9323	186.3784	187.456	315.4836	316.1093	473.7517	521.8813	535.0847	585.9024	649.7614	666.455	741.4473	749.5577	796.7903	840.6741	929.256	967.9945	1046.4749	1060.2101	1108.8205	1201.3445	1292.8167	1317.1068	1358.5648	1379.337	1448.883	1463.8912	1467.9598	1528.129	1574.6246	1615.137	1701.033	3047.4404	3109.0984	3157.3368	3253.472	3257.3121	3659.4152
CC(=O)C1=C(O)NC=N1	CC(=O)c1c(O)[nH]cn1	
InChI=1S/C5H6N2O2/c1-3(8)4-5(9)7-2-6-4/h2,9H,1H3,(H,6,7)	InChI=1S/C5H6N2O2/c1-3(8)4-5(9)7-2-6-4/h2,9H,1H3,(H,6,7)
