23
gdb 111104	2.80729	1.16474	1.06487	1.2117	85.28	-0.2558	0.0832	0.339	1289.6493	0.207426	-388.282593	-388.273833	-388.272889	-388.315828	34.801	
C	-0.0226675633	 1.5699971771	 0.0838348509	-0.378337
C	-0.0218133857	 0.040725428	 0.197915211	-0.225981
C	-1.4189617313	-0.558418933	 0.0595187716	 0.072374
C	-2.0540429572	-0.6360625762	-1.3697051891	-0.02486
C	-1.2585212274	-1.9598566908	-1.5676924631	-0.244267
C	-1.5325241814	-2.1146183851	-0.0441938578	-0.046098
C	-3.0548583304	-2.3133729014	-0.0334544946	 0.134299
O	-3.5537600621	-2.1246264785	 1.2814164177	-0.443064
C	-3.4580746218	-1.1857927195	-1.051035312	-0.264037
H	 0.9829925348	 1.9793273654	 0.2221195814	 0.109262
H	-0.3827007783	 1.896366215	-0.8976341455	 0.114759
H	-0.6736551043	 2.0216013386	 0.8406733122	 0.114206
H	 0.6670508936	-0.376441434	-0.5451434243	 0.093049
H	 0.3816881379	-0.247174425	 1.1776450131	 0.096396
H	-2.0687960004	-0.1175449539	 0.8229398508	 0.071438
H	-1.9895562508	 0.1903165364	-2.0794089706	 0.054568
H	-1.6830403315	-2.7106393964	-2.2426013859	 0.084086
H	-0.2050537231	-1.8145656313	-1.8048589835	 0.101631
H	-0.9513695441	-2.7833537733	 0.5920508099	 0.058984
H	-3.3296183003	-3.3121251657	-0.401935824	 0.059268
H	-4.5142668295	-2.1635429416	 1.2439754885	 0.279939
H	-4.1052897302	-0.4460787042	-0.5690701993	 0.092551
H	-3.9713093131	-1.5745328806	-1.9360295775	 0.089835
79.764	160.5881	165.4668	220.4774	266.1365	280.873	365.091	397.8388	452.3545	481.0013	533.4795	670.8875	746.2698	819.1492	834.7989	856.5629	882.793	887.3626	934.1099	948.0146	965.1364	989.9349	1009.985	1036.0845	1059.4095	1085.233	1097.1128	1114.1555	1115.6237	1145.5837	1189.9831	1203.5876	1229.4035	1247.0234	1254.7713	1270.4537	1289.0117	1298.2085	1312.564	1345.4716	1356.2532	1410.3348	1419.064	1422.8557	1483.8542	1488.0168	1500.2499	1505.7199	1520.6402	2989.5702	3021.6577	3030.2798	3042.6278	3043.9663	3051.4728	3063.7027	3091.716	3096.2138	3100.0397	3102.3573	3108.5049	3136.7003	3822.0297
CCC1C2CC1C(O)C2	CC[C@H]1[C@H]2C[C@@H]1[C@@H](O)C2	
InChI=1S/C8H14O/c1-2-6-5-3-7(6)8(9)4-5/h5-9H,2-4H2,1H3	InChI=1S/C8H14O/c1-2-6-5-3-7(6)8(9)4-5/h5-9H,2-4H2,1H3/t5-,6-,7-,8-/m0/s1
