16
gdb 39559	4.17141	1.59651	1.32152	1.7144	72.83	-0.2263	0.0016	0.2279	938.1672	0.12718	-400.752722	-400.746489	-400.745545	-400.783043	25.752	
C	-0.0744019671	 1.5306988534	 0.0115347892	-0.380512
C	 1.3930524847	 1.9143375602	 0.0304758748	-0.078853
C	 2.202191597	 0.8552608159	-0.0846845344	-0.073398
C	 1.4472881323	-0.4278114352	-0.1666508655	-0.179829
C	 0.6744011744	-0.8142784267	 1.0968160927	-0.082984
N	-0.0163098647	-2.084595566	 1.0466786274	-0.264764
C	-0.9112035416	-1.9604748101	 0.1493075892	 0.081145
O	-1.0415921988	-0.7677410399	-0.4936014361	-0.253936
C	 0.0111091889	 0.0234894833	 0.0198748925	 0.432632
H	-0.6268670724	 1.9214763993	 0.8739743119	 0.121782
H	-0.5839288857	 1.9029453292	-0.8880801757	 0.124838
H	 1.7171868738	 2.9431270275	 0.1305473077	 0.102153
H	 3.2850521386	 0.8958291335	-0.1024724519	 0.102707
H	 1.740641641	-1.2216921372	-0.8456085003	 0.101292
H	 1.0050746915	-0.4645694251	 2.0686019667	 0.103939
H	-1.6136453718	-2.7233968823	-0.1621050283	 0.143787
200.2457	252.2977	306.1022	418.7764	443.9116	491.1135	601.9145	695.5248	723.8874	775.9321	796.0212	863.0102	905.6175	941.0938	943.2655	957.7244	968.1972	992.7899	1016.5586	1031.0607	1044.9448	1065.1148	1123.5833	1141.3152	1165.9694	1198.7738	1245.5043	1261.5402	1316.5771	1344.8297	1357.3118	1386.5094	1479.9101	1651.8645	1662.6309	3017.702	3057.6065	3165.1094	3168.8849	3193.1775	3217.5687	3234.1187
C1C=CC2C3N=COC123	C1C=C[C@H]2[C@@H]3N=CO[C@]123	
InChI=1S/C7H7NO/c1-2-5-6-7(5,3-1)9-4-8-6/h1-2,4-6H,3H2	InChI=1S/C7H7NO/c1-2-5-6-7(5,3-1)9-4-8-6/h1-2,4-6H,3H2/t5-,6-,7+/m0/s1
