16
gdb 31088	2.33078	1.49699	0.9222	2.4441	70.16	-0.1812	0.0367	0.2179	1222.9329	0.124591	-471.223152	-471.214071	-471.213127	-471.257127	32.929	
C	 0.074144595	 1.4741861611	 0.046096538	-0.232105
O	 0.065936868	 0.0522356381	-0.0187580902	-0.267659
C	 0.6210983241	-0.5934915785	 1.0189525494	 0.350026
C	 0.7017602533	-1.940924204	 1.1657161531	 0.125196
N	 0.3010113741	-3.0218927499	 0.4087309122	-0.59817
O	 1.3720274639	-2.1346564169	 2.4129523146	-0.212247
C	 1.6089178548	-0.899256516	 2.8569268641	 0.455918
N	 2.1919808275	-0.7749114508	 4.094158741	-0.585404
N	 1.2009033638	 0.0701042347	 2.0884441945	-0.42975
H	 1.0952858475	 1.8669179498	 0.0865712864	 0.127468
H	-0.4185699744	 1.8128212643	-0.8668489338	 0.125119
H	-0.4726356405	 1.8377077479	 0.9221573534	 0.12918
H	-0.3896181332	-3.6141818365	 0.8566101187	 0.242109
H	 1.0602241121	-3.5967751647	 0.0599818996	 0.240596
H	 2.8024410211	-1.5368691094	 4.3504861742	 0.262046
H	 2.5956212227	 0.1369397308	 4.2494582448	 0.267676
56.2555	151.6781	194.1149	197.2646	223.5936	274.2148	279.8924	319.9169	397.5811	400.4561	583.5838	587.9242	629.303	653.1366	689.3727	715.3112	766.003	850.8135	982.0526	1039.5008	1101.1844	1135.7697	1179.1118	1208.1918	1209.4198	1265.7656	1393.1272	1453.3975	1481.4668	1493.8304	1504.2164	1598.632	1659.3492	1671.8475	1760.5426	3031.5481	3097.3612	3138.4897	3495.1385	3559.6187	3574.7455	3684.3887
COC1=C(N)OC(N)=N1	COc1c(N)oc(N)n1	
InChI=1S/C4H7N3O2/c1-8-3-2(5)9-4(6)7-3/h5H2,1H3,(H2,6,7)	InChI=1S/C4H7N3O2/c1-8-3-2(5)9-4(6)7-3/h5H2,1H3,(H2,6,7)
