20
gdb 32208	2.56511	1.42264	0.99453	2.7722	88.47	-0.2448	-0.0165	0.2283	1239.5958	0.1725	-366.087104	-366.07836	-366.077416	-366.120676	32.798	
C	-0.1238415407	 1.5928863517	-0.0075947568	-0.371499
C	-0.0138905442	 0.056765727	-0.0049613899	-0.29065
C	 0.7169677149	-0.4767135425	-1.2157478071	 0.221013
C	 0.0088871817	-0.8046560404	-2.3725351912	-0.181404
C	 0.6856945977	-1.2652380225	-3.4955783211	-0.003313
N	 2.010056671	-1.4232604655	-3.5378276827	-0.279813
C	 2.6826561649	-1.1133767464	-2.4283752787	-0.050359
C	 2.1127436977	-0.6392406698	-1.2435920546	 0.201318
C	 2.993447231	-0.3373092804	-0.0568446809	-0.512116
H	 0.8633944881	 2.0647724723	-0.0162067464	 0.124984
H	-0.6641482027	 1.942444305	-0.8926950789	 0.125353
H	-0.659120877	 1.9446971082	 0.8796509889	 0.117372
H	 0.4866651254	-0.269110543	 0.9126413453	 0.106296
H	-1.0217989711	-0.3719191335	 0.0203259646	 0.10688
H	-1.0723142412	-0.7039960245	-2.3956573979	 0.089543
H	 0.1389423172	-1.5226330587	-4.3999330307	 0.103727
H	 3.7621489116	-1.251672248	-2.4746816189	 0.097123
H	 2.9039571146	 0.7043519843	 0.269863855	 0.133291
H	 2.742576007	-0.9648579082	 0.8063807092	 0.13435
H	 4.0435945341	-0.518099725	-0.3010786172	 0.127904
69.2191	124.027	152.0863	206.7151	215.8451	310.3482	327.4122	406.7667	449.7186	508.0139	588.0273	614.406	748.2117	784.9479	789.5177	839.232	859.5632	955.0507	974.9215	989.4249	1015.9175	1053.2804	1058.8057	1082.9301	1103.1199	1188.4182	1224.6034	1253.1546	1273.5314	1307.8635	1340.2604	1349.7617	1403.2843	1416.9691	1440.2146	1485.1017	1486.3993	1494.8418	1496.3325	1510.2192	1525.0572	1600.7367	1632.5426	3029.7865	3038.1772	3040.9624	3076.6574	3082.0563	3110.8472	3112.0287	3114.4465	3133.8197	3149.0523	3174.2348
CCC1=CC=NC=C1C	CCc1ccncc1C	
InChI=1S/C8H11N/c1-3-8-4-5-9-6-7(8)2/h4-6H,3H2,1-2H3	InChI=1S/C8H11N/c1-3-8-4-5-9-6-7(8)2/h4-6H,3H2,1-2H3
