18
gdb 60657	2.93598	1.18364	0.92518	3.5332	67.56	-0.2541	0.0124	0.2665	1250.2564	0.14846	-476.233783	-476.224952	-476.224008	-476.268313	31.849	
N	-0.8264869371	 1.0091699639	-0.812818178	-0.54842
H	-2.4064491706	 0.3273581294	 0.0258329721	 0.307517
H	-0.2458974407	 0.1918789975	-0.9725079283	 0.248529
H	-0.5606753376	 1.6995345724	-1.5099937814	 0.261084
C	-0.5891838123	 1.5590251391	 0.5279340029	-0.143952
C	-0.9193044491	 3.0560377538	 0.5078647004	 0.155362
C	-0.4178131795	 3.9009742839	 1.6939266971	-0.288388
C	 0.5049424739	 4.5610638855	 0.6484877143	-0.076235
O	-0.0609087038	 3.7580779616	-0.4188761211	-0.303448
C	-1.5111890396	 0.8764627479	 1.5525168848	 0.419435
O	-2.5471395883	 0.2382152421	 0.9951018373	-0.363222
O	-1.3389159583	 0.9518048082	 2.7407409111	-0.341883
H	 0.4431124913	 1.4386979013	 0.878773253	 0.09795
H	-1.9751625852	 3.1883204476	 0.236445857	 0.091736
H	-1.1672543462	 4.5614306997	 2.1299095468	 0.121776
H	 0.0644777775	 3.3333061118	 2.4887139568	 0.139757
H	 0.3455764604	 5.6300953788	 0.4712115667	 0.112499
H	 1.5785130752	 4.3759186958	 0.7699226583	 0.109902
69.2955	77.6331	85.7661	151.463	270.6024	311.3844	344.5948	364.4727	403.2804	557.7251	666.6138	703.3176	783.4872	830.5762	856.3277	871.2941	896.4777	945.0266	964.0175	986.4358	1030.5492	1069.7214	1078.6032	1113.6789	1159.645	1200.0466	1226.4347	1251.8148	1263.6656	1286.9964	1317.0488	1335.1837	1362.2467	1398.085	1427.8989	1496.7817	1531.6366	1663.0531	1862.7736	3014.4467	3028.9363	3037.0105	3072.5459	3101.087	3157.8495	3466.8801	3499.1585	3572.8454
[NH3+]C(C1CCO1)C([O-])=O	N[C@@H]([C@H]1CCO1)C(=O)O	
InChI=1S/C5H9NO3/c6-4(5(7)8)3-1-2-9-3/h3-4H,1-2,6H2,(H,7,8)	InChI=1S/C5H9NO3/c6-4(5(7)8)3-1-2-9-3/h3-4H,1-2,6H2,(H,7,8)/t3-,4+/m1/s1
