18
gdb 79097	2.37668	1.96472	1.4712	2.741	73.95	-0.2397	-0.024	0.2157	953.3969	0.148904	-401.935939	-401.928534	-401.92759	-401.967709	29.217	
C	-0.236646258	 1.5794690838	 0.1372469221	-0.427528
C	 0.0627117082	 0.0910708374	 0.0068012448	 0.016945
C	 0.6808343665	-0.5063699041	-1.2534087986	-0.063498
C	 2.1655654917	-0.4256882514	-1.3140183642	-0.026014
C	 2.9638791794	 0.5622402396	-0.4950038324	-0.36834
C	 2.3940300738	 0.3695269236	 0.9178779283	 0.433548
O	 2.7659025156	 0.9076352718	 1.9268617477	-0.320159
C	 1.242011567	-0.6084965462	 0.7712839318	-0.145374
N	 1.5372438443	-1.4676377285	-0.4497411775	-0.152032
H	 0.6288206798	 2.2064420121	-0.092964392	 0.124418
H	-1.042569262	 1.8639386447	-0.5476818149	 0.121497
H	-0.5622705565	 1.8228023047	 1.1538456503	 0.132453
H	-0.8409139219	-0.481692181	 0.2368641067	 0.10177
H	 0.1140928676	-0.8481941537	-2.1153035391	 0.094502
H	 2.6177243386	-0.837613075	-2.2107691313	 0.102533
H	 4.0289723275	 0.304871786	-0.4963861021	 0.140427
H	 2.881284451	 1.6080994034	-0.8054938241	 0.137424
H	 1.0034612773	-1.1603179973	 1.6776882346	 0.097427
102.3202	169.8416	195.2249	257.5469	370.1024	431.903	516.5628	552.8723	605.1274	676.4939	712.3312	758.4554	785.073	804.0824	861.5737	902.5362	967.1372	973.8871	980.9131	1037.1338	1055.8489	1072.1073	1107.7872	1142.3695	1159.9068	1169.3697	1187.5358	1211.0018	1244.3893	1280.2261	1300.8929	1350.763	1379.3041	1411.323	1421.4051	1450.7943	1492.1841	1496.627	1850.7544	3038.0275	3050.9602	3058.5571	3092.4478	3102.333	3116.9233	3144.7263	3146.2914	3165.4268
CC1C2C3CC(=O)C1N23	C[C@H]1[C@H]2[C@H]3CC(=O)[C@@H]1N23	
InChI=1S/C7H9NO/c1-3-6-4-2-5(9)7(3)8(4)6/h3-4,6-7H,2H2,1H3	InChI=1S/C7H9NO/c1-3-6-4-2-5(9)7(3)8(4)6/h3-4,6-7H,2H2,1H3/t3-,4+,6-,7+,8?/m0/s1
