22
gdb 85433	2.4059	1.40415	1.12184	2.9191	82.23	-0.2156	-0.0145	0.2011	1201.1683	0.192301	-404.375648	-404.365998	-404.365053	-404.409485	37.119	
C	 0.2519340451	 1.2041470779	-0.5191245455	-0.33093
N	-0.0082348009	-0.1257248771	-0.0088814088	-0.080012
C	-1.4149165517	-0.429106669	 0.1852679083	-0.273127
C	-1.4134722246	-1.6687619681	 1.076235412	 0.392054
O	-2.3777403422	-2.3160292854	 1.3893806706	-0.311235
C	 0.0311089351	-1.9082077162	 1.4994273153	-0.348795
C	 0.7515098663	-0.5807350154	 1.1862309125	 0.276219
C	 2.2243378225	-0.8024280445	 0.827199688	-0.429838
C	 0.6382293517	 0.381501299	 2.3897102201	-0.426692
H	 1.3244302767	 1.3539053388	-0.6684459537	 0.121169
H	-0.2344055498	 1.318409782	-1.4941236929	 0.121756
H	-0.1215409799	 2.0152524033	 0.1326682725	 0.096724
H	-1.9873649596	 0.3672640014	 0.7016774485	 0.104685
H	-1.9307469353	-0.6229086441	-0.7628242221	 0.128054
H	 0.0962070787	-2.2271649607	 2.541812935	 0.124566
H	 0.4296053459	-2.7164746637	 0.873902458	 0.130494
H	 2.3073497167	-1.4277401902	-0.0660495544	 0.120002
H	 2.7430784737	 0.1421266755	 0.635306745	 0.114532
H	 2.7468159451	-1.2974345463	 1.652027391	 0.116212
H	 1.1729703985	-0.0223476125	 3.2551712615	 0.118569
H	 1.0727454794	 1.3587355922	 2.1590884389	 0.117788
H	-0.4036827815	 0.5382182132	 2.6889940403	 0.117808
81.6845	123.3999	208.7884	232.0955	246.3358	262.7997	296.4359	306.9443	340.7072	391.1219	466.9354	476.1057	528.1663	553.1064	577.8626	714.7883	789.3765	833.9721	882.1086	916.7968	944.9322	991.622	1027.1159	1035.7487	1103.6155	1128.6709	1150.8433	1192.2693	1202.0633	1220.7651	1235.1789	1244.8759	1277.4026	1323.2532	1345.7337	1397.2607	1415.4124	1444.4333	1455.701	1477.0999	1482.8501	1491.2667	1492.9869	1505.3495	1508.9368	1514.6817	1856.9614	2905.31	2936.4207	3032.852	3037.5896	3042.845	3045.977	3058.0882	3099.1658	3101.4702	3108.3575	3111.5847	3115.4988	3118.6943
CN1CC(=O)CC1(C)C	CN1CC(=O)CC1(C)C	
InChI=1S/C7H13NO/c1-7(2)4-6(9)5-8(7)3/h4-5H2,1-3H3	InChI=1S/C7H13NO/c1-7(2)4-6(9)5-8(7)3/h4-5H2,1-3H3
