21
gdb 89121	4.1462	0.68566	0.62744	3.901	81.19	-0.2277	0.0297	0.2574	1787.0004	0.181833	-420.397959	-420.387811	-420.386867	-420.435103	35.811	
C	 0.0394056071	 1.4501734417	-0.1600798033	-0.314046
N	 0.0997337818	 0.0133845231	 0.0549340419	-0.077015
C	 1.4121287401	-0.6192013004	 0.0096626286	-0.264463
C	 0.6621363018	-0.5328378358	 1.2956178137	 0.029213
C	 1.1633589503	 0.3121874912	 2.4491866208	-0.223812
C	 0.0265042606	 0.744623227	 3.3897933476	-0.162312
N	 0.4932799449	 1.4853038141	 4.5519117509	-0.271389
C	 0.7914146586	 0.8811775951	 5.7331176028	 0.152964
O	 0.6654888992	-0.3035907709	 5.9608109732	-0.323892
H	 0.9081872236	 2.0153239076	 0.2149227111	 0.095913
H	-0.0332925858	 1.6368194182	-1.2364788716	 0.1272
H	-0.8638778584	 1.8537519436	 0.3101971081	 0.119958
H	 1.4791546801	-1.5545498217	-0.5403215829	 0.11531
H	 2.284058422	 0.0279432635	-0.0916827412	 0.102066
H	 0.1317400019	-1.4276149768	 1.6227530061	 0.095716
H	 1.8800309608	-0.2802546427	 3.0299853873	 0.126685
H	 1.7054441515	 1.1924566033	 2.0879613429	 0.09151
H	-0.70363699	 1.3589370329	 2.8528298247	 0.112549
H	-0.4935328382	-0.1391427906	 3.7684761609	 0.147696
H	 0.6932247004	 2.4681930278	 4.4585491858	 0.246676
H	 1.1590786378	 1.6070036798	 6.4860356325	 0.073474
20.5412	52.8595	77.7725	132.8474	189.1352	232.8587	273.6573	297.6121	351.0495	392.8745	446.2632	517.2555	528.7243	716.7273	749.3293	785.4337	837.0113	921.4024	974.4007	1021.8688	1029.4324	1040.8988	1060.1133	1093.8467	1117.382	1135.3848	1161.795	1180.8912	1202.2824	1210.4798	1250.6626	1297.1244	1333.4299	1343.6242	1401.5407	1425.9355	1430.4352	1449.8385	1468.8276	1481.3147	1491.3267	1506.3607	1515.5919	1531.3523	1805.579	2932.4987	2966.3241	3040.4618	3053.6895	3060.4298	3078.1264	3080.2269	3095.408	3100.9931	3116.8844	3168.0808	3637.3261
CN1CC1CCNC=O	CN1C[C@H]1CCNC=O	
InChI=1S/C6H12N2O/c1-8-4-6(8)2-3-7-5-9/h5-6H,2-4H2,1H3,(H,7,9)	InChI=1S/C6H12N2O/c1-8-4-6(8)2-3-7-5-9/h5-6H,2-4H2,1H3,(H,7,9)/t6-,8?/m1/s1
