21
gdb 119702	3.04712	0.93861	0.8387	2.0921	78.68	-0.2306	0.0733	0.3039	1451.1053	0.181166	-424.176598	-424.166953	-424.166009	-424.211534	35.367	
C	 0.0115761195	 1.573871377	 0.0878056219	-0.42363
C	 0.0508755312	 0.0641652971	 0.1683298276	-0.076137
C	 1.2631929089	-0.7495822228	-0.178462569	 0.015499
O	 2.4682939272	-0.0569288145	 0.1639797965	-0.285358
C	 2.1015834959	-0.097238044	 1.5678202208	-0.138692
C	 0.7547652954	-0.7514488325	 1.250176448	 0.259051
C	 0.0868771178	-1.8091429679	 2.0816491655	-0.306758
C	-0.6417794682	-1.2349406168	 3.2953673615	-0.064604
O	-1.2146071253	-2.3195510634	 4.0079564111	-0.418622
H	 1.0113567026	 1.9962762668	 0.2130789364	 0.137202
H	-0.35976839	 1.8960309283	-0.8908712979	 0.118424
H	-0.6460857313	 2.0024418026	 0.8518161692	 0.111785
H	-0.8683966924	-0.4333628533	-0.1390915285	 0.086222
H	 1.3254659335	-1.5191878685	-0.9406575569	 0.100783
H	 2.7771350112	-0.7627032894	 2.119237048	 0.106604
H	 2.1061105903	 0.8966326695	 2.0310802757	 0.10147
H	-0.6385975338	-2.3635213239	 1.4748455046	 0.107874
H	 0.824348426	-2.5410091793	 2.4348424968	 0.107424
H	 0.0685009728	-0.673915116	 3.9250804716	 0.085635
H	-1.4110423041	-0.5216432021	 2.9589900531	 0.089734
H	-1.6727668972	-1.968206967	 4.776793314	 0.286093
65.3683	97.15	106.3623	168.0315	242.314	261.1989	264.5846	306.4516	332.7697	343.6895	463.6893	593.0185	712.9746	754.0233	785.2079	796.8293	929.7323	936.3526	962.5671	996.9566	1000.6421	1018.7777	1027.3509	1071.3954	1081.3314	1100.6515	1117.2502	1154.2433	1163.6401	1208.6905	1242.2733	1256.3066	1269.6457	1294.8589	1328.0588	1345.6358	1355.237	1408.7821	1459.3944	1470.9676	1485.9343	1493.3851	1502.5176	1520.1482	1526.7942	2961.2733	2989.3796	3015.8945	3027.1835	3034.884	3063.3775	3071.1385	3091.455	3114.6826	3130.3033	3168.5093	3831.4944
CC1C2OCC12CCO	C[C@H]1[C@H]2OC[C@@]12CCO	
InChI=1S/C7H12O2/c1-5-6-7(5,2-3-8)4-9-6/h5-6,8H,2-4H2,1H3	InChI=1S/C7H12O2/c1-5-6-7(5,2-3-8)4-9-6/h5-6,8H,2-4H2,1H3/t5-,6+,7-/m0/s1
