16
gdb 25326	3.78986	1.24889	0.9507	5.9802	81.35	-0.2221	-0.0228	0.1993	1179.116	0.126062	-400.768152	-400.760677	-400.759733	-400.800629	27.688	
O	-0.1187624871	 0.0005679375	-0.0817702765	-0.296887
C	 0.000260573	 1.2051092292	 0.013716553	 0.074875
C	 1.2591122297	 1.9261064028	 0.0013731181	-0.027436
C	 1.4668353074	 3.2967670638	 0.1057944526	 0.306796
C	 1.1117565196	 4.7677556435	 0.2518821235	-0.383153
C	 2.6705242804	 5.0053728496	 0.1809656518	-0.170028
N	 2.7915084669	 3.5423335262	 0.0491862345	 0.006917
C	 3.5174026318	 2.3797155478	-0.0921316422	-0.140407
C	 2.5837431377	 1.3678501498	-0.123676661	-0.220502
H	-0.8977897129	 1.8570066059	 0.1217559882	 0.045795
H	 0.5469007065	 5.2097778079	-0.5722647586	 0.136243
H	 0.6504750716	 5.0589031897	 1.1985158419	 0.136246
H	 3.0257354225	 5.5580653898	-0.6925326402	 0.13585
H	 3.1298565182	 5.4062783125	 1.0881218469	 0.135855
H	 4.592624019	 2.3625066598	-0.1564945805	 0.132816
H	 2.7904173855	 0.3137507644	-0.2255135013	 0.127021
73.4517	160.7356	162.2121	210.8789	303.8442	390.2218	528.6465	615.1891	654.1956	679.4708	721.158	798.6864	809.3489	839.3537	841.93	909.0146	1033.2841	1036.44	1059.0894	1072.1564	1118.0677	1140.0209	1176.4164	1222.0914	1243.1064	1279.7472	1356.7751	1414.4806	1422.8433	1437.6551	1483.9741	1485.7444	1528.8932	1587.45	1780.1053	2853.0276	3061.6925	3070.8083	3110.4406	3124.3194	3258.1615	3279.5074
O=CC1=C2CCN2C=C1	O=Cc1c2CCn2cc1	
InChI=1S/C7H7NO/c9-5-6-1-3-8-4-2-7(6)8/h1,3,5H,2,4H2	InChI=1S/C7H7NO/c9-5-6-1-3-8-4-2-7(6)8/h1,3,5H,2,4H2
