16
gdb 43714	5.24759	1.07888	1.03147	2.4471	70.96	-0.2382	0.0222	0.2605	1154.7051	0.124216	-437.823883	-437.81661	-437.815666	-437.855832	28.113	
N	 0.0397941578	 1.0940470478	 0.6420968913	-0.53746
C	-0.0427407426	 0.0013310485	 0.0384681924	 0.423135
C	-1.1726755588	-0.9266381792	-0.3681219867	-0.444525
C	-0.0358076672	-1.7551041062	-0.9507068911	 0.447198
O	 0.9541193923	-0.8010068643	-0.5067990536	-0.285345
C	 0.3431110565	-3.2068155724	-0.9291448777	-0.230522
C	-0.8491029091	-4.0234209123	-1.4108334442	-0.08688
O	-1.0043115539	-3.1851143255	-2.5935875866	-0.281895
C	 0.1670562739	-2.4472090819	-2.247836726	-0.003399
H	 1.0087508752	 1.4070391442	 0.7202943506	 0.231353
H	-1.7165916465	-1.3712709963	 0.467440858	 0.141131
H	-1.8767273211	-0.5111992524	-1.0903944052	 0.152075
H	 1.2300836442	-3.5682962683	-0.4268893196	 0.119255
H	-0.591396217	-5.0473233369	-1.7017851564	 0.120805
H	-1.749090512	-4.0302520385	-0.7852202505	 0.113465
H	 0.8515755983	-2.1399824563	-3.0302903346	 0.121608
88.9215	143.1842	196.4293	334.1264	380.6683	430.6536	476.5434	499.9853	599.9395	753.1172	770.8705	819.9583	866.9398	902.5318	926.2286	940.777	963.6328	994.8184	1001.1584	1015.3002	1044.0959	1060.8591	1079.2256	1118.0675	1154.3838	1163.4522	1197.7057	1232.6564	1246.0598	1294.7435	1336.7976	1450.4134	1472.4271	1518.0495	1836.695	3029.615	3079.8332	3086.7895	3142.2159	3183.1076	3211.3685	3480.3739
N=C1CC2(O1)C1COC21	[NH][C]1C[C@@]2(O1)[C@H]1CO[C@@H]21	
InChI=1S/C6H7NO2/c7-4-1-6(9-4)3-2-8-5(3)6/h3,5,7H,1-2H2	InChI=1S/C6H7NO2/c7-4-1-6(9-4)3-2-8-5(3)6/h3,5,7H,1-2H2/t3-,5+,6+/m0/s1
