14
gdb 24535	4.10858	1.65862	1.18161	4.1994	79.06	-0.2003	-0.0676	0.1327	949.5469	0.106207	-395.781214	-395.775265	-395.774321	-395.811404	24.002	
N	 0.0096267996	 1.3619034205	 0.0096585856	-0.379193
C	 1.1699540275	 2.050174304	 0.0021693974	 0.089359
N	 2.3639956451	 1.5067300355	-0.0124279261	-0.291168
C	 2.4377177507	 0.1479738911	-0.0206242035	-0.096453
C	 1.3262513692	-0.6553386521	-0.0142163002	 0.230892
C	 1.0164038501	-2.0462986134	-0.0187416122	-0.158627
N	-0.2939137286	-2.2396527526	-0.0072505578	-0.236097
C	-0.9267014059	-1.0081249413	 0.0056862821	-0.177918
C	 0.013286487	-0.0125653872	 0.0020657269	 0.272711
H	-0.8637038751	 1.871307182	 0.0209295115	 0.277937
H	 1.07654097	 3.1315886186	 0.0090105368	 0.140654
H	 3.4442233944	-0.2631454295	-0.0326045826	 0.128985
H	 1.7144928279	-2.8726657159	-0.0299935814	 0.104476
H	-2.004369822	-0.9372013897	 0.0164980535	 0.094441
197.5274	249.4071	380.0989	409.4311	557.6193	579.4574	618.6559	655.7384	702.7199	748.8741	772.3172	782.6855	826.4577	890.9023	917.8344	919.5314	996.0569	1096.4142	1099.7725	1174.9556	1222.9779	1276.928	1290.5627	1321.4282	1368.4095	1403.7727	1455.5784	1503.8698	1521.9981	1620.109	1655.6421	3163.9256	3188.7663	3219.0926	3235.1982	3594.7224
N1C=NC=C2C=NC=C12	[nH]1cncc2cncc12	
InChI=1S/C6H5N3/c1-5-2-8-4-9-6(5)3-7-1/h1-4H,(H,8,9)	InChI=1S/C6H5N3/c1-5-2-8-4-9-6(5)3-7-1/h1-4H,(H,8,9)
