18
gdb 99380	6.94466	0.54255	0.52088	4.908	72.12	-0.2609	0.0087	0.2696	2045.4868	0.145429	-476.276092	-476.265546	-476.264602	-476.314521	34.506	
C	 0.0726234736	 1.3642514389	-0.0865204106	-0.335384
N	-0.1101458124	-0.0745020174	-0.0434512647	-0.314475
C	-1.3385339647	-0.661011353	-0.065694716	 0.420748
O	-2.3836585348	-0.0318422511	-0.0909214578	-0.376969
C	-1.322457343	-2.1887732165	-0.0769351376	-0.32558
C	-2.5872566264	-2.7408718603	 0.5725262081	-0.079213
O	-2.5897752858	-4.1705392045	 0.4828520411	-0.179918
C	-3.5699449931	-4.7602347526	-0.2272036648	 0.166904
O	-3.6428991466	-5.943360968	-0.3686576911	-0.274532
H	 0.6122398458	 1.7218250263	 0.7969611803	 0.12989
H	 0.6240507028	 1.6697076622	-0.9825423241	 0.129928
H	-0.9192573938	 1.81652294	-0.1065749077	 0.174614
H	 0.7045737996	-0.6649821233	-0.0205950867	 0.249118
H	-1.2794855852	-2.5241377414	-1.1207236173	 0.140855
H	-0.4338925491	-2.5885725031	 0.4223665945	 0.11905
H	-2.6269756981	-2.4825218043	 1.634412449	 0.132143
H	-3.470395332	-2.3133375552	 0.0885536651	 0.141137
H	-4.2869916367	-4.0309110067	-0.6530313797	 0.081684
26.7711	41.7186	54.2167	81.7407	120.5064	161.4536	202.8123	285.2731	318.9669	365.5387	448.7425	471.1696	624.7118	647.0928	737.2717	803.0573	905.6354	1030.8573	1041.4959	1048.6887	1067.5244	1105.4956	1150.8372	1158.135	1174.4762	1229.1066	1263.5631	1312.1375	1350.3738	1403.8807	1433.8168	1439.8808	1469.3949	1493.9651	1500.1374	1506.5925	1564.5446	1772.8557	1866.7374	2945.5135	3030.9378	3037.1819	3058.7638	3080.5089	3084.4237	3112.3784	3157.1126	3648.1614
CNC(=O)CCOC=O	CNC(=O)CCOC=O	
InChI=1S/C5H9NO3/c1-6-5(8)2-3-9-4-7/h4H,2-3H2,1H3,(H,6,8)	InChI=1S/C5H9NO3/c1-6-5(8)2-3-9-4-7/h4H,2-3H2,1H3,(H,6,8)
