21
gdb 117241	3.93786	0.76621	0.73681	3.4325	82.13	-0.241	-0.0101	0.2309	1664.7066	0.179811	-424.220988	-424.210698	-424.209754	-424.257105	36.447	
C	-0.1047427504	 1.4344341244	 0.1596003001	-0.225311
O	 0.0319911569	 0.0441019135	-0.0166461756	-0.210709
C	-1.1818161772	-0.6341065502	 0.0657464639	-0.158893
C	-0.9795538549	-2.1330789914	-0.1430982083	 0.360034
O	 0.1087687352	-2.6101324663	-0.3743505913	-0.313198
C	-2.2301326284	-2.9358805542	-0.0356238911	-0.133412
C	-2.2859693045	-4.2888434261	-0.7253980143	-0.286416
C	-2.2515801685	-4.2490594389	 0.7649781156	 0.015323
C	-1.0580967431	-4.7403115677	 1.5520694948	-0.417808
H	 0.8935486246	 1.870201107	 0.0787476244	 0.133774
H	-0.7531232263	 1.8833698619	-0.6098612226	 0.104074
H	-0.5235776211	 1.6835158307	 1.1477819566	 0.103767
H	-1.6737484601	-0.4856726127	 1.0461457394	 0.105806
H	-1.9059191376	-0.2778642221	-0.6922585486	 0.105352
H	-3.1472815665	-2.3556484159	-0.0003529285	 0.082925
H	-3.2057380423	-4.5548182686	-1.234035503	 0.11442
H	-1.3709368186	-4.5742536677	-1.2341284352	 0.139443
H	-3.2079345247	-4.4150664287	 1.2551942023	 0.0921
H	-0.123522771	-4.5037824337	 1.0411631765	 0.159088
H	-1.0279254435	-4.2873842672	 2.5490399015	 0.113582
H	-1.1176611581	-5.826447796	 1.6822784634	 0.116061
42.8077	82.5084	105.1958	133.7661	181.7158	227.4405	235.1321	254.7426	324.0188	364.6143	396.6067	411.7133	597.898	693.823	752.6464	820.0362	860.126	886.5616	947.5301	967.8308	1015.3413	1033.8025	1073.3555	1091.0243	1105.244	1121.7677	1146.8936	1175.7016	1183.6653	1207.5647	1236.3423	1243.1599	1255.9428	1381.5285	1394.2459	1421.0749	1427.9709	1467.2843	1477.2228	1486.3709	1491.4859	1500.6689	1505.9064	1516.6359	1802.6083	2923.0388	2941.6764	2968.6132	3011.6783	3035.151	3090.4936	3119.6622	3128.0095	3133.6532	3146.4756	3153.3661	3226.7549
COCC(=O)C1CC1C	COCC(=O)[C@H]1C[C@H]1C	
InChI=1S/C7H12O2/c1-5-3-6(5)7(8)4-9-2/h5-6H,3-4H2,1-2H3	InChI=1S/C7H12O2/c1-5-3-6(5)7(8)4-9-2/h5-6H,3-4H2,1-2H3/t5-,6+/m1/s1
