19
gdb 120436	4.93141	0.73604	0.67965	4.4017	79.08	-0.2364	-0.045	0.1913	1623.1328	0.159011	-423.056473	-423.047366	-423.046422	-423.091506	32.944	
O	-0.0407438768	 1.4898295035	 0.153740116	-0.417754
C	 0.0641763676	 0.0815432958	 0.020669184	-0.080419
C	-1.3527166123	-0.4801069744	-0.0098138923	-0.181155
C	-1.4246429837	-2.018144277	-0.05871877	-0.054523
C	-2.8669128222	-2.5684668453	 0.0172895988	-0.358681
C	-3.0381674912	-3.483889646	-1.2053480249	 0.380036
O	-4.0204581007	-4.1340080093	-1.4763139521	-0.329305
C	-1.7720906319	-3.4097810961	-1.9720515152	-0.18466
C	-0.8948386673	-2.6177040418	-1.3463619163	-0.046303
H	 0.8462504823	 1.861124788	 0.152868096	 0.287637
H	 0.6061137738	-0.1879553296	-0.8998224253	 0.0859
H	 0.6187881626	-0.3601101225	 0.8657219681	 0.0861
H	-1.8710297699	-0.1283586813	 0.8895145205	 0.115472
H	-1.8866745562	-0.0556436384	-0.8683872176	 0.111802
H	-0.8259125683	-2.4058949459	 0.7782986451	 0.090749
H	-3.0683098885	-3.1333613245	 0.9315590162	 0.131371
H	-3.6145386201	-1.770032287	-0.0321346548	 0.134042
H	-1.6221683961	-3.9483781127	-2.8991373204	 0.115205
H	 0.1100551789	-2.4095608354	-1.6994600757	 0.114485
39.515	80.8962	105.8472	171.4177	226.628	264.9666	320.3471	359.0781	446.6371	487.6129	604.9643	651.3157	738.9947	795.8211	812.9501	834.0236	857.4043	933.5095	1001.8263	1005.0756	1043.3847	1061.2259	1086.2911	1096.2517	1134.3352	1176.0969	1189.9485	1224.0768	1244.2489	1257.4385	1297.3167	1311.589	1336.6911	1359.5555	1372.4939	1451.2541	1465.0226	1493.8862	1527.8365	1649.3498	1816.1062	2958.1556	2986.5147	2997.6629	3036.0037	3060.2869	3081.3042	3104.0946	3184.925	3224.9867	3830.6988
OCCC1CC(=O)C=C1	OCC[C@H]1CC(=O)C=C1	
InChI=1S/C7H10O2/c8-4-3-6-1-2-7(9)5-6/h1-2,6,8H,3-5H2	InChI=1S/C7H10O2/c8-4-3-6-1-2-7(9)5-6/h1-2,6,8H,3-5H2/t6-/m0/s1
