19
gdb 74654	4.3579	1.29152	1.12988	2.3426	80.97	-0.2301	0.0114	0.2415	1114.6021	0.160533	-385.842203	-385.834992	-385.834048	-385.873534	29.532	
C	 0.0208034504	 1.5544633937	 0.0486230191	-0.476179
C	-0.0033756197	 0.0562174582	-0.0226619504	 0.29557
C	-0.0315684066	-0.6431228561	-1.159834801	-0.181361
C	-0.0540555418	-2.1404209768	-1.1223147846	-0.037266
C	-0.9402882368	-2.8312894335	-0.0427218399	 0.035096
O	-0.0672222485	-4.0185811309	-0.0930807718	-0.317824
C	 0.8431239484	-2.8587611525	-0.0700381846	 0.035096
C	-0.0219501042	-2.2241261304	 1.0578776616	-0.008358
C	 0.0046613414	-0.7148505783	 1.2771781562	-0.348366
H	 0.9133624507	 1.9130157675	 0.577922773	 0.123401
H	 0.0124034455	 2.0049682126	-0.9474949098	 0.122531
H	-0.8435667081	 1.9400848909	 0.6049848475	 0.123398
H	-0.0387050469	-0.1455785577	-2.125670509	 0.082335
H	-0.0765537815	-2.6350640543	-2.0937257081	 0.074561
H	-2.0195433957	-2.9913903958	-0.0395506041	 0.088313
H	 1.9165276773	-3.0520239009	-0.0998393764	 0.088313
H	-0.0167249395	-2.8046638526	 1.9829146274	 0.077807
H	 0.890806954	-0.4416823687	 1.8694438328	 0.111466
H	-0.8540928683	-0.4147986043	 1.8961793521	 0.111466
132.8624	186.1672	279.8028	301.6561	382.7453	440.0455	464.3068	473.38	632.4791	728.2133	754.5403	796.173	800.6054	833.1361	872.8899	899.4661	908.1761	963.3003	974.0227	1012.2869	1022.2436	1052.0676	1070.959	1083.6838	1140.7364	1149.969	1178.8479	1191.8956	1194.1755	1249.0698	1257.2147	1259.272	1301.003	1334.27	1380.4351	1402.8805	1413.8123	1469.9359	1478.1165	1489.9708	1731.4081	2994.5086	3013.6602	3015.5697	3057.9035	3092.9141	3102.8732	3107.1472	3110.2851	3118.776	3163.9477
CC1=CC2C3OC2C3C1	CC1=C[C@@H]2[C@H]3O[C@@H]2[C@H]3C1	
InChI=1S/C8H10O/c1-4-2-5-7-6(3-4)8(5)9-7/h2,5-8H,3H2,1H3	InChI=1S/C8H10O/c1-4-2-5-7-6(3-4)8(5)9-7/h2,5-8H,3H2,1H3/t5-,6+,7-,8+
