19
gdb 90167	2.89279	1.57764	1.35948	1.9	74.45	-0.2385	0.0689	0.3074	1018.9561	0.160152	-422.990392	-422.982687	-422.981743	-423.022211	30.963	
O	 0.1820488402	 1.382015283	-0.0917981821	-0.433478
C	 0.0558118317	-0.0214349263	-0.0534723156	 0.035526
C	 0.3599881482	-0.6624433755	 1.360861121	-0.339175
C	-1.1381590409	-1.001637255	 1.4617962238	 0.323652
C	-2.2838073686	-0.7495777089	 2.4062717651	-0.314997
C	-3.4326152601	-0.3267543538	 1.4311859493	-0.207472
C	-2.7525329377	 0.2942912947	 0.166974811	-0.319371
C	-1.4227216617	-0.4059258743	 0.1534285143	 0.33207
O	-1.4604615336	-1.8250971869	 0.3288184179	-0.31343
H	 1.1192947903	 1.6004778047	-0.0911681982	 0.288856
H	 0.5429113816	-0.5027839316	-0.9114962385	 0.073507
H	 1.0503637984	-1.5082614355	 1.4077133901	 0.102455
H	 0.6674830983	 0.118599349	 2.0610258414	 0.106615
H	-2.5664288626	-1.6052799382	 3.0272626601	 0.107522
H	-2.0144356794	 0.072530044	 3.0799227667	 0.106835
H	-3.9966158442	-1.2140150438	 1.1362559944	 0.121551
H	-4.134245641	 0.3667239758	 1.901654674	 0.099928
H	-3.3571868206	 0.1549057965	-0.7343216646	 0.106578
H	-2.5774111985	 1.3684708518	 0.2894706302	 0.122829
120.8839	185.6815	227.6319	264.8481	304.1564	407.2667	444.3126	486.4471	516.406	606.0365	660.3951	723.5251	745.7733	820.746	848.5116	869.4634	891.1148	924.4207	953.2714	979.4121	1000.3503	1041.9579	1086.2352	1156.3108	1171.125	1178.1108	1201.6086	1210.996	1223.7416	1239.1981	1246.8702	1296.9638	1326.5265	1342.4936	1350.0183	1407.1951	1430.2896	1468.5587	1483.4762	1484.4631	1499.0054	3014.2831	3039.9434	3050.4915	3059.5145	3071.745	3082.3133	3090.2447	3121.0532	3123.0966	3819.9662
OC1CC23CCCC12O3	O[C@H]1C[C@@]23CCC[C@@]12O3	
InChI=1S/C7H10O2/c8-5-4-6-2-1-3-7(5,6)9-6/h5,8H,1-4H2	InChI=1S/C7H10O2/c8-5-4-6-2-1-3-7(5,6)9-6/h5,8H,1-4H2/t5-,6-,7+/m0/s1
