17
gdb 37671	3.11846	2.39955	2.09944	1.5794	71.52	-0.2217	0.0676	0.2893	752.9597	0.141019	-380.809615	-380.804419	-380.803475	-380.838784	23.521	
C	-0.0252542484	 1.4657390893	-0.032837637	-0.16094
C	 1.4330494836	 1.8797485375	 0.0250339682	 0.002315
C	 2.2300339371	 0.719741482	 0.7107467491	-0.104041
C	 1.2367543668	-0.4505175798	 0.6278235149	-0.063352
C	 1.0151470215	-0.6333732851	-0.8362598258	-0.044353
C	 2.0572248712	 0.2024922494	-1.5554868234	-0.058119
C	 3.0699881192	 0.7036984211	-0.5999832275	-0.046939
N	 2.1523167623	 1.6742204472	-1.2814060914	-0.159943
N	-0.0271995851	-0.0047056678	-0.0021493535	-0.12695
H	-0.5855501362	 1.8193850192	 0.8395803363	 0.107202
H	-0.5193559247	 1.834311009	-0.9380366367	 0.117889
H	 1.6303181336	 2.8883888363	 0.3895797281	 0.084455
H	 2.7118512989	 0.8912143462	 1.6703568123	 0.074412
H	 1.1833830112	-1.2342445449	 1.3758010287	 0.092401
H	 0.7233498073	-1.5752141008	-1.2905301258	 0.092829
H	 2.3165788907	-0.0465970824	-2.577572112	 0.097077
H	 4.1464225709	 0.7279967834	-0.7284823743	 0.096057
328.902	431.5318	532.2938	633.7725	645.4141	703.2598	730.2992	746.7991	778.6854	797.3085	833.379	866.6694	879.5299	912.8533	923.7269	932.8866	981.5693	998.7538	1005.4196	1047.9334	1053.4291	1072.4649	1087.603	1098.9212	1180.1827	1190.6149	1218.8532	1236.4575	1240.1658	1262.7769	1284.3489	1307.0398	1326.2145	1338.5378	1355.7011	1394.0523	1483.0884	3040.4654	3088.8858	3105.9228	3143.5719	3151.4951	3167.3626	3171.7096	3189.4294
C1C2C3C4C(C5C3N25)N14	C1[C@H]2[C@H]3[C@@H]4[C@H]([C@@H]5[C@H]3N25)N14	
InChI=1S/C7H8N2/c1-2-3-4-6(8(1)4)7-5(3)9(2)7/h2-7H,1H2	InChI=1S/C7H8N2/c1-2-3-4-6(8(1)4)7-5(3)9(2)7/h2-7H,1H2/t2-,3-,4+,5-,6+,7-,8?,9?/m0/s1
