18
gdb 47822	2.29347	1.93973	1.22704	4.0079	72.35	-0.2386	0.0261	0.2647	1024.114	0.149853	-439.098444	-439.090822	-439.089878	-439.130544	29.967	
O	 0.0595092232	 0.0451430929	 0.3332936179	-0.372178
C	 0.0085795812	 1.2272573408	 0.0581305769	 0.384058
N	-1.1804538073	 1.8820490419	-0.1342771553	-0.285639
C	-1.3115027853	 3.3105702334	-0.3473753303	-0.199833
C	-0.8949823682	 4.1498052752	 0.8761640017	-0.058352
O	 0.2868063035	 3.6785396046	 1.5027698636	-0.237634
C	 1.3314014935	 3.3926067731	 0.6223803876	 0.097493
C	 2.2002322828	 2.2402655765	 1.0170699292	-0.308171
C	 1.2396518042	 2.0909209939	-0.1389191259	-0.175244
H	-2.0028418885	 1.3273373345	 0.0497071737	 0.248114
H	-0.7234940057	 3.6068299428	-1.2221070566	 0.125941
H	-2.3554423096	 3.5325088076	-0.5864642846	 0.117585
H	-0.7841259262	 5.2005640997	 0.5622731426	 0.09333
H	-1.6647154785	 4.1069955283	 1.6526904367	 0.114339
H	 1.7792412141	 4.2621656635	 0.1392695432	 0.084764
H	 3.2608172067	 2.2942254605	 0.8009391696	 0.117233
H	 1.9423810706	 1.7277047204	 1.9366795938	 0.142777
H	 1.6575727197	 2.0418790205	-1.1409084536	 0.111418
78.9189	184.4437	246.2451	282.4699	329.0277	408.1184	420.0288	474.4656	526.331	634.3767	674.6862	698.3429	770.197	811.3301	817.4204	891.1643	922.8825	980.2197	1012.7038	1051.8103	1066.0516	1098.1354	1108.5096	1119.6047	1154.2167	1177.6139	1215.273	1271.1086	1280.4578	1312.5723	1377.4541	1386.9696	1408.1807	1420.2007	1456.5511	1480.3052	1490.7679	1501.4137	1793.7585	2977.9375	3049.142	3079.1779	3089.6585	3101.0835	3142.7351	3146.8036	3235.1962	3621.8243
O=C1NCCOC2CC12	O=C1NCCO[C@H]2C[C@@H]12	
InChI=1S/C6H9NO2/c8-6-4-3-5(4)9-2-1-7-6/h4-5H,1-3H2,(H,7,8)	InChI=1S/C6H9NO2/c8-6-4-3-5(4)9-2-1-7-6/h4-5H,1-3H2,(H,7,8)/t4-,5+/m1/s1
