27
gdb 100995	2.58264	1.01876	0.93994	0.0405	95.42	-0.2741	0.0778	0.3518	1490.0939	0.251136	-353.560521	-353.549682	-353.548738	-353.595971	41.499	
C	 0.1242880407	 1.6161564086	 0.026797189	-0.388897
C	 0.0175189038	 0.0870187712	 0.0062237495	-0.181228
C	-1.4179942961	-0.4473092485	-0.1717625947	-0.015246
C	-1.9849884018	-0.1291962398	-1.5645662515	-0.411114
C	-1.5311817406	-1.9471120297	 0.175745262	 0.378263
C	-0.708767788	-2.853477309	-0.7473087365	-0.456217
C	-1.2901302892	-2.3042173657	 1.6815804761	-0.258649
C	-2.5739217132	-3.1744503022	 1.6665255953	-0.222676
C	-2.9927362619	-2.4857418734	 0.3413667925	-0.262464
H	 1.1564544502	 1.9342914467	 0.205317734	 0.10952
H	-0.1956228393	 2.0624337107	-0.9199297176	 0.116635
H	-0.4967663189	 2.0450201365	 0.821579278	 0.111367
H	 0.657405001	-0.3067894563	-0.7937389384	 0.094022
H	 0.4274513952	-0.3060715608	 0.9451084458	 0.095569
H	-2.047569371	 0.0770074942	 0.5635318919	 0.057452
H	-2.9867643392	-0.5522891489	-1.6916137602	 0.113929
H	-2.0643298278	 0.949700461	-1.7258512538	 0.11256
H	-1.3486354384	-0.5335903102	-2.3592173709	 0.113443
H	 0.3587175172	-2.6145623511	-0.702103198	 0.112937
H	-0.819842202	-3.9039577164	-0.4579967566	 0.109575
H	-1.0309471336	-2.7686791738	-1.7902547892	 0.112498
H	-0.3488020313	-2.8033023854	 1.9290672357	 0.089798
H	-1.3954917045	-1.4284249393	 2.3298089149	 0.091881
H	-2.3576731583	-4.2380101043	 1.5362817649	 0.101004
H	-3.2534434196	-3.0700832619	 2.5154997002	 0.094177
H	-3.7081033288	-1.6744631897	 0.5090644662	 0.092192
H	-3.3790904946	-3.1253201028	-0.4574219588	 0.089669
73.956	84.4018	135.2784	168.7887	212.2999	235.584	264.0688	269.0979	306.7299	320.5314	332.2374	410.5154	448.2038	468.6024	659.4144	711.192	777.7353	796.0909	841.2472	865.695	913.4437	919.7003	925.887	946.9345	975.4962	990.3357	993.5559	1034.1616	1051.166	1082.8372	1132.3609	1156.598	1179.2733	1202.8363	1214.5333	1221.761	1257.7479	1276.625	1279.8143	1298.8583	1309.1913	1340.8094	1366.206	1384.7197	1406.7056	1413.3373	1416.651	1474.2096	1482.5724	1482.941	1493.9329	1496.6463	1500.4658	1506.7887	1508.0114	1508.6279	1513.9041	2979.0318	3018.0144	3030.3646	3031.2758	3037.0754	3040.4849	3045.2269	3052.2175	3062.4217	3086.7908	3092.4875	3093.8347	3095.5992	3100.3881	3100.8587	3103.8412	3109.4857	3115.1954
CCC(C)C1(C)CCC1	CC[C@@H](C)C1(C)CCC1	
InChI=1S/C9H18/c1-4-8(2)9(3)6-5-7-9/h8H,4-7H2,1-3H3	InChI=1S/C9H18/c1-4-8(2)9(3)6-5-7-9/h8H,4-7H2,1-3H3/t8-/m1/s1
