25
gdb 122510	4.39829	0.56028	0.53144	0.9398	91.4	-0.2492	0.0911	0.3402	2210.4087	0.227175	-389.473393	-389.462192	-389.461248	-389.511036	39.693	
C	-0.0477402088	 1.4928699871	-0.5730562181	-0.373302
C	-0.0194804202	 0.1614252863	 0.1872183502	-0.192543
C	-1.3704174651	-0.5263731703	 0.1981357935	 0.002186
C	-1.8028897739	-1.4237653939	-0.9379890112	-0.292023
C	-1.5511039874	-2.0088340043	 0.4350128863	-0.013966
C	-0.3964115344	-2.9570298905	 0.6845778388	-0.22921
C	-0.7622319208	-4.3997281241	 0.3526561058	-0.041817
O	 0.3521595773	-5.2225571888	 0.6237407357	-0.231285
C	 0.1093239683	-6.5799438244	 0.3514029019	-0.22678
H	 0.9338698913	 1.9770209626	-0.5641812278	 0.108877
H	-0.3416486171	 1.3425814626	-1.617197788	 0.117223
H	-0.7663170801	 2.1882494721	-0.125046944	 0.112189
H	 0.7332254307	-0.4949199704	-0.2633224803	 0.096766
H	 0.3101631592	 0.3380311519	 1.2197866722	 0.095939
H	-2.1592620406	 0.0939216534	 0.6199079223	 0.07702
H	-2.8199709227	-1.3603985064	-1.3094367733	 0.105609
H	-1.06479124	-1.6358414375	-1.7069655237	 0.106323
H	-2.4467532235	-2.2676646882	 0.9967901628	 0.078054
H	 0.476500394	-2.6793059128	 0.0853100897	 0.104901
H	-0.0823891919	-2.9121843674	 1.7348503377	 0.104549
H	-1.6318509546	-4.7230318284	 0.9523424064	 0.079438
H	-1.0567945286	-4.4842663257	-0.7076538612	 0.086407
H	 1.0210483075	-7.1327026205	 0.5919943233	 0.124241
H	-0.7182562549	-6.9792247149	 0.9601268615	 0.100552
H	-0.137943634	-6.7485730874	-0.7093493404	 0.100652
43.2289	74.2473	81.9497	96.4103	123.5821	178.4481	221.4026	232.0405	264.0255	287.6032	374.4647	435.8299	447.389	567.7206	751.7697	796.0828	797.7798	832.0076	867.7191	931.4421	949.4147	981.7627	1004.9699	1042.4182	1053.1035	1074.732	1094.8951	1117.8249	1148.5069	1163.0439	1175.5794	1196.5327	1200.7681	1227.7406	1242.6879	1251.2592	1294.2891	1304.3358	1314.2065	1340.8837	1403.1513	1412.0476	1421.8146	1435.8345	1481.3492	1482.4072	1485.1528	1487.315	1498.4761	1499.6892	1505.4535	1508.0946	1531.2541	2941.1347	2965.5045	2971.1946	3005.7198	3018.1416	3030.592	3033.6594	3058.702	3082.7892	3098.1762	3104.0718	3109.5126	3113.154	3119.8799	3125.5495	3204.2662
CCC1CC1CCOC	CC[C@H]1C[C@H]1CCOC	
InChI=1S/C8H16O/c1-3-7-6-8(7)4-5-9-2/h7-8H,3-6H2,1-2H3	InChI=1S/C8H16O/c1-3-7-6-8(7)4-5-9-2/h7-8H,3-6H2,1-2H3/t7-,8+/m0/s1
