20
gdb 59584	3.08731	1.23059	1.06337	2.0447	74.92	-0.2238	0.0655	0.2893	1206.7016	0.170714	-440.230555	-440.22176	-440.220816	-440.264109	33.509	
C	 0.1295301764	 1.2759888527	-0.4180579293	-0.411314
C	 0.0425253546	-0.1924596852	-0.0141893204	 0.11287
O	 0.7005719829	-0.4603825598	 1.2239154639	-0.437099
C	-1.397996044	-0.6737996377	 0.0839833285	 0.13635
O	-2.1823777194	-0.4560301617	-1.1255590114	-0.322267
C	-2.6592059709	-1.81637743	-1.1251105664	 0.114602
C	-1.8390291287	-2.7669679787	-2.0188500474	-0.183947
N	-0.8271025053	-2.9070873533	-0.9310202716	-0.310442
C	-1.6985622282	-2.1874009488	 0.0298618125	-0.084786
H	 1.1747817818	 1.5865668674	-0.500326542	 0.119807
H	-0.3684179484	 1.4377454369	-1.3777921318	 0.139159
H	-0.3624985687	 1.917050039	 0.325731142	 0.098945
H	 0.5540673936	-0.8195255461	-0.749744028	 0.109939
H	 0.373698053	 0.1752820848	 1.8705935624	 0.275156
H	-1.8935056971	-0.1859547966	 0.9402533906	 0.055745
H	-3.7492277408	-1.8819294922	-1.1292618887	 0.080469
H	-2.382160614	-3.6923998424	-2.2511117827	 0.095145
H	-1.4481364994	-2.3338793924	-2.9451359343	 0.112276
H	-0.626950539	-3.8632383046	-0.6679982828	 0.224723
H	-1.9613780682	-2.7066182712	 0.9514393767	 0.074669
74.4257	107.8132	156.4822	236.9929	263.0628	290.2108	332.0029	381.2642	420.6062	469.0685	543.9948	659.5323	734.8645	794.7471	809.7393	878.9334	913.0059	953.2314	972.8668	991.685	1008.5296	1021.8321	1063.8619	1068.3669	1085.0126	1113.8623	1144.286	1182.1236	1192.8521	1209.6983	1254.8066	1270.0655	1288.3781	1316.081	1338.3007	1350.7332	1383.5249	1398.1205	1417.7616	1424.1334	1492.5618	1494.4886	1496.5916	2961.0886	3013.0878	3019.9107	3077.7094	3080.7151	3084.8474	3101.3639	3110.395	3128.3462	3563.672	3793.3495
CC(O)C1OC2CNC12	C[C@@H](O)[C@H]1O[C@H]2CN[C@@H]12	
InChI=1S/C6H11NO2/c1-3(8)6-5-4(9-6)2-7-5/h3-8H,2H2,1H3	InChI=1S/C6H11NO2/c1-3(8)6-5-4(9-6)2-7-5/h3-8H,2H2,1H3/t3-,4+,5-,6-/m1/s1
