23
gdb 93826	2.37477	1.33342	1.03151	1.7549	81.79	-0.2477	0.0754	0.3231	1273.2206	0.20592	-425.444936	-425.435396	-425.434452	-425.478563	37.073	
C	-0.0690375431	 1.5477866695	 0.0589439729	-0.400708
C	-0.0075136086	 0.0294099793	-0.0150550702	 0.141165
C	 0.6649364182	-0.4856896388	-1.2971636116	-0.239682
C	 0.8311070778	-2.0098917689	-1.251768634	 0.114541
O	 1.5676487407	-2.511401318	-2.3589004871	-0.44174
C	 1.5385275888	-2.4480382336	 0.0411976255	 0.007457
C	 3.0266655203	-2.0755506085	 0.0804198476	-0.395774
C	 0.7679313866	-1.8329792486	 1.2199562662	-0.09298
O	 0.7016169843	-0.4190926633	 1.1338348988	-0.25716
H	 0.9399647668	 1.9707986401	 0.0328490445	 0.123686
H	-0.6380572688	 1.9522832084	-0.7835410508	 0.111668
H	-0.5488658258	 1.8641233529	 0.9889045277	 0.123346
H	-1.0353564244	-0.3770723515	 0.0262609635	 0.059755
H	 0.0602614589	-0.1998013999	-2.1685051158	 0.081449
H	 1.6469461352	-0.0131107791	-1.4114644937	 0.110254
H	-0.1768917204	-2.4613413317	-1.2419948731	 0.057465
H	 1.1550569076	-2.1826893859	-3.1640609892	 0.278599
H	 1.4494856153	-3.5396501136	 0.1109187145	 0.074028
H	 3.1624740695	-0.9954436843	 0.1815927195	 0.122186
H	 3.51246903	-2.5493955399	 0.9397948587	 0.105191
H	 3.5325939007	-2.4069940011	-0.828298105	 0.132019
H	-0.2517367648	-2.2534807881	 1.266381803	 0.081114
H	 1.2667225052	-2.0574043054	 2.167709518	 0.10412
108.0766	158.1419	204.2788	220.3057	244.1379	263.1977	270.4945	291.5543	364.872	401.6482	422.1734	481.056	501.2356	584.95	678.908	788.731	831.092	881.8388	917.2658	946.8826	969.4965	995.8802	1027.6627	1046.0801	1069.4691	1125.4839	1137.6759	1149.4988	1168.2821	1176.5512	1227.4064	1260.963	1288.5532	1292.1808	1318.8229	1369.2813	1380.089	1386.8238	1394.7229	1403.6667	1406.4906	1413.2812	1444.541	1479.0809	1484.8348	1492.2302	1499.8681	1503.087	1511.1638	2925.1342	2936.2326	2955.7746	3017.6658	3028.4907	3042.3957	3044.999	3074.7649	3079.6642	3109.4167	3115.9377	3121.6429	3137.821	3814.6479
CC1CC(O)C(C)CO1	C[C@H]1C[C@@H](O)[C@@H](C)CO1	
InChI=1S/C7H14O2/c1-5-4-9-6(2)3-7(5)8/h5-8H,3-4H2,1-2H3	InChI=1S/C7H14O2/c1-5-4-9-6(2)3-7(5)8/h5-8H,3-4H2,1-2H3/t5-,6-,7+/m0/s1
