15
gdb 123658	4.08199	1.59002	1.24924	3.9982	70.89	-0.2016	-0.0066	0.195	951.9612	0.115983	-416.765025	-416.758845	-416.757901	-416.795441	25.319	
C	 0.0133655525	 1.4866011556	 0.0957210951	-0.299074
C	 1.3151277181	 0.7273187435	-0.0046161834	 0.000936
N	 2.0791149992	 0.3594296047	 1.192721904	-0.415719
C	 1.184736448	-0.4045905184	 1.9737126616	 0.149677
C	 0.048578517	-0.7092408956	 1.2993830466	 0.404064
O	-0.7246778034	-1.5462726353	 1.9935215105	-0.229865
N	-0.0752287895	-1.803111107	 3.2136879706	-0.15092
C	 1.0560252294	-1.1179462045	 3.1863106091	-0.098084
C	-0.0252959908	-0.0313221922	-0.0065104006	-0.20515
H	-0.2726613623	 1.937327759	 1.0396002316	 0.125226
H	-0.2834046804	 2.0416142004	-0.7874279954	 0.123755
H	 1.9051955341	 0.8294083714	-0.9082604234	 0.108456
H	 2.5051113411	 1.1520821525	 1.6584783153	 0.240463
H	 1.7134285048	-1.1818226807	 4.0413776302	 0.129858
H	-0.4252176877	-0.5158068235	-0.8883212318	 0.116377
153.3485	268.3805	367.7378	417.1078	438.4278	587.3557	627.6983	657.6899	707.8243	736.2816	781.16	809.7048	837.8153	881.556	888.2509	940.9857	971.4638	981.6599	1037.0259	1057.7676	1091.9734	1131.9279	1167.533	1193.0276	1205.8627	1269.8317	1343.4283	1359.5484	1395.6253	1434.9326	1466.4857	1526.5076	1656.3234	3134.1999	3172.3112	3192.4284	3226.762	3246.6902	3546.1213
C1C2NC3=C(ON=C3)C12	C1[C@H]2Nc3c(onc3)[C@@H]12	
InChI=1S/C6H6N2O/c1-3-4(1)8-5-2-7-9-6(3)5/h2-4,8H,1H2	InChI=1S/C6H6N2O/c1-3-4(1)8-5-2-7-9-6(3)5/h2-4,8H,1H2/t3-,4+/m0/s1
