22
gdb 13626	3.63828	1.17732	1.01858	1.4249	78.67	-0.2552	0.0753	0.3305	1264.5116	0.198577	-350.198775	-350.188878	-350.187933	-350.233456	36.151	
C	 0.059377058	 1.5572304679	 0.0877333678	-0.383957
C	-0.0310567923	 0.0311321594	 0.1469018866	-0.179189
C	-1.448221285	-0.5014826403	-0.1113989594	 0.124409
O	-1.9467686572	-0.0609446785	-1.3782365135	-0.435816
C	-1.512555589	-2.0090482518	 0.0176248434	-0.01539
C	-1.8443363379	-2.6712399183	 1.3368020757	-0.302997
C	-2.8169617567	-2.7534365061	 0.1855422804	-0.002977
C	-4.1564668122	-2.0497768492	 0.231105491	-0.398654
H	 1.0905360212	 1.9002494386	 0.2156956071	 0.106267
H	-0.3126285139	 1.9256076934	-0.8717503675	 0.127834
H	-0.5457588836	 2.0181320717	 0.8766082702	 0.111533
H	 0.6472483875	-0.4130834185	-0.596678168	 0.081119
H	 0.3068154981	-0.3358359236	 1.1238457985	 0.099284
H	-2.1281801286	-0.0425780913	 0.6160181257	 0.079331
H	-1.4402643922	-0.5158211894	-2.0603271793	 0.273307
H	-0.7595432567	-2.5180694648	-0.5841622969	 0.068933
H	-1.2910343064	-3.5560654064	 1.6322144108	 0.107382
H	-2.1097712427	-2.0207315188	 2.1655583083	 0.107944
H	-2.8500513205	-3.7153118598	-0.3207584463	 0.079737
H	-4.1164948319	-1.1317970122	 0.8240610494	 0.115933
H	-4.4944423975	-1.7752345254	-0.7731041126	 0.12606
H	-4.9162688803	-2.6968777766	 0.6829783088	 0.109909
60.4707	102.4724	114.8214	187.4643	201.8392	230.842	250.5523	263.9249	355.3746	378.9755	415.1727	507.4695	561.022	770.5951	782.1388	836.0092	859.7299	883.8198	919.5076	980.2483	997.1783	1034.2215	1057.141	1068.375	1098.4048	1110.4386	1117.0526	1149.2381	1172.2613	1197.9055	1238.4587	1261.3979	1286.8342	1329.396	1377.3547	1396.0449	1404.7161	1416.4927	1423.4555	1436.338	1479.6114	1490.4768	1495.3241	1496.0708	1503.619	1509.2929	3000.538	3034.0308	3035.6555	3042.1032	3056.9155	3096.0014	3098.7788	3100.9886	3107.8205	3122.1942	3122.4861	3133.8759	3206.0365	3798.3155
CCC(O)C1CC1C	CC[C@@H](O)[C@H]1C[C@H]1C	
InChI=1S/C7H14O/c1-3-7(8)6-4-5(6)2/h5-8H,3-4H2,1-2H3	InChI=1S/C7H14O/c1-3-7(8)6-4-5(6)2/h5-8H,3-4H2,1-2H3/t5-,6+,7-/m1/s1
