19
gdb 40660	3.34472	1.44352	1.23471	2.2177	79.69	-0.214	0.0084	0.2224	1060.0312	0.16149	-382.004602	-381.997141	-381.996197	-382.036704	29.763	
C	 0.9920325672	-1.06926376	-0.5269370753	-0.223975
C	 0.027829367	 0.0018566861	-0.9072864098	-0.222703
N	 0.6829889054	 0.0125080053	 0.4002362126	-0.099178
C	-0.0875835067	-0.2874386002	 1.6081670237	 0.016885
C	-0.8824219695	 0.921177486	 2.078787933	-0.081738
C	-2.1217587375	 0.607856746	 2.4549960644	-0.061114
C	-2.3835516915	-0.8476366273	 2.2332504354	-0.090334
N	-2.3450566866	-1.2104901769	 0.7900274064	-0.323541
C	-1.142486274	-1.410847211	 1.6406001526	-0.089479
H	 0.5789147295	-2.0566546494	-0.3303147473	 0.104151
H	 2.0043250778	-1.0747500623	-0.9233038536	 0.109497
H	 0.3437534381	 0.7979560636	-1.5770171317	 0.106094
H	-1.0227130484	-0.2621456867	-0.9499358407	 0.151333
H	 0.666705397	-0.542882909	 2.3687219496	 0.089366
H	-0.4464623545	 1.9129514385	 2.0624349809	 0.105874
H	-2.8686991054	 1.296873043	 2.8305265107	 0.100072
H	-3.0268044733	-1.4187340777	 2.8938682346	 0.091975
H	-2.7911422861	-2.1191996614	 0.6711947984	 0.227999
H	-0.8280324584	-2.4268637765	 1.8522428161	 0.088817
66.5764	176.7503	190.5897	292.7974	340.3095	443.2986	487.036	538.6651	696.857	748.1271	776.5743	803.6437	828.4499	838.1591	874.3145	903.7089	915.2847	930.5666	949.8858	975.6635	1019.246	1051.8689	1062.5298	1086.7019	1115.0753	1124.3295	1129.3737	1146.8386	1169.8335	1177.5771	1191.7178	1246.9647	1296.2483	1317.3144	1332.2165	1353.1323	1389.8959	1406.5102	1493.0585	1518.123	1673.8333	2980.0284	3096.079	3111.65	3163.3719	3173.5536	3177.0067	3195.6067	3219.2546	3219.9259	3469.9382
C1CN1C1C=CC2NC12	C1CN1[C@H]1C=C[C@H]2N[C@@H]12	
InChI=1S/C7H10N2/c1-2-6(9-3-4-9)7-5(1)8-7/h1-2,5-8H,3-4H2	InChI=1S/C7H10N2/c1-2-6(9-3-4-9)7-5(1)8-7/h1-2,5-8H,3-4H2/t5-,6+,7-/m1/s1
