18
gdb 92969	2.62417	1.48328	1.08091	1.3831	71.87	-0.2384	-0.0188	0.2196	1129.7184	0.146528	-439.122956	-439.113986	-439.113042	-439.157703	32.254	
C	 0.5704193298	 1.8063549389	-0.3479362933	-0.403917
C	 0.232673431	 0.3247693904	-0.292828837	 0.098224
O	 1.2813616721	-0.4164333172	-0.9944774788	-0.226388
C	 1.8768371099	-1.1897348939	-0.0665050916	 0.114132
N	 1.4164718753	-1.2391153719	 1.1141898343	-0.280466
C	 0.2281354916	-0.3701388124	 1.1122435711	-0.103598
C	 0.1344475583	 0.5674456156	 2.3250850647	 0.364756
C	 1.1006857714	 0.3367066804	 3.4623487832	-0.468232
O	-0.7212835335	 1.4231393018	 2.3530212214	-0.306425
H	 1.5033370588	 2.0184091123	 0.1843494845	 0.120947
H	 0.6922681465	 2.1147493368	-1.3895214275	 0.125611
H	-0.227893377	 2.3915362829	 0.1106915381	 0.155606
H	-0.6960430881	 0.1297213277	-0.8328617044	 0.106374
H	 2.7435873632	-1.7360402509	-0.4228949384	 0.144269
H	-0.6619341473	-1.0096430462	 1.2014144859	 0.123361
H	 1.0355350009	-0.6988994382	 3.8107920186	 0.154704
H	 2.129263194	 0.4654371905	 3.1095957754	 0.147778
H	 0.8833278831	 1.0322157132	 4.2735918739	 0.133265
38.5095	57.0664	146.4205	192.879	230.2158	275.8387	342.5748	368.4956	451.0773	487.1801	557.1653	598.6399	735.9431	758.9228	836.8687	858.7438	934.9706	970.5342	993.0057	1015.2437	1028.8531	1073.4304	1092.675	1144.6312	1151.3942	1228.3954	1268.1378	1304.3941	1309.9032	1355.8176	1381.4237	1384.49	1411.4129	1448.8004	1463.6473	1491.5571	1494.1766	1701.2766	1802.842	3001.1193	3047.04	3047.8535	3085.4831	3108.0615	3119.7115	3152.0114	3158.0853	3211.3123
CC1OC=NC1C(C)=O	C[C@H]1OC=N[C@H]1C(=O)C	
InChI=1S/C6H9NO2/c1-4(8)6-5(2)9-3-7-6/h3,5-6H,1-2H3	InChI=1S/C6H9NO2/c1-4(8)6-5(2)9-3-7-6/h3,5-6H,1-2H3/t5-,6+/m1/s1
