25
gdb 58459	2.88202	0.98888	0.95357	1.257	88.94	-0.2503	0.0667	0.317	1456.4813	0.226517	-389.496519	-389.485769	-389.484825	-389.531661	41.218	
C	-0.182451623	 1.5071470079	 0.0049015646	-0.417021
C	 0.0416191967	-0.0103026285	-0.0784719235	-0.007938
C	 0.834969369	-0.3879701319	-1.3361436978	-0.392459
C	 0.7221058613	-0.5476445931	 1.1889983177	 0.427645
O	 2.0329945792	-0.0074770649	 1.3544684753	-0.495254
C	-0.0811302987	-0.5071232104	 2.5259556782	-0.295375
C	 0.4613231115	-1.9263041132	 2.8594606654	 0.052499
C	-0.4836453893	-2.9397028864	 3.4848451093	-0.408823
C	 0.8438947604	-2.0843612743	 1.3605937765	-0.266204
H	 0.7709037506	 2.0492705071	 0.0121346982	 0.108307
H	-0.7466696039	 1.8671895934	-0.860870513	 0.115677
H	-0.7406487874	 1.7864901305	 0.9051534135	 0.114374
H	-0.94457326	-0.4919997963	-0.13069679	 0.063966
H	 1.8461164813	 0.0265145426	-1.2866808776	 0.125073
H	 0.9257684911	-1.4739749824	-1.4395019914	 0.113523
H	 0.347928922	-0.0050615929	-2.2387655791	 0.10293
H	 1.941604399	 0.9275251376	 1.5661905986	 0.275536
H	 0.1575260062	 0.3061174649	 3.2178973494	 0.085949
H	-1.1628807553	-0.5169437653	 2.352179235	 0.090177
H	 1.3707195005	-1.8393425525	 3.4609429432	 0.080136
H	-1.4019361637	-3.0398991039	 2.8939519028	 0.106905
H	-0.0199406999	-3.9307455085	 3.5477137568	 0.113464
H	-0.7725331168	-2.643468257	 4.4997513882	 0.111804
H	 0.0693226766	-2.6153890884	 0.7975449156	 0.089815
H	 1.8207387929	-2.509827094	 1.1227836341	 0.105293
73.0231	81.9281	174.3993	219.1077	236.8182	243.1893	271.7977	279.0004	303.9067	317.8573	343.4038	360.1603	439.6176	457.7021	511.0291	634.8926	724.6832	819.1889	871.9029	881.2879	899.2094	924.7406	931.4355	957.2268	962.2378	1009.1344	1035.6426	1055.9078	1071.0104	1130.3999	1143.7931	1157.7018	1197.5365	1217.781	1229.6344	1267.4073	1287.8562	1292.9179	1327.1327	1349.0402	1363.6306	1383.9428	1396.0016	1411.6481	1416.0687	1459.1597	1482.5737	1487.6334	1493.5653	1496.2551	1496.4746	1506.6952	1514.3097	3007.9264	3019.3956	3023.3991	3035.3138	3036.04	3050.2723	3058.7483	3085.6561	3087.1994	3088.1735	3095.2759	3099.1021	3101.6976	3114.3243	3119.2577	3807.0096
CC(C)C1(O)CC(C)C1	CC(C)[C@@]1(O)C[C@@H](C)C1	
InChI=1S/C8H16O/c1-6(2)8(9)4-7(3)5-8/h6-7,9H,4-5H2,1-3H3	InChI=1S/C8H16O/c1-6(2)8(9)4-7(3)5-8/h6-7,9H,4-5H2,1-3H3/t7-,8-
