18
gdb 82782	3.05646	1.97867	1.83296	0.5649	72.8	-0.2029	0.0737	0.2766	849.0502	0.149859	-401.878392	-401.871907	-401.870963	-401.908958	27.085	
C	-0.2474817743	 1.577620481	-0.0663335718	-0.410825
C	 0.0257477216	 0.0897281281	-0.0218670587	 0.046668
C	 1.1193633751	-0.53170944	-0.9260558955	 0.03576
O	 2.2160974581	 0.3630759356	-1.0558577698	-0.254891
C	 2.8704778467	 0.3452007815	 0.1886993971	 0.0942
C	 2.8256752615	-0.9979252984	 0.8442137112	-0.149182
C	 2.0470976021	 0.172407222	 1.454037704	-0.081518
N	 0.7300671156	-0.4751430656	 1.1944889692	-0.161369
C	 1.4706545849	-1.458082474	 0.307092332	-0.025463
H	 0.6800281075	 2.1539249152	-0.04707832	 0.132343
H	-0.7861353055	 1.8420988381	-0.9822386744	 0.118645
H	-0.8653598718	 1.8748594732	 0.7874291026	 0.121942
H	-0.9092057065	-0.4757750096	-0.1184081162	 0.07853
H	 0.8684447749	-0.929002357	-1.9122734322	 0.074449
H	 3.7581886203	 0.9649538488	 0.2130197691	 0.109839
H	 3.6583971188	-1.5902377843	 1.195358716	 0.099371
H	 2.2180106613	 0.7432342669	 2.3607086602	 0.092464
H	 1.1537705997	-2.4994840216	 0.3204585173	 0.079035
163.5748	191.5974	236.3185	432.7468	527.7581	591.2068	649.7827	663.0053	720.7868	785.8828	789.3862	807.8355	824.5572	857.0495	927.8932	939.7109	950.4022	960.8131	984.128	1005.104	1043.015	1050.0235	1077.5978	1106.0778	1125.8144	1147.496	1163.7413	1173.0277	1210.9773	1235.3102	1253.1758	1279.4568	1296.3388	1338.3061	1378.8378	1401.231	1412.9109	1486.7799	1494.8028	3029.239	3041.0106	3083.6602	3102.7682	3128.9875	3131.4235	3161.0347	3200.1361	3217.6746
CC1C2OC3C4C3N1C24	C[C@H]1[C@H]2O[C@@H]3[C@H]4[C@@H]3N1[C@@H]24	
InChI=1S/C7H9NO/c1-2-6-4-3-5(8(2)4)7(3)9-6/h2-7H,1H3	InChI=1S/C7H9NO/c1-2-6-4-3-5(8(2)4)7(3)9-6/h2-7H,1H3/t2-,3+,4+,5-,6+,7+/m0/s1
