16
gdb 123547	4.19423	1.63922	1.43721	5.5139	73.98	-0.2449	0.0057	0.2506	904.1934	0.12886	-396.888299	-396.882397	-396.881453	-396.918647	24.24	
C	-0.0449297692	 1.5866039652	-0.0431477018	-0.217503
C	 1.4999065433	 1.35030904	 0.0029223058	-0.010274
C	 1.1867973267	 0.1761558068	 0.9866870068	-0.217498
C	-0.0658336383	 0.0095812905	 0.039375744	-0.191547
C	 0.6428310694	-0.3207496832	-1.2606042471	 0.362393
C	 0.8367490301	-1.0073391027	-2.4329662215	-0.257546
N	 1.9492542942	-0.4829599982	-3.0459524482	-0.199207
N	 2.4522112989	 0.4858876517	-2.32014336	-0.175606
N	 1.6568548178	 0.5754099341	-1.2460712277	 0.098185
H	-0.4269970296	 2.0630769379	 0.8621451917	 0.115006
H	-0.4510231954	 2.0566711485	-0.9404890398	 0.124631
H	 2.2497888639	 2.119899195	 0.1600577632	 0.112727
H	 1.9065911405	-0.6430249762	 1.030694577	 0.124627
H	 0.9181804761	 0.5227132886	 1.9868362199	 0.115001
H	-0.949529998	-0.5528006099	 0.326097375	 0.095715
H	 0.2835000797	-1.8163452982	-2.8792161873	 0.120897
102.9335	307.7226	402.3016	480.8572	515.3307	674.301	692.0888	696.2109	744.6199	808.2642	827.6181	837.8763	866.4335	906.1536	991.1692	998.0429	1021.6853	1033.3938	1064.3601	1086.7145	1103.4313	1106.4872	1160.7148	1219.6179	1222.3321	1227.4056	1232.2441	1253.6902	1279.1232	1301.4132	1328.6274	1446.2715	1477.5843	1511.3207	1577.1104	3069.5892	3077.1867	3141.2591	3145.7783	3167.2197	3176.3957	3280.2939
C1C2CC1C1=CN=NN21	C1[C@H]2C[C@@H]1c1cnnn21	
InChI=1S/C6H7N3/c1-4-2-5(1)9-6(4)3-7-8-9/h3-5H,1-2H2	InChI=1S/C6H7N3/c1-4-2-5(1)9-6(4)3-7-8-9/h3-5H,1-2H2/t4-,5+
