18
gdb 6970	2.46353	2.30615	1.61336	1.6086	68.02	-0.2406	0.0089	0.2496	872.4722	0.153101	-384.948722	-384.94065	-384.939706	-384.980579	31.66	
C	-0.0389081315	 1.5460371183	 0.017869418	-0.449465
C	 0.0187580637	 0.016462097	-0.0447281911	 0.370856
O	-1.2830984708	-0.5142399767	-0.2703156505	-0.479606
C	 0.9425612643	-0.4586634581	-1.1949670942	-0.289477
C	 2.2481094614	-0.7629508883	-0.5045436311	-0.066062
C	 2.111747785	-0.8314238377	 0.8192016803	-0.125525
C	 0.6856037313	-0.5874063293	 1.2435561351	 0.042187
O	 0.5263496247	 0.1771639263	 2.431236935	-0.436203
H	 0.9648714258	 1.9803570077	 0.0878194657	 0.110537
H	-0.5151779291	 1.9289556758	-0.8885201311	 0.124446
H	-0.6144601571	 1.8796691911	 0.8867093507	 0.117445
H	-1.8456805523	-0.2185535994	 0.4542571664	 0.279139
H	 0.5117919066	-1.3604247341	-1.6478627201	 0.125287
H	 1.0364870785	 0.2837189995	-1.9955563532	 0.100985
H	 3.1681292455	-0.9426880566	-1.0503766392	 0.097735
H	 2.8892121586	-1.076544007	 1.5346919599	 0.098329
H	 0.1753197679	-1.5345650285	 1.4620132444	 0.099966
H	 1.0974842674	 0.9498101401	 2.3628254249	 0.279426
80.692	243.7305	265.2784	294.6091	306.1858	346.3431	356.0708	364.2319	440.2735	486.0342	559.5369	599.738	708.3546	744.9284	798.9758	923.1323	931.3588	964.9655	976.0758	982.4895	1019.4866	1067.3067	1111.5354	1118.209	1144.076	1175.6092	1233.8224	1253.9682	1301.2285	1320.3018	1355.5117	1384.292	1395.8339	1429.0529	1481.1998	1494.3085	1502.7163	1682.3052	3025.4749	3029.3708	3032.5697	3063.7341	3100.9115	3120.4551	3178.9739	3203.9236	3799.194	3805.3998
CC1(O)CC=CC1O	C[C@@]1(O)CC=C[C@H]1O	
InChI=1S/C6H10O2/c1-6(8)4-2-3-5(6)7/h2-3,5,7-8H,4H2,1H3	InChI=1S/C6H10O2/c1-6(8)4-2-3-5(6)7/h2-3,5,7-8H,4H2,1H3/t5-,6-/m1/s1
