20
gdb 67100	2.51156	2.04895	1.70133	1.8307	82.43	-0.2244	0.088	0.3124	928.0402	0.172688	-365.927256	-365.920085	-365.91914	-365.958299	29.835	
C	-0.0634221844	 1.5875348826	-0.127097631	-0.530915
C	-0.0628719233	 0.0825718921	-0.0599272437	 0.327157
C	 0.8097975005	-0.9390068695	-0.8366920607	-0.069653
C	 1.9453476055	-0.9426380413	 0.2193472066	-0.352708
C	 0.625161893	-0.8561038013	 0.9987159074	 0.305605
C	-0.1454557464	-0.8907666225	 2.2981564062	-0.341856
C	-1.5779005039	-0.9256415604	 1.6399151771	-0.224374
C	-1.2191056549	-0.9049105218	 0.1347362888	-0.063011
N	-0.0452588237	-1.8746724345	 0.0433693017	-0.178457
H	 0.9567328359	 1.9877070719	-0.1120073385	 0.119976
H	-0.5457290019	 1.9428550003	-1.044795305	 0.122735
H	-0.6052268944	 2.0214867685	 0.7212309517	 0.119614
H	 0.8928373716	-1.0959026073	-1.9137442533	 0.075029
H	 2.5058286825	-1.8760521885	 0.3173698847	 0.10895
H	 2.602276597	-0.0701930491	 0.2522993089	 0.098831
H	 0.061315939	-1.7817469309	 2.895657673	 0.112872
H	 0.0160725613	-0.0058492128	 2.9197290835	 0.101489
H	-2.1211968586	-1.8376060257	 1.9015230619	 0.111482
H	-2.1937904283	-0.0698348368	 1.9318177297	 0.099512
H	-2.0400193762	-1.0301836929	-0.5765611492	 0.057723
181.2336	201.9754	215.3861	266.7013	409.9296	438.3785	463.4893	612.7938	668.7721	714.2613	728.5093	814.5808	824.373	852.6032	868.3884	886.4628	900.2137	933.4169	954.699	964.3162	1011.0385	1012.7619	1052.9951	1074.6175	1125.7188	1151.2538	1156.2729	1173.6593	1199.7376	1224.3927	1226.4361	1233.4495	1265.7582	1268.2341	1285.8904	1332.4603	1369.0441	1406.5206	1474.8021	1484.8428	1488.6086	1493.7118	1500.6955	3021.2628	3054.2724	3058.0835	3064.6643	3078.6764	3086.8505	3089.2593	3095.9056	3097.9883	3116.5407	3124.3697
CC12C3CC11CCC2N31	C[C@@]12[C@H]3C[C@]41CC[C@@H]2N34	
InChI=1S/C8H11N/c1-7-5-2-3-8(7)4-6(7)9(5)8/h5-6H,2-4H2,1H3	InChI=1S/C8H11N/c1-7-5-2-3-8(7)4-6(7)9(5)8/h5-6H,2-4H2,1H3/t5-,6+,7+,8-/m0/s1
