21
gdb 87876	3.16661	1.20539	1.17785	1.7565	82.05	-0.2507	0.0705	0.3212	1190.6516	0.182202	-387.051389	-387.042927	-387.041983	-387.084756	32.859	
C	-0.089835528	 1.5897760979	 0.2590905906	-0.416175
C	-0.1475093851	 0.0849270262	 0.3039811544	-0.023288
O	 1.0009240995	-0.6220039532	-0.1975512666	-0.298961
C	 0.7017527529	-0.7225598547	 1.1873742479	 0.445163
C	 1.7006299963	-0.3062033334	 2.2776172981	-0.330745
C	 1.3303960929	-1.5931104889	 3.0636941229	-0.017271
C	 0.0744326169	-1.4778613796	 3.9740374474	-0.222813
C	-0.8230595995	-2.039050893	 2.8281854364	-0.222912
C	 0.4022778577	-2.0597129401	 1.8774915418	-0.126819
H	 0.8719558554	 1.9549484372	 0.6281049464	 0.127117
H	-0.2217280508	 1.9505851701	-0.7664602961	 0.128643
H	-0.8877717532	 2.0233790409	 0.8720811272	 0.118819
H	-1.0965661442	-0.353557366	-0.0131107033	 0.085083
H	 2.7257624204	-0.3194111831	 1.896078645	 0.114911
H	 1.5265642845	 0.6489236193	 2.7836942011	 0.097981
H	 2.1581607363	-2.1924423369	 3.4420246809	 0.068133
H	 0.1054190529	-2.112449261	 4.8626893196	 0.10244
H	-0.1575304667	-0.4585091942	 4.2970751962	 0.096101
H	-1.2033613003	-3.0402946684	 3.0453446791	 0.10225
H	-1.6654410374	-1.4175240462	 2.5109021486	 0.095734
H	 0.5805195496	-2.9485374728	 1.2707590723	 0.076611
50.2834	135.2926	179.1043	196.7216	241.3976	348.7443	413.7396	435.4444	479.4983	543.0192	687.4199	749.7801	778.8012	790.1561	834.1106	862.874	907.3486	922.6745	943.8946	958.0268	988.7372	1014.3897	1049.1717	1060.1989	1105.1083	1114.4115	1133.0483	1146.308	1182.7734	1203.0317	1209.3542	1241.2976	1242.523	1266.6527	1282.3285	1293.2625	1306.4002	1351.2678	1408.5661	1461.8048	1475.4087	1477.4483	1489.432	1494.6413	1516.395	3034.8296	3044.4138	3050.4418	3056.8979	3079.6121	3090.7181	3096.9369	3097.7936	3103.2445	3107.2471	3118.7055	3124.4651
CC1OC11CC2CCC12	C[C@H]1O[C@]21C[C@H]1CC[C@@H]21	
InChI=1S/C8H12O/c1-5-8(9-5)4-6-2-3-7(6)8/h5-7H,2-4H2,1H3	InChI=1S/C8H12O/c1-5-8(9-5)4-6-2-3-7(6)8/h5-7H,2-4H2,1H3/t5-,6-,7-,8+/m1/s1
