21
gdb 74949	2.9613	1.47134	1.30289	1.4937	83.15	-0.2302	0.0248	0.255	1092.3136	0.185448	-387.12126	-387.113557	-387.112613	-387.153165	31.225	
C	-0.0646606276	 1.546459402	 0.0777939473	-0.476188
C	-0.0043674286	 0.0476605545	-0.002152797	 0.317344
C	 0.0233817802	-0.6285047644	-1.1531917707	-0.160046
C	 0.0548588196	-2.141737161	-1.1569476571	 0.035714
C	 1.4953319633	-2.6706992346	-0.9758629626	-0.209786
C	 1.6821085832	-2.5222644505	 0.558974296	-0.233846
C	 0.2443208365	-2.2139524177	 1.0688069887	 0.085256
C	 0.0029900535	-0.7143487395	 1.3084962962	-0.299803
O	-0.6089281742	-2.6431796011	 0.0051325022	-0.258197
H	 0.8004603508	 1.952291917	 0.6182101752	 0.120073
H	-0.0914793053	 2.003552601	-0.9152200431	 0.119336
H	-0.9554853511	 1.8758633488	 0.6287143641	 0.123719
H	 0.0427345051	-0.1115674128	-2.1094274885	 0.077281
H	-0.4561501588	-2.5527601552	-2.0312848152	 0.075851
H	 1.549407454	-3.7196673078	-1.2806816596	 0.100544
H	 2.2322728181	-2.1065439664	-1.5521471576	 0.099169
H	 2.0653528073	-3.4440819184	 1.002069394	 0.104284
H	 2.3792749137	-1.7203950186	 0.8141494593	 0.10163
H	-0.0215703683	-2.7958123188	 1.9548609466	 0.073005
H	 0.7770729352	-0.3115740564	 1.9765749779	 0.097681
H	-0.9537625467	-0.5637537902	 1.828376814	 0.106978
121.155	157.9937	196.0053	314.1013	344.1266	381.2412	424.5514	471.0623	552.6333	609.8707	741.9265	776.2785	817.4327	827.2455	844.8703	863.0521	894.8633	931.2983	958.1135	996.9207	1005.282	1032.5014	1040.6913	1051.7955	1076.662	1100.2274	1157.9819	1188.5979	1210.9629	1231.6382	1256.9878	1291.523	1307.5187	1325.1065	1327.9698	1349.2021	1380.3417	1396.7516	1413.0821	1467.076	1477.8624	1483.8784	1489.6119	1505.4726	1732.0623	3003.0407	3013.5957	3032.5091	3055.8646	3058.2989	3067.525	3076.8717	3083.5612	3102.0305	3108.1077	3119.6153	3155.6057
CC1=CC2CCC(C1)O2	CC1=C[C@H]2CC[C@@H](C1)O2	
InChI=1S/C8H12O/c1-6-4-7-2-3-8(5-6)9-7/h4,7-8H,2-3,5H2,1H3	InChI=1S/C8H12O/c1-6-4-7-2-3-8(5-6)9-7/h4,7-8H,2-3,5H2,1H3/t7-,8+/m1/s1
