15
gdb 67934	2.14446	1.47862	1.03511	3.1082	68.44	-0.2498	-0.0437	0.2061	1130.8573	0.109866	-457.749858	-457.74154	-457.740596	-457.783115	30.604	
O	 0.1189535539	 1.3859182998	-0.1307598015	-0.442046
C	 0.0375014102	 0.021778494	-0.064461996	 0.423895
C	 0.7014080479	-0.8135883169	-1.1581632091	-0.417668
C	-0.5333535014	-1.7532406479	-1.0857133448	 0.426961
O	-0.8994843022	-2.663107078	-1.7732083273	-0.30919
C	-1.1897746929	-0.945788872	-0.0062872514	-0.289227
C	-0.2200758174	-0.7531478288	 1.1884608712	-0.205437
C	 0.6318580931	-1.8523926116	 1.7294488348	 0.151962
O	 0.9418202946	-1.9361679866	 2.8905624825	-0.253201
H	-0.2099839792	 1.7745155853	 0.6871442608	 0.30027
H	 0.6921867503	-0.2806028483	-2.1137738604	 0.15143
H	 1.7002917813	-1.2173021952	-0.9785261766	 0.130022
H	-2.251511566	-0.7928189803	 0.144902758	 0.124917
H	-0.6662501996	-0.1541994862	 1.9817287209	 0.113609
H	 0.9616441874	-2.6096742675	 0.9855632887	 0.093704
82.5176	106.7992	169.2916	242.9045	258.3164	329.043	395.446	433.3497	466.7676	507.669	595.6717	614.7456	665.1262	754.9793	830.5165	919.7505	953.699	986.2418	1019.9357	1045.6092	1087.4394	1098.6126	1132.5232	1160.7638	1210.4259	1216.22	1285.5478	1381.2694	1413.5608	1453.0232	1478.5556	1820.5825	1883.2063	2899.1116	3066.0171	3121.1958	3127.779	3197.2627	3814.0257
OC12CC(=O)C1C2C=O	O[C@]12CC(=O)[C@H]1[C@H]2C=O	
InChI=1S/C6H6O3/c7-2-3-5-4(8)1-6(3,5)9/h2-3,5,9H,1H2	InChI=1S/C6H6O3/c7-2-3-5-4(8)1-6(3,5)9/h2-3,5,9H,1H2/t3-,5-,6+/m1/s1
