22
gdb 10359	1.95126	1.59727	1.11169	1.6625	74.65	-0.257	0.068	0.325	1208.7955	0.197829	-387.339092	-387.328508	-387.327564	-387.37449	37.963	
C	 0.6211680306	-0.0615081706	 1.452679352	-0.393333
C	 0.0939072265	-0.1356712864	 0.0165870707	-0.183346
C	-1.3347725124	-0.7028483813	-0.1099470686	 0.056903
C	-1.9537858406	-0.2929533903	-1.4509079622	-0.095331
O	-2.1295200946	 1.1209538768	-1.4281649539	-0.427203
C	-1.369417044	-2.2280367846	 0.095013421	 0.112079
C	-2.7687580296	-2.8016592635	 0.3337261553	-0.41289
O	-0.7612322345	-2.8138287496	-1.0590275211	-0.437015
H	 1.6318931995	 0.3584254929	 1.4763525325	 0.109916
H	-0.0168860158	 0.5767627591	 2.0745081034	 0.113462
H	 0.6693342061	-1.0458583422	 1.9310436442	 0.110452
H	 0.0912518078	 0.8698980609	-0.4143995176	 0.108649
H	 0.7639724942	-0.7472783807	-0.5992284131	 0.103968
H	-1.9572577741	-0.2526705811	 0.6754764554	 0.073512
H	-1.2907971708	-0.6013766403	-2.2700800732	 0.103272
H	-2.9197415755	-0.7959897124	-1.6023444875	 0.079656
H	-2.3665894576	 1.4051953076	-2.3151434859	 0.284503
H	-0.7610633448	-2.4576693121	 0.984159674	 0.065344
H	-2.7125311349	-3.8824598185	 0.5102999498	 0.101656
H	-3.2311094091	-2.348132163	 1.216487268	 0.118546
H	-3.4247039076	-2.6381376201	-0.5254740726	 0.126159
H	-0.7378487588	-3.7671123706	-0.9323514406	 0.281041
61.4673	96.451	108.2568	195.9679	204.6222	224.4241	240.3487	268.5701	275.9338	284.9801	325.0123	402.9019	477.9704	496.9155	613.8677	752.6959	834.8436	865.1916	945.5574	982.5726	988.3089	1039.3323	1052.3919	1062.7419	1071.2817	1134.6042	1165.8696	1180.2082	1200.0115	1261.944	1277.4334	1296.818	1331.814	1356.4344	1384.9406	1392.0528	1406.7167	1415.0006	1421.1247	1453.8335	1492.2006	1494.4787	1499.3137	1503.0032	1507.8853	1520.8723	2971.4649	2993.8426	3014.8429	3028.3262	3029.1608	3036.3381	3044.4585	3078.3332	3092.1004	3097.6538	3102.2102	3120.0068	3822.9804	3836.0752
CCC(CO)C(C)O	CC[C@@H](CO)[C@@H](C)O	
InChI=1S/C6H14O2/c1-3-6(4-7)5(2)8/h5-8H,3-4H2,1-2H3	InChI=1S/C6H14O2/c1-3-6(4-7)5(2)8/h5-8H,3-4H2,1-2H3/t5-,6+/m1/s1
