16
gdb 67677	2.57193	1.95865	1.42707	3.9108	68.05	-0.2377	-0.0022	0.2355	922.7529	0.125542	-437.870617	-437.86343	-437.862486	-437.902048	28.166	
O	-0.2511329708	 1.4039424156	 0.0611434329	-0.45162
C	-0.0269559819	 0.0523418746	 0.0767050108	 0.23832
C	-0.1254135065	-0.8274695964	-1.2278281129	-0.114764
C	 0.8040837862	-2.0268826761	-1.4078326543	-0.25973
C	 0.5155564995	-2.8722150817	-0.128964467	-0.18217
N	-0.1952717454	-1.9415323158	 0.7833592217	-0.161213
C	-1.0372496871	-1.0627360523	-0.0750818438	-0.088056
C	 0.6693104089	-0.8060353497	 1.0908494186	 0.348057
O	 1.5787445665	-0.7130129988	 1.85930641	-0.337903
H	 0.5538179953	 1.8479068048	-0.2287870905	 0.301238
H	-0.4720770928	-0.2552965295	-2.0824790944	 0.107312
H	 0.5546164384	-2.5725553281	-2.3231027953	 0.111417
H	 1.8562894486	-1.7335653035	-1.4753821127	 0.117493
H	-0.133131671	-3.7247516329	-0.3461110406	 0.116259
H	 1.4175583309	-3.238605391	 0.3644492662	 0.134717
H	-2.115788679	-1.0453102191	-0.0099853185	 0.120644
131.2897	210.4987	233.9772	254.0597	300.1682	403.4066	504.6196	605.6269	644.8905	694.369	741.3535	806.3662	851.4194	871.7774	883.0688	908.1233	928.9664	930.6022	965.7003	1004.716	1032.563	1089.0487	1113.1483	1167.5683	1211.3396	1231.1907	1250.8444	1280.1018	1301.1974	1323.0103	1342.8263	1451.5642	1490.2732	1504.3299	1901.7072	3050.72	3069.242	3090.7434	3130.9005	3176.1034	3222.4174	3800.6176
OC12C3CCN(C13)C2=O	O[C@]12[C@H]3CCN([C@@H]13)C2=O	
InChI=1S/C6H7NO2/c8-5-6(9)3-1-2-7(5)4(3)6/h3-4,9H,1-2H2	InChI=1S/C6H7NO2/c8-5-6(9)3-1-2-7(5)4(3)6/h3-4,9H,1-2H2/t3-,4+,6+/m0/s1
