18
gdb 47581	2.43335	1.86055	1.17056	4.4687	73.29	-0.2526	0.0033	0.2558	1046.1947	0.150158	-439.07469	-439.067201	-439.066257	-439.107139	28.663	
N	-0.0521820167	 1.2119268218	 0.3912288073	-0.503416
C	 0.0301112023	 0.0129262773	-0.0020418319	 0.36686
O	 1.2257527743	-0.5641240213	-0.3156914046	-0.248488
C	 1.2312622679	-1.7510811686	-1.1222435514	-0.081329
C	 0.2982504468	-2.810476945	-0.5559137933	-0.23083
C	-1.1414045237	-2.2904158084	-0.5780849171	-0.08111
C	-1.9600510994	-2.6034029703	 0.6875298598	-0.088822
O	-1.6552725424	-1.3022300769	 1.2370156864	-0.2872
C	-1.2249200311	-0.8326237806	-0.0680430474	 0.082005
H	 0.8780905011	 1.6358595244	 0.4289421144	 0.220328
H	 0.9545710493	-1.4914570199	-2.1543195336	 0.107833
H	 2.2714206119	-2.0842850363	-1.1261904613	 0.122772
H	 0.3931066882	-3.7403416436	-1.1260601451	 0.107889
H	 0.6090687298	-3.0210694293	 0.4735164908	 0.123522
H	-1.6221465397	-2.4820604039	-1.5400140323	 0.080816
H	-3.0373860249	-2.7250857332	 0.5100067109	 0.101114
H	-1.6034699788	-3.4175363713	 1.3280443986	 0.108053
H	-2.0143002851	-0.2341071051	-0.5374575101	 0.100003
65.9081	115.9743	240.2397	268.5007	345.2325	403.307	470.927	474.7061	646.2553	656.0643	785.2627	804.3341	845.8202	897.959	918.6647	945.2147	974.4405	996.5558	1012.5501	1026.6122	1065.966	1094.8546	1144.622	1153.8527	1175.3803	1224.4568	1246.2842	1273.4075	1289.2466	1316.5083	1345.7135	1357.5327	1359.4491	1390.9629	1425.9841	1478.0123	1513.1762	1522.2773	1747.7538	3005.6457	3006.4405	3037.8037	3042.6666	3065.7247	3077.4235	3096.564	3105.0209	3454.6128
N=C1OCCC2COC12	[NH][C]1OCC[C@H]2CO[C@@H]12	
InChI=1S/C6H9NO2/c7-6-5-4(3-9-5)1-2-8-6/h4-5,7H,1-3H2	InChI=1S/C6H9NO2/c7-6-5-4(3-9-5)1-2-8-6/h4-5,7H,1-3H2/t4-,5+/m0/s1
