17
gdb 33639	3.20575	1.49095	1.3965	0.709	84.71	-0.2253	0.0024	0.2277	993.8706	0.136982	-347.494651	-347.48762	-347.486676	-347.525764	29.196	
C	-0.0535214914	-1.1999881718	 0.0335082952	-0.369659
C	-0.0342629522	 0.0039763713	 0.0042799468	 0.051396
C	 0.010798321	 1.4197525879	-0.0210972934	 0.281114
C	-0.7267077541	 2.4720946263	 0.8017678656	-0.128502
C	 0.584062823	 3.1681453055	 1.1382411004	-0.226217
C	 1.2737315512	 2.3658154569	-0.0344294093	-0.163245
C	 1.1206987974	 3.1917985906	-1.2903382976	-0.095057
C	-0.1708195348	 3.232365979	-1.6337117022	-0.078042
C	-0.959321861	 2.357935092	-0.71916726	-0.135565
H	-0.0744337591	-2.2609747852	 0.0564441287	 0.177934
H	-1.5576781946	 2.3164593979	 1.4790958964	 0.100861
H	 0.6320495598	 4.260336003	 1.0845223773	 0.095515
H	 0.9515769104	 2.8265476462	 2.1089063553	 0.110349
H	 2.2517983359	 1.9364167724	 0.1716174989	 0.081819
H	 1.9237562422	 3.7738540214	-1.725185268	 0.098681
H	-0.6158119206	 3.8254825384	-2.4224944356	 0.100541
H	-1.9307839133	 1.9711054081	-1.0028277285	 0.098079
129.1895	154.3758	347.5193	379.8211	464.4714	485.2172	522.6442	561.5405	576.8131	654.548	697.3451	723.658	759.0321	797.4215	830.7387	883.0375	891.9338	914.8773	932.0725	969.001	986.9783	1030.8681	1033.574	1071.4838	1107.9368	1128.0471	1138.8081	1165.0379	1205.9487	1262.2664	1277.8696	1315.3596	1357.3941	1411.3153	1487.2045	1645.3845	2227.9134	3046.7463	3108.1043	3137.7438	3184.212	3193.1602	3200.807	3224.9746	3503.6607
C#CC12C3CC1C=CC23	C#C[C@@]12[C@H]3C[C@@H]1C=C[C@@H]23	
InChI=1S/C9H8/c1-2-9-6-3-4-7(9)8(9)5-6/h1,3-4,6-8H,5H2	InChI=1S/C9H8/c1-2-9-6-3-4-7(9)8(9)5-6/h1,3-4,6-8H,5H2/t6-,7+,8-,9+/m0/s1
