17
gdb 34582	3.59581	1.18501	0.92204	1.4048	93.2	-0.2125	-0.0522	0.1603	1237.2275	0.13599	-384.659927	-384.651746	-384.650802	-384.69285	31.168	
C	 0.1495386672	-1.2200808616	 0.0573712889	-0.427219
C	 0.0024521226	-0.0225073916	 0.0492583882	 0.239493
C	-0.1029052081	 1.3906839864	 0.0211442672	 0.101025
C	-1.2996868885	 2.0087083017	 0.1459787903	-0.141954
C	-1.5654531174	 3.4343057088	 0.0770671203	-0.065817
C	-0.7082408657	 4.4683048548	 0.1183114241	-0.08715
C	 0.7716706687	 4.4585371746	 0.3600324492	-0.134912
O	 1.3382395569	 3.2333351243	 0.7523654559	-0.230615
C	 1.1888037158	 2.1694962759	-0.1721420143	-0.198879
H	 0.2595762572	-2.2759741453	 0.0707201238	 0.1961
H	-2.1740033072	 1.3758854881	 0.2681909428	 0.097443
H	-2.6172346221	 3.6830791742	-0.0460451024	 0.092398
H	-1.1175102291	 5.4699364085	-0.005093464	 0.098021
H	 1.2855073773	 4.86937972	-0.5296372447	 0.101144
H	 0.9965760165	 5.1510134594	 1.1825614922	 0.126607
H	 2.0407298003	 1.5023348404	-0.019902221	 0.123622
H	 1.2391063557	 2.5470370415	-1.2057424866	 0.110694
64.7333	144.7567	156.7676	263.3597	332.5511	365.5968	387.6701	483.9654	537.5589	552.515	571.3992	597.4742	638.769	722.1465	793.5632	844.1253	901.7315	939.0086	969.844	991.4472	1007.9982	1040.9379	1067.0273	1145.0058	1204.5862	1249.7688	1277.9873	1327.7814	1365.7839	1388.7337	1411.0115	1443.9838	1470.2782	1482.2135	1646.1477	1697.6372	2206.9103	2925.1109	2981.6723	3032.8323	3096.7472	3133.1673	3153.9049	3173.6496	3502.7778
C#CC1=CC=CCOC1	C#CC1=CC=CCOC1	
InChI=1S/C8H8O/c1-2-8-5-3-4-6-9-7-8/h1,3-5H,6-7H2	InChI=1S/C8H8O/c1-2-8-5-3-4-6-9-7-8/h1,3-5H,6-7H2
