19
gdb 108234	2.23059	1.50131	1.14812	2.509	72.19	-0.2206	0.0442	0.2648	1151.3547	0.156949	-460.107821	-460.098431	-460.097486	-460.141821	35.08	
C	-0.083619281	 1.5395543447	-0.0179611865	-0.380346
C	 0.0075519606	 0.0076529883	 0.0384813342	-0.286959
C	 0.6263074653	-0.5574080458	-1.197486278	 0.375692
O	 1.9589136234	-0.1452115932	-1.5648698461	-0.323474
C	 2.3015132804	-1.490623448	-1.9931670184	-0.145076
C	 0.8693593355	-1.9401746181	-1.7701819764	 0.170899
O	 0.4351828696	-3.1716603946	-1.3024119945	-0.45781
C	-0.1024327964	-0.9907016557	-2.4539349073	-0.002036
O	-1.443756007	-1.346295293	-2.3001063498	-0.437709
H	 0.907452867	 1.9816965869	-0.1535660938	 0.134381
H	-0.7155831543	 1.8636700481	-0.8504751793	 0.125326
H	-0.5107475697	 1.9354977733	 0.9079012522	 0.110518
H	 0.5889975262	-0.3015671417	 0.915209537	 0.104745
H	-0.9917449446	-0.4281841769	 0.1376163862	 0.116486
H	 2.7019272376	-1.5138941784	-3.0139502453	 0.102973
H	 3.0119056758	-1.9560638575	-1.2986620902	 0.113743
H	 0.4829835642	-3.8071178947	-2.0283692142	 0.295616
H	 0.122709805	-0.5226059393	-3.4119925207	 0.096278
H	-1.4600936175	-2.2420009346	-1.9363452994	 0.286754
69.2204	119.8807	177.2748	220.4757	239.5246	268.3438	277.8247	293.0682	359.0674	427.0414	472.4987	551.5831	565.4264	669.1095	706.8637	752.0524	798.0367	921.3673	960.1888	972.5666	991.5564	1032.4415	1061.8809	1096.9977	1128.9867	1147.4393	1165.6734	1207.422	1258.8915	1273.9752	1297.0581	1320.9354	1346.3419	1369.7281	1391.3118	1408.0758	1469.9177	1486.4223	1497.414	1508.8201	1522.3719	3014.8297	3035.5506	3042.26	3065.7002	3083.9947	3107.3435	3113.1409	3120.6497	3743.7564	3760.2858
CCC12OCC1(O)C2O	CC[C@@]12OC[C@]1(O)[C@H]2O	
InChI=1S/C6H10O3/c1-2-6-4(7)5(6,8)3-9-6/h4,7-8H,2-3H2,1H3	InChI=1S/C6H10O3/c1-2-6-4(7)5(6,8)3-9-6/h4,7-8H,2-3H2,1H3/t4-,5+,6+/m1/s1
