16
gdb 98648	4.78909	0.9112	0.78768	2.1179	67.91	-0.2592	-0.0393	0.2199	1390.4206	0.122537	-475.055711	-475.046705	-475.045761	-475.090443	30.936	
C	-0.026885915	 1.2954550853	 0.0604821889	-0.232797
O	 0.0762703294	-0.1309662083	 0.0042709693	-0.255674
C	 0.7179281809	-0.605650201	-1.089647475	 0.504521
O	 1.1692911027	 0.0755604696	-1.9823429613	-0.414608
N	 0.8044909973	-1.9657692323	-1.0344504263	-0.159584
C	-0.0588217401	-2.9200893064	-0.3179061083	-0.28909
C	 0.2331352843	-3.9077534343	-1.4702884963	 0.378955
O	-0.0597110492	-5.0389929016	-1.6991608744	-0.263399
C	 1.0635168925	-2.827474215	-2.1960253124	-0.283314
H	 0.9647603103	 1.7544422657	 0.0811401554	 0.142407
H	-0.5739309398	 1.6798973789	-0.803976148	 0.141113
H	-0.5668295734	 1.5154976849	 0.9816886151	 0.132748
H	 0.3075334749	-3.2264449786	 0.6674486827	 0.147724
H	-1.1086225374	-2.6163900647	-0.2332010012	 0.148374
H	 0.6284702045	-2.4633883664	-3.1343528288	 0.153181
H	 2.1168641381	-3.0759562058	-2.3626173092	 0.149443
55.4796	103.4002	117.4002	148.8895	153.9448	211.8314	309.8891	416.6849	438.1587	450.825	570.7976	713.1202	770.1534	778.3477	798.2192	923.2624	1007.7138	1050.0025	1063.0702	1102.9608	1146.2794	1160.3078	1178.2776	1183.2911	1215.0192	1266.1227	1291.6136	1407.3268	1465.9811	1481.0275	1482.389	1490.6077	1504.4526	1809.3869	1933.012	3034.6235	3043.2438	3051.7952	3087.1109	3087.6814	3126.5783	3157.0793
COC(=O)N1CC(=O)C1	COC(=O)N1CC(=O)C1	
InChI=1S/C5H7NO3/c1-9-5(8)6-2-4(7)3-6/h2-3H2,1H3	InChI=1S/C5H7NO3/c1-9-5(8)6-2-4(7)3-6/h2-3H2,1H3
