19
gdb 41142	3.27674	1.63041	1.31198	1.8758	80.24	-0.2336	0.0111	0.2447	1002.5626	0.161621	-385.866593	-385.859643	-385.858699	-385.897836	28.413	
C	-0.0208009535	 1.5121019854	 0.0475891037	-0.151943
O	 1.414920097	 1.5459719591	 0.2311880082	-0.298647
C	 1.5478801462	 0.1480420897	-0.1123051612	 0.073913
C	 1.6930530883	-0.7785709482	 1.109857453	-0.256005
C	 0.1401765919	-0.8133760243	 1.2660853464	-0.052534
C	-0.5967315249	-2.1555852855	 1.03578249	-0.29859
C	-1.1565555537	-2.026019683	-0.3659328989	-0.059338
C	-0.847149512	-0.8666919416	-0.953587379	-0.218058
C	-0.0106742767	-0.0136047383	-0.0749416381	 0.312018
H	-0.5631812258	 1.9440864538	 0.8982050791	 0.099035
H	-0.3164223513	 2.0375783847	-0.8720300185	 0.094495
H	 2.1857082259	-0.0047086287	-0.9884851865	 0.070502
H	 2.1142259565	-1.7547374932	 0.8466644064	 0.098551
H	 2.263011747	-0.3558571192	 1.9405138844	 0.109562
H	-0.2270050283	-0.2908881654	 2.1520892883	 0.072559
H	 0.0845954923	-3.0138280083	 1.1167262473	 0.107204
H	-1.3921843667	-2.3338300453	 1.7704773618	 0.106974
H	-1.7373689821	-2.8174969121	-0.8285318531	 0.096119
H	-1.1354868698	-0.5806377096	-1.9596470632	 0.094185
108.5208	194.011	265.077	337.3941	412.1421	462.7965	476.3658	664.4344	691.6582	746.7294	792.3696	794.0784	845.2317	884.4323	923.025	928.0695	943.4254	974.7103	995.3312	1006.3731	1037.0045	1055.4738	1082.9244	1108.8749	1123.1041	1149.3552	1168.8634	1199.6638	1212.4042	1238.142	1254.8289	1267.5728	1301.2063	1320.9283	1324.0744	1361.1943	1401.5585	1459.2584	1488.1704	1518.7873	1667.6176	2990.9513	3012.0277	3037.116	3043.6979	3044.2819	3061.1739	3078.9286	3113.095	3175.4015	3199.75
C1OC2CC3CC=CC123	C1O[C@H]2C[C@@H]3CC=C[C@]123	
InChI=1S/C8H10O/c1-2-6-4-7-8(6,3-1)5-9-7/h1,3,6-7H,2,4-5H2	InChI=1S/C8H10O/c1-2-6-4-7-8(6,3-1)5-9-7/h1,3,6-7H,2,4-5H2/t6-,7-,8+/m0/s1
