17
gdb 6273	2.8185	1.61228	1.15984	1.8162	68.51	-0.2234	-0.0885	0.1349	1052.5167	0.138944	-400.995101	-400.985756	-400.984811	-401.030024	31.717	
C	 0.7995937614	 0.8004858608	-0.211367131	-0.32858
N	-0.3523513433	-0.0561305325	 0.0217635026	-0.060746
C	-0.2600319123	-0.83382422	 1.2463492938	-0.3246
C	-1.6220330268	 0.6446858205	-0.1513341308	-0.251996
C	-1.8947844595	 0.5484877364	-1.6408276658	 0.314194
O	-1.6644877152	 1.4116598932	-2.4556324842	-0.287783
C	-2.4330217104	-0.8014947199	-2.1358532344	 0.093449
O	-2.8869932865	-1.6477583844	-1.4111880553	-0.223067
H	 1.7099427672	 0.1942249746	-0.2412830329	 0.123108
H	 0.6959716988	 1.3117925587	-1.1723046378	 0.142887
H	 0.9223996308	 1.5713518479	 0.5719306243	 0.099456
H	-0.2795704281	-0.2108250824	 2.1595097499	 0.099355
H	-1.0879119655	-1.5463696052	 1.2927584117	 0.138441
H	 0.6760441953	-1.4008642392	 1.2462802019	 0.12382
H	-2.4063012511	 0.1114870265	 0.3902656807	 0.130631
H	-1.6009482282	 1.6951321132	 0.174966156	 0.106795
H	-2.4136904564	-0.8899506682	-3.2430940989	 0.104634
45.9322	62.9175	131.2978	134.7751	221.7041	242.1658	250.9213	342.3791	389.9789	411.7508	475.361	560.5668	594.6374	807.4317	835.8455	984.9255	1018.6931	1059.3351	1073.651	1123.2759	1143.2405	1186.5962	1246.0792	1307.5929	1310.6912	1363.3691	1377.9833	1445.7602	1460.1494	1484.1782	1486.7704	1498.0136	1499.8077	1512.1321	1803.9142	1818.9432	2918.7097	2935.2841	2941.8909	2995.7876	3068.4183	3070.7003	3110.3955	3117.057	3118.3323
CN(C)CC(=O)C=O	CN(C)CC(=O)C=O	
InChI=1S/C5H9NO2/c1-6(2)3-5(8)4-7/h4H,3H2,1-2H3	InChI=1S/C5H9NO2/c1-6(2)3-5(8)4-7/h4H,3H2,1-2H3
