21
gdb 111925	3.17318	1.11593	0.92315	1.695	82.04	-0.2392	0.0192	0.2585	1347.8447	0.181486	-424.233394	-424.22377	-424.222826	-424.267929	35.73	
C	 0.2914317176	 0.9696752674	 0.6448469883	-0.247048
O	-0.1132234547	 0.1916742343	-0.4693733015	-0.261367
C	-1.3595782	-0.4713216821	-0.2838640484	 0.056589
C	-1.8921521981	-0.9600081034	-1.6013158259	-0.209509
C	-2.3256430765	-2.2208624104	-1.5441590762	 0.330171
C	-2.9526111936	-3.0135478896	-2.6458669217	-0.49204
C	-2.142809386	-2.7975809838	-0.156163346	-0.315853
C	-1.2142115378	-1.7882213354	 0.5581579408	 0.105435
O	 0.1278760526	-2.2367627463	 0.532095386	-0.449696
H	 1.215077858	 1.4793250573	 0.3605246149	 0.129762
H	-0.4683758498	 1.7229708568	 0.8985122077	 0.112259
H	 0.4840529627	 0.3476182576	 1.5288378193	 0.12596
H	-2.0589151949	 0.2283308267	 0.2031837634	 0.072388
H	-1.9311322254	-0.314473887	-2.4714728405	 0.092861
H	-3.0134406492	-2.4419476778	-3.5757350251	 0.124386
H	-2.3802160013	-3.9293289919	-2.8403211853	 0.131049
H	-3.966452209	-3.3345732277	-2.3744687415	 0.126569
H	-3.1113365686	-2.8878038362	 0.3557997847	 0.098762
H	-1.6886267516	-3.7946511581	-0.1587447824	 0.114594
H	-1.5077020363	-1.6413905062	 1.6045941598	 0.064375
H	 0.6048705617	-1.6163457141	-0.0368266306	 0.290354
69.598	98.837	130.163	180.3328	191.393	284.7286	314.4505	322.3383	386.4358	410.8116	446.0374	472.5833	568.8772	622.0292	796.1558	818.5796	860.5503	883.6982	898.3374	992.9844	994.7385	1029.5692	1045.8432	1060.9754	1110.9206	1126.4529	1172.2064	1180.7213	1214.219	1218.2357	1242.5036	1284.4078	1312.0804	1343.7601	1360.4606	1385.9107	1413.1307	1429.3898	1471.3057	1478.412	1478.8145	1487.0166	1489.9049	1508.3937	1723.4396	2958.5064	2993.9909	3007.3201	3019.0056	3030.0737	3053.7524	3065.3391	3067.3408	3112.648	3118.836	3196.4403	3728.2703
COC1C=C(C)CC1O	CO[C@H]1C=C(C)C[C@H]1O	
InChI=1S/C7H12O2/c1-5-3-6(8)7(4-5)9-2/h4,6-8H,3H2,1-2H3	InChI=1S/C7H12O2/c1-5-3-6(8)7(4-5)9-2/h4,6-8H,3H2,1-2H3/t6-,7+/m1/s1
