22
gdb 23374	2.84013	1.00864	0.8172	0.5898	85.84	-0.2387	0.0176	0.2562	1468.2911	0.191702	-404.303295	-404.292807	-404.291863	-404.339236	38.557	
C	-0.0165193542	 1.6988116333	 0.0897608099	-0.385329
C	 0.0080228499	 0.1656324215	 0.0497886942	-0.084373
C	 0.643349086	-0.3328257419	-1.2470137825	 0.048153
C	 0.2076746368	-1.6105919782	-1.9202265854	-0.275854
C	-0.1240630529	-0.2776886352	-2.5434830522	-0.275436
C	 0.7072812719	-0.4583413669	 1.2456540933	 0.349346
C	 0.5693650598	-1.9378841069	 1.4941849031	-0.467135
N	 1.4045730203	 0.32002159	 1.9813674986	-0.166814
O	 2.0435334278	-0.3701380359	 3.0273145189	-0.404715
H	 0.9960787051	 2.1082194636	 0.0519783305	 0.126161
H	-0.5772663838	 2.0833443127	-0.7670077915	 0.104159
H	-0.4820324676	 2.0633328803	 1.008806767	 0.116062
H	-1.0301392375	-0.2000706132	 0.0633085924	 0.073078
H	 1.7034437175	-0.1000380681	-1.3176949314	 0.088332
H	 0.9627028267	-2.2307276287	-2.3908729455	 0.112067
H	-0.6090209275	-2.1714353674	-1.4779006246	 0.110053
H	-1.1579187351	 0.0512896012	-2.5050882103	 0.110928
H	 0.4013845288	 0.0215494729	-3.443468226	 0.111926
H	 0.5083763983	-2.1352345013	 2.5667033605	 0.146482
H	-0.3138326868	-2.3420939716	 0.996346555	 0.116953
H	 1.4452514415	-2.4787239471	 1.1182904068	 0.142985
H	 2.4734182451	 0.3472278868	 3.5041867692	 0.302971
42.9998	85.4369	102.6095	140.3686	221.2832	234.5892	245.4968	300.8209	331.1609	362.3686	386.2043	424.2739	504.9955	553.0228	657.8775	754.1452	799.6259	824.5389	833.7047	930.356	944.8464	969.284	993.6027	1012.2263	1034.7488	1058.8674	1079.1882	1093.3323	1117.2869	1143.7638	1191.6338	1199.1546	1227.1135	1233.2323	1294.0207	1355.0652	1393.2556	1398.657	1401.3981	1412.4143	1468.4951	1475.1071	1485.3342	1488.9159	1496.1294	1503.9386	1724.8734	2988.8593	3045.0698	3047.5309	3107.5099	3119.0554	3125.1088	3127.532	3130.783	3134.8394	3141.8469	3204.9858	3220.2193	3822.2529
CC(C1CC1)C(C)=NO	C[C@@H](C1CC1)C(=NO)C	
InChI=1S/C7H13NO/c1-5(6(2)8-9)7-3-4-7/h5,7,9H,3-4H2,1-2H3	InChI=1S/C7H13NO/c1-5(6(2)8-9)7-3-4-7/h5,7,9H,3-4H2,1-2H3/t5-/m1/s1
