20
gdb 40243	2.84279	1.6478	1.26949	0.4874	79.03	-0.2185	0.0923	0.3108	1050.7779	0.172731	-403.103062	-403.09548	-403.094536	-403.134891	30.83	
C	 0.0591355013	 1.5095693349	 0.0239629578	-0.331992
C	 1.3193061856	 0.6647726468	 0.0265665557	-0.329977
C	-0.0469127768	 0.0202062756	-0.0407356622	 0.434645
O	-0.5163357369	-0.5986027535	 1.1272857506	-0.28684
C	-0.1130854241	-1.9637934511	 1.1495169335	-0.098218
C	-0.8492352418	-2.7596836296	 0.0709226717	-0.155661
N	-0.864292347	-2.0932347217	-1.2447685525	-0.108714
C	-1.9059465484	-1.085025741	-1.4550542268	-0.254416
C	-0.4887376269	-0.6695479152	-1.2977767939	-0.075212
H	-0.2322907806	 1.9709201743	 0.9606709123	 0.1263
H	-0.1857413044	 2.0819392451	-0.8642561967	 0.116228
H	 1.9427277792	 0.6598499763	-0.861390016	 0.114357
H	 1.8556483864	 0.5802894874	 0.9648862822	 0.119769
H	 0.9753379803	-2.026827886	 1.0024698725	 0.097516
H	-0.3475152879	-2.3510613847	 2.1450916182	 0.107003
H	-0.3674264654	-3.7384351275	-0.0452064996	 0.104295
H	-1.881615669	-2.9436498422	 0.3891691488	 0.107321
H	-2.3757718527	-1.0931720173	-2.4355624649	 0.108198
H	-2.5744213049	-0.8678686704	-0.624091413	 0.117134
H	 0.0833426541	-0.39784137	-2.1835198377	 0.088263
94.4111	194.1353	243.9788	285.9268	350.2457	393.3918	447.5148	482.7132	555.5177	636.728	707.2312	766.8595	769.2507	846.4199	891.584	897.5456	910.7091	939.6042	969.9408	994.774	1027.5708	1049.8886	1072.9815	1077.8712	1086.4178	1104.6952	1124.0123	1140.7501	1176.4095	1190.2529	1262.6579	1277.1731	1284.569	1307.694	1322.9637	1376.5026	1410.3746	1427.4697	1450.9318	1488.336	1490.9218	1504.5821	1511.9906	2996.3422	3022.809	3061.7777	3091.1585	3093.1593	3113.6355	3130.8587	3136.5418	3179.6093	3217.2202	3231.4538
C1CC11OCCN2CC12	C1CC21OCCN1C[C@@H]21	
InChI=1S/C7H11NO/c1-2-7(1)6-5-8(6)3-4-9-7/h6H,1-5H2	InChI=1S/C7H11NO/c1-2-7(1)6-5-8(6)3-4-9-7/h6H,1-5H2/t6-,8?/m0/s1
