21
gdb 120662	4.57342	0.76969	0.7263	2.4309	80.75	-0.2258	0.0799	0.3057	1631.4054	0.180907	-424.174864	-424.165259	-424.164315	-424.210322	34.429	
C	 0.345780558	 1.378461905	-0.2390934706	-0.224251
O	 0.3834892411	-0.0253582168	-0.1678706874	-0.226371
C	 0.3762935467	-0.5057607574	 1.1616583355	-0.074637
C	 0.3826205	-2.0086043909	 1.1430143483	-0.106296
C	 1.6793561432	-2.7668553293	 0.8813686266	-0.35014
C	 1.0483918256	-2.7894714484	 2.232843026	 0.446686
C	 1.5970526542	-2.3524256937	 3.5894123902	-0.357448
C	 0.9471547985	-3.6607902101	 4.0893948222	-0.07238
O	 0.4534345281	-3.9735246791	 2.7664726348	-0.306399
H	 1.2174362576	 1.8387749717	 0.254600068	 0.099626
H	 0.3549352642	 1.654012713	-1.2965248088	 0.126801
H	-0.5643348009	 1.7901919832	 0.2269030723	 0.101372
H	 1.2589598541	-0.1264485585	 1.7072392717	 0.077735
H	-0.5144088574	-0.1296045125	 1.6950566555	 0.085602
H	-0.5152558251	-2.4659235263	 0.7367535706	 0.102167
H	 1.6184449468	-3.6719248391	 0.2870065697	 0.122884
H	 2.5882549897	-2.1886098966	 0.7429372119	 0.113047
H	 2.6851967486	-2.308567471	 3.6631055791	 0.115098
H	 1.1691753251	-1.4353101784	 3.9992985583	 0.114078
H	 1.6420205461	-4.4258218545	 4.4541129479	 0.1066
H	 0.1298937557	-3.5439814503	 4.8099822881	 0.106226
59.7383	78.3548	95.7475	107.6484	197.1953	239.5699	279.2629	310.6176	368.6663	456.0022	495.519	604.5607	791.6328	849.2909	859.9157	881.3149	899.0699	921.0756	969.8206	976.8047	1022.4806	1029.0029	1059.3823	1101.4001	1122.3419	1148.1703	1165.2685	1172.6776	1188.0232	1198.7985	1215.4172	1229.3339	1248.1362	1275.8091	1319.8897	1362.3409	1397.5624	1435.6708	1480.4362	1484.4723	1486.031	1492.6166	1503.1063	1524.7692	1534.1348	2937.1125	2963.2441	2964.8122	3003.8876	3025.4777	3067.4257	3073.5278	3112.3907	3125.0466	3126.4457	3153.609	3216.853
COCC1CC11CCO1	COC[C@H]1C[C@]21CCO2	
InChI=1S/C7H12O2/c1-8-5-6-4-7(6)2-3-9-7/h6H,2-5H2,1H3	InChI=1S/C7H12O2/c1-8-5-6-4-7(6)2-3-9-7/h6H,2-5H2,1H3/t6-,7+/m1/s1
