16
gdb 26034	3.22271	1.13409	1.0556	4.2064	75.59	-0.2354	-0.0025	0.2329	1188.3315	0.124962	-400.794221	-400.786005	-400.785061	-400.827805	29.859	
C	-0.050164447	 1.5715232107	 0.0613052907	-0.390449
C	-0.0236320055	 0.025374984	 0.0266423052	-0.254652
C	 0.7112007448	-0.5010094385	 1.190117465	 0.276333
N	 1.2967892231	-0.9016587399	 2.1020028713	-0.322638
C	-1.39440457	-0.5742899845	-0.064391908	 0.3952
C	-1.9927478558	-1.3887217857	-0.9739826351	-0.287722
C	-3.3351228353	-1.5908318745	-0.5120845279	-0.166204
C	-3.4435857801	-0.8846269864	 0.64177253	-0.013998
O	-2.2714713458	-0.2571068527	 0.9283223644	-0.177955
H	 0.9648876696	 1.9717108239	 0.1163569769	 0.137737
H	-0.5334442028	 1.946484357	-0.8441594536	 0.132422
H	-0.612874366	 1.921139231	 0.9289318679	 0.153371
H	 0.5214432569	-0.3007293621	-0.8665845292	 0.141721
H	-1.5362622717	-1.7995526913	-1.8609377614	 0.116755
H	-4.1057748485	-2.1836514897	-0.9784456723	 0.11909
H	-4.2410005658	-0.7281092414	 1.3489132662	 0.140988
48.3227	100.7147	174.6637	202.3132	231.3084	328.142	388.0104	472.639	568.125	614.3922	685.6165	732.7473	757.9049	813.4984	849.2419	856.8359	902.9134	947.9585	991.6593	1036.4454	1072.7671	1103.8996	1111.6587	1187.3063	1232.6845	1261.7206	1304.2578	1323.6622	1405.5019	1420.7075	1490.8688	1498.6565	1536.9511	1636.7027	2359.0522	3055.0413	3055.8822	3135.0458	3145.8237	3254.1886	3265.6981	3290.4499
CC(C#N)C1=CC=CO1	C[C@@H](C#N)c1ccco1	
InChI=1S/C7H7NO/c1-6(5-8)7-3-2-4-9-7/h2-4,6H,1H3	InChI=1S/C7H7NO/c1-6(5-8)7-3-2-4-9-7/h2-4,6H,1H3/t6-/m0/s1
