17
gdb 69674	3.18228	1.35556	1.25434	3.6789	77.32	-0.2394	0.0026	0.242	1061.4712	0.135587	-380.792415	-380.784554	-380.78361	-380.82458	30.584	
C	 0.1613547451	 1.5793045276	 0.0465174586	-0.468312
C	 0.0215057368	 0.0918466024	 0.1094853892	 0.355687
C	-0.8791464434	-0.6605613128	 1.0427365748	-0.36416
C	 0.5982558124	-0.9617604119	 1.0376595558	-0.126593
C	 1.0577590908	-1.7052087116	-0.2200750904	-0.049292
C	 0.0469409509	-2.0489244173	-1.257989906	-0.144672
C	-1.2976851265	-2.5462556396	-1.1073651237	 0.295525
N	-2.3592514005	-3.0068341514	-1.0861156371	-0.346329
N	 0.5274916113	-0.6446418395	-1.1393555534	-0.197026
H	 1.1558308688	 1.864916253	-0.3094770375	 0.131702
H	-0.5774064024	 2.0059178828	-0.6418063686	 0.134356
H	 0.0021606228	 2.0229073658	 1.0337141794	 0.12255
H	-1.1775584204	-0.0533738203	 1.8932288981	 0.122791
H	-1.6345806972	-1.3719314264	 0.7424015861	 0.164242
H	 1.2335467073	-0.8479409885	 1.9055621314	 0.104207
H	 2.0742548897	-2.0717933497	-0.3308909437	 0.113914
H	 0.4967239948	-2.4827349226	-2.1505949129	 0.151409
93.9027	178.5145	202.3385	260.2436	297.2696	375.148	388.0577	452.4589	586.5713	609.693	630.4779	690.0935	750.5236	769.2852	851.6422	905.7606	911.9712	941.1984	947.6987	988.1941	1026.1037	1050.3491	1069.0562	1084.3555	1109.6773	1128.5684	1200.4395	1246.9245	1272.1331	1347.7258	1387.2399	1403.6554	1428.9089	1474.9817	1496.9171	1507.6573	2342.765	3032.3698	3096.7135	3116.3358	3119.1496	3141.5053	3151.4821	3205.9394	3243.748
CC12CC1C1C(C#N)N21	C[C@]12C[C@H]1[C@H]1[C@@H](C#N)N21	
InChI=1S/C7H8N2/c1-7-2-4(7)6-5(3-8)9(6)7/h4-6H,2H2,1H3	InChI=1S/C7H8N2/c1-7-2-4(7)6-5(3-8)9(6)7/h4-6H,2H2,1H3/t4-,5+,6-,7-,9?/m0/s1
