21
gdb 93680	2.85934	1.25491	1.20637	2.0111	80.4	-0.2409	0.0092	0.2501	1172.9461	0.18192	-424.237091	-424.227939	-424.226995	-424.270364	35.881	
C	 0.1302538402	 1.4674610234	-0.0319303239	-0.406661
C	-0.0202075651	-0.0584127387	 0.0227650864	 0.306564
C	-1.5131552204	-0.4426699959	 0.0130310272	-0.409828
O	 0.6213811428	-0.5319440572	-1.1706804113	-0.301679
C	 0.9764959941	-1.9071408984	-1.1467125652	-0.12126
C	 2.0494691522	-2.1578732931	-0.0896387948	 0.09229
O	 3.321939243	-1.6571617342	-0.4983812748	-0.436491
C	 1.6097094235	-1.5397295773	 1.2157432728	-0.134906
C	 0.6670704985	-0.6005746852	 1.2562764009	-0.056896
H	 1.1870558301	 1.7468483046	-0.0250524499	 0.117735
H	-0.3239674772	 1.8508831171	-0.9500742329	 0.124738
H	-0.3612634628	 1.9386699726	 0.8243416354	 0.113054
H	-1.9990068935	-0.0229451102	-0.8725400769	 0.122351
H	-1.6475306922	-1.5275036569	 0.0047995705	 0.120097
H	-2.0175255526	-0.054069174	 0.9032757167	 0.115051
H	 0.1018798723	-2.5484633594	-0.9615921682	 0.089093
H	 1.3695510789	-2.136342779	-2.1408841793	 0.111772
H	 2.1948375205	-3.2377419731	 0.0306926118	 0.086032
H	 3.1959415562	-0.7138848167	-0.6570931089	 0.279753
H	 2.1147160072	-1.8637613363	 2.1212382726	 0.096503
H	 0.3552490944	-0.1632348422	 2.2022990317	 0.092689
79.305	181.7744	188.8173	219.5	258.8192	318.0071	337.7794	370.2096	394.2098	418.3994	449.9671	496.7425	564.6036	608.8505	727.9356	777.4765	831.4721	838.89	902.8666	928.9088	945.0069	978.4804	1004.0792	1019.5923	1034.8841	1102.9937	1111.8217	1162.1342	1195.559	1231.4328	1252.0947	1262.0022	1303.9187	1347.9252	1386.5166	1392.1396	1403.9352	1416.9098	1433.0663	1475.4281	1480.7926	1486.3945	1497.7079	1507.6499	1714.7904	2997.4945	3039.6882	3044.119	3048.7531	3094.7618	3111.4685	3119.1777	3121.8599	3123.0808	3146.6207	3174.6288	3790.1604
CC1(C)OCC(O)C=C1	CC1(C)OC[C@@H](O)C=C1	
InChI=1S/C7H12O2/c1-7(2)4-3-6(8)5-9-7/h3-4,6,8H,5H2,1-2H3	InChI=1S/C7H12O2/c1-7(2)4-3-6(8)5-9-7/h3-4,6,8H,5H2,1-2H3/t6-/m0/s1
