19
gdb 115218	4.03941	1.01612	0.85055	2.1556	72.33	-0.2377	-0.0316	0.2061	1360.1268	0.158092	-460.182252	-460.173296	-460.172352	-460.216453	32.734	
C	 0.0572447215	 1.5636803442	-0.0294528264	-0.386741
C	 0.0622782316	 0.03423143	-0.0048444924	-0.211162
C	 0.7036415235	-0.5350635639	 1.2475745936	 0.221909
O	-0.0529599164	-0.1285417436	 2.3651099752	-0.240971
C	 0.5157597432	-0.5448448748	 3.5922559058	-0.189394
C	 0.9754358318	-2.0005728646	 3.5920174515	 0.344762
O	 1.1025819578	-2.6339962322	 4.6106657059	-0.288262
C	 1.3675689612	-2.5659697271	 2.2293195044	-0.193589
O	 0.7152096894	-1.9394092406	 1.1404607445	-0.241872
H	 1.0756696367	 1.9668385348	 0.0029044962	 0.112894
H	-0.4164730471	 1.9333495681	-0.9430345129	 0.117643
H	-0.4902664805	 1.9638543291	 0.8273509125	 0.136176
H	-0.9585310092	-0.3590207579	-0.0555476955	 0.120274
H	 0.6071135718	-0.3693887894	-0.8641039673	 0.110955
H	 1.7451180021	-0.171021528	 1.3659096122	 0.052225
H	 1.3987524256	 0.0697075783	 3.8466033416	 0.12191
H	-0.2275936897	-0.4003940579	 4.3793115147	 0.145706
H	 2.464866035	-2.4603004829	 2.1447540065	 0.121651
H	 1.1336342617	-3.6323733914	 2.1991774898	 0.145885
58.0297	92.5266	162.1428	181.3988	202.7652	264.2823	365.3605	413.1113	425.2574	475.1718	509.3649	580.4793	683.5945	770.812	808.1376	821.81	903.1936	950.4342	997.2541	1067.9652	1073.2888	1086.5067	1124.1645	1169.3261	1188.3705	1218.1305	1248.3601	1268.7193	1296.378	1339.5986	1350.0355	1373.3648	1399.9884	1411.4507	1430.3062	1460.2568	1463.877	1479.4622	1498.1597	1510.5475	1833.9096	2892.5098	2945.8399	2951.4424	3039.5648	3053.3908	3091.3943	3108.8824	3111.8853	3112.8833	3129.3777
CCC1OCC(=O)CO1	CCC1OCC(=O)CO1	
InChI=1S/C6H10O3/c1-2-6-8-3-5(7)4-9-6/h6H,2-4H2,1H3	InChI=1S/C6H10O3/c1-2-6-8-3-5(7)4-9-6/h6H,2-4H2,1H3
