19
gdb 82771	2.81861	1.86474	1.5125	1.5739	73.3	-0.2378	0.0756	0.3134	928.0397	0.162808	-423.012275	-423.005595	-423.004651	-423.042927	28.294	
O	-0.0995700177	 1.4381005058	-0.0604554774	-0.450453
C	-0.023765533	 0.0235606361	-0.0301442156	 0.157745
C	-1.4228944623	-0.5800349395	-0.2115947152	-0.094428
C	-1.7642015456	-0.1210422776	-1.6567751484	-0.249602
C	-0.6220222055	-1.0848567609	-2.0484870382	-0.064682
C	-1.0520570436	-1.9709527192	-0.8559062852	 0.145104
O	 0.0607220157	-2.6740268877	-0.3366179726	-0.285315
C	 1.2244603702	-1.9729386892	-0.8107919561	-0.089303
C	 0.6567992229	-0.6308355893	-1.2822243845	-0.103185
H	 0.7898685959	 1.7862150344	 0.0545643554	 0.2803
H	 0.4522536907	-0.3140603245	 0.9004503253	 0.068478
H	-2.1229386855	-0.4742083719	 0.6164005841	 0.065919
H	-2.7366367398	-0.4881462539	-1.9942640776	 0.095772
H	-1.6587086438	 0.9400999665	-1.8772658468	 0.118768
H	-0.4889379544	-1.4764528255	-3.0570515073	 0.064572
H	-1.894253197	-2.6489822969	-0.9937774658	 0.084355
H	 1.940423733	-1.8756733973	 0.0134952934	 0.100019
H	 1.7014830977	-2.5408473616	-1.622635481	 0.093574
H	 1.359162802	 0.0172077922	-1.8088499066	 0.062363
192.2599	279.1587	299.3067	337.8145	376.5119	413.7883	539.092	618.9249	718.4051	744.0623	816.0146	824.339	845.1539	888.7358	931.7842	940.02	951.4559	971.6452	996.6093	1012.3011	1029.6409	1045.991	1086.5502	1098.784	1106.7756	1130.317	1185.798	1189.4325	1212.1009	1224.1251	1243.1854	1251.2121	1263.0863	1281.0979	1322.7757	1327.3741	1355.6673	1390.9592	1429.4403	1499.925	1522.874	2996.595	3005.3887	3056.089	3074.1988	3103.0798	3113.1445	3119.6858	3129.6833	3149.1209	3822.9278
OC1C2CC3C2OCC13	O[C@H]1[C@H]2C[C@@H]3[C@H]2OC[C@H]13	
InChI=1S/C7H10O2/c8-6-4-1-3-5(6)2-9-7(3)4/h3-8H,1-2H2	InChI=1S/C7H10O2/c8-6-4-1-3-5(6)2-9-7(3)4/h3-8H,1-2H2/t3-,4+,5-,6-,7+/m0/s1
