25
gdb 120842	3.23653	0.59676	0.53736	1.3267	90.55	-0.2607	0.0813	0.342	2157.7876	0.227591	-389.480546	-389.469355	-389.468411	-389.51802	40.179	
C	 0.1291224978	 1.5422422329	-0.2241574528	-0.381594
C	 0.2989642552	 0.023840193	-0.1316154782	-0.156061
C	 0.4222921744	-0.4808417775	 1.3130296531	-0.189683
C	 0.5807247725	-1.9855827143	 1.3969022007	-0.010738
C	 1.9400540578	-2.6385328456	 1.296943953	-0.292863
C	 1.1666385401	-2.6966649096	 2.596384768	-0.019386
C	 1.6529891992	-1.9714412236	 3.8333926279	-0.197281
C	 2.6554645992	-2.799609274	 4.630685632	-0.066208
O	 3.0411220498	-2.0421151411	 5.7686321463	-0.423147
H	 0.9846079137	 2.0644103124	 0.2190973454	 0.112902
H	 0.0408853065	 1.8727225587	-1.2639251708	 0.109693
H	-0.7695666627	 1.8741115243	 0.3079286438	 0.112851
H	-0.553973542	-0.4712590297	-0.6146745664	 0.092008
H	 1.1874866707	-0.2855929827	-0.696527901	 0.097748
H	 1.2738284917	 0.016880841	 1.7923625486	 0.093733
H	-0.4675403181	-0.1709238506	 1.8793871728	 0.092607
H	-0.2265554517	-2.5265101593	 0.9065262856	 0.077045
H	 2.0548317196	-3.5414227613	 0.7069148216	 0.10497
H	 2.8026715113	-1.9782091736	 1.2660461409	 0.105822
H	 0.7066479658	-3.6585393952	 2.8156088431	 0.076877
H	 2.1306899732	-1.0222182831	 3.5701387362	 0.104785
H	 0.8099588079	-1.7246436005	 4.4911344018	 0.103881
H	 2.1941069372	-3.7564272299	 4.9268146905	 0.080645
H	 3.5230946206	-3.0405197421	 3.9958721694	 0.087346
H	 3.6786818602	-2.5577143587	 6.2706478585	 0.284047
58.2944	72.4108	79.6385	102.0483	115.2138	177.6452	244.8191	261.2038	263.7849	293.6346	351.1727	439.076	461.4245	540.2865	742.5642	780.5873	806.8585	836.5648	864.7379	893.2626	905.5333	947.037	965.4568	1021.9649	1045.458	1058.6891	1068.6078	1083.7926	1093.8997	1127.1246	1147.7018	1183.5684	1199.7212	1236.031	1240.4055	1250.7913	1269.4291	1302.0579	1311.9427	1326.221	1329.3781	1382.5409	1406.8803	1412.219	1434.6625	1461.0024	1480.1491	1488.5657	1493.1565	1499.4712	1501.2661	1511.0257	1527.5427	2959.7258	2988.6783	3005.6763	3017.2836	3028.0316	3031.1751	3040.8409	3060.066	3081.8717	3094.4838	3100.1137	3113.102	3120.3918	3125.7089	3204.5803	3830.8062
CCCC1CC1CCO	CCC[C@H]1C[C@H]1CCO	
InChI=1S/C8H16O/c1-2-3-7-6-8(7)4-5-9/h7-9H,2-6H2,1H3	InChI=1S/C8H16O/c1-2-3-7-6-8(7)4-5-9/h7-9H,2-6H2,1H3/t7-,8+/m0/s1
