22
gdb 60640	2.62337	1.09325	0.91161	3.297	82.57	-0.2396	0.0353	0.2749	1382.4798	0.193653	-404.381859	-404.371559	-404.370614	-404.418249	37.194	
C	 0.426473533	 1.7739503968	-0.04782165	-0.396642
C	 0.1274976713	 0.2694560213	 0.0166627568	-0.120015
C	 0.6151994077	-0.4563826398	-1.2413809785	 0.090574
C	 0.2180628952	-1.9429005651	-1.4722152501	-0.238865
C	 0.0584570239	-1.6219893747	-2.9821546117	-0.21585
C	-0.0338569917	-0.1164267288	-2.6134578783	-0.24411
C	 0.8305210802	-0.3404728365	 1.2339225645	 0.418363
N	 0.0392820633	-1.0813159521	 2.0637511279	-0.5259
O	 2.0199914681	-0.1850696413	 1.4399871521	-0.380544
H	 1.5073225896	 1.935602751	-0.0408902791	 0.143036
H	 0.0075108396	 2.2133669374	-0.957824859	 0.1137
H	 0.0012668161	 2.3019389376	 0.8114745909	 0.11317
H	-0.9578815365	 0.1188235533	 0.1018394832	 0.053776
H	 1.7034576637	-0.3493804014	-1.298473796	 0.093032
H	 0.9347322735	-2.7142226424	-1.1811677063	 0.103535
H	-0.7477880287	-2.1739064284	-1.0083296506	 0.084825
H	 0.9718413849	-1.8451675676	-3.5405984542	 0.105365
H	-0.7874237038	-2.0678420028	-3.510453036	 0.094664
H	-1.0747944553	 0.2040112902	-2.4929724887	 0.094494
H	 0.4773372242	 0.6027520665	-3.2577385053	 0.098525
H	-0.9317989434	-1.2500383831	 1.8723937023	 0.256709
H	 0.4705933749	-1.5472874499	 2.845666906	 0.258157
29.5833	72.5022	121.2815	125.8396	142.6256	232.1952	238.7818	259.8313	348.0109	389.46	455.4371	575.5123	614.6433	648.0653	744.3619	778.4478	800.2728	819.8026	894.8521	934.6956	946.6017	959.8508	996.6117	1019.2124	1055.066	1081.3941	1103.1991	1128.2529	1187.898	1204.3221	1229.8358	1255.4629	1263.6093	1265.2873	1284.9453	1297.8769	1312.4644	1372.5677	1396.6994	1405.7372	1477.7014	1485.8739	1493.7302	1504.0471	1509.352	1613.1297	1789.7391	3000.7945	3037.8216	3040.7145	3042.8165	3059.2652	3059.5651	3097.5531	3101.689	3107.4762	3117.54	3128.8749	3600.6521	3742.1941
CC(C1CCC1)C(N)=O	C[C@@H](C1CCC1)C(=O)N	
InChI=1S/C7H13NO/c1-5(7(8)9)6-3-2-4-6/h5-6H,2-4H2,1H3,(H2,8,9)	InChI=1S/C7H13NO/c1-5(7(8)9)6-3-2-4-6/h5-6H,2-4H2,1H3,(H2,8,9)/t5-/m0/s1
