20
gdb 93939	3.27347	1.03067	0.92717	4.3567	75.48	-0.241	0.035	0.276	1321.096	0.17149	-440.334127	-440.324492	-440.323548	-440.370311	34.94	
N	 0.0142062375	 1.2752459399	 0.4471938736	-0.528077
C	 0.01288937	 0.1017405115	-0.2512758847	 0.393205
O	 0.9776315739	-0.2709871369	-0.8914948207	-0.366382
C	-1.2934847003	-0.6859002753	-0.1974592431	-0.07659
C	-2.0705898385	-0.6098423019	-1.5327361436	-0.204515
C	-3.0159123549	-1.8129208508	-1.4355190156	-0.234057
C	-2.1195953948	-2.9344741998	-0.8703663755	 0.127136
O	-1.4007717717	-3.6074883816	-1.9015859481	-0.434897
C	-1.0709339293	-2.2055101903	 0.0056336373	-0.222991
H	 0.8405655571	 1.8496372735	 0.4162814021	 0.258585
H	-0.7763220251	 1.5879270071	 0.9812698399	 0.255881
H	-1.9334149656	-0.2923470677	 0.6024217649	 0.053787
H	-2.5820548354	 0.3455457663	-1.678965795	 0.090049
H	-1.3651912793	-0.7544275375	-2.3571387912	 0.134124
H	-3.8288637592	-1.5973269616	-0.7299377419	 0.09008
H	-3.4748520352	-2.0934009097	-2.3893748165	 0.086479
H	-2.7031766238	-3.6607255202	-0.2872119343	 0.056648
H	-2.0411506395	-4.053867095	-2.4649968092	 0.277667
H	-0.0778157212	-2.4778466532	-0.357709622	 0.149848
H	-1.1421552249	-2.4896580866	 1.0582501435	 0.094021
22.3193	56.1836	79.9902	160.0927	201.0263	287.8281	320.5787	346.8687	416.6393	440.0553	550.6426	584.5637	628.6682	675.6413	761.4099	811.1259	829.4878	874.426	930.7992	953.9783	968.2169	1006.9626	1036.4119	1045.5579	1081.2455	1092.2344	1184.4964	1194.698	1215.6516	1264.284	1274.855	1293.8848	1311.5616	1333.918	1346.082	1363.7734	1414.1988	1421.2105	1477.0915	1479.7328	1494.0756	1614.1969	1794.2375	2991.3003	3016.9754	3026.2464	3054.3249	3071.2798	3077.3487	3107.0772	3128.7477	3604.652	3744.6474	3812.1126
NC(=O)C1CCC(O)C1	NC(=O)[C@H]1CC[C@@H](O)C1	
InChI=1S/C6H11NO2/c7-6(9)4-1-2-5(8)3-4/h4-5,8H,1-3H2,(H2,7,9)	InChI=1S/C6H11NO2/c7-6(9)4-1-2-5(8)3-4/h4-5,8H,1-3H2,(H2,7,9)/t4-,5+/m0/s1
