20
gdb 82472	2.66004	1.70408	1.49889	1.2451	77.8	-0.2252	0.0722	0.2974	1002.0036	0.172103	-403.096849	-403.089156	-403.088212	-403.128474	31.356	
C	-0.0151661656	 1.5435165222	-0.0334901415	-0.424301
C	 0.0865693738	 0.0233645672	 0.0053640831	 0.064653
C	 1.0486776499	-0.6337654677	-1.010122349	-0.094388
N	 2.3436225726	 0.0460845384	-0.6471280588	-0.361139
C	 2.2864613639	-0.8156411923	 0.567120191	 0.317211
C	 3.4848844512	-0.9906947807	 1.4529867594	-0.52335
C	 1.4542457266	-1.9105955903	-0.1246241163	 0.041235
O	 0.5489629916	-2.0382995013	 0.9750858511	-0.297253
C	 0.8319842893	-0.6213865217	 1.1969402506	 0.016269
H	 0.9719502428	 2.0069175789	 0.0013088116	 0.140172
H	-0.5121081649	 1.8749084586	-0.9517255774	 0.111545
H	-0.6082690369	 1.9091646017	 0.8119324651	 0.107568
H	-0.9062512936	-0.4333624395	-0.0446996753	 0.080204
H	 0.7745627839	-0.6773511625	-2.0630300371	 0.068493
H	 3.0827929426	-0.3305647877	-1.2418757253	 0.211641
H	 3.7656333174	-0.0401693845	 1.9189685688	 0.130872
H	 3.2658336308	-1.712798955	 2.2454399107	 0.137266
H	 4.3486035065	-1.3579334968	 0.8876421797	 0.115931
H	 1.8008783292	-2.8408160025	-0.5769673876	 0.080491
H	 0.6491448191	-0.2864466344	 2.2177688771	 0.076879
166.0744	191.8811	221.4272	256.1004	289.7717	315.2531	483.9237	522.8694	552.2396	606.8105	699.1095	746.0241	789.0993	827.4393	852.4855	867.4634	893.0902	915.1647	934.8984	962.8184	1015.4473	1023.6502	1039.495	1083.355	1112.4516	1122.3486	1139.9734	1167.8117	1178.5188	1212.6641	1224.5582	1262.2296	1276.1916	1313.2432	1329.4798	1375.6496	1380.8796	1404.9913	1414.0332	1488.0512	1492.0543	1492.8239	1509.3006	3030.6362	3035.3365	3067.4547	3091.4193	3094.7438	3110.927	3111.3187	3126.3548	3134.2899	3140.7429	3448.1295
CC1C2NC3(C)C2OC13	C[C@H]1[C@H]2N[C@]3(C)[C@H]2O[C@H]13	
InChI=1S/C7H11NO/c1-3-4-6-7(2,8-4)5(3)9-6/h3-6,8H,1-2H3	InChI=1S/C7H11NO/c1-3-4-6-7(2,8-4)5(3)9-6/h3-6,8H,1-2H3/t3-,4+,5+,6-,7-/m0/s1
