16
gdb 34233	3.39663	1.60925	1.39317	1.8572	75.17	-0.2396	0.0175	0.257	945.5738	0.125482	-400.654306	-400.647607	-400.646662	-400.685189	27.72	
C	-0.0511276883	-1.1721812097	 0.1112692952	-0.334626
C	-0.0671357071	 0.0277302865	 0.0438737198	 0.121482
C	-0.0749453048	 1.4548748146	-0.0342304564	 0.380596
O	-1.0161626337	 2.1701248118	 0.7732634999	-0.331818
C	-0.6734478217	 3.3248933832	-0.04715012	 0.02722
C	 0.7484177437	 3.6304763481	 0.4551713027	-0.221572
C	 1.3112864358	 2.2975943727	-0.0813420128	-0.109875
N	 1.1217051763	 2.3796156448	-1.5553493593	-0.303608
C	-0.3114372775	 2.3553194273	-1.2708170653	-0.113903
H	-0.0414159684	-2.2325341178	 0.1701713371	 0.186774
H	-1.444024908	 4.0918865721	-0.0695159633	 0.087699
H	 1.2346407232	 4.4930439926	-0.0107197015	 0.095494
H	 0.7587140388	 3.7355234072	 1.5416666039	 0.118471
H	 2.2548072453	 1.903468619	 0.2900312961	 0.087072
H	 1.4697315738	 3.2438688434	-1.9695697624	 0.213309
H	-1.0356721975	 2.1719171743	-2.0621956837	 0.097285
145.1889	151.8677	383.9303	428.7822	493.1891	522.4393	534.5218	568.3382	613.8405	680.763	716.7315	750.1856	795.8251	829.1181	890.7545	914.9314	940.3777	951.8732	986.5335	995.809	998.794	1035.4502	1067.2414	1095.5434	1126.1784	1168.1959	1221.7022	1233.4984	1254.9957	1279.7142	1315.921	1334.8394	1348.8429	1472.6328	2243.2842	3060.0328	3126.1395	3141.2362	3146.9443	3155.7938	3456.505	3501.7346
C#CC12OC3CC1NC23	C#C[C@@]12O[C@H]3C[C@@H]1N[C@@H]23	
InChI=1S/C7H7NO/c1-2-7-5-3-4(9-7)6(7)8-5/h1,4-6,8H,3H2	InChI=1S/C7H7NO/c1-2-7-5-3-4(9-7)6(7)8-5/h1,4-6,8H,3H2/t4-,5-,6+,7+/m0/s1
