18
gdb 73117	2.8074	1.4484	1.21499	3.4097	71.6	-0.2393	0.0341	0.2734	1066.503	0.148574	-439.12255	-439.114501	-439.113557	-439.155502	31.337	
O	-0.0725912034	 1.3823592246	-0.1199596222	-0.478116
C	 0.0282547846	-0.0182074745	 0.0015681922	 0.405087
C	 0.3768285197	-0.8132492422	-1.2928327757	-0.294295
C	-0.8853532364	-1.6975223966	-1.0777240343	-0.241789
C	-1.3644683299	-0.7115742757	 0.0371688371	-0.02037
N	-1.5096726143	-1.2076640392	 1.3795133928	-0.304214
C	-0.3738014945	-1.1601508852	 2.1473180354	 0.410141
O	-0.2580941696	-1.585421412	 3.2740857706	-0.375418
C	 0.7138844697	-0.4709575194	 1.3047287259	-0.417701
H	 0.8178351936	 1.7504766446	-0.1233825997	 0.27919
H	 0.2871744681	-0.1647064491	-2.1671818536	 0.111872
H	 1.3432590536	-1.3223861344	-1.3206996896	 0.099703
H	-1.5469072346	-1.8106481218	-1.9384172603	 0.108719
H	-0.6616295074	-2.6869542923	-0.6725338695	 0.109666
H	-2.1873059898	-0.059400582	-0.2626672578	 0.097203
H	-2.3284217276	-1.6849997255	 1.7229198762	 0.250751
H	 1.5334585802	-1.1778195967	 1.144837884	 0.128419
H	 1.1112939979	 0.3784306076	 1.8664960884	 0.131151
52.0005	101.9189	255.5453	285.4017	347.7286	380.5321	414.36	462.1446	505.3316	570.7436	593.4389	647.4191	693.2716	760.7605	828.6233	846.0529	904.6992	907.9554	949.4248	968.7028	1018.7922	1081.7635	1107.186	1120.2816	1169.16	1193.8905	1221.3752	1236.5518	1252.745	1263.4379	1274.7497	1305.7793	1367.1967	1372.2188	1429.6636	1449.5963	1473.5897	1491.4363	1830.7899	3061.2811	3062.8549	3071.4797	3088.8506	3109.7858	3115.0081	3133.0268	3636.7256	3801.3265
OC12CCC1NC(=O)C2	O[C@]12CC[C@H]1NC(=O)C2	
InChI=1S/C6H9NO2/c8-5-3-6(9)2-1-4(6)7-5/h4,9H,1-3H2,(H,7,8)	InChI=1S/C6H9NO2/c8-5-3-6(9)2-1-4(6)7-5/h4,9H,1-3H2,(H,7,8)/t4-,6+/m1/s1
