18
gdb 9364	7.94919	0.73083	0.68062	2.8024	66.04	-0.247	-0.0116	0.2354	1618.7786	0.14993	-422.06967	-422.059544	-422.0586	-422.106804	33.244	
C	 0.0815218106	 1.3373921822	 0.0078271968	-0.228798
O	 0.0111163774	-0.0682872324	 0.0013412103	-0.236543
C	-1.3165808234	-0.5469833776	 0.0114577457	-0.049494
C	-1.2604763807	-2.0673673881	 0.0030840745	-0.325114
C	-2.6392833243	-2.7089493974	 0.0128670324	 0.368254
O	-3.658308116	-2.0635749703	 0.0264657491	-0.278747
C	-2.6432912212	-4.2362537122	 0.004241961	-0.166391
O	-3.9641952672	-4.7072849793	 0.0146746337	-0.394184
H	 1.1390349884	 1.6126609562	-0.0007992645	 0.125463
H	-0.4075424971	 1.7756719669	-0.876629062	 0.105353
H	-0.3906393254	 1.766606272	 0.9058114311	 0.105356
H	-1.8577116177	-0.1906368951	 0.9016117587	 0.102627
H	-1.8744461075	-0.1815227473	-0.8645661213	 0.102598
H	-0.7048248657	-2.414904343	-0.8776140484	 0.130358
H	-0.6883782566	-2.423887187	 0.869555825	 0.130393
H	-2.0790551087	-4.5647213298	-0.8863891225	 0.107787
H	-2.0615296749	-4.5747310501	 0.8797259287	 0.107779
H	-3.9377040201	-5.6684106676	 0.008975272	 0.293305
18.8684	55.6298	94.2697	109.1097	116.804	226.1914	233.6351	254.1659	304.399	342.6931	469.4577	496.2204	673.3433	757.4113	854.8856	925.4628	986.9573	1014.7482	1102.3314	1105.2163	1148.2957	1165.5405	1179.9789	1216.6927	1231.0377	1238.4786	1262.1823	1304.0891	1334.3697	1423.3269	1444.2491	1459.3934	1482.979	1484.9619	1496.0281	1505.2905	1526.811	1824.621	2949.8613	2967.579	2970.791	2984.3735	3008.9019	3014.5343	3030.9005	3065.0164	3113.2443	3836.1914
COCCC(=O)CO	COCCC(=O)CO	
InChI=1S/C5H10O3/c1-8-3-2-5(7)4-6/h6H,2-4H2,1H3	InChI=1S/C5H10O3/c1-8-3-2-5(7)4-6/h6H,2-4H2,1H3
