17
gdb 33046	4.66942	0.89626	0.77785	3.1484	73.93	-0.1851	0.0427	0.2278	1459.036	0.135121	-455.160275	-455.151163	-455.150219	-455.195198	32.536	
C	-0.1513243396	 1.4408437565	 0.0405669828	-0.387248
C	 0.3059252036	-0.0009045052	-0.0484023141	-0.063347
O	 0.2715352748	-0.5541919785	 1.2879049172	-0.275152
C	 0.6425579725	-1.8262436136	 1.3948947437	 0.389112
C	 1.5840816887	-2.430889842	 2.1254467879	-0.219733
N	 1.4639744819	-3.805548327	 1.8637262188	-0.335906
C	 0.4096222465	-4.0288419534	 1.0079147696	 0.473941
N	-0.0157990658	-5.1499743957	 0.5985286117	-0.603182
O	-0.08744226	-2.773966217	 0.6838667245	-0.251133
H	 0.5072684139	 2.01724482	 0.6959953257	 0.131863
H	-0.139047439	 1.8973437383	-0.953400095	 0.12464
H	-1.1690407808	 1.497827896	 0.4361043458	 0.136079
H	-0.3499917184	-0.5913708729	-0.6965466431	 0.127829
H	 1.3316121429	-0.0787668886	-0.4317685963	 0.108158
H	 2.3337939743	-2.0176730768	 2.7750413344	 0.147317
H	 1.8727926078	-4.5520783941	 2.3959418316	 0.273628
H	-0.8145461534	-5.0304169059	-0.0176999351	 0.223135
51.5654	65.8112	110.0577	134.4899	240.0778	281.9336	329.5247	375.3092	416.729	528.738	616.4013	672.0574	705.5445	724.9955	744.4415	779.0811	817.2854	891.736	938.4885	974.8718	1041.444	1052.8915	1099.1244	1128.2106	1179.7417	1202.2573	1291.3076	1309.1125	1370.5852	1396.8097	1402.6915	1423.6669	1483.0584	1499.9708	1521.9376	1750.6691	1807.3272	3021.2043	3048.2652	3076.8068	3123.8084	3128.2337	3303.0861	3548.3536	3701.399
CCOC1=CNC(=N)O1	CCOC1=CN[C@H]([NH])O1	
InChI=1S/C5H8N2O2/c1-2-8-4-3-7-5(6)9-4/h3H,2H2,1H3,(H2,6,7)	InChI=1S/C5H9N2O2/c1-2-8-4-3-7-5(6)9-4/h3,5-7H,2H2,1H3/t5-/m0/s1
