18
gdb 78138	1.94961	1.75829	0.99643	5.9412	81.92	-0.2135	-0.0156	0.1979	1192.3589	0.148479	-401.985004	-401.976654	-401.97571	-402.01753	32.591	
C	-0.0745461077	 1.4451459959	-0.0090215164	-0.421818
C	 0.0490494019	-0.0604406928	-0.054992496	-0.010437
C	 0.7718040843	-0.7282040441	-1.2158801803	-0.163797
C	 1.4034561461	-0.70712339	 0.151243293	-0.173541
C	 1.3947893699	-2.1522269695	 0.6435758096	 0.412395
O	 1.8676999542	-2.5298336349	 1.6965141931	-0.372282
C	 0.7207206947	-2.9420856579	-0.3875266462	-0.358929
C	 0.4050591246	-2.1583287332	-1.4544127541	 0.401058
N	-0.1559712381	-2.5229697892	-2.6391478132	-0.590309
H	 0.8097970299	 1.930389873	-0.4344358427	 0.119028
H	-0.9502262721	 1.789271246	-0.5704210295	 0.118464
H	-0.1812030766	 1.7944080827	 1.0234253534	 0.132013
H	-0.8046308656	-0.6072893912	 0.3374046621	 0.099066
H	 1.1333088506	-0.1216612561	-2.0394900023	 0.094379
H	 2.2496267018	-0.0763733225	 0.3943221958	 0.101836
H	 0.5024477969	-3.9957582843	-0.2766227558	 0.089261
H	-0.565453393	-3.4392792308	-2.7231022151	 0.263381
H	-0.5687024219	-1.8091568608	-3.2163604054	 0.260232
155.8884	163.4131	207.2449	213.28	270.1119	311.0885	354.0755	411.7059	472.9729	497.241	590.6401	613.7163	668.7613	727.5431	814.694	836.466	850.3609	869.714	912.5054	955.4642	1021.3357	1033.7112	1070.5937	1084.5508	1120.8152	1133.4809	1184.8063	1202.4838	1264.9061	1280.9859	1297.5985	1406.8201	1416.6639	1427.7318	1491.1669	1498.8253	1625.2509	1672.0795	1792.4154	3029.5563	3093.6023	3100.6032	3141.9069	3167.6421	3194.9611	3220.7318	3594.4492	3708.3383
CC1C2C1C(=O)C=C2N	C[C@H]1[C@H]2[C@@H]1C(=O)C=C2N	
InChI=1S/C7H9NO/c1-3-6-4(8)2-5(9)7(3)6/h2-3,6-7H,8H2,1H3	InChI=1S/C7H9NO/c1-3-6-4(8)2-5(9)7(3)6/h2-3,6-7H,8H2,1H3/t3-,6+,7-/m0/s1
