22
gdb 119241	2.04171	1.14823	0.87815	3.4436	83.15	-0.246	0.0297	0.2757	1447.1726	0.19299	-404.369482	-404.35925	-404.358306	-404.405395	37.255	
C	-1.7685989516	 1.5304740761	-1.4644575578	-0.379085
C	-1.757157314	 0.0007409342	-1.4051392179	-0.168222
C	-1.6557148464	-0.5380618801	 0.027259508	-0.236596
C	-1.6211927881	-2.056163857	 0.1164288771	 0.361721
C	-2.1386560029	-2.7330991962	 1.3583961532	-0.282335
C	-2.9110983187	-2.8389544296	 0.0657508825	-0.322877
N	-0.4915948447	-2.6864855179	-0.5253787013	-0.330646
C	 0.7718718126	-2.6534478938	-0.0165690321	 0.145432
O	 1.087821207	-2.1619145684	 1.0449513899	-0.320776
H	-1.8356287215	 1.8898005104	-2.4961100684	 0.110381
H	-2.6206888872	 1.9428178126	-0.9124747296	 0.113609
H	-0.857344611	 1.949146334	-1.0235940196	 0.119689
H	-2.6656187508	-0.394029059	-1.8791792953	 0.091358
H	-0.9131898696	-0.3792566633	-1.9946372216	 0.090866
H	-0.7535222612	-0.1466827778	 0.5122161253	 0.126749
H	-2.5085612923	-0.1752826144	 0.6145496077	 0.090906
H	-1.6060020804	-3.6099045444	 1.7045716041	 0.126523
H	-2.5306340492	-2.1014752165	 2.1473285475	 0.119194
H	-3.8334801171	-2.2775627476	-0.0360386279	 0.11731
H	-2.9086472821	-3.7951042025	-0.4467430573	 0.110526
H	-0.6080459659	-3.0428790606	-1.4615375135	 0.245952
H	 1.4963921152	-3.1502015381	-0.694905563	 0.070322
43.759	86.1154	103.0227	152.0967	173.2778	223.1246	251.0136	306.3832	334.0371	363.8868	425.7763	488.1938	549.4076	707.7621	749.3903	775.2302	824.6914	871.8963	887.3081	930.5666	941.0962	977.4938	1004.2818	1032.441	1051.5224	1055.7785	1082.2974	1108.7309	1131.7367	1186.8517	1190.6324	1254.6738	1293.8906	1309.7339	1327.6296	1357.7562	1395.0305	1414.7281	1432.1444	1460.0646	1481.535	1494.4258	1498.3097	1501.0398	1503.0375	1511.9213	1807.9274	2917.1727	3015.1308	3027.0268	3031.0816	3044.8906	3074.2995	3097.6081	3102.4914	3131.0254	3148.3326	3214.5827	3238.799	3616.7922
CCCC1(CC1)NC=O	CCCC1(CC1)NC=O	
InChI=1S/C7H13NO/c1-2-3-7(4-5-7)8-6-9/h6H,2-5H2,1H3,(H,8,9)	InChI=1S/C7H13NO/c1-2-3-7(4-5-7)8-6-9/h6H,2-5H2,1H3,(H,8,9)
