18
gdb 19910	4.60891	1.56661	1.42014	2.2272	72.17	-0.2011	0.0626	0.2637	947.8077	0.153499	-343.866516	-343.859144	-343.8582	-343.898295	28.75	
C	-0.1232533053	 1.5986881289	 0.5432000625	-0.374594
C	 0.1666247911	 0.2389421271	-0.0953193801	-0.085621
N	-1.0793353377	-0.531225972	-0.2004051916	-0.070123
C	-1.6106800295	-1.3125139253	-1.272978999	-0.061182
C	-0.6256387073	-2.3754420927	-1.8908885713	-0.077476
N	 0.7056781433	-2.2225650362	-1.2538611447	-0.332756
C	-0.3827555889	-2.9505281194	-0.5560364287	-0.077476
C	-1.3620399761	-1.9012125786	 0.0934805838	-0.061181
H	 0.7961782526	 2.1884956798	 0.6299971861	 0.10033
H	-0.8405636583	 2.1670035705	-0.0572819609	 0.111946
H	-0.5491843658	 1.4771115383	 1.5441481223	 0.111946
H	 0.6080572799	 0.367047596	-1.087010942	 0.108235
H	 0.8966649231	-0.3162981698	 0.4992193178	 0.108234
H	-2.5420141734	-1.0261685943	-1.7513919412	 0.092321
H	-0.7482062659	-2.8660414414	-2.8474067952	 0.092544
H	 1.3149069873	-2.9279193888	-1.6685964695	 0.229989
H	-0.2761602294	-3.9837296748	-0.25310151	 0.092544
H	-2.0630755499	-2.1601376872	 0.8807306618	 0.092321
57.2831	192.731	193.8508	273.7607	325.6798	409.8288	504.4516	662.1208	713.4351	722.5633	737.743	786.8553	799.4639	852.9356	882.334	889.5666	915.1679	949.3787	968.7337	1020.7098	1036.778	1051.661	1101.69	1106.5236	1111.1507	1172.6111	1226.1984	1229.4909	1291.6992	1295.8221	1311.7249	1344.2256	1370.0833	1401.9116	1424.0153	1470.024	1487.2035	1502.439	3030.4063	3058.4771	3093.462	3101.1707	3118.8471	3150.4786	3161.0676	3195.3301	3208.9844	3466.3697
CCN1C2C3NC3C12	CCN1[C@H]2[C@H]3N[C@H]3[C@@H]12	
InChI=1S/C6H10N2/c1-2-8-5-3-4(7-3)6(5)8/h3-7H,2H2,1H3	InChI=1S/C6H10N2/c1-2-8-5-3-4(7-3)6(5)8/h3-7H,2H2,1H3/t3-,4+,5-,6+,8?
