20
gdb 102099	2.51012	1.09642	0.91721	4.8816	76.17	-0.2374	-0.0083	0.2291	1353.694	0.168739	-440.257095	-440.246975	-440.246031	-440.292584	36.139	
C	-0.3020812034	 1.4990796297	-0.0666241345	-0.416285
C	-0.0374354352	 0.0174477653	 0.0516749179	 0.007186
N	 1.3221059579	-0.4650981596	-0.2379736775	-0.333683
C	 0.7853543235	-0.5943895534	 1.1326975283	-0.053201
C	 1.474661624	 0.2109758964	 2.2345821797	-0.076338
C	 1.9372512026	-0.7201161906	 3.3563668466	-0.104545
O	 2.5392343276	 0.0822497409	 4.3555430054	-0.417
C	 2.6880347026	 0.9587972757	 1.6842615137	 0.197382
O	 2.7359057537	 2.1444561049	 1.495279812	-0.255585
H	 0.5210235755	 2.090586068	 0.3382715493	 0.161923
H	-0.438249067	 1.7781957816	-1.1167160822	 0.120313
H	-1.2188425394	 1.7643561929	 0.4718442464	 0.113639
H	-0.8534082068	-0.6120978409	-0.3035881385	 0.08191
H	 1.3007808361	-1.3570448219	-0.7234129751	 0.231521
H	 0.4776366234	-1.5921464003	 1.445474773	 0.078495
H	 0.793550622	 0.9571137289	 2.6567674429	 0.106805
H	 1.0736350863	-1.2802834413	 3.7480507766	 0.094378
H	 2.6484455701	-1.4577985557	 2.9470410641	 0.093591
H	 2.9089329348	-0.4926368149	 5.032081012	 0.291632
H	 3.5603544817	 0.3021482243	 1.4707536897	 0.077861
54.3085	99.4538	122.9729	145.4513	193.8846	227.1451	234.6827	266.4866	310.5721	382.5059	399.7587	509.5391	532.4345	560.9837	780.6547	837.3969	860.9484	911.2578	959.6516	989.1116	1010.8433	1034.7011	1076.765	1090.9901	1091.8509	1136.962	1151.3819	1195.8761	1238.7446	1244.4279	1258.5419	1272.99	1306.921	1331.1195	1399.1323	1419.8062	1432.697	1450.97	1461.9993	1498.1021	1505.6619	1520.9902	1839.5553	2883.725	2957.9493	2992.2379	3036.9004	3065.4036	3093.8499	3095.8251	3105.3361	3143.7507	3511.2938	3831.4373
CC1NC1C(CO)C=O	C[C@H]1N[C@H]1[C@@H](CO)C=O	
InChI=1S/C6H11NO2/c1-4-6(7-4)5(2-8)3-9/h2,4-7,9H,3H2,1H3	InChI=1S/C6H11NO2/c1-4-6(7-4)5(2-8)3-9/h2,4-7,9H,3H2,1H3/t4-,5-,6-/m1/s1
