19
gdb 103529	2.43447	1.47291	1.22359	2.3066	76.26	-0.2427	-0.0133	0.2294	1116.8254	0.159376	-419.268778	-419.259706	-419.258762	-419.302386	33.801	
C	-0.0966346139	 1.5611116173	-0.0548099479	-0.40055
C	 0.0184046073	 0.0373043774	 0.0255503255	-0.180481
C	 0.7730752124	-0.4872697595	 1.2683342577	 0.123356
C	 2.2157146241	 0.0309617298	 1.3575177034	-0.412665
N	 0.0336889403	-0.142401628	 2.5024007544	-0.261169
C	-0.2991559321	-1.2472877721	 3.0441305844	 0.055251
N	 0.0988740356	-2.3992141757	 2.3729739336	-0.345318
C	 0.7882112373	-2.0296407672	 1.2229978247	 0.415565
O	 1.2706424479	-2.7703282029	 0.401625935	-0.377492
H	 0.8781340137	 2.0385834806	-0.1905937482	 0.1177
H	-0.7221979582	 1.8475066119	-0.9057157989	 0.112512
H	-0.5490090127	 1.9637333771	 0.8552030391	 0.139438
H	-0.9869257597	-0.4009495433	 0.033499943	 0.100726
H	 0.5259867829	-0.3650073033	-0.8584671424	 0.117762
H	 2.2259529945	 1.1181167861	 1.4536505981	 0.132543
H	 2.7228551528	-0.3888889781	 2.2309612271	 0.121797
H	 2.7711006475	-0.2623662886	 0.4622710613	 0.134726
H	-0.857922997	-1.3344828863	 3.9709363466	 0.138557
H	-0.0750208526	-3.351956905	 2.6499209136	 0.267741
87.0243	116.7949	165.9801	215.5792	221.7399	282.9393	291.8556	331.7358	345.5587	502.5707	553.9509	613.6531	623.7079	717.6903	758.6443	785.455	841.6834	912.4903	926.4402	943.66	1012.4468	1027.1529	1056.6145	1074.5218	1130.8656	1187.4302	1208.2368	1248.7803	1315.7222	1350.4736	1368.3061	1392.0673	1404.4852	1410.7811	1478.1825	1486.4644	1495.7737	1507.5142	1511.4906	1676.8231	1845.8641	3031.0201	3044.6851	3048.9781	3072.2648	3108.6406	3118.8783	3126.3658	3140.6627	3187.1063	3650.362
CCC1(C)N=CNC1=O	CC[C@@]1(C)N=CNC1=O	
InChI=1S/C6H10N2O/c1-3-6(2)5(9)7-4-8-6/h4H,3H2,1-2H3,(H,7,8,9)	InChI=1S/C6H10N2O/c1-3-6(2)5(9)7-4-8-6/h4H,3H2,1-2H3,(H,7,8,9)/t6-/m1/s1
