17
gdb 34057	3.96231	1.40202	1.20198	0.6465	87.86	-0.2157	-0.0378	0.1779	1039.6975	0.135554	-347.41999	-347.412702	-347.411758	-347.451282	29.846	
C	-0.0565186531	-1.1180975654	-0.014736323	-0.396705
C	-0.0306983055	 0.0861817062	-0.0186386997	 0.203884
C	-0.0445936176	 1.5113875733	 0.0068838942	 0.136509
C	-1.3768379201	 2.3441463014	 0.2355124221	-0.31198
C	-0.5317221433	 3.4681116843	-0.371801422	 0.020434
C	 0.1599818955	 4.2307606196	 0.4980014982	-0.095438
C	 1.570138734	 3.6753606144	 0.6635981138	-0.265295
C	 1.3624156863	 2.2941923998	 0.0166212823	-0.088547
C	 0.3947007469	 2.4667119864	-1.0863545281	-0.137293
H	-0.0723863319	-2.179513961	-0.0180427517	 0.185444
H	-2.1578158584	 1.9064706346	-0.3952955296	 0.115767
H	-1.7468101123	 2.4924751319	 1.2534154959	 0.107877
H	-0.3224365859	 4.739507076	 1.3279096586	 0.100343
H	 2.3956910922	 4.2043933357	 0.1650601086	 0.113303
H	 1.8107285888	 3.6479390615	 1.7329828882	 0.116108
H	 2.1957174414	 1.6030838026	-0.0874260047	 0.093723
H	 0.4973354533	 2.2799679387	-2.1471549731	 0.101866
138.3495	150.3081	277.8057	353.9443	395.5657	476.4012	505.868	531.9166	565.9649	616.823	649.5519	684.4382	737.6344	793.219	858.9445	886.6783	907.4928	915.8379	920.0378	967.6554	999.2862	1013.814	1039.584	1069.8788	1094.6006	1136.3495	1183.2004	1192.2815	1227.2089	1242.959	1288.9117	1295.8212	1378.1091	1472.6043	1502.3372	1596.715	2222.0364	2996.4093	3037.8051	3055.7823	3104.0727	3147.295	3164.1968	3201.5486	3503.9098
C#CC12CC3=CCC1C23	C#C[C@@]12C[C]3[CH]C[C@@H]1[C@@H]23	
InChI=1S/C9H8/c1-2-9-5-6-3-4-7(9)8(6)9/h1,3,7-8H,4-5H2	InChI=1S/C9H8/c1-2-9-5-6-3-4-7(9)8(6)9/h1,3,7-8H,4-5H2/t7-,8+,9-/m1/s1
