13
gdb 128568	1.76326	0.99671	0.65133	2.5261	61.74	-0.2607	-0.0539	0.2069	1587.6304	0.082378	-489.960319	-489.948747	-489.947802	-490.00376	33.568	
C	 0.077440935	 1.407876528	 0.0349471755	-0.237987
O	 0.186407797	-0.0201789636	 0.0693395511	-0.242928
C	-0.9696308703	-0.68392419	-0.150227251	 0.506886
C	-0.7345598772	-2.1280136044	-0.0923748599	-0.573633
C	-1.7417069896	-2.9636264465	-0.2864290266	 0.551843
O	-2.6083880851	-3.7064679486	-0.4552178327	-0.187032
N	-4.7902834634	-1.1798898798	 0.6734072091	-0.000758
N	-5.380365605	-0.2601747309	 0.5604311591	-0.003865
O	-2.0311102962	-0.1434637972	-0.363178176	-0.397207
H	 1.0819596811	 1.7839657628	 0.2290441724	 0.13408
H	-0.2755116348	 1.7454023261	-0.9427382144	 0.142973
H	-0.6182297533	 1.7612828566	 0.8001267941	 0.142737
H	 0.2459801918	-2.5397084423	 0.1030849393	 0.164891
9.165	15.115	33.1289	46.4311	74.6868	84.3277	112.5001	122.2342	185.7705	291.3056	404.5917	521.4974	556.1277	583.2901	751.1763	770.5562	950.0812	1026.7204	1111.0996	1179.3444	1206.2893	1221.8189	1421.533	1476.6681	1480.4778	1499.2394	1778.9041	2249.1827	2432.6725	3051.9123	3126.6736	3158.673	3226.5925	9.1621	15.1115	33.1277	46.4308	74.686	84.3269	112.4951	122.2337	185.7697	291.3054	404.5915	521.4972	556.1278	583.2897	751.176	770.5552	950.0809	1026.7201	1111.0985	1179.345	1206.2895	1221.8188	1421.5329	1476.6688	1480.4788	1499.2404	1778.9035	2249.1811	2432.6724	3051.9123	3126.6735	3158.6729	3226.5926
COC1=CC(=O)N=NO1	COC(=O)[CH][C][O].N#N	
InChI=1S/C4H4N2O3/c1-8-4-2-3(7)5-6-9-4/h2H,1H3	InChI=1S/C4H4O3.N2/c1-7-4(6)2-3-5;1-2/h2H,1H3;
