15
gdb 26780	3.67559	1.11582	0.86129	6.3835	81.37	-0.2052	-0.0248	0.1804	1274.2522	0.112826	-416.859114	-416.850364	-416.84942	-416.893136	31.21	
C	-0.0277114507	 1.5739253794	 0.014857245	-0.520442
C	-0.0058622004	 0.0758225333	 0.0413069565	 0.226902
C	-0.0421951767	-0.7701610462	-1.0440762133	 0.288005
N	-0.1639334634	-0.5339132603	-2.3947756373	-0.60158
O	-0.0163754849	-2.0632022606	-0.6713526163	-0.200004
C	 0.0388872637	-2.0759513935	 0.7121776374	 0.24797
C	 0.0506468315	-0.7881965682	 1.1711394731	-0.367573
C	 0.0664361761	-3.3226486163	 1.3556126561	 0.211065
N	 0.0930991929	-4.344909763	 1.9049398807	-0.35229
H	 0.9750056009	 2.0076890465	-0.0893661776	 0.132266
H	-0.6370740501	 1.9486680378	-0.8147283167	 0.1296
H	-0.4567462081	 1.9735855389	 0.937879888	 0.139146
H	 0.2712649063	 0.3197821631	-2.7119219507	 0.266525
H	 0.0808810247	-1.3264075407	-2.9719519938	 0.268673
H	 0.0874810882	-0.4941698102	 2.209022039	 0.131737
46.3068	115.5266	148.0795	202.0258	241.6864	260.2372	308.6817	417.7015	503.3219	524.0104	592.9218	599.484	645.2068	651.4665	717.2267	799.7844	861.2294	970.4328	999.7972	1063.5718	1077.924	1165.3739	1227.0574	1269.393	1340.333	1417.0693	1464.6829	1489.9397	1503.3652	1569.737	1637.8116	1669.5663	2324.9856	3020.233	3074.646	3109.149	3256.5884	3568.0083	3670.398
CC1=C(N)OC(=C1)C#N	Cc1c(N)oc(c1)C#N	
InChI=1S/C6H6N2O/c1-4-2-5(3-7)9-6(4)8/h2H,8H2,1H3	InChI=1S/C6H6N2O/c1-4-2-5(3-7)9-6(4)8/h2H,8H2,1H3
