20
gdb 89046	2.75491	1.11896	0.9592	6.5406	75.02	-0.2394	0.0383	0.2777	1287.2235	0.171833	-440.303514	-440.294506	-440.293562	-440.337835	34.08	
N	 0.6317322603	 0.4739187213	 0.4228081389	-0.514466
H	 1.7116579612	-0.4286373694	 1.5738107742	 0.325189
H	 1.0878234094	 1.2269537391	-0.0843146486	 0.246808
H	 0.3408003595	-0.2185411204	-0.2612671999	 0.253369
C	-0.5001358942	 0.9641112633	 1.1809007224	-0.009218
C	-0.9496938038	 0.102210044	 2.3282344126	-0.30296
C	-0.2159410385	 1.3971405963	 2.6033507482	-0.001062
C	 1.2116422856	 1.4741354944	 3.1541162366	-0.260494
C	 1.6945187753	 0.3095787701	 4.0355798691	-0.316649
C	 2.2724099279	-0.9636643969	 3.4008411236	 0.382691
O	 2.1967028161	-1.1327014495	 2.0738428101	-0.390349
O	 2.7935702869	-1.7997982926	 4.0939589344	-0.33411
H	-1.2612915974	 1.5167561491	 0.6320113791	 0.085852
H	-2.0088271896	 0.0547592646	 2.5538483678	 0.118542
H	-0.4207312256	-0.8332415911	 2.4704371332	 0.137369
H	-0.8583959922	 2.1999544999	 2.9515113936	 0.094509
H	 1.9264406563	 1.6333051969	 2.3382779725	 0.104707
H	 1.2685783692	 2.3811054671	 3.7642311775	 0.108154
H	 2.4913788021	 0.6637668708	 4.6972027888	 0.135494
H	 0.8899956415	-0.0195793869	 4.702712666	 0.136623
42.9465	96.4624	164.2332	207.8713	233.133	285.8461	360.0444	380.4465	463.4233	495.7083	560.2564	597.7362	624.2577	741.1595	791.6712	833.6214	861.599	890.5382	920.3207	935.3803	973.452	982.0965	1055.3554	1076.7194	1079.2001	1129.6485	1136.2748	1173.7583	1221.6893	1246.9781	1254.9398	1258.2583	1296.0368	1349.3831	1364.0499	1379.9241	1399.8069	1423.9402	1452.9734	1487.7343	1497.0365	1652.2975	1836.9669	3036.7128	3050.6161	3072.2643	3090.3558	3103.3369	3143.7554	3151.7572	3230.6153	3275.8608	3490.6382	3565.0522
[NH3+]C1CC1CCC([O-])=O	N[C@H]1C[C@H]1CCC(=O)O	
InChI=1S/C6H11NO2/c7-5-3-4(5)1-2-6(8)9/h4-5H,1-3,7H2,(H,8,9)	InChI=1S/C6H11NO2/c7-5-3-4(5)1-2-6(8)9/h4-5H,1-3,7H2,(H,8,9)/t4-,5+/m1/s1
