22
gdb 22044	2.12423	1.263	0.99495	1.3393	81.31	-0.2444	0.0106	0.255	1327.9723	0.189992	-441.453544	-441.442344	-441.4414	-441.489232	41.602	
C	 0.1665401157	 1.4590366833	-0.2229513461	-0.383
C	 0.0090292284	-0.0401066149	 0.0964765436	-0.268118
C	-1.4185500565	-0.5300525093	 0.0205940663	 0.379359
N	-2.0666142464	-0.7084295107	-1.0650663509	-0.194367
O	-1.3036600191	-0.3837719457	-2.199263376	-0.399559
C	-2.1689059346	-0.8476604324	 1.3137440257	 0.258832
C	-2.4219021715	 0.4508501877	 2.1037184133	-0.421596
C	-3.4846243936	-1.5930534421	 1.0680072282	-0.406208
O	-1.2656636344	-1.6873640239	 2.0509454949	-0.461094
H	 1.2207905398	 1.7467729739	-0.1635484786	 0.112021
H	-0.1941370759	 1.6801327261	-1.2292152655	 0.138815
H	-0.3890869582	 2.0827584843	 0.483870551	 0.113174
H	 0.5960971615	-0.6162326248	-0.6262533967	 0.124229
H	 0.4007192235	-0.264000791	 1.0901377209	 0.119737
H	-1.9104973875	-0.596329697	-2.9158815535	 0.304526
H	-3.0656025814	 1.1352543199	 1.5433324758	 0.12624
H	-2.9217184014	 0.2192800491	 3.051957341	 0.10467
H	-1.4824155805	 0.9595975675	 2.3330521819	 0.128048
H	-3.298401988	-2.528813182	 0.5383830897	 0.129059
H	-3.9573877243	-1.8203898518	 2.0308284946	 0.08944
H	-4.1802317055	-0.9959149216	 0.4754427966	 0.12787
H	-1.6720153001	-1.8651906346	 2.9058097238	 0.277924
49.6285	115.9683	174.7161	203.1908	220.3158	228.8262	237.5402	257.6252	275.7956	314.0103	345.1686	356.0568	374.6273	418.9717	461.1066	498.8573	582.9284	666.3965	756.5089	806.1982	843.2703	921.8898	953.6106	974.0937	983.762	1009.4584	1068.7129	1089.4957	1136.1778	1186.6624	1188.5788	1228.6098	1291.5386	1351.2089	1369.9781	1392.3539	1403.4425	1408.7277	1419.3947	1475.5596	1476.2575	1485.9806	1495.7273	1499.1092	1508.4373	1514.957	1727.6329	3028.0913	3036.8476	3044.3787	3056.5323	3097.6822	3106.639	3115.7735	3116.1211	3126.4323	3141.2682	3146.2909	3809.447	3822.4359
CCC(=NO)C(C)(C)O	CCC(=NO)C(C)(C)O	
InChI=1S/C6H13NO2/c1-4-5(7-9)6(2,3)8/h8-9H,4H2,1-3H3	InChI=1S/C6H13NO2/c1-4-5(7-9)6(2,3)8/h8-9H,4H2,1-3H3
