17
gdb 76849	2.61231	1.56774	1.30712	3.1385	68.	-0.2397	-0.0204	0.2193	1007.5865	0.135139	-458.944774	-458.936619	-458.935675	-458.977896	31.136	
O	 0.4774795291	 0.934339861	-0.711312586	-0.433996
C	 0.0407694958	-0.274672125	-0.1578090274	 0.116927
C	 0.2330321048	-0.3894516647	 1.3960146163	 0.043387
O	 0.6178320602	 0.8342170584	 2.0007775779	-0.415404
C	-1.2770355441	-0.7088396151	 1.5696623321	-0.192044
C	-1.4901902856	-0.5070563446	 0.0131195429	-0.069063
C	-2.3047716092	 0.7874560209	 0.2739764065	-0.36894
C	-2.1567417494	 0.5362416307	 1.7856490722	 0.427689
O	-2.6455969505	 1.0293372367	 2.7577901396	-0.296144
H	 0.5897857897	 1.5370064552	 0.0389544082	 0.286225
H	 0.5165871995	-1.0966448885	-0.7027519308	 0.082642
H	 0.888510414	-1.2070897977	 1.7108838534	 0.084752
H	 1.5653203323	 0.8164015278	 2.1659379372	 0.300391
H	-1.5313582042	-1.5982524078	 2.1467004509	 0.08923
H	-1.9568501203	-1.2601704895	-0.6191823461	 0.076525
H	-1.8477410328	 1.7065352039	-0.1034141081	 0.135511
H	-3.3476255494	 0.7582748781	-0.0553535286	 0.132313
47.7807	120.5311	199.9805	243.4991	275.132	398.6782	418.6186	504.8758	537.9794	539.8486	576.4789	656.3792	729.6528	764.3749	811.2387	855.9211	900.8016	943.8899	997.0234	1024.2499	1049.4744	1080.4479	1112.0602	1116.9452	1155.0544	1168.205	1197.3193	1208.7599	1233.6673	1274.1142	1286.4356	1296.2348	1346.086	1415.7423	1433.8317	1437.5686	1892.3595	3043.8084	3058.6627	3060.7167	3110.4712	3114.3852	3130.9909	3714.7511	3834.0195
OC1C(O)C2C1CC2=O	O[C@H]1[C@@H](O)[C@@H]2[C@H]1CC2=O	
InChI=1S/C6H8O3/c7-3-1-2-4(3)6(9)5(2)8/h2,4-6,8-9H,1H2	InChI=1S/C6H8O3/c7-3-1-2-4(3)6(9)5(2)8/h2,4-6,8-9H,1H2/t2-,4-,5-,6+/m1/s1
