18
gdb 102524	2.38172	1.21172	0.96586	3.1146	68.78	-0.2719	0.0083	0.2802	1256.7339	0.145895	-476.208286	-476.198323	-476.197379	-476.243477	35.224	
C	 0.125750669	 1.2285752463	-0.4445220349	-0.247374
O	-0.0169770815	-0.051481311	 0.1453696725	-0.262107
C	-1.3106144948	-0.6179471747	 0.0937776085	 0.08264
C	-1.9020513467	-0.7107472683	-1.3259672183	-0.098163
O	-1.0153760251	-1.2495167075	-2.2783068035	-0.420641
C	-1.1134488465	-2.0192837289	 0.7102423672	-0.049274
O	-0.1047372139	-2.732044183	 0.0114889908	-0.418139
C	-0.8005513989	-1.9249878758	 2.1520202113	 0.287407
N	-0.5679138993	-1.856171232	 3.2812227459	-0.314195
H	 1.1243615303	 1.5822735254	-0.1799933072	 0.138979
H	 0.0391563902	 1.179813228	-1.5359380635	 0.139783
H	-0.615358899	 1.9367583849	-0.0479018598	 0.115097
H	-2.0160892612	-0.0470344912	 0.7207503835	 0.093138
H	-2.8465383298	-1.2777622754	-1.2579801938	 0.094706
H	-2.1656705911	 0.2921770418	-1.6762116023	 0.11596
H	-0.6663110918	-2.0708231351	-1.9079253639	 0.291624
H	-2.0361874326	-2.598278234	 0.604728039	 0.141783
H	 0.6551808129	-2.1315230195	-0.0190703515	 0.308775
68.7604	88.4588	127.9138	154.1847	196.3811	225.286	272.7155	274.7703	336.2344	363.0049	412.0917	446.525	587.3537	631.1331	646.8441	748.2171	843.1184	884.0446	976.1102	992.5319	1042.4437	1088.719	1121.3623	1157.8458	1180.8095	1206.7091	1231.0705	1286.8877	1302.099	1346.2753	1366.5804	1397.7223	1431.5962	1456.9863	1480.7451	1488.7845	1504.5789	1520.9356	2361.1709	2960.0986	2974.3852	3002.2281	3072.8201	3077.6707	3078.7211	3127.9331	3738.8641	3758.6618
COC(CO)C(O)C#N	CO[C@@H](CO)[C@@H](O)C#N	
InChI=1S/C5H9NO3/c1-9-5(3-7)4(8)2-6/h4-5,7-8H,3H2,1H3	InChI=1S/C5H9NO3/c1-9-5(3-7)4(8)2-6/h4-5,7-8H,3H2,1H3/t4-,5-/m0/s1
