16
gdb 44760	2.72178	1.68732	1.24227	3.552	75.82	-0.234	-0.0158	0.2182	1006.6487	0.124519	-400.69902	-400.691547	-400.690603	-400.730829	29.619	
O	-0.0071267293	 0.0553369743	-0.0619378319	-0.31239
C	-0.0097993809	 1.2487575298	-0.0097564915	 0.443551
C	-1.1897511213	 2.2388814319	 0.0471577063	-0.317535
C	-0.35176884	 3.5258949821	 0.0390348361	-0.021223
C	 0.6951446016	 3.2698418891	-1.0719281036	-0.274228
C	 1.1935352932	 2.2299604884	-0.01027613	 0.107289
N	 0.6779608203	 3.1660962487	 1.0916868148	-0.356923
C	 2.5269015196	 1.7120033465	 0.0433386897	 0.045831
C	 3.6491736053	 1.283080922	 0.0780441517	-0.317055
H	-1.8529466906	 2.1212816334	-0.8138844622	 0.128181
H	-1.7636480668	 2.1102779204	 0.9674148055	 0.142646
H	-0.8714802317	 4.4759942149	 0.1476654187	 0.087569
H	 0.3717444792	 2.909988831	-2.054425573	 0.111722
H	 1.412597269	 4.086445406	-1.1781661407	 0.117782
H	 1.3522428925	 3.9321446797	 1.1428815943	 0.225407
H	 4.6361678997	 0.8924386218	 0.1140367158	 0.189375
124.7529	128.3784	184.3809	380.3941	400.2811	473.332	489.956	506.67	604.8538	617.5242	628.7241	633.6037	669.3631	767.809	828.707	878.9499	895.1736	913.6573	966.762	976.6982	1009.5908	1031.137	1086.5724	1123.2385	1162.3939	1199.2126	1231.5599	1254.2822	1291.1524	1308.8946	1365.2037	1449.1073	1496.8103	1892.4894	2242.0522	3044.7635	3073.6779	3119.6732	3128.6991	3136.1749	3439.4201	3501.3508
O=C1CC2CC1(N2)C#C	O=C1C[C@@H]2C[C@]1(N2)C#C	
InChI=1S/C7H7NO/c1-2-7-4-5(8-7)3-6(7)9/h1,5,8H,3-4H2	InChI=1S/C7H7NO/c1-2-7-4-5(8-7)3-6(7)9/h1,5,8H,3-4H2/t5-,7-/m1/s1
