15
gdb 12341	2.9302	2.30466	1.62829	2.1837	61.32	-0.2766	-0.0273	0.2493	810.8248	0.119827	-399.847998	-399.840856	-399.839911	-399.879466	26.171	
C	-0.0962172592	 1.5062532868	 0.0722225575	-0.403818
C	 0.0221544651	-0.0282810172	-0.032843076	-0.143566
C	 0.8412392712	-0.4689615045	-1.2587114765	-0.182159
N	 2.2733021134	-0.2385559054	-1.1031634281	-0.233569
C	 2.7294814054	-0.2861540518	 0.0672863824	 0.133859
O	 2.0457270186	-0.5516551367	 1.2367674616	-0.217298
C	 0.6598552502	-0.5698409283	 1.2306985538	 0.432502
O	 0.0892170183	-0.9519641516	 2.2068914206	-0.305382
H	 0.8866206805	 1.984999857	 0.1053731481	 0.139375
H	-0.6295058717	 1.8932275821	-0.8010924316	 0.129037
H	-0.6506154034	 1.7926955221	 0.9694416227	 0.141866
H	-0.9827058907	-0.456455847	-0.0759647809	 0.114847
H	 0.6894529429	-1.5380862446	-1.4604364723	 0.128754
H	 0.4965701913	 0.067338534	-2.1486080765	 0.122057
H	 3.7836071479	-0.1419135849	 0.2873389552	 0.143494
98.4162	157.3233	212.1137	238.3896	320.0586	440.2953	483.3083	536.0732	614.7312	736.2056	751.5386	865.4032	879.5395	949.2201	953.7305	976.0061	1013.5107	1088.2225	1110.0299	1123.8876	1189.2432	1256.9904	1307.8074	1338.0038	1379.2968	1404.4694	1412.7091	1484.5115	1497.1508	1501.1528	1747.0852	1882.1318	3020.5483	3045.0702	3071.5898	3080.8037	3117.9433	3127.4954	3185.7474
CC1CN=COC1=O	C[C@H]1CN=COC1=O	
InChI=1S/C5H7NO2/c1-4-2-6-3-8-5(4)7/h3-4H,2H2,1H3	InChI=1S/C5H7NO2/c1-4-2-6-3-8-5(4)7/h3-4H,2H2,1H3/t4-/m0/s1
