21
gdb 52260	5.4857	0.65527	0.60923	2.7731	85.01	-0.2426	-0.0189	0.2237	1798.3108	0.182096	-387.115493	-387.106217	-387.105273	-387.151068	33.516	
O	-0.7133657904	 0.8830713373	 0.8279058426	-0.238645
C	 0.0048483201	 1.0426705845	-0.1250719198	 0.16071
C	 1.306239924	 1.8093188978	-0.11763143	-0.276646
C	 1.3042635763	 2.9505468708	-1.1516353434	-0.218807
C	 2.6360742926	 3.7017914078	-1.2349331156	 0.044065
C	 3.8460714982	 2.8510177758	-1.7161515599	-0.259938
C	 4.6707247047	 3.835554323	-2.5108846919	-0.064117
C	 4.0002633188	 4.956896762	-2.767846482	-0.059972
C	 2.6048691321	 4.9257243156	-2.1930060308	-0.279002
H	-0.2669495953	 0.6184355701	-1.1216128222	 0.067731
H	 1.4856297181	 2.1844041856	 0.8945287153	 0.120125
H	 2.1072290993	 1.0979854695	-0.3653386815	 0.120865
H	 1.0557969485	 2.5459154648	-2.1428607668	 0.100054
H	 0.5040454319	 3.6577393103	-0.8989923795	 0.109802
H	 2.8797643944	 4.0778039251	-0.2332923132	 0.079853
H	 4.4005760331	 2.4015655036	-0.8846086181	 0.104121
H	 3.5233591296	 2.0143638798	-2.3558088126	 0.09956
H	 5.6758486307	 3.6128668545	-2.8519213641	 0.091639
H	 4.3737599102	 5.7911144409	-3.3515914221	 0.092144
H	 1.8601839757	 4.7915691627	-2.9925992564	 0.102228
H	 2.3292095773	 5.8504799086	-1.6732184381	 0.104229
50.9538	54.7589	94.5812	124.1178	153.0741	288.3453	346.7964	395.7475	426.8318	524.9418	613.5896	716.3095	767.1221	778.6381	822.1569	861.9857	920.9983	949.0354	974.3008	976.5633	982.991	1009.8251	1041.0311	1071.8575	1112.9839	1120.2164	1134.7014	1155.1615	1180.6121	1239.9738	1264.8696	1291.4134	1310.3104	1314.8233	1335.4952	1356.5063	1380.3657	1388.3476	1430.7863	1463.8642	1484.5062	1488.474	1497.614	1689.8604	1836.534	2843.7745	2983.7334	2992.3743	3007.3874	3015.0491	3022.2278	3049.4882	3050.8679	3059.1334	3095.9299	3180.6583	3206.1852
O=CCCC1CC=CC1	O=CCC[C@H]1CC=CC1	
InChI=1S/C8H12O/c9-7-3-6-8-4-1-2-5-8/h1-2,7-8H,3-6H2	InChI=1S/C8H12O/c9-7-3-6-8-4-1-2-5-8/h1-2,7-8H,3-6H2
