21
gdb 73483	2.41486	2.21302	1.57628	1.3122	80.67	-0.2305	0.0941	0.3246	944.9055	0.185791	-387.092918	-387.085905	-387.084961	-387.123714	30.043	
C	 0.0720967084	 1.4951599226	-0.0671024601	-0.481212
C	-0.0159421686	-0.0122861344	-0.0158550915	 0.485754
O	 0.6517515311	-0.5499183694	-1.1557338426	-0.327371
C	 0.005173913	-1.790725645	-1.4704700818	-0.087522
C	-0.747472099	-2.1228450724	-0.1829801774	-0.055086
C	 0.3321284856	-2.1956889071	 0.9475268873	-0.218317
C	 0.2908816635	-0.7162882667	 1.371328475	-0.087343
C	-1.222725013	-0.5523684205	 1.6864950116	-0.256553
C	-1.3800298141	-0.7398553669	 0.1627822806	-0.088271
H	 1.122271318	 1.8027019975	-0.0974930403	 0.127505
H	-0.4148012703	 1.8768102531	-0.9695316109	 0.120864
H	-0.3914465592	 1.961594379	 0.8056751376	 0.116822
H	-0.6657412171	-1.6618046678	-2.3338983958	 0.085493
H	 0.7664902598	-2.5346057231	-1.7302418195	 0.100527
H	-1.4263966584	-2.9734978086	-0.2514968348	 0.064717
H	 0.051556055	-2.8607319816	 1.769277567	 0.09177
H	 1.3051342474	-2.5138357615	 0.5637347356	 0.099948
H	 1.0653134824	-0.3537752363	 2.0486910944	 0.056871
H	-1.6765135457	-1.2965461504	 2.3462878921	 0.091665
H	-1.5011868971	 0.4491448747	 2.0188684351	 0.099556
H	-2.2756849316	-0.4484090154	-0.3876496916	 0.060184
202.1184	232.4808	260.8944	337.2016	400.1566	429.4876	469.2664	568.7103	627.3741	687.8722	751.7254	817.9279	842.9791	851.1828	867.3592	895.201	943.5723	954.0196	970.3687	978.3963	990.6988	1018.1305	1037.4764	1075.1699	1084.3301	1114.2744	1135.3909	1165.5047	1174.1265	1198.2034	1209.6751	1231.2024	1247.0583	1258.2547	1280.9437	1312.7274	1316.1034	1339.645	1380.813	1415.5571	1481.0575	1490.6012	1500.6187	1514.5123	1524.4386	2981.7826	3041.9302	3052.5352	3059.9991	3062.7412	3097.5086	3101.4092	3105.8284	3106.865	3112.1794	3118.6384	3126.5226
CC12OCC3CC1CC23	C[C@@]12OC[C@H]3C[C@@H]1C[C@@H]23	
InChI=1S/C8H12O/c1-8-6-2-5(4-9-8)7(8)3-6/h5-7H,2-4H2,1H3	InChI=1S/C8H12O/c1-8-6-2-5(4-9-8)7(8)3-6/h5-7H,2-4H2,1H3/t5-,6-,7-,8-/m1/s1
