16
gdb 55579	4.98755	0.80314	0.69475	7.2722	70.99	-0.2531	-0.0319	0.2211	1549.5786	0.123006	-471.268844	-471.25907	-471.258126	-471.305581	33.208	
C	-0.1355658178	 1.5396203483	-0.1691393019	-0.471368
C	 0.1922925448	 0.0770704705	-0.0019263082	 0.386278
N	 1.389183389	-0.328890591	 0.0611030581	-0.482354
N	-0.9780811367	-0.7256624977	 0.0695739287	-0.440162
C	-1.0107079084	-2.1027310844	 0.2218481518	 0.557071
O	-0.0351455392	-2.8051174588	 0.314480667	-0.339472
N	-2.3324391339	-2.5939349702	 0.2564413424	-0.401275
C	-2.7288048885	-3.9228502244	 0.397818491	 0.17054
O	-2.0175901116	-4.8789876553	 0.5147598298	-0.244663
H	 0.7953255486	 2.1022618563	-0.2176331559	 0.163813
H	-0.7079596545	 1.7146553037	-1.0879185242	 0.131612
H	-0.7343121224	 1.9099006413	 0.6715869714	 0.131621
H	 1.425602946	-1.3425156714	 0.1741373373	 0.255924
H	-1.8521798685	-0.2289233917	 0.0012313571	 0.244978
H	-3.0906799314	-1.933456008	 0.1715249654	 0.250111
H	-3.8367752056	-3.9804985172	 0.3873098801	 0.087347
14.3872	72.5257	103.6966	139.9542	161.981	219.4976	253.3979	338.4414	398.5276	399.7791	503.1943	545.1797	569.3	629.9131	766.9093	857.239	906.9856	967.8599	974.3164	1025.2364	1026.0915	1082.4604	1116.9394	1162.294	1198.3951	1346.1963	1408.3672	1449.7366	1471.3192	1485.5736	1505.8947	1522.9369	1748.4487	1811.8101	1878.9833	2921.9155	3030.4056	3084.4669	3169.0549	3488.3448	3608.5688	3627.0345
CC(=N)NC(=O)NC=O	CC(=N)NC(=O)NC=O	
InChI=1S/C4H7N3O2/c1-3(5)7-4(9)6-2-8/h2H,1H3,(H3,5,6,7,8,9)	InChI=1S/C4H7N3O2/c1-3(5)7-4(9)6-2-8/h2H,1H3,(H3,5,6,7,8,9)
