17
gdb 87343	1.84603	1.3866	0.92474	3.0135	75.88	-0.2398	-0.0198	0.22	1274.4349	0.131719	-421.778106	-421.768303	-421.767359	-421.81377	35.066	
O	-0.2293363967	 1.403062712	 0.0118143377	-0.41583
C	-0.107944961	 0.0163079027	 0.0651269634	 0.060757
C	-0.6676439907	-0.7457978531	 1.228909002	-0.361047
C	-1.3840028823	-0.7925768007	-0.1272354163	 0.096884
C	-2.7067378812	-0.0362759598	-0.2579928897	-0.357482
C	-3.8366476897	-0.7630480702	 0.4428512775	 0.164799
O	-4.5781002132	-0.2525809168	 1.2430124195	-0.243569
C	-1.2797750473	-2.0050166143	-0.893918157	 0.275957
C	-1.2046345468	-3.0143481	-1.5446630724	-0.444363
H	 0.3046162367	 1.7792157734	 0.719440752	 0.295894
H	 0.7774888062	-0.3876534758	-0.4231405386	 0.109476
H	-0.1570378746	-1.6390362786	 1.5680972491	 0.131264
H	-1.1653374817	-0.1696095914	 2.0022857542	 0.133531
H	-2.6159158143	 0.9702173367	 0.1517057783	 0.138329
H	-2.9619010798	 0.0478460018	-1.3227186051	 0.130405
H	-3.9393408935	-1.8360576616	 0.1658858834	 0.087696
H	-1.13573929	-3.9056509844	-2.117690888	 0.197299
37.1123	62.9595	140.6201	154.7169	173.5715	237.9733	281.163	329.4914	420.8773	462.1286	490.1065	538.7153	575.7393	597.6869	653.0152	679.4406	809.8326	829.098	903.1109	933.9205	977.7221	1040.1657	1052.5195	1077.2965	1106.5945	1162.8917	1206.9521	1258.0423	1296.0787	1311.5804	1314.6299	1416.2266	1426.0966	1461.6388	1477.2537	1832.163	2232.441	2887.1861	3031.5193	3118.1798	3135.9543	3138.4186	3233.8046	3502.4258	3808.7376
OC1CC1(CC=O)C#C	O[C@H]1C[C@]1(CC=O)C#C	
InChI=1S/C7H8O2/c1-2-7(3-4-8)5-6(7)9/h1,4,6,9H,3,5H2	InChI=1S/C7H8O2/c1-2-7(3-4-8)5-6(7)9/h1,4,6,9H,3,5H2/t6-,7+/m0/s1
