27
gdb 118751	2.89903	0.82916	0.74917	0.1119	96.68	-0.2723	0.0811	0.3534	1733.8155	0.250688	-353.566252	-353.555278	-353.554333	-353.602288	41.6	
C	-0.1047259371	 1.6156636487	 0.1655888646	-0.37693
C	-0.0160430637	 0.0880680513	 0.0979453364	-0.172772
C	-1.3799462614	-0.5765045185	-0.1319525848	-0.237829
C	-1.3789080562	-2.1089296277	-0.0921728444	 0.36094
C	-0.5167058835	-2.7162042519	-1.2037418191	-0.44681
C	-1.0874027746	-2.7615733926	 1.2996353017	-0.268599
C	-2.3053824533	-3.7060964604	 1.0998852489	 0.058762
C	-3.2315835664	-3.9581411055	 2.2801883222	-0.406918
C	-2.794012375	-2.7713003495	-0.0417865036	-0.284733
H	 0.8788890866	 2.0673706418	 0.3291299323	 0.108644
H	-0.5106464895	 2.030658875	-0.7639854711	 0.112463
H	-0.7597974668	 1.9390048335	 0.9824441408	 0.111882
H	 0.6785338178	-0.1969012696	-0.7010873017	 0.097218
H	 0.419937745	-0.2936005938	 1.0306756634	 0.097369
H	-2.0797359027	-0.2110246274	 0.6324721481	 0.081892
H	-1.7878550964	-0.2429942373	-1.0977532925	 0.08584
H	 0.5388233278	-2.44773381	-1.0918150282	 0.1134
H	-0.5758501267	-3.8098054767	-1.199685341	 0.10966
H	-0.8491907411	-2.3708383315	-2.1899853513	 0.107947
H	-0.1064603911	-3.2249091578	 1.4410572723	 0.087969
H	-1.2568578372	-2.0569123383	 2.1215638225	 0.087454
H	-1.974676453	-4.665339819	 0.6874485186	 0.068341
H	-3.5809988479	-3.0135988152	 2.7134909956	 0.107959
H	-4.1154257471	-4.5325638966	 1.9795809381	 0.111373
H	-2.7245244	-4.5198228618	 3.0732008327	 0.111162
H	-3.5574973307	-2.0700728841	 0.3123337551	 0.086988
H	-3.1565994458	-3.2405567152	-0.9614156356	 0.087326
59.5379	80.2963	100.4223	162.9062	235.8727	239.556	247.3263	277.2341	303.7318	330.7532	337.3547	371.8705	433.4351	449.9257	624.8206	741.8694	745.4213	831.2791	862.5613	868.2022	896.4354	902.7861	924.2486	942.0587	960.5249	979.7297	1031.5375	1054.5258	1069.2501	1101.16	1111.1487	1135.4874	1184.7366	1214.2927	1225.0217	1235.9692	1257.3172	1287.7433	1300.3537	1308.5307	1320.5063	1344.1173	1372.8098	1393.3044	1408.6685	1410.4266	1414.0246	1472.5734	1477.0803	1491.71	1493.9135	1496.2081	1497.8196	1498.2386	1499.3109	1503.9084	1510.9843	2993.1992	3019.3121	3020.0261	3022.8888	3025.494	3027.1562	3032.3358	3037.6439	3040.0303	3057.7706	3084.5275	3085.7153	3086.9505	3088.3285	3093.0738	3095.2996	3097.5099	3099.1649
CCCC1(C)CC(C)C1	CCC[C@@]1(C)C[C@@H](C)C1	
InChI=1S/C9H18/c1-4-5-9(3)6-8(2)7-9/h8H,4-7H2,1-3H3	InChI=1S/C9H18/c1-4-5-9(3)6-8(2)7-9/h8H,4-7H2,1-3H3/t8-,9+
