17
gdb 114650	2.9334	1.44396	1.23349	2.9771	69.1	-0.2326	-0.0173	0.2152	1062.0831	0.13557	-458.940996	-458.933121	-458.932177	-458.973671	29.542	
C	 0.1316658947	 1.2831055303	 0.0870528172	-0.248369
O	-0.0218240264	-0.1204271951	-0.0582539277	-0.236155
C	 0.6068287271	-0.6431784899	-1.1774838162	 0.248309
O	 2.0555798621	-0.5756648541	-1.0764713681	-0.300277
C	 2.4324564291	-1.9573726946	-0.9757909043	-0.02466
C	 1.5954108144	-2.6057217094	-2.1159452747	-0.258565
C	 0.3857001985	-2.1585406934	-1.2245745549	-0.231809
C	 1.3346353754	-2.5510946841	-0.0558881448	 0.446707
O	 1.2675515232	-3.1994985203	 0.9392676286	-0.307547
H	 1.1829076333	 1.5538450235	 0.2352098447	 0.134654
H	-0.254708658	 1.8175826868	-0.7933370059	 0.109299
H	-0.4476926479	 1.5751848414	 0.9645710358	 0.134892
H	 0.3108828423	-0.0927726375	-2.0828447178	 0.075831
H	 3.5047548447	-2.0654960256	-0.8388864986	 0.10376
H	 1.6936990156	-2.1196574762	-3.0882152013	 0.122026
H	 1.6952474255	-3.6897479349	-2.1937645343	 0.127607
H	-0.6309353338	-2.524362977	-1.3331906879	 0.104297
92.8338	128.0641	161.8974	202.8116	265.8449	423.1546	436.8801	459.9875	548.9909	630.0211	677.2015	807.2555	822.8271	838.495	900.6461	945.1825	949.6037	995.78	1015.9737	1026.2735	1072.7287	1083.9352	1123.5823	1142.1296	1178.8762	1205.8418	1222.0578	1230.6158	1248.4772	1278.1397	1348.7292	1396.6029	1477.9909	1480.4501	1484.9545	1510.9722	1919.8972	2992.5216	2999.8022	3074.0246	3077.8814	3135.3078	3148.423	3170.1746	3174.6672
COC1OC2CC1C2=O	CO[C@H]1O[C@@H]2C[C@H]1C2=O	
InChI=1S/C6H8O3/c1-8-6-3-2-4(9-6)5(3)7/h3-4,6H,2H2,1H3	InChI=1S/C6H8O3/c1-8-6-3-2-4(9-6)5(3)7/h3-4,6H,2H2,1H3/t3-,4+,6-/m0/s1
