13
gdb 17227	5.5665	1.70148	1.55417	3.7185	62.85	-0.2579	0.0098	0.2677	792.2817	0.096541	-361.404611	-361.39869	-361.397746	-361.434618	23.015	
N	 0.1081206553	-1.1013238939	-0.0863638604	-0.347787
C	 0.0308712504	 0.0530765744	-0.0303066171	 0.168059
C	-0.0569166702	 1.4685980845	 0.0414481384	 0.170658
C	-1.137488038	 2.3432419965	 0.6864172476	-0.285144
C	-0.4298959738	 3.5163575869	-0.0345516434	 0.055197
O	 0.8592539268	 3.6051548472	 0.6438883516	-0.282704
C	 1.2012303373	 2.4032660039	-0.0159433933	 0.070945
C	 0.1750749943	 2.5017580848	-1.0773049997	-0.179947
H	-2.1196259344	 2.1326453537	 0.2584595759	 0.127835
H	-1.1851701571	 2.3983828191	 1.7767650842	 0.125061
H	-0.8974627002	 4.4793784667	-0.2186299594	 0.108973
H	 2.2171910876	 2.0339693512	 0.008830105	 0.139973
H	 0.1749226319	 2.3996460347	-2.1529171593	 0.12888
157.822	167.6177	421.9191	480.963	528.2775	542.447	582.7163	713.0867	776.6632	801.3257	849.4023	904.0574	919.8638	961.2259	982.3664	1006.0281	1038.8112	1051.7064	1124.8307	1150.3263	1166.5729	1198.9999	1242.9578	1276.7712	1293.4659	1382.5483	1486.6941	2341.4868	3068.9565	3135.6706	3169.167	3219.2134	3232.5184
N#CC12CC3OC1C23	N#C[C@@]12C[C@H]3O[C@@H]1[C@@H]23	
InChI=1S/C6H5NO/c7-2-6-1-3-4(6)5(6)8-3/h3-5H,1H2	InChI=1S/C6H5NO/c7-2-6-1-3-4(6)5(6)8-3/h3-5H,1H2/t3-,4+,5-,6-/m1/s1
