19
gdb 84895	2.79703	1.40493	1.06517	1.3712	83.19	-0.2473	0.0168	0.2641	1164.0949	0.15849	-385.85886	-385.850139	-385.849195	-385.891897	33.556	
C	-0.0294222785	 1.6130832207	-0.0990515049	-0.392289
C	 0.0123116806	 0.0780470609	-0.0248113427	-0.034338
C	 0.685264472	-0.516722708	-1.2392362297	-0.076921
C	 1.9179310687	-1.0156410279	-1.1938075653	-0.070025
C	 2.7345124123	-1.0023241806	 0.0677077703	-0.118614
O	 2.1602753067	-0.2122400535	 1.0940433699	-0.259954
C	 0.7591513785	-0.4471484947	 1.2268348813	-0.089228
C	 0.3017802094	 0.1549629367	 2.4751949344	 0.303459
C	-0.1118389979	 0.6321052488	 3.4971097639	-0.410571
H	 0.9854926213	 2.0173758686	-0.0548651559	 0.131768
H	-0.4867022263	 1.9400870985	-1.0380050985	 0.108623
H	-0.6063147474	 2.0309396851	 0.7300581616	 0.126477
H	-1.0181464351	-0.2981920992	 0.0289779578	 0.085074
H	 0.1237981232	-0.5126068374	-2.1701165512	 0.090297
H	 2.3826997145	-1.4597674038	-2.0701538982	 0.092919
H	 2.8976903002	-2.0369735638	 0.4233737659	 0.099578
H	 3.7264208467	-0.5740276107	-0.1185951048	 0.121517
H	 0.5824691613	-1.5348580505	 1.2868573787	 0.096924
H	-0.4657494803	 1.0548483806	 4.4048393073	 0.195303
100.3552	142.289	163.3341	225.4598	253.9205	279.8354	340.5829	435.4041	479.8044	492.9043	540.6037	619.3838	643.4521	670.6163	725.0722	799.7446	824.7575	906.5985	920.0132	975.7718	995.5491	1020.767	1055.4355	1075.7113	1103.5015	1117.7334	1125.667	1207.1633	1259.1285	1298.491	1330.9544	1348.0706	1372.232	1393.0275	1402.3981	1413.3318	1486.0179	1491.3305	1503.2738	1723.92	2242.6778	2932.0012	2951.7379	3017.7922	3042.7207	3052.8397	3112.8718	3127.0617	3149.2612	3172.9637	3503.47
CC1C=CCOC1C#C	C[C@H]1C=CCO[C@H]1C#C	
InChI=1S/C8H10O/c1-3-8-7(2)5-4-6-9-8/h1,4-5,7-8H,6H2,2H3	InChI=1S/C8H10O/c1-3-8-7(2)5-4-6-9-8/h1,4-5,7-8H,6H2,2H3/t7-,8-/m0/s1
