15
gdb 68103	3.22755	1.30185	1.08509	5.6185	73.18	-0.2712	-0.026	0.2452	1107.6122	0.111726	-416.765787	-416.757649	-416.756705	-416.798464	30.021	
C	 0.0538004132	 1.4913348023	 0.0654428728	-0.517663
C	-0.0178135039	 0.0016881809	-0.0329333498	 0.162567
C	 0.5431580034	-0.9654472408	-1.1346516857	-0.303777
C	 0.0069747739	-1.9043328977	-0.0090611428	 0.079055
N	 0.5520598604	-0.9406097792	 1.0443728963	-0.36351
C	 0.1145343033	-3.329469026	 0.0952206222	 0.172753
N	 0.1847305301	-4.4818435334	 0.1607044653	-0.338973
C	-1.2346266211	-0.9465707322	 0.0019667573	 0.475685
O	-2.4153149282	-0.9619994404	-0.0091629316	-0.290427
H	 1.0879105851	 1.8452752723	 0.0087479759	 0.135027
H	-0.5097252032	 1.9526600944	-0.7510900695	 0.146537
H	-0.3757517228	 1.8271865621	 1.0132496442	 0.155683
H	 0.0684955469	-0.9974767379	-2.119542734	 0.133372
H	 1.6345456115	-0.9590505364	-1.2016666187	 0.127185
H	 1.5739405015	-0.9349591177	 0.945218638	 0.226486
125.2042	141.3935	167.5752	200.8648	211.4913	316.2149	396.9713	520.0898	535.1029	545.7465	583.5521	670.3645	745.7643	766.0439	796.1629	821.1788	922.4565	942.8511	1023.1963	1065.7346	1093.6976	1122.1737	1137.8376	1217.8479	1257.7462	1293.7242	1380.3622	1424.5844	1481.4109	1487.6805	1500.1659	1958.4858	2353.4456	3043.4224	3050.0856	3113.0629	3124.1541	3127.1312	3377.1886
CC12CC(N1)(C#N)C2=O	C[C@@]12C[C@](N1)(C#N)C2=O	
InChI=1S/C6H6N2O/c1-5-2-6(3-7,8-5)4(5)9/h8H,2H2,1H3	InChI=1S/C6H6N2O/c1-5-2-6(3-7,8-5)4(5)9/h8H,2H2,1H3/t5-,6-/m0/s1
