20
gdb 64204	2.48354	1.4254	1.33186	1.3347	74.3	-0.231	0.0662	0.2972	1088.1182	0.170052	-440.238256	-440.229355	-440.228411	-440.271553	34.211	
C	-0.1504297792	 1.5217319341	 0.0260011129	-0.457477
C	-0.0200541302	 0.0066945617	-0.0284264107	 0.337429
O	-1.2405313411	-0.6150928842	-0.3618441272	-0.464759
C	 1.1428289857	-0.5003648704	-0.9127025743	-0.208108
N	 1.9712058649	-0.6304114495	 0.3094762919	-0.362117
C	 0.786427366	-0.6155783651	 1.1693617327	 0.230985
C	 0.8193482144	-0.0456660883	 2.5976201759	-0.138927
O	 0.1007980723	-1.1869667437	 3.1107321516	-0.276991
C	 0.2197946097	-1.8811942317	 1.8517302374	-0.135672
H	 0.8143670398	 1.9865220191	 0.2470818488	 0.138605
H	-0.5115038069	 1.9011117915	-0.9349949847	 0.125575
H	-0.8587316474	 1.8313089781	 0.8046822488	 0.112166
H	-1.9463175138	-0.1915536285	 0.1390551837	 0.281798
H	 0.8718433509	-1.4478946631	-1.3944560728	 0.106035
H	 1.543640108	 0.1880473126	-1.6642171564	 0.0995
H	 2.5505109285	-1.4611197085	 0.3710203867	 0.217969
H	 1.8352049959	 0.0305213386	 3.0099345958	 0.099073
H	 0.2875363061	 0.8958175076	 2.7828527598	 0.096754
H	-0.7423395719	-2.2479258308	 1.4795913209	 0.111838
H	 0.9355786582	-2.7154875495	 1.9064988692	 0.086326
88.9561	104.5566	210.4499	266.2404	269.7923	291.1912	303.4397	337.1741	401.5674	454.1763	506.2167	533.9406	653.5249	699.5315	848.2909	891.7446	912.6266	938.4735	949.3276	979.895	996.9025	1021.3935	1028.2458	1048.3441	1125.7073	1141.3137	1149.2358	1161.7982	1168.5498	1211.7172	1233.6906	1261.0842	1295.4383	1319.0236	1361.9032	1376.8798	1400.9047	1405.0586	1489.149	1493.5718	1501.1995	1517.9159	1528.7318	2984.0925	3003.3194	3020.048	3024.6031	3049.3606	3071.5363	3074.2827	3092.9621	3120.8814	3521.6848	3802.7619
CC1(O)CNC11COC1	C[C@@]1(O)CNC21COC2	
InChI=1S/C6H11NO2/c1-5(8)2-7-6(5)3-9-4-6/h7-8H,2-4H2,1H3	InChI=1S/C6H11NO2/c1-5(8)2-7-6(5)3-9-4-6/h7-8H,2-4H2,1H3/t5-/m1/s1
