18
gdb 63728	3.24264	1.18638	1.04419	2.6363	75.45	-0.247	-0.0286	0.2184	1185.9492	0.14528	-439.052582	-439.04373	-439.042785	-439.085831	33.644	
C	-0.0802330441	 1.5679667707	 0.1010563716	-0.453621
C	 0.0377119435	 0.0564003865	-0.0005555396	 0.424052
O	-1.221559328	-0.5723098432	-0.1498451279	-0.480494
C	 1.1205545734	-0.5265575526	-0.9928704808	-0.34392
C	 1.758839113	-1.2562726377	 0.1846169543	 0.263216
N	 2.1321572088	-0.2202939202	 1.1890829847	-0.363083
C	 0.7514254235	-0.6742002899	 1.1544817301	-0.132311
C	 2.3116573658	-2.6099752774	 0.2454011354	 0.050355
O	 2.4571303679	-3.3398815068	-0.7057393654	-0.264882
H	 0.8912962441	 2.0132010901	 0.3273900228	 0.143165
H	-0.4360652445	 1.9889999958	-0.8473555833	 0.109342
H	-0.7922320551	 1.8416572144	 0.8857427843	 0.123143
H	-1.6361861904	-0.2221244851	-0.9457549365	 0.280735
H	 0.6644916538	-1.2172616779	-1.7031318785	 0.127971
H	 1.7675751896	 0.1879248285	-1.5057172854	 0.10623
H	 2.60288256	-0.6819069099	 1.9689249968	 0.239633
H	 0.2689635569	-1.1478712149	 2.0016423132	 0.112396
H	 2.5817214118	-2.9352679403	 1.2799903741	 0.058074
83.2	154.2816	175.3304	249.2043	267.2203	289.9783	300.1496	376.7425	410.7714	439.6925	493.9736	539.0009	628.1853	741.0579	776.726	850.2463	858.68	917.6019	953.1158	962.0181	981.7799	1015.7162	1076.2016	1104.681	1105.0585	1122.2875	1175.8465	1225.598	1242.7852	1263.3554	1339.4227	1391.297	1397.6255	1402.8083	1435.7737	1464.8075	1487.8266	1497.2784	1803.7176	2830.9786	3028.4709	3076.5665	3096.7874	3131.7605	3146.8761	3191.0196	3459.8329	3807.2976
CC1(O)CC2(NC12)C=O	C[C@@]1(O)C[C@]2(N[C@@H]12)C=O	
InChI=1S/C6H9NO2/c1-5(9)2-6(3-8)4(5)7-6/h3-4,7,9H,2H2,1H3	InChI=1S/C6H9NO2/c1-5(9)2-6(3-8)4(5)7-6/h3-4,7,9H,2H2,1H3/t4-,5+,6-/m0/s1
