12
gdb 130846	2.4235	1.56036	0.94921	2.0015	73.73	-0.2651	-0.0915	0.1737	1115.0855	0.077654	-431.64351	-431.63605	-431.635106	-431.675855	26.83	
O	 0.047258412	-0.1206044382	-0.0015342128	-0.28218
C	-0.027875825	 1.0894701586	 0.0100351692	 0.060234
C	 1.1509054737	 1.948664331	 0.0036082296	 0.144734
C	 1.3442695302	 3.3264439605	 0.0134479274	 0.147929
N	 2.6946476384	 3.568530834	-0.0004381811	-0.268323
N	 3.3261834548	 2.427590528	-0.0179804586	-0.089791
N	 2.4129199015	 1.4552698386	-0.0157334014	-0.210802
C	 0.3721166527	 4.3484689037	 0.0339927271	 0.282178
C	-0.4662069294	 5.2112385322	 0.0515542097	-0.410538
H	-0.9947167707	 1.6263256129	 0.0262419863	 0.11142
H	 2.6830499556	 0.4820432879	-0.0275232385	 0.304457
H	-1.1998850839	 5.9795847509	 0.0670678132	 0.210682
114.0988	143.497	175.898	211.6582	282.9769	428.1161	479.7117	582.3367	613.6045	623.3156	642.7131	684.1204	721.4668	769.1492	808.1607	1017.7249	1033.4516	1100.6552	1173.2885	1224.5981	1296.2901	1367.5887	1412.5308	1489.1792	1576.4209	1773.3147	2242.5288	2964.6548	3498.0248	3634.8787
O=CC1=C(N=NN1)C#C	O=Cc1c(nn[nH]1)C#C	
InChI=1S/C5H3N3O/c1-2-4-5(3-9)7-8-6-4/h1,3H,(H,6,7,8)	InChI=1S/C5H3N3O/c1-2-4-5(3-9)7-8-6-4/h1,3H,(H,6,7,8)
