21
gdb 63665	4.2183	0.75671	0.70755	1.1419	86.73	-0.2476	0.0342	0.2818	1666.9371	0.178459	-387.03389	-387.023416	-387.022472	-387.069651	38.379	
C	 0.012607404	 1.5414644159	-0.0024428598	-0.446272
C	-0.0236552435	 0.0263336909	 0.0519906237	 0.297395
C	-1.1580277994	-0.609833979	-0.7288759259	-0.451733
C	 1.3032496312	-0.7166946746	 0.1035969802	-0.362161
C	 0.4042620547	-0.6543784446	 1.3200310991	 0.113083
O	 0.7672335123	 0.1511850663	 2.3996085328	-0.250669
C	 1.7164180846	-0.4755844306	 3.2497967127	-0.206143
C	 2.0781420628	 0.4248084915	 4.3360891546	 0.280047
C	 2.3950410514	 1.1478991034	 5.240830239	-0.419531
H	 0.8015671021	 1.9445773237	 0.634664657	 0.130755
H	 0.1806638854	 1.8858096329	-1.0291965065	 0.109811
H	-0.9385971778	 1.9646734133	 0.3401993775	 0.115809
H	-1.080490234	-0.3674335808	-1.7952009656	 0.116255
H	-1.1515542434	-1.700606106	-0.6362687172	 0.110575
H	-2.1304501617	-0.2487327657	-0.3745209723	 0.11825
H	 1.4032250062	-1.65805148	-0.4271851136	 0.106863
H	 2.2048980749	-0.1133520598	 0.1331222271	 0.115134
H	-0.1201457993	-1.5676310338	 1.6096681038	 0.079573
H	 1.2999684521	-1.4088738961	 3.6639915094	 0.119328
H	 2.6151931322	-0.7561440156	 2.6782778191	 0.123409
H	 2.6704154952	 1.7916898186	 6.0392671247	 0.200221
45.5153	87.787	104.4899	193.0486	204.2377	222.7693	240.6875	285.5437	332.5687	362.5234	376.3713	441.4376	504.8271	568.7929	608.1582	675.4932	701.5716	841.6464	884.1125	919.1881	966.7593	975.0836	1000.4292	1017.7402	1033.9576	1041.3051	1063.5044	1083.205	1127.5908	1158.7561	1192.7375	1251.352	1286.3874	1335.6585	1382.8224	1408.2555	1422.0565	1431.7362	1481.284	1484.777	1490.3879	1500.3384	1502.7643	1515.4809	2248.0119	2966.3065	2992.9286	3021.6452	3030.6612	3073.8288	3083.3362	3086.8464	3097.4746	3124.4699	3134.9395	3213.1987	3505.7896
CC1(C)CC1OCC#C	CC1(C)C[C@H]1OCC#C	
InChI=1S/C8H12O/c1-4-5-9-7-6-8(7,2)3/h1,7H,5-6H2,2-3H3	InChI=1S/C8H12O/c1-4-5-9-7-6-8(7,2)3/h1,7H,5-6H2,2-3H3/t7-/m1/s1
