19
gdb 77593	2.62064	1.42928	1.20113	2.9449	75.45	-0.2509	0.0707	0.3216	1109.4833	0.157269	-422.970079	-422.961366	-422.960422	-423.002952	33.761	
C	-0.1745084143	 1.5465582954	-0.085791612	-0.427137
C	 0.0624052774	 0.046955479	 0.0285658495	-0.138158
C	 1.090487201	-0.6542300714	-0.8884260081	 0.392959
O	 0.7517412137	-1.2760685753	-2.0761238512	-0.463135
C	 2.5021907018	-0.2698932899	-0.5529929993	-0.353388
C	 1.783359277	-1.2907968088	 0.3122327082	-0.228856
C	 0.8356626137	-0.5494462212	 1.2284143766	 0.474746
C	 1.0337715209	-0.0502458737	 2.5899437457	-0.272781
O	 0.1684114557	-1.166679814	 2.3117100047	-0.286309
H	 0.7610026867	 2.1117058183	-0.0217992263	 0.114285
H	-0.6523709806	 1.7950524672	-1.0398858306	 0.116215
H	-0.8348919128	 1.9023592186	 0.7123241146	 0.123226
H	-0.8838759946	-0.5000885795	-0.0464595472	 0.101522
H	 0.9150625262	-0.6615491944	-2.7997350706	 0.287302
H	 3.2453402399	-0.7006119963	-1.2170684223	 0.11718
H	 2.7606058196	 0.710033058	-0.1585450031	 0.108222
H	 2.1488989144	-2.2994676874	 0.4551261235	 0.10828
H	 1.9488933458	-0.2930374929	 3.1288314691	 0.113837
H	 0.5265511685	 0.8551299183	 2.9213296388	 0.11199
103.8202	194.3025	203.7138	222.2312	230.0813	263.104	307.4347	391.1295	452.3399	476.1869	506.7133	579.9466	689.7737	730.9617	818.9233	854.8147	876.4862	914.2294	926.5787	974.3504	985.7268	1021.8815	1074.6708	1079.0058	1114.2433	1120.6119	1127.5183	1146.4904	1168.5842	1197.2566	1229.5453	1268.9128	1305.2306	1360.7319	1401.7696	1411.3351	1441.101	1493.0002	1495.9779	1499.8531	1538.7685	3029.7675	3056.6264	3078.6155	3093.5891	3101.4578	3107.3885	3164.742	3197.8279	3205.7474	3798.0849
CC1C2(O)CC2C11CO1	C[C@H]1[C@@]2(O)C[C@H]2[C@]21CO2	
InChI=1S/C7H10O2/c1-4-6(8)2-5(6)7(4)3-9-7/h4-5,8H,2-3H2,1H3	InChI=1S/C7H10O2/c1-4-6(8)2-5(6)7(4)3-9-7/h4-5,8H,2-3H2,1H3/t4-,5+,6-,7+/m0/s1
