18
gdb 64790	4.65671	0.63946	0.62293	4.7507	84.12	-0.2556	-0.0573	0.1982	1796.9602	0.145275	-401.903239	-401.893363	-401.892418	-401.939958	34.268	
C	-0.0200293132	 1.5711122424	-0.3716759537	-0.465595
C	-0.0301888332	 0.0816747179	-0.1015019882	 0.335016
C	-1.3511662501	-0.4827511726	 0.4241346547	-0.406209
C	-1.7929899577	 0.1244610725	 1.6721947544	 0.116074
C	-2.1634420401	 0.6299078333	 2.7054293633	 0.01961
C	-2.5695265126	 1.2407993411	 3.9433138786	 0.019799
O	-3.6528872024	 1.0928542157	 4.4618759238	-0.230618
C	 0.8326913677	-0.8076414789	-0.9200568475	-0.283953
N	 1.1540492436	-0.5499453306	 0.4973977427	-0.334569
H	 0.9494205561	 1.8891296629	-0.767473024	 0.115885
H	-0.787459618	 1.8457212108	-1.1041224491	 0.126816
H	-0.2197196008	 2.1351076016	 0.5453132838	 0.13637
H	-2.1360287003	-0.356506778	-0.3339828273	 0.139894
H	-1.235583411	-1.5610503173	 0.5819437605	 0.152088
H	-1.7917156413	 1.8813485272	 4.407748247	 0.095898
H	 0.524223019	-1.8266095124	-1.1399314949	 0.118339
H	 1.4469074594	-0.3486130136	-1.6904223395	 0.114227
H	 1.913801195	 0.1225402981	 0.5679870754	 0.230927
24.4635	51.953	76.2178	158.9176	185.7075	219.5716	311.4631	348.4423	368.7539	385.7586	401.6381	499.5997	612.4565	732.6256	819.2033	853.8976	904.1747	907.7302	938.7451	987.7513	1016.4446	1022.1975	1062.1299	1116.9137	1148.8313	1155.5217	1222.8565	1265.4154	1312.5704	1347.4909	1392.5068	1418.8343	1423.5119	1442.3228	1484.0894	1501.8788	1519.579	1766.8762	2327.7337	2912.9549	3021.4207	3030.9001	3069.7535	3095.9862	3104.874	3107.8906	3188.2652	3499.3927
CC1(CC#CC=O)CN1	C[C@@]1(CC#CC=O)CN1	
InChI=1S/C7H9NO/c1-7(6-8-7)4-2-3-5-9/h5,8H,4,6H2,1H3	InChI=1S/C7H9NO/c1-7(6-8-7)4-2-3-5-9/h5,8H,4,6H2,1H3/t7-/m1/s1
