20
gdb 5957	3.1486	1.29154	1.16756	3.4043	71.82	-0.2392	-0.0161	0.2231	1134.7641	0.172766	-386.146062	-386.135988	-386.135044	-386.181237	35.602	
C	-0.1315462023	 1.3461550479	 0.1077679039	-0.24547
O	 0.009491976	-0.0471982007	-0.0645150239	-0.27658
C	 0.6994636777	-0.5137827549	-1.2335013871	 0.336508
C	 0.0327960715	-0.0170970695	-2.5268089702	-0.423841
C	 2.1811516214	-0.1098605403	-1.1950282442	-0.419058
C	 0.5847157595	-2.0506186145	-1.1244666705	-0.285068
C	-0.8415559572	-2.5588717476	-1.1329360366	 0.150085
O	-1.2385559162	-3.4508261096	-1.8408077618	-0.250945
H	 0.8342273715	 1.8670585033	 0.1611630074	 0.108218
H	-0.7349126726	 1.8118287868	-0.6831483543	 0.11024
H	-0.6483761832	 1.4859442777	 1.0606125401	 0.13054
H	 0.1687596287	 1.0589685562	-2.6655406793	 0.117673
H	 0.4734482634	-0.5190622218	-3.3932167933	 0.126596
H	-1.0403899083	-0.2303116584	-2.5220675997	 0.129989
H	 2.6351073263	-0.4189083932	-0.2490009697	 0.122358
H	 2.72825419	-0.5865718102	-2.0138477637	 0.120732
H	 2.3074969021	 0.9712804092	-1.3030560578	 0.117056
H	 1.1356690202	-2.5429972072	-1.9297486181	 0.113804
H	 1.0294188595	-2.3468259593	-0.1647525234	 0.123799
H	-1.515298548	-2.0486964438	-0.4135783777	 0.093363
57.9002	73.7583	88.9403	183.5532	200.078	251.9197	270.5346	284.987	333.8438	360.0621	412.897	433.7411	482.6136	561.3216	721.3417	798.6288	903.8449	916.9152	923.4509	988.223	1043.7143	1063.5275	1122.248	1173.0006	1181.1726	1191.4737	1214.9348	1247.968	1288.7191	1323.0824	1396.1979	1414.397	1418.0619	1446.9899	1477.4373	1478.7283	1484.3522	1497.3263	1503.9833	1511.99	1517.4239	1825.537	2921.0987	2998.1699	3026.7541	3038.2068	3045.16	3051.348	3107.7951	3110.3139	3111.2463	3115.6136	3118.8227	3120.3188
COC(C)(C)CC=O	COC(C)(C)CC=O	
InChI=1S/C6H12O2/c1-6(2,8-3)4-5-7/h5H,4H2,1-3H3	InChI=1S/C6H12O2/c1-6(2,8-3)4-5-7/h5H,4H2,1-3H3
