18
gdb 63107	2.20852	1.7054	1.21136	4.6956	77.9	-0.2553	-0.0056	0.2497	1081.87	0.14634	-401.923848	-401.915079	-401.914135	-401.956834	33.03	
C	 0.0038993273	 1.5382494217	-0.0170240224	-0.466018
C	 0.0120389076	 0.0237819545	-0.0534040657	 0.236536
C	-1.2257080354	-0.6371036825	 0.5283471281	-0.465889
C	 0.6384860791	-0.7634263499	-1.1904835753	-0.215071
C	 1.925889192	-0.1117292975	-1.6783129943	-0.116407
O	 2.4418889363	-0.0084299588	-0.3197263812	-0.315549
C	 1.3121428442	-0.7255616619	 0.1820583374	 0.309544
C	 1.5252912419	-1.7264731684	 1.1779723961	 0.231967
N	 1.6763369506	-2.5319194896	 1.9953661704	-0.355848
H	 0.9796057326	 1.9551207346	-0.2709795851	 0.143271
H	-0.74248443	 1.9363874474	-0.7129171298	 0.121688
H	-0.2555730362	 1.8888366333	 0.9872549738	 0.128653
H	-2.1144420903	-0.336745982	-0.0368022352	 0.126783
H	-1.1618482671	-1.7286224052	 0.4999357846	 0.134938
H	-1.3704763331	-0.3382806018	 1.5712291863	 0.136089
H	 0.1304499715	-1.5897862828	-1.669669435	 0.119363
H	 2.5560939895	-0.7829436788	-2.2702052119	 0.127981
H	 1.8519145997	 0.8638190877	-2.1692365708	 0.117968
122.6076	141.5065	180.9911	212.8377	252.7244	266.99	310.1268	354.3775	424.7883	479.5685	527.7325	571.2219	605.412	691.5282	791.1923	907.8843	932.8771	967.9816	971.508	978.0484	1003.8802	1015.9669	1082.2748	1092.8613	1152.9767	1161.2959	1205.7702	1228.6923	1304.1984	1334.6196	1401.0726	1415.2789	1427.8508	1480.5226	1488.1349	1500.1731	1512.2615	1521.3849	2344.0287	3035.3084	3039.3665	3043.1234	3094.0454	3097.8854	3102.6291	3114.4752	3138.6255	3205.0935
CC1(C)C2COC12C#N	CC1(C)[C@H]2CO[C@@]12C#N	
InChI=1S/C7H9NO/c1-6(2)5-3-9-7(5,6)4-8/h5H,3H2,1-2H3	InChI=1S/C7H9NO/c1-6(2)5-3-9-7(5,6)4-8/h5H,3H2,1-2H3/t5-,7-/m1/s1
