21
gdb 122850	4.94126	0.5985	0.55184	2.6405	78.06	-0.2497	0.0288	0.2785	2006.8251	0.182213	-457.532135	-457.521606	-457.520662	-457.56892	36.855	
C	-0.0472024873	 1.3413361252	-0.0103388532	-0.22739
O	 0.0218791048	-0.0793360864	-0.1465899799	-0.233109
C	 0.7565380959	-0.5389408066	-1.1766972697	 0.37878
N	 1.3252239557	 0.2333987227	-2.0043561223	-0.527462
C	 0.7787465338	-2.0571409559	-1.1514552259	-0.226073
N	 1.2520768489	-2.6046369353	-2.4136563326	-0.316689
C	 1.4529274926	-4.0559006467	-2.4098466838	-0.147029
C	 2.1810921802	-4.4600980766	-3.689842374	-0.057978
O	 3.4200108554	-3.7953448363	-3.806536479	-0.418252
H	 0.9518007103	 1.7677601032	 0.1152549004	 0.138389
H	-0.5052911644	 1.7931081042	-0.8944640481	 0.137745
H	-0.6580782657	 1.5247519978	 0.874480406	 0.125849
H	 1.8417923941	-0.3290438875	-2.6799451111	 0.222057
H	 1.4624653429	-2.3770305206	-0.3549276766	 0.137905
H	-0.2219237505	-2.4115306073	-0.8552581058	 0.111935
H	 0.594210074	-2.3600784611	-3.1492920187	 0.227162
H	 2.0859353691	-4.3025958295	-1.5495155964	 0.117193
H	 0.5136792039	-4.6255964496	-2.3047112145	 0.087603
H	 2.3809627258	-5.5368004118	-3.6824631279	 0.109046
H	 1.5301078612	-4.2563744798	-4.5597426517	 0.078302
H	 3.2480762792	-2.8895708219	-3.5160481552	 0.282014
45.4585	63.3883	93.5164	148.0551	162.4377	181.345	193.5696	261.4968	318.7432	341.2478	423.0753	486.937	549.0006	593.8527	672.9061	806.0137	882.6891	902.1104	905.9307	928.038	996.5264	1022.9545	1057.6574	1095.7655	1122.5637	1148.3037	1167.0488	1181.1489	1215.6619	1220.3549	1236.3792	1305.689	1318.7933	1376.9897	1384.2835	1422.552	1444.9463	1476.981	1480.7583	1481.9648	1491.7691	1499.949	1504.3378	1517.2206	1735.8804	2938.2596	2960.8261	2976.961	3046.1573	3048.2934	3060.973	3073.6152	3118.5178	3150.0464	3493.4799	3496.2378	3752.3916
COC(=N)CNCCO	CO[C]([NH])CNCCO	
InChI=1S/C5H12N2O2/c1-9-5(6)4-7-2-3-8/h6-8H,2-4H2,1H3	InChI=1S/C5H12N2O2/c1-9-5(6)4-7-2-3-8/h6-8H,2-4H2,1H3
