19
gdb 40137	2.94935	1.41752	1.08177	2.004	83.28	-0.2386	0.014	0.2526	1145.0838	0.160261	-385.877083	-385.869147	-385.868202	-385.90997	30.957	
C	-0.1010048536	 1.542526594	-0.1200996049	-0.21494
O	 1.1586627825	 0.8862054356	-0.013381718	-0.281503
C	-0.034230206	 0.0733034778	 0.0110549972	 0.366861
C	-0.3082380668	-0.5624765227	 1.3625619146	-0.341594
C	-1.7391430865	-0.9958263628	 1.5683439608	-0.072086
C	-2.4675940897	-1.7631309076	 0.7603283901	-0.039965
C	-2.0768786563	-2.4020504251	-0.5461831251	-0.320705
C	-1.0064038784	-1.7971791525	-1.4126698654	-0.057183
C	-0.1923889568	-0.7620798001	-1.2060387335	-0.105183
H	-0.3982120243	 2.1418433286	 0.7407592757	 0.109932
H	-0.3171430871	 1.9884046822	-1.0902656031	 0.110784
H	 0.3660665479	-1.4224287805	 1.4732271609	 0.12211
H	-0.0183883809	 0.1541998795	 2.1357325825	 0.109945
H	-2.2060912385	-0.651052865	 2.4877214053	 0.08885
H	-3.4791822446	-2.0069117059	 1.0796934796	 0.087862
H	-1.8137037826	-3.4570794272	-0.3541015215	 0.128212
H	-2.9809301003	-2.4787173558	-1.1683470733	 0.120068
H	-0.9281333422	-2.2858651359	-2.3827224895	 0.091652
H	 0.480721964	-0.4666239064	-2.0076827822	 0.096883
50.7036	103.438	258.2865	309.0796	349.6958	363.2485	399.0693	430.1618	516.8958	604.3477	676.5113	735.841	784.3548	817.997	838.022	890.5081	909.4242	929.3624	962.069	967.8837	1002.758	1019.4937	1024.7934	1066.7034	1131.1101	1158.1025	1195.0695	1221.5906	1241.0281	1266.8659	1311.508	1336.5439	1375.1969	1395.9214	1419.8424	1447.6196	1453.4105	1483.5683	1524.5764	1736.0309	1743.2748	2962.1266	3005.0888	3019.8797	3073.4396	3087.9173	3130.8952	3133.9983	3158.9695	3160.7279	3161.2959
C1OC11CC=CCC=C1	C1O[C@]21CC=CCC=C2	
InChI=1S/C8H10O/c1-2-4-6-8(5-3-1)7-9-8/h1,3-4,6H,2,5,7H2	InChI=1S/C8H10O/c1-2-4-6-8(5-3-1)7-9-8/h1,3-4,6H,2,5,7H2/t8-/m1/s1
