14
gdb 62441	4.11214	1.28189	1.25466	2.4598	68.61	-0.2355	0.0042	0.2397	1002.4973	0.099831	-436.628519	-436.620865	-436.61992	-436.660451	29.167	
O	-0.1002558998	 1.4034045736	-0.0057003998	-0.441329
C	-0.0272348229	 0.0142225421	 0.0035703359	 0.15214
C	 1.0350078658	-0.5904365284	-0.7526080164	 0.286742
C	 1.9344606695	-1.1017604415	-1.3666847837	-0.410963
C	-0.4586348747	-0.7410872705	 1.2566517487	-0.038013
O	-1.1603225605	 0.0399075181	 2.2036273661	-0.212888
C	-2.3057291027	 0.4245211732	 1.5731358962	 0.112268
N	-2.5245579779	 0.0058433709	 0.3938124118	-0.251751
C	-1.3586507981	-0.7527272675	 0.0281426556	-0.09347
H	 0.59986255	 1.7413493256	 0.564777511	 0.293721
H	 2.7235536554	-1.5436120147	-1.9237089398	 0.199558
H	 0.121855042	-1.5451209979	 1.6892431554	 0.129046
H	-2.9536809087	 1.0623022907	 2.1601572547	 0.15126
H	-1.4890778473	-1.5812169338	-0.6554616957	 0.123678
128.7116	140.5191	208.2343	251.0444	286.1496	419.941	451.2276	510.0826	577.5879	586.9967	631.2742	689.365	717.5803	753.5811	863.2016	890.4403	903.9963	943.04	1008.8632	1022.7653	1073.7787	1087.3573	1108.3593	1167.1755	1254.0793	1269.0447	1318.0455	1343.3683	1372.1716	1668.7525	2228.97	3200.4147	3207.6427	3243.2053	3499.8616	3793.9433
OC1(C#C)C2OC=NC12	O[C@@]1(C#C)[C@H]2OC=N[C@@H]12	
InChI=1S/C6H5NO2/c1-2-6(8)4-5(6)9-3-7-4/h1,3-5,8H	InChI=1S/C6H5NO2/c1-2-6(8)4-5(6)9-3-7-4/h1,3-5,8H/t4-,5+,6-/m1/s1
