20
gdb 110300	3.10994	1.17189	1.03639	2.4967	75.3	-0.2312	0.0568	0.288	1226.199	0.170661	-440.219572	-440.210653	-440.209709	-440.252806	34.294	
C	-0.1292298909	 1.4883879911	-0.056267551	-0.317145
N	 0.1259889312	 0.0588854435	 0.0412504022	-0.08669
C	 1.4256425963	-0.5382169147	-0.1497791611	-0.060792
C	 0.7303178316	-0.5715244272	 1.1915251492	-0.066698
C	 1.8624260909	 0.2635363449	 1.8329781455	-0.057067
C	 2.6516892948	-0.5023262195	 2.8780466694	-0.115299
O	 3.871734839	 0.2151401612	 3.1041026125	-0.429319
C	 2.5776870881	 0.3036871141	 0.4314847871	 0.109962
O	 3.7849415106	-0.4181417984	 0.3629834115	-0.445499
H	 0.6247377308	 2.1379187952	 0.4095380821	 0.110605
H	-0.2007940716	 1.7578152299	-1.1144182224	 0.125838
H	-1.0948930833	 1.702048126	 0.4124923836	 0.122635
H	 1.5556355445	-1.3130357701	-0.8979363349	 0.09767
H	 0.1919802955	-1.3778298915	 1.6816663366	 0.087458
H	 1.5697563597	 1.235989694	 2.2429322293	 0.073499
H	 2.0686355421	-0.5805252922	 3.8071195065	 0.096093
H	 2.8630157788	-1.5178514865	 2.5182984729	 0.108902
H	 4.3899331232	-0.2673988425	 3.7558350427	 0.293149
H	 2.6955667602	 1.3082698158	 0.0009150552	 0.06471
H	 4.3278837385	-0.1098445531	 1.1022927532	 0.287988
112.949	154.4382	171.707	194.4542	246.4423	293.028	332.4906	350.4527	385.5403	441.4966	539.3655	578.1222	611.2662	732.8021	776.2181	828.1741	913.037	915.3231	952.2398	1006.7442	1023.7348	1045.3839	1068.4211	1077.4713	1102.4358	1142.243	1162.492	1184.7034	1201.8858	1217.2246	1242.1628	1261.6177	1273.2207	1279.9503	1355.5198	1360.2457	1390.0644	1424.8237	1456.6389	1457.5079	1496.2576	1499.9267	1512.9184	2989.6429	2994.6595	3006.5196	3034.1898	3057.085	3075.0467	3106.2029	3144.6116	3172.5328	3735.1729	3822.776
CN1C2C1C(CO)C2O	CN1[C@@H]2[C@H]1[C@@H](CO)[C@H]2O	
InChI=1S/C6H11NO2/c1-7-4-3(2-8)6(9)5(4)7/h3-6,8-9H,2H2,1H3	InChI=1S/C6H11NO2/c1-7-4-3(2-8)6(9)5(4)7/h3-6,8-9H,2H2,1H3/t3-,4-,5-,6-,7?/m1/s1
