17
gdb 53036	5.38916	0.912	0.87004	1.7737	84.22	-0.2182	0.0256	0.2438	1384.2659	0.134984	-384.597599	-384.589452	-384.588508	-384.631989	30.177	
C	 0.0362501668	 1.378982087	 0.0048470895	-0.515522
C	 0.0259687106	-0.074860618	-0.0145066348	 0.344657
C	 0.0238962147	-1.2801967944	-0.0250263271	-0.27993
C	 0.0211018063	-2.6970467872	-0.0389026029	 0.397895
O	 1.1182661137	-3.4489576729	 0.5037239778	-0.340141
C	 0.5415612068	-4.6132270935	-0.1475709521	 0.039346
C	-0.7399684066	-4.8967581317	 0.6797918418	-0.234761
C	-1.250454992	-3.5865819743	 0.0832614855	-0.167499
C	-0.3098736009	-3.7011717968	-1.1055948984	-0.21032
H	 0.6894177675	 1.7503438029	 0.8022769533	 0.156688
H	 0.399350918	 1.7937783987	-0.942082683	 0.150164
H	-0.9663985692	 1.7819714681	 0.1858423136	 0.150569
H	 1.2740491288	-5.3741527821	-0.4055216505	 0.090231
H	-1.295784638	-5.752417464	 0.2872040465	 0.105645
H	-0.6103251304	-4.9790176701	 1.7628461508	 0.105783
H	-2.2396495125	-3.1498841505	 0.1184825181	 0.100444
H	-0.4413678435	-3.6170115712	-2.1750611982	 0.106749
18.9725	93.6537	99.5259	267.245	312.5678	411.0771	453.2101	478.2497	513.703	578.8061	747.5341	784.0668	794.6437	831.3769	866.8522	926.2726	934.8156	954.4258	998.535	1006.1393	1015.2386	1051.0554	1055.629	1072.971	1100.4309	1130.6808	1153.7808	1177.4306	1258.268	1277.7521	1294.8726	1408.3115	1431.8786	1473.5382	1478.1765	1484.772	2365.0048	3026.4252	3052.784	3086.6895	3090.247	3114.5982	3153.3939	3206.6906	3219.0131
CC#CC12OC3CC1C23	CC#C[C@@]12O[C@H]3C[C@@H]1[C@@H]23	
InChI=1S/C8H8O/c1-2-3-8-5-4-6(9-8)7(5)8/h5-7H,4H2,1H3	InChI=1S/C8H8O/c1-2-3-8-5-4-6(9-8)7(5)8/h5-7H,4H2,1H3/t5-,6+,7-,8-/m1/s1
