18
gdb 38496	3.34273	1.70497	1.59735	1.7599	73.09	-0.2152	0.0454	0.2606	907.1755	0.149747	-401.856684	-401.850096	-401.849152	-401.887195	27.802	
C	 0.0770932591	 1.5191167503	 0.0169759733	-0.252383
C	 1.2671892755	 0.6343308922	 0.0073359184	-0.110432
N	-0.1165614809	 0.0628340352	 0.0036017021	-0.099715
C	-0.3642359736	-0.5181195205	-1.360588036	-0.255454
C	 0.9321551908	-0.4462366074	-2.1541305343	 0.129455
C	 1.5326119864	 0.8636640462	-2.6390289367	-0.385645
C	 1.9219988927	 0.3211816417	-1.3030918399	 0.388975
O	 2.9449861	-0.6773214441	-1.398785125	-0.321798
C	 2.0237547862	-1.5258219237	-2.1467652002	-0.129588
H	-0.2254067646	 2.0122500482	 0.9379349989	 0.118965
H	-0.155946682	 2.0912769614	-0.8779431641	 0.10949
H	 1.86056926	 0.4814311757	 0.9028970368	 0.107157
H	-0.6615087493	-1.5619595471	-1.2213755603	 0.11666
H	-1.2035574708	 0.0000807005	-1.8362135899	 0.111862
H	 2.2706272264	 0.8400600827	-3.4363580071	 0.124577
H	 0.8679818923	 1.7183449452	-2.6670682628	 0.12595
H	 1.7489559946	-2.4110100298	-1.5614467217	 0.113925
H	 2.4447222373	-1.8347437165	-3.1108905814	 0.107999
191.0464	235.6739	321.9377	371.3592	436.915	451.7061	552.3663	627.4515	675.2854	725.5812	776.7425	800.4744	835.6395	863.3398	919.1719	927.6437	933.4591	963.5457	984.7047	1003.7149	1028.5197	1068.609	1081.7003	1119.9061	1128.9673	1153.6152	1167.4634	1190.7728	1236.8747	1256.169	1276.317	1307.8089	1339.0563	1377.0833	1386.7703	1473.7374	1491.8831	1512.0695	1519.4304	3019.5997	3046.4934	3071.9117	3087.441	3098.0114	3124.6638	3165.3113	3176.8643	3226.5587
C1C2N1CC13CC21OC3	C1[C@H]2N1C[C@@]13C[C@@]21OC3	
InChI=1S/C7H9NO/c1-5-7-2-6(7,4-9-7)3-8(1)5/h5H,1-4H2	InChI=1S/C7H9NO/c1-5-7-2-6(7,4-9-7)3-8(1)5/h5H,1-4H2/t5-,6-,7-,8?/m1/s1
