13
gdb 132166	3.36058	1.34059	0.95912	2.9086	64.77	-0.2205	-0.0348	0.1858	1094.4237	0.08962	-497.894133	-497.886886	-497.885941	-497.925767	27.939	
N	 0.0144204714	 1.3585488102	 0.1454589909	-0.579283
C	-0.0421472436	-0.0119850209	 0.0506842371	 0.130771
C	-1.165714057	-0.7595890485	 0.021863159	-0.042831
O	-1.137904827	-2.1377882053	-0.0174882316	-0.193083
C	 0.0363654169	-2.7384608045	-0.024194282	 0.409433
F	-0.1138208114	-4.0427169216	-0.0565221183	-0.037028
C	 1.2350777119	-2.1230258349	-0.0077885838	-0.464327
C	 1.2895654394	-0.6786849806	 0.01664988	 0.382222
O	 2.3147996099	-0.0056567444	-0.0009498056	-0.398076
H	 0.9443127848	 1.7003023925	-0.0681806684	 0.268771
H	-0.7430517565	 1.8954320384	-0.2447120391	 0.252003
H	-2.1829939305	-0.3975294195	 0.0311977911	 0.135789
H	 2.1462379318	-2.7039739309	-0.0282196991	 0.135639
129.793	194.6137	314.5968	340.7575	377.8232	385.0614	437.2499	449.0584	520.7825	587.1119	627.4897	675.2807	742.0008	776.4279	789.114	798.548	858.8149	957.9109	1100.5411	1200.6326	1219.602	1265.3858	1311.9312	1421.8439	1453.3674	1602.9819	1668.8567	1699.5164	1735.6927	3238.7456	3244.5846	3536.0574	3676.3503
NC1=COC(F)=CC1=O	Nc1coc(F)cc1=O	
InChI=1S/C5H4FNO2/c6-5-1-4(8)3(7)2-9-5/h1-2H,7H2	InChI=1S/C5H4FNO2/c6-5-1-4(8)3(7)2-9-5/h1-2H,7H2
