18
gdb 99207	5.04233	0.6664	0.5951	4.3517	70.72	-0.256	-0.0371	0.2189	1808.7552	0.144357	-476.274333	-476.263801	-476.262857	-476.312697	35.395	
C	-0.0901109768	 1.4460135424	-0.0327682969	-0.478074
C	 0.0022307499	-0.0622601356	-0.0185639471	 0.369475
O	 1.0571707789	-0.6564996772	-0.0357038516	-0.295948
C	-1.3183576851	-0.8225657834	 0.0192291825	-0.232998
N	-1.0616224128	-2.238954396	 0.0294203625	-0.329369
C	-2.0519490819	-3.1546895602	 0.0614207429	 0.395797
O	-3.2395213658	-2.8575379615	 0.0843750496	-0.397205
C	-1.6328708943	-4.6280627545	 0.068486067	-0.14442
O	-2.7679267549	-5.4408133125	 0.1025104866	-0.419545
H	 0.9105887005	 1.8774107777	-0.0616255528	 0.153705
H	-0.664066062	 1.7836716453	-0.9027184459	 0.151005
H	-0.6212281246	 1.8025630795	 0.8566607025	 0.151097
H	-1.8914921095	-0.5102409132	 0.9033697129	 0.147438
H	-1.93014412	-0.5298518328	-0.8455153737	 0.147454
H	-0.0849894176	-2.5005374068	 0.0105115491	 0.265559
H	-1.0242448586	-4.8295838005	-0.8277815919	 0.111042
H	-0.9852383084	-4.8099904624	 0.9413021073	 0.111045
H	-3.511775427	-4.8138988584	 0.1120389572	 0.293942
22.	31.8954	77.0696	92.9391	104.1773	168.2301	257.3168	289.4346	357.8904	447.5795	466.4168	490.8977	529.2392	601.6948	629.11	715.2882	819.325	855.6846	941.0065	994.7448	1038.1604	1088.8753	1116.2243	1155.0544	1195.5424	1240.389	1245.2457	1253.6386	1313.2514	1370.1624	1390.2335	1459.5515	1461.2666	1474.2032	1486.9455	1508.065	1547.0576	1761.1223	1811.0433	2973.875	2992.4169	3015.646	3035.4833	3041.9939	3102.2753	3159.3588	3588.4811	3648.0991
CC(=O)CNC(=O)CO	CC(=O)CNC(=O)CO	
InChI=1S/C5H9NO3/c1-4(8)2-6-5(9)3-7/h7H,2-3H2,1H3,(H,6,9)	InChI=1S/C5H9NO3/c1-4(8)2-6-5(9)3-7/h7H,2-3H2,1H3,(H,6,9)
