17
gdb 52341	5.38056	0.54423	0.517	4.7734	77.89	-0.2479	-0.0292	0.2187	2027.721	0.13348	-455.169304	-455.159425	-455.158481	-455.2062	32.913	
O	-0.1758222449	-0.1106465239	-0.0561933899	-0.235356
C	-0.0797821497	 1.088409855	-0.1016756734	 0.155167
C	 1.2204269018	 1.8563032396	-0.1229241861	-0.258833
C	 1.3066718009	 2.8045340185	-1.3327483927	-0.159219
N	 2.4325632567	 3.7027639097	-1.1819603362	-0.167075
C	 3.3282281102	 3.6629091321	-2.0698891564	 0.098522
N	 4.4770461219	 4.4525288841	-2.0719388773	-0.322851
C	 4.8866434288	 5.4066640452	-1.1513913683	 0.166322
O	 4.3086599568	 5.7364100177	-0.1523731586	-0.257918
H	-0.9904568361	 1.7334703976	-0.1330539033	 0.072052
H	 1.2709833008	 2.471942635	 0.7852809722	 0.142795
H	 2.0559709992	 1.1516965126	-0.1081996648	 0.120799
H	 1.3497739521	 2.2166469971	-2.2665077371	 0.092965
H	 0.3921269697	 3.4113847383	-1.3723830605	 0.117735
H	 3.2963871285	 2.9978609134	-2.945995603	 0.093295
H	 5.0999952557	 4.3095710055	-2.8521025994	 0.258887
H	 5.8557744975	 5.8425941725	-1.470422175	 0.082714
42.6716	53.1684	82.9796	89.987	155.9688	191.0012	242.4915	332.5983	353.1986	393.6048	527.1139	554.3126	591.7038	784.2972	862.8744	865.4907	974.3122	992.2768	1004.083	1024.977	1061.4487	1101.1374	1136.9977	1213.7754	1235.1046	1267.6797	1310.5311	1379.668	1419.1316	1431.3923	1453.0745	1464.0327	1499.2914	1530.5026	1759.8521	1837.2007	1851.0781	2847.212	2921.7134	2947.2937	3002.4096	3030.4216	3033.0813	3110.4774	3627.312
O=CCCN=CNC=O	O=CCCN=CNC=O	
InChI=1S/C5H8N2O2/c8-3-1-2-6-4-7-5-9/h3-5H,1-2H2,(H,6,7,9)	InChI=1S/C5H8N2O2/c8-3-1-2-6-4-7-5-9/h3-5H,1-2H2,(H,6,7,9)
