18
gdb 127861	2.44517	1.57796	0.97053	3.1401	87.94	-0.1959	-0.0291	0.1668	1203.2249	0.148712	-398.139922	-398.131235	-398.13029	-398.173143	32.29	
C	-0.0390317504	 1.4331850974	-0.0214397836	-0.322688
N	-0.0113229145	-0.0182780746	-0.0223503296	-0.314951
C	 0.5733793408	-0.6296326182	 0.9521665159	 0.205527
C	 1.2385550451	-0.0099693193	 2.1045056306	-0.064742
N	 1.8234135146	-0.6394513632	 3.0790483749	-0.188464
N	 1.8151149363	-1.9779453522	 3.0208689681	-0.240636
C	 1.2350318948	-2.6983066172	 2.0098280771	-0.064823
C	 0.6136792862	-2.0901095789	 0.9724983836	 0.223341
C	-0.0278761576	-2.8514904688	-0.1443541997	-0.476554
H	 0.9667073368	 1.8820145317	-0.044579346	 0.10745
H	-0.5697861735	 1.7796228097	-0.9127109891	 0.114966
H	-0.5608124594	 1.8523182098	 0.8535258824	 0.107445
H	 1.2683305848	 1.0699527645	 2.1908583888	 0.122075
H	 2.2764833315	-2.4314516947	 3.7908373537	 0.274993
H	 1.3133256681	-3.7753191228	 2.1074486969	 0.125232
H	 0.073582112	-3.9319523695	-0.0096192352	 0.10458
H	-1.0898615717	-2.5945418888	-0.2189093555	 0.143599
H	 0.4143419363	-2.5635315048	-1.1039763332	 0.14365
99.0354	151.6073	163.7138	196.7903	214.662	300.3093	307.54	410.9515	491.721	492.2157	516.9075	581.5741	608.6821	756.5753	765.2997	870.0371	876.6031	928.3194	986.2121	1039.8877	1062.2497	1069.2782	1098.1807	1154.2202	1181.9828	1234.2189	1301.7087	1387.854	1410.883	1415.7024	1435.8259	1459.2245	1482.4655	1486.4841	1506.471	1507.0482	1615.145	1661.151	1686.7667	2963.7769	3008.7988	3034.7711	3087.5714	3091.0099	3116.647	3194.592	3199.9009	3664.3611
CN=C1C=NNC=C1C	C[N]C1=C(CNN=C1)C	
InChI=1S/C6H9N3/c1-5-3-8-9-4-6(5)7-2/h3-4H,1-2H3,(H,7,8)	InChI=1S/C6H10N3/c1-5-3-8-9-4-6(5)7-2/h4,8H,3H2,1-2H3
