19
gdb 126521	3.15667	0.97396	0.79083	2.79	77.87	-0.2105	0.0406	0.2511	1467.642	0.15981	-419.23365	-419.22424	-419.223296	-419.269055	33.924	
C	-0.0153394995	 1.6178332579	-0.005014467	-0.378471
C	 0.006876712	 0.0879115679	-0.0207741393	-0.148365
C	-1.4010182873	-0.5356650471	 0.0546508523	-0.342826
C	-1.4112567473	-2.034762192	 0.0280440516	 0.081464
C	-1.425342096	-2.9001114058	 1.1074965047	 0.357146
O	-1.4663808769	-2.7112837049	 2.4460306639	-0.429673
N	-1.3988520068	-4.1615106202	 0.6259185975	-0.247929
N	-1.3683558437	-4.198076632	-0.7320935518	-0.241845
C	-1.3742244025	-2.9185607768	-1.0810800129	-0.068175
H	 0.9957536468	 2.0324212442	-0.0620075374	 0.114724
H	-0.5860179067	 2.0142677463	-0.8523193687	 0.116294
H	-0.4801673552	 2.0004593902	 0.9110724721	 0.109565
H	 0.5018011542	-0.2707390019	-0.9311320377	 0.106349
H	 0.6104471751	-0.2875024516	 0.8154012276	 0.093072
H	-1.9021997355	-0.17078233	 0.9649195841	 0.076941
H	-2.0057608353	-0.1503534331	-0.7760015062	 0.111487
H	-1.5022217096	-1.7648243772	 2.6191914877	 0.310573
H	-1.4134529866	-5.0152427902	 1.1568589967	 0.275309
H	-1.3573310091	-2.6535004036	-2.1295022972	 0.104362
27.9423	83.2904	110.1645	230.8194	231.7422	248.3393	277.5364	307.8124	383.3605	460.6877	469.4996	668.2014	681.4189	712.7809	740.6932	773.6394	866.4237	882.3816	896.7595	949.3553	1042.0522	1066.1765	1109.2515	1113.6861	1160.0609	1218.8435	1240.5126	1270.7307	1311.4134	1325.9456	1364.8648	1379.0674	1394.0842	1410.9777	1456.0488	1481.1318	1492.1298	1498.0324	1509.4512	1585.6214	1642.5708	2982.2498	3024.2134	3027.2015	3039.4237	3062.5824	3093.8606	3103.1651	3229.3748	3680.5113	3830.212
CCCC1=C(O)NN=C1	CCCc1c(O)[nH]nc1	
InChI=1S/C6H10N2O/c1-2-3-5-4-7-8-6(5)9/h4H,2-3H2,1H3,(H2,7,8,9)	InChI=1S/C6H10N2O/c1-2-3-5-4-7-8-6(5)9/h4H,2-3H2,1H3,(H2,7,8,9)
