17
gdb 106912	4.14449	1.16497	1.03666	4.1101	75.06	-0.2402	-0.0558	0.1844	1164.7285	0.135402	-421.826488	-421.818423	-421.817479	-421.859148	30.514	
C	 0.0741200746	 1.2975053928	 0.3360766264	-0.256682
O	-0.0177177776	 0.0184108004	-0.2694418423	-0.287029
C	-1.2752740876	-0.5576915085	-0.1844746316	 0.417921
C	-1.7756029143	-1.1256677416	 1.1285278753	-0.335775
C	-1.431551937	-2.0408893801	-0.048042742	-0.250444
C	-2.5886614548	-2.4335280561	-0.9460483212	 0.396352
O	-2.9925796145	-3.5523942229	-1.1558492312	-0.330039
C	-3.1155272028	-1.1614459187	-1.527341183	-0.198453
C	-2.3633692254	-0.1274547161	-1.1295668409	-0.137932
H	 1.1104854481	 1.6231587817	 0.2267080865	 0.135016
H	-0.5797913009	 2.0333255626	-0.1525412653	 0.111973
H	-0.1829810292	 1.2566322156	 1.4032577907	 0.114578
H	-1.0679019493	-1.1485241403	 1.9513455696	 0.129383
H	-2.8139856247	-0.986415397	 1.4091875011	 0.127288
H	-0.58324638	-2.7044260995	 0.0520534869	 0.123025
H	-3.9906797619	-1.1323968659	-2.1630347496	 0.120846
H	-2.5108323327	 0.9109555637	-1.4042652695	 0.119971
94.9504	123.2777	176.5788	234.5877	285.8772	360.5875	388.5374	429.6193	484.5827	638.5193	652.8133	735.6111	751.0111	799.6171	838.6846	915.8945	954.9121	968.0839	971.7303	983.8166	1022.9278	1065.8557	1097.5594	1110.4254	1163.8039	1181.2232	1212.8638	1232.184	1274.4644	1337.1923	1379.771	1468.0105	1483.1172	1491.542	1506.1267	1633.0236	1818.6609	2996.2725	3050.2924	3126.734	3127.9416	3196.5881	3213.9118	3223.2731	3231.4317
COC12CC1C(=O)C=C2	CO[C@]12C[C@H]1C(=O)C=C2	
InChI=1S/C7H8O2/c1-9-7-3-2-6(8)5(7)4-7/h2-3,5H,4H2,1H3	InChI=1S/C7H8O2/c1-9-7-3-2-6(8)5(7)4-7/h2-3,5H,4H2,1H3/t5-,7+/m0/s1
