15
gdb 46651	2.40725	1.58876	1.40579	2.0267	71.15	-0.2434	-0.0314	0.2119	981.5416	0.111485	-420.589525	-420.581827	-420.580883	-420.621915	29.235	
O	 0.0124956695	 0.0290194898	 0.1660329815	-0.310426
C	-0.0294958219	 1.2172837884	-0.014211899	 0.388401
C	-1.2869766597	 2.0300424985	-0.3498923938	-0.194906
O	-0.8620371859	 3.3388426823	-0.7171073969	-0.2558
C	 0.5148350843	 3.474518141	-0.5067734602	 0.096422
C	 1.020217124	 3.39717852	 0.9146806496	-0.275426
C	 0.1436719299	 3.4262162129	 2.0460748693	 0.339771
C	-0.5829199372	 3.46815336	 3.0034551612	-0.432821
C	 1.1180354672	 2.1791356776	-0.0426627162	-0.229888
H	-1.8221502455	 1.569019509	-1.1873942295	 0.14041
H	-1.9524262262	 2.0639057782	 0.5203663564	 0.148265
H	 0.9878278515	 4.1448501929	-1.2150404995	 0.123475
H	 1.9887774255	 3.8638696217	 1.0743488684	 0.132617
H	-1.2245662611	 3.5077547304	 3.8487905754	 0.204512
H	 2.1010451757	 1.8114776373	-0.3045097066	 0.125394
85.1577	133.3392	158.8819	246.3605	349.4068	439.8284	466.8203	593.8411	617.931	625.6833	634.4119	666.8093	688.1743	757.7589	782.2569	864.4493	927.9676	936.9569	1013.0046	1026.9653	1036.5203	1090.6243	1110.6682	1172.2766	1202.8683	1216.4446	1295.1629	1317.3817	1360.587	1395.286	1474.6185	1850.1165	2237.7223	3038.5715	3081.7489	3143.1909	3183.4105	3210.7609	3502.5061
O=C1COC2C(C#C)C12	O=C1CO[C@H]2[C@@H](C#C)[C@@H]12	
InChI=1S/C7H6O2/c1-2-4-6-5(8)3-9-7(4)6/h1,4,6-7H,3H2	InChI=1S/C7H6O2/c1-2-4-6-5(8)3-9-7(4)6/h1,4,6-7H,3H2/t4-,6-,7-/m0/s1
