24
gdb 119912	2.7656	0.85801	0.80858	0.5854	86.86	-0.2122	0.0774	0.2895	1592.9188	0.214158	-405.518209	-405.506765	-405.50582	-405.554815	41.308	
C	 0.4059417209	 0.9035969551	-1.872422908	-0.317941
N	 0.3948172981	-0.2009698443	-0.9271836917	-0.132229
C	 1.5492735081	-0.4633944918	-0.0534429358	-0.048046
C	 2.8356956328	 0.3369083223	-0.0748661112	-0.21168
C	 3.8089998191	-0.1664926373	-1.1378773466	-0.06877
O	 4.9999955704	 0.5980597361	-1.0283711176	-0.422607
C	 0.2542015579	 0.0341599486	 0.5172650836	 0.296784
C	 0.1368646898	 1.4389971099	 1.0834639461	-0.456189
C	-0.6604017427	-0.9633289517	 1.2066957571	-0.434517
H	 0.9549871016	 1.8035892142	-1.5616877673	 0.100934
H	 0.8426797487	 0.5555389484	-2.8148833909	 0.119624
H	-0.6280976181	 1.2002682268	-2.0777509423	 0.12049
H	 1.7373764294	-1.5340106626	 0.058356853	 0.074766
H	 2.6657474826	 1.4028719556	-0.2432116567	 0.106675
H	 3.3261799381	 0.2528248267	 0.9030493349	 0.109419
H	 4.0056256549	-1.2395581002	-0.9800340996	 0.08632
H	 3.3572888216	-0.0632284738	-2.1372357711	 0.091528
H	 5.6167917369	 0.2924417999	-1.6996590244	 0.285588
H	 0.8108280513	 2.1589003195	 0.6182065219	 0.119477
H	-0.8870583422	 1.812414999	 0.9641619645	 0.117657
H	 0.3553737348	 1.4292324938	 2.1568904638	 0.120687
H	-0.4121845995	-1.0554891499	 2.2705207744	 0.108422
H	-1.707393855	-0.6458290534	 1.1343445875	 0.111416
H	-0.5748867293	-1.9475302807	 0.7402744364	 0.122189
65.2516	85.4762	110.2496	141.3401	164.5155	194.2066	226.8155	254.3295	265.4742	280.337	301.6583	345.5453	402.4591	477.6321	495.1791	576.1447	692.6022	732.9792	787.5283	852.5181	952.2455	984.9705	1000.144	1023.7291	1061.177	1073.8701	1103.3897	1128.8764	1141.2631	1150.5362	1179.6747	1196.5166	1230.6371	1240.3942	1280.4607	1311.3901	1322.9152	1367.1625	1405.9341	1419.6932	1435.4833	1458.4489	1459.6292	1475.8332	1480.118	1487.3335	1493.0383	1502.3739	1509.7228	1515.1201	1526.365	2964.6699	2992.3622	2997.0333	3024.1033	3034.089	3038.9557	3061.0779	3064.4298	3082.7466	3087.7749	3090.7267	3103.3307	3121.7383	3140.0943	3830.756
CN1C(CCO)C1(C)C	CN1[C@@H](CCO)C1(C)C	
InChI=1S/C7H15NO/c1-7(2)6(4-5-9)8(7)3/h6,9H,4-5H2,1-3H3	InChI=1S/C7H15NO/c1-7(2)6(4-5-9)8(7)3/h6,9H,4-5H2,1-3H3/t6-,8?/m0/s1
