18
gdb 40128	2.88469	1.65134	1.29455	0.912	76.58	-0.2399	-0.001	0.239	1010.3159	0.149601	-401.912776	-401.90556	-401.904616	-401.94426	29.163	
C	-0.0998832338	 1.4924449758	-0.0276544936	-0.289091
N	 1.2112926237	 0.8190505944	-0.0115448685	-0.349866
C	-0.0252844142	 0.0107298454	 0.0135553684	 0.331866
C	-0.2897249215	-0.7443426641	 1.3105837339	-0.341209
C	 0.1304866563	-2.1907403179	 1.2328252635	-0.07934
C	 0.1521072725	-2.8704794572	 0.0853313176	-0.045273
C	-0.237252435	-2.2251195064	-1.1928006087	-0.01188
O	-1.5228885614	-1.5534476584	-1.2254052596	-0.259534
C	-0.3458294696	-0.7540035706	-1.2339605583	-0.032272
H	-0.3390510572	 2.0452971863	 0.8770600408	 0.119506
H	-0.4395165864	 1.9639980803	-0.9467457895	 0.113536
H	 1.6173407266	 0.8197387811	-0.9455213348	 0.228596
H	 0.2380530551	-0.2342969678	 2.1217339259	 0.119409
H	-1.3619227219	-0.6928713932	 1.5434698309	 0.129477
H	 0.4002559172	-2.6833183387	 2.1626762653	 0.098635
H	 0.4528353363	-3.9128522301	 0.0537745753	 0.091033
H	-0.0094777636	-2.7591967425	-2.1128089623	 0.09458
H	-0.1517712931	-0.2272501864	-2.1714400364	 0.081823
102.0216	208.5947	283.3469	299.7672	358.0007	418.1343	507.3423	535.8268	548.4875	701.3319	714.2677	806.7034	819.6771	853.8904	896.1176	931.9729	942.998	970.8523	982.3436	985.0591	1000.1498	1014.9125	1055.7466	1098.3004	1127.4101	1146.4533	1196.1502	1227.2214	1259.4916	1269.6535	1306.6948	1328.391	1368.2328	1397.8606	1422.325	1456.0433	1467.9453	1513.4547	1708.6114	3020.1656	3076.918	3084.8738	3102.7578	3134.1189	3162.6877	3186.8336	3187.0052	3479.9029
C1NC11CC=CC2OC12	C1N[C@]21CC=C[C@H]1O[C@@H]21	
InChI=1S/C7H9NO/c1-2-5-6(9-5)7(3-1)4-8-7/h1-2,5-6,8H,3-4H2	InChI=1S/C7H9NO/c1-2-5-6(9-5)7(3-1)4-8-7/h1-2,5-6,8H,3-4H2/t5-,6-,7+/m1/s1
