13
gdb 27334	3.38133	1.44176	1.01181	3.1325	63.9	-0.222	-0.0314	0.1906	1065.0622	0.090895	-489.943508	-489.936198	-489.935254	-489.975207	28.07	
N	 0.0155874486	 1.3628484312	 0.1513839701	-0.581836
C	-0.0520801956	-0.0075925802	 0.0521927889	 0.142259
C	-1.1666313547	-0.759264228	 0.0194727951	-0.056126
O	-1.1016026246	-2.1409450261	-0.0194867861	-0.177992
C	 0.1074288531	-2.6840079397	-0.0157486294	 0.505388
O	 0.0086535493	-4.0099305683	-0.0333245236	-0.378073
N	 1.2460130909	-2.087360623	-0.003212289	-0.443659
C	 1.2688958549	-0.6987233584	 0.0126199611	 0.373941
O	 2.2987060236	-0.0518487725	-0.0154730468	-0.368106
H	 0.9414694256	 1.7035647798	-0.0766384561	 0.270523
H	-0.7447572377	 1.902703727	-0.2304814253	 0.252055
H	-2.1912710052	-0.4185835154	 0.0243572402	 0.13683
H	 0.916981552	-4.3438521565	-0.0338961991	 0.324795
107.321	196.9795	313.4178	329.5605	379.2949	387.6548	431.4868	487.4852	550.4908	558.4064	591.707	627.4753	755.4941	756.3872	798.0823	810.5067	815.4848	976.692	1090.4705	1176.3495	1243.1451	1281.3556	1326.5621	1419.0902	1491.7615	1607.5493	1649.6865	1714.2519	1777.3721	3245.81	3545.5967	3673.1256	3782.2182
NC1=COC(O)=NC1=O	Nc1coc(O)nc1=O	
InChI=1S/C4H4N2O3/c5-2-1-9-4(8)6-3(2)7/h1H,5H2,(H,6,7,8)	InChI=1S/C4H4N2O3/c5-2-1-9-4(8)6-3(2)7/h1H,5H2,(H,6,7,8)
