25
gdb 60173	3.28864	0.7856	0.73178	1.4017	90.11	-0.2474	0.0718	0.3191	1720.3506	0.225976	-389.489886	-389.478593	-389.477648	-389.526553	41.976	
C	 0.1023950578	 1.5441279365	 0.1580682659	-0.400539
C	 0.0215701393	 0.0163535909	 0.1756209949	 0.141951
O	 0.4738499058	-0.5077387944	 1.4211259294	-0.424738
C	-1.3821405602	-0.4925342527	-0.1918066907	-0.236342
C	-1.4741765192	-2.003504824	-0.2502833759	-0.001723
C	-1.867308365	-2.82579335	 0.9546533446	-0.314205
C	-2.7803528517	-2.7762012173	-0.249897993	 0.324656
C	-4.1054624782	-2.045496725	-0.1329528195	-0.451859
C	-2.8469732104	-4.0102566393	-1.1316776136	-0.447072
H	 1.1066944539	 1.8725067836	 0.438789934	 0.122415
H	-0.1315724218	 1.9450180913	-0.833679052	 0.112852
H	-0.6102923959	 1.9795054547	 0.8701195715	 0.103529
H	 0.7372833457	-0.3827897943	-0.5550430842	 0.086092
H	-0.1433744042	-0.2165822043	 2.1014256562	 0.273602
H	-2.0987594321	-0.0882917185	 0.5362116653	 0.080667
H	-1.6596170912	-0.0583437501	-1.162479091	 0.094633
H	-0.6972998911	-2.4466328724	-0.8713560871	 0.074216
H	-1.3206848038	-3.7392449687	 1.1647280701	 0.105136
H	-2.1794708907	-2.2876825749	 1.8450059585	 0.091401
H	-4.0521094265	-1.1878785028	 0.5424198853	 0.109988
H	-4.4465535204	-1.6805066353	-1.1095815822	 0.11106
H	-4.8805720128	-2.7179788258	 0.2536334629	 0.112233
H	-3.5779328273	-4.7315890152	-0.7461950694	 0.11063
H	-3.1470146703	-3.7514146663	-2.1545884882	 0.110062
H	-1.8780339895	-4.5163085756	-1.1867574216	 0.111354
33.8685	78.4053	115.429	191.526	200.8477	232.8574	240.1541	249.6058	268.0795	296.7186	363.3058	385.5631	428.0564	444.0622	491.2345	504.5237	692.4022	830.5498	844.7536	862.3656	896.948	918.4719	944.2715	967.5026	973.2761	1011.7862	1039.2721	1058.654	1079.0257	1101.5192	1118.7502	1145.1891	1159.2035	1183.9857	1219.2609	1280.7305	1311.0611	1337.3994	1340.8057	1374.2401	1401.0339	1412.4699	1420.3804	1425.7828	1431.4744	1473.3632	1483.2517	1490.9402	1493.8033	1495.0454	1496.0472	1501.8014	1516.0791	3002.9718	3015.6776	3020.1581	3022.8428	3026.1097	3043.2663	3072.7047	3076.042	3092.0492	3096.1815	3110.7647	3116.6158	3118.0972	3120.4437	3202.3432	3798.4376
CC(O)CC1CC1(C)C	C[C@@H](O)C[C@H]1CC1(C)C	
InChI=1S/C8H16O/c1-6(9)4-7-5-8(7,2)3/h6-7,9H,4-5H2,1-3H3	InChI=1S/C8H16O/c1-6(9)4-7-5-8(7,2)3/h6-7,9H,4-5H2,1-3H3/t6-,7+/m1/s1
