15
gdb 42578	3.12615	2.21106	1.71471	3.5167	67.56	-0.2414	-0.0178	0.2236	794.3704	0.115545	-416.746703	-416.740976	-416.740032	-416.776643	23.902	
O	 0.0182227372	 0.0580040895	 0.3350252254	-0.32829
C	-0.0118128818	 1.2203119329	 0.0358653362	 0.408676
C	-1.2080543506	 2.103687821	-0.0912594723	-0.158624
C	-0.8601059777	 3.2914978051	-0.8898707417	-0.047072
C	 0.6583853756	 3.3824036511	-0.6850635294	-0.041334
C	 0.3961730901	 3.8200895995	 0.7630489187	 0.016067
C	 1.3222273805	 2.7040752684	 1.2400462909	-0.19903
N	 1.1527785879	 2.054748103	-0.1349315326	-0.179463
N	-1.0848683244	 3.4605239274	 0.5820756042	-0.169337
H	-2.2085452961	 1.6939033925	-0.0463030358	 0.124802
H	-1.482623408	 3.7523558422	-1.646883146	 0.114813
H	 1.3298325825	 3.8482865523	-1.4020537695	 0.094941
H	 0.4672991235	 4.8399016588	 1.1408072691	 0.097824
H	 2.3542447122	 3.0369080425	 1.3844354896	 0.125929
H	 1.0190857891	 2.0689505138	 2.0763366431	 0.1401
152.8567	328.8178	429.1035	467.2967	605.478	631.2377	688.1977	746.4196	760.2842	794.4429	819.0152	871.9705	889.9293	918.6151	924.8171	929.1712	981.2238	1015.4355	1028.153	1049.9357	1070.2793	1133.2538	1170.9056	1179.4487	1207.6172	1231.3512	1270.237	1278.3827	1297.2966	1306.3182	1349.9881	1504.0066	1852.0772	3054.6277	3113.7986	3117.3499	3145.134	3191.1101	3213.0228
O=C1C2C3C4C(CN14)N23	O=C1[C@@H]2[C@@H]3[C@H]4[C@H](CN14)N23	
InChI=1S/C6H6N2O/c9-6-5-4-3-2(8(4)5)1-7(3)6/h2-5H,1H2	InChI=1S/C6H6N2O/c9-6-5-4-3-2(8(4)5)1-7(3)6/h2-5H,1H2/t2-,3+,4-,5-,8?/m0/s1
