15
gdb 15315	3.12974	1.40641	1.05341	3.444	65.32	-0.2539	-0.0298	0.224	1083.521	0.117012	-399.783905	-399.775764	-399.77482	-399.817649	28.125	
N	-0.2204049512	 1.1918591525	-0.0261114314	-0.427817
C	-0.2767336238	-0.0471858508	-0.241634948	 0.126301
O	-1.0078311816	-0.8346097519	 0.5880183219	-0.186353
C	-1.0110370128	-2.2044288477	 0.291594054	 0.108375
C	-2.137232733	-2.9835799124	 0.8435632946	-0.329522
C	-2.0543029887	-2.7709146332	-0.6712151387	-0.140784
C	-3.0516209007	-1.8723584847	-1.3029737813	 0.158909
O	-3.4803961404	-2.0276352336	-2.4199879402	-0.265458
H	 0.3632538065	 1.6433382858	-0.7272227521	 0.236912
H	 0.2116466019	-0.6027760534	-1.052415238	 0.098952
H	-0.0226344746	-2.6563654106	 0.2548259264	 0.121081
H	-1.9571141538	-3.9805613431	 1.2261462812	 0.139751
H	-2.9015698271	-2.4175633719	 1.3657050189	 0.149872
H	-1.7484992595	-3.6065354973	-1.2910424838	 0.115023
H	-3.3918877111	-1.0307679578	-0.6619337135	 0.094759
51.9735	82.6972	120.4415	184.9267	223.8551	301.3419	437.358	445.2834	541.8069	621.8956	787.2357	827.2381	845.9413	860.43	964.709	1012.6256	1046.4331	1052.1439	1071.1157	1083.7937	1125.8658	1171.3771	1179.0556	1235.7753	1279.5875	1338.5566	1393.3287	1421.4879	1442.9067	1478.1086	1751.8281	1816.0703	2903.5576	3040.1525	3135.3704	3144.4031	3181.9853	3237.8923	3521.9425
N=COC1CC1C=O	[NH][CH]O[C@H]1C[C@H]1C=O	
InChI=1S/C5H7NO2/c6-3-8-5-1-4(5)2-7/h2-6H,1H2	InChI=1S/C5H7NO2/c6-3-8-5-1-4(5)2-7/h2-6H,1H2/t4-,5-/m0/s1
