19
gdb 117497	2.15884	1.00531	0.7202	3.3908	82.11	-0.275	-0.0457	0.2293	1612.6112	0.156983	-419.226709	-419.216239	-419.215295	-419.263472	35.897	
C	 0.0356138767	 1.5191888283	-0.1508082669	-0.392965
C	 0.0461871904	 0.0082984971	-0.0283987477	-0.042771
O	 0.5074636032	-0.5207030633	-1.2875821097	-0.251791
C	 0.5879063734	-1.8568929074	-1.3769225617	 0.341494
N	 0.2864647066	-2.6504328161	-0.4414334754	-0.308515
C	 0.4070633127	-4.0907575762	-0.5959966412	-0.158504
C	 1.3704656003	-4.6596607306	 0.4487327187	-0.363158
C	 1.0672578518	-2.2452323784	-2.6970783161	 0.252284
N	 1.4451943912	-2.6076782244	-3.727457394	-0.333906
H	 1.0377986925	 1.9012447842	-0.3631355572	 0.135026
H	-0.633970674	 1.8413914955	-0.9528333822	 0.135188
H	-0.3113108876	 1.9609682881	 0.7878053593	 0.12607
H	 0.7144384839	-0.3399274999	 0.7659572869	 0.124629
H	-0.9485447595	-0.398479916	 0.1812570662	 0.125073
H	-0.5906871982	-4.5171440493	-0.4347931147	 0.119188
H	 0.727853112	-4.3848381051	-1.6052947062	 0.120113
H	 1.4027523294	-5.7508895272	 0.3782439654	 0.120032
H	 2.3834070459	-4.2762092813	 0.2932959962	 0.124032
H	 1.0523359693	-4.3833459579	 1.4577056502	 0.128482
43.2842	61.7948	110.901	125.3242	146.9972	181.1772	246.9751	249.3876	342.2172	353.0082	359.8967	447.0998	520.0573	642.7475	725.6523	775.1187	811.561	819.1897	904.041	959.3589	1050.7333	1073.0503	1117.3472	1152.813	1169.8019	1181.2723	1285.8391	1288.8249	1307.9338	1384.975	1395.801	1406.5067	1421.952	1485.1355	1488.3867	1492.0643	1495.6331	1511.8126	1518.1402	1725.7455	2351.554	3004.9507	3042.8347	3048.3207	3049.1637	3050.3426	3086.7294	3116.7247	3123.4181	3124.2489	3129.6969
CCOC(=NCC)C#N	CCOC(=NCC)C#N	
InChI=1S/C6H10N2O/c1-3-8-6(5-7)9-4-2/h3-4H2,1-2H3	InChI=1S/C6H10N2O/c1-3-8-6(5-7)9-4-2/h3-4H2,1-2H3
