18
gdb 8925	2.65424	1.56712	1.21608	2.4103	69.8	-0.2588	0.0407	0.2995	1069.9997	0.150141	-384.891229	-384.881474	-384.88053	-384.925799	34.662	
C	 0.081708047	 1.3545019565	 0.164931074	-0.235869
O	 0.0548380164	-0.0499104972	 0.0540280134	-0.26329
C	 0.6413610483	-0.5780355874	-1.1296155104	 0.124058
C	 2.1601588556	-0.6930983094	-1.0066887714	-0.412472
C	-0.023687987	-1.9629210034	-1.3089719044	-0.085298
O	 0.1333987975	-2.7397871119	-0.1326760772	-0.418349
C	-1.4338856352	-1.8247131806	-1.6968511709	 0.335877
C	-2.5870133163	-1.7105988984	-2.0157716287	-0.451589
H	 1.1056445889	 1.752133979	 0.2137102421	 0.109878
H	-0.4388086249	 1.8347699537	-0.6769611974	 0.113309
H	-0.4348314175	 1.6133722977	 1.0923996278	 0.130863
H	 0.3728064929	 0.0523201365	-1.9904553743	 0.078038
H	 2.6109444272	 0.2752473801	-0.7729610908	 0.115559
H	 2.4153100957	-1.4026591798	-0.2160345249	 0.140053
H	 2.5953890909	-1.0449973564	-1.947615674	 0.116942
H	 0.5097821751	-2.5054183757	-2.0983365631	 0.112229
H	-0.2057460274	-2.1896698121	 0.5858239275	 0.294865
H	-3.6071763372	-1.6188078711	-2.2961262971	 0.195196
60.1867	82.6925	142.0724	184.9067	202.1812	222.1539	244.7141	317.8487	352.788	399.7785	447.3164	519.2068	568.6296	626.2929	663.7809	705.1041	806.1262	890.8952	992.9701	999.8626	1050.1145	1118.9434	1133.4055	1159.858	1183.5706	1212.6825	1280.3524	1304.2294	1367.6885	1374.4843	1405.3097	1430.3932	1479.9101	1483.8806	1495.0118	1499.1843	1510.6055	2233.9098	2984.318	2998.434	3035.1097	3043.9016	3049.0044	3111.9836	3115.2668	3135.006	3503.3754	3774.6301
COC(C)C(O)C#C	CO[C@@H](C)[C@@H](O)C#C	
InChI=1S/C6H10O2/c1-4-6(7)5(2)8-3/h1,5-7H,2-3H3	InChI=1S/C6H10O2/c1-4-6(7)5(2)8-3/h1,5-7H,2-3H3/t5-,6-/m0/s1
