17
gdb 45753	3.10089	1.34135	1.01878	2.756	74.97	-0.2356	-0.0168	0.2189	1162.8265	0.137204	-418.036227	-418.028394	-418.02745	-418.069463	29.189	
O	 0.0777161123	 0.0063692087	-0.2357371088	-0.371362
C	-0.0081067976	 1.2015866541	-0.0844603352	 0.388474
C	-1.2303817114	 2.1217092896	-0.0619073987	-0.292053
N	-0.72946091	 3.480423055	 0.1592264393	-0.262026
C	 0.5399138882	 3.3641390498	 0.2474598833	 0.068163
N	 1.060248716	 2.0791084543	 0.1195214696	-0.110245
C	 2.424812972	 1.6437841633	 0.1732732289	 0.063051
C	 3.5423231294	 2.476862635	-0.3922056003	-0.287766
C	 3.4204313835	 2.2794338375	 1.1045350029	-0.287847
H	-1.7810392164	 2.055777763	-1.0065288999	 0.153848
H	-1.9228156762	 1.8248919452	 0.733278183	 0.153879
H	 1.21054189	 4.2007355527	 0.4133161336	 0.138943
H	 2.4592437039	 0.5697435556	 0.034380404	 0.13664
H	 4.3360753646	 1.9671908701	-0.9264070793	 0.130463
H	 3.2943588956	 3.4544161567	-0.7918981898	 0.123686
H	 3.0916918872	 3.1260034163	 1.6979122559	 0.123688
H	 4.1296155989	 1.632775543	 1.6085898213	 0.130466
43.5592	123.8497	172.1733	187.7235	315.0373	420.7738	461.4779	524.1827	602.5004	605.9779	714.678	776.1573	815.3906	882.5712	893.4979	921.7852	946.976	986.1589	990.7299	1045.6614	1065.0237	1074.8694	1096.1846	1143.1842	1180.7394	1196.1369	1198.683	1230.0261	1282.478	1319.1476	1411.1038	1426.9926	1438.6504	1465.9855	1506.746	1674.9849	1832.0122	3055.0781	3090.2504	3135.8401	3138.8788	3191.598	3193.4436	3216.0605	3230.7614
O=C1CN=CN1C1CC1	O=C1CN=CN1C1CC1	
InChI=1S/C6H8N2O/c9-6-3-7-4-8(6)5-1-2-5/h4-5H,1-3H2	InChI=1S/C6H8N2O/c9-6-3-7-4-8(6)5-1-2-5/h4-5H,1-3H2
