18
gdb 36044	3.89774	1.04414	0.93164	2.0345	75.44	-0.2499	0.0163	0.2662	1260.7875	0.148769	-398.086972	-398.078348	-398.077404	-398.120771	31.797	
N	 0.8061591377	-1.4209438219	-0.5717129946	-0.308677
C	 0.5333589109	-0.3110198775	-0.7442210409	 0.251074
C	 0.2295465172	 1.1046138917	-0.9284583474	-0.410824
C	 0.8224487756	 2.0091651096	 0.1601586427	 0.279819
C	 0.9330347532	 1.5180783425	 1.5571468	-0.268099
N	 2.1397535127	 1.702931418	 0.7249177574	-0.350506
C	 0.5799326138	 3.4650947386	-0.1330338446	-0.045039
C	 1.4070769757	 4.5226319468	 0.4871900451	-0.249032
N	 1.5546396074	 4.2145432575	-0.949195166	-0.328663
H	 0.6114207282	 1.4174156629	-1.9082051103	 0.169584
H	-0.8588474264	 1.2328266147	-0.9637409622	 0.163871
H	 0.8305813575	 2.2239764135	 2.3756294441	 0.126404
H	 0.6176257785	 0.5020977029	 1.7778298177	 0.13882
H	 2.4728257274	 0.7977047912	 0.4000146137	 0.249516
H	-0.4551454588	 3.6993258489	-0.3776628808	 0.089764
H	 0.962320048	 5.4889277096	 0.7059537551	 0.1184
H	 2.2030354738	 4.206463418	 1.1537351101	 0.136222
H	 2.3882832375	 3.6359314231	-1.050000339	 0.237364
62.5336	90.4028	134.8674	209.6349	250.1466	321.0395	360.107	393.6746	439.842	490.1613	615.9425	706.8354	821.1228	849.8801	858.9182	915.416	931.7709	963.2602	975.8692	981.3253	1001.4595	1034.8904	1078.1489	1126.2423	1139.4872	1156.0596	1203.3361	1223.2212	1254.2743	1272.8851	1292.3105	1309.0562	1326.4595	1389.7654	1437.7194	1465.9947	1498.7451	1511.3902	2359.6817	3037.053	3072.6102	3114.9257	3116.5007	3120.772	3206.68	3212.7086	3470.4719	3496.3409
N#CCC1(CN1)C1CN1	N#CC[C@]1(CN1)[C@H]1CN1	
InChI=1S/C6H9N3/c7-2-1-6(4-9-6)5-3-8-5/h5,8-9H,1,3-4H2	InChI=1S/C6H9N3/c7-2-1-6(4-9-6)5-3-8-5/h5,8-9H,1,3-4H2/t5-,6+/m1/s1
