18
gdb 80896	2.61354	1.77181	1.49445	1.8918	70.24	-0.2274	0.0647	0.2921	944.2558	0.148973	-439.019074	-439.011653	-439.010708	-439.050281	30.908	
O	-0.1017516673	 1.4304345575	-0.0342567105	-0.466579
C	 0.0503072482	 0.0207023757	-0.0170838186	 0.067065
C	 0.1394853309	-0.6290537982	 1.4012869057	-0.109563
C	-1.377101824	-0.267281888	 1.5520896063	-0.295653
C	-1.3644156008	-0.614007935	 0.003763581	 0.42928
O	-2.3460059885	-0.2196669419	-0.8900197504	-0.503312
C	-1.071034452	-2.1195252756	 0.0755310101	-0.092278
N	 0.3018848099	-2.5144434734	-0.3302636133	-0.345524
C	 0.0170476417	-2.1335948261	 1.0780138704	-0.035914
H	 0.7731403006	 1.8258099611	-0.0759717854	 0.288983
H	 0.753404275	-0.3167705427	-0.7779621953	 0.096965
H	 0.8877806665	-0.3105879372	 2.1259429006	 0.062566
H	-1.9848435596	-0.9002308086	 2.2038807464	 0.085506
H	-1.5526038806	 0.7893900182	 1.7498984008	 0.110424
H	-2.2681949635	 0.7383990277	-0.9776797967	 0.289282
H	-1.88625015	-2.8323286331	 0.0365130875	 0.096243
H	 0.3375501544	-3.530771307	-0.3827011169	 0.229345
H	 0.0965902891	-2.8753654033	 1.8646881882	 0.093165
195.016	228.4146	257.4963	304.1437	374.8433	397.9938	423.459	447.2102	544.7677	604.5537	631.6634	664.0137	806.6133	818.4356	863.0374	871.5358	914.4921	930.215	942.5631	964.7323	985.2824	1041.1932	1069.2238	1078.8064	1111.9911	1138.7365	1140.5005	1164.7264	1194.6249	1217.1509	1223.5424	1263.2591	1282.5837	1299.6503	1334.9773	1390.2091	1414.8389	1430.2836	1494.4047	3068.914	3114.3501	3123.6745	3152.8012	3171.2698	3186.3886	3488.0783	3785.6168	3839.2948
OC1C2CC1(O)C1NC21	O[C@H]1[C@H]2C[C@]1(O)[C@H]1N[C@@H]21	
InChI=1S/C6H9NO2/c8-5-2-1-6(5,9)4-3(2)7-4/h2-5,7-9H,1H2	InChI=1S/C6H9NO2/c8-5-2-1-6(5,9)4-3(2)7-4/h2-5,7-9H,1H2/t2-,3-,4-,5-,6-/m0/s1
