17
gdb 96655	3.85729	0.85285	0.70444	1.727	85.16	-0.2476	-0.0446	0.203	1562.9227	0.132838	-418.006701	-417.996412	-417.995468	-418.043081	35.454	
C	-0.5361907244	 1.7089197111	-1.0492621126	-0.327871
N	-0.2926503904	 0.2870777814	-1.0344083442	-0.290279
C	-0.6472899661	-0.4716634835	-0.0777888223	 0.384436
C	-1.3615882686	-0.1368815918	 1.2048798935	-0.46227
N	-0.3041757425	-1.8269458072	-0.2807835332	-0.363032
C	-0.5151149677	-2.930350276	 0.5124518594	 0.286967
O	-1.067660913	-2.9360369591	 1.5950593043	-0.353744
C	 0.0099919676	-4.1478808226	-0.0943652377	 0.213855
C	 0.4309275325	-5.1712482739	-0.564435576	-0.383849
H	 0.4217893658	 2.2328726542	-1.1507775715	 0.131557
H	-1.1236708957	 1.9598848377	-1.9405744899	 0.131561
H	-1.0558582988	 2.1208634753	-0.1747980477	 0.108648
H	-1.5787952896	 0.9283685275	 1.2631206506	 0.124703
H	-2.2928200537	-0.7022441843	 1.2819531266	 0.160965
H	-0.7583071556	-0.4322413342	 2.0660214154	 0.160965
H	 0.1715436029	-1.9732790545	-1.1612079044	 0.263355
H	 0.7989365872	-6.0824946101	-0.9694995304	 0.214032
47.7394	73.4221	81.4674	117.4083	127.4315	232.0209	246.5739	298.4171	342.7816	377.3294	431.4465	547.6899	611.2883	626.1708	662.9326	681.9459	700.1685	763.0522	812.8217	942.4516	992.3872	1056.3624	1118.0811	1132.3576	1144.2367	1207.9537	1308.1454	1407.6913	1440.2298	1464.8734	1468.676	1485.3523	1496.5176	1518.102	1746.0508	1763.8291	2225.9454	3006.6393	3066.4056	3070.2433	3073.8452	3133.0536	3166.2309	3494.752	3596.8052
CN=C(C)NC(=O)C#C	CN=C(C)NC(=O)C#C	
InChI=1S/C6H8N2O/c1-4-6(9)8-5(2)7-3/h1H,2-3H3,(H,7,8,9)	InChI=1S/C6H8N2O/c1-4-6(9)8-5(2)7-3/h1H,2-3H3,(H,7,8,9)
