16
gdb 21220	5.36536	1.33156	1.09053	3.1775	68.85	-0.213	0.0092	0.2222	1082.4706	0.130587	-379.9223	-379.914128	-379.913184	-379.955345	28.827	
C	-0.0258056311	 1.4273789076	-0.0838561985	-0.32709
N	-0.1381045159	-0.0094593572	 0.1020986749	-0.372209
C	 0.6325451632	-0.6378050643	 1.0559360052	 0.450546
N	 0.9820054373	-1.9007347182	 0.9079555252	-0.255084
O	 1.6798706019	-2.2272514133	 2.0826644889	-0.216596
C	 1.7397989225	-1.1498368102	 2.8789482338	 0.454569
C	 2.4557448145	-1.3100121627	 4.1736781499	-0.490981
C	 1.1006034881	-0.1014304088	 2.2959465379	-0.422548
H	 0.985135008	 1.762541222	-0.3613032498	 0.118277
H	-0.7203274394	 1.7346866022	-0.869050452	 0.130888
H	-0.3182216867	 1.9482650635	 0.8330116238	 0.135337
H	-0.1914702952	-0.5437337241	-0.7538706104	 0.247974
H	 1.9964625094	-2.098375927	 4.7788541114	 0.15013
H	 3.5020043865	-1.5890221492	 4.010631097	 0.149134
H	 2.4288149317	-0.3767201743	 4.7391011469	 0.137891
H	 0.9742393353	 0.8922592239	 2.6903759556	 0.109763
77.4329	90.5979	140.6059	189.7716	212.0506	323.4939	377.4713	471.3116	564.5212	625.0555	656.1392	729.1925	760.2865	781.5105	927.4969	996.9108	1023.8558	1032.3088	1064.1378	1087.7339	1152.7684	1180.8674	1184.2568	1320.6516	1409.7083	1426.1889	1453.6412	1473.2661	1484.0871	1490.4016	1513.9283	1518.5182	1574.8337	1664.6839	2988.3062	3042.5153	3076.7133	3098.8919	3121.9528	3138.1091	3280.1355	3594.756
CNC1=NOC(C)=C1	CNc1noc(C)c1	
InChI=1S/C5H8N2O/c1-4-3-5(6-2)7-8-4/h3H,1-2H3,(H,6,7)	InChI=1S/C5H8N2O/c1-4-3-5(6-2)7-8-4/h3H,1-2H3,(H,6,7)
