18
gdb 55289	2.46705	1.39129	1.15731	3.7571	67.68	-0.2505	0.0121	0.2626	1114.1423	0.147059	-476.24071	-476.2318	-476.230856	-476.274409	33.391	
C	-0.2445470717	 1.5227377927	 0.0093539977	-0.468074
C	-0.0572051752	 0.0170819391	-0.1023717532	 0.394525
O	-1.2177068436	-0.6268280269	-0.5647426117	-0.462284
C	 1.1848379198	-0.4459569778	-0.9038891189	-0.199593
N	 1.894449894	-0.7586684366	 0.3678848325	-0.345934
H	 2.3547276427	-1.661852617	 0.3902609034	 0.237581
H	 2.4629742463	 0.455521553	 1.7765725263	 0.301271
C	 0.632721644	-0.6728749559	 1.1422428847	-0.193172
C	 0.7484581608	 0.1485421042	 2.4166753177	 0.428543
O	 1.9454862821	 0.7371686996	 2.5632399002	-0.372669
O	-0.1618069737	 0.294336896	 3.1902301008	-0.350843
H	 0.6818767121	 2.0181070135	 0.3131569996	 0.134789
H	-0.5602543341	 1.9288215369	-0.9560187438	 0.126392
H	-1.0048966165	 1.7610254425	 0.7614473431	 0.139401
H	-1.9703908494	-0.2879610809	-0.0667211939	 0.288143
H	 0.9434346758	-1.3262747088	-1.5075085032	 0.1211
H	 1.6885757628	 0.3003635343	-1.5250972659	 0.113996
H	 0.1395263039	-1.6240572779	 1.3600461745	 0.106827
69.3733	110.3271	152.1496	243.2106	269.5413	306.7858	316.1167	363.199	411.1673	453.7117	480.4121	629.373	643.9484	717.0032	773.1758	851.2699	903.8437	912.7502	931.2609	959.6152	986.6538	1019.5934	1036.144	1121.087	1140.1326	1166.4441	1181.1178	1230.6564	1270.5012	1304.4859	1338.0996	1363.6039	1397.3466	1413.741	1424.9533	1491.5865	1494.4363	1510.1314	1862.0489	3036.0809	3044.6746	3078.6213	3099.2237	3108.276	3122.1434	3476.5858	3535.5327	3799.3818
CC1(O)C[NH2+]C1C([O-])=O	C[C@@]1(O)CN[C@H]1C(=O)O	
InChI=1S/C5H9NO3/c1-5(9)2-6-3(5)4(7)8/h3,6,9H,2H2,1H3,(H,7,8)	InChI=1S/C5H9NO3/c1-5(9)2-6-3(5)4(7)8/h3,6,9H,2H2,1H3,(H,7,8)/t3-,5+/m0/s1
