18
gdb 87019	2.07469	1.5514	1.05198	2.3077	80.15	-0.2494	-0.0279	0.2215	1194.072	0.144165	-401.918473	-401.908628	-401.907683	-401.953064	35.895	
C	-0.2927893572	 1.5631724447	 0.3051103883	-0.403882
C	-0.1666226527	 0.0658563235	 0.2038955447	-0.010076
N	 1.0492024759	-0.4770701086	-0.3664082709	-0.35288
C	 0.805719594	-0.7207815454	 1.0766486373	 0.00033
C	 1.6600492204	-0.0476137479	 2.0157611259	 0.244537
C	 2.3586233364	 0.5055404415	 2.8235358415	-0.397412
C	 0.3163950377	-2.1153514575	 1.4175177204	 0.342054
C	 0.3836698334	-2.5576927202	 2.8581082025	-0.500901
O	-0.1145942014	-2.8246841796	 0.5325315049	-0.321864
H	 0.6660970242	 2.0177797186	 0.5601882089	 0.143362
H	-0.6244862228	 1.9715608804	-0.6554130113	 0.129211
H	-1.0295680388	 1.8419043393	 1.0651519412	 0.122285
H	-1.087299839	-0.4767370424	-0.0059917374	 0.107773
H	 0.831294154	-1.3598180674	-0.8330345971	 0.250741
H	 2.9870050818	 0.9950801554	 3.5259701494	 0.1956
H	 1.4299307064	-2.6242691382	 3.1747868657	 0.159437
H	-0.0900989693	-1.8182900978	 3.5117365009	 0.148932
H	-0.0998932229	-3.5287977785	 2.9654706151	 0.142755
69.7561	138.4666	147.731	154.8805	172.4273	189.1199	250.7706	345.1572	365.1883	443.558	518.167	550.0424	559.1502	605.3804	617.783	646.5865	663.8433	783.8774	866.4548	951.684	973.5947	1025.615	1039.2255	1054.2579	1095.3675	1138.9774	1199.3362	1257.522	1274.7444	1349.8317	1387.459	1404.5253	1444.2705	1456.239	1469.0885	1485.1096	1491.8628	1785.6693	2235.5615	3041.5825	3046.2564	3104.4809	3107.855	3121.5784	3144.3163	3159.4005	3446.7388	3500.8055
CC1NC1(C#C)C(C)=O	C[C@H]1N[C@]1(C#C)C(=O)C	
InChI=1S/C7H9NO/c1-4-7(6(3)9)5(2)8-7/h1,5,8H,2-3H3	InChI=1S/C7H9NO/c1-4-7(6(3)9)5(2)8-7/h1,5,8H,2-3H3/t5-,7+/m1/s1
