27
gdb 117828	2.19957	0.93231	0.81592	1.3199	91.9	-0.2607	0.0711	0.3317	1622.1912	0.249602	-390.695757	-390.683663	-390.682719	-390.733026	44.406	
C	 0.241880399	 1.4684391443	-0.0029394148	-0.407865
C	-0.0327169032	-0.0372759393	 0.0891987014	-0.179266
C	-1.5172992059	-0.4927762377	 0.0259102059	 0.25364
C	-2.2753320907	 0.0562411649	 1.251683791	-0.419338
C	-2.2204758954	 0.0353775181	-1.2521472533	-0.18525
C	-1.6160386656	-0.3924995335	-2.5945627955	-0.402828
C	-1.4963428938	-2.0422558335	 0.0740060388	-0.177037
C	-2.8371574961	-2.764790437	-0.0145458854	-0.103313
O	-2.5631866105	-4.1569741505	 0.0983967096	-0.420781
H	 1.3167219995	 1.6596824289	 0.0784337322	 0.112259
H	-0.0912145961	 1.8908687323	-0.9561407688	 0.11776
H	-0.2483479792	 2.0292812085	 0.7986414328	 0.116542
H	 0.5235134979	-0.5440110646	-0.7087509039	 0.093746
H	 0.3917672463	-0.416291078	 1.028082511	 0.090206
H	-2.2571471692	 1.1500385175	 1.2758436614	 0.110861
H	-3.3277245939	-0.244018524	 1.2447065793	 0.108797
H	-1.8311514681	-0.3062981218	 2.1855622142	 0.107287
H	-3.273505643	-0.271018089	-1.2229355988	 0.089476
H	-2.2411277732	 1.1308106938	-1.205696896	 0.09189
H	-0.5822903458	-0.0503731726	-2.7050815706	 0.118733
H	-1.6185141782	-1.480012524	-2.718771127	 0.120502
H	-2.1907938399	 0.0322898085	-3.4237797101	 0.110857
H	-0.8628014978	-2.4288692771	-0.7325501048	 0.100981
H	-1.0165568063	-2.3581649867	 1.0087485204	 0.098352
H	-3.5123366368	-2.4345712457	 0.7892495155	 0.085026
H	-3.3350062234	-2.5433531016	-0.9709908819	 0.085507
H	-3.3979217607	-4.6307281002	 0.0410423574	 0.283254
62.2737	73.0364	93.8303	135.439	150.4933	218.1981	230.1079	257.8725	267.572	282.3123	311.0513	334.8949	336.9797	369.1484	413.703	481.588	553.3158	715.163	764.5869	791.751	800.7927	874.7884	919.5968	977.9913	1008.939	1012.5926	1025.7937	1031.31	1056.402	1067.2877	1092.6734	1118.5603	1193.7966	1204.6425	1229.3417	1253.5962	1266.0374	1306.4203	1311.6885	1339.9416	1356.6445	1376.4974	1385.9674	1411.1229	1414.0842	1417.8851	1460.9286	1475.9746	1485.706	1492.6799	1497.1136	1501.8317	1507.1713	1507.9871	1513.1701	1515.1665	1529.788	2974.0104	3000.3794	3017.4086	3026.0104	3028.384	3033.5322	3038.6345	3039.4282	3049.2891	3052.9424	3069.8861	3096.9054	3099.6625	3101.7185	3102.2219	3107.8382	3109.9805	3829.049
CCC(C)(CC)CCO	CCC(C)(CC)CCO	
InChI=1S/C8H18O/c1-4-8(3,5-2)6-7-9/h9H,4-7H2,1-3H3	InChI=1S/C8H18O/c1-4-8(3,5-2)6-7-9/h9H,4-7H2,1-3H3
