16
gdb 125086	3.21811	1.19065	0.9062	2.2306	73.9	-0.2364	0.0003	0.2367	1242.5322	0.124865	-434.080833	-434.072133	-434.071189	-434.115473	30.447	
C	-0.2757810135	 1.3395545999	-0.4630384806	-0.523284
C	-0.0532518451	-0.1130137935	-0.1738070525	 0.089472
C	 0.3476618249	-1.1061375611	-1.0449907149	 0.349987
N	 0.4476506538	-2.261509856	-0.343144524	-0.255661
N	 0.1446138408	-2.0952415256	 0.9599020261	-0.224541
C	-0.1652573791	-0.8067459714	 1.0578053245	-0.064142
O	 0.6853960909	-1.0922492966	-2.3640173669	-0.212451
C	-0.2909240758	-0.7414265587	-3.2569616569	 0.10922
N	 0.0101297882	-0.6215002924	-4.4704570428	-0.424408
H	 0.1997265806	 1.9680540065	 0.2965550484	 0.138306
H	 0.1491513301	 1.6184321391	-1.4316589098	 0.137254
H	-1.3399598419	 1.6022945323	-0.4790567208	 0.130973
H	 0.7531934363	-3.1563770231	-0.6876655149	 0.281834
H	-0.4532311209	-0.4002477918	 2.0172492405	 0.113782
H	-1.267806971	-0.6075073709	-2.7795677334	 0.112951
H	-0.8139305083	-0.3735470868	-5.014013842	 0.240707
41.2629	82.1837	110.4105	147.0472	247.5578	253.5682	389.3098	422.2597	494.6142	502.9125	671.9459	691.7973	699.7252	818.1112	831.1757	881.8377	946.5685	1000.8844	1031.1073	1047.6026	1066.0411	1130.1256	1218.902	1244.0549	1252.7409	1307.8737	1378.1727	1400.8726	1422.7802	1447.8282	1487.9983	1498.8903	1524.0363	1643.557	1751.1976	3030.0719	3066.4168	3084.7225	3110.3832	3235.978	3524.7322	3670.3476
CC1=C(NN=C1)OC=N	Cc1c([nH]nc1)O[CH][NH]	
InChI=1S/C5H7N3O/c1-4-2-7-8-5(4)9-3-6/h2-3,6H,1H3,(H,7,8)	InChI=1S/C5H7N3O/c1-4-2-7-8-5(4)9-3-6/h2-3,6H,1H3,(H,7,8)
