20
gdb 22849	3.06276	1.16111	0.91701	0.8884	78.79	-0.2405	0.0128	0.2533	1286.1898	0.172152	-440.250141	-440.241505	-440.240561	-440.283499	33.141	
O	 0.0070625702	 1.3854210715	-0.2007276974	-0.399943
N	 0.0879107449	-0.0181821326	-0.156593039	-0.181416
C	-1.0489491485	-0.5815374494	 0.011794779	 0.363071
C	-1.0063912541	-2.0919813469	 0.0627105451	-0.262114
C	-1.4364417531	-2.6530168432	 1.4346956619	-0.231564
C	-2.960790724	-2.7472112181	 1.6171054176	-0.065104
O	-3.7021636322	-1.7220334472	 0.97879085	-0.242887
C	-3.2841859503	-0.3967934491	 1.2504817139	-0.091478
C	-2.3627557249	 0.1468155926	 0.1484755849	-0.290295
H	 0.9315384807	 1.6318378108	-0.3067020876	 0.304435
H	-1.6524036989	-2.50622782	-0.7218444453	 0.111974
H	 0.0200635701	-2.3951236717	-0.1566330228	 0.114482
H	-1.0229164906	-3.6594279833	 1.5660117566	 0.103859
H	-0.9875976112	-2.0383327746	 2.2229440146	 0.109058
H	-3.3332809343	-3.6728097361	 1.1656018268	 0.109105
H	-3.2026793595	-2.7853895248	 2.6918357751	 0.089454
H	-4.1894073859	 0.2200772162	 1.2822461129	 0.107808
H	-2.8058497597	-0.3229864886	 2.2376177624	 0.097225
H	-2.1766218819	 1.2097651645	 0.314559618	 0.130005
H	-2.9074596367	 0.0577654399	-0.8013754866	 0.124322
65.7371	138.6892	199.4498	257.1193	268.6016	331.175	339.7594	375.2245	417.9253	456.6038	559.4267	578.2635	672.6053	740.4573	820.9268	852.943	883.7122	919.3198	945.9943	988.9783	1014.188	1055.7852	1073.2861	1103.5558	1153.0788	1195.3249	1229.1954	1248.0832	1279.4382	1291.3339	1314.7741	1351.9812	1357.803	1375.4657	1399.3598	1411.0789	1421.4853	1460.3264	1474.6353	1489.5119	1501.0831	1512.4308	1723.072	2971.7442	3002.1643	3024.2812	3030.7603	3038.288	3059.423	3062.3144	3082.4124	3103.8785	3117.1657	3824.4062
ON=C1CCCOCC1	ON=C1CCCOCC1	
InChI=1S/C6H11NO2/c8-7-6-2-1-4-9-5-3-6/h8H,1-5H2	InChI=1S/C6H11NO2/c8-7-6-2-1-4-9-5-3-6/h8H,1-5H2
