15
gdb 27822	2.02503	1.93823	0.99649	5.0916	71.57	-0.2436	-0.0312	0.2124	1124.4589	0.114236	-450.229141	-450.220645	-450.219701	-450.262811	30.365	
C	-0.0209891192	 1.5009872373	-0.0020671606	-0.4898
C	 0.0003686594	 0.0016502285	-0.0605393453	 0.406159
N	-0.0187376467	-0.6110875728	-1.209091634	-0.362073
C	 0.0057436884	-1.9915418926	-1.1222954154	 0.435104
N	-0.0140743069	-2.6105131275	-2.3195033456	-0.543168
N	 0.0449998116	-2.7361724289	-0.0377494924	-0.384268
C	 0.0646563066	-2.1086046315	 1.1734568714	 0.418193
O	 0.102034217	-2.6315576501	 2.2644299371	-0.389386
N	 0.0403202207	-0.6768065672	 1.1044306159	-0.363842
H	 0.8749559923	 1.8784201353	 0.5022001202	 0.151124
H	-0.0609546042	 1.8997254648	-1.0146565372	 0.161239
H	-0.8916099355	 1.8517083294	 0.5621502044	 0.150632
H	-0.0440189532	-2.0623360029	-3.1596004548	 0.270836
H	 0.001376546	-3.614312052	-2.3520030965	 0.274495
H	 0.0551236837	-0.19972986	 1.9945243729	 0.264755
82.7548	90.6697	139.3137	187.2211	199.8251	295.2721	366.7967	533.3864	559.3035	582.591	590.0808	596.5053	660.26	670.9268	781.2039	817.1119	909.0632	963.1746	1027.2489	1065.0928	1072.986	1092.2575	1254.6439	1274.0095	1402.2144	1444.8235	1459.1344	1482.8724	1490.4375	1571.5296	1636.9763	1675.143	1831.0478	3045.2945	3104.2037	3169.0196	3613.8057	3631.5739	3774.2454
CC1=NC(N)=NC(=O)N1	Cc1nc(N)nc(=O)[nH]1	
InChI=1S/C4H6N4O/c1-2-6-3(5)8-4(9)7-2/h1H3,(H3,5,6,7,8,9)	InChI=1S/C4H6N4O/c1-2-6-3(5)8-4(9)7-2/h1H3,(H3,5,6,7,8,9)
