19
gdb 71669	2.84943	1.97024	1.78119	1.7551	76.4	-0.2336	0.0982	0.3317	883.3145	0.161892	-385.87532	-385.868803	-385.867859	-385.905732	28.07	
C	 0.0383072977	 1.5112622336	-0.1050131789	-0.512819
C	 0.0276047329	 0.0156469104	 0.0344755542	 0.436688
O	 0.8659919054	-0.6982781915	-0.9320393028	-0.336008
C	 0.7401807306	-1.8061457647	 0.0032150766	 0.061066
C	-0.7599526872	-2.1712155233	-0.0206673455	-0.080219
C	-1.415610016	-1.6332595186	 1.2348900737	-0.070964
C	-0.3265569931	-1.219970332	 2.2144877512	-0.254074
C	 0.707726573	-0.7976332455	 1.1890527268	-0.109203
C	-1.3145464577	-0.7598019529	 0.0021290707	-0.118592
H	 1.0598970934	 1.8985788139	-0.0652881313	 0.126969
H	-0.405157071	 1.8104971198	-1.0608089333	 0.129028
H	-0.5438254517	 1.9745089298	 0.6980785069	 0.122743
H	 1.4884884549	-2.5858933406	-0.1309848634	 0.073834
H	-1.1725494974	-2.9701216497	-0.6206820585	 0.088864
H	-2.3731560388	-2.0165661671	 1.5684258834	 0.082721
H	-0.6358311839	-0.3959722851	 2.8678646866	 0.099209
H	 0.0131241202	-2.0497870407	 2.8447397955	 0.099538
H	 1.6753564774	-0.4210704529	 1.5135933747	 0.075549
H	-2.1664725487	-0.4369205728	-0.5810139264	 0.085668
189.3116	233.8144	276.916	402.9506	510.4433	536.7944	597.5749	670.5252	725.8117	737.3705	801.6442	810.1443	824.069	846.5707	864.8954	886.5464	926.7517	959.3342	966.6478	976.125	984.1551	1024.5886	1052.8758	1068.7389	1073.1676	1117.5588	1124.6516	1190.9447	1206.6312	1229.9145	1241.8644	1247.2735	1276.5967	1286.7691	1310.9149	1371.0206	1388.1185	1416.212	1479.3695	1490.2058	1492.7591	3034.4437	3036.8003	3075.8314	3103.9805	3117.9244	3130.0282	3147.8878	3178.0908	3202.8366	3216.1806
CC12OC3C4C(CC13)C24	C[C@@]12O[C@@H]3[C@H]4[C@@H](C[C@H]13)[C@@H]24	
InChI=1S/C8H10O/c1-8-4-2-3-5(6(3)8)7(4)9-8/h3-7H,2H2,1H3	InChI=1S/C8H10O/c1-8-4-2-3-5(6(3)8)7(4)9-8/h3-7H,2H2,1H3/t3-,4+,5+,6-,7+,8-/m1/s1
