16
gdb 99050	3.18808	0.89365	0.79077	3.838	66.75	-0.283	-0.017	0.266	1448.6833	0.121359	-475.061144	-475.051223	-475.050279	-475.097654	33.596	
C	-0.0074645412	 1.7806333488	-0.4201189895	-0.401599
C	-0.1313926894	 0.3701617113	 0.1466448673	-0.014762
O	-1.5383204829	 0.0672269909	 0.2613095736	-0.242527
C	-1.8900074848	-0.8023649699	 1.2306001481	 0.423825
O	-1.1220448677	-1.3182565455	 2.0033102477	-0.358702
C	-3.381905189	-1.0689249375	 1.2361112038	-0.14551
O	-3.7416268351	-1.8813810794	 2.3148653623	-0.414732
C	 0.5118807993	-0.6295967685	-0.7212327541	 0.281652
N	 1.0292926812	-1.3953835346	-1.4136411298	-0.306573
H	 1.046738617	 2.0453753192	-0.5303932157	 0.15071
H	-0.4914838559	 1.8461122714	-1.3968063348	 0.154542
H	-0.4827336066	 2.4878737695	 0.2631659123	 0.142553
H	 0.3201622183	 0.2953903275	 1.1397450247	 0.16251
H	-3.9105532301	-0.1067486517	 1.2778665493	 0.133572
H	-3.6387462271	-1.5279993763	 0.2677377396	 0.134314
H	-2.913985296	-2.1910439853	 2.7094257753	 0.300728
26.7177	65.7575	83.8059	151.4217	193.5084	219.0078	270.4664	317.2934	326.7168	351.8204	424.1185	563.0854	569.2953	620.0788	715.5558	824.428	898.064	948.3039	1037.355	1049.5383	1115.1531	1129.8889	1149.5062	1229.6375	1244.6772	1315.4627	1329.355	1376.733	1411.4927	1461.0036	1483.45	1494.102	1494.4788	1818.6571	2365.5227	2987.2875	3032.3253	3059.6064	3086.5363	3141.7663	3146.7479	3740.559
CC(OC(=O)CO)C#N	C[C@@H](OC(=O)CO)C#N	
InChI=1S/C5H7NO3/c1-4(2-6)9-5(8)3-7/h4,7H,3H2,1H3	InChI=1S/C5H7NO3/c1-4(2-6)9-5(8)3-7/h4,7H,3H2,1H3/t4-/m1/s1
