20
gdb 113778	2.98583	1.01828	0.97097	2.0271	74.71	-0.2504	0.0675	0.3179	1320.4984	0.169397	-440.227735	-440.218111	-440.217167	-440.263553	35.222	
C	-0.4629160513	-0.9867345118	 3.4829632667	-0.455042
C	-0.2773753159	-0.8820988315	 1.9829063226	 0.264678
C	 0.7986640391	-0.0066936346	 1.439150928	-0.266421
N	 0.9292623573	-1.4717885679	 1.3754756127	-0.35232
C	-1.51757506	-1.1409311001	 1.148897259	 0.005919
O	-2.7899386599	-1.0558116657	 1.7997258972	-0.26866
C	-2.4950316748	-0.110532008	 0.7563325425	 0.035583
C	-2.4285606297	 1.327672884	 1.2038109349	-0.086672
O	-3.7179795609	 1.8192959397	 1.5297485114	-0.419136
H	 0.4777251964	-0.7737249212	 4.0010729875	 0.109052
H	-1.221841393	-0.287453434	 3.8423777782	 0.133291
H	-0.7928361424	-1.992883071	 3.7632047815	 0.131952
H	 0.6707842929	 0.4797818688	 0.4756828508	 0.118589
H	 1.4116751406	 0.5477305115	 2.1460735863	 0.112118
H	 1.5616501962	-1.7988296856	 2.102171523	 0.230825
H	-1.4117759205	-2.0027212184	 0.4895120724	 0.107289
H	-3.0747513658	-0.274645606	-0.1535240293	 0.099347
H	-1.7313313672	 1.4285335865	 2.047167774	 0.09521
H	-2.0575228525	 1.9561476112	 0.3866718236	 0.112076
H	-4.0816241786	 1.221662224	 2.193030507	 0.292321
18.6945	76.9899	121.7466	187.4604	206.4115	273.1883	319.0123	366.358	380.0032	409.4205	453.8463	499.2925	596.0709	711.8901	807.186	848.9175	851.524	931.0519	937.5882	959.1657	986.7821	1015.1834	1054.7363	1058.181	1072.188	1118.215	1129.6749	1156.1539	1165.5048	1229.7827	1268.9767	1284.0537	1328.7713	1342.6155	1357.7638	1396.2395	1415.5984	1429.161	1473.9547	1478.7144	1494.2015	1503.3292	1513.1072	3009.4916	3035.022	3070.6652	3099.2336	3099.7155	3101.4147	3112.732	3119.3375	3184.8481	3495.3148	3800.1808
CC1(CN1)C1OC1CO	C[C@]1(CN1)[C@H]1O[C@H]1CO	
InChI=1S/C6H11NO2/c1-6(3-7-6)5-4(2-8)9-5/h4-5,7-8H,2-3H2,1H3	InChI=1S/C6H11NO2/c1-6(3-7-6)5-4(2-8)9-5/h4-5,7-8H,2-3H2,1H3/t4-,5-,6-/m0/s1
