20
gdb 22916	2.23827	1.47546	1.07503	1.1855	77.47	-0.2488	-0.0033	0.2455	1190.9457	0.17076	-440.262127	-440.252986	-440.252042	-440.295858	35.104	
C	 0.1845439589	 1.609939146	 0.0101509149	-0.391698
C	 0.0117121748	 0.0805664892	 0.0477049659	-0.065986
C	 0.6686812343	-0.631579378	-1.1616318498	-0.231672
C	 2.1266596936	-0.8744404949	-0.7290248014	-0.23772
C	 2.0293558203	-1.2364849803	 0.7600116735	 0.070525
O	 3.1920154476	-0.8269728149	 1.4503542809	-0.442388
C	 0.7546414011	-0.5315126275	 1.2204750444	 0.372634
N	 0.3110111012	-0.4419134487	 2.40914686	-0.237441
O	 1.171901004	-1.1071163918	 3.3238957337	-0.411621
H	 1.2395459093	 1.8934875775	-0.058956333	 0.125603
H	-0.3383119531	 2.0317111654	-0.8545406564	 0.113209
H	-0.2237900458	 2.0620892693	 0.9178476451	 0.131094
H	-1.0569285466	-0.1430389556	 0.1162038653	 0.089994
H	 0.1682030102	-1.5895181254	-1.3443617305	 0.102051
H	 0.5914185794	-0.045316641	-2.0813178077	 0.101264
H	 2.6303532453	-1.6436947533	-1.3184207818	 0.10356
H	 2.7176369474	 0.0437260332	-0.8095147362	 0.119142
H	 1.8673762273	-2.3223358304	 0.876730861	 0.085177
H	 2.9995450432	-0.9424104353	 2.3894030331	 0.294389
H	 0.7482694374	-0.9303227534	 4.1698149287	 0.309884
56.7946	154.0583	186.8448	227.024	238.0892	300.7934	329.0864	388.7357	411.9571	433.1862	479.622	493.3144	578.1037	630.259	683.038	796.9647	824.9997	893.9969	935.4754	944.2698	967.8874	998.4784	1028.4161	1084.8112	1098.4329	1123.7234	1184.6039	1198.9982	1225.7883	1279.8186	1292.7181	1309.9858	1335.1704	1345.5909	1357.5364	1384.6429	1406.9769	1429.7986	1486.3578	1495.3659	1501.0892	1505.3865	1745.5085	2946.6264	3035.0048	3038.9362	3058.9313	3062.9944	3093.3767	3105.7292	3112.4525	3119.6721	3776.74	3830.8113
CC1CCC(O)C1=NO	C[C@H]1CC[C@@H](O)C1=NO	
InChI=1S/C6H11NO2/c1-4-2-3-5(8)6(4)7-9/h4-5,8-9H,2-3H2,1H3	InChI=1S/C6H11NO2/c1-4-2-3-5(8)6(4)7-9/h4-5,8-9H,2-3H2,1H3/t4-,5+/m0/s1
