13
gdb 27853	2.10636	1.99369	1.02424	3.0355	66.5	-0.2321	-0.025	0.207	1058.2257	0.090519	-486.129744	-486.121982	-486.121037	-486.162179	28.774	
N	 0.0154727475	 1.3068979504	 0.0077279631	-0.545501
C	-0.0159428758	-0.0371454236	 0.0007419594	 0.450122
N	-1.1770375561	-0.6422709829	 0.0037098332	-0.343497
C	-1.2127957831	-1.9886014505	-0.0028952073	 0.426271
N	-2.2308537316	-2.7305501535	-0.0016503086	-0.532785
O	 0.1042708675	-2.6667493267	-0.0132886273	-0.282997
C	 1.1905461509	-1.9095425573	-0.0150179374	 0.502179
O	 2.3184866823	-2.6080679541	-0.0244971088	-0.375411
N	 1.2363739682	-0.6259441761	-0.0086657585	-0.3961
H	 0.9007393323	 1.7802109754	 0.0057585967	 0.277159
H	-0.8488418197	 1.8189288455	 0.0149739791	 0.277957
H	-1.97138944	-3.7137356372	-0.0080859676	 0.224392
H	 2.0889694576	-3.5476896796	-0.0281553761	 0.31821
110.8547	149.1154	186.584	192.7081	339.705	360.5286	510.3584	529.0495	539.4658	587.3175	593.528	656.8705	715.1047	740.3364	787.8527	794.9238	808.8174	950.4835	997.3455	1093.9034	1173.4681	1242.6706	1281.5811	1427.8604	1469.7582	1578.8021	1657.7054	1723.3361	1809.9864	3535.9937	3630.4994	3772.1514	3784.7747
NC1=NC(=N)OC(O)=N1	N[C@@H]1N=C([NH])OC(=N1)O	
InChI=1S/C3H4N4O2/c4-1-6-2(5)9-3(8)7-1/h(H4,4,5,6,7,8)	InChI=1S/C3H5N4O2/c4-1-6-2(5)9-3(8)7-1/h1,5H,4H2,(H,7,8)/t1-/m1/s1
