19
gdb 73795	2.07852	1.8111	1.00207	5.3796	82.4	-0.2094	-0.0176	0.1917	1175.486	0.160604	-419.243426	-419.234489	-419.233545	-419.276738	34.013	
C	 0.0078664777	 1.5394156492	-0.0162089861	-0.529507
C	-0.003488258	 0.0325037043	-0.0423833076	 0.110022
C	-1.1584359714	-0.6864603635	-0.0107304917	 0.291335
N	-2.3916461995	-0.107405064	 0.1386916504	-0.563144
C	-1.1680080328	-2.1959645022	-0.0387834613	-0.253921
N	 0.0336196661	-2.6999825842	-0.6795377324	-0.306751
C	 1.241586982	-2.1937017227	-0.0371822034	-0.280694
C	 1.2794011214	-0.6652632	-0.0445421381	 0.344481
O	 2.3555666522	-0.0878224052	-0.0093196445	-0.36307
H	 1.036930562	 1.8847802996	-0.1280403018	 0.158744
H	-0.5901564927	 1.9721405274	-0.8295884771	 0.109131
H	-0.3800099829	 1.9432561231	 0.9284294644	 0.117582
H	-2.4569107593	 0.892664036	 0.0366485771	 0.261873
H	-3.1993872267	-0.6174008747	-0.1808625949	 0.255049
H	-1.3040721159	-2.552376596	 1.0034204328	 0.103529
H	-2.043315594	-2.5438391384	-0.6032625075	 0.101699
H	 0.0289465009	-3.7137875631	-0.6660963992	 0.224376
H	 1.3457251378	-2.5140982794	 1.0194530004	 0.094657
H	 2.1247009929	-2.5497393963	-0.5726093494	 0.12461
106.0469	118.3176	151.6766	225.6404	294.1767	302.3606	351.816	403.1413	438.6409	454.2053	466.1191	536.5865	576.3286	621.8046	649.1588	693.4026	860.8769	891.8415	972.3519	986.6137	1032.5609	1044.4658	1058.3048	1115.9307	1174.7401	1196.9677	1229.1621	1282.1795	1287.7435	1323.6686	1368.9483	1397.5691	1435.8977	1476.6196	1490.3913	1493.2725	1495.7481	1502.4183	1643.6741	1680.912	1743.6171	2886.5945	2899.4509	3004.7793	3026.2589	3048.2936	3100.3438	3136.8647	3527.6066	3590.1016	3701.0314
CC1=C(N)CNCC1=O	CC1=C(N)CNCC1=O	
InChI=1S/C6H10N2O/c1-4-5(7)2-8-3-6(4)9/h8H,2-3,7H2,1H3	InChI=1S/C6H10N2O/c1-4-5(7)2-8-3-6(4)9/h8H,2-3,7H2,1H3
