17
gdb 38049	3.33764	1.78516	1.70601	1.9643	76.28	-0.2301	0.0011	0.2312	867.6506	0.137588	-384.606052	-384.59986	-384.598916	-384.636085	26.966	
C	-0.0470389154	 1.5378880687	-0.0446282822	-0.404843
C	 1.4521243545	 1.9056340299	 0.0586670272	-0.044725
C	 2.2168516647	 0.9510302381	 0.6219950797	-0.150642
C	 1.2782082038	-0.1312016057	 1.0960454094	-0.012277
C	 0.8317526711	-1.6226372281	 0.8214999814	-0.073837
O	-0.5551664317	-1.0783720186	 0.7729686062	-0.363228
C	 0.1405545715	 0.0382853162	 0.0874898987	 0.417608
C	 0.6765533728	-0.6868350838	-1.1688077958	-0.124917
C	 1.1422964805	-1.8250537971	-0.6597709768	-0.071003
H	-0.6124547682	 1.9730656442	 0.7891654802	 0.125116
H	-0.50614197	 1.8728882143	-0.9797700017	 0.108246
H	 1.8165301468	 2.8727597543	-0.2711389526	 0.100167
H	 3.2780276489	 1.0435252476	 0.8203720019	 0.099553
H	 0.9332249167	 0.10453082	 2.1110258561	 0.099658
H	 0.953143888	-2.4294048014	 1.542634211	 0.080333
H	 0.6480959561	-0.3119657884	-2.181559507	 0.105064
H	 1.6217811299	-2.6768180001	-1.1181531559	 0.109729
232.3488	285.6393	369.0562	421.6773	525.321	580.7832	583.4561	667.0022	697.5271	716.9978	754.5752	796.1988	831.9832	843.9928	893.8168	899.3744	905.0386	923.7272	941.6027	958.0979	995.3252	1056.9519	1061.799	1094.4307	1113.2286	1144.4141	1194.1147	1205.196	1250.8253	1260.2738	1277.6902	1320.0788	1354.0641	1363.7071	1482.156	1603.801	1629.3432	3023.2931	3032.9748	3082.1255	3138.2222	3184.4343	3209.49	3229.2816	3258.5954
C1C=CC2C3OC12C=C3	C1C=C[C@@H]2[C@H]3O[C@@]12C=C3	
InChI=1S/C8H8O/c1-2-6-7-3-5-8(6,4-1)9-7/h1-3,5-7H,4H2	InChI=1S/C8H8O/c1-2-6-7-3-5-8(6,4-1)9-7/h1-3,5-7H,4H2/t6-,7+,8-/m1/s1
