16
gdb 16515	3.76932	2.4509	1.78812	1.7037	71.07	-0.2118	-0.0289	0.1828	749.4526	0.130683	-346.495836	-346.489529	-346.488584	-346.525622	26.301	
O	 0.1077872877	 1.3355249956	 0.0419203377	-0.473438
C	-0.0099701425	-0.0422113464	-0.096635503	 0.400028
C	 0.8487160545	-0.7708233766	-1.154537774	-0.323111
C	 0.2555601962	-2.1620654336	-1.0077889715	-0.106506
C	-0.907356827	-2.0855537177	-0.3274729389	 0.055376
C	-0.8450350002	-2.3303495757	 1.1877876019	-0.268337
C	-0.6588690863	-0.7715190194	 1.18570593	-0.12288
C	-1.363339514	-0.6287880169	-0.140575359	-0.147757
H	 0.9504003582	 1.5247744195	 0.4688871123	 0.286242
H	 0.7495444265	-0.254610204	-2.1196812817	 0.115074
H	 1.9209401296	-0.813935963	-0.9217297973	 0.100728
H	 0.9082393228	-3.0272625702	-0.9280917775	 0.094502
H	-1.7880203967	-2.5813204375	 1.6883383311	 0.10501
H	-0.0407496386	-2.9770319146	 1.5510282558	 0.098346
H	-0.817219302	-0.1345787385	 2.0529558287	 0.090929
H	-2.3082138783	-0.1679098811	-0.3965621147	 0.095794
262.5889	278.9361	323.7604	375.0185	402.1539	453.853	556.2831	606.9432	669.9807	754.8771	805.9732	834.832	856.0474	876.3259	914.7863	931.903	983.0974	1011.2039	1016.3801	1055.4524	1066.3411	1090.1893	1138.4146	1155.3398	1197.1335	1214.0332	1226.5661	1267.5116	1287.9691	1307.1673	1419.8284	1475.8553	1502.0533	1594.8051	3003.5746	3022.5822	3041.8244	3087.5961	3136.8448	3159.2266	3198.933	3799.1501
OC12CC=C3CC1C23	O[C@@]12C[CH][C]3C[C@@H]1[C@@H]23	
InChI=1S/C7H8O/c8-7-2-1-4-3-5(7)6(4)7/h1,5-6,8H,2-3H2	InChI=1S/C7H8O/c8-7-2-1-4-3-5(7)6(4)7/h1,5-6,8H,2-3H2/t5-,6+,7+/m1/s1
