18
gdb 92942	2.30799	1.51903	1.29044	1.8209	77.67	-0.2526	0.0141	0.2667	1082.4569	0.146111	-401.933167	-401.924212	-401.923268	-401.96667	33.902	
C	-0.5238279689	 1.3526747117	 0.0363789445	-0.413799
C	 0.1563095406	 0.0040149137	-0.0867017546	 0.087987
O	 1.2661095237	 0.0978790318	-1.0223189058	-0.234781
C	 2.2500652847	-0.6557101262	-0.4864510166	 0.112136
N	 2.1298335654	-1.1352556729	 0.6803960007	-0.280819
C	 0.8273322856	-0.6202328898	 1.1967243538	 0.047952
C	 1.1366661966	 0.3864435556	 2.3212622703	-0.417591
C	 0.0033420298	-1.7098176848	 1.7184125806	 0.339985
C	-0.7094826672	-2.5774188434	 2.1463362172	-0.469486
H	 0.1597272307	 2.1175174587	 0.4117716236	 0.130239
H	-0.8940716143	 1.6731777193	-0.9411570639	 0.133169
H	-1.378273996	 1.2802085212	 0.7157726769	 0.133192
H	-0.541245257	-0.7291692779	-0.5051152801	 0.103217
H	 3.1165143388	-0.7864179635	-1.1262477681	 0.142405
H	 1.7445496139	 1.2107193539	 1.9386241747	 0.122071
H	 0.2185945282	 0.7881355671	 2.7573798337	 0.123076
H	 1.7028409912	-0.1215412315	 3.1042912221	 0.142964
H	-1.3236095558	-3.356777853	 2.5250109011	 0.198083
55.1674	149.8709	175.7777	243.2946	263.338	284.1753	304.6783	351.1176	454.2387	524.0792	535.4193	552.4839	619.3174	629.5267	650.0417	730.5137	829.9012	854.6745	932.0512	949.7011	969.3408	1016.0851	1080.3877	1096.5453	1146.2293	1158.3619	1185.3882	1222.2667	1326.644	1357.0487	1387.2471	1404.7459	1415.0396	1477.3208	1484.963	1495.7771	1504.3326	1697.3749	2238.4426	3048.2543	3049.7176	3052.9757	3120.5	3126.6155	3134.6383	3140.0269	3208.8515	3500.9565
CC1OC=NC1(C)C#C	C[C@H]1O[CH][N][C@]1(C)C#C	
InChI=1S/C7H9NO/c1-4-7(3)6(2)9-5-8-7/h1,5-6H,2-3H3	InChI=1S/C7H9NO/c1-4-7(3)6(2)9-5-8-7/h1,5-6H,2-3H3/t6-,7-/m1/s1
