18
gdb 111654	2.37568	1.65759	1.27615	4.8553	71.03	-0.2663	0.0148	0.2811	1055.8274	0.148634	-439.107178	-439.099086	-439.098141	-439.140107	30.168	
C	-0.3420380313	 1.4033995828	-0.2008888681	-0.384886
C	 0.220979063	 0.0110140876	 0.1168614024	-0.226654
C	 0.8825597079	-0.6263623723	-1.0854334096	 0.001834
C	 0.9316586357	-2.0830155336	-1.3614496482	-0.079501
C	-0.022228148	-3.0208501054	-0.6377285833	-0.114842
O	-1.329233786	-2.5495129018	-0.981638179	-0.229073
C	-1.2564594834	-1.5043939297	-1.8634466214	 0.460985
O	-2.2237773635	-0.9386607102	-2.2709775172	-0.34518
N	 0.0984150611	-1.2199707931	-2.2181695922	-0.191556
H	 0.4424866273	 2.0696027461	-0.5752125431	 0.117726
H	-1.1246863997	 1.3407259469	-0.9615590637	 0.156949
H	-0.7712584123	 1.8604116648	 0.6950883014	 0.118689
H	 0.9799711191	 0.0849236999	 0.9062273723	 0.105513
H	-0.5743535827	-0.6285123278	 0.512426136	 0.12639
H	 1.7172356761	-0.0465629251	-1.4756891526	 0.110581
H	 1.8103919196	-2.5192400989	-1.826114013	 0.113214
H	 0.0893102917	-4.0486848295	-0.9964529121	 0.131438
H	 0.0777724855	-3.0153790005	 0.4522884013	 0.128373
91.8209	113.4664	179.4062	194.1952	235.2941	280.8067	463.2509	500.7485	513.2265	691.7567	697.1948	756.431	784.0499	824.9875	839.7934	868.8894	942.5299	989.7111	1010.6232	1031.1161	1063.0238	1086.3295	1105.5942	1123.3309	1158.4921	1186.6736	1227.6185	1289.3023	1297.5082	1338.9746	1380.4364	1395.4679	1414.5686	1447.1431	1485.2994	1499.8152	1509.4604	1523.8376	1891.8409	3029.4083	3041.0569	3048.4642	3076.3407	3089.5698	3110.0494	3125.9034	3128.512	3159.2588
CCC1C2COC(=O)N12	CC[C@H]1[C@H]2COC(=O)N12	
InChI=1S/C6H9NO2/c1-2-4-5-3-9-6(8)7(4)5/h4-5H,2-3H2,1H3	InChI=1S/C6H9NO2/c1-2-4-5-3-9-6(8)7(4)5/h4-5H,2-3H2,1H3/t4-,5+,7?/m0/s1
