25
gdb 63930	2.26712	1.50673	1.35635	0.1264	91.88	-0.254	0.0778	0.3318	1168.0059	0.228326	-352.344501	-352.334926	-352.333982	-352.377931	38.498	
C	 0.0763443272	 1.5415858519	-0.0732414937	-0.456751
C	 0.0226336056	 0.0173231005	 0.0038910837	 0.288359
C	-1.4193670401	-0.4557490084	-0.221640873	-0.439603
C	 0.9973333307	-0.7843007211	-0.9227980922	-0.28199
C	 1.4127141907	-1.6963249349	 0.2670790342	-0.053957
C	 2.7748397499	-1.340619307	 0.8933495128	-0.220345
C	 2.1006940286	-0.1574752466	 1.6469224467	-0.292477
C	 0.6823303167	-0.694465738	 1.241296039	 0.351828
C	-0.1720275672	-1.1228492548	 2.41877602	-0.500953
H	 1.0957977697	 1.9287027935	 0.0068020958	 0.110769
H	-0.3303056499	 1.8930382593	-1.0289764213	 0.109822
H	-0.5198437369	 2.0012585454	 0.7243065127	 0.109284
H	-1.7696955544	-0.1286473967	-1.2073450308	 0.107514
H	-1.5012124237	-1.5471754737	-0.189967766	 0.111707
H	-2.1042228238	-0.0457019145	 0.5287288438	 0.109852
H	 0.5162907673	-1.2884104932	-1.7654189467	 0.091376
H	 1.8277973926	-0.1881666391	-1.3152068119	 0.088105
H	 1.1370098586	-2.7493244273	 0.1816705987	 0.054895
H	 3.1345519003	-2.1133153881	 1.5788886465	 0.095443
H	 3.5852305319	-1.0955854489	 0.1995410709	 0.090225
H	 2.2750596569	-0.1366602719	 2.7258222153	 0.095505
H	 2.3514743035	 0.8296517964	 1.2536694598	 0.096333
H	-0.514138601	-0.2531584638	 2.9946937381	 0.112206
H	-1.0568541612	-1.6888924541	 2.1143874084	 0.113027
H	 0.4041739781	-1.7562446648	 3.1032941393	 0.109826
76.5709	186.7893	200.6216	214.0136	255.0468	289.6894	322.8951	344.4377	352.8908	374.2559	419.718	454.0667	578.797	609.4192	727.6002	759.5547	812.2199	852.905	858.5054	894.1131	909.7257	942.3374	955.6126	965.0159	992.0174	1013.8712	1023.2709	1048.6107	1129.7261	1147.9802	1168.8642	1179.7213	1196.212	1215.9163	1229.1626	1250.0958	1271.3161	1281.2155	1289.7193	1308.888	1324.5321	1397.6273	1407.3974	1419.247	1475.8041	1481.139	1482.6814	1486.1662	1491.2687	1494.8066	1503.0969	1507.1685	1513.2786	3017.3183	3019.832	3025.0714	3041.6752	3043.2487	3062.9181	3074.0788	3077.7176	3079.6068	3087.9931	3088.7332	3094.0467	3099.143	3101.8885	3105.2381	3117.4892
CC1(C)CC2CCC12C	CC1(C)C[C@H]2CC[C@@]12C	
InChI=1S/C9H16/c1-8(2)6-7-4-5-9(7,8)3/h7H,4-6H2,1-3H3	InChI=1S/C9H16/c1-8(2)6-7-4-5-9(7,8)3/h7H,4-6H2,1-3H3/t7-,9-/m1/s1
