18
gdb 75043	2.54166	1.60998	1.0867	3.5075	83.	-0.2306	-0.0446	0.186	1123.6809	0.149156	-401.998861	-401.990525	-401.989581	-402.031723	31.731	
C	-0.0567817793	 1.5395503921	 0.0244885934	-0.464298
C	 0.0811381767	 0.0412584206	-0.012478448	 0.15292
C	-0.0292069564	-0.644259728	-1.1719294676	-0.155411
C	 0.0365133947	-2.0797932511	-1.4046819638	-0.05692
C	 0.7535809515	-2.9423137883	-0.6738884638	-0.081579
C	 1.5754199391	-2.4564355012	 0.4913118151	-0.235733
N	 0.7596693288	-1.7890431751	 1.4953617686	-0.308885
C	 0.1353744122	-0.5824430714	 1.3544057122	 0.345162
O	-0.3835108855	-0.0240959981	 2.3116180668	-0.380027
H	 0.8412889234	 2.0063625493	 0.4461201311	 0.130802
H	-0.2235343452	 1.9494939459	-0.9743035619	 0.111317
H	-0.8840611027	 1.820340365	 0.6821857418	 0.157268
H	-0.2367377599	-0.0511255057	-2.0619385527	 0.094825
H	-0.51227422	-2.444565375	-2.269716864	 0.097963
H	 0.7588612898	-4.0002991917	-0.9158746031	 0.102033
H	 2.0885062734	-3.2850758541	 0.9831284231	 0.117002
H	 2.3504676067	-1.7646514027	 0.1285998685	 0.125959
H	 0.7234014827	-2.1618979005	 2.4322745841	 0.247602
76.8885	148.8503	174.429	253.8257	302.9365	324.5482	366.2823	408.1959	484.5782	534.1996	549.9866	634.9232	687.5105	760.049	779.2784	799.5038	909.129	933.8627	956.5479	996.1197	1036.069	1067.2737	1090.5285	1104.7513	1172.0381	1233.8203	1298.6798	1314.419	1379.7964	1404.497	1414.3513	1424.6948	1463.4613	1466.3796	1481.8456	1491.3921	1656.368	1695.9112	1746.0659	2992.0609	3034.9839	3094.7421	3107.8131	3126.7548	3131.7897	3154.6522	3185.4058	3619.9057
CC1=CC=CCNC1=O	CC1=CC=CCNC1=O	
InChI=1S/C7H9NO/c1-6-4-2-3-5-8-7(6)9/h2-4H,5H2,1H3,(H,8,9)	InChI=1S/C7H9NO/c1-6-4-2-3-5-8-7(6)9/h2-4H,5H2,1H3,(H,8,9)
