20
gdb 78757	2.53811	1.58938	1.27558	1.8218	78.53	-0.2461	0.0662	0.3123	1088.9431	0.170071	-403.10753	-403.098804	-403.09786	-403.140161	34.158	
C	-0.0556885705	 1.4527201312	 0.0674225767	-0.496661
C	 0.1280268223	-0.0314643867	-0.0185279745	 0.339044
C	 0.1514958764	-0.8893811702	-1.2757086967	-0.352054
C	-0.2267642329	-2.0428884408	-0.3265970512	 0.306623
C	-1.0791526756	-3.1987775474	-0.7590570128	-0.50704
C	 1.0045481715	-2.2340535856	 0.5990994021	 0.120322
O	 2.270688409	-2.5581926657	 0.0829504333	-0.442383
C	 0.6730062603	-0.8500715529	 1.1126873158	-0.159393
N	-0.7764304206	-0.9918713145	 0.7031475437	-0.225105
H	 0.847433624	 1.9795759581	-0.2613095576	 0.120114
H	-0.8888290036	 1.7812133868	-0.5626412728	 0.125468
H	-0.2709056131	 1.7568785705	 1.0962001746	 0.131446
H	-0.6846309462	-0.6312703319	-1.9328388313	 0.107363
H	 1.0657116073	-0.9712769142	-1.8765562972	 0.081581
H	-0.519495527	-3.8437040583	-1.4463560555	 0.128216
H	-1.382664565	-3.8020566286	 0.1025310388	 0.127157
H	-1.9844395878	-2.8569185233	-1.2706799403	 0.122963
H	 0.7807549762	-2.9903465517	 1.3573804223	 0.098556
H	 2.5717078979	-1.8231947549	-0.4606007915	 0.283156
H	 0.9419564272	-0.4046846799	 2.064611284	 0.090629
156.1345	180.2259	190.0642	207.1404	247.4427	277.8324	311.0077	349.9305	397.8022	504.3612	562.6126	607.0399	658.2557	722.2086	769.9862	796.4162	813.8179	906.0875	937.1421	985.0156	996.3635	1005.8526	1038.4239	1049.3931	1111.3079	1120.6182	1144.802	1170.3287	1204.5734	1232.4956	1261.4703	1286.6814	1319.8456	1350.5939	1398.3748	1412.4604	1429.4137	1436.2959	1481.4967	1483.5196	1491.4929	1494.1169	1505.5028	3019.5965	3029.9056	3030.797	3076.3323	3085.3609	3094.0011	3099.2776	3105.814	3109.5488	3173.4765	3822.2732
CC12CC3(C)C(O)C1N23	C[C@@]12C[C@@]3(C)[C@@H](O)[C@@H]1N23	
InChI=1S/C7H11NO/c1-6-3-7(2)5(9)4(6)8(6)7/h4-5,9H,3H2,1-2H3	InChI=1S/C7H11NO/c1-6-3-7(2)5(9)4(6)8(6)7/h4-5,9H,3H2,1-2H3/t4-,5-,6+,7-,8?/m0/s1
