24
gdb 60095	3.5069	0.94186	0.87078	1.9925	89.48	-0.2237	0.0715	0.2952	1475.2136	0.217614	-368.342667	-368.333261	-368.332316	-368.377559	36.207	
C	-0.1304172481	 1.3599300503	 0.4190410164	-0.384099
C	-0.0016317348	-0.1405492004	 0.1196570613	 0.043662
C	-1.376752983	-0.8187921875	 0.1914562963	-0.38881
C	 0.6639436373	-0.4100091201	-1.2458460844	-0.34658
C	 2.1538411501	-0.1524551362	-1.3193680042	 0.328109
C	 3.304214658	-0.799752433	-0.5028918105	-0.198966
N	 4.0848235779	 0.1113066308	-1.4649555054	-0.148724
C	 3.0947267473	-0.3999200685	-2.524657007	-0.21049
C	 2.9931055623	 1.1445294962	-1.1505577984	-0.202886
H	 0.8373028869	 1.8679854717	 0.4139716897	 0.118255
H	-0.7672982066	 1.8495400735	-0.3276774314	 0.111525
H	-0.5863673678	 1.5251309948	 1.4009050992	 0.110913
H	 0.6339775699	-0.5907098169	 0.895755068	 0.073701
H	-2.0493312127	-0.4218093019	-0.5786452279	 0.112187
H	-1.2985505097	-1.900289947	 0.0384605798	 0.109369
H	-1.8515845471	-0.6499229277	 1.1637161686	 0.10921
H	 0.5017691549	-1.4623175189	-1.517423706	 0.09271
H	 0.1561538722	 0.1824673583	-2.0206598609	 0.092875
H	 3.4185368668	-0.5189679796	 0.5482275332	 0.09642
H	 3.5054700465	-1.8650621651	-0.6522330607	 0.095615
H	 3.2781399965	-1.4345246693	-2.8308453312	 0.095264
H	 3.0055875988	 0.2603291825	-3.3927699781	 0.095322
H	 2.8961522257	 1.9239854872	-1.9125080866	 0.096817
H	 3.0895762386	 1.5784772769	-0.1513737098	 0.098602
31.54	86.234	142.9826	216.79	242.2189	273.6246	312.1978	328.8902	417.5797	426.903	585.4407	585.9779	677.0994	774.2045	795.8543	827.3066	871.7582	895.8601	923.9575	939.1328	959.4585	967.2793	974.2721	988.7954	994.875	1027.2961	1083.5647	1110.6978	1167.0807	1170.1602	1175.2169	1188.2887	1197.757	1200.4056	1202.4794	1265.0554	1284.3622	1316.2754	1338.4233	1366.5386	1385.5456	1399.4648	1420.3568	1473.1679	1487.151	1494.5063	1504.0679	1508.3442	1510.1961	1512.0167	1564.4043	2995.7147	3003.1367	3022.5	3030.3196	3036.9953	3037.318	3039.1361	3049.3539	3086.6319	3093.4021	3098.3871	3101.6482	3107.766	3109.0338	3117.2896
CC(C)CC12CN(C1)C2	CC(C)C[C@@]12CN(C1)C2	
InChI=1S/C8H15N/c1-7(2)3-8-4-9(5-8)6-8/h7H,3-6H2,1-2H3	InChI=1S/C8H15N/c1-7(2)3-8-4-9(5-8)6-8/h7H,3-6H2,1-2H3
