17
gdb 18279	4.27128	1.62082	1.3412	3.7963	63.91	-0.2365	0.0682	0.3047	926.6389	0.143928	-400.966977	-400.959777	-400.958833	-400.998551	27.376	
O	 0.1187317004	 1.3277175583	-0.1696134659	-0.427212
C	 0.0799307371	-0.0754690201	 0.007710744	-0.069024
C	-1.3547913681	-0.580253396	 0.116191983	 0.119658
O	-2.0327798053	-0.1497522847	-1.0737102979	-0.288451
C	-3.0178182353	-1.1030188152	-1.4610833189	-0.075315
C	-2.5816471701	-2.414548443	-0.8431864022	-0.052958
N	-1.1683434031	-2.7276509248	-1.1309064194	-0.327827
C	-1.5356784183	-2.0848235599	 0.1503713537	-0.086267
H	-0.4574292431	 1.5114470534	-0.9208521341	 0.292129
H	 0.57229053	-0.6086836267	-0.8174266914	 0.107686
H	 0.6220066217	-0.2937688379	 0.9345433856	 0.097555
H	-1.8353897462	-0.1361167036	 1.0032511167	 0.073404
H	-4.0140793822	-0.8255890801	-1.0816181125	 0.093777
H	-3.049843717	-1.1215453489	-2.5553043299	 0.115804
H	-3.2995316411	-3.213842984	-0.6939411655	 0.096582
H	-1.0063737854	-3.7188359768	-0.9693265548	 0.234395
H	-1.425128244	-2.6245703801	 1.0844624796	 0.096065
101.664	142.0973	183.6159	293.4582	379.9476	438.4866	447.6567	513.9883	667.8926	759.0772	806.1865	834.864	870.3736	879.5885	955.4116	1011.3111	1015.5527	1021.5814	1073.7879	1088.5219	1105.1082	1113.8599	1152.5588	1159.5467	1224.2554	1236.3698	1252.6773	1311.4741	1338.7613	1364.4336	1388.7122	1397.9234	1431.9922	1440.946	1500.8201	1509.0545	2973.0739	2983.2452	3012.4157	3072.9365	3073.9472	3169.0025	3179.4381	3501.2264	3798.453
OCC1OCC2NC12	OC[C@H]1OC[C@H]2N[C@@H]12	
InChI=1S/C5H9NO2/c7-1-4-5-3(6-5)2-8-4/h3-7H,1-2H2	InChI=1S/C5H9NO2/c7-1-4-5-3(6-5)2-8-4/h3-7H,1-2H2/t3-,4-,5-/m1/s1
