19
gdb 92643	3.20167	1.4115	1.06143	2.7612	77.6	-0.221	0.0228	0.2439	1142.6328	0.16172	-419.202205	-419.194037	-419.193093	-419.235027	30.813	
O	 0.4897510713	 1.2342907078	 0.1759212759	-0.435022
C	 0.017850815	-0.078907945	 0.0675868326	 0.040718
C	-1.5251524224	-0.2973711039	-0.1653459694	-0.212073
N	-1.1585670228	-1.1708921799	-1.3010135148	-0.088172
C	-1.8062445011	-1.3899761303	-2.5793691352	-0.170592
C	-0.7301909191	-2.0032306235	-3.4944601098	-0.218272
C	 0.5649142991	-1.1592698634	-3.5241562198	-0.154666
N	 1.0237922109	-0.6521988607	-2.2193527514	-0.360301
C	 0.1533943797	-0.7237804256	-1.3036269308	 0.332378
H	 0.9657341171	 1.4243689902	-0.641649564	 0.297677
H	 0.398108586	-0.6869727344	 0.8960083105	 0.10376
H	-2.1022678093	-0.7898828826	 0.6218355647	 0.109505
H	-2.0092395383	 0.6397878078	-0.4664401458	 0.111348
H	-2.6633744333	-2.0636307381	-2.4726948008	 0.109152
H	-2.1795608199	-0.4412418344	-2.9992946707	 0.098004
H	-0.4982215832	-3.0068988251	-3.1212217585	 0.11713
H	-1.1235048256	-2.1186010415	-4.5092606199	 0.102441
H	 1.3725365042	-1.7551676745	-3.9638645605	 0.110647
H	 0.4365935918	-0.293494493	-4.1885768124	 0.106336
96.0259	140.2205	158.3	223.7924	240.1239	288.363	429.7314	453.2165	510.0927	568.7462	632.7034	763.7172	771.0182	841.3466	866.6567	892.066	922.7025	970.1751	1038.2494	1053.7084	1101.9882	1118.1388	1143.5599	1148.2879	1174.3075	1205.114	1216.5469	1236.1905	1267.5225	1288.2551	1336.4059	1354.2114	1368.7986	1374.5359	1398.1223	1413.3737	1480.3208	1490.1861	1508.973	1526.1515	1793.1936	2968.0928	3010.263	3028.0778	3039.9127	3046.0757	3055.0736	3061.1783	3091.388	3096.5555	3785.3354
OC1CN2CCCN=C12	O[C@H]1CN2CCC[N][C]12	
InChI=1S/C6H10N2O/c9-5-4-8-3-1-2-7-6(5)8/h5,9H,1-4H2	InChI=1S/C6H10N2O/c9-5-4-8-3-1-2-7-6(5)8/h5,9H,1-4H2/t5-/m0/s1
