19
gdb 126933	3.18561	1.00961	0.77891	4.1384	79.14	-0.206	0.0064	0.2124	1470.4974	0.158901	-419.203392	-419.194066	-419.193122	-419.238078	33.705	
C	-0.0295670785	 1.5354223137	 0.0097880696	-0.402423
C	-0.0409590527	 0.0136793175	-0.0780047083	-0.114812
N	 0.8004366482	-0.4516051057	-1.1730733643	-0.405382
C	 0.8578459323	-1.823806828	-1.3980374367	 0.11948
C	 0.4368671098	-2.8658137345	-0.6279322642	-0.00731
O	 0.7707818365	-4.0390626234	-1.2141259991	-0.17895
N	 1.4146752578	-3.7767983869	-2.4087861582	-0.198011
C	 1.4731293547	-2.4709718382	-2.5198231176	 0.321506
C	 2.1212081956	-1.8229581962	-3.6988073948	-0.509643
H	 0.9895205022	 1.9091552264	 0.1438829222	 0.132691
H	-0.4415263342	 1.9867083664	-0.9004022621	 0.117233
H	-0.6388025403	 1.8759631247	 0.8513207993	 0.125433
H	 0.3573365038	-0.4148666803	 0.8505272378	 0.115771
H	-1.077622601	-0.3543007496	-0.1736764034	 0.094722
H	 0.6540442398	 0.0766051159	-2.0240880698	 0.23104
H	-0.0746844616	-2.938395444	 0.3170824819	 0.136726
H	 1.4008880919	-1.2307302226	-4.2762240447	 0.127926
H	 2.9215141135	-1.1457950765	-3.3810742887	 0.140093
H	 2.5434436922	-2.5835220485	-4.3580043791	 0.15391
71.1975	87.6591	119.3283	146.5146	248.1159	255.1933	261.1421	342.4302	365.2995	481.6902	578.1762	608.1657	651.9837	701.5984	765.7224	807.8308	827.0468	916.9238	929.8044	963.1588	1026.3245	1066.2237	1077.9061	1136.6852	1150.6651	1164.0431	1229.395	1292.3867	1311.1825	1369.9419	1403.8913	1414.2494	1433.8765	1475.4007	1481.3175	1490.78	1498.8269	1507.9347	1526.4411	1550.4919	1676.8211	2948.8488	3029.5126	3032.5729	3038.8022	3082.8518	3103.7677	3124.5063	3139.0477	3281.2277	3554.6807
CCNC1=CON=C1C	CCNc1conc1C	
InChI=1S/C6H10N2O/c1-3-7-6-4-9-8-5(6)2/h4,7H,3H2,1-2H3	InChI=1S/C6H10N2O/c1-3-7-6-4-9-8-5(6)2/h4,7H,3H2,1-2H3
