19
gdb 71053	2.3983	2.12262	1.32682	1.7474	82.76	-0.2066	-0.0297	0.1768	988.2739	0.158221	-385.790081	-385.782133	-385.781189	-385.821674	32.467	
C	 0.2697549952	 1.4219660307	-0.1209260984	-0.48771
C	-0.0290763604	-0.0570325992	-0.0650672298	 0.256188
C	-0.377640114	-0.7885979597	-1.3804507146	-0.306789
C	-0.6454499688	-2.1821228213	-0.8320994523	-0.103751
C	-0.7985500959	-2.12297644	 0.5058132438	 0.049504
C	 0.4456243408	-2.3965685093	 1.3513657736	-0.323713
C	 0.5691415954	-0.8237575897	 1.2363410303	 0.314414
O	 1.2905577864	-0.0914590128	 2.1676303769	-0.44077
C	-0.8928332714	-0.6640679419	 0.9929243169	-0.199105
H	 1.1544596406	 1.6210532349	-0.7383818735	 0.110378
H	-0.5691327989	 1.9665598984	-0.5706542084	 0.115761
H	 0.4552482641	 1.8324752285	 0.8735489145	 0.134699
H	-1.2046563972	-0.2740637986	-1.8941169111	 0.102994
H	 0.4510814273	-0.8401057695	-2.099603758	 0.101328
H	-0.2379401799	-3.0571035931	-1.3313349522	 0.094139
H	 0.2933992563	-2.6345766707	 2.4107878361	 0.109342
H	 1.211554789	-3.0472291768	 0.9181370606	 0.093971
H	 2.2167406473	-0.0948781201	 1.9006416662	 0.286905
H	-1.6620904157	-0.2129540798	 1.6078178197	 0.092216
178.1633	198.2649	266.1286	279.0906	320.2801	336.4351	386.9186	404.0808	446.9761	542.0853	580.8902	641.7009	704.0708	775.7832	805.3216	854.0421	909.7068	917.2505	921.6261	958.2027	1003.1233	1015.5221	1040.7791	1067.3971	1079.1489	1110.3529	1131.6344	1184.1766	1187.1641	1209.842	1250.2651	1263.6388	1291.0225	1333.7117	1399.3222	1408.1414	1476.7032	1491.3354	1497.6621	1500.9529	1599.7342	2979.363	3021.6783	3024.5432	3030.3936	3072.5605	3088.6894	3128.7457	3160.4056	3186.1395	3789.8038
CC12CC=C3CC1(O)C23	C[C@@]12C[CH][C]3C[C@]1(O)[C@@H]23	
InChI=1S/C8H10O/c1-7-3-2-5-4-8(7,9)6(5)7/h2,6,9H,3-4H2,1H3	InChI=1S/C8H10O/c1-7-3-2-5-4-8(7,9)6(5)7/h2,6,9H,3-4H2,1H3/t6-,7+,8+/m1/s1
