16
gdb 81581	3.47858	1.22227	1.02281	12.0302	67.3	-0.1824	0.0026	0.185	1132.0398	0.124142	-474.930942	-474.92291	-474.921966	-474.965157	29.938	
O	-0.1062122677	 1.5109797501	 0.0514737663	-0.463528
C	-0.0124541076	 0.1154806786	-0.0479612467	 0.152317
C	 0.0552489899	-0.6045311763	 1.3145604525	-0.060107
N	-1.4214899707	-0.1329356154	 1.5285183702	-0.29626
H	-1.9728677513	-0.6740307228	 2.1939422273	 0.289427
H	-1.5597965054	 0.8778845705	 1.6020729767	 0.298095
C	-1.3398228975	-0.6992892107	 0.0785057612	-0.073561
C	-0.5121846608	-1.88127112	 0.6425460412	-0.115378
C	 0.4149781801	-2.7727513505	-0.3164433553	 0.341976
O	 0.5857430879	-3.9037779747	 0.1353349456	-0.442749
O	 0.8112463524	-2.1924854995	-1.3477215279	-0.471213
H	 0.0769278405	 1.8943156357	-0.8107222796	 0.309911
H	 0.6526622232	-0.2990952756	-0.8081177925	 0.18239
H	 0.7584006917	-0.4820895362	 2.1363916359	 0.131432
H	-2.2385688599	-0.68694522	-0.5349014432	 0.127892
H	-1.0592690047	-2.5276395332	 1.3348492984	 0.089356
12.7402	157.935	199.1003	244.3414	293.9868	355.8972	363.8998	403.2291	621.5633	628.1831	704.0001	753.296	771.3331	829.5832	839.9265	891.1781	908.8212	944.4149	1035.2891	1053.6346	1076.2204	1092.4639	1103.3093	1116.1952	1193.9019	1205.5996	1218.2926	1226.4848	1244.0203	1280.523	1301.9616	1325.59	1419.702	1592.2228	1813.2849	3074.764	3104.7611	3150.8135	3153.7579	3407.869	3529.4383	3848.5998
OC1C2[NH2+]C1C2C([O-])=O	O[C@H]1[C@H]2[NH2][C@@H]1[C@H]2C(=O)[O]	
InChI=1S/C5H7NO3/c7-4-2-1(5(8)9)3(4)6-2/h1-4,6-7H,(H,8,9)	InChI=1S/C5H7NO3/c7-4-2-1(5(8)9)3(4)6-2/h1-4,7H,6H2/t1-,2-,3+,4-
