14
gdb 43550	2.48436	1.52938	1.10322	4.148	67.03	-0.2958	-0.0207	0.2752	1065.3432	0.1007	-436.701942	-436.694203	-436.693259	-436.734633	28.076	
O	 0.00674578	 0.0552244496	-0.5820231011	-0.319516
C	 0.0350586661	 1.1542229716	-0.1397784397	 0.45318
O	-1.0054411019	 1.8576102274	 0.4609054933	-0.264385
C	-0.1677123739	 3.0409333414	 0.6508162775	-0.083257
C	-0.0315406984	 3.4145199738	 2.0546116755	 0.299024
N	 0.1160819457	 3.7386059914	 3.1534713958	-0.311145
C	 1.0053012783	 2.2833028639	 0.0184185337	 0.101201
C	 2.4532471039	 2.1997126149	 0.4168060075	-0.310809
C	 2.0792584597	 2.7331120441	-0.9337449042	-0.314365
H	-0.5591583909	 3.8804290014	 0.0704809867	 0.150588
H	 2.7895909702	 2.8980060689	 1.1755848858	 0.152281
H	 2.878355295	 1.2047429794	 0.4843575658	 0.154167
H	 2.2443245746	 2.1083034947	-1.8045559905	 0.152662
H	 2.1680477216	 3.7996760075	-1.1092809161	 0.140375
90.3978	119.8864	201.6596	214.8616	232.9822	340.9923	438.289	520.8155	611.2625	619.6934	723.7269	772.6353	794.3646	850.3012	907.2219	963.0989	978.4734	1008.375	1043.0988	1062.1684	1087.3905	1095.7442	1195.5283	1226.4629	1247.387	1356.1967	1388.966	1459.808	1496.7595	1956.4108	2365.2494	3086.6355	3139.5674	3142.44	3224.7733	3238.6585
O=C1OC(C#N)C11CC1	O=C1O[C@@H](C#N)C21CC2	
InChI=1S/C6H5NO2/c7-3-4-6(1-2-6)5(8)9-4/h4H,1-2H2	InChI=1S/C6H5NO2/c7-3-4-6(1-2-6)5(8)9-4/h4H,1-2H2/t4-/m0/s1
