15
gdb 49744	3.74594	1.41688	1.31421	3.9131	71.7	-0.2367	-0.0704	0.1663	968.7324	0.1115	-416.666407	-416.659428	-416.658483	-416.698252	26.98	
O	-0.8294378008	 0.9966737119	-0.2595370313	-0.240938
C	 0.2753067388	 0.6454095315	 0.0569309183	 0.171389
C	 1.4880189787	 1.5697769184	-0.0098733173	-0.086014
N	 2.6174976889	 0.7750396041	-0.546259471	-0.171707
C	 3.2162305403	 1.5764792675	-1.336678107	 0.127257
N	 2.9869016325	 1.3641776993	-2.776698506	-0.337279
C	 2.0508327934	 2.58590713	-2.4786599666	-0.018756
C	 1.3953340614	 2.7190444578	-1.0341290182	-0.049409
C	 2.8106567379	 3.0906123426	-1.3188086604	-0.18407
H	 0.4956233108	-0.3702335167	 0.4451005249	 0.10399
H	 1.6260309937	 1.9675097712	 1.0129728197	 0.109151
H	 3.7300209187	 1.8114656838	-3.32560336	 0.228136
H	 1.6249412062	 3.1074877233	-3.3298672669	 0.123131
H	 0.6043424142	 3.4597510788	-0.9677768514	 0.112455
H	 3.3873483452	 3.9855136665	-1.127472437	 0.112666
63.6099	145.9829	204.8144	384.262	428.0575	501.5521	611.2425	627.9179	656.6383	698.7112	757.8228	772.8697	797.7467	858.1302	865.754	946.0162	982.0957	996.3729	1018.5248	1044.0636	1057.6017	1077.6818	1118.823	1148.869	1190.5022	1215.0118	1232.4654	1269.8327	1305.6182	1348.3115	1395.1684	1606.1132	1835.3741	2926.5486	2937.4129	3167.6839	3174.5261	3202.701	3370.4915
O=CC1N=C2NC3C1C23	O=C[C@H]1[N][C]2N[C@H]3[C@@H]1[C@@H]23	
InChI=1S/C6H6N2O/c9-1-2-3-4-5(3)8-6(4)7-2/h1-5H,(H,7,8)	InChI=1S/C6H6N2O/c9-1-2-3-4-5(3)8-6(4)7-2/h1-5H,(H,7,8)/t2-,3+,4-,5+/m1/s1
