17
gdb 34460	3.54993	1.48848	1.25168	5.4326	76.19	-0.2523	0.0192	0.2716	1007.3723	0.13888	-380.848268	-380.841392	-380.840447	-380.87939	27.631	
N	 0.0452346824	-1.0902509889	-0.0499690632	-0.342774
C	 0.0166992633	 0.0655059424	-0.051342255	 0.222124
C	-0.0779167369	 1.5017440577	-0.0497252339	 0.21318
C	-1.2959839337	 2.157714248	 0.6105369099	-0.306621
C	-1.4657234329	 3.4869170748	-0.1708645944	-0.214969
C	-0.0805638941	 3.7118774567	-0.7875254589	-0.073219
C	 1.0107238021	 3.6336025501	 0.3108874933	-0.163044
N	 1.2693101275	 2.1782009197	 0.0237379144	-0.170223
C	 0.4178612387	 2.3051485045	-1.1998426218	-0.078657
H	-2.168277008	 1.5060718482	 0.524980547	 0.130633
H	-1.1189744069	 2.3173143501	 1.6785251664	 0.125835
H	-2.2205059224	 3.377836468	-0.9567550737	 0.112936
H	-1.7705758494	 4.315999297	 0.4751097303	 0.109448
H	-0.0139059197	 4.5258961097	-1.5080564898	 0.085511
H	 1.9224307278	 4.1802208216	 0.0623487653	 0.125442
H	 0.722419763	 3.8637251549	 1.3419235698	 0.108812
H	 0.7061767793	 1.9153932553	-2.1685724258	 0.115586
149.7369	163.05	253.9496	369.0024	400.8643	491.6498	544.08	554.4485	603.6138	687.4685	766.8469	834.8843	857.4734	881.247	900.5692	904.5123	951.4817	981.0141	986.8052	1042.309	1052.5061	1093.4571	1152.5084	1165.0991	1175.8097	1211.8258	1254.1608	1265.6611	1288.9351	1298.8001	1308.86	1346.7855	1375.0572	1484.7657	1494.2101	1513.7877	2360.1327	3046.5292	3049.5207	3062.2518	3091.3693	3111.3574	3114.8709	3126.3553	3191.7531
N#CC12CCC3CN1C23	N#C[C@@]12CC[C@H]3CN1[C@@H]23	
InChI=1S/C7H8N2/c8-4-7-2-1-5-3-9(7)6(5)7/h5-6H,1-3H2	InChI=1S/C7H8N2/c8-4-7-2-1-5-3-9(7)6(5)7/h5-6H,1-3H2/t5-,6+,7+,9?/m0/s1
