19
gdb 116105	3.13811	1.0871	0.85611	2.8123	72.84	-0.2379	-0.0236	0.2144	1345.0652	0.158478	-460.168769	-460.159779	-460.158835	-460.203134	32.572	
C	 0.0296554725	 1.3772253862	 0.1473427972	-0.242887
O	-0.0763277579	-0.0146884898	-0.0704795764	-0.24068
C	 0.6441619106	-0.4961712269	-1.1882992851	 0.097664
C	 2.1270920799	-0.7328350638	-0.8666356641	-0.101575
O	 2.797444457	-1.2525070568	-2.001341343	-0.240019
C	 2.3505873926	-2.5464626344	-2.3617495238	-0.173499
C	 0.8401621392	-2.6123457959	-2.5986221047	 0.367873
O	 0.3635845342	-3.2874983433	-3.478358614	-0.298619
C	-0.004287778	-1.8174652108	-1.6130053737	-0.330604
H	 1.0525321192	 1.6909960896	 0.3996093508	 0.111238
H	-0.3004244299	 1.9488278856	-0.7330150138	 0.1126
H	-0.6233688088	 1.6180980389	 0.9893702496	 0.133669
H	 0.5869986783	 0.2257354009	-2.0186630247	 0.08269
H	 2.6348163181	 0.2012274817	-0.613751965	 0.112534
H	 2.2093729622	-1.4153131646	-0.0040767839	 0.095894
H	 2.8685156713	-2.8317929012	-3.2790656933	 0.137448
H	 2.6037170398	-3.282010251	-1.5755416837	 0.109336
H	-0.1062479054	-2.4340257246	-0.7077253526	 0.136861
H	-1.005701875	-1.6730142396	-2.0239740259	 0.130075
64.5193	94.3474	113.7824	172.051	240.9335	301.379	345.1264	391.716	428.3969	448.3325	500.9754	517.4978	651.0046	810.9421	831.7028	920.9014	943.3518	966.2386	1011.2531	1110.3857	1121.579	1135.7953	1149.8242	1174.4444	1181.9298	1219.1279	1249.1731	1265.8994	1283.4806	1306.078	1341.4371	1364.9038	1381.0108	1409.1526	1457.9516	1466.0473	1481.168	1492.231	1497.8116	1509.1609	1825.479	2940.761	2968.6488	2982.1215	2987.8191	3018.8814	3035.5295	3097.6939	3113.1972	3118.5459	3122.0944
COC1COCC(=O)C1	CO[C@H]1COCC(=O)C1	
InChI=1S/C6H10O3/c1-8-6-2-5(7)3-9-4-6/h6H,2-4H2,1H3	InChI=1S/C6H10O3/c1-8-6-2-5(7)3-9-4-6/h6H,2-4H2,1H3/t6-/m1/s1
