19
gdb 119667	3.57661	1.1991	1.02079	1.3931	76.08	-0.2298	0.0649	0.2948	1216.5921	0.158085	-422.916294	-422.908017	-422.907073	-422.949935	30.914	
C	-0.5075162423	 1.3130603945	-0.4351795924	-0.219746
O	-0.7437447226	-0.062401713	-0.6273410537	-0.235656
C	-0.8277242676	-0.7793286337	 0.5830899255	-0.228359
C	-1.0800773738	-2.2203726042	 0.2539389542	 0.480738
O	-1.2050039571	-3.1615169675	 1.364017399	-0.369544
C	-1.3781463059	-3.9726715884	 0.1615158133	 0.080775
C	-2.1950000106	-2.8942374655	-0.6141973118	-0.124277
C	-1.2735519404	-2.9912542987	-1.8498868793	-0.27666
C	-0.3002832609	-3.2135760179	-0.6714628546	-0.124301
H	-0.4597316892	 1.7763230591	-1.4233261069	 0.130311
H	-1.315268019	 1.7879080645	 0.143247705	 0.108212
H	 0.4433087277	 1.4933047806	 0.0901519965	 0.108212
H	 0.1054635042	-0.6938315755	 1.1651181569	 0.102365
H	-1.6459461912	-0.3994149587	 1.2179822049	 0.102367
H	-1.5549824094	-5.0418322044	 0.2724136314	 0.093268
H	-3.2678833124	-2.7149693164	-0.5441002368	 0.079873
H	-1.4380108756	-3.8491582115	-2.5080232757	 0.09263
H	-1.1364771089	-2.0749587287	-2.4247621703	 0.119909
H	 0.774307675	-3.3962253347	-0.6662005753	 0.079882
61.6979	79.7045	122.2606	226.2616	297.9398	317.5375	366.969	455.5216	537.4885	695.4514	725.9654	776.851	827.0599	843.2311	880.7163	887.2996	925.862	980.9455	987.2555	1016.4306	1069.0669	1084.5752	1084.6373	1115.9657	1148.1502	1164.6832	1166.5875	1181.7987	1187.5283	1227.3518	1229.3203	1252.2484	1263.27	1267.1562	1373.029	1434.1033	1481.6243	1485.6805	1502.358	1509.448	1524.4054	2956.5986	2976.1781	2987.9175	3020.9404	3060.3966	3116.573	3118.7275	3118.891	3133.296	3136.3984
COCC12OC3C1CC23	COC[C@@]12O[C@H]3[C@@H]1C[C@@H]23	
InChI=1S/C7H10O2/c1-8-3-7-4-2-5(7)6(4)9-7/h4-6H,2-3H2,1H3	InChI=1S/C7H10O2/c1-8-3-7-4-2-5(7)6(4)9-7/h4-6H,2-3H2,1H3/t4-,5+,6-,7+
