18
gdb 124632	4.33383	0.90125	0.83632	4.5295	74.99	-0.2162	-0.0304	0.1858	1410.0967	0.146721	-435.242651	-435.233746	-435.232802	-435.276901	32.674	
C	-0.1612503766	 1.5111955956	 0.0157502877	-0.385944
C	 0.031620612	-0.0132854646	 0.0421382023	 0.049385
C	 0.7475161267	-0.4747267654	 1.312157097	-0.396659
N	-1.2240271004	-0.7562615263	-0.0833650195	-0.389764
C	-1.9415727725	-0.7179906401	-1.2567653337	 0.329723
C	-1.5983857794	-0.4676227916	-2.5531056693	-0.062141
O	-2.6985118614	-0.6445447918	-3.3124934966	-0.158712
N	-3.7352397403	-1.0045753837	-2.4527545386	-0.002342
N	-3.2837512165	-1.0401632182	-1.2705931409	-0.208477
H	 0.8049087829	 2.0256103285	 0.0292911428	 0.119107
H	-0.7021009552	 1.8266907833	-0.8809328653	 0.125601
H	-0.7328333195	 1.8414097083	 0.8904569651	 0.11747
H	 0.6472432044	-0.3040272501	-0.8194506667	 0.092418
H	 0.1551446918	-0.2279284247	 2.2016954087	 0.117379
H	 0.9078541281	-1.5556587951	 1.2983140223	 0.130471
H	 1.715271264	 0.0242469436	 1.4121165532	 0.123037
H	-1.8226880515	-0.713710639	 0.7309923673	 0.244509
H	-0.6948062967	-0.1797147187	-3.0591788958	 0.15494
58.6837	74.0399	129.2019	227.0718	256.7792	306.6829	322.4265	379.0614	434.9069	476.2163	544.6802	637.7527	714.6027	750.0508	771.6806	777.7649	848.9342	931.2415	949.1828	969.577	1010.14	1060.6864	1117.4528	1146.1253	1172.2977	1197.1846	1270.2735	1312.9589	1354.8008	1377.2875	1398.1394	1418.9741	1425.2762	1485.0175	1486.9898	1493.218	1507.4648	1523.4938	1665.7735	3017.5981	3031.1428	3036.0599	3099.2468	3106.7078	3114.4319	3127.8745	3306.0773	3579.704
CC(C)NC1=CON=N1	CC(C)Nc1conn1	
InChI=1S/C5H9N3O/c1-4(2)6-5-3-9-8-7-5/h3-4,6H,1-2H3	InChI=1S/C5H9N3O/c1-4(2)6-5-3-9-8-7-5/h3-4,6H,1-2H3
