22
gdb 96068	2.46911	1.48963	1.07635	3.0887	81.65	-0.2321	0.0653	0.2974	1196.558	0.195852	-404.344048	-404.335271	-404.334327	-404.376907	34.929	
C	 0.0451369982	 1.5181397454	-0.0243972397	-0.452722
C	 0.0039676112	 0.0046397235	 0.0266621642	 0.326634
C	-1.2208447936	-0.6350251387	-0.6360760441	-0.282178
C	-1.8409946317	-1.7893100559	 0.1666906746	-0.203219
C	-0.7693045349	-2.7407719117	 0.7049828425	-0.253113
C	 0.1514173547	-2.0132630149	 1.6931149491	 0.106335
O	 1.2825366978	-2.8031887521	 2.0516445406	-0.437252
C	 0.6812633905	-0.7025165995	 1.1563004947	-0.03393
N	 1.3240701237	-0.6298087462	-0.1658016099	-0.362854
H	 0.9774864505	 1.8924126017	 0.4052281784	 0.126523
H	-0.0136413181	 1.871624632	-1.0604705577	 0.116181
H	-0.7962935485	 1.9527976234	 0.5273620028	 0.109009
H	-1.9797017519	 0.1371266107	-0.8017990493	 0.101116
H	-0.9346391242	-0.9897940762	-1.6358690847	 0.102782
H	-2.4064341922	-1.3787014409	 1.0138635477	 0.099618
H	-2.5627268085	-2.3308799164	-0.4540777997	 0.096612
H	-1.2302306551	-3.5978956926	 1.2111387344	 0.087953
H	-0.1683424125	-3.154064764	-0.1155023305	 0.101565
H	-0.4398732759	-1.7750446545	 2.5948237444	 0.064826
H	 0.9586144413	-3.6167217969	 2.4522178117	 0.278687
H	 1.1876394977	-0.1039603297	 1.9118371951	 0.085416
H	 1.2292223914	-1.5224492964	-0.6450740148	 0.222011
104.8485	162.8549	227.3811	246.4696	273.9376	289.6284	364.8884	381.6082	388.9929	445.57	469.8475	579.6364	622.3632	710.953	778.4656	839.3075	873.7119	898.976	912.7141	942.8264	1009.7208	1023.1832	1044.9806	1069.8577	1079.0582	1102.9034	1130.4287	1139.5779	1169.2914	1191.9053	1225.6202	1250.9421	1269.9066	1311.0429	1333.9382	1345.8537	1364.836	1383.5608	1389.5375	1414.3226	1437.5754	1451.4478	1486.5366	1489.9529	1493.1698	1497.3563	1503.2154	2942.3022	3010.3322	3019.4546	3021.4034	3026.3783	3058.5545	3064.1517	3071.8805	3086.6319	3118.0831	3122.2066	3493.1845	3809.6983
CC12CCCC(O)C1N2	C[C@]12CCC[C@@H](O)[C@H]1N2	
InChI=1S/C7H13NO/c1-7-4-2-3-5(9)6(7)8-7/h5-6,8-9H,2-4H2,1H3	InChI=1S/C7H13NO/c1-7-4-2-3-5(9)6(7)8-7/h5-6,8-9H,2-4H2,1H3/t5-,6-,7+/m1/s1
