12
gdb 132671	3.09989	1.27809	0.90497	1.1978	60.28	-0.2445	-0.0223	0.2222	1104.878	0.075979	-529.89637	-529.889603	-529.888659	-529.927744	25.975	
F	 0.0088278784	 0.0213066189	 0.0033118101	-0.078707
C	-0.0178177129	 1.3566950289	 0.0106166226	 0.329313
C	-1.239218427	 2.0129093905	 0.0307285701	-0.249622
C	-1.2534753448	 3.4068080645	 0.0381664349	-0.22395
C	-0.0620835643	 4.1127605426	 0.025541899	 0.158271
F	-0.0569859294	 5.4459747603	 0.0324012043	-0.061894
C	 1.1539520353	 3.4311026847	 0.0053678816	 0.200627
F	 2.2866279896	 4.1291059644	-0.0064932571	-0.058847
C	 1.1890483423	 2.0460570071	-0.0023079089	-0.404284
H	-2.1574371838	 1.4395984531	 0.0403062142	 0.123488
H	-2.1859461988	 3.958146004	 0.0537829813	 0.129713
H	 2.1351149754	 1.520605981	-0.0179767523	 0.135891
155.7873	238.4771	281.9393	340.7085	386.2831	443.043	470.7067	507.487	594.2421	622.5674	689.797	739.3205	796.7081	830.6335	871.649	931.9376	981.1237	1116.2848	1178.1018	1227.0578	1271.0139	1335.7676	1353.1282	1470.7961	1556.2384	1650.7379	1660.7299	3205.8284	3220.7307	3222.3
FC1=CC=C(F)C(F)=C1	Fc1ccc(F)c(F)c1	
InChI=1S/C6H3F3/c7-4-1-2-5(8)6(9)3-4/h1-3H	InChI=1S/C6H3F3/c7-4-1-2-5(8)6(9)3-4/h1-3H
