17
gdb 76101	2.52689	1.26804	1.14775	2.2231	73.91	-0.2532	0.0265	0.2797	1140.097	0.13349	-421.741393	-421.732405	-421.731461	-421.775577	33.143	
O	-0.1999586064	 1.1483561774	-0.3813055724	-0.416703
C	-0.1803807685	-0.2064094912	-0.0823037465	 0.107816
C	-0.4718098512	-0.6742223544	 1.3400064133	-0.284504
C	-0.8105844829	 0.3406832997	 2.2905132704	 0.297476
C	-1.0666603216	 1.2487937128	 3.0399612092	-0.436186
C	-1.4409629072	-0.9880834101	 0.1893134601	-0.10965
C	-2.8163996939	-0.3929641501	 0.1707030005	 0.053465
C	-3.2136893001	 0.6918421374	-0.7409894615	-0.172533
O	-3.5812195629	-0.6617556979	-1.0068948352	-0.238028
H	-0.362191399	 1.6380330771	 0.4369028033	 0.292472
H	 0.6159986762	-0.7223892108	-0.6109613161	 0.114154
H	 0.1157578218	-1.500190213	 1.7279352929	 0.122266
H	-1.3091126461	 2.0185382973	 3.7305931362	 0.206244
H	-1.4229936672	-2.0271548443	-0.1295509358	 0.113339
H	-3.3826863148	-0.5090111508	 1.095589514	 0.10204
H	-4.0344493731	 1.3502108325	-0.458012443	 0.109775
H	-2.4701024031	 1.1175429184	-1.4072647793	 0.138557
50.5022	94.7192	142.582	187.9328	251.2407	270.3959	338.7615	369.7076	405.6501	580.1078	605.9521	624.7101	670.5377	691.4083	764.5675	774.6905	831.2514	870.9256	914.2731	976.6005	1018.0158	1061.0049	1063.9682	1114.8937	1125.2079	1139.7719	1160.5242	1182.5728	1231.5294	1298.6468	1346.5212	1349.884	1378.641	1430.3696	1439.1993	1529.7839	2223.3184	3092.269	3101.9448	3141.4978	3149.9923	3161.6252	3203.7714	3499.9647	3733.9187
OC1C(C#C)C1C1CO1	O[C@H]1[C@@H](C#C)[C@H]1[C@H]1CO1	
InChI=1S/C7H8O2/c1-2-4-6(7(4)8)5-3-9-5/h1,4-8H,3H2	InChI=1S/C7H8O2/c1-2-4-6(7(4)8)5-3-9-5/h1,4-8H,3H2/t4-,5+,6-,7-/m0/s1
