14
gdb 75781	2.80772	1.26892	1.11298	2.6273	63.66	-0.2585	-0.0504	0.2081	1087.1576	0.098197	-473.824488	-473.81578	-473.814836	-473.857852	31.702	
O	 0.4894012661	 0.8781034426	-0.6590740571	-0.404836
C	 0.1600883496	-0.2288137388	 0.0888558004	 0.042377
C	 0.0239024282	-0.191513249	 1.6372695272	 0.341223
O	 0.5554645708	 0.4278019471	 2.50461153	-0.270332
C	-1.1919676701	-1.1451223859	 1.5835064583	-0.387482
C	-1.3359270319	-0.7502914751	 0.0819289373	 0.184377
O	-2.1234717603	 0.4085115581	-0.098248731	-0.46833
C	-1.6870928909	-1.8122097751	-0.8570822476	 0.232114
N	-1.9748419464	-2.6602350152	-1.5883666528	-0.325741
H	-0.1814523458	 1.553182705	-0.4953594502	 0.306845
H	 0.8350990883	-1.0477124435	-0.1855714052	 0.14397
H	-0.912288048	-2.1919705942	 1.7319535965	 0.155998
H	-2.0382721514	-0.8938942261	 2.224876508	 0.145806
H	-3.0520751483	 0.1910913403	 0.0407046161	 0.304012
80.3232	133.6318	178.0825	211.8437	239.0655	292.2416	371.1284	390.6772	413.2953	446.1646	527.2552	590.396	611.5136	636.3357	744.1621	797.5076	886.0635	902.9581	1028.4592	1063.1971	1132.5864	1137.7315	1175.7384	1194.1665	1263.2094	1302.6715	1350.206	1421.9694	1438.6355	1915.2499	2350.7363	3061.9604	3074.5472	3140.8651	3788.2986	3810.6862
OC1C(=O)CC1(O)C#N	O[C@H]1C(=O)C[C@]1(O)C#N	
InChI=1S/C5H5NO3/c6-2-5(9)1-3(7)4(5)8/h4,8-9H,1H2	InChI=1S/C5H5NO3/c6-2-5(9)1-3(7)4(5)8/h4,8-9H,1H2/t4-,5-/m0/s1
