18
gdb 104839	2.15492	1.45968	1.33809	3.4392	68.77	-0.2607	0.0126	0.2733	1072.8619	0.148035	-476.20872	-476.200003	-476.199059	-476.242076	32.552	
O	 0.2308589842	 1.3808068068	 0.0984113399	-0.420668
C	 0.1089755194	-0.0074892702	-0.0634897614	-0.091839
C	-1.3432751439	-0.5196543901	-0.0434859271	 0.080037
C	-2.1946625478	 0.094928522	-1.1638276007	-0.131734
O	-2.3577331316	 1.4910433771	-0.9488283081	-0.422201
C	-1.461873072	-2.0426286671	 0.2088639479	-0.143205
O	-2.066968548	-1.7831454039	 1.520603209	-0.255852
C	-2.0621155474	-0.4296782366	 1.2856590924	 0.443604
N	-2.5883303746	 0.5281043438	 1.9067607891	-0.562396
H	-0.4919810589	 1.792784596	-0.3978371502	 0.293875
H	 0.56110842	-0.3550035872	-1.0115699068	 0.084245
H	 0.6725725544	-0.4782052583	 0.7512101528	 0.106819
H	-1.7005877575	-0.0186822196	-2.1350950996	 0.118357
H	-3.1698630134	-0.4116311232	-1.2206734144	 0.102802
H	-2.7192189858	 1.5944812911	-0.051957216	 0.309822
H	-2.1596274762	-2.5877597013	-0.4320155234	 0.125472
H	-0.5234879974	-2.5923135699	 0.3101089739	 0.128276
H	-3.0773278034	 0.2274720206	 2.7508720926	 0.234587
105.3704	117.323	153.2351	197.3282	237.2614	302.2329	326.8904	399.5538	435.4306	480.5832	506.222	699.2793	706.7318	745.0065	783.4306	860.6337	914.0942	950.5931	953.4936	981.5663	1021.896	1057.3297	1084.1333	1122.5511	1150.6374	1172.7509	1208.0832	1240.2442	1268.6111	1301.4354	1361.1465	1384.8454	1402.3803	1454.1191	1479.8514	1504.5954	1513.3922	1518.8417	1807.8203	2926.9273	2989.5785	3045.7871	3062.4968	3069.1462	3123.6559	3483.0536	3660.5002	3707.9609
OCC1(CO)COC1=N	OCC1(CO)CO[C]1[NH]	
InChI=1S/C5H9NO3/c6-4-5(1-7,2-8)3-9-4/h6-8H,1-3H2	InChI=1S/C5H9NO3/c6-4-5(1-7,2-8)3-9-4/h6-8H,1-3H2
