19
gdb 92862	2.90803	1.53544	1.16202	1.8589	76.67	-0.2416	0.0069	0.2485	1077.2865	0.161415	-423.02978	-423.022116	-423.021172	-423.061924	30.19	
O	 0.1433564262	 1.4143604949	-0.0149827037	-0.427018
C	 0.0635012421	-0.0019777434	 0.0010310501	 0.090533
C	 0.5703709324	-0.5829315198	 1.355653327	-0.274507
C	-0.6983966913	-0.6381569232	 2.1912872956	-0.264773
C	-1.767467257	-0.6273725876	 1.3977518646	 0.327214
C	-3.2540566766	-0.4828344661	 1.5070117191	-0.18229
O	-3.6863685856	-0.0853242285	 0.1995950958	-0.271014
C	-2.5574960671	 0.3111553394	-0.5946471614	-0.101843
C	-1.3933450603	-0.5294930196	-0.0640667495	-0.09467
H	-0.2954724299	 1.7369345134	 0.7811409931	 0.280607
H	 0.6680145701	-0.3303242664	-0.8479152203	 0.085716
H	 1.00963598	-1.5812910088	 1.2193418792	 0.110354
H	 1.3545557738	 0.0541302788	 1.7790503702	 0.109562
H	-0.697753959	-0.6712404259	 3.2749880988	 0.096415
H	-3.7676970663	-1.4187329368	 1.763226627	 0.117147
H	-3.5402436194	 0.2691377867	 2.2574973245	 0.108174
H	-2.8188909062	 0.1220751756	-1.6386938038	 0.109012
H	-2.3457209626	 1.3830856134	-0.4766256878	 0.095159
H	-1.4067443134	-1.5225252059	-0.5351140685	 0.086221
101.936	138.0683	228.1168	261.9602	342.2563	386.2713	411.0429	477.7184	596.5092	619.4022	712.1213	792.098	812.614	833.2358	865.2673	917.4062	930.3886	951.3289	988.0428	1007.9101	1026.9351	1065.2447	1091.004	1112.2119	1163.5989	1172.4645	1204.2371	1218.2842	1235.7668	1245.5563	1282.8402	1302.9521	1321.586	1328.5489	1357.6885	1394.2809	1433.2375	1476.7596	1505.9719	1526.4804	1732.5541	2990.7353	3002.8942	3010.1441	3014.2085	3027.4965	3069.1788	3088.1189	3096.3438	3194.1934	3787.6828
OC1CC=C2COCC12	O[C@H]1CC=C2COC[C@@H]12	
InChI=1S/C7H10O2/c8-7-2-1-5-3-9-4-6(5)7/h1,6-8H,2-4H2	InChI=1S/C7H10O2/c8-7-2-1-5-3-9-4-6(5)7/h1,6-8H,2-4H2/t6-,7+/m1/s1
