16
gdb 124393	3.35916	1.19651	0.93759	3.5958	75.41	-0.254	-0.0026	0.2513	1213.3949	0.124408	-396.898167	-396.88975	-396.888806	-396.931892	30.927	
C	 0.0585904445	 1.5181964867	-0.1448218675	-0.386247
C	-0.0320853675	-0.0102376297	 0.0823476393	-0.279696
C	 0.702855987	-0.4158439036	 1.2801911436	 0.336176
C	 1.3076884123	-0.7251383047	 2.2718673732	-0.470797
C	-1.4670440315	-0.4686179346	 0.1341653783	 0.328133
C	-2.1907981114	-1.0341069748	 1.156302588	-0.162865
N	-3.4205583379	-1.2149125167	 0.6196225913	-0.161198
N	-3.4714723976	-0.7937595873	-0.6566129565	-0.114997
N	-2.2873622921	-0.3413935925	-0.9504437074	-0.254196
H	 1.1013191405	 1.8247096128	-0.2592591558	 0.123612
H	-0.4966540443	 1.7841577574	-1.0468658066	 0.144821
H	-0.3713018343	 2.0562892495	 0.7041255633	 0.125832
H	 0.4323227158	-0.4983765616	-0.7852529039	 0.130454
H	 1.8541290824	-1.0050754873	 3.1383338519	 0.197762
H	-1.9352701756	-1.3112530131	 2.1639146482	 0.159901
H	-4.2457198303	-1.6099754004	 1.0414804305	 0.283306
40.0409	122.6629	163.4978	202.4311	240.1232	326.8872	390.1152	466.3827	537.4972	577.3307	625.3275	646.2348	682.5611	710.6919	749.7427	805.5842	874.2421	988.1041	999.3878	1042.2911	1057.3148	1078.695	1117.1699	1131.2022	1240.247	1282.2607	1311.5247	1337.0893	1361.1163	1402.1033	1485.6149	1493.0039	1500.2554	1588.3705	2237.6606	3016.1358	3050.0804	3128.2128	3139.3811	3298.1446	3503.0575	3659.1695
CC(C#C)C1=CNN=N1	C[C@@H](C#C)c1c[nH]nn1	
InChI=1S/C6H7N3/c1-3-5(2)6-4-7-9-8-6/h1,4-5H,2H3,(H,7,8,9)	InChI=1S/C6H7N3/c1-3-5(2)6-4-7-9-8-6/h1,4-5H,2H3,(H,7,8,9)/t5-/m0/s1
