19
gdb 108619	2.76081	1.36853	1.07643	0.7897	77.25	-0.2204	0.0075	0.2278	1167.2703	0.159108	-422.976946	-422.968454	-422.96751	-423.010203	32.24	
C	-0.1481355289	 1.5048639071	 0.1359043043	-0.528808
C	-0.0534289012	 0.0236883746	 0.0017965346	 0.227495
C	-0.0973195835	-0.8193763202	-1.0408164038	 0.194321
C	-0.2240090329	-0.6246536993	-2.5169528141	-0.196667
O	 0.0648132504	 0.6932501202	-2.9604340153	-0.403095
C	 0.0487335069	-2.1842589493	-0.3286698856	-0.033724
C	-0.9619577153	-2.0445309675	 0.8453773511	-0.219983
C	 0.1186467431	-0.9732636578	 1.1729098916	-0.01908
O	 1.1179713493	-1.9050562736	 0.6366586574	-0.285015
H	 0.7573663184	 1.9231548818	 0.5951434433	 0.126533
H	-0.3031643911	 1.9786552972	-0.8344237489	 0.145724
H	-0.9826134621	 1.7853593066	 0.7919698203	 0.126864
H	 0.4083050279	-1.3647174969	-3.0371818363	 0.099514
H	-1.2526503644	-0.8233118348	-2.8477825163	 0.125105
H	 0.9698975769	 0.8883018125	-2.6948587737	 0.285908
H	 0.1891341759	-3.0933015451	-0.9142879347	 0.076163
H	-1.981310528	-1.7175038727	 0.62839234	 0.095869
H	-0.9358669734	-2.8954425513	 1.5303209769	 0.106422
H	 0.3319820521	-0.6014036715	 2.175337059	 0.076454
65.0712	168.5787	186.3235	196.7704	210.1736	303.509	348.0362	395.5994	514.3252	581.3233	610.2889	665.1993	707.901	834.7291	837.6896	875.6937	904.4467	925.5322	973.09	1010.8783	1029.3194	1046.1829	1062.4296	1075.2213	1121.4817	1155.3547	1178.5315	1204.5594	1208.5059	1237.56	1260.5916	1296.7955	1315.7182	1386.5919	1406.9047	1421.7852	1484.4491	1485.3861	1494.1399	1495.9115	1726.377	2955.377	3013.2136	3024.3988	3053.8358	3060.3304	3119.2337	3123.003	3132.895	3138.839	3810.3973
CC1=C(CO)C2CC1O2	CC1=C(CO)[C@@H]2C[C@H]1O2	
InChI=1S/C7H10O2/c1-4-5(3-8)7-2-6(4)9-7/h6-8H,2-3H2,1H3	InChI=1S/C7H10O2/c1-4-5(3-8)7-2-6(4)9-7/h6-8H,2-3H2,1H3/t6-,7+/m1/s1
