19
gdb 81488	2.2137	1.94207	1.18805	1.8287	82.31	-0.2492	0.034	0.2833	1066.4506	0.158116	-385.799784	-385.791322	-385.790378	-385.832145	34.101	
C	-0.1649738177	 1.5254601983	-0.0207904027	-0.47835
C	-0.0126862971	-0.0060951353	-0.0101772042	 0.178134
C	-1.3504625687	-0.5492530942	-0.2379818297	 0.194926
C	-2.4894355703	-0.8942693505	-0.4307106902	-0.40876
C	 1.1998615996	-0.6772552182	-0.7768929141	-0.138596
C	 2.1297226247	-0.1347755167	 0.3451449067	-0.254373
C	 0.8882754124	-0.6952749173	 1.0952078415	-0.138635
C	 1.0481103442	-1.9381702616	 0.1477776421	 0.183726
O	 0.0809621449	-2.9172843534	-0.0227041456	-0.449732
H	 0.7733080715	 2.0560447791	 0.1403187847	 0.12098
H	-0.5784872902	 1.8507993235	-0.9802003719	 0.130596
H	-0.8676491397	 1.8341064484	 0.7591487798	 0.130592
H	-3.4868354004	-1.2188317991	-0.599651255	 0.198743
H	 1.3683897538	-0.6503895583	-1.8547282308	 0.077878
H	 3.0616338436	-0.6843672147	 0.4949637965	 0.099996
H	 2.3073943827	 0.9360543042	 0.3850359667	 0.10308
H	 0.6986097347	-0.6892044787	 2.1698444819	 0.077876
H	 1.9882503366	-2.4743206764	 0.2990983393	 0.082766
H	-0.7810753046	-2.5028693391	-0.1614339448	 0.289153
120.5987	168.0378	185.7744	263.5762	291.5301	359.5414	391.3706	439.7153	514.9781	521.6072	529.2533	626.6486	627.6943	643.5939	665.2229	757.7408	791.0329	857.1833	890.0005	891.5157	927.3123	1008.778	1035.018	1069.4105	1081.8352	1087.3174	1130.1129	1153.7453	1183.8252	1187.7585	1210.2023	1229.0307	1246.7135	1274.8874	1344.4249	1413.0932	1480.4843	1489.5673	1497.5371	1544.4723	2206.1959	3048.8387	3077.252	3083.9224	3100.5153	3108.0796	3108.3401	3141.7832	3172.9817	3496.8251	3728.0216
CC1(C#C)C2CC1C2O	C[C@@]1(C#C)[C@H]2C[C@@H]1[C@H]2O	
InChI=1S/C8H10O/c1-3-8(2)5-4-6(8)7(5)9/h1,5-7,9H,4H2,2H3	InChI=1S/C8H10O/c1-3-8(2)5-4-6(8)7(5)9/h1,5-7,9H,4H2,2H3/t5-,6+,7-,8+
