21
gdb 68613	2.32982	1.62021	1.32449	0.6226	88.17	-0.2512	0.0462	0.2974	1089.8049	0.183246	-349.925299	-349.91694	-349.915996	-349.957603	33.96	
C	-0.0324002558	 1.5100842253	 0.0463310876	-0.501116
C	 0.0033238944	 0.0012908262	 0.0020432989	 0.33748
C	 0.335299087	-0.8024547654	-1.2925859151	-0.267585
C	-0.3742743966	-1.9598040791	-0.5393754161	-0.034004
C	 0.5860629709	-2.2159303781	 0.6365181654	-0.217464
C	 0.8717215143	-0.7352820386	 1.04578496	-0.245522
C	-1.3254311997	-0.8524979219	 0.0330727313	-0.2135
C	-2.0429250768	-1.0529043051	 1.2735946507	 0.316194
C	-2.6315524876	-1.2132203295	 2.3113149877	-0.45404
H	 0.9724464704	 1.9304100403	-0.0771349652	 0.115779
H	-0.6664499661	 1.9206675668	-0.7466443589	 0.11159
H	-0.4239684585	 1.863186701	 1.0070277564	 0.124646
H	-0.2259880306	-0.4493479616	-2.1617234809	 0.092718
H	 1.3896617679	-0.9348512028	-1.552006839	 0.087522
H	-0.7823351911	-2.8259673504	-1.0600925898	 0.064144
H	 0.1150543754	-2.788030075	 1.4393919562	 0.108845
H	 1.4855440708	-2.7501145928	 0.3177212063	 0.092879
H	 1.9272176188	-0.4622993734	 0.950486103	 0.09074
H	 0.5546769462	-0.5143959045	 2.0684641234	 0.106616
H	-2.0083466842	-0.4997416247	-0.7467275765	 0.094201
H	-3.1579592091	-1.3568605766	 3.2220369746	 0.189877
123.0462	146.5333	219.5441	254.6301	291.9585	334.3512	380.9722	464.8384	496.3882	557.2674	586.4551	617.975	626.9424	735.815	802.225	814.2399	843.7613	863.0862	893.7694	922.4374	950.6419	968.9257	988.7375	1015.0918	1070.523	1083.3952	1113.7574	1136.0944	1156.6686	1184.1636	1223.5822	1246.2083	1253.8904	1260.5477	1278.3443	1322.1879	1347.4953	1371.9151	1413.8014	1485.6761	1492.6284	1494.1769	1496.0489	1517.6439	2225.1544	3023.7758	3049.3141	3050.9068	3055.7495	3062.7143	3088.4406	3093.2715	3094.3318	3109.4425	3112.3856	3117.6333	3504.3339
CC12CC(CC1)C2C#C	C[C@@]12C[C@@H](CC1)[C@H]2C#C	
InChI=1S/C9H12/c1-3-8-7-4-5-9(8,2)6-7/h1,7-8H,4-6H2,2H3	InChI=1S/C9H12/c1-3-8-7-4-5-9(8,2)6-7/h1,7-8H,4-6H2,2H3/t7-,8-,9+/m1/s1
