18
gdb 89626	3.73488	1.11521	0.96083	17.9747	77.72	-0.1564	-0.0403	0.1161	1224.7469	0.147616	-439.005515	-438.996701	-438.995757	-439.039483	32.611	
N	 0.0432430252	 1.0835018641	-0.044486249	-0.432962
H	 0.4845070493	 0.169523351	 0.0809786783	 0.323183
H	 0.7854783163	 1.7804403503	-0.1310044316	 0.320374
H	-0.5074465769	 1.0683094681	-0.9057957343	 0.318669
C	-0.8400303539	 1.3543091266	 1.2394714709	-0.045067
C	-1.902219143	 0.2739935956	 1.5249747201	-0.329381
C	-1.2784595162	 0.115861356	 2.9157318498	 0.297318
C	 0.1252859716	-0.33956663	 2.7984403991	-0.346897
C	-0.1191851755	 1.1245026015	 2.525319417	-0.130341
C	-2.0647398264	 0.2018685789	 4.2567715247	 0.274784
O	-3.2950942505	 0.2521478231	 4.0954374654	-0.482248
O	-1.3230774416	 0.236371658	 5.2519027876	-0.48873
H	-1.2252753026	 2.3632199159	 1.087184594	 0.132332
H	-2.9141843213	 0.6738741152	 1.5883035672	 0.161288
H	-1.8935264167	-0.6130169896	 0.8770456604	 0.082253
H	 0.5851580956	-0.5078360293	 3.7669090173	 0.164143
H	 0.4418970568	-1.0275365371	 2.0087346081	 0.060078
H	 0.2923044898	 1.9073135416	 3.148370315	 0.121205
69.5616	79.189	138.3844	201.5142	214.1939	283.9397	374.722	404.8193	489.3165	510.8283	587.5811	650.1432	725.523	772.6894	806.6993	845.6577	865.2328	911.8032	938.0338	943.2775	982.8127	1033.186	1042.0366	1076.505	1109.6447	1160.2548	1192.2848	1244.8015	1249.9881	1307.234	1325.0428	1353.46	1359.6155	1408.4485	1460.5139	1485.3267	1637.7619	1646.5135	1788.9405	3009.3781	3028.0215	3113.6174	3141.5777	3200.0571	3208.018	3398.0482	3503.9477	3515.8927
[NH3+]C1CC2(CC12)C([O-])=O	[NH3][C@H]1C[C@]2(C[C@@H]12)C(=O)[O]	
InChI=1S/C6H9NO2/c7-4-2-6(5(8)9)1-3(4)6/h3-4H,1-2,7H2,(H,8,9)	InChI=1S/C6H9NO2/c7-4-2-6(5(8)9)1-3(4)6/h3-4H,1-2H2,7H3/t3-,4-,6-/m0/s1
