21
gdb 42062	2.12972	1.74777	1.07249	0.1548	92.12	-0.2261	-0.0024	0.2236	1170.0739	0.184878	-349.957539	-349.949353	-349.948409	-349.989903	32.784	
C	-0.0787773415	 1.4817747499	 0.0448618856	-0.256587
C	 1.3559485618	 2.1296694023	 0.0269774228	-0.241308
C	 1.7219826291	 2.8248920379	-1.2555513867	-0.044801
C	 2.4622546127	 2.3354557224	-2.2582874696	-0.093316
C	 3.0183004514	 0.9785789381	-2.3681368421	-0.096786
C	 2.3254063704	-0.1662174757	-2.3762044347	-0.030792
C	 0.8192860321	-0.2931413396	-2.312008977	-0.305972
C	 0.345967313	-0.7996365088	-0.9710752881	-0.038156
C	-0.0431247226	-0.0274486927	 0.0455429927	-0.04768
H	-0.6161312103	 1.8238758151	 0.933729693	 0.097545
H	-0.6469535058	 1.8542840091	-0.8144148632	 0.112745
H	 1.4142860278	 2.8646434425	 0.8375896456	 0.099619
H	 2.0907505884	 1.3515569578	 0.2476271504	 0.116754
H	 1.3632926671	 3.8491205528	-1.351471886	 0.084307
H	 2.7171632208	 3.011804924	-3.0750055248	 0.088348
H	 4.0973788168	 0.9198589282	-2.5124196241	 0.089776
H	 2.875820241	-1.1013804821	-2.4627684837	 0.086729
H	 0.3692284867	 0.6795653955	-2.5301477737	 0.113166
H	 0.4943814853	-0.9876493638	-3.0978487159	 0.101022
H	 0.3694652341	-1.8782021686	-0.8278974759	 0.082471
H	-0.3203400684	-0.5129738543	 0.9792137654	 0.082916
132.8325	154.6397	192.7512	223.3273	301.8858	328.7421	418.7398	437.4679	503.1047	563.9581	639.3243	685.8004	738.4006	750.6341	797.9154	810.772	909.9079	927.3776	970.2497	975.6577	999.3281	1002.1119	1008.873	1012.7905	1019.747	1063.386	1094.1078	1193.397	1220.6199	1238.4318	1269.591	1280.3607	1287.7858	1312.9495	1335.7628	1341.3625	1401.7093	1418.5769	1445.2327	1479.6884	1484.2893	1499.4711	1698.0047	1700.4748	1717.4701	3017.2336	3036.4465	3043.3478	3082.3913	3085.4156	3096.3483	3108.5517	3117.0053	3131.8088	3138.9797	3148.7041	3156.9357
C1CC=CC=CCC=C1	C1CC=CC=CCC=C1	
InChI=1S/C9H12/c1-2-4-6-8-9-7-5-3-1/h1-4,7,9H,5-6,8H2/b3-1-,4-2-,9-7-	InChI=1S/C9H12/c1-2-4-6-8-9-7-5-3-1/h1-4,7,9H,5-6,8H2/b3-1-,4-2-,9-7-
