23
gdb 101786	4.39458	0.6	0.56513	1.2548	83.47	-0.2417	-0.0064	0.2353	2047.8773	0.201817	-425.459088	-425.447532	-425.446587	-425.497345	40.49	
C	-0.0075112738	 1.6042644856	-0.1313880964	-0.38131
C	-0.0140936941	 0.0874106467	 0.0711268712	-0.187937
C	-1.4189847285	-0.5249063972	 0.0202761581	 0.12885
O	-2.0716609617	-0.2329451437	-1.2186049139	-0.429945
C	-1.4056863536	-2.0333920749	 0.2938640649	-0.198872
C	-2.8058950789	-2.6442827904	 0.3039772709	-0.305142
C	-2.8213636511	-4.1659934367	 0.2911501878	 0.377546
C	-4.1710067492	-4.8211817936	 0.531215054	-0.473149
O	-1.8218886068	-4.8201028592	 0.0947653994	-0.296571
H	 1.0129771858	 1.9981552732	-0.1500086895	 0.109543
H	-0.4984420161	 1.8697154491	-1.0713090236	 0.126195
H	-0.5466500133	 2.1106485438	 0.6769607171	 0.113449
H	 0.6046601554	-0.3981732532	-0.6981686345	 0.087298
H	 0.4464541887	-0.1683567745	 1.0334933798	 0.097903
H	-2.0470173936	-0.0273515916	 0.7724202502	 0.081262
H	-1.5348056531	-0.6165203932	-1.9221688414	 0.277044
H	-0.8012237225	-2.5393962144	-0.4692808867	 0.107808
H	-0.9039555443	-2.228570347	 1.2487388979	 0.102343
H	-3.39198264	-2.2910370873	 1.1633835346	 0.109949
H	-3.3610256346	-2.2979737685	-0.578866328	 0.137723
H	-4.9407517098	-4.3810806177	-0.1117182264	 0.135075
H	-4.1015989809	-5.894875712	 0.3526204274	 0.140774
H	-4.486315394	-4.6474342134	 1.5669504171	 0.140164
31.4275	54.8933	87.4831	112.0362	120.983	138.4001	222.086	228.5455	265.0487	322.5689	333.4956	429.5096	479.9282	483.285	517.4868	605.6632	739.3985	778.058	822.1879	868.8465	915.8966	940.8702	977.876	1016.286	1032.4674	1072.0456	1092.2359	1115.994	1145.6023	1171.2252	1180.3256	1260.8162	1270.6342	1301.4035	1340.0774	1361.0199	1380.2074	1389.0446	1395.5212	1407.4378	1422.0245	1453.3528	1464.9377	1475.8851	1477.1176	1488.024	1496.7873	1509.7146	1809.2054	2999.8791	3016.7283	3018.8467	3035.433	3036.8145	3038.0765	3046.3112	3052.2587	3078.3868	3096.8031	3102.0902	3122.0642	3151.2122	3787.117
CCC(O)CCC(C)=O	CC[C@@H](O)CCC(=O)C	
InChI=1S/C7H14O2/c1-3-7(9)5-4-6(2)8/h7,9H,3-5H2,1-2H3	InChI=1S/C7H14O2/c1-3-7(9)5-4-6(2)8/h7,9H,3-5H2,1-2H3/t7-/m1/s1
