18
gdb 59013	3.6163	0.95013	0.88882	4.2815	75.84	-0.2121	-0.0008	0.2113	1353.0529	0.146822	-439.132298	-439.123186	-439.122242	-439.166452	33.758	
C	-0.09942628	 1.5073785573	-0.060469828	-0.413152
C	-0.0260529193	-0.0239514549	 0.0145098833	 0.016869
O	 0.6736650431	-0.5523957693	-1.1167025843	-0.440029
C	 0.6877771312	-0.5124843955	 1.2325219221	 0.306001
C	 0.1730557402	-1.2300050845	 2.2380826648	-0.13619
N	 1.1365687216	-1.5131632635	 3.215859644	-0.325944
C	 2.3754732696	-0.9930228347	 2.8748860092	 0.421618
O	 3.3888799813	-1.0882186116	 3.5260557517	-0.36767
C	 2.1547066392	-0.2925896613	 1.5236174176	-0.452576
H	 0.9043599621	 1.941519828	-0.0884137682	 0.128291
H	-0.6331525598	 1.8235629262	-0.9648599584	 0.106223
H	-0.6339514658	 1.9143895476	 0.8029836766	 0.122575
H	-1.0548001805	-0.4203337379	 0.0410346795	 0.064152
H	 0.3137183939	-0.1355595792	-1.9066028774	 0.281071
H	-0.8385613754	-1.590523592	 2.3645050028	 0.126954
H	 0.9836306972	-2.0412505707	 4.0584776843	 0.260008
H	 2.8071064887	-0.7338824833	 0.7628978237	 0.160773
H	 2.4411868725	 0.7615726992	 1.6108319367	 0.141024
60.6138	96.3804	163.1848	177.197	258.2038	281.9738	340.2486	365.8054	470.7131	482.8151	502.212	502.5121	590.0149	623.6727	737.5887	843.6289	871.9859	883.0361	919.7107	955.1128	1004.0889	1068.8242	1088.4211	1118.7185	1142.9347	1181.0192	1195.5901	1247.2367	1301.7318	1351.6481	1358.7719	1400.3988	1403.4434	1428.3251	1434.2882	1492.1204	1499.6877	1710.8309	1839.5435	2958.7126	3027.6441	3052.2265	3089.0054	3096.3551	3120.7012	3229.9643	3667.8638	3810.6642
CC(O)C1=CNC(=O)C1	C[C@@H](O)C1=CNC(=O)C1	
InChI=1S/C6H9NO2/c1-4(8)5-2-6(9)7-3-5/h3-4,8H,2H2,1H3,(H,7,9)	InChI=1S/C6H9NO2/c1-4(8)5-2-6(9)7-3-5/h3-4,8H,2H2,1H3,(H,7,9)/t4-/m1/s1
