15
gdb 9564	4.47941	1.30989	1.22249	1.2023	76.18	-0.2414	0.0135	0.255	1015.1162	0.115847	-325.432756	-325.424265	-325.423321	-325.465258	31.594	
C	-0.0518586106	 1.5504281934	-0.093343713	-0.452344
C	-0.0185024546	 0.0389035673	 0.0078312145	 0.132741
N	 1.3055466171	-0.582664286	-0.2024786033	-0.347563
C	 0.7094120091	-0.6451141599	 1.148618	-0.298432
C	 1.3444591474	 0.0938792012	 2.2031290595	 0.374103
C	 1.8500164109	 0.7003989574	 3.1098177313	-0.418579
C	-1.1739742042	-0.6516893401	-0.5084134281	 0.279546
C	-2.1324833373	-1.2198354539	-0.962078826	-0.441599
H	 0.8575687367	 1.9727491855	 0.3365176921	 0.143765
H	-0.121296529	 1.8541554278	-1.1417468471	 0.130917
H	-0.9180514114	 1.9513453297	 0.4406580049	 0.129924
H	 1.1949480799	-1.4861684533	-0.6574984772	 0.243913
H	 0.2819555018	-1.5962245803	 1.4564356779	 0.122045
H	 2.3046529445	 1.2366563203	 3.905727725	 0.200626
H	-2.9813205502	-1.7208379292	-1.3575505604	 0.200937
110.3966	125.9239	174.0242	184.5073	250.274	325.6663	367.1623	461.4212	532.6138	555.8727	581.256	610.9389	617.4023	657.8714	660.7942	693.3645	798.5502	887.1837	959.3661	984.6412	1076.7608	1080.7846	1102.6543	1206.6157	1274.5631	1327.6213	1413.3539	1422.8001	1481.7029	1491.8528	2231.1265	2240.4036	3050.2939	3119.0413	3138.572	3147.5793	3500.8867	3502.0705	3503.1952
CC1(NC1C#C)C#C	C[C@]1(N[C@H]1C#C)C#C	
InChI=1S/C7H7N/c1-4-6-7(3,5-2)8-6/h1-2,6,8H,3H3	InChI=1S/C7H7N/c1-4-6-7(3,5-2)8-6/h1-2,6,8H,3H3/t6-,7-/m0/s1
