23
gdb 101652	3.2562	0.67457	0.65347	2.8196	83.3	-0.2455	-0.0185	0.227	1809.147	0.202209	-425.437681	-425.426179	-425.425234	-425.475399	40.307	
C	-0.0450178019	 1.5335403208	 0.1914625938	-0.393558
C	-0.0597626521	 0.0097349815	 0.0157169752	 0.025834
C	-1.4970940646	-0.5109277075	-0.0705228466	-0.078947
O	-2.1555942251	-0.2098588227	 1.1510923196	-0.423373
C	 0.7276932492	-0.461062354	-1.2206812147	-0.207713
C	 2.2277215294	-0.0860305695	-1.2452448095	-0.070407
C	 3.0163284538	-0.6753916432	-0.0635041075	-0.41125
C	 2.8160719457	-0.6037838774	-2.5436527659	 0.162137
O	 3.2169615131	 0.0785763721	-3.4503266861	-0.250344
H	 0.9587262543	 1.9111482207	 0.4062966977	 0.113478
H	-0.4022079931	 2.0338573769	-0.7172392795	 0.109953
H	-0.700540697	 1.8204013721	 1.0163378158	 0.136177
H	 0.3747968497	-0.4491930784	 0.9129429699	 0.087174
H	-2.0086873484	-0.0384872791	-0.9258920479	 0.084745
H	-1.4862131785	-1.5975976438	-0.2536832388	 0.082283
H	-3.0803948782	-0.4577408901	 1.0654769935	 0.287833
H	 0.6398823428	-1.553763685	-1.3049736791	 0.093522
H	 0.2538829185	-0.043647153	-2.119717781	 0.106985
H	 2.3382396121	 1.0022688754	-1.2660676265	 0.098964
H	 2.9374284836	-1.7686185045	-0.0423076708	 0.120086
H	 4.0772529654	-0.4153197679	-0.1300628609	 0.127784
H	 2.6407613349	-0.2961648858	 0.8900017911	 0.133777
H	 2.8466783362	-1.7193690976	-2.610372742	 0.06486
45.5976	55.0783	82.49	116.8136	147.2698	211.7502	237.2293	239.7413	262.9248	287.8492	327.5187	354.8599	375.6378	425.5019	526.5855	573.7964	816.8903	854.7781	894.9922	909.9396	930.3907	946.1211	987.7881	1032.3519	1068.9832	1081.3867	1126.3584	1156.7264	1171.4508	1180.0999	1231.9829	1257.0006	1272.365	1296.9832	1326.5981	1356.1728	1383.8431	1387.1031	1406.4121	1408.2463	1429.8577	1459.3299	1481.0988	1492.7256	1498.74	1503.2921	1509.3915	1521.2219	1836.2547	2830.7899	2956.6847	2985.7829	3001.3556	3025.0538	3031.8935	3034.3821	3046.2411	3072.1049	3098.9666	3102.5773	3119.3196	3131.2874	3835.6973
CC(CO)CC(C)C=O	C[C@@H](CO)C[C@@H](C)C=O	
InChI=1S/C7H14O2/c1-6(4-8)3-7(2)5-9/h4,6-7,9H,3,5H2,1-2H3	InChI=1S/C7H14O2/c1-6(4-8)3-7(2)5-9/h4,6-7,9H,3,5H2,1-2H3/t6-,7-/m1/s1
