17
gdb 81985	2.48868	1.44713	1.32145	3.5729	72.32	-0.2497	0.0273	0.277	1045.6985	0.135507	-417.975432	-417.966816	-417.965871	-418.008339	32.479	
C	-0.1010357685	 1.5691684288	-0.1079648031	-0.448559
C	-0.0051806105	 0.0455753628	-0.0364167645	 0.115543
C	-1.2941877099	-0.5643942612	 0.2639857794	 0.233541
N	-2.3132546039	-1.0614894457	 0.493283738	-0.342185
C	 0.693528417	-0.6663924005	-1.2245470596	-0.003818
O	 2.0272709849	-0.1631575523	-1.273334864	-0.254258
C	 1.7342180246	-1.237997089	-0.3623522271	 0.015286
C	 1.1515041736	-0.5776381741	 0.9022260829	-0.057625
N	 1.9370654802	 0.3728437189	 1.6439060829	-0.50841
H	 0.8424285815	 1.9769663034	-0.4753013768	 0.136384
H	-0.9038394494	 1.8767126755	-0.783853847	 0.131617
H	-0.2967050778	 1.9840539695	 0.8831655051	 0.148464
H	 0.2466937452	-1.0261115495	-2.143131302	 0.125603
H	 2.3202596769	-2.1440248301	-0.4661613669	 0.1138
H	 0.7163445368	-1.3104043011	 1.5842479472	 0.110787
H	 2.4705889978	-0.0812531387	 2.3762150623	 0.239161
H	 2.5882883615	 0.8477762831	 1.0266933133	 0.24467
113.3716	156.5884	182.0139	203.1711	246.7238	272.8595	276.2499	414.7098	477.6445	511.1242	562.1655	620.4639	653.5411	768.8829	802.86	851.0472	856.8682	885.1151	931.4345	943.5145	1009.7616	1056.3121	1110.5559	1140.2739	1157.3325	1163.5197	1228.3292	1239.3485	1250.4583	1281.7614	1377.7953	1407.8246	1421.6726	1484.589	1497.4293	1653.9535	2346.4254	3054.6094	3102.8595	3129.662	3143.7474	3183.7928	3205.1249	3507.4498	3595.7816
CC1(C#N)C2OC2C1N	C[C@@]1(C#N)[C@H]2O[C@H]2[C@H]1N	
InChI=1S/C6H8N2O/c1-6(2-7)4(8)3-5(6)9-3/h3-5H,8H2,1H3	InChI=1S/C6H8N2O/c1-6(2-7)4(8)3-5(6)9-3/h3-5H,8H2,1H3/t3-,4+,5-,6-/m0/s1
