18
gdb 73184	2.47106	1.40356	1.29054	3.0919	75.72	-0.266	0.0238	0.2898	1077.3359	0.147841	-401.939832	-401.931505	-401.93056	-401.972968	31.727	
O	 0.2635129008	 1.2520554713	-0.1713026266	-0.477783
C	 0.022785592	-0.1102813257	-0.026789156	 0.409314
C	 0.2808392904	-1.0295933963	-1.2555839167	-0.30905
C	-1.2274268366	-1.4343818206	-1.2601638088	-0.221267
C	-1.4413569233	-0.6562018482	 0.0595109833	-0.062254
C	-1.0554786612	-1.4490143291	 1.3406008502	-0.254451
C	 0.3426664804	-0.7406667846	 1.3754137175	-0.202791
C	 1.5359859771	-1.5530595873	 1.5184585797	 0.260517
N	 2.4869698838	-2.2092335313	 1.5853510815	-0.338541
H	 1.1740239956	 1.3760742186	-0.4640276111	 0.286938
H	 0.5929601056	-0.463709844	-2.1362762495	 0.109622
H	 0.994132954	-1.8397095827	-1.087381794	 0.127053
H	-1.7735472394	-1.0021392624	-2.1013536897	 0.111844
H	-1.4424520094	-2.5052439176	-1.221187952	 0.106572
H	-2.3007855475	 0.0080574534	 0.1421600222	 0.082505
H	-1.6648842493	-1.2478319821	 2.2222426719	 0.122053
H	-0.9972863475	-2.5295010769	 1.1950338121	 0.121543
H	 0.3530578245	 0.0629827655	 2.1161874459	 0.128177
56.8265	137.3242	174.8805	232.4876	278.3698	354.8898	378.9917	408.9211	523.295	538.0693	600.431	658.0669	742.0533	764.2125	838.1922	881.975	921.9422	930.6322	974.1293	1017.5004	1028.2734	1052.7668	1071.5606	1129.3637	1152.2178	1166.1105	1192.4654	1220.6991	1250.0166	1266.2429	1269.0032	1296.003	1304.8101	1343.1397	1372.7479	1470.5496	1480.2632	1497.274	2343.3156	3062.2783	3068.2332	3078.8333	3082.2435	3108.1395	3118.7934	3128.2469	3138.3226	3789.7481
OC12CCC1CC2C#N	O[C@]12CC[C@H]1C[C@H]2C#N	
InChI=1S/C7H9NO/c8-4-6-3-5-1-2-7(5,6)9/h5-6,9H,1-3H2	InChI=1S/C7H9NO/c8-4-6-3-5-1-2-7(5,6)9/h5-6,9H,1-3H2/t5-,6-,7+/m0/s1
