20
gdb 14237	3.35629	1.70902	1.64813	1.5762	74.44	-0.2367	0.0809	0.3176	932.3834	0.177231	-348.981147	-348.973267	-348.972323	-349.013186	30.468	
C	 0.3572675988	 1.5862592199	 0.0217933561	-0.405007
C	 0.0926062144	 0.0891213229	 0.0334155448	 0.029126
C	 0.8759570426	-0.828137895	-0.9651907038	-0.263909
C	 1.3089054217	-1.7529429618	 0.2095397298	-0.103293
C	 2.6295632177	-1.3871750866	 0.9179682602	 0.166427
C	 3.8654300791	-0.9474517057	 0.1625931134	-0.411604
O	 1.9753170051	-0.3038717535	 1.6367034766	-0.316498
C	 0.6688795084	-0.7447053005	 1.2036308777	 0.112
H	 1.4168052626	 1.7874159706	 0.2014213758	 0.129303
H	 0.0777053204	 2.026261896	-0.9415695322	 0.108789
H	-0.2166058975	 2.0979440637	 0.8023737573	 0.112856
H	-0.9830063978	-0.1073240616	-0.0475153672	 0.068342
H	 0.2471951668	-1.3208098272	-1.7100688116	 0.100326
H	 1.6969537247	-0.3359219821	-1.4929546311	 0.099562
H	 1.047171931	-2.8080445108	 0.1411217717	 0.070221
H	 2.9064210358	-2.1777721507	 1.632865896	 0.070392
H	 3.6429593474	-0.1609601491	-0.5626528363	 0.123363
H	 4.6101001361	-0.5579680491	 0.8641744198	 0.128195
H	 4.309999109	-1.7974079291	-0.3665875148	 0.116209
H	 0.0206730635	-1.0001120505	 2.0478048477	 0.065201
71.7515	188.5954	219.2726	236.3173	260.3198	334.5146	371.6502	509.8129	516.9626	606.6417	754.4629	760.5123	825.1457	882.684	887.6997	896.5811	934.0389	954.6312	986.0747	1035.5194	1081.9592	1097.0139	1113.8842	1126.823	1156.8716	1170.5863	1198.9579	1218.3755	1262.7311	1285.1719	1307.8608	1310.5145	1343.749	1358.2036	1391.3102	1404.5571	1411.7508	1476.784	1483.7815	1490.4368	1502.3296	1504.6298	2973.0511	3029.513	3034.0156	3038.7766	3055.8185	3064.207	3092.9914	3105.391	3107.641	3117.5692	3119.629	3125.2754
CC1CC2C(C)OC12	C[C@H]1C[C@H]2[C@@H](C)O[C@@H]12	
InChI=1S/C7H12O/c1-4-3-6-5(2)8-7(4)6/h4-7H,3H2,1-2H3	InChI=1S/C7H12O/c1-4-3-6-5(2)8-7(4)6/h4-7H,3H2,1-2H3/t4-,5+,6-,7-/m0/s1
