18
gdb 91521	2.67097	1.41018	1.10079	3.2184	72.55	-0.2443	0.0179	0.2622	1133.8619	0.146453	-439.082129	-439.073162	-439.072218	-439.115892	33.496	
C	 0.1069691924	 1.7040364914	 0.0530911902	-0.408024
C	 0.077314973	 0.1911806542	 0.1245126796	 0.064878
O	 0.9789764356	-0.4563580861	-0.8220688667	-0.301274
C	 1.5307637652	-1.2639173397	 0.2148910454	 0.078319
C	 2.2361883852	-0.4485426781	 1.2282690738	-0.347436
C	 0.7174565242	-0.5607013686	 1.3007628885	 0.151109
C	 0.0758286137	-1.1911905323	 2.4835061943	 0.309822
N	-1.2449943294	-0.8801139922	 2.6713148743	-0.54468
O	 0.6735407785	-1.9590225961	 3.2168975029	-0.375691
H	 1.099660257	 2.0976627256	 0.2843086169	 0.128871
H	-0.1710522452	 2.0386186858	-0.9511076569	 0.134875
H	-0.6098520673	 2.132872012	 0.76272816	 0.113506
H	-0.9394132595	-0.181939022	-0.0626826429	 0.083534
H	 1.6746968988	-2.3211490968	 0.0275845638	 0.122824
H	 2.7160562438	-1.0073255819	 2.0245185996	 0.151367
H	 2.7059929876	 0.4860089829	 0.9385227822	 0.117322
H	-1.6817793363	-0.1118812529	 2.192119671	 0.258556
H	-1.6743945672	-1.2108757052	 3.5205104738	 0.262124
57.542	127.5957	189.8265	213.7002	223.1407	242.0965	298.6226	402.1819	450.2997	488.0625	525.7013	581.5971	650.0379	709.4992	748.5175	853.5969	866.9349	889.1005	916.181	995.3041	1014.631	1050.0113	1081.8301	1087.7248	1091.3292	1123.3779	1131.6427	1208.4527	1240.8508	1291.5553	1342.5196	1385.8083	1401.6573	1420.5556	1467.0371	1481.3459	1493.3222	1617.4393	1778.6727	3002.9263	3036.0604	3103.6768	3123.9585	3129.0228	3193.4697	3230.1762	3597.315	3729.6729
CC1OC2CC12C(N)=O	C[C@H]1O[C@H]2C[C@@]12C(=O)N	
InChI=1S/C6H9NO2/c1-3-6(5(7)8)2-4(6)9-3/h3-4H,2H2,1H3,(H2,7,8)	InChI=1S/C6H9NO2/c1-3-6(5(7)8)2-4(6)9-3/h3-4H,2H2,1H3,(H2,7,8)/t3-,4+,6-/m1/s1
