21
gdb 114697	3.79894	1.08413	0.97008	1.0283	78.96	-0.2386	0.0946	0.3332	1322.9244	0.181036	-424.221393	-424.212237	-424.211293	-424.255273	34.711	
C	 0.1040548715	 1.4426263754	-0.1736982584	-0.385578
C	-0.0103596857	-0.0758053223	-0.0184202663	-0.202918
C	-1.4487408439	-0.5483790859	 0.0190434711	 0.224017
O	-2.1062055778	-0.2615844105	-1.2127682785	-0.274058
C	-3.0847057206	-1.2612079992	-1.3628647337	 0.019911
C	-2.5978143741	-2.5776309249	-1.9355197051	-0.35754
C	-2.7161273973	-2.3770610633	-0.437750462	 0.397237
C	-3.6424100131	-3.1661469049	 0.4424318176	-0.466956
O	-1.5098497693	-1.9591589098	 0.1795369237	-0.309272
H	 1.1524095953	 1.7529650676	-0.1960093564	 0.114603
H	-0.3716614937	 1.7741288568	-1.1004733256	 0.137338
H	-0.3803360914	 1.9659117826	 0.6581599579	 0.114605
H	 0.4861919037	-0.591610732	-0.8470407932	 0.109056
H	 0.4713080245	-0.4082202472	 0.9077673508	 0.10865
H	-2.0066291656	-0.0630989048	 0.8422603492	 0.062059
H	-4.0964077911	-0.9022779471	-1.5230918272	 0.100976
H	-3.3302250539	-3.2156134566	-2.4211650803	 0.110273
H	-1.6011719211	-2.5912463345	-2.3605898376	 0.12321
H	-4.5705354725	-3.4004840626	-0.087102799	 0.118805
H	-3.1775300516	-4.1108380685	 0.7434134252	 0.131396
H	-3.8924221824	-2.6051922683	 1.3487329678	 0.124187
71.7697	109.7655	170.3751	205.1031	224.6444	230.3007	298.8421	379.2798	421.5673	466.2929	488.2999	627.1586	698.4333	774.2491	777.9463	839.0134	861.0598	895.2511	939.35	958.5128	968.7834	1014.7859	1039.8801	1043.4378	1082.4981	1108.8341	1122.9781	1137.0821	1137.9306	1176.9042	1244.3034	1279.4694	1286.7558	1330.9326	1366.4171	1393.6612	1409.3231	1422.2522	1435.7922	1469.8179	1477.6581	1480.4929	1497.4257	1500.1411	1509.8903	2921.9255	3034.4748	3039.0485	3046.7001	3086.0081	3100.9978	3107.4246	3113.1029	3124.4403	3128.2206	3158.4306	3230.1197
CCC1OC2CC2(C)O1	CC[C@H]1O[C@H]2C[C@@]2(C)O1	
InChI=1S/C7H12O2/c1-3-6-8-5-4-7(5,2)9-6/h5-6H,3-4H2,1-2H3	InChI=1S/C7H12O2/c1-3-6-8-5-4-7(5,2)9-6/h5-6H,3-4H2,1-2H3/t5-,6-,7+/m0/s1
