13
gdb 127297	5.38457	1.32779	1.0725	5.32	69.35	-0.2472	-0.0647	0.1826	1032.6268	0.090244	-448.883563	-448.87649	-448.875546	-448.915502	25.714	
C	 0.0086205689	 1.3952317557	 0.0588240505	-0.321668
N	-0.0210158761	-0.0542486707	-0.0134018825	 0.056853
C	-0.0583113543	-0.8012228128	-1.1712978222	-0.212338
C	 0.0067754675	-2.1104847868	-0.7385502408	 0.307662
O	 0.0121496571	-3.3730453897	-1.1180351836	-0.293505
N	 0.1031215992	-4.1291109003	 0.2600449421	-0.013743
N	 0.1318266122	-3.2916938794	 1.1614525893	-0.159351
C	 0.0799466985	-2.0120375394	 0.6593997363	 0.349129
N	 0.0662898363	-0.7630851596	 1.1228888454	-0.345201
H	 1.0339244945	 1.7687728966	-0.0256013003	 0.156283
H	-0.595840852	 1.8109279669	-0.7496480396	 0.149666
H	-0.4057791762	 1.6940359021	 1.0210902921	 0.171969
H	-0.1278849455	-0.3362046827	-2.1390998969	 0.154244
61.9611	153.0936	281.0643	288.4099	328.8064	371.6676	566.6114	581.7778	625.3277	627.8296	727.8635	766.0044	775.6205	862.02	961.158	1005.8726	1077.6407	1143.9995	1183.0449	1242.3036	1352.1977	1411.9783	1432.4154	1459.6544	1484.5573	1502.4544	1507.7521	1567.1858	1632.5314	3050.7936	3125.3818	3168.7928	3284.8244
CN1C=C2ON=NC2=N1	Cn1cc2onnc2n1	
InChI=1S/C4H4N4O/c1-8-2-3-4(6-8)5-7-9-3/h2H,1H3	InChI=1S/C4H4N4O/c1-8-2-3-4(6-8)5-7-9-3/h2H,1H3
