17
gdb 13545	3.64951	1.35733	1.10034	5.4645	69.1	-0.2601	0.0223	0.2825	1085.8102	0.14236	-360.02066	-360.011879	-360.010935	-360.054291	31.379	
C	-0.8016490576	 1.1189383819	 0.2800481705	-0.402197
C	-0.1483259373	-0.2412087172	 0.2028609672	-0.008666
N	 1.2012862226	-0.3104550716	-0.3777074508	-0.326922
C	 1.0135013831	-0.683414517	 1.0267632731	-0.032868
C	 1.6845573122	 0.2030601712	 2.0744554886	-0.129483
N	 1.0533169563	 0.1920273819	 3.3986658762	-0.505717
C	 3.0954829391	-0.1953573815	 2.2144144131	 0.300911
N	 4.1906472501	-0.5496926128	 2.311662287	-0.318797
H	-0.0791262841	 1.9026561939	 0.5185548789	 0.132349
H	-1.2530591745	 1.3746902346	-0.6840548462	 0.131117
H	-1.5973195573	 1.1316982818	 1.033300211	 0.11734
H	-0.8358482923	-1.043836685	-0.0639459986	 0.090962
H	 1.3220602991	-1.1306959587	-0.96406482	 0.240612
H	 1.0487681121	-1.7422893647	 1.2829738759	 0.093036
H	 1.6814291411	 1.2338941228	 1.7055583671	 0.139862
H	 0.0788085805	 0.4606965501	 3.2972647991	 0.239025
H	 1.059031877	-0.7513381197	 3.776979448	 0.239438
53.0691	117.5985	171.3866	177.528	232.9662	251.0627	288.7636	388.0498	425.4396	504.2035	543.6256	605.9169	787.8124	828.036	858.9947	886.0235	939.3878	974.8118	1011.7201	1039.2872	1092.2188	1122.0922	1152.8341	1177.0789	1219.9819	1250.6333	1271.3516	1298.1138	1387.9346	1401.7839	1425.2304	1466.1867	1489.8452	1503.7845	1656.0542	2363.2963	3036.8111	3067.3285	3097.627	3099.8558	3111.0309	3129.6957	3489.038	3520.2477	3573.0699
CC1NC1C(N)C#N	C[C@H]1N[C@H]1[C@@H](N)C#N	
InChI=1S/C5H9N3/c1-3-5(8-3)4(7)2-6/h3-5,8H,7H2,1H3	InChI=1S/C5H9N3/c1-3-5(8-3)4(7)2-6/h3-5,8H,7H2,1H3/t3-,4+,5-/m1/s1
