15
gdb 127627	3.49593	1.67512	1.14068	2.6033	73.27	-0.2227	0.0037	0.2264	1003.093	0.116205	-412.992668	-412.985256	-412.984312	-413.0254	26.951	
C	 0.0443695915	 1.4238930681	-0.0046700904	-0.346028
N	 0.0314443597	-0.0185481981	 0.0289765403	-0.119922
N	-0.0242145737	-0.7462669514	-1.1404042473	-0.257474
C	-0.0228409528	-2.0254434891	-0.796917507	-0.157723
C	 0.0339652177	-2.180827102	 0.6151591539	 0.137466
C	 0.0663311114	-0.8668736096	 1.0793309605	 0.526922
N	 0.1220582552	-0.88922371	 2.4307868321	-0.374627
N	 0.1277551561	-2.1879642329	 2.8840403325	-0.213375
C	 0.0755089813	-2.9565062737	 1.807145881	-0.15235
H	 0.9598070639	 1.8237586021	 0.446046895	 0.136805
H	 0.0043161876	 1.7210230949	-1.0521210319	 0.170066
H	-0.8229257062	 1.8414838112	 0.5192448206	 0.136808
H	-0.0624105228	-2.7757963928	-1.5723652376	 0.120457
H	 0.1570127161	-0.1414400497	 3.0991567043	 0.274052
H	 0.069876845	-4.0292701371	 1.930795914	 0.118924
35.6611	139.8607	244.6603	259.4347	267.1169	359.9709	529.8466	623.2418	633.8074	656.0283	696.1814	751.4942	850.5323	862.2074	875.3928	970.7241	985.3865	1051.6425	1131.2824	1152.731	1220.2878	1251.8443	1273.2981	1304.2518	1362.7352	1435.5325	1443.2599	1460.5444	1485.6824	1504.1968	1510.887	1552.1415	1659.8417	3026.0516	3080.2012	3163.0307	3247.4459	3248.7338	3700.8793
CN1N=CC2=C1NN=C2	Cn1ncc2c1[nH]nc2	
InChI=1S/C5H6N4/c1-9-5-4(3-7-9)2-6-8-5/h2-3H,1H3,(H,6,8)	InChI=1S/C5H6N4/c1-9-5-4(3-7-9)2-6-8-5/h2-3H,1H3,(H,6,8)
