19
gdb 65668	3.29383	1.24434	1.05649	4.1854	76.6	-0.2708	0.0085	0.2793	1173.162	0.158737	-422.997794	-422.989545	-422.988601	-423.030706	31.643	
C	-0.0851004396	 1.664195025	 0.0837382778	-0.474313
C	 0.0123236773	 0.1475164715	 0.0178765366	 0.458412
O	-1.3380199163	-0.3553976122	-0.1239889804	-0.244967
C	-1.8855808048	-0.3459816036	-1.3506049936	 0.156844
O	-3.0124983838	-0.6876139152	-1.5593750028	-0.280398
C	 1.1287234155	-0.593424849	-0.7956130714	-0.109477
C	 2.1149656535	-0.1857954724	 0.33816573	-0.242411
C	 0.8234552272	-0.6619618475	 1.0688153542	-0.09366
C	 0.8158678386	-1.8575987363	 0.0672929693	-0.231019
H	 0.8690334336	 2.1469531698	 0.2949364891	 0.129964
H	-0.4619896061	 2.0660324993	-0.8627877717	 0.125497
H	-0.7951896153	 1.94603345	 0.8667271743	 0.140934
H	-1.1871907034	-0.0033780864	-2.1374256511	 0.076892
H	 1.3117268532	-0.5465048103	-1.8699826469	 0.080355
H	 2.980014827	-0.8411428202	 0.4544046714	 0.104702
H	 2.408320646	 0.8599690215	 0.4222354155	 0.099306
H	 0.6383185164	-0.6912900586	 2.1428577205	 0.083146
H	-0.1325485369	-2.3646421884	-0.0958904274	 0.122615
H	 1.6402450179	-2.5654898672	 0.1733806365	 0.097578
83.7352	156.4363	166.9551	189.3401	258.6841	335.507	425.7986	439.6591	473.3786	578.9676	624.6089	748.6786	789.9459	804.3552	885.6017	899.7086	907.4357	958.439	1005.0551	1014.835	1028.9737	1051.7289	1069.998	1088.487	1109.2614	1136.4646	1156.3586	1184.9135	1195.3222	1204.9552	1211.7515	1246.2095	1251.0773	1302.1352	1417.4714	1430.1192	1487.9642	1489.717	1510.8444	1545.4045	1857.3345	2959.4207	3045.8895	3080.4644	3081.8472	3104.5456	3107.0597	3116.4529	3138.2149	3153.6103	3166.2965
CC1(OC=O)C2CC1C2	C[C@@]1(OC=O)[C@H]2C[C@@H]1C2	
InChI=1S/C7H10O2/c1-7(9-4-8)5-2-6(7)3-5/h4-6H,2-3H2,1H3	InChI=1S/C7H10O2/c1-7(9-4-8)5-2-6(7)3-5/h4-6H,2-3H2,1H3/t5-,6+,7-
