20
gdb 12854	2.93841	2.22326	1.77458	1.6476	73.5	-0.2397	0.082	0.3217	860.1047	0.178645	-349.015637	-349.008271	-349.007326	-349.046791	29.344	
C	-0.1069905789	 1.549162842	 0.1199982565	-0.461848
C	 0.0033786828	 0.0382465797	 0.0709796715	 0.453543
C	-1.3179605459	-0.7181152048	-0.1025538728	-0.238922
C	-1.0170610524	-2.1396601736	 0.4054351669	-0.216474
C	-0.0725080357	-1.9073048795	 1.6044738625	-0.222667
C	 0.800190852	-0.7156955223	 1.1851939059	-0.098257
C	 1.8194893385	-0.9928291015	 0.065305462	-0.084405
O	 0.975287189	-0.3865361862	-0.9330876555	-0.333418
H	 0.876846152	 2.0078519831	 0.255965634	 0.117347
H	-0.5305740014	 1.9316442207	-0.8149302372	 0.123702
H	-0.7554373497	 1.867099026	 0.9435240972	 0.111616
H	-2.090982339	-0.2457952215	 0.5170193024	 0.091281
H	-1.6571584117	-0.6877866738	-1.1421885598	 0.104502
H	-1.9162250392	-2.6996958782	 0.6757423663	 0.092812
H	-0.5025007501	-2.7068131434	-0.3773862777	 0.112937
H	-0.6565276855	-1.6370853992	 2.492614133	 0.096687
H	 0.516813556	-2.7930179843	 1.8637245731	 0.095755
H	 1.1719265286	-0.1258228874	 2.0246300348	 0.06747
H	 2.7770508973	-0.4647722156	 0.1644698745	 0.09439
H	 2.0215813633	-2.0501649499	-0.1511915175	 0.09395
124.5025	214.2497	226.297	257.236	343.9624	371.487	397.265	573.6387	585.418	645.1702	806.1448	823.2822	858.5923	889.88	896.3594	914.257	945.8127	977.53	999.4604	1025.8143	1036.0828	1075.2068	1105.6274	1150.4921	1170.7969	1185.5181	1215.8173	1234.9311	1244.3189	1281.6869	1314.8725	1330.6728	1344.1776	1351.8513	1375.1984	1407.8891	1467.991	1483.1303	1486.3465	1491.4692	1501.0125	1527.1579	3001.0184	3027.1049	3030.9547	3033.3908	3039.8638	3051.0208	3076.9892	3089.7337	3094.9191	3100.074	3103.2948	3109.0374
CC12CCCC1CO2	C[C@]12CCC[C@H]1CO2	
InChI=1S/C7H12O/c1-7-4-2-3-6(7)5-8-7/h6H,2-5H2,1H3	InChI=1S/C7H12O/c1-7-4-2-3-6(7)5-8-7/h6H,2-5H2,1H3/t6-,7-/m0/s1
