19
gdb 69651	3.94305	1.20079	1.0912	2.6293	75.49	-0.238	0.0705	0.3085	1165.4951	0.15803	-422.966942	-422.95868	-422.957736	-422.999856	31.619	
C	 0.0661696569	 1.4973334561	-0.0752021425	-0.487366
C	 0.0542588266	 0.0125258313	 0.0721859911	 0.463434
C	-0.9262718259	-0.8270622735	 0.8293338268	-0.342638
C	 0.5621815148	-0.9623528993	 1.1122215257	-0.260749
C	 1.2157204584	-1.6762307255	-0.0570835316	 0.374939
C	 2.7409094551	-1.8751384796	-0.1225808938	-0.135825
O	 2.5812027096	-3.3071029014	-0.1925501069	-0.275698
C	 1.1481235418	-3.1884812548	-0.3266116058	-0.136093
O	 0.6144797695	-0.768535323	-1.0038820074	-0.351195
H	 1.0771805842	 1.8644033502	-0.2769053489	 0.129047
H	-0.5791954292	 1.8046439165	-0.9058437627	 0.135301
H	-0.3057594204	 1.9750863454	 0.8356100428	 0.125513
H	-1.4849185996	-0.3152325804	 1.6071945477	 0.115423
H	-1.4667257168	-1.6206236111	 0.3200865445	 0.115274
H	 1.0045346504	-0.8028587854	 2.0867184545	 0.103486
H	 3.1869970309	-1.4547609905	-1.0330177966	 0.108904
H	 3.3224394939	-1.5638548667	 0.7535874906	 0.102584
H	 0.6072226896	-3.7994633293	 0.4053755305	 0.105345
H	 0.8031227003	-3.4307681088	-1.339947008	 0.110315
84.1125	110.3416	198.2108	202.4121	295.713	322.7208	375.3314	446.9177	471.1191	519.0789	664.6362	813.2253	818.362	837.0658	885.148	920.9611	933.8476	970.0657	974.5671	989.8954	993.9161	1026.4451	1056.9172	1072.6271	1112.014	1129.3784	1147.531	1153.5152	1160.3133	1193.2133	1257.8654	1295.1543	1322.0274	1382.4173	1388.2093	1428.6099	1474.1314	1490.0523	1495.8613	1503.0031	1522.7866	3008.0309	3020.1122	3034.3285	3063.8094	3067.3396	3098.3856	3113.0954	3118.1076	3197.0973	3207.083
CC12CC1C1(COC1)O2	C[C@]12C[C@H]1C1(COC1)O2	
InChI=1S/C7H10O2/c1-6-2-5(6)7(9-6)3-8-4-7/h5H,2-4H2,1H3	InChI=1S/C7H10O2/c1-6-2-5(6)7(9-6)3-8-4-7/h5H,2-4H2,1H3/t5-,6+/m1/s1
