14
gdb 132371	1.99474	1.93775	0.9889	3.3474	66.92	-0.2593	-0.0286	0.2306	1106.3598	0.101428	-474.243806	-474.235596	-474.234652	-474.277469	28.96	
C	-0.0191369438	 1.4749491608	 0.0133190923	-0.458514
C	 0.0179826394	-0.0239897346	 0.0184996331	 0.34936
N	 0.0913346361	-0.631816148	-1.1797906444	-0.3548
C	 0.119632478	-1.9476900975	-1.0954752872	 0.333326
F	 0.1904700869	-2.5927549415	-2.2416470024	-0.050408
N	 0.0863716435	-2.7070313257	-0.0220402607	-0.369039
C	 0.0141777217	-1.9928671959	 1.1163748814	 0.454958
N	-0.0204007497	-2.6780420766	 2.2738789805	-0.553127
N	-0.0234291775	-0.6479039093	 1.1913537013	-0.338491
H	 0.8769086198	 1.8655967063	-0.478897459	 0.149593
H	-0.8768519421	 1.8221930676	-0.5709613929	 0.149476
H	-0.0816712815	 1.8614091629	 1.0301708439	 0.137271
H	-0.0153060382	-3.6821398001	 2.255857261	 0.275835
H	-0.0955575726	-2.1760931385	 3.1402166031	 0.274561
46.9632	118.7093	187.2184	197.1647	208.1928	303.2844	353.8245	564.6229	572.9806	581.662	584.7503	637.0899	648.7396	767.2319	844.044	973.8395	992.3282	1028.1115	1064.4918	1096.0454	1140.1359	1275.1902	1387.3921	1439.3689	1441.1001	1475.5225	1479.36	1516.3871	1583.3201	1629.2029	1655.1252	3052.1486	3110.955	3162.7617	3631.1912	3771.4118
CC1=NC(F)=NC(N)=N1	Cc1nc(F)nc(N)n1	
InChI=1S/C4H5FN4/c1-2-7-3(5)9-4(6)8-2/h1H3,(H2,6,7,8,9)	InChI=1S/C4H5FN4/c1-2-7-3(5)9-4(6)8-2/h1H3,(H2,6,7,8,9)
