16
gdb 43304	3.31187	1.76551	1.32642	3.7354	75.03	-0.2422	-0.0662	0.176	938.0867	0.127193	-400.696579	-400.690315	-400.689371	-400.72709	25.729	
O	 0.0111977967	-0.0401060729	-0.0693291185	-0.328453
C	-0.0369857253	 1.1701213224	 0.0095214313	 0.392594
C	-1.2824591515	 1.9522719521	 0.1039694569	-0.196235
C	-1.1392961383	 3.2825286354	 0.1287555267	-0.058699
C	 0.2353404957	 3.8696366785	 0.094064565	-0.012547
C	 1.2820635551	 3.2942267602	-0.9022274875	-0.086366
C	 2.3268796618	 3.7864567175	 0.1107622095	-0.173338
N	 1.2623826747	 3.175820712	 1.0375969158	-0.16136
C	 1.2205495713	 2.0220475764	-0.0082520871	-0.083236
H	-2.2329382278	 1.4320544319	 0.1320963265	 0.11954
H	-1.9896421218	 3.9556165517	 0.1807966035	 0.119138
H	 0.2341225506	 4.9547224105	 0.2223297373	 0.079618
H	 1.2805286621	 3.3586689067	-1.9958119965	 0.080158
H	 3.2856102481	 3.2646981005	 0.1541944014	 0.112086
H	 2.4491802867	 4.8651249404	 0.2429632462	 0.105686
H	 2.1047648619	 1.3814062266	 0.0208560795	 0.091412
141.319	266.5424	375.0569	381.4385	481.3364	521.6764	560.3723	677.4353	724.1003	738.5653	771.0978	842.033	870.9398	885.0197	913.1893	963.045	1009.3055	1011.4348	1028.0486	1061.1649	1105.5366	1121.8282	1134.995	1165.6123	1188.1935	1225.1099	1226.3905	1259.5889	1267.3287	1327.519	1391.8615	1409.757	1528.8126	1674.233	1789.9582	3043.2379	3057.7794	3083.3176	3096.3845	3124.4695	3176.9096	3209.4924
O=C1C=CC2C3CN2C13	O=C1C=C[C@@H]2[C@H]3CN2[C@@H]13	
InChI=1S/C7H7NO/c9-6-2-1-5-4-3-8(5)7(4)6/h1-2,4-5,7H,3H2	InChI=1S/C7H7NO/c9-6-2-1-5-4-3-8(5)7(4)6/h1-2,4-5,7H,3H2/t4-,5-,7-/m1/s1
