18
gdb 30706	2.57511	0.88057	0.66113	6.4586	92.18	-0.181	-0.1039	0.0772	1674.1444	0.140854	-439.061058	-439.04905	-439.048106	-439.10279	38.886	
C	 0.6067379929	 1.0978927518	-0.0727849617	-0.511652
C	-0.0557616794	-0.1943670471	 0.2519554718	 0.000369
C	-0.262768626	-1.2825574871	-0.6228854872	 0.371116
C	 0.0098366511	-1.5605511965	-1.9072304247	-0.421992
N	 1.6712674987	 0.8115236309	-3.8595580752	-0.698346
H	 1.7346440897	 0.3900972521	-4.782684101	 0.246353
H	 1.2061348506	 1.7057926152	-3.9908867088	 0.248985
H	 2.6253149786	 1.0294321774	-3.5845635114	 0.248898
O	-0.9372737595	-2.3259444524	 0.0937132455	-0.160799
C	-1.1063496787	-1.8640613006	 1.306572578	-0.049882
C	-0.5922029175	-0.518879722	 1.542459345	 0.250932
O	-0.6374651574	 0.1190479154	 2.6000984803	-0.437568
H	 1.450527545	 1.2722509145	 0.6063752302	 0.144474
H	 0.9671854279	 1.1350901109	-1.1035086036	 0.130961
H	-0.0861587419	 1.9331159992	 0.0901537527	 0.14358
H	-0.2818260708	-2.5184578417	-2.3196265828	 0.135971
H	 0.5188458248	-0.8376388411	-2.5393304635	 0.19274
H	-1.6084026381	-2.5268674688	 2.0040256165	 0.16586
10.4489	21.1288	45.6564	46.1028	101.562	139.5466	189.1537	198.5599	233.7796	254.0471	314.6172	316.3564	518.9217	588.7627	598.9992	670.2665	707.9166	748.0215	748.5639	857.9852	905.254	957.9619	961.1445	1043.3893	1067.9608	1109.5376	1117.144	1248.6458	1277.2302	1365.022	1412.517	1437.7697	1464.1524	1472.2044	1496.2392	1677.2412	1678.1991	1681.3567	1715.2467	3018.8701	3062.5613	3120.8872	3133.3584	3203.6618	3251.6508	3468.0937	3583.8823	3586.2639	10.4393	21.1301	45.6582	46.1035	101.5622	139.5468	189.1525	198.559	233.7798	254.0472	314.6171	316.3565	518.9217	588.7625	598.9995	670.2682	707.9166	748.0213	748.5642	857.9846	905.2533	957.9619	961.1458	1043.3888	1067.9607	1109.5376	1117.1438	1248.6453	1277.23	1365.0213	1412.5166	1437.7698	1464.153	1472.2039	1496.2389	1677.2416	1678.1994	1681.3567	1715.2466	3018.8702	3062.5614	3120.8872	3133.3585	3203.6616	3251.6507	3468.0936	3583.8822	3586.2639
CC1=C(C[NH3+])OC=C1[O-]	C[C]1C(=C)O[CH]C1=O.N	
InChI=1S/C6H9NO2/c1-4-5(8)3-9-6(4)2-7/h3,8H,2,7H2,1H3	InChI=1S/C6H6O2.H3N/c1-4-5(2)8-3-6(4)7;/h3H,2H2,1H3;1H3
