21
gdb 102092	1.97925	1.34793	1.04913	1.8134	79.57	-0.2396	-0.031	0.2087	1282.3735	0.178833	-424.210423	-424.199992	-424.199048	-424.246348	37.203	
C	-0.1423062467	 1.3939377651	 0.1404531685	-0.242703
O	-0.362989658	 0.0193264935	-0.1011488574	-0.247371
C	 0.5807095992	-0.5606601957	-0.9798059744	-0.027607
C	 1.9269752641	-0.7472041669	-0.2755226872	 0.137413
O	 2.9874175642	-0.7789745342	-0.8430551903	-0.244109
C	 0.0430454565	-1.9062296286	-1.4518770303	 0.353367
C	-0.345917486	-2.8759645705	-0.3507733593	-0.475645
C	-0.768339916	-1.8961984295	-2.7259071564	-0.317537
C	 0.636352259	-2.4483094406	-2.7288670463	-0.301722
H	 0.8397835881	 1.5875938761	 0.5978728408	 0.113374
H	-0.2082428223	 1.9807676978	-0.788252668	 0.113003
H	-0.9206986616	 1.7290846515	 0.8294520548	 0.133896
H	 0.7557947002	 0.0838483236	-1.8553710053	 0.081605
H	 1.8423593201	-0.8741083451	 0.8290085076	 0.086042
H	-1.0904325334	-2.4300321594	 0.3143077981	 0.137837
H	-0.7713640519	-3.7882759543	-0.7791091244	 0.114663
H	 0.5179761918	-3.171602487	 0.2557397976	 0.117773
H	-1.5951388548	-2.5945631585	-2.7993240114	 0.113808
H	-0.9475829903	-0.9443392215	-3.2142073983	 0.113196
H	 1.4177873827	-1.8750525543	-3.2149492304	 0.127223
H	 0.7663110554	-3.5226929714	-2.8019614783	 0.113493
51.7975	72.5384	105.7284	165.6805	179.2577	213.7434	236.5352	274.5363	310.2522	326.2116	399.4037	463.2036	471.3285	551.5693	743.7607	780.4208	875.2921	904.8944	934.381	956.6914	989.6483	1039.6215	1046.5253	1068.5355	1077.2389	1083.2542	1131.6738	1141.8721	1181.9416	1185.2158	1220.1649	1266.0412	1315.7093	1326.8796	1380.4291	1396.1791	1420.1545	1471.4142	1480.425	1488.2904	1490.9647	1501.4224	1507.2806	1509.6393	1833.3846	2864.327	2977.2402	2987.7694	3026.8456	3031.9994	3095.0108	3118.4269	3121.4272	3131.3863	3137.6389	3210.5664	3224.754
COC(C=O)C1(C)CC1	CO[C@@H](C=O)C1(C)CC1	
InChI=1S/C7H12O2/c1-7(3-4-7)6(5-8)9-2/h5-6H,3-4H2,1-2H3	InChI=1S/C7H12O2/c1-7(3-4-7)6(5-8)9-2/h5-6H,3-4H2,1-2H3/t6-/m0/s1
