14
gdb 44285	3.57207	1.95336	1.54003	5.5386	63.45	-0.2512	0.0119	0.2631	825.1945	0.102692	-436.637435	-436.631617	-436.630673	-436.667648	23.946	
O	-0.045488592	-0.0322169942	-0.2370123072	-0.3285
C	-0.0448822371	 1.1358163415	 0.0103547611	 0.447677
O	-1.2080164976	 1.7976965096	 0.2209125611	-0.227387
C	-1.1184574486	 3.1738490633	 0.5069264503	 0.109086
C	-0.0319170642	 3.7518317596	 1.3529580428	-0.136649
C	-0.1230160214	 4.0707040464	-0.1527360428	-0.136649
C	 1.2083866403	 3.3010269305	-0.3643717221	-0.066458
C	 1.2958023157	 2.9950518858	 1.0804330183	-0.066456
N	 1.1496630023	 1.9033607123	 0.1006351658	-0.191926
H	-2.1157584258	 3.5722720623	 0.6516396307	 0.131021
H	-0.2116738604	 4.3829712209	 2.2123129724	 0.110217
H	-0.3852730727	 4.9905999241	-0.6568722601	 0.110217
H	 1.969419296	 3.5518547962	-1.0912644391	 0.122904
H	 2.1415430456	 2.9493860315	 1.7535567387	 0.122903
110.9234	330.3408	463.7318	510.7842	556.7658	561.1293	712.3015	727.6587	729.7625	767.6239	810.7592	832.2869	884.4922	905.3875	941.1006	954.4641	958.1086	1018.7132	1023.0448	1038.3473	1052.7469	1092.1473	1113.1527	1194.3807	1228.824	1263.8438	1287.692	1293.5305	1362.062	1447.6641	1878.3398	3188.3444	3198.1092	3209.0537	3209.4761	3219.6313
O=C1OC2C3C2C2C3N12	O=C1O[C@H]2[C@@H]3[C@H]2[C@H]2[C@@H]3N12	
InChI=1S/C6H5NO2/c8-6-7-3-1-2(4(3)7)5(1)9-6/h1-5H	InChI=1S/C6H5NO2/c8-6-7-3-1-2(4(3)7)5(1)9-6/h1-5H/t1-,2+,3-,4+,5+,7?
