14
gdb 69045	2.94618	1.39675	1.16049	1.5358	67.74	-0.256	-0.0544	0.2016	1041.8939	0.098686	-473.792738	-473.784689	-473.783745	-473.825504	29.673	
O	-0.0574216628	 1.3237490877	-0.2627148992	-0.414518
C	 0.0159840343	-0.0164778703	-0.0966713519	 0.261409
C	-0.2070028659	-0.9583377855	-1.2381946198	-0.361511
C	-1.0610285528	-1.187038117	-0.0286999817	 0.231876
O	-0.2707728912	-1.8274907796	 1.0051718087	-0.290388
C	 0.5909731869	-0.735509669	 1.0826492579	 0.357363
N	 1.4513662219	-0.4187709201	 1.9334568201	-0.547383
C	-2.5139365708	-1.1019112225	 0.0988114182	 0.07106
O	-3.2348796641	-0.658560142	-0.7659135601	-0.268719
H	-0.0891765001	 1.7430260296	 0.6069135603	 0.312771
H	-0.7417135178	-0.4939548145	-2.0618463273	 0.169603
H	 0.5317419714	-1.7080575317	-1.5063973315	 0.141271
H	 1.5446481439	-1.1235297974	 2.6661648199	 0.243927
H	-2.8985326327	-1.453805798	 1.0791668662	 0.09324
93.7259	115.0493	195.3649	209.3298	288.2299	393.2079	402.8346	425.4302	476.1731	542.768	644.4554	688.3194	716.0059	773.7319	815.8666	873.3869	937.2141	957.1618	979.8403	1036.9964	1084.3723	1103.4915	1148.9312	1241.8706	1314.1795	1385.9344	1417.3144	1426.5668	1485.5015	1787.2105	1831.879	2914.6458	3120.6224	3220.8824	3489.9178	3779.8266
OC12CC1(OC2=N)C=O	O[C@]12C[C@]1(O[C]2[NH])C=O	
InChI=1S/C5H5NO3/c6-3-5(8)1-4(5,2-7)9-3/h2,6,8H,1H2	InChI=1S/C5H5NO3/c6-3-5(8)1-4(5,2-7)9-3/h2,6,8H,1H2/t4-,5-/m0/s1
