13
gdb 132167	3.36731	1.40171	0.99064	2.9067	65.31	-0.2181	-0.0278	0.1904	1069.9099	0.090504	-494.061969	-494.054749	-494.053805	-494.093638	27.725	
N	 0.027251569	 1.3669916153	 0.1526009817	-0.586761
C	-0.0221519544	-0.0022420191	 0.0460231727	 0.239997
C	-1.1392178659	-0.7516281626	 0.0097788569	-0.06821
O	-1.0792568868	-2.1408211239	-0.0338633011	-0.190991
C	 0.133142901	-2.6694427195	-0.0323960622	 0.39383
F	 0.0418022416	-3.9757278227	-0.0569061127	-0.040466
N	 1.2622487693	-2.0956484119	-0.0153928514	-0.421935
C	 1.284689086	-0.6953599017	 0.0054888573	 0.327341
N	 2.3506271684	 0.0073941934	-0.0192355641	-0.54365
H	 0.9429434614	 1.732797733	-0.0768116326	 0.275129
H	-0.7539217475	 1.8957059407	-0.2012251805	 0.250928
H	-2.1611145896	-0.4058677242	 0.0199044741	 0.135414
H	 3.1694219076	-0.6002209968	-0.0546397282	 0.229375
109.8934	199.3061	324.3835	328.2986	382.7727	385.1173	432.5079	484.9471	533.6789	572.5974	615.4601	727.2842	759.3356	779.31	787.2386	801.9738	900.2216	973.5736	1084.5727	1144.739	1216.4317	1298.9138	1316.4222	1404.4481	1454.3512	1613.7772	1689.9692	1714.9943	1722.0402	3257.3282	3488.7728	3545.2511	3676.6626
NC1=COC(F)=NC1=N	NC1=C(N=C(OC1)F)[NH]	
InChI=1S/C4H4FN3O/c5-4-8-3(7)2(6)1-9-4/h1,7H,6H2	InChI=1S/C4H5FN3O/c5-4-8-3(7)2(6)1-9-4/h7H,1,6H2
