14
gdb 30632	4.60085	1.00086	0.82623	3.3674	65.04	-0.2522	-0.0488	0.2034	1283.0456	0.100637	-473.855186	-473.847132	-473.846188	-473.888639	28.216	
O	 0.0339325846	 1.3727072074	 0.0092012633	-0.398599
C	-0.0182320625	-0.0290127395	 0.0026033858	-0.181
C	-1.4727279412	-0.4760999786	 0.0118074394	 0.283967
O	-2.4066094741	 0.2929726151	 0.0229148984	-0.299663
C	-1.686235557	-1.940435222	 0.0061228334	 0.156954
C	-2.8763981973	-2.5997018979	 0.0121997976	-0.070774
O	-2.6210749328	-3.9319545445	 0.0034983696	-0.133032
C	-1.2647687033	-4.0190556829	-0.0077690927	 0.070588
N	-0.6560605395	-2.8833845014	-0.0068006263	-0.309038
H	 0.9593707783	 1.6332405999	 0.0014602288	 0.29327
H	 0.4620804088	-0.4786806702	-0.8827394587	 0.121831
H	 0.4758394814	-0.4874319256	 0.8758307468	 0.121813
H	-3.905957271	-2.2887404556	 0.0219386982	 0.181218
H	-0.8447703543	-5.0123878342	-0.0161173438	 0.162465
72.1678	98.4046	144.9611	202.8089	240.1553	286.9535	369.3848	493.979	544.914	644.868	703.5092	759.363	826.9	859.9653	929.0118	930.3567	1013.0507	1044.7701	1093.3726	1135.4645	1148.64	1224.7715	1241.1459	1245.7844	1302.6641	1347.0308	1447.8246	1483.0357	1560.3893	1594.2891	1800.5055	2967.985	2989.105	3280.6488	3308.7844	3837.6481
OCC(=O)C1=COC=N1	OCC(=O)c1cocn1	
InChI=1S/C5H5NO3/c7-1-5(8)4-2-9-3-6-4/h2-3,7H,1H2	InChI=1S/C5H5NO3/c7-1-5(8)4-2-9-3-6-4/h2-3,7H,1H2
