17
gdb 18576	3.54861	2.16909	1.71616	1.7051	66.91	-0.2422	0.02	0.2622	808.8807	0.144268	-363.870106	-363.863319	-363.862375	-363.90132	26.046	
C	 0.2415638578	 1.5748024441	 0.0219401117	-0.40111
C	 0.0602021806	 0.0637974467	 0.0356700142	 0.006146
C	 0.8997322869	-0.7900268712	-0.9744310367	-0.248906
C	 1.4451513503	-1.6475897628	 0.203809663	-0.006358
N	 2.8683765151	-1.4315020568	 0.5019337919	-0.261732
C	 2.8931543502	-0.5658625715	 1.4277595569	 0.113215
O	 1.7339712546	-0.0696795313	 1.9373732185	-0.227844
C	 0.6767115806	-0.7419883008	 1.2132099238	 0.068527
H	 1.2915888779	 1.8495126157	 0.1556383382	 0.124453
H	-0.0988106343	 1.9909246749	-0.9320974958	 0.116312
H	-0.3316252049	 2.0535660503	 0.8227104077	 0.119111
H	-1.0048337406	-0.1792753023	-0.0430585051	 0.07749
H	 0.3154767797	-1.3332971697	-1.7206319239	 0.103238
H	 1.6917568179	-0.2354676304	-1.4836851564	 0.109611
H	 1.213219714	-2.7136245045	 0.1701704155	 0.082258
H	 3.7877123606	-0.1585044752	 1.8861746859	 0.140455
H	-0.0115610163	-1.164659785	 1.9474049107	 0.085132
60.9841	218.1164	228.6878	327.0096	345.1785	492.4343	595.2313	622.1646	755.3662	797.4684	844.7339	868.1558	900.8792	912.9837	939.2029	963.1591	966.1753	1025.243	1096.7362	1101.5701	1119.2095	1124.4828	1184.836	1222.7321	1249.2143	1277.3289	1294.2455	1301.6933	1321.3386	1353.6544	1362.2511	1414.2872	1479.016	1493.0994	1498.1202	1689.7574	3035.8511	3044.8865	3064.0095	3085.1524	3096.3881	3100.6658	3115.1041	3122.4729	3214.9173
CC1CC2N=COC12	C[C@H]1C[C@H]2N=CO[C@@H]12	
InChI=1S/C6H9NO/c1-4-2-5-6(4)8-3-7-5/h3-6H,2H2,1H3	InChI=1S/C6H9NO/c1-4-2-5-6(4)8-3-7-5/h3-6H,2H2,1H3/t4-,5+,6-/m0/s1
