22
gdb 76181	2.06898	1.42707	1.18776	1.5755	90.28	-0.2195	0.0474	0.2669	1223.563	0.189321	-367.157691	-367.146552	-367.145608	-367.192913	41.266	
C	-1.2326209253	-3.1062936273	 2.2069306077	-0.318993
N	-0.6953697647	-2.3512072782	 1.0871754093	-0.149361
C	-1.5222149034	-1.9215929552	-0.038688344	 0.27407
C	-0.8557486108	-2.0842800796	-1.3934491655	-0.444914
C	-3.0149892789	-2.2067025983	-0.0897170004	-0.459745
C	-0.9680124644	-0.9043734411	 0.9490075836	 0.028009
C	-1.8730471819	-0.155325926	 1.9212003125	-0.467867
C	 0.1851471697	-0.1096524587	 0.5785802703	 0.3226
C	 1.113185651	 0.5996507561	 0.2908225126	-0.436
H	-2.2494213498	-2.8415459266	 2.5275801975	 0.098691
H	-1.2323792214	-4.1678163124	 1.9383099267	 0.125814
H	-0.5655936381	-2.9810636231	 3.0657934179	 0.128374
H	-0.9875728821	-3.1104093586	-1.7554098221	 0.110339
H	-1.3017504071	-1.4078428541	-2.1312422751	 0.111532
H	 0.2123829293	-1.8757665474	-1.3303806567	 0.138902
H	-3.5215811956	-2.1218807515	 0.8713002753	 0.118257
H	-3.5039845501	-1.517440169	-0.7859619459	 0.12584
H	-3.1839528559	-3.2227167005	-0.4648378026	 0.122764
H	-2.760081096	-0.7196719298	 2.2067631491	 0.117385
H	-1.3191948776	 0.0935533608	 2.8318816106	 0.131965
H	-2.2014171028	 0.7848902222	 1.468589799	 0.133314
H	 1.9438866359	 1.2081863884	 0.0321816402	 0.189024
112.6993	127.6916	143.9798	150.8884	156.2194	178.7566	231.3181	252.8133	282.3946	313.1538	370.9507	406.9336	423.307	501.8818	544.3397	584.1787	610.0968	639.5969	658.1169	704.2239	750.5834	909.132	954.5211	988.0307	999.4376	1076.0135	1126.1529	1131.5466	1149.1047	1170.9602	1176.5327	1223.52	1266.8301	1392.076	1403.7611	1408.8579	1420.5689	1457.0917	1472.9459	1480.1185	1484.8464	1489.6344	1495.8989	1502.8062	1508.5866	1517.7872	2229.7449	3002.7448	3030.278	3038.6555	3049.4149	3069.8479	3088.0752	3094.2781	3099.3098	3108.1804	3137.5703	3148.0042	3152.8976	3502.6292
CN1C(C)(C)C1(C)C#C	CN1C(C)(C)[C@]1(C)C#C	
InChI=1S/C8H13N/c1-6-8(4)7(2,3)9(8)5/h1H,2-5H3	InChI=1S/C8H13N/c1-6-8(4)7(2,3)9(8)5/h1H,2-5H3/t8-,9?/m0/s1
