19
gdb 89119	6.13232	0.55339	0.53106	3.742	74.25	-0.2584	-0.0293	0.2291	2033.4648	0.154833	-460.134323	-460.123982	-460.123037	-460.171771	34.697	
C	 0.0434711919	 1.4472590722	-0.2644388585	-0.422107
C	-0.0835731782	 0.0056534523	 0.1621562674	 0.076399
O	 1.1014852169	-0.7966982167	 0.1637171268	-0.253843
C	 0.4479138309	-0.5588855375	 1.4131660817	 0.049283
C	 1.1897137942	 0.2426359839	 2.4487816887	-0.083978
O	 1.954336891	-0.6569057068	 3.2284961688	-0.250193
C	 2.7032855137	-0.0292143181	 4.2354140169	-0.140768
C	 3.4758729582	-1.0987708069	 4.9888621947	 0.139781
O	 4.1738178956	-0.8685790051	 5.9397051757	-0.236937
H	 0.9204639248	 1.9292592187	 0.1715634336	 0.127935
H	 0.1324095929	 1.5076764793	-1.3540035293	 0.134988
H	-0.8489232473	 2.0110717757	 0.0283047126	 0.125126
H	-0.9509822252	-0.5068048988	-0.2598878933	 0.092054
H	-0.0505145889	-1.4356046538	 1.8303229349	 0.098862
H	 1.8420207972	 0.9844217207	 1.9674278977	 0.102836
H	 0.4720606966	 0.7847504984	 3.0891726354	 0.094905
H	 3.4225335848	 0.6995968844	 3.8234413328	 0.124136
H	 2.0653938345	 0.5189819391	 4.9497607443	 0.120971
H	 3.3377804464	-2.1216257309	 4.5750867391	 0.100551
35.7023	56.115	86.9061	93.7765	115.3402	160.1609	199.015	269.0577	366.7203	385.9223	465.1473	525.9751	578.4337	742.599	769.2712	847.2094	918.9194	983.0842	1016.2483	1025.0271	1060.7952	1106.6886	1116.7238	1128.7894	1164.5858	1178.0402	1189.907	1236.2632	1270.2866	1305.946	1338.172	1371.2303	1403.1376	1413.5497	1432.597	1471.7554	1476.5207	1490.1901	1507.2925	1519.6315	1845.6373	2904.124	2953.8515	2961.9235	2986.9665	3024.5762	3041.3761	3080.8421	3101.7305	3103.0867	3137.0259
CC1OC1COCC=O	C[C@H]1O[C@H]1COCC=O	
InChI=1S/C6H10O3/c1-5-6(9-5)4-8-3-2-7/h2,5-6H,3-4H2,1H3	InChI=1S/C6H10O3/c1-5-6(9-5)4-8-3-2-7/h2,5-6H,3-4H2,1H3/t5-,6+/m1/s1
