14
gdb 132293	2.0315	1.77541	0.94798	4.3979	72.13	-0.1989	-0.0225	0.1765	1130.1099	0.101105	-478.009597	-478.002003	-478.001059	-478.041592	29.524	
N	 0.0120128965	 1.3962723357	 0.1528051799	-0.581646
C	-0.0141072653	 0.0245712985	 0.0539416426	 0.387282
C	-1.1730796206	-0.6972491639	 0.0345466758	-0.278373
C	-1.1816404359	-2.1294698654	-0.0036556075	 0.392376
N	-2.2044700666	-2.8778727546	-0.0180184928	-0.549792
O	 0.1142722088	-2.7451145913	-0.0363287379	-0.252515
C	 1.2088546409	-2.0070006718	-0.0193686022	 0.418794
F	 2.2840121873	-2.7635506909	-0.0504760237	-0.04107
C	 1.2545595094	-0.6676787223	 0.024004845	-0.458214
H	 0.8359315109	 1.8656469504	-0.1876271646	 0.258832
H	-0.8472336504	 1.8832553864	-0.0488748886	 0.261458
H	-2.1442947827	-0.2205349711	 0.0521927168	 0.104274
H	-1.9443139455	-3.8617064683	-0.0520561049	 0.22194
H	 2.2036192933	-0.1526367216	 0.050710822	 0.116654
138.1903	193.149	198.8854	322.5663	344.8805	380.7081	470.4964	497.6302	521.8366	567.1688	626.5943	637.1927	664.8825	692.7055	766.6764	792.5327	831.3984	863.9444	990.5089	1022.2185	1083.2784	1120.7105	1216.0917	1234.4801	1305.0716	1407.6808	1483.4466	1613.1179	1660.2997	1712.8568	1765.3395	3217.4207	3236.6897	3516.1113	3587.7206	3695.5567
NC1=CC(=N)OC(F)=C1	N[C@@H]1C=C([NH])OC(=C1)F	
InChI=1S/C5H5FN2O/c6-4-1-3(7)2-5(8)9-4/h1-2,8H,7H2	InChI=1S/C5H6FN2O/c6-4-1-3(7)2-5(8)9-4/h1-3,8H,7H2/t3-/m0/s1
