22
gdb 114232	3.15479	0.93863	0.8768	1.8301	83.09	-0.2346	0.0753	0.31	1442.0821	0.193338	-404.310857	-404.301131	-404.300187	-404.345816	36.43	
C	-0.3547608821	 1.4096805484	 0.5914596635	-0.390872
C	-0.168134529	-0.079349023	 0.4373929054	-0.071504
N	 1.0237814667	-0.520328773	-0.3200282549	-0.393299
C	 0.9218507908	-0.8335493652	 1.1026398433	 0.376341
C	 1.9068604462	-0.3558250022	 2.1770611766	-0.322678
C	 1.5587071139	-1.6352089067	 2.9990806266	 0.027555
C	 0.6500131433	-1.3647266851	 4.1837094914	-0.081126
O	 0.219229895	-2.6139666632	 4.7041214927	-0.422227
C	 0.8172295691	-2.2172260709	 1.7558915275	-0.321732
H	 0.6076547311	 1.9041900876	 0.7470184164	 0.127106
H	-0.8107478778	 1.8404454974	-0.3065503425	 0.119283
H	-1.0058927228	 1.6389326439	 1.4428260137	 0.109666
H	-1.0882903132	-0.6403639882	 0.2707000135	 0.077879
H	 0.8096517471	-1.3456622466	-0.8757607917	 0.224619
H	 2.9391289042	-0.3412495886	 1.8178869348	 0.107843
H	 1.691520847	 0.6043810343	 2.6570542153	 0.095875
H	 2.4159137157	-2.2228776691	 3.3355245688	 0.076639
H	 1.1980269877	-0.7816831478	 4.9421201584	 0.084927
H	-0.2079365419	-0.7525161313	 3.8577101113	 0.082928
H	-0.3833574135	-2.4455018351	 5.434222952	 0.286042
H	-0.1831361146	-2.6192749448	 1.9376960225	 0.107752
H	 1.4092301771	-2.9747621604	 1.2319300555	 0.098983
41.2204	112.2041	152.1755	184.2674	204.359	246.6229	258.2877	320.3336	373.5659	431.5325	458.7393	470.0928	571.3842	763.185	804.8463	823.1214	847.6708	887.6234	928.7096	940.703	975.6063	1015.3796	1023.7179	1055.6964	1071.5524	1080.0032	1092.1024	1130.432	1144.7237	1182.4586	1201.2104	1231.2068	1239.4912	1259.3879	1265.0327	1285.1662	1299.6376	1353.4876	1363.1636	1409.2807	1457.3844	1468.303	1471.1742	1489.1196	1491.9655	1503.3288	1519.091	2954.2595	2982.7513	3030.1967	3044.2136	3047.8073	3079.7794	3091.3011	3095.2171	3100.1392	3103.4962	3121.4133	3485.3864	3829.8612
CC1NC11CC(CO)C1	C[C@H]1N[C@]21C[C@@H](CO)C2	
InChI=1S/C7H13NO/c1-5-7(8-5)2-6(3-7)4-9/h5-6,8-9H,2-4H2,1H3	InChI=1S/C7H13NO/c1-5-7(8-5)2-6(3-7)4-9/h5-6,8-9H,2-4H2,1H3/t5-,6-,7-/m1/s1
