13
gdb 7033	6.45782	0.91543	0.839	2.2773	59.12	-0.2684	-0.0444	0.224	1277.4864	0.0926	-435.771957	-435.763578	-435.762633	-435.806664	27.308	
N	-0.1847631786	 1.2657004284	 0.4301594667	-0.409471
C	-0.0380903151	 0.0861012032	 0.0256696571	 0.115821
O	-1.0941719707	-0.7834079038	 0.2023941572	-0.19978
C	-0.9509169577	-2.0671613483	-0.2447877708	 0.449978
O	 0.0384197882	-2.4993305982	-0.7724630384	-0.336617
C	-2.2048728188	-2.8645417287	 0.0204478528	-0.404999
C	-1.8891845315	-4.2855541453	 0.480249428	 0.164746
O	-2.5835186935	-4.8939039279	 1.247535747	-0.227759
H	 0.6601461155	 1.8043462051	 0.2439611704	 0.245405
H	 0.818661636	-0.3804869717	-0.4598050173	 0.149172
H	-2.8729898735	-2.3691810103	 0.7249115431	 0.163197
H	-2.732237636	-2.9557999607	-0.9403505808	 0.173789
H	-0.9710905741	-4.7179492619	 0.0336247649	 0.116517
30.3728	84.5845	106.1281	127.6421	178.4083	271.4644	373.476	464.0235	543.0628	582.5655	744.3026	791.8442	855.2935	946.924	1006.958	1047.0057	1062.5864	1071.6639	1149.2181	1215.8429	1255.9099	1319.2539	1388.1111	1411.3498	1433.3714	1749.7983	1825.1769	1847.5156	2938.2152	3027.5478	3143.2356	3144.4996	3509.5432
N=COC(=O)CC=O	[NH][CH]OC(=O)CC=O	
InChI=1S/C4H5NO3/c5-3-8-4(7)1-2-6/h2-3,5H,1H2	InChI=1S/C4H5NO3/c5-3-8-4(7)1-2-6/h2-3,5H,1H2
