20
gdb 90413	2.43613	1.50387	1.16357	3.1342	80.54	-0.2114	-0.0157	0.1958	1150.4072	0.170003	-403.123184	-403.114251	-403.113307	-403.156891	33.275	
C	-0.6453902836	 1.3281538569	 0.1185702834	-0.411491
C	-0.0632478983	-0.0729464059	-0.0277951238	-0.11477
C	 0.7248911493	-0.495980593	-1.3144282962	-0.077191
C	 1.5577108147	 0.5885515949	-2.0262292691	-0.175118
N	 2.5562846078	 0.5140768098	-0.9459981471	-0.070018
C	 3.9639163581	 0.6119460553	-1.2488387482	-0.325938
C	 2.0004087659	-0.7683608802	-0.4419725305	-0.136235
C	 1.1841647616	-0.4316008143	 0.8207387774	 0.432855
O	 1.4091997983	-0.4298698013	 1.9954441053	-0.311146
H	 0.1131170494	 2.0928884882	-0.0694120681	 0.134809
H	-1.479808326	 1.4883573053	-0.5720118646	 0.116545
H	-1.0158585777	 1.4725795759	 1.1378470815	 0.135099
H	-0.839635667	-0.8195839916	 0.1868581423	 0.103883
H	 0.2535732508	-1.2586471533	-1.9298066539	 0.081419
H	 1.9425504411	 0.2243284446	-2.9930540998	 0.087955
H	 1.1118568092	 1.5783563509	-2.1779588371	 0.102578
H	 4.1894974036	 1.6156002539	-1.6250373913	 0.12486
H	 4.5507515153	 0.457493179	-0.3379779523	 0.133451
H	 4.3003403453	-0.1213172045	-2.0062659815	 0.09179
H	 2.6467445422	-1.6496946307	-0.5023372366	 0.076662
70.2723	112.8066	190.7533	201.5974	211.2196	250.6648	279.0442	354.1984	431.5375	482.1923	594.584	633.3134	743.8681	770.4275	810.2034	836.0851	902.3392	978.4024	985.1316	1013.9938	1038.5785	1061.8541	1099.7938	1119.5526	1139.5448	1157.5327	1163.9539	1194.8437	1202.6334	1228.4102	1254.1637	1291.1892	1312.0476	1321.4375	1345.5968	1402.3067	1451.2891	1487.4562	1490.6933	1499.4226	1499.7581	1524.4128	1890.4477	2926.5105	2966.5306	3023.0501	3038.5364	3050.8193	3057.824	3061.9553	3103.1832	3107.2489	3119.2051	3138.3327
CC1C2CN(C)C2C1=O	C[C@H]1[C@H]2CN(C)[C@H]2C1=O	
InChI=1S/C7H11NO/c1-4-5-3-8(2)6(5)7(4)9/h4-6H,3H2,1-2H3	InChI=1S/C7H11NO/c1-4-5-3-8(2)6(5)7(4)9/h4-6H,3H2,1-2H3/t4-,5+,6+/m0/s1
