22
gdb 100406	2.70919	1.05046	0.94923	0.7564	85.62	-0.2239	0.0287	0.2526	1395.2947	0.19136	-404.34492	-404.334375	-404.333431	-404.380629	38.452	
C	 1.2250208487	 2.1352766543	-0.1361280227	-0.221612
O	 2.5438225897	 1.8829723496	-0.6174503651	-0.243749
C	 2.6643715082	 0.9517543401	-1.590744118	 0.397506
C	 4.1170803829	 0.7894405852	-1.9589428092	-0.477758
N	 1.6358312132	 0.361401715	-2.0415018954	-0.355617
C	 1.7493283944	-0.6577122661	-3.05775801	 0.357617
C	 2.1495893465	-2.0196492225	-2.5206239921	-0.440727
C	 0.7147557967	-0.6066648462	-4.1484387053	-0.30392
C	 2.1563227874	-0.2693796782	-4.466936042	-0.302656
H	 0.5776002426	 2.4960987743	-0.9403656032	 0.130367
H	 0.779113918	 1.2265858931	 0.2779578661	 0.131002
H	 1.335026183	 2.8967114679	 0.6377594935	 0.120836
H	 4.6415411835	 0.2506444051	-1.1627947936	 0.144522
H	 4.2286330499	 0.2376127364	-2.8908423533	 0.146908
H	 4.5888531759	 1.7710611715	-2.050591818	 0.139512
H	 1.4660461367	-2.3262552583	-1.7218128185	 0.123958
H	 2.1154824908	-2.7772943452	-3.3094408733	 0.111498
H	 3.1641144835	-2.008714414	-2.106729551	 0.109902
H	 0.3075362204	-1.5398414287	-4.5231842513	 0.103889
H	 0.0089955777	 0.2154407278	-4.1095316963	 0.113226
H	 2.393356512	 0.7720525352	-4.6544570931	 0.109328
H	 2.7365489182	-0.9732865664	-5.0556042983	 0.105968
48.826	99.2284	135.4032	159.9478	174.8929	203.4032	232.8588	242.0099	309.8125	358.8382	399.9434	457.237	522.9725	570.6281	580.3678	740.3668	785.3621	828.424	852.5507	935.5375	944.6	957.5227	1036.7121	1040.3681	1060.3162	1066.8436	1075.5039	1092.0948	1122.781	1179.3954	1192.7344	1211.9034	1288.6054	1304.6983	1337.8169	1399.2305	1414.4574	1457.9541	1470.9667	1474.3066	1478.5655	1482.5179	1487.6018	1494.1096	1499.8627	1507.2958	1731.7141	3028.2986	3042.674	3052.6669	3091.6981	3105.9614	3113.1374	3113.5094	3124.0161	3131.5735	3143.7122	3169.1813	3207.6126	3224.3278
COC(C)=NC1(C)CC1	COC(=NC1(C)CC1)C	
InChI=1S/C7H13NO/c1-6(9-3)8-7(2)4-5-7/h4-5H2,1-3H3	InChI=1S/C7H13NO/c1-6(9-3)8-7(2)4-5-7/h4-5H2,1-3H3
