17
gdb 87062	2.52892	1.38116	1.12245	3.7901	74.01	-0.2594	0.0103	0.2697	1142.053	0.134511	-417.959083	-417.950237	-417.949293	-417.992888	31.992	
C	 0.0951736447	 1.4653410724	-0.3458301066	-0.329129
N	 0.1742313396	 0.0186039985	-0.1672098463	-0.11257
C	 1.4847033422	-0.586728343	-0.0796240498	-0.274092
C	 0.5943066732	-0.5229829538	 1.1343895328	 0.158561
C	 0.9945941297	 0.388711916	 2.1864361518	 0.249029
N	 1.3084919188	 1.1140770212	 3.0306243277	-0.354225
C	-0.157611881	-1.7445323302	 1.5841645698	 0.041322
C	 0.0165862724	-2.3477160229	 2.9104410126	-0.201371
O	-1.1390458837	-1.5634901976	 2.5965966497	-0.224676
H	 0.8962943913	 2.019694918	 0.1637587993	 0.129918
H	 0.1474030599	 1.6771034748	-1.4172809356	 0.135239
H	-0.8677699158	 1.8183504693	 0.0319809506	 0.146521
H	 1.6131734818	-1.5391309685	-0.5879479943	 0.131526
H	 2.3615058402	 0.0586872612	-0.0720241718	 0.133647
H	-0.4667118153	-2.3701180231	 0.7472812371	 0.107647
H	-0.1608544881	-3.4143792432	 3.0356922559	 0.124574
H	 0.7020710901	-1.8953692292	 3.624262617	 0.138077
65.0909	136.7118	156.3268	168.0606	208.1028	248.4726	358.6486	370.8407	386.9777	488.0635	584.9351	621.5856	668.8775	794.9388	853.7099	882.1409	910.8291	945.1012	1015.7366	1050.974	1097.7229	1125.0463	1128.5674	1157.0805	1165.6783	1168.095	1205.1909	1266.5463	1319.9616	1335.2127	1430.9885	1454.9272	1492.1637	1493.9247	1508.9672	1526.9157	2350.5764	3002.9251	3091.2423	3093.1926	3094.7152	3121.4869	3125.9925	3184.8196	3185.3518
CN1CC1(C#N)C1CO1	CN1C[C@]1(C#N)[C@H]1CO1	
InChI=1S/C6H8N2O/c1-8-4-6(8,3-7)5-2-9-5/h5H,2,4H2,1H3	InChI=1S/C6H8N2O/c1-8-4-6(8,3-7)5-2-9-5/h5H,2,4H2,1H3/t5-,6-,8?/m1/s1
