17
gdb 22279	4.8642	0.78289	0.7745	3.8223	74.17	-0.241	0.0093	0.2502	1476.0037	0.13459	-455.125941	-455.116493	-455.115549	-455.161635	33.759	
N	-0.5652572259	 1.3126516528	 0.8482201525	-0.53343
C	-0.0715649238	 0.3939535103	-0.0294232592	 0.409542
O	 1.0740811816	 0.4316929085	-0.4403556681	-0.370766
C	-1.0414901306	-0.6878810449	-0.4678815287	-0.101144
C	-1.1305982006	-0.9122808349	-2.0190003133	-0.312139
C	-0.9294363313	-2.3859057685	-1.7519373037	 0.417279
C	-0.5118312929	-2.1564903991	-0.3161920535	-0.317229
N	-1.1778112994	-3.3882948459	-2.4823555926	-0.236859
O	-0.9094886543	-4.5894215492	-1.7948978068	-0.396443
H	 0.0484240652	 2.041232493	 1.175010547	 0.262574
H	-1.5052222428	 1.2751001518	 1.1994252685	 0.260014
H	-2.0309799509	-0.5687129854	-0.0203502152	 0.069344
H	-2.0517833827	-0.6098223708	-2.5210274928	 0.119935
H	-0.2694697505	-0.4601052852	-2.5207619429	 0.147635
H	 0.5753653695	-2.1734386574	-0.1924293774	 0.149901
H	-0.9769087865	-2.7902795852	 0.441303827	 0.125649
H	-1.1476655641	-5.2533239599	-2.450574451	 0.306137
24.3391	55.9839	149.8397	158.4754	224.3468	266.7094	292.7996	353.9201	376.8153	468.3421	545.7217	589.0524	610.3248	673.6751	747.438	767.0055	807.0146	909.2985	958.0959	964.2134	1015.7583	1047.4712	1052.3313	1100.0087	1183.2634	1194.0486	1223.4199	1245.4492	1252.9352	1285.1254	1400.5547	1417.8115	1443.0169	1462.0823	1617.2783	1789.1928	1793.2406	3058.9609	3063.9542	3075.3891	3122.0323	3124.7206	3603.5895	3742.9327	3820.0747
NC(=O)C1CC(C1)=NO	NC(=O)[C@H]1CC(=NO)C1	
InChI=1S/C5H8N2O2/c6-5(8)3-1-4(2-3)7-9/h3,9H,1-2H2,(H2,6,8)	InChI=1S/C5H8N2O2/c6-5(8)3-1-4(2-3)7-9/h3,9H,1-2H2,(H2,6,8)/t3-
