16
gdb 5218	5.69695	1.29591	1.1473	3.0644	69.45	-0.1873	0.0307	0.218	1057.0498	0.130654	-379.939319	-379.931266	-379.930322	-379.973015	28.652	
C	-0.0526037902	 1.4640923202	-0.2483246013	-0.358255
C	-0.0608712891	-0.0316849047	 0.0873015177	-0.135677
N	-1.4096665249	-0.5783313892	 0.0689797334	-0.389072
C	-1.8146555471	-1.1825664156	-0.9622020927	 0.517539
N	-3.0609887927	-1.7516125771	-1.1507804861	-0.370766
C	-3.1120027229	-2.3738570556	-2.3949090365	-0.094727
C	-1.9303216167	-2.159065108	-2.9806408011	-0.040334
O	-1.1150644519	-1.4235625624	-2.1370157734	-0.22214
H	 0.9565920149	 1.8790667643	-0.1519855323	 0.102622
H	-0.3953161592	 1.6336138962	-1.2741850758	 0.113561
H	-0.7185274187	 2.0115611375	 0.4253871828	 0.119026
H	 0.6137630086	-0.5634417563	-0.5985452192	 0.096406
H	 0.3382268913	-0.1703513206	 1.0994221268	 0.093851
H	-3.7427008614	-1.7969114572	-0.416140942	 0.273121
H	-3.9854376615	-2.8943986289	-2.7471834954	 0.148252
H	-1.5212790384	-2.4273535227	-3.9379891348	 0.146593
23.2803	93.4361	161.3313	193.1646	278.4723	322.1086	415.4841	528.5494	580.0308	676.9281	699.5835	735.7377	782.919	814.3667	868.7125	901.7692	930.5193	1045.3984	1065.768	1119.2928	1129.7301	1144.9517	1166.2505	1214.3945	1309.8574	1377.3989	1382.2247	1400.2737	1418.5426	1488.9869	1495.4028	1514.5718	1663.5553	1806.9405	3000.1758	3032.0169	3041.2146	3102.2492	3112.5075	3286.7646	3314.1788	3711.58
CCN=C1NC=CO1	CCN=c1[nH]cco1	
InChI=1S/C5H8N2O/c1-2-6-5-7-3-4-8-5/h3-4H,2H2,1H3,(H,6,7)	InChI=1S/C5H8N2O/c1-2-6-5-7-3-4-8-5/h3-4H,2H2,1H3,(H,6,7)
