18
gdb 53080	4.75716	0.85252	0.762	1.8352	92.23	-0.2121	-0.0175	0.1946	1523.7499	0.147785	-364.774858	-364.766261	-364.765317	-364.809406	31.453	
C	-0.0926302077	 1.4472782187	 0.0207563023	-0.507435
C	-0.0233212749	-0.0049948711	 0.001932777	 0.195605
C	 0.0494429661	-1.2101723572	-0.0132843013	-0.140308
C	 0.0686563658	-2.6234107904	-0.0335120374	 0.25326
C	 1.1292484196	-3.4414703747	-0.1406168305	-0.22482
C	 0.692344978	-4.8857371471	-0.1678480852	-0.200236
N	-0.7789385564	-4.8732213954	 0.001092757	-0.100584
C	-1.2377894499	-4.3322268342	 1.285167237	-0.233629
C	-1.1793007004	-3.4523140246	 0.0851288318	-0.156529
H	 0.3464535751	 1.853542971	 0.9392184995	 0.151906
H	 0.450395326	 1.883214329	-0.8254291586	 0.151862
H	-1.1295480887	 1.7965490564	-0.0333435764	 0.151402
H	 2.1632039556	-3.1232973785	-0.1891796347	 0.100636
H	 0.9394977229	-5.3667541272	-1.124535088	 0.117693
H	 1.1617083814	-5.4921652396	 0.617994596	 0.115396
H	-2.1875352439	-4.7358393514	 1.6258460233	 0.115707
H	-0.5048284935	-4.146417751	 2.0679352995	 0.111802
H	-2.0810009551	-3.1386721329	-0.4327895113	 0.098272
29.6356	87.5598	98.1407	245.0293	279.631	305.2895	386.002	436.0904	446.7188	514.8353	646.7006	719.3273	765.8475	815.3661	832.3936	869.9195	941.4284	954.9385	998.9803	1031.4076	1048.6875	1052.7935	1059.4932	1093.4538	1110.4787	1153.2025	1211.6875	1253.6412	1255.9733	1276.2517	1340.208	1361.7716	1413.4911	1475.4507	1476.0659	1484.9061	1498.7911	1665.2776	2350.3228	3004.4032	3024.6447	3036.3705	3083.2988	3088.6197	3095.5429	3151.6459	3185.9749	3212.526
CC#CC1=CCN2CC12	CC#CC1=CCN2C[C@@H]12	
InChI=1S/C8H9N/c1-2-3-7-4-5-9-6-8(7)9/h4,8H,5-6H2,1H3	InChI=1S/C8H9N/c1-2-3-7-4-5-9-6-8(7)9/h4,8H,5-6H2,1H3/t8-,9?/m0/s1
