13
gdb 24412	3.88078	1.68837	1.18525	3.2797	64.56	-0.2215	-0.027	0.1945	933.877	0.092615	-452.774039	-452.767761	-452.766817	-452.805259	23.343	
C	-0.0328575328	 1.4861403778	 0.1333604485	-0.176773
O	 1.2355089201	 2.013705299	-0.3366167245	-0.239606
C	 2.2406794027	 1.2119275757	-0.7687597422	 0.130798
N	 2.2888353925	-0.0586956883	-0.8501147629	-0.342849
C	 1.1128240154	-0.6681120745	-0.4206564226	 0.251365
C	 0.0366174592	 0.008764197	 0.0332470642	 0.250046
O	-0.933053462	-0.8819933468	 0.3681237975	-0.189571
C	-0.3564667973	-2.0900937005	 0.0835344392	 0.049823
N	 0.8462748824	-2.0301695319	-0.3837803298	-0.307472
H	-0.1783191599	 1.8472160274	 1.1607062993	 0.13777
H	-0.823168494	 1.9286581092	-0.488365423	 0.137787
H	 3.0838891755	 1.8276621756	-1.067945831	 0.142062
H	-0.9615066018	-2.9611105894	 0.2770263472	 0.156619
70.6568	212.9454	246.2991	423.2223	484.6954	546.4703	636.997	642.2391	760.1164	765.367	821.2325	858.2759	927.0755	947.7228	948.9093	1058.6789	1073.7739	1123.8899	1167.378	1210.0833	1272.6437	1315.466	1372.228	1418.6066	1443.381	1528.9928	1543.4511	1665.9739	1668.3858	2998.5853	3022.3524	3191.7253	3285.4406
C1OC=NC2=C1OC=N2	C1OC=Nc2c1ocn2	
InChI=1S/C5H4N2O2/c1-4-5(6-2-8-1)7-3-9-4/h2-3H,1H2	InChI=1S/C5H4N2O2/c1-4-5(6-2-8-1)7-3-9-4/h2-3H,1H2
