19
gdb 106197	3.33892	1.49729	1.43113	1.1016	77.58	-0.218	0.0909	0.309	1004.8677	0.160221	-385.831437	-385.824127	-385.823183	-385.863152	29.541	
C	 0.0856583724	 1.3212230835	 0.1742994954	-0.259534
O	-0.0305887477	-0.0439355124	-0.1955848969	-0.287498
C	-1.3089259724	-0.5282201764	-0.0864238874	 0.455301
C	-2.0090274768	-0.9050976181	 1.2085952162	-0.152778
C	-3.4588799076	-0.4604845602	 1.1967334439	-0.23292
C	-3.7259881414	-0.5870432147	-0.2934873393	-0.070025
C	-2.9136973548	-1.7241636003	-0.8887465331	-0.074223
C	-2.4744468265	-0.2886009341	-1.0968487477	-0.175249
C	-1.7529488667	-1.9479875871	 0.1126382152	-0.184704
H	 1.13432678	 1.5980758821	 0.0460509709	 0.126428
H	-0.5348082451	 1.9673713894	-0.4623837684	 0.112925
H	-0.2067229918	 1.4781175717	 1.2216173763	 0.111311
H	-1.4178664198	-0.964078393	 2.1147886138	 0.087205
H	-4.1076396255	-1.1160698815	 1.7889691125	 0.098445
H	-3.5831279888	 0.5673622276	 1.5574303899	 0.095459
H	-4.6957739934	-0.3526007984	-0.7178631918	 0.083215
H	-3.2895881405	-2.4359660016	-1.610418268	 0.085903
H	-2.4351352954	 0.2932751848	-2.0073884133	 0.088082
H	-1.1732967581	-2.8484712815	 0.2577743317	 0.092658
93.4273	162.6371	178.3377	355.4123	382.4459	409.4495	531.9715	608.7999	702.605	739.9519	741.7807	771.1447	830.5898	843.1602	868.2551	909.9157	926.4357	960.7229	967.462	984.9837	1010.2324	1029.0369	1032.3896	1062.9172	1075.2549	1082.6726	1136.7132	1179.4235	1189.2678	1209.0974	1225.224	1226.7348	1263.3812	1275.8606	1306.5627	1371.2325	1428.2692	1486.4601	1492.1019	1494.9233	1506.5441	2994.4738	3031.3356	3048.835	3071.4074	3122.8796	3179.8824	3192.7069	3201.6265	3212.3129	3219.7986
COC12C3CC4C(C14)C23	CO[C@@]12[C@H]3C[C@@H]4[C@@H]([C@H]14)[C@@H]23	
InChI=1S/C8H10O/c1-9-8-4-2-3-5(6(3)8)7(4)8/h3-7H,2H2,1H3	InChI=1S/C8H10O/c1-9-8-4-2-3-5(6(3)8)7(4)8/h3-7H,2H2,1H3/t3-,4+,5+,6-,7+,8+/m1/s1
