21
gdb 96080	2.49045	1.51099	1.10115	1.8845	77.88	-0.2403	0.0778	0.3181	1164.8388	0.18295	-424.214647	-424.205963	-424.205019	-424.247435	34.348	
C	-0.0417789713	 1.5386110315	 0.0041762474	-0.395277
C	 0.0484830433	 0.0089488761	 0.0139307895	-0.009898
C	 0.6858889254	-0.5294699573	-1.2750691253	-0.093788
O	 0.8488403575	-1.9327000057	-1.2207138121	-0.23876
C	 1.8532080395	-2.3180752737	-0.2983820336	-0.156573
C	 1.6791498978	-1.7189868311	 1.1019493132	 0.360309
O	 1.5994476748	-2.654233321	 2.1469026782	-0.467828
C	 2.2826051974	-0.3688342915	 1.4098188893	-0.359603
C	 0.781430953	-0.5252549081	 1.2356745706	-0.04721
H	 0.9550754466	 1.9922677135	-0.0226246614	 0.115782
H	-0.59980443	 1.8980433282	-0.8674224491	 0.111075
H	-0.5489287774	 1.9075156152	 0.9012498927	 0.11651
H	-0.9688453405	-0.4025648375	 0.0480147874	 0.084886
H	 0.0360640339	-0.3241892838	-2.1311174028	 0.107527
H	 1.654019544	-0.0336253876	-1.4699287256	 0.080416
H	 1.7821323458	-3.4051399083	-0.2100857321	 0.114525
H	 2.8462732931	-2.0652646935	-0.7086090275	 0.082686
H	 2.4902842513	-2.9734530289	 2.3283374678	 0.280651
H	 2.6429091438	-0.204558506	 2.4193960172	 0.110574
H	 2.8603868177	 0.1265091822	 0.6348076997	 0.108254
H	 0.2168779243	-0.493717723	 2.1630823763	 0.09574
110.8477	154.9143	220.8552	248.6293	289.4774	296.673	374.9097	383.6553	405.2267	437.4136	482.4713	542.5134	609.713	740.5228	797.1886	892.5285	908.4704	931.3647	951.8818	960.9625	977.636	996.1555	1033.1836	1054.6442	1063.639	1120.8455	1133.0362	1148.8456	1196.2265	1237.2876	1260.6208	1285.9326	1323.943	1328.4522	1340.0971	1368.4553	1373.6692	1404.8664	1417.488	1426.0924	1485.4504	1490.5487	1494.6027	1499.6512	1504.6927	2944.7374	2951.6424	3018.8384	3028.6286	3079.0052	3095.7578	3096.3332	3101.5467	3123.9609	3150.9668	3213.8045	3794.1805
CC1COCC2(O)CC12	C[C@H]1COC[C@@]2(O)C[C@@H]12	
InChI=1S/C7H12O2/c1-5-3-9-4-7(8)2-6(5)7/h5-6,8H,2-4H2,1H3	InChI=1S/C7H12O2/c1-5-3-9-4-7(8)2-6(5)7/h5-6,8H,2-4H2,1H3/t5-,6-,7-/m0/s1
