13
gdb 133376	3.34131	1.42936	1.00137	2.613	65.95	-0.2169	-0.0266	0.1903	1057.4139	0.090953	-490.235732	-490.228212	-490.227268	-490.267708	28.451	
N	 0.0008830899	 1.3003866913	 0.1042663536	-0.547088
C	-0.0280066809	-0.0467575138	 0.0355901446	 0.415895
N	-1.1593302375	-0.6884416439	 0.0191886136	-0.322895
N	-1.0297643911	-2.0606992322	-0.0121543523	-0.303892
C	 0.1580684589	-2.6718247906	-0.0244525231	 0.412211
F	 0.0686376793	-3.9923004725	-0.0413298538	-0.057006
N	 1.3069064564	-2.1060760879	-0.0233482856	-0.414993
C	 1.3061255865	-0.7182295964	-0.0057819677	 0.310001
N	 2.3436260549	 0.0302051244	-0.0289503591	-0.552164
H	 0.9063224866	 1.7240330189	-0.03037196	 0.2834
H	-0.8448021129	 1.8283746688	-0.0218428636	 0.263498
H	-1.8920388835	-2.5799291621	-0.0157219586	 0.286765
H	 3.1868091032	-0.5435431641	-0.063184608	 0.226268
97.4219	195.954	244.4534	335.23	345.3366	374.2039	456.1215	481.6977	502.8346	530.7226	568.7057	603.6877	711.8034	731.6099	809.4627	827.4942	893.8301	1013.3381	1058.6448	1167.3359	1227.2263	1296.4128	1355.6012	1445.194	1548.2121	1593.1953	1655.0857	1686.5279	1708.8386	3483.6875	3584.0357	3658.3181	3731.5917
NC1=NNC(F)=NC1=N	NC1=NN[C@@H](F)N=C1[NH]	
InChI=1S/C3H4FN5/c4-3-7-1(5)2(6)8-9-3/h(H2,6,8)(H2,5,7,9)	InChI=1S/C3H5FN5/c4-3-7-1(5)2(6)8-9-3/h3,5,9H,(H2,6,8)/t3-/m0/s1
