17
gdb 53277	2.43224	1.0428	0.86672	3.2961	78.4	-0.236	0.0166	0.2526	1397.5336	0.134744	-417.991947	-417.982046	-417.981102	-418.028551	34.474	
C	 0.1870294385	 1.4130343267	-0.757562153	-0.500337
C	 0.1001352268	 0.0110655056	-0.3786102857	 0.092344
C	 0.0191093595	-1.1486010341	-0.0643188767	 0.134176
C	-0.0349671742	-2.5424105995	 0.2771345178	-0.237638
N	-0.7272245818	-2.9332987044	 1.5237112305	-0.344322
C	-1.3012321966	-3.3598312736	 0.2456179806	-0.114972
C	-2.6277304142	-2.7724392783	-0.1763245575	 0.402802
N	-3.1215319473	-1.8375164699	 0.6723074332	-0.52236
O	-3.1758808537	-3.1432565106	-1.1973287833	-0.373109
H	 1.112121063	 1.6160244558	-1.3080190315	 0.152796
H	-0.6520669249	 1.7037949381	-1.3989597034	 0.154562
H	 0.1757812292	 2.0642112152	 0.1234299675	 0.150785
H	 0.8630433765	-3.1035753788	 0.0248515989	 0.116583
H	-0.238175635	-3.697496818	 1.9813749998	 0.244355
H	-1.186907701	-4.3905176568	-0.078198273	 0.111469
H	-2.5902163997	-1.5708282756	 1.4849307534	 0.273806
H	-3.957223735	-1.340472772	 0.4162520824	 0.25906
26.0931	55.2926	73.5846	134.3572	190.777	256.0795	288.5495	331.2868	338.7929	474.0272	485.9897	511.9863	580.8991	630.9871	717.8991	748.0789	845.5052	890.7562	907.0129	956.3801	1050.9387	1051.9296	1063.9059	1099.7349	1135.8458	1164.8402	1208.1485	1251.4811	1346.9361	1409.4373	1413.8253	1442.4413	1475.9378	1477.6157	1597.2285	1802.289	2373.6249	3028.5943	3090.096	3091.6086	3120.4851	3158.1047	3512.684	3595.4483	3738.4265
CC#CC1NC1C(N)=O	CC#C[C@H]1N[C@H]1C(=O)N	
InChI=1S/C6H8N2O/c1-2-3-4-5(8-4)6(7)9/h4-5,8H,1H3,(H2,7,9)	InChI=1S/C6H8N2O/c1-2-3-4-5(8-4)6(7)9/h4-5,8H,1H3,(H2,7,9)/t4-,5-/m1/s1
