19
gdb 70898	3.3608	1.49482	1.41149	2.4373	73.39	-0.2257	0.0764	0.3021	999.5682	0.160078	-423.02688	-423.019381	-423.018437	-423.058097	31.298	
C	 0.0050028298	 1.450808249	 0.0896509137	-0.479758
C	-0.0165328279	-0.0513517527	-0.0217837975	 0.364542
C	 0.7323325215	-0.7251265535	-1.2058999247	-0.252375
C	 0.5430040734	-2.1539148141	-0.7220898191	-0.194854
C	 0.4797574947	-2.017355634	 0.791885571	 0.046966
O	 0.6290371544	-0.6544452135	 1.1261706868	-0.287202
C	-0.8001566043	-2.1911760776	 0.0251293232	 0.352997
O	-1.5624935123	-3.3371415753	 0.1784697875	-0.474526
C	-1.3828055396	-0.784048575	-0.0463485993	-0.325709
H	 1.035249245	 1.8155225123	 0.1404348536	 0.126999
H	-0.4805720377	 1.9066065539	-0.7782699086	 0.117735
H	-0.5197286424	 1.778663688	 0.9915909604	 0.128122
H	 0.2579425732	-0.5164607747	-2.1694974533	 0.09494
H	 1.7817355842	-0.4170797804	-1.2451955932	 0.103004
H	 0.9581511006	-3.0297364646	-1.2025931582	 0.089491
H	 0.8772539032	-2.7259976047	 1.5042141994	 0.108699
H	-1.9734127893	-3.5419198819	-0.6687329313	 0.283348
H	-1.9958109349	-0.5430983061	 0.8268223157	 0.107202
H	-1.9487192916	-0.5835404151	-0.9617965161	 0.09038
201.6493	233.8138	254.4661	298.8965	336.0408	382.1277	435.7592	468.1413	557.8789	559.5651	639.4	670.3259	736.9648	794.9796	855.1746	870.7222	881.68	916.2182	962.0438	974.1625	992.6726	1010.3116	1047.2727	1067.5833	1112.102	1121.3631	1152.6451	1176.5466	1196.5809	1219.578	1240.9063	1285.6458	1301.8781	1328.4231	1353.6992	1417.0542	1449.5963	1477.5473	1483.4567	1496.3052	1499.636	3042.266	3046.5014	3053.5282	3098.6569	3104.7406	3115.654	3117.8677	3206.9483	3228.3707	3790.5568
CC12CC3C(O1)C3(O)C2	C[C@@]12C[C@H]3[C@@H](O1)[C@@]3(O)C2	
InChI=1S/C7H10O2/c1-6-2-4-5(9-6)7(4,8)3-6/h4-5,8H,2-3H2,1H3	InChI=1S/C7H10O2/c1-6-2-4-5(9-6)7(4,8)3-6/h4-5,8H,2-3H2,1H3/t4-,5+,6-,7+/m0/s1
