19
gdb 107083	3.52955	1.00857	0.91409	5.0537	80.43	-0.2557	0.0137	0.2694	1338.0273	0.159271	-382.044632	-382.035858	-382.034914	-382.07846	32.722	
C	 0.0784193047	 1.4988270639	-0.2316549485	-0.382007
C	-0.1209684652	 0.0178475945	 0.1191912989	-0.289296
C	 0.701742064	-0.4061620738	 1.3020308136	 0.369686
C	 2.0729371935	-0.9456957448	 1.2052607917	-0.282084
N	 0.9949135419	-1.8691867042	 1.6286723498	-0.170879
C	 0.7778723941	-1.5434961278	 3.0890203912	-0.10089
C	 0.371206049	-0.0742990737	 2.7600671583	-0.328618
C	-0.2779338662	-2.3560083146	 3.6795262982	 0.289318
N	-1.1214639355	-2.9772551498	 4.1672183432	-0.319666
H	 1.1233831181	 1.7089962868	-0.4816825528	 0.121066
H	-0.5377295756	 1.7813588895	-1.0897733511	 0.123053
H	-0.2008809207	 2.1481783764	 0.6050195695	 0.121463
H	-1.1800627265	-0.176781667	 0.329384546	 0.111267
H	 0.1465331718	-0.6129775859	-0.736081485	 0.114579
H	 2.4512306722	-1.1830677051	 0.2159160075	 0.129916
H	 2.8385342722	-0.6626621321	 1.925802258	 0.113848
H	 1.6873402033	-1.6612362252	 3.6880653002	 0.124349
H	 0.9484348001	 0.7190838813	 3.2410527347	 0.117004
H	-0.6921549451	 0.1023965916	 2.9275233465	 0.137891
65.3177	92.0846	180.0689	190.2687	211.911	307.6628	353.6868	400.7181	455.7807	507.8771	548.9442	652.7495	742.6886	788.1495	802.8057	838.7574	885.5877	933.8066	953.6401	997.1255	1033.7238	1043.1882	1076.5921	1102.9806	1120.5544	1132.4491	1156.6969	1224.4649	1241.3433	1259.6831	1328.1899	1352.1601	1361.891	1400.0772	1415.1653	1482.5801	1486.3078	1499.0248	1508.4178	1511.3574	2361.3948	3029.8604	3036.6344	3052.3408	3068.6137	3069.5732	3098.5477	3104.4341	3113.7271	3132.926	3197.5441
CCC12CN1C(C2)C#N	CC[C@]12CN1[C@@H](C2)C#N	
InChI=1S/C7H10N2/c1-2-7-3-6(4-8)9(7)5-7/h6H,2-3,5H2,1H3	InChI=1S/C7H10N2/c1-2-7-3-6(4-8)9(7)5-7/h6H,2-3,5H2,1H3/t6-,7-,9?/m0/s1
