19
gdb 102123	2.22734	1.25878	0.87892	2.5895	72.42	-0.2462	-0.0396	0.2066	1328.6207	0.156657	-460.127925	-460.118194	-460.11725	-460.163809	33.289	
C	-0.2169854744	 1.3665112408	 0.1625570199	-0.246717
O	-0.3327009351	-0.0289093324	-0.0420934216	-0.246235
C	 0.5718837678	-0.5383662377	-0.9979872717	 0.023287
C	 1.9791032899	-0.6494142949	-0.4154268406	 0.127369
O	 2.9858210322	-0.6876470048	-1.0738671488	-0.238782
C	 0.0810198216	-1.9311308231	-1.3954383217	-0.057884
C	-1.2013765364	-1.9290347068	-2.2536385147	-0.084485
O	-0.4624801674	-2.3157779143	-3.4300120338	-0.273075
C	 0.739436357	-2.5276252416	-2.6587013875	-0.093844
H	 0.7794385072	 1.6522515679	 0.5312738253	 0.115217
H	-0.4142008529	 1.9255770442	-0.7639578325	 0.117578
H	-0.9608956127	 1.6434584761	 0.912424252	 0.137175
H	 0.6141730387	 0.1012160304	-1.8941532081	 0.097299
H	 1.9909297199	-0.7376084626	 0.6961052779	 0.091178
H	 0.0557246489	-2.5768094044	-0.5148209646	 0.09087
H	-1.9438079394	-2.6846848653	-1.9663390681	 0.102126
H	-1.7018335287	-0.9615268427	-2.3709566662	 0.109994
H	 1.5996998393	-1.9833513121	-3.0614381103	 0.126091
H	 0.9933057643	-3.5922403567	-2.5789839948	 0.102838
61.6454	75.6229	82.3514	118.1039	165.5713	193.0368	244.0684	279.5468	380.6641	413.216	462.4274	555.0122	821.4133	852.619	879.8768	943.1003	980.863	989.8345	1035.2278	1047.3501	1079.6567	1099.5805	1136.8405	1153.9807	1157.9292	1179.9026	1191.338	1236.8491	1248.5061	1274.5623	1307.0449	1333.3967	1366.9502	1384.116	1402.5528	1482.2774	1489.7308	1507.7788	1514.2083	1539.9263	1830.3417	2867.4667	2981.344	2988.5517	3011.9797	3021.9319	3034.2007	3065.4095	3078.3668	3090.7502	3125.4959
COC(C=O)C1COC1	CO[C@@H](C=O)C1COC1	
InChI=1S/C6H10O3/c1-8-6(2-7)5-3-9-4-5/h2,5-6H,3-4H2,1H3	InChI=1S/C6H10O3/c1-8-6(2-7)5-3-9-4-5/h2,5-6H,3-4H2,1H3/t6-/m0/s1
