17
gdb 10509	2.7934	1.74018	1.26019	2.3162	66.71	-0.2566	0.0218	0.2784	994.5497	0.140749	-400.972753	-400.9642	-400.963256	-401.006087	30.956	
O	 0.3804985488	 0.9821277886	 0.5896342353	-0.418958
C	-0.2698446812	 0.3853114619	-0.521299816	-0.132799
C	-1.4288104389	-0.4977898151	-0.1080308044	 0.406963
C	-1.9354527553	-1.5497845421	-1.0427229271	-0.315436
C	-1.225172629	-1.950483908	 0.2340603956	-0.31843
O	-2.4261778846	 0.2210235427	 0.5895463204	-0.234185
C	-2.2209673584	 0.4106447131	 1.9155664848	 0.094382
N	-2.9126692717	 1.2675825336	 2.5336272719	-0.446176
H	-0.1308972291	 1.7544716459	 0.8509055077	 0.300031
H	-0.6322438672	 1.1472081055	-1.2254931079	 0.108569
H	 0.4787499387	-0.2213196528	-1.0417288175	 0.110614
H	-3.0097160141	-1.6865803297	-1.0786266041	 0.135376
H	-1.4252749813	-1.6818856758	-1.9906879025	 0.119454
H	-0.2203856248	-2.3537841562	 0.1731975254	 0.126661
H	-1.8344655796	-2.3714742295	 1.0255001219	 0.126746
H	-1.4475689665	-0.2420843901	 2.3331461188	 0.108368
H	-2.6663863059	 1.257627518	 3.5216993976	 0.228819
67.5715	97.4748	160.66	202.4686	238.9927	301.8491	337.8177	359.2467	441.2572	531.7076	576.4251	772.1329	782.0265	829.831	899.0225	912.1062	960.7133	980.7728	1037.9522	1045.2953	1053.2741	1071.8272	1085.4741	1094.0236	1187.1575	1199.4323	1287.929	1298.1039	1336.2641	1398.7265	1409.8497	1415.074	1455.364	1485.1812	1498.6295	1734.8495	3009.2655	3073.209	3078.3598	3138.5372	3141.2136	3222.2356	3235.5987	3511.2982	3825.6734
OCC1(CC1)OC=N	OCC1(CC1)O[CH][NH]	
InChI=1S/C5H9NO2/c6-4-8-5(3-7)1-2-5/h4,6-7H,1-3H2	InChI=1S/C5H9NO2/c6-4-8-5(3-7)1-2-5/h4,6-7H,1-3H2
