20
gdb 14726	10.63352	0.55125	0.53363	1.0912	82.22	-0.2423	0.0573	0.2995	2112.5371	0.174723	-348.974837	-348.964467	-348.963523	-349.011886	34.727	
C	-0.1305687509	 1.5681034785	 0.0511556507	-0.36259
C	 0.0688781266	 0.0427015689	-0.0146997347	-0.312597
C	 0.7870942329	-0.4893504092	 1.139475504	 0.092938
C	 1.3847177146	-0.8934831644	 2.1042663954	 0.017431
C	 2.0987340826	-1.4239641667	 3.2594183759	-0.350626
C	 2.0207427463	-2.951952814	 3.341556575	-0.041368
O	 2.7366067241	-3.357301307	 4.4856512218	-0.22682
C	 2.7458040928	-4.7534133615	 4.6599241778	-0.228522
H	 0.8325920648	 2.0835729468	 0.0959044342	 0.127605
H	-0.6709417138	 1.9216394749	-0.8321834433	 0.112492
H	-0.7027238409	 1.8466709605	 0.9402759537	 0.127335
H	-0.9089340717	-0.4495871534	-0.0956773713	 0.125857
H	 0.6108634661	-0.214919071	-0.9339219526	 0.125918
H	 3.1558227439	-1.1332567297	 3.2269022982	 0.133786
H	 1.6923993118	-1.0063603043	 4.1887638651	 0.134018
H	 0.9682549084	-3.27380522	 3.4011342769	 0.094927
H	 2.4485439254	-3.4012725586	 2.4304792779	 0.094884
H	 3.3207806258	-4.9671440176	 5.5642429859	 0.127076
H	 1.728202324	-5.1577078052	 4.7818222832	 0.104111
H	 3.2178664171	-5.268769907	 3.8082522062	 0.104147
22.8103	67.1759	78.0141	105.7244	152.6909	184.7307	230.9328	261.9711	273.292	396.7603	405.4091	481.7862	532.7193	752.3624	787.2618	797.8765	962.4149	996.6212	1053.407	1079.5612	1087.6289	1105.654	1158.0591	1170.1463	1182.3334	1226.9523	1232.8691	1287.1771	1299.6095	1315.1058	1352.3896	1408.9635	1417.907	1477.0749	1479.4152	1481.9223	1485.441	1494.8296	1504.9609	1505.9451	1531.8628	2369.2656	2960.8476	2973.6783	2994.8748	3012.5749	3017.8285	3029.0652	3043.7767	3044.0951	3064.8133	3113.4324	3116.6959	3123.6124
CCC#CCCOC	CCC#CCCOC	
InChI=1S/C7H12O/c1-3-4-5-6-7-8-2/h3,6-7H2,1-2H3	InChI=1S/C7H12O/c1-3-4-5-6-7-8-2/h3,6-7H2,1-2H3
