22
gdb 107665	3.18057	1.21073	1.02804	0.7349	81.58	-0.2402	0.0726	0.3128	1256.8899	0.196078	-404.334088	-404.325421	-404.324477	-404.367302	33.762	
C	 0.2693020823	 1.4452720191	 0.342556802	-0.384365
C	-0.218199041	 0.0799042216	-0.1563882086	-0.235228
C	 0.5719478271	-0.4464009932	-1.3424141084	 0.33461
C	 0.4557240548	 0.3544611812	-2.6328117808	-0.279405
C	 1.0000967504	-0.4032639039	-3.8472955702	-0.105433
O	 0.4499766473	-1.7018057953	-3.9251617709	-0.235533
C	 0.893371638	-2.5387190277	-2.871145763	-0.1073
C	 0.8030163721	-1.9128054168	-1.4846223332	-0.086587
N	 1.8770405885	-1.0297570648	-0.979910131	-0.371542
H	 1.3326494365	 1.3988265704	 0.5974075341	 0.130292
H	 0.1340215445	 2.2285131073	-0.4103781701	 0.112493
H	-0.2805656988	 1.7522792783	 1.2372486925	 0.111685
H	-0.1356971487	-0.6487768155	 0.6570676145	 0.102637
H	-1.280328539	 0.1340015089	-0.4291710711	 0.093003
H	-0.604300078	 0.5741440563	-2.8091659588	 0.109969
H	 0.9713927904	 1.3182213777	-2.5372966429	 0.102455
H	 0.7210939623	 0.1104629025	-4.7715651845	 0.112506
H	 2.1038282179	-0.4529124334	-3.8234459322	 0.082176
H	 0.2592139091	-3.4289928285	-2.9140659211	 0.11536
H	 1.93170185	-2.8642125096	-3.0630670853	 0.090993
H	 0.407643582	-2.576298581	-0.7180044374	 0.090237
H	 2.5652486123	-0.8684640936	-1.7134979335	 0.216977
80.1234	132.1903	170.6026	232.3485	262.1982	340.1826	350.0723	383.4942	406.6633	521.3798	552.6858	645.2267	700.5892	780.8568	810.02	863.3344	883.2608	926.7684	955.1235	985.3383	1005.0661	1038.4514	1056.8346	1066.7553	1075.9821	1117.0211	1151.3739	1155.2203	1201.9866	1243.453	1261.005	1278.1971	1303.5453	1319.719	1346.2067	1371.2336	1374.9057	1397.2837	1406.1547	1422.8906	1446.6873	1477.5714	1481.3018	1493.7454	1500.6147	1504.7385	1509.0608	2936.792	2944.2207	3021.89	3025.8115	3037.3703	3063.7186	3069.9713	3080.35	3086.0325	3105.0738	3112.7199	3123.0457	3471.7164
CCC12CCOCC1N2	CC[C@]12CCOC[C@H]1N2	
InChI=1S/C7H13NO/c1-2-7-3-4-9-5-6(7)8-7/h6,8H,2-5H2,1H3	InChI=1S/C7H13NO/c1-2-7-3-4-9-5-6(7)8-7/h6,8H,2-5H2,1H3/t6-,7+/m1/s1
