16
gdb 61346	3.17426	0.93932	0.80387	0.9678	80.89	-0.2649	-0.0322	0.2327	1423.0294	0.120431	-400.680487	-400.670761	-400.669816	-400.715449	35.153	
C	-0.0028921602	 1.5504237782	-0.0170366751	-0.403462
C	-0.0084390067	 0.0194402165	-0.0111580536	-0.058351
O	 0.7490821676	-0.4759154485	 1.1255669714	-0.244182
C	 2.0771949115	-0.6130562272	 0.9561818806	 0.266743
N	 2.6728079968	-0.3038098807	-0.1260346333	-0.538606
C	 2.7037570171	-1.1432097923	 2.136738968	 0.275579
C	 3.2749659983	-1.5819872319	 3.0989906605	-0.401272
C	-1.3521770479	-0.5360972259	 0.1005260288	 0.333321
C	-2.4725175415	-0.9639441519	 0.1616479953	-0.437189
H	 1.0202321041	 1.911348777	-0.1366499427	 0.144572
H	-0.6079737712	 1.917657464	-0.8501571259	 0.131633
H	-0.4231205613	 1.932927205	 0.9161819762	 0.134207
H	 0.4777044774	-0.3494241456	-0.9195915921	 0.145439
H	 3.668400354	-0.4976459332	-0.0554324319	 0.237913
H	 3.7747804347	-1.9711261117	 3.952167568	 0.211741
H	-3.4592558827	-1.3529542819	 0.2167356158	 0.201913
64.1392	76.3103	117.6605	186.1096	207.8436	235.9597	281.435	313.2454	390.3493	464.1848	543.8727	551.3861	609.1687	622.9333	660.557	666.5297	678.4746	732.2971	838.7824	841.0091	884.4528	947.0291	1043.7846	1100.0113	1110.0135	1139.6747	1329.2817	1349.4995	1396.7733	1398.1362	1485.5688	1495.5659	1676.8843	2237.3984	2246.3799	3054.8597	3068.9513	3132.7957	3147.6721	3498.7134	3503.9567	3533.23
CC(OC(=N)C#C)C#C	C[C@@H](O[C]([NH])C#C)C#C	
InChI=1S/C7H7NO/c1-4-6(3)9-7(8)5-2/h1-2,6,8H,3H3	InChI=1S/C7H7NO/c1-4-6(3)9-7(8)5-2/h1-2,6,8H,3H3/t6-/m1/s1
