23
gdb 94615	3.38278	0.89078	0.77917	1.8499	85.52	-0.238	0.087	0.325	1553.3397	0.205513	-388.261424	-388.251817	-388.250873	-388.297038	35.542	
C	-0.4481189273	 1.4320656687	-0.1096678065	-0.40017
C	 0.1708854339	 0.048016597	-0.0756329595	 0.140764
O	 1.4856014885	 0.0174398978	-0.6821539885	-0.293297
C	 2.0536404369	-0.6548260315	 0.4585175294	-0.075534
C	 0.7317938773	-0.5449151214	 1.2512697994	-0.04586
C	 0.7406231032	 0.3327019536	 2.5023304438	-0.231793
C	 1.393224	-0.3428359997	 3.6925642509	 0.033147
C	 2.8742585112	-0.2060830367	 3.957500188	-0.254945
C	 1.8764086522	 0.4693541658	 4.8660233939	-0.28019
H	 0.177781125	 2.1678810891	 0.4016184291	 0.119523
H	-0.5668424664	 1.7531822461	-1.1494407183	 0.125342
H	-1.4390400417	 1.4267621649	 0.3573531031	 0.113715
H	-0.4975055624	-0.659164482	-0.589591298	 0.067202
H	 2.3744181795	-1.6765945328	 0.2165643863	 0.093857
H	 2.9092044876	-0.106279481	 0.8703901955	 0.09812
H	 0.2893867295	-1.5151017779	 1.4968564624	 0.070606
H	 1.2595086529	 1.2775464437	 2.2962863668	 0.096489
H	-0.2933431997	 0.5995690406	 2.7612484236	 0.098331
H	 0.962911771	-1.3108420129	 3.9406687171	 0.080349
H	 3.4169171001	-1.066046987	 4.3343920706	 0.111133
H	 3.4543547325	 0.4250618133	 3.2923067484	 0.112304
H	 1.7876116394	 1.5493190449	 4.8037392177	 0.110212
H	 1.734989527	 0.0708579973	 5.8645484849	 0.110697
44.5208	63.387	95.1507	129.4201	216.7779	249.5218	305.9769	354.7034	380.589	440.5939	498.4642	744.4127	774.4724	801.65	822.3987	845.705	876.611	883.8567	916.1344	935.087	971.1732	1018.2641	1028.5776	1050.1086	1073.7358	1079.2574	1091.2138	1118.7371	1141.049	1156.581	1163.8724	1198.3945	1204.8454	1229.0018	1246.361	1265.2771	1295.4361	1327.7359	1360.5786	1386.0586	1390.881	1410.1894	1418.754	1468.5241	1479.1163	1486.4441	1498.3941	1507.3008	1527.4112	2980.4538	3007.4205	3008.9823	3037.2193	3043.8242	3048.6744	3066.1158	3104.5298	3122.5128	3126.7019	3128.6301	3134.4516	3206.2209	3221.3042
CC1OCC1CC1CC1	C[C@H]1OC[C@H]1CC1CC1	
InChI=1S/C8H14O/c1-6-8(5-9-6)4-7-2-3-7/h6-8H,2-5H2,1H3	InChI=1S/C8H14O/c1-6-8(5-9-6)4-7-2-3-7/h6-8H,2-5H2,1H3/t6-,8-/m1/s1
