20
gdb 40563	3.82476	1.0586	0.90761	2.3925	83.15	-0.226	0.0205	0.2465	1324.693	0.173147	-403.124551	-403.116399	-403.115455	-403.157625	31.356	
C	 0.182716229	 1.5489025096	 0.0007102031	-0.244284
N	 1.2881583849	 0.5885765041	-0.064631603	-0.317172
C	-0.0975756319	 0.0810138922	 0.0344211736	-0.108409
C	-0.471364633	-0.6589971023	 1.2651838355	 0.328417
C	-1.4803294086	-1.5338047721	 1.2776902886	-0.177817
C	-1.8572856615	-2.3136460942	 2.5081213563	-0.253047
C	-0.7250769428	-2.242626383	 3.5350213324	-0.078549
O	-0.2682664172	-0.9113146541	 3.6907150934	-0.245803
C	 0.3421661123	-0.4111235795	 2.5168644417	-0.164443
H	 0.137838217	 2.1367175702	 0.9130698504	 0.123384
H	-0.1040614773	 2.0905047117	-0.8973330402	 0.114126
H	 1.6293240728	 0.4988631566	-1.0172711549	 0.235599
H	-0.5457560016	-0.3205883995	-0.8730428299	 0.081477
H	-2.06263617	-1.7002883149	 0.3734072326	 0.075261
H	-2.786181756	-1.9176222005	 2.9420615296	 0.113347
H	-2.0609636189	-3.3615164705	 2.2520641977	 0.100172
H	-1.0566614283	-2.5725031076	 4.5236921443	 0.103214
H	 0.1052164243	-2.8961016298	 3.2184701123	 0.087381
H	 1.349964924	-0.8390867969	 2.3842258022	 0.111268
H	 0.4824147329	 0.6616183205	 2.6855004544	 0.115879
69.2094	118.0643	183.8376	219.4072	293.7083	358.924	385.6129	494.4094	506.9763	546.7575	632.9653	788.0793	827.372	874.2415	879.3432	904.3838	917.7999	943.4247	966.7995	990.694	1027.7581	1055.3783	1074.3113	1102.1496	1114.8769	1141.9295	1148.1957	1216.8403	1228.1069	1245.9847	1265.3271	1287.5953	1313.877	1349.994	1366.0611	1400.9943	1421.6806	1433.0403	1471.8182	1477.9082	1499.9051	1515.1166	1732.0118	2964.2895	2970.0289	3008.4022	3043.4489	3069.3138	3085.1108	3107.2381	3116.267	3139.9437	3192.756	3513.047
C1NC1C1=CCCOC1	C1N[C@H]1C1=CCCOC1	
InChI=1S/C7H11NO/c1-2-6(5-9-3-1)7-4-8-7/h2,7-8H,1,3-5H2	InChI=1S/C7H11NO/c1-2-6(5-9-3-1)7-4-8-7/h2,7-8H,1,3-5H2/t7-/m1/s1
