14
gdb 19335	5.08703	1.68771	1.5138	3.5351	66.76	-0.2346	0.0027	0.2372	828.2	0.108299	-341.508719	-341.502435	-341.501491	-341.538978	24.809	
N	 0.087042647	-1.1341888241	-0.127670723	-0.345531
C	 0.0584619183	 0.0205749013	-0.03852584	 0.176967
C	 0.015740267	 1.4343969535	 0.0848831578	 0.228537
N	 0.2044017315	 2.3368825148	-1.0901478237	-0.363751
C	 1.1327901178	 2.4232201008	 0.0463067474	-0.106731
C	 0.4775198214	 3.2390063324	 1.1956001015	-0.056568
C	-0.9299416585	 3.6627145247	 0.8634575953	-0.291043
C	-0.6641732368	 2.2335802501	 1.242394404	-0.106709
H	 0.6540665836	 1.7905408715	-1.8246885996	 0.251469
H	 2.1913483926	 2.2328050549	-0.069637369	 0.123226
H	 1.0465050268	 3.6468969646	 2.0192618229	 0.105102
H	-1.413257971	 4.2407144208	 1.6446916274	 0.120719
H	-1.2049818579	 3.9270908162	-0.1489323899	 0.152004
H	-1.0985051319	 1.7381421186	 2.099261929	 0.112307
153.4376	161.0874	370.2035	417.5866	477.4761	541.9499	571.7466	612.5306	718.5686	759.8229	816.2886	846.8089	867.5799	921.2054	923.9603	982.9214	992.8994	1036.7453	1050.7781	1058.7507	1102.0414	1140.3705	1180.1977	1218.1964	1271.4055	1296.6727	1334.7689	1398.2608	1463.6464	2338.8508	3145.3811	3206.9206	3213.9081	3220.1146	3241.4522	3483.2562
N#CC12NC1C1CC21	N#C[C@]12N[C@H]1[C@H]1C[C@@H]21	
InChI=1S/C6H6N2/c7-2-6-4-1-3(4)5(6)8-6/h3-5,8H,1H2	InChI=1S/C6H6N2/c7-2-6-4-1-3(4)5(6)8-6/h3-5,8H,1H2/t3-,4+,5-,6+/m0/s1
