20
gdb 95839	2.45656	1.32189	1.08706	3.1646	78.82	-0.2588	0.0327	0.2915	1201.58	0.172359	-403.184186	-403.175564	-403.17462	-403.217338	32.924	
C	 0.0286001856	 1.5619998805	 0.0773276637	-0.403717
C	 0.034669078	 0.0417863125	 0.0314966468	 0.136732
C	 0.655386166	-0.507599581	-1.2602813031	-0.212613
C	 0.761635908	-2.0521460037	-1.2234170528	-0.168927
C	 1.4455417351	-2.4909065434	 0.0937300452	-0.215783
C	 0.7737902363	-1.8207418612	 1.2935821508	-0.079544
O	 0.7689259609	-0.4101636611	 1.1659890348	-0.259876
C	-0.5600993977	-2.6754638672	-1.3640478336	 0.274522
N	-1.6014976069	-3.165807347	-1.473483728	-0.332828
H	 1.0493625832	 1.9509107377	 0.0079825068	 0.123296
H	-0.5581552047	 1.9706909872	-0.7505983802	 0.118361
H	-0.406318594	 1.9089221552	 1.0180177352	 0.128815
H	-1.0018056954	-0.3305961254	 0.1071677681	 0.087006
H	 0.0723057927	-0.1855013807	-2.1284082474	 0.116729
H	 1.66799232	-0.1016573502	-1.3657537618	 0.109106
H	 1.3607042849	-2.3929456702	-2.075450779	 0.124512
H	 1.4201541311	-3.5796759158	 0.1995458325	 0.117851
H	 2.4946851518	-2.1798549565	 0.0483965928	 0.113576
H	-0.2558264281	-2.1987576571	 1.4062119771	 0.110151
H	 1.3172908232	-2.0457819629	 2.2154177121	 0.112631
99.1086	116.4336	199.7766	219.5538	268.1649	304.1173	333.7147	399.2017	425.8316	484.2006	534.2605	599.5929	684.5579	778.1062	830.2028	865.5144	876.7194	917.0169	964.7355	983.455	1037.0923	1099.5392	1104.1436	1110.5596	1140.1256	1159.0297	1210.6964	1255.9475	1261.2869	1305.3092	1334.5108	1348.1806	1373.4578	1380.3226	1399.686	1410.9953	1422.1162	1466.0862	1479.0959	1485.0397	1496.3293	1502.5762	2351.4332	2956.0871	2976.9747	3038.3201	3042.8375	3045.1513	3053.859	3089.9165	3094.4811	3099.1758	3116.7791	3125.5206
CC1CC(CCO1)C#N	C[C@H]1C[C@@H](CCO1)C#N	
InChI=1S/C7H11NO/c1-6-4-7(5-8)2-3-9-6/h6-7H,2-4H2,1H3	InChI=1S/C7H11NO/c1-6-4-7(5-8)2-3-9-6/h6-7H,2-4H2,1H3/t6-,7+/m0/s1
