17
gdb 123807	5.3257	0.96463	0.85656	1.1689	74.62	-0.2091	0.0243	0.2333	1325.0417	0.137564	-417.992836	-417.985025	-417.984081	-418.026117	29.425	
C	-0.3519655293	 1.0499216993	-0.2591755335	-0.283808
C	 1.0788553905	 1.1137136593	 0.2391778883	-0.294081
C	 0.4259107311	-0.2087118654	 0.0157705205	 0.131081
O	 0.1382616162	-0.9452833314	 1.1728379543	-0.278381
C	-0.8827728615	-1.8374822902	 1.0597792037	 0.273888
C	-1.2438035043	-2.7342536507	 2.0466413896	-0.152099
N	-2.2958032729	-3.4280648377	 1.5365536801	-0.173221
N	-2.6393838172	-3.0517006234	 0.2982173854	-0.228015
C	-1.7813413815	-2.075959031	-0.0057835458	-0.110255
H	-1.1332744921	 1.3042172398	 0.4475892373	 0.129595
H	-0.5624007258	 1.3151875299	-1.2894586783	 0.116935
H	 1.8616301078	 1.423791405	-0.4433817399	 0.118018
H	 1.2296228822	 1.4076736079	 1.2714739356	 0.129164
H	 0.7431334256	-0.8229355553	-0.8251496059	 0.099758
H	-0.8416164189	-2.9154554861	 3.0290734995	 0.134122
H	-2.8142449407	-4.1644539913	 1.9831822887	 0.2752
H	-1.8392681593	-1.5827280289	-0.9627199094	 0.112098
55.0366	70.4573	148.1759	306.1083	356.7983	377.1318	483.6953	489.4533	649.0676	694.1309	695.6153	752.9289	760.8474	823.6354	846.2041	854.9222	941.4168	983.381	988.5638	1025.2789	1055.4524	1071.0986	1074.8042	1127.4111	1163.6179	1192.0778	1193.1662	1234.7736	1263.2823	1338.9799	1381.575	1397.3791	1415.3596	1454.5284	1496.3585	1507.5917	1627.4595	3117.9983	3138.7731	3144.4848	3223.909	3237.7886	3265.3103	3277.1674	3680.5
C1CC1OC1=CNN=C1	C1CC1Oc1c[nH]nc1	
InChI=1S/C6H8N2O/c1-2-5(1)9-6-3-7-8-4-6/h3-5H,1-2H2,(H,7,8)	InChI=1S/C6H8N2O/c1-2-5(1)9-6-3-7-8-4-6/h3-5H,1-2H2,(H,7,8)
