17
gdb 99916	2.28459	1.36811	1.05908	3.8851	68.41	-0.2714	0.0128	0.2842	1162.4438	0.13523	-455.114239	-455.105039	-455.104095	-455.148225	33.677	
N	-0.1216227003	 1.4083170054	 0.1150964923	-0.556941
C	-0.0716548367	-0.0566864923	 0.0127669891	 0.020235
C	 0.7927757092	-0.554153029	 1.2068826318	-0.052783
O	 0.3070009369	-0.0646637155	 2.4231952208	-0.416773
C	-1.4346868747	-0.5992063327	 0.120143804	 0.294945
N	-2.5011783473	-1.0416531674	 0.1557752122	-0.327347
C	 0.5471572353	-0.5692923073	-1.2986077335	 0.059137
C	 0.3635641426	 0.1137324822	-2.5798176913	-0.182781
O	 1.5826620815	 0.2505981909	-1.8324611273	-0.238927
H	 0.6959010192	 1.7830464955	-0.361795926	 0.257316
H	-0.9506108408	 1.7881517547	-0.3275557153	 0.253696
H	 0.7790400856	-1.6472419462	 1.2530621709	 0.121592
H	 1.8277028829	-0.2318750863	 1.0026800957	 0.104943
H	 0.125988267	 0.8740211049	 2.2664596884	 0.292496
H	 0.7620726808	-1.6379943332	-1.3049096167	 0.118112
H	 0.4475835842	-0.4520648254	-3.5045745764	 0.136644
H	-0.2485841955	 1.0113518017	-2.6309557187	 0.116437
83.0029	116.5529	151.6778	172.0427	215.8754	287.2544	320.1609	344.1308	393.7315	428.7756	511.5025	541.0796	570.8064	646.4951	736.4292	854.1064	875.599	909.9488	935.6059	981.7814	1055.9441	1068.7731	1105.1029	1117.9676	1160.681	1168.7078	1179.0672	1239.8804	1292.6474	1333.971	1385.0925	1417.8728	1443.8627	1505.4462	1523.3194	1650.5009	2361.2894	2969.3325	3086.5956	3102.6469	3116.2557	3193.8587	3487.8464	3590.0984	3725.7281
NC(CO)(C#N)C1CO1	N[C@@](CO)(C#N)[C@H]1CO1	
InChI=1S/C5H8N2O2/c6-2-5(7,3-8)4-1-9-4/h4,8H,1,3,7H2	InChI=1S/C5H8N2O2/c6-2-5(7,3-8)4-1-9-4/h4,8H,1,3,7H2/t4-,5-/m1/s1
