16
gdb 47475	3.44855	1.13903	0.90856	6.9993	68.72	-0.279	-0.0046	0.2743	1230.4197	0.125483	-437.946584	-437.938452	-437.937508	-437.980137	29.156	
O	-0.2717762609	 0.1398405946	 0.5962045981	-0.323507
C	-0.1494368302	 1.2602894754	 0.1990407168	 0.453597
O	-1.1948592853	 2.0056221878	-0.2465480301	-0.217299
C	-0.7619994931	 3.3273912486	-0.6154381588	-0.087669
C	 0.586870794	 3.5282143838	 0.0898011803	-0.265081
C	 1.1327277039	 2.0963639928	 0.1200913034	-0.144298
C	 2.1173425228	 1.7809939766	 1.2585323117	-0.358119
C	 2.8068680862	 0.5026522118	 1.0916231109	 0.279481
N	 3.3929561982	-0.482052523	 0.948011517	-0.301612
H	-0.6646611348	 3.3740580914	-1.7063068255	 0.125373
H	-1.5350933719	 4.0305042226	-0.3008518088	 0.134877
H	 1.2328454409	 4.2364405686	-0.4324747112	 0.125426
H	 0.4292563074	 3.8960324283	 1.1099371635	 0.124074
H	 1.6073805233	 1.8601952877	-0.8406995316	 0.135166
H	 2.8786978089	 2.5674747316	 1.3093420882	 0.156005
H	 1.5919248707	 1.7792593914	 2.2196534561	 0.163586
60.2669	93.039	156.2761	205.3088	247.4417	347.2953	381.2518	455.6818	514.2431	627.9641	670.9161	714.1572	773.5381	882.5884	925.4794	939.5639	969.8403	1013.9615	1058.0435	1106.1546	1119.5642	1165.6542	1205.3096	1218.3816	1239.1441	1288.2298	1330.9299	1350.5599	1374.1414	1403.1484	1461.8701	1495.4509	1524.4225	1885.8768	2369.4791	3036.4885	3042.2142	3046.8448	3053.5614	3089.1503	3114.2727	3123.0771
O=C1OCCC1CC#N	O=C1OCC[C@H]1CC#N	
InChI=1S/C6H7NO2/c7-3-1-5-2-4-9-6(5)8/h5H,1-2,4H2	InChI=1S/C6H7NO2/c7-3-1-5-2-4-9-6(5)8/h5H,1-2,4H2/t5-/m1/s1
