19
gdb 37725	3.14237	2.03304	1.67106	1.4744	77.03	-0.2185	0.0903	0.3089	869.7513	0.163921	-385.858028	-385.852032	-385.851088	-385.888159	26.112	
C	-0.0353024043	 1.6066153491	 0.0772572243	-0.220697
C	 1.514149467	 1.3950700973	 0.0318319274	-0.055081
C	 1.7657982984	 0.6618905801	 1.3612308116	-0.107697
C	 2.0352251736	-0.8163882476	 1.2801081033	 0.116723
O	 2.6176129932	-1.4398394862	 0.1765864212	-0.273438
C	 2.2050046844	-0.9161676316	-1.0808065655	-0.095602
C	 1.2109179515	 0.2184446209	-0.9436311476	-0.036721
C	-0.0338439986	 0.0453136029	-0.0224867877	-0.055078
C	 0.6049731674	-0.3502949627	 1.320489745	-0.107702
H	-0.4570495476	 2.0539093436	 0.9816523699	 0.090737
H	-0.4313417121	 2.0968212296	-0.8173939605	 0.090427
H	 2.2063996794	 2.1932304112	-0.2379417882	 0.061174
H	 2.0246501459	 1.2291263032	 2.2482927477	 0.082457
H	 2.412635343	-1.2855815798	 2.1832819638	 0.099819
H	 3.0985131228	-0.5709182927	-1.6222003524	 0.096757
H	 1.7636985248	-1.7347346503	-1.6689092084	 0.096752
H	 0.9225447023	 0.5888904392	-1.9306131369	 0.07354
H	-0.9069904398	-0.5214595978	-0.3471895694	 0.061173
H	-0.0269660514	-0.5598030982	 2.1762928923	 0.082458
136.1548	327.0466	416.6966	478.8868	561.2372	610.2231	664.8084	745.993	755.8487	760.2022	828.8386	839.2984	858.5736	880.9502	912.013	931.0675	987.0274	991.1093	1016.8619	1048.7534	1059.1514	1063.2628	1073.1174	1093.64	1107.5955	1130.0849	1130.6685	1183.5589	1221.9789	1222.9118	1241.8621	1270.9537	1272.5577	1283.4247	1323.6922	1336.5637	1372.6587	1406.7055	1450.1926	1497.3957	1519.5819	2982.3125	3007.3998	3046.1291	3078.5329	3107.3179	3107.8039	3112.1995	3158.6917	3163.4241	3175.9295
C1C2C3C4OCC2C1C34	C1[C@H]2[C@@H]3[C@@H]4OC[C@H]2[C@H]1[C@H]34	
InChI=1S/C8H10O/c1-3-5-2-9-8-6(3)7(8)4(1)5/h3-8H,1-2H2	InChI=1S/C8H10O/c1-3-5-2-9-8-6(3)7(8)4(1)5/h3-8H,1-2H2/t3-,4+,5-,6+,7-,8+
