18
gdb 129628	2.9731	1.24741	0.93765	3.1645	74.74	-0.1974	0.0413	0.2387	1231.8233	0.149854	-435.281413	-435.272538	-435.271594	-435.315263	32.991	
N	-0.3735639625	 1.4357190831	-0.1790487081	-0.620808
C	-0.2492672705	 0.0483483698	-0.0686439078	 0.262761
C	-1.1784089753	-0.9865700181	-0.0769154964	 0.162518
C	-2.6775283509	-0.9063223492	-0.0960157783	-0.333895
C	-3.289141423	-0.3189956792	-1.3686839626	-0.071032
O	-3.0453720998	 1.0902695577	-1.3797371678	-0.407822
C	-0.3809538048	-2.1539381791	-0.000580787	-0.087014
N	 0.9187111393	-1.8933756756	 0.0611108383	-0.244278
N	 0.9716566517	-0.5407355296	 0.0078528755	-0.223791
H	-0.0944638626	 1.9336985671	 0.658742493	 0.240694
H	-1.3235857296	 1.6783420833	-0.442858655	 0.261351
H	-3.0840880404	-1.915441819	 0.0349993016	 0.107041
H	-3.0544432348	-0.311985129	 0.7479384166	 0.109885
H	-2.8459545366	-0.7986740964	-2.2518725667	 0.100781
H	-4.3729794093	-0.5087649123	-1.3815965222	 0.089484
H	-3.2035609455	 1.4231586999	-2.2675827426	 0.293084
H	-0.7219380109	-3.1803867478	 0.0286312852	 0.096646
H	 1.8638053055	-0.0772582054	-0.0236010559	 0.264395
45.9335	162.0789	167.7027	226.3775	241.7447	274.6894	315.1321	344.8052	428.7487	481.4912	495.7016	641.2376	677.6259	710.6502	729.9298	833.2715	871.4211	883.2523	949.4508	959.5891	1047.469	1077.8488	1120.3527	1146.5635	1166.8152	1239.1596	1246.3833	1270.9738	1309.3213	1345.676	1355.0392	1399.9043	1443.6361	1448.8285	1466.5514	1515.9512	1550.1103	1615.3709	1660.4195	2984.8886	3010.1232	3036.5973	3069.9079	3222.9672	3491.5547	3584.2122	3672.3346	3838.3374
NC1=C(CCO)C=NN1	Nc1c(CCO)cn[nH]1	
InChI=1S/C5H9N3O/c6-5-4(1-2-9)3-7-8-5/h3,9H,1-2H2,(H3,6,7,8)	InChI=1S/C5H9N3O/c6-5-4(1-2-9)3-7-8-5/h3,9H,1-2H2,(H3,6,7,8)
