16
gdb 11712	5.75875	1.3831	1.25536	4.4932	71.41	-0.2316	0.0164	0.248	973.0062	0.130945	-342.751214	-342.7438	-342.742856	-342.78271	27.73	
C	-0.2061537402	 1.4769877317	 0.0355040076	-0.330147
N	 0.1267556035	 0.0641896357	 0.0228932837	-0.067003
C	 1.1928298392	-0.4253723198	-0.8915020859	-0.232674
C	 1.88480035	-1.1209042995	 0.2932307449	 0.184425
C	 2.2184384724	-0.0846584314	 1.3524311829	-0.33258
C	 0.7905485712	-0.5127801895	 1.182722373	-0.047558
C	 2.422433982	-2.4381377982	 0.2847621597	 0.187758
N	 2.8661188751	-3.5073847448	 0.2624372089	-0.348792
H	 0.6540962011	 2.144188994	 0.2187678587	 0.098599
H	-0.6505155771	 1.7518703726	-0.9260854511	 0.130145
H	-0.952485994	 1.66294836	 0.8143558469	 0.130409
H	 0.8035454809	-1.1118438438	-1.6481861069	 0.132203
H	 1.7937668268	 0.3540579134	-1.3777285607	 0.107962
H	 2.7204497275	-0.4790504938	 2.2294687742	 0.141858
H	 2.5565496441	 0.8975729179	 1.0345474438	 0.124688
H	 0.2211331275	-0.9823714847	 1.9775797504	 0.120708
118.2695	151.3239	205.7436	233.727	318.1324	382.9782	472.0341	526.9469	556.0626	589.0916	690.5278	824.1393	846.7618	903.1352	970.2612	988.8387	1003.6771	1056.5283	1073.4929	1079.3021	1130.8902	1168.8668	1208.0816	1217.0526	1237.8025	1291.5156	1319.7995	1384.3325	1451.778	1476.9924	1488.1721	1501.7609	1512.7898	2347.0685	2953.2329	3018.9317	3066.5648	3089.2746	3108.1336	3122.4457	3173.3958	3218.4742
CN1CC2(CC12)C#N	CN1C[C@]2(C[C@@H]12)C#N	
InChI=1S/C6H8N2/c1-8-4-6(3-7)2-5(6)8/h5H,2,4H2,1H3	InChI=1S/C6H8N2/c1-8-4-6(3-7)2-5(6)8/h5H,2,4H2,1H3/t5-,6+/m1/s1
