21
gdb 96501	2.20172	1.59284	1.20421	2.7719	78.08	-0.2632	-0.0023	0.2609	1144.1633	0.183773	-424.270065	-424.261277	-424.260333	-424.303521	33.553	
C	 0.0115824889	 1.5914560143	 0.0764507435	-0.4097
C	-0.0211294774	 0.0558430077	 0.0362745747	-0.061607
C	 0.659730871	-0.4984232766	-1.2453629474	-0.197781
C	 1.2372497502	-1.9317986084	-1.1442883165	-0.222487
C	 2.6466884969	-2.0199925088	-0.5168357556	-0.184969
C	 2.7103939338	-1.6501427724	 0.9666119373	-0.094807
O	 2.0251528082	-0.4012712454	 1.1726211633	-0.254083
C	 0.6597675164	-0.55481576	 1.2426435703	 0.409379
O	 0.1214734071	-1.1667870264	 2.1225600172	-0.32586
H	 1.0430534701	 1.9514149791	 0.132049427	 0.135654
H	-0.4454110821	 2.0019902253	-0.829593141	 0.118886
H	-0.5376499811	 1.9801581756	 0.9389991247	 0.127644
H	-1.0605874079	-0.2836555961	 0.0786995632	 0.096013
H	-0.0838899456	-0.4675678603	-2.049350015	 0.10191
H	 1.4654867365	 0.1819718517	-1.5437966696	 0.104285
H	 0.5395039617	-2.582336297	-0.5995751171	 0.112712
H	 1.3021825986	-2.3452603859	-2.1564535668	 0.100289
H	 3.0391523815	-3.0377212793	-0.6349341025	 0.099816
H	 3.3178133158	-1.3565906518	-1.0762871896	 0.105748
H	 2.2517197484	-2.4167601946	 1.6009215922	 0.124936
H	 3.740394389	-1.4981536107	 1.2973074077	 0.114024
62.5378	126.7684	217.3793	240.8414	252.4509	278.8512	298.2397	352.9452	425.384	506.612	511.1928	614.2452	752.2964	782.7146	805.0365	850.1896	865.003	918.0866	945.8741	976.0373	1004.2256	1042.1627	1058.5049	1073.533	1111.0204	1159.3055	1189.773	1230.0917	1241.5598	1284.469	1296.266	1330.958	1347.3088	1371.8628	1378.2361	1387.4843	1397.6903	1407.5684	1473.3553	1484.338	1489.9971	1496.909	1502.7847	1508.0211	1838.6462	3021.2101	3024.7172	3032.3771	3038.3326	3046.7825	3058.3471	3066.4918	3070.9023	3080.0793	3108.2054	3111.0591	3119.8926
CC1CCCCOC1=O	C[C@H]1CCCCOC1=O	
InChI=1S/C7H12O2/c1-6-4-2-3-5-9-7(6)8/h6H,2-5H2,1H3	InChI=1S/C7H12O2/c1-6-4-2-3-5-9-7(6)8/h6H,2-5H2,1H3/t6-/m0/s1
