14
gdb 24515	3.98309	1.70602	1.19443	1.2945	75.96	-0.2405	-0.0275	0.213	947.3893	0.105723	-399.644019	-399.638263	-399.637319	-399.674024	23.532	
O	-0.0587238891	 1.3371959301	 0.0096805004	-0.208028
C	 1.2503407306	 1.7258409375	-0.0006339012	 0.05846
N	 2.1303117649	 0.7866420948	-0.013957906	-0.325655
C	 1.3646294149	-0.3849973556	-0.012853259	 0.235805
C	 0.0103872436	-0.0318051759	 0.001826262	 0.347497
C	-1.025025684	-0.9499990985	 0.0067949332	-0.266745
C	-0.6412966597	-2.2897594827	-0.003888622	-0.096365
C	 0.7104486653	-2.6702555972	-0.0186866305	-0.101678
C	 1.7343938565	-1.7283101588	-0.0234217028	-0.23139
H	 1.4213697356	 2.7918986437	 0.0033546571	 0.154121
H	-2.0643676598	-0.646051975	 0.0182358279	 0.115923
H	-1.4074501576	-3.0574271053	-0.0006790874	 0.103044
H	 0.9586810212	-3.7260450033	-0.0265979839	 0.1007
H	 2.7785587175	-2.0171834038	-0.0348290977	 0.114312
231.5083	262.897	420.2546	434.1838	546.1056	589.7843	633.2116	638.4606	771.4838	795.9058	797.4192	872.7246	879.7945	888.5487	934.3132	937.8629	972.8615	1025.7881	1098.3583	1125.864	1169.2563	1182.4262	1264.0022	1301.6688	1332.2092	1385.0214	1477.7708	1507.9761	1568.1341	1639.5213	1656.648	3180.0731	3194.2126	3208.9225	3212.9104	3269.0911
O1C=NC2=C1C=CC=C2	o1cnc2c1cccc2	
InChI=1S/C7H5NO/c1-2-4-7-6(3-1)8-5-9-7/h1-5H	InChI=1S/C7H5NO/c1-2-4-7-6(3-1)8-5-9-7/h1-5H
