20
gdb 107829	3.25136	1.49686	1.28196	2.1715	77.25	-0.2181	0.079	0.2972	1055.7471	0.172366	-403.099641	-403.091882	-403.090938	-403.131668	30.878	
C	 0.0207742507	 1.3641032559	 0.0662631885	-0.263095
O	-0.0520270541	-0.0326508314	-0.1370258035	-0.310572
C	-1.3368197231	-0.570419156	-0.0542549851	 0.425392
C	-2.0400349237	-0.6268190273	 1.331771532	-0.217871
N	-2.3055649786	-2.1002510306	 1.1809371906	-0.152269
C	-2.8418949442	-2.3347259934	-0.1966777012	-0.01497
C	-3.4896890148	-1.18600701	-0.9644248237	-0.25389
C	-2.347815583	-0.1501860646	-1.1356277173	-0.266744
C	-1.396087599	-2.1178856052	-0.0181366854	-0.116142
H	 1.0799470884	 1.630692587	 0.0603052036	 0.13026
H	-0.4884281876	 1.9269394379	-0.7283364398	 0.111854
H	-0.4116407146	 1.6600970204	 1.0334411322	 0.111033
H	-1.3347503531	-0.4949008384	 2.1558176349	 0.114123
H	-2.9268416979	-0.0049458023	 1.500761023	 0.090204
H	-3.243977587	-3.3372014952	-0.2976080482	 0.096833
H	-3.8667732129	-1.5389780146	-1.9285167563	 0.108777
H	-4.3473027656	-0.7737991892	-0.4216448191	 0.109485
H	-2.696625576	 0.8798583931	-1.0126769002	 0.096567
H	-1.877389549	-0.2377950974	-2.1212377607	 0.105391
H	-0.5774733048	-2.8159610986	-0.1436824243	 0.095634
101.0203	176.4409	208.147	240.3764	347.4023	366.6423	424.0619	443.0237	571.078	642.9939	699.2385	752.3855	783.9405	823.4884	865.7067	913.8867	940.082	954.7661	971.5486	1013.9167	1028.9074	1053.5411	1073.1754	1117.8554	1148.5655	1177.1861	1182.4478	1197.0841	1206.2357	1218.6355	1249.6172	1256.0458	1274.7602	1287.0017	1318.2479	1360.7029	1390.1768	1481.0113	1485.9189	1489.0924	1493.444	1508.1161	1510.9904	2989.1207	3032.6832	3036.7299	3043.0776	3047.8707	3080.3452	3096.2479	3105.1164	3119.9033	3168.9917	3191.0621
COC12CN3C(CC1)C23	CO[C@@]12CN3[C@@H](CC1)[C@@H]23	
InChI=1S/C7H11NO/c1-9-7-3-2-5-6(7)8(5)4-7/h5-6H,2-4H2,1H3	InChI=1S/C7H11NO/c1-9-7-3-2-5-6(7)8(5)4-7/h5-6H,2-4H2,1H3/t5-,6-,7+,8?/m0/s1
