12
gdb 133392	2.46439	1.80817	1.04326	1.5186	62.	-0.2409	-0.067	0.1739	1008.3387	0.076744	-513.89714	-513.88972	-513.888776	-513.929017	27.749	
N	 0.0441923956	 1.3169089957	 0.0921574206	-0.539466
C	-0.0314056775	-0.0308375825	 0.0300455569	 0.314378
N	-1.2009352281	-0.610801548	 0.0144849229	-0.19158
O	-1.2005608911	-2.0047066713	-0.0020981714	-0.211432
C	-0.0647480183	-2.6940237181	-0.0120151967	-0.005166
C	 1.1671265134	-2.1322583822	-0.0148430748	 0.101567
F	 2.2509520388	-2.9003736065	-0.0344751274	-0.053946
C	 1.3039492569	-0.7064571822	-0.0039205792	 0.246417
O	 2.3383493758	-0.0542465019	-0.0262725101	-0.384004
H	 0.9620726157	 1.704930288	-0.0632089189	 0.283367
H	-0.7779188495	 1.8750574584	-0.0577850695	 0.273509
H	-0.2323757117	-3.7650334395	-0.0217568824	 0.166356
106.0391	229.3115	272.0815	289.3548	324.9767	355.2241	459.4003	462.1453	533.1678	544.7124	559.0648	583.8527	691.7902	800.0613	874.0674	907.7837	912.6355	1072.5228	1132.4669	1242.1002	1309.0477	1410.7452	1460.609	1574.3261	1632.1657	1663.6949	1749.733	3209.7465	3590.6299	3733.4014
NC1=NOC=C(F)C1=O	Nc1nocc(F)c1=O	
InChI=1S/C4H3FN2O2/c5-2-1-9-7-4(6)3(2)8/h1H,(H2,6,7)	InChI=1S/C4H3FN2O2/c5-2-1-9-7-4(6)3(2)8/h1H,(H2,6,7)
