14
gdb 124036	3.8199	1.64525	1.16658	4.1967	70.53	-0.2107	-0.0225	0.1881	969.5629	0.103433	-436.682239	-436.6758	-436.674856	-436.71324	24.895	
C	 0.0788846175	 1.4669371699	 0.2418330174	-0.14032
O	 1.0102853512	 2.1892619846	-0.6226617363	-0.263629
C	 2.0039080875	 1.4399737842	-1.0681517231	 0.498388
C	 2.0651909119	 0.0724201743	-1.1384896762	 0.0221
C	 3.3194736632	-0.1314610366	-1.7651295646	-0.078269
N	 3.9450311887	 0.9900165007	-2.0405078536	-0.154129
O	 3.0711360103	 2.0233321852	-1.5836787808	-0.222924
C	 0.9022286733	-0.677877414	-0.7113643358	-0.157506
C	-0.0743528316	 0.0019729688	-0.0957488932	-0.130468
H	 0.4315073256	 1.6015522012	 1.2765647026	 0.129824
H	-0.8652519297	 2.0063805772	 0.139526575	 0.140266
H	 3.8028115437	-1.0618467534	-2.0318009288	 0.135753
H	 0.8106482399	-1.735312909	-0.9321954501	 0.110519
H	-0.9969796415	-0.471804883	 0.2193719675	 0.110396
108.8081	183.8633	298.8017	406.0034	457.4019	519.6271	606.6845	622.6906	684.7716	727.1208	772.603	821.8865	865.0935	911.9754	916.4223	951.3002	972.1696	1011.6121	1031.6086	1178.577	1202.4406	1242.4368	1267.6707	1338.9195	1358.8998	1397.3648	1456.0372	1496.5594	1565.8503	1638.1466	1684.3121	2977.1528	3099.7824	3187.4364	3206.4296	3233.2775
C1OC2=C(C=NO2)C=C1	C1Oc2c(cno2)C=C1	
InChI=1S/C6H5NO2/c1-2-5-4-7-9-6(5)8-3-1/h1-2,4H,3H2	InChI=1S/C6H5NO2/c1-2-5-4-7-9-6(5)8-3-1/h1-2,4H,3H2
