18
gdb 96983	3.84681	1.23108	1.03131	3.327	84.43	-0.2242	-0.0328	0.1914	1190.6473	0.148264	-401.943057	-401.934928	-401.933984	-401.976379	30.669	
C	 0.1146517395	 1.5139805158	-0.4731859902	-0.323283
N	 0.0545267796	 0.1061122848	-0.1659584214	-0.268404
C	-1.0122147581	-0.4610845102	 0.2198272149	 0.362303
O	-0.8911688655	-1.8174477628	 0.4175882224	-0.250612
C	-1.8509049775	-2.5360825126	 1.1355625374	 0.126734
C	-2.2252226622	-2.1847229741	 2.5380427479	-0.31929
C	-3.2178344849	-1.9466100026	 1.3913778623	-0.127754
C	-3.3830374093	-0.572360653	 0.8965531016	-0.065988
C	-2.350172358	 0.118732338	 0.3964122618	-0.177148
H	 0.9961028874	 1.9427934948	 0.0175734127	 0.128419
H	 0.2657351496	 1.6481594865	-1.5521755262	 0.126769
H	-0.7546091441	 2.116810187	-0.1752601753	 0.099567
H	-1.7764976779	-3.5840729245	 0.8698095481	 0.115199
H	-2.4330889661	-2.9958192129	 3.2272394377	 0.123304
H	-1.7796962666	-1.3005706585	 2.9800097385	 0.134457
H	-4.0851116605	-2.5960950928	 1.3420964892	 0.099952
H	-4.3699037819	-0.1206188966	 0.9476729488	 0.107033
H	-2.4902801936	 1.1361183538	 0.0570389299	 0.108742
61.389	64.3131	219.0461	235.418	274.6062	372.1408	413.0801	481.1302	540.4879	570.4211	685.8331	729.7735	777.1938	802.9205	803.9877	868.9504	901.3415	980.5366	1003.0532	1015.8767	1041.5964	1091.4979	1098.766	1121.6034	1130.0882	1142.0119	1172.2008	1200.314	1241.3415	1277.391	1374.083	1411.3596	1426.986	1455.1971	1472.5327	1482.8577	1509.4127	1676.6018	1738.7857	2993.6669	3052.0845	3066.4467	3135.7428	3158.5301	3169.8012	3182.0343	3223.7839	3231.9567
CN=C1OC2CC2C=C1	C[N]C1=C[CH][C@H]2[C@@H](O1)C2	
InChI=1S/C7H9NO/c1-8-7-3-2-5-4-6(5)9-7/h2-3,5-6H,4H2,1H3	InChI=1S/C7H9NO/c1-8-7-3-2-5-4-6(5)9-7/h2-3,5-6H,4H2,1H3/t5-,6+/m1/s1
