21
gdb 68359	2.64972	1.66748	1.25066	1.3691	82.65	-0.2333	0.0198	0.2531	1066.0798	0.184617	-387.089351	-387.081452	-387.080508	-387.121084	32.725	
O	-0.0905347363	 1.4807595122	-0.0106244134	-0.481687
C	 0.0360317945	 0.0750060115	 0.076816487	 0.425291
C	 0.134464365	-0.5530307464	 1.5020480673	-0.298678
C	-0.9035101617	-1.6233606818	 1.0406659656	-0.053368
C	-1.3360766381	-0.6183958987	-0.0765462198	-0.251499
C	-0.3058662217	-2.8834410574	 0.4766984812	-0.059586
C	 0.7943797285	-2.9619678907	-0.2744433832	-0.054248
C	 1.7187817979	-1.8265317066	-0.652811006	-0.266411
C	 1.0988022139	-0.4358292038	-0.9142520171	-0.258704
H	 0.7884877579	 1.8699723591	 0.0528557015	 0.269797
H	 1.1029332387	-0.9030657534	 1.8667723494	 0.091832
H	-0.3044355141	 0.1305708926	 2.2328656875	 0.100621
H	-1.6761706765	-1.8683077819	 1.771235232	 0.06692
H	-2.1260833711	 0.0547464814	 0.2657914661	 0.105576
H	-1.5941243192	-1.0309867502	-1.0544634224	 0.094205
H	-0.8520105667	-3.8020112811	 0.6794320073	 0.081545
H	 1.1035263112	-3.9441720672	-0.6254887546	 0.084209
H	 2.4836389677	-1.7309308323	 0.1314998016	 0.11478
H	 2.2774086798	-2.1133929558	-1.5509201513	 0.10155
H	 0.6608033484	-0.4039892172	-1.9188257572	 0.109137
H	 1.9269339619	 0.286988618	-0.9220534315	 0.078717
148.9805	189.6886	272.2993	292.6535	328.2972	342.7156	411.5115	428.0198	477.2749	540.2963	620.1186	689.8257	739.0952	799.7619	831.2004	845.4017	868.0847	891.7437	939.4633	953.012	975.4763	1000.0514	1012.2138	1070.5145	1085.1906	1088.0281	1129.4536	1146.5569	1181.1107	1206.1804	1241.3233	1250.2184	1258.8662	1270.837	1288.3169	1356.9396	1365.8562	1383.1741	1395.8783	1422.2318	1463.3547	1478.5026	1481.0188	1502.229	1718.246	2996.0986	3006.1941	3048.3263	3058.1857	3062.1587	3063.2086	3085.6786	3119.3777	3123.1112	3135.6197	3159.9757	3798.2612
OC12CC(C1)C=CCC2	O[C@@]12C[C@@H](C1)C=CCC2	
InChI=1S/C8H12O/c9-8-4-2-1-3-7(5-8)6-8/h1,3,7,9H,2,4-6H2	InChI=1S/C8H12O/c9-8-4-2-1-3-7(5-8)6-8/h1,3,7,9H,2,4-6H2/t7-,8-
