13
gdb 21929	3.51703	1.76767	1.18508	3.0578	55.62	-0.2519	0.002	0.254	926.8498	0.095504	-435.720906	-435.713554	-435.71261	-435.75321	26.136	
O	-0.0455280314	 1.4537846695	 0.0613763431	-0.420785
C	 0.030407717	 0.0398154605	-0.0035190959	-0.196195
C	-1.3631476916	-0.4929391153	-0.0052212802	 0.072699
C	-2.5411459108	 0.1775304003	 0.0454179247	 0.022379
O	-3.5833954553	-0.6695357669	 0.0232846789	-0.178129
N	-3.0984143375	-1.9771709258	-0.0454441138	-0.255028
C	-1.7946716959	-1.8497011286	-0.0610623344	 0.378154
O	-0.9686482151	-2.9082440662	-0.123883669	-0.419658
H	 0.8500676031	 1.8028919682	 0.0624160269	 0.29493
H	 0.5577528208	-0.2963781889	-0.9112529553	 0.111206
H	 0.5859766109	-0.3757133486	 0.8531067567	 0.111198
H	-2.7765637802	 1.227927146	 0.0980019499	 0.166098
H	-1.5147112539	-3.7054791242	-0.1519960517	 0.31313
48.6691	160.0625	217.0059	254.8315	324.1153	334.5766	455.0073	538.2497	591.9996	641.8506	724.8231	781.3519	855.3077	924.0541	958.1844	1050.791	1080.0706	1151.1147	1206.3684	1225.4659	1242.7832	1253.0098	1310.2998	1470.737	1500.6587	1518.7301	1563.0862	1688.8907	2964.3855	2981.0845	3282.8441	3779.96	3841.1222
OCC1=CON=C1O	OCc1conc1O	
InChI=1S/C4H5NO3/c6-1-3-2-8-5-4(3)7/h2,6H,1H2,(H,5,7)	InChI=1S/C4H5NO3/c6-1-3-2-8-5-4(3)7/h2,6H,1H2,(H,5,7)
