15
gdb 77301	3.94183	0.88	0.7507	2.4792	64.4	-0.2667	-0.0504	0.2162	1409.7271	0.109146	-494.914476	-494.905397	-494.904452	-494.949657	31.157	
O	 0.1035652294	 1.3391783985	 0.3759366235	-0.431361
C	-0.0381627262	-0.0165533764	 0.0955950045	 0.035756
C	-1.4523608822	-0.6580840914	-0.0990343238	 0.079226
C	-0.9032645503	-1.5087598716	-1.2784121647	-0.381245
C	 0.261219169	-0.5122465362	-1.3222906908	 0.342206
O	 0.9625384545	-0.0617419994	-2.1826142236	-0.295627
O	-1.9374323578	-1.4088756035	 0.9980513101	-0.189249
C	-3.0718802242	-0.9989454754	 1.6106122788	 0.167352
O	-3.5258753938	-1.5617483219	 2.5576573051	-0.264347
H	 0.4751153532	 1.7589931617	-0.4103142613	 0.302772
H	 0.4939156912	-0.6317191031	 0.8378136883	 0.128462
H	-2.1832462347	 0.0895437942	-0.4241107615	 0.111078
H	-0.5912246198	-2.5001093859	-0.935728152	 0.159189
H	-1.5088853417	-1.6057063198	-2.1799582599	 0.147143
H	-3.5168192065	-0.1053606298	 1.1325303972	 0.088644
38.2375	74.3796	139.4747	163.6942	186.1418	243.7788	314.749	338.2014	376.1873	471.1086	591.1232	627.3019	727.2931	768.0046	861.9522	919.8245	991.8266	1040.2313	1054.2039	1099.9147	1110.7234	1164.9852	1173.7302	1193.1375	1212.4521	1248.4896	1334.651	1388.7203	1392.6481	1434.4974	1448.3469	1874.1649	1890.0872	2958.6292	3000.7578	3063.5289	3072.8496	3143.7909	3775.5338
OC1C(CC1=O)OC=O	O[C@H]1[C@@H](CC1=O)OC=O	
InChI=1S/C5H6O4/c6-2-9-4-1-3(7)5(4)8/h2,4-5,8H,1H2	InChI=1S/C5H6O4/c6-2-9-4-1-3(7)5(4)8/h2,4-5,8H,1H2/t4-,5-/m1/s1
