23
gdb 120661	4.49796	0.75222	0.71066	1.0562	88.04	-0.2477	0.0846	0.3324	1701.378	0.204815	-388.253447	-388.243605	-388.242661	-388.289041	36.007	
C	-0.459902476	 1.3629496409	-0.2015584269	-0.22339
O	-0.4143720659	-0.0388467126	-0.2948785635	-0.228304
C	 0.7908944158	-0.5090374422	-0.8664292532	-0.071114
C	 0.7746477022	-2.0122242756	-0.8891254843	-0.096461
C	 0.0517058862	-2.7441159494	-1.9984566766	-0.338885
C	 1.5521663161	-2.7641721684	-1.9305271962	 0.366272
C	 2.5031470277	-2.2352748169	-3.018345293	-0.289569
C	 3.1409737095	-3.6549432573	-3.0792436204	-0.206623
C	 2.4161066416	-4.0206064953	-1.7502774772	-0.292014
H	 0.3556663533	 1.760825723	 0.4244190065	 0.099695
H	-0.3920397752	 1.8437498006	-1.1913361984	 0.099348
H	-1.4161772311	 1.6316548037	 0.2543682862	 0.124697
H	 0.9085975459	-0.1128846914	-1.8902842765	 0.080218
H	 1.6523380021	-0.1397573733	-0.2816290724	 0.080965
H	 0.7288179168	-2.467812825	 0.0973725259	 0.084201
H	-0.4909947124	-3.6496705046	-1.7457838687	 0.107687
H	-0.4179865348	-2.1429319967	-2.7718768074	 0.109131
H	 2.0466896044	-1.8579040235	-3.9374162604	 0.097682
H	 3.2025185623	-1.4799483125	-2.6443205899	 0.098466
H	 2.7694057501	-4.237212717	-3.925890954	 0.104979
H	 4.2318396426	-3.7049614487	-3.0757930018	 0.096853
H	 3.0782012405	-3.9560028523	-0.8803240371	 0.098485
H	 1.8932361982	-4.9805038555	-1.7170759009	 0.097682
55.7063	78.7789	96.162	112.4448	193.5229	237.183	273.5598	305.399	369.0744	412.574	474.6613	608.0203	702.8625	790.7387	839.0948	872.0762	883.3489	911.8107	926.2069	938.8876	961.1798	974.6609	1033.6209	1059.1676	1084.5057	1096.3797	1139.937	1151.5009	1174.5547	1190.2076	1193.8219	1216.8266	1227.9136	1232.291	1254.7329	1267.4193	1275.0447	1285.6383	1327.7774	1397.8242	1443.0394	1476.5201	1478.9247	1481.0093	1485.0501	1494.1131	1503.1205	1506.6396	1524.9321	2937.8447	2962.8715	2965.6339	3002.4031	3039.8842	3043.7538	3065.67	3088.2255	3092.2876	3110.1756	3116.6084	3121.3535	3134.588	3201.444
COCC1CC11CCC1	COC[C@H]1CC21CCC2	
InChI=1S/C8H14O/c1-9-6-7-5-8(7)3-2-4-8/h7H,2-6H2,1H3	InChI=1S/C8H14O/c1-9-6-7-5-8(7)3-2-4-8/h7H,2-6H2,1H3/t7-/m1/s1
