20
gdb 14276	2.80149	2.51229	1.76325	1.555	73.2	-0.2379	0.0798	0.3177	838.1026	0.18083	-349.008921	-349.002282	-349.001338	-349.039234	27.557	
C	-0.0176151139	 1.6384546035	 0.1187689642	-0.277021
C	 1.494313519	 1.3726690156	-0.0499621686	 0.122573
C	 2.3223433701	 1.3368235107	 1.240615992	-0.216275
C	 2.0341037407	 0.1142183505	 2.133520391	-0.176503
C	 0.5502650783	-0.1431731641	 2.4517738286	-0.202385
C	-0.2793021151	-0.682446149	 1.2705039953	-0.198711
C	-0.1417542414	 0.1082959858	-0.0278902295	 0.122727
O	 1.2162979147	 0.0352852917	-0.544331039	-0.295341
H	-0.3562959564	 2.0946181835	 1.0505177717	 0.100541
H	-0.4452429875	 2.1798435636	-0.7268916881	 0.104351
H	 1.9950018436	 1.9771925726	-0.8142383767	 0.071886
H	 3.389169759	 1.3360155994	 0.9873685131	 0.098564
H	 2.1372451193	 2.2690540447	 1.7918878958	 0.09356
H	 2.4484806094	-0.7756032713	 1.6472260399	 0.110154
H	 2.5838729501	 0.2430490103	 3.0731012643	 0.08691
H	 0.4865922476	-0.8717160262	 3.2684534442	 0.093835
H	 0.0942715951	 0.776283075	 2.8420979805	 0.093236
H	 0.0243782035	-1.7144224745	 1.0521087786	 0.106275
H	-1.339588981	-0.7214127898	 1.5538508804	 0.090146
H	-0.8588149549	-0.2522755922	-0.7741003179	 0.071478
186.8807	262.2552	301.5522	349.0502	364.2943	393.4255	548.1257	574.2458	751.4404	783.3789	797.5409	840.9325	869.573	903.9367	918.1145	942.948	956.0471	967.1088	1024.4544	1055.138	1084.4497	1089.8058	1139.0325	1143.1696	1163.9335	1218.9156	1232.9237	1261.522	1286.1259	1297.4797	1332.8328	1357.127	1367.7578	1373.0092	1391.4772	1397.0334	1402.1652	1466.2081	1477.5094	1484.4345	1489.5452	1506.7558	3013.0384	3013.6831	3019.0304	3032.5481	3038.7159	3041.1015	3052.1337	3058.5475	3062.8394	3077.626	3081.296	3131.0814
C1C2CCCCC1O2	C1[C@H]2CCCC[C@@H]1O2	
InChI=1S/C7H12O/c1-2-4-7-5-6(3-1)8-7/h6-7H,1-5H2	InChI=1S/C7H12O/c1-2-4-7-5-6(3-1)8-7/h6-7H,1-5H2/t6-,7+
