16
gdb 29632	2.41428	1.95159	1.08763	4.0879	75.27	-0.2183	-0.0233	0.195	1049.0147	0.126961	-434.148292	-434.14046	-434.139516	-434.180378	30.111	
C	-0.0572085431	 1.4573366409	 0.0124472611	-0.376013
N	 0.0000202491	-0.0011986307	 0.0198221952	-0.184398
C	 0.0149034984	-0.665628242	-1.2564385395	 0.421059
O	 0.0174270504	-0.0046863259	-2.2808493278	-0.404821
C	 0.0174903303	-2.0972200171	-1.1403133571	-0.246708
C	 0.0152781032	-2.6831985894	 0.0883189312	 0.011623
N	 0.0228292417	-2.0132978495	 1.2703215023	-0.375262
C	 0.010142269	-0.7035958195	 1.1902372521	 0.498402
N	-0.0500587231	 0.0082552342	 2.3612272813	-0.568601
H	 0.8691989489	 1.8926906368	 0.4054517128	 0.131541
H	-0.1721814064	 1.7588934521	-1.0274741167	 0.188487
H	-0.9057165425	 1.8089273923	 0.6058715056	 0.144165
H	 0.0202783771	-2.6693635694	-2.0578986253	 0.111583
H	 0.0156215637	-3.7668594958	 0.1782021672	 0.113256
H	 0.1225040425	-0.5670162331	 3.1718499502	 0.272221
H	 0.3522456809	 0.9303821561	 2.3936820475	 0.263466
111.2591	190.9349	209.5178	240.4801	361.4538	383.4155	411.8685	460.1386	498.5186	548.7809	574.5555	576.5918	707.7659	725.3836	789.9833	841.0493	853.8248	961.8854	1009.3281	1053.062	1110.151	1152.8477	1184.3994	1216.9192	1241.5077	1337.5551	1406.7341	1443.1098	1492.4459	1502.1186	1516.0539	1566.2771	1631.4185	1650.0592	1780.8855	3029.0704	3098.4348	3159.4331	3169.6258	3230.8153	3591.5392	3708.2755
CN1C(=O)C=CN=C1N	Cn1c(=O)ccnc1N	
InChI=1S/C5H7N3O/c1-8-4(9)2-3-7-5(8)6/h2-3H,1H3,(H2,6,7)	InChI=1S/C5H7N3O/c1-8-4(9)2-3-7-5(8)6/h2-3H,1H3,(H2,6,7)
