19
gdb 90250	3.61243	1.40829	1.33825	1.331	75.31	-0.2439	0.0529	0.2968	1013.9619	0.16069	-422.911134	-422.903959	-422.903015	-422.942292	29.937	
O	-0.1119165032	 1.4564665526	 0.0004440886	-0.447457
C	-0.0018686747	 0.0411042486	 0.0466091697	 0.145345
C	 0.3957080493	-0.5454122115	 1.432438592	-0.267949
C	-0.8890405569	-1.3389391983	 1.7986026311	 0.222507
C	-0.5156599323	-2.7850234013	 2.2328986959	-0.201249
O	-0.2882773178	-3.1044427709	 0.7999525984	-0.328153
C	-1.2538265125	-2.0190527265	 0.5248973942	 0.145793
C	-1.3899478435	-0.574342859	-0.0692087126	-0.112744
C	-1.9989378218	-0.2955095891	 1.4060739551	-0.32551
H	 0.7697469258	 1.8259103743	 0.1089373113	 0.282622
H	 0.662901505	-0.3146544021	-0.7517465861	 0.073344
H	 1.2740417988	-1.1899557709	 1.3717611224	 0.109364
H	 0.5870990456	 0.2548535873	 2.1544476642	 0.091754
H	 0.3927344347	-2.9318060276	 2.8231373479	 0.113044
H	-1.3420216667	-3.3849766575	 2.6308947452	 0.108577
H	-2.2489138691	-2.4804602432	 0.534173083	 0.082126
H	-1.9643562019	-0.3564887703	-0.97033954	 0.075659
H	-3.0227784767	-0.6545959422	 1.5092422488	 0.110976
H	-1.9008562823	 0.7306834674	 1.7637494908	 0.121951
143.4917	260.3034	280.714	319.2761	325.751	441.0051	467.4459	507.079	621.58	645.0147	730.0571	780.4338	795.2958	848.8187	867.0172	887.9364	914.6643	954.6757	966.2562	1003.1246	1007.8585	1021.5785	1071.9125	1084.5968	1120.68	1132.8719	1155.7697	1190.6187	1196.4583	1228.5264	1241.3667	1257.223	1266.0526	1298.1487	1327.5982	1342.055	1408.049	1432.9664	1471.3968	1493.9961	1505.4366	3008.2517	3020.2762	3033.9967	3054.1738	3083.9508	3104.6301	3115.2322	3121.0516	3156.1209	3822.0328
OC1CC23COC2C1C3	O[C@H]1C[C@]23CO[C@@H]2[C@H]1C3	
InChI=1S/C7H10O2/c8-5-2-7-1-4(5)6(7)9-3-7/h4-6,8H,1-3H2	InChI=1S/C7H10O2/c8-5-2-7-1-4(5)6(7)9-3-7/h4-6,8H,1-3H2/t4-,5-,6+,7+/m0/s1
