17
gdb 51607	5.59968	0.6106	0.59349	0.9624	71.7	-0.2585	-0.0366	0.2219	1796.1136	0.131908	-458.952687	-458.943002	-458.942058	-458.98966	32.396	
O	-0.7027044654	 0.5288492967	 0.2585574314	-0.230668
C	-0.0329483009	 1.5240224838	 0.1718038048	 0.160609
C	 1.393173449	 1.5538196285	-0.3548182597	-0.314442
C	 1.5515931777	 2.5935508244	-1.4427959521	 0.043975
O	 1.5100545452	 3.9699305919	-1.0445506942	-0.257502
C	 2.7246548645	 3.4693952193	-1.6180357999	 0.043979
C	 3.9553682733	 3.4668810359	-0.737508968	-0.314498
C	 4.4607313183	 4.8807645556	-0.4975582147	 0.160649
O	 5.5953047444	 5.2351844968	-0.6808963775	-0.230668
H	-0.423183774	 2.5172446759	 0.4845721771	 0.099449
H	 2.0463814387	 1.7916325596	 0.4929898379	 0.126375
H	 1.6497733642	 0.557346395	-0.7265996316	 0.132341
H	 0.9681303352	 2.3862296663	-2.3418537199	 0.111132
H	 2.9059304661	 3.8329459895	-2.6312864644	 0.111148
H	 3.7177846954	 3.0372101537	 0.2427629792	 0.126324
H	 4.7593759959	 2.8803834725	-1.1920463027	 0.132332
H	 3.6842131624	 5.5842817545	-0.1251964455	 0.099463
39.2316	52.8328	68.7686	70.0738	150.5023	191.4381	251.3753	394.2838	455.1503	489.7066	499.2619	534.7966	778.0655	782.6908	828.7015	867.7919	932.2426	994.0899	1019.7895	1052.0685	1092.1435	1107.66	1152.0391	1166.175	1224.9542	1237.7059	1284.2229	1285.1654	1313.957	1403.4795	1422.5081	1423.6971	1440.3806	1451.516	1479.3015	1835.366	1838.8191	2898.3397	2899.494	3041.3876	3046.7299	3085.8417	3096.6135	3107.8785	3112.7165
O=CCC1OC1CC=O	O=CC[C@H]1O[C@H]1CC=O	
InChI=1S/C6H8O3/c7-3-1-5-6(9-5)2-4-8/h3-6H,1-2H2	InChI=1S/C6H8O3/c7-3-1-5-6(9-5)2-4-8/h3-6H,1-2H2/t5-,6+
