18
gdb 22199	2.14522	0.90923	0.68507	3.3687	72.49	-0.245	-0.0315	0.2135	1605.4877	0.143926	-476.181713	-476.17126	-476.170316	-476.218679	35.903	
O	-0.0477722361	 1.3027364854	-0.0242639434	-0.424079
C	 0.1588937206	-0.1022900902	-0.049361272	-0.081079
C	-1.2201898932	-0.7441248004	 0.0314578766	-0.253944
C	-1.2321367112	-2.2477910686	 0.0248733814	 0.315962
C	-2.5762868796	-2.945689566	 0.0173306707	-0.359316
C	-2.9544036944	-3.3570196789	-1.4005727919	 0.157609
O	-3.9354975018	-2.9654327285	-1.9757892627	-0.231048
N	-0.1102782017	-2.8592723408	 0.0001571154	-0.159621
O	-0.2685024847	-4.25600537	-0.0227262	-0.405134
H	 0.8109235088	 1.7315346629	-0.0777902323	 0.287683
H	 0.6659917913	-0.42343017	-0.9703013763	 0.100447
H	 0.7773191067	-0.4382651024	 0.7946658577	 0.101409
H	-1.7264688105	-0.3875805858	 0.9388467801	 0.1294
H	-1.8351938512	-0.3811102684	-0.8033281568	 0.13664
H	-2.5037860929	-3.8563174932	 0.6226241487	 0.148817
H	-3.3598560543	-2.2942715509	 0.4089025719	 0.124813
H	-2.2340514398	-4.0531458828	-1.8775701781	 0.101503
H	 0.6432201741	-4.5652387012	-0.0001063792	 0.309939
36.1825	77.7963	90.9334	104.3424	154.4976	208.3918	258.7542	295.8231	301.178	373.3216	400.1966	414.3737	505.0873	581.5496	663.6484	791.0263	804.7827	897.246	984.176	994.0271	1033.4358	1060.0042	1078.8844	1096.1085	1157.1747	1217.6244	1229.3756	1257.1309	1283.0338	1307.0686	1357.0863	1410.3274	1419.4662	1455.861	1462.9325	1477.125	1523.3124	1723.057	1831.1148	2926.1634	2997.1118	3021.4045	3024.1547	3049.3755	3054.6713	3127.5014	3822.8411	3835.5935
OCCC(CC=O)=NO	OCCC(=NO)CC=O	
InChI=1S/C5H9NO3/c7-3-1-5(6-9)2-4-8/h3,8-9H,1-2,4H2	InChI=1S/C5H9NO3/c7-3-1-5(6-9)2-4-8/h3,8-9H,1-2,4H2
