20
gdb 59702	2.35763	1.2662	0.98602	3.0482	77.03	-0.2489	0.0142	0.2631	1266.6865	0.170268	-440.297915	-440.288428	-440.287484	-440.332563	34.583	
C	 0.2619298886	 1.4983391879	 0.1510492144	-0.412118
C	 0.0676591002	-0.0126818098	 0.0165382062	 0.119026
O	 0.8260608141	-0.7225790066	 0.9844127989	-0.432885
C	-1.4064988769	-0.4351113648	 0.0690792664	 0.020145
C	-1.6697076139	-1.9702989015	 0.0616051369	-0.265171
C	-2.2937524643	-1.8290333245	 1.4759850105	-0.165623
N	-1.9971609843	-0.3870725058	 1.4294098588	-0.069911
C	-2.726924424	 0.5889937958	 2.0347046534	 0.122501
O	-3.4917457923	 0.3986847791	 2.9560342362	-0.32051
H	 1.3264492358	 1.7414818845	 0.1071465713	 0.131862
H	-0.2534549621	 2.0403137703	-0.6489051306	 0.115624
H	-0.1270917857	 1.8584665054	 1.1104342355	 0.119579
H	 0.4611137611	-0.3414448899	-0.9538997192	 0.095128
H	 0.4450184349	-0.5076162064	 1.8451767211	 0.285228
H	-1.9866916046	 0.1306320973	-0.6696818139	 0.085691
H	-2.3607385841	-2.3089092978	-0.7103339048	 0.114246
H	-0.7554245926	-2.561861441	 0.0305137437	 0.132022
H	-3.3662090745	-2.0293599681	 1.5521092374	 0.130169
H	-1.776813968	-2.3581737799	 2.281105819	 0.122639
H	-2.5336493874	 1.5903499359	 1.5984815987	 0.07236
70.7161	98.1912	104.9422	190.4005	234.4872	256.3936	263.9712	329.9049	353.3697	398.1333	461.8542	550.3522	664.7743	719.3373	798.9568	831.6022	904.4471	922.1908	958.5358	1005.3644	1033.8206	1042.4762	1050.1606	1104.8327	1129.0486	1168.5821	1178.3247	1221.0631	1251.7111	1268.9269	1291.9447	1313.752	1345.7414	1366.9434	1376.3415	1404.281	1420.8648	1427.945	1480.9211	1491.0731	1499.1636	1520.1578	1791.2071	2927.4949	3028.854	3034.7544	3039.1459	3056.0272	3096.5629	3100.5473	3101.9733	3123.1809	3158.2572	3775.0703
CC(O)C1CCN1C=O	C[C@@H](O)[C@H]1CCN1C=O	
InChI=1S/C6H11NO2/c1-5(9)6-2-3-7(6)4-8/h4-6,9H,2-3H2,1H3	InChI=1S/C6H11NO2/c1-5(9)6-2-3-7(6)4-8/h4-6,9H,2-3H2,1H3/t5-,6-/m1/s1
