17
gdb 121786	2.35102	0.92674	0.75772	4.8075	75.53	-0.2514	0.0056	0.257	1509.5698	0.13401	-417.955077	-417.944998	-417.944053	-417.990994	35.22	
O	 0.1447885072	 1.0659731716	-0.9765605289	-0.420213
C	-0.2059088325	 0.3808691534	 0.219956052	-0.089223
C	-1.6937767871	 0.0805588351	 0.141199877	-0.12547
N	-1.942546534	-0.8042062331	-0.9955871513	-0.281549
C	-3.3578393354	-1.0722174189	-1.2432966458	-0.288141
C	-4.1711581727	 0.1020555055	-1.6124116508	 0.345084
C	-4.7895080786	 1.0917802278	-1.896583473	-0.45032
C	-3.4780349179	-2.1177740042	-2.2801542959	 0.300756
N	-3.572611844	-2.9355086576	-3.0894260934	-0.317247
H	 1.1029644548	 1.0899529018	-1.0473977857	 0.295115
H	 0.3507206462	-0.5619354585	 0.3161581539	 0.10515
H	-0.0038944619	 0.9965712533	 1.1092250787	 0.094713
H	-2.0088974617	-0.4245288632	 1.0627558882	 0.105873
H	-2.2473036556	 1.0309415944	 0.0731836817	 0.11117
H	-1.5220445903	-0.3861493743	-1.8208431376	 0.245801
H	-3.7728783638	-1.499485684	-0.3188232789	 0.156734
H	-5.3437897427	 1.9604460108	-2.1557683704	 0.211767
51.413	75.5033	115.4379	129.7614	183.2619	228.9435	244.708	291.8863	328.6113	365.4699	486.3918	506.4453	576.5121	624.8263	654.7858	674.4124	790.945	870.9616	898.4642	950.2574	1017.7762	1069.3011	1096.6378	1131.7007	1147.5777	1219.3397	1264.1763	1295.4424	1307.3524	1331.4218	1397.7453	1457.4403	1491.7766	1503.0288	1513.1084	2233.8049	2370.9083	2979.2527	2987.9796	3010.2029	3031.2792	3053.1845	3500.3199	3521.8865	3842.1305
OCCNC(C#C)C#N	OCCN[C@@H](C#C)C#N	
InChI=1S/C6H8N2O/c1-2-6(5-7)8-3-4-9/h1,6,8-9H,3-4H2	InChI=1S/C6H8N2O/c1-2-6(5-7)8-3-4-9/h1,6,8-9H,3-4H2/t6-/m0/s1
