16
gdb 12274	4.11313	1.41889	1.1461	2.0023	61.27	-0.2558	-0.0386	0.2172	1015.7032	0.129219	-420.871899	-420.863555	-420.862611	-420.905036	29.773	
O	 0.0762415777	 1.2943152498	 0.303982351	-0.420047
C	 0.014001452	-0.0529280945	-0.1142767236	-0.078032
C	-1.4267573467	-0.5659830072	-0.0885290431	-0.114919
C	-1.7362281803	-2.0969078432	-0.1212328172	-0.313085
C	-2.7709974845	-1.9067590715	 1.0548875188	 0.081049
O	-2.9050655924	-2.8283274075	 2.088469242	-0.426026
C	-2.0449446372	-0.586739288	 1.3126201597	 0.331309
O	-1.7514208919	-0.0140496946	 2.3317321359	-0.330948
H	-0.2726000432	 1.3175754834	 1.2047177228	 0.29767
H	 0.4222627603	-0.0924856873	-1.1293317166	 0.115121
H	 0.6399261138	-0.7050820108	 0.5168125056	 0.087457
H	-2.0428412653	-0.0026709712	-0.796066751	 0.113571
H	-2.1350766908	-2.5099960583	-1.0472112196	 0.120944
H	-0.8776403139	-2.68783225	 0.2094728805	 0.119458
H	-3.7625127836	-1.723139006	 0.6228055825	 0.120858
H	-2.259946554	-2.606726713	 2.7704766225	 0.295619
82.9793	106.1895	128.2451	183.7412	252.7112	290.7722	373.0552	390.6546	520.3306	581.1631	585.5257	706.3362	786.2085	848.9045	913.7919	959.6526	1006.4542	1031.1407	1055.8434	1081.4589	1119.0718	1159.6058	1168.9856	1209.6246	1246.9959	1258.2103	1320.0465	1335.5449	1386.9718	1420.3982	1442.345	1482.5648	1508.5833	1844.0078	2969.7187	3041.3257	3066.6342	3072.8	3078.8766	3145.6414	3766.8692	3790.7553
OCC1CC(O)C1=O	OC[C@H]1C[C@@H](O)C1=O	
InChI=1S/C5H8O3/c6-2-3-1-4(7)5(3)8/h3-4,6-7H,1-2H2	InChI=1S/C5H8O3/c6-2-3-1-4(7)5(3)8/h3-4,6-7H,1-2H2/t3-,4-/m1/s1
