27
gdb 118116	3.03102	0.74021	0.66989	0.1114	97.	-0.2609	0.0863	0.3472	1874.5965	0.250477	-353.559971	-353.548527	-353.547583	-353.596998	42.192	
C	 2.5051581102	-2.1894711266	-0.8892982883	-0.378272
C	 1.2894668868	-2.7971014675	-1.5957595791	-0.17712
C	 0.0252909112	-2.7709138427	-0.7281804713	-0.152957
C	-1.254116196	-3.2931359192	-1.4123226027	 0.003535
C	-1.1633972605	-4.7867910123	-1.7645626142	-0.396039
C	-2.4630897488	-3.0306419321	-0.5279290043	 0.022795
C	-3.1234248546	-1.6732519828	-0.4715836114	-0.311108
C	-3.8706199843	-2.849793748	-1.0560037935	-0.005896
C	-4.2218213611	-2.89377142	-2.5280365573	-0.407391
H	 3.3945209485	-2.2169395904	-1.5269277208	 0.108695
H	 2.3232264411	-1.1441028271	-0.6155931836	 0.112322
H	 2.7398027094	-2.7340222148	 0.0322651909	 0.112592
H	 1.0983364744	-2.2500896301	-2.5291167318	 0.090984
H	 1.5237367882	-3.8269954652	-1.8901240033	 0.097261
H	 0.202394534	-3.3516149074	 0.1891183168	 0.085202
H	-0.1558761134	-1.7388852987	-0.4003096856	 0.09246
H	-1.3785427541	-2.7291318131	-2.3467925514	 0.063762
H	-1.0099922663	-5.3889939029	-0.8605977454	 0.108686
H	-2.0855050971	-5.1341584524	-2.2401347065	 0.115055
H	-0.3363020055	-4.9981898335	-2.4484522121	 0.111263
H	-2.4048814225	-3.55497557	 0.4251668077	 0.072625
H	-3.4313521101	-1.2708878075	 0.4876270223	 0.104364
H	-2.7682786845	-0.9208249646	-1.1708310473	 0.10338
H	-4.646851813	-3.2656810819	-0.4177117848	 0.078014
H	-5.1466245847	-2.3381578677	-2.720578928	 0.114005
H	-3.4406047236	-2.4474730363	-3.1499737183	 0.116748
H	-4.3766697638	-3.921411015	-2.8761169968	 0.115035
53.8772	70.3277	98.5306	114.0778	189.7893	196.3215	219.0477	239.2071	251.8491	318.1766	353.9711	380.8919	383.1555	485.1932	556.2395	742.2835	766.1923	801.7144	853.1867	856.3302	873.1761	911.8054	932.5139	950.2221	998.3845	1013.1038	1038.6266	1051.4647	1068.8192	1089.2928	1113.1973	1142.477	1152.4481	1181.0861	1199.2916	1201.9295	1247.1335	1263.462	1289.3475	1326.5581	1331.4413	1357.5219	1390.1769	1397.8019	1407.8684	1412.7757	1417.621	1431.9155	1479.8027	1491.9129	1493.1415	1493.7542	1497.1606	1499.0158	1502.1465	1507.9012	1511.149	2999.3186	3008.8925	3017.4456	3027.6632	3028.0753	3028.7936	3036.4283	3059.7941	3082.9622	3094.0271	3094.9795	3099.2811	3101.3851	3108.3468	3109.4272	3118.303	3132.0994	3201.7748
CCCC(C)C1CC1C	CCC[C@@H](C)[C@H]1C[C@H]1C	
InChI=1S/C9H18/c1-4-5-7(2)9-6-8(9)3/h7-9H,4-6H2,1-3H3	InChI=1S/C9H18/c1-4-5-7(2)9-6-8(9)3/h7-9H,4-6H2,1-3H3/t7-,8-,9-/m1/s1
