19
gdb 56835	3.08716	1.15486	0.99139	2.9341	80.36	-0.2678	0.0275	0.2953	1241.5571	0.16132	-382.021152	-382.012886	-382.011942	-382.054664	31.552	
N	 0.0169987076	 1.4255886859	-0.0229521534	-0.495931
C	 0.0611765771	-0.0365126319	-0.1327748809	-0.198674
C	 0.7908296801	-0.509237242	-1.3327212018	 0.26069
N	 1.3751614843	-0.8378130814	-2.2753324007	-0.329766
C	 0.7074397966	-0.6247078967	 1.1248103956	 0.095704
C	-0.0649301311	-0.6537919308	 2.4796639824	-0.057464
C	-0.8972603698	-1.8531354458	 1.935878461	-0.22932
C	 0.5719911627	-2.1336323383	 1.4993266386	-0.059841
C	 0.9849538926	-1.7091451946	 2.940376692	-0.223097
H	 0.9637668543	 1.793576497	 0.0220297605	 0.239322
H	-0.404711005	 1.8255466936	-0.8563014259	 0.2435
H	-0.9708111273	-0.3854821218	-0.2306915472	 0.128321
H	 1.7322393077	-0.2408133568	 1.2009038051	 0.072839
H	-0.4284246131	 0.2081315055	 3.0383679371	 0.084223
H	-1.3087904318	-2.5295403751	 2.689196543	 0.097074
H	-1.6386308681	-1.6577181254	 1.1591257447	 0.095307
H	 0.9462003337	-2.9840440601	 0.9286964937	 0.087093
H	 2.0115698136	-1.3583502491	 3.0762857065	 0.094284
H	 0.677398496	-2.3776098325	 3.7478492898	 0.095736
43.3467	112.4356	198.5921	212.5129	265.3535	327.8038	405.2485	461.8265	569.3354	594.011	604.4922	775.0552	805.4495	858.2879	884.8347	899.6596	905.242	906.8026	961.148	1005.0929	1012.4415	1033.2327	1051.2429	1090.0326	1109.6124	1117.5187	1142.907	1157.165	1189.3763	1196.8113	1215.2462	1245.3024	1249.5438	1269.0293	1307.5357	1388.3936	1423.6424	1507.1003	1546.3016	1662.6428	2340.9701	3029.3871	3054.4364	3063.3338	3076.3379	3112.0632	3120.2386	3122.1298	3123.7524	3488.8063	3568.0539
NC(C#N)C1C2CC1C2	N[C@@H](C#N)[C@H]1[C@H]2C[C@@H]1C2	
InChI=1S/C7H10N2/c8-3-6(9)7-4-1-5(7)2-4/h4-7H,1-2,9H2	InChI=1S/C7H10N2/c8-3-6(9)7-4-1-5(7)2-4/h4-7H,1-2,9H2/t4-,5+,6-,7-/m0/s1
