20
gdb 109468	2.1086	1.57934	0.95757	3.2687	82.03	-0.2067	0.0021	0.2088	1259.372	0.170621	-403.209392	-403.199942	-403.198998	-403.243661	34.98	
C	-0.0868683834	 1.5815190911	 0.0294963072	-0.388781
C	-0.0244376625	 0.0515218234	 0.0130361544	-0.180048
C	 0.7183324241	-0.5258133554	-1.213576306	-0.230786
C	 2.2341802023	-0.2316687266	-1.1717303649	 0.425082
O	 2.7979904094	 0.8361626968	-1.0623690727	-0.378685
N	 2.8517932866	-1.4611099867	-1.2687454885	-0.32691
C	 1.9126006795	-2.5025403782	-1.3661792724	-0.126736
C	 0.6584118306	-2.0377368652	-1.3440670146	 0.265029
C	-0.6031702817	-2.8286018627	-1.4517565173	-0.49579
H	 0.9158257188	 2.0119852171	-0.0018708216	 0.156842
H	-0.6405564903	 1.958463358	-0.8380473071	 0.108194
H	-0.5964405802	 1.9370699768	 0.9305386274	 0.105393
H	 0.4612308092	-0.3174241828	 0.9247903421	 0.104024
H	-1.0407793056	-0.3597757432	 0.0196338777	 0.097485
H	 0.3129218656	-0.0446103647	-2.1159475565	 0.108827
H	 3.851834768	-1.568619732	-1.2418397418	 0.257688
H	 2.2580599182	-3.5231506484	-1.4576686323	 0.123071
H	-0.3899475209	-3.8956986835	-1.5655672796	 0.122407
H	-1.2402591091	-2.7101188669	-0.5662219789	 0.128889
H	-1.2054990786	-2.5143628269	-2.3142410547	 0.124805
66.8547	111.1135	167.8315	184.6712	218.4913	260.8831	274.0461	282.3306	367.3247	470.9865	509.4846	541.5109	572.1127	704.435	750.7926	763.2724	838.9459	871.1173	881.2311	964.0573	1004.3454	1041.2195	1061.2569	1089.9824	1107.276	1120.6426	1189.718	1210.535	1258.3385	1290.6047	1329.0378	1353.3022	1362.8771	1402.3007	1411.1053	1421.8409	1477.0162	1488.9056	1494.8858	1497.0358	1514.5059	1715.4608	1818.3436	3004.502	3013.1132	3027.0171	3034.9344	3055.9973	3061.9255	3097.7839	3101.3992	3140.159	3229.584	3665.5031
CCC1C(=O)NC=C1C	CC[C@H]1C(=O)NC=C1C	
InChI=1S/C7H11NO/c1-3-6-5(2)4-8-7(6)9/h4,6H,3H2,1-2H3,(H,8,9)	InChI=1S/C7H11NO/c1-3-6-5(2)4-8-7(6)9/h4,6H,3H2,1-2H3,(H,8,9)/t6-/m1/s1
