16
gdb 77187	3.00243	1.24691	1.02923	2.0519	66.38	-0.2711	0.0122	0.2833	1160.4674	0.123153	-474.983487	-474.974993	-474.974049	-475.017387	30.379	
O	 0.3574709277	 1.0490463683	 0.3811457958	-0.430396
C	 0.1024377347	-0.2728466868	-0.0130567112	-0.023051
C	-1.3991610583	-0.607826613	-0.1895838366	 0.080278
O	-1.1548814391	-0.9316374034	-1.6012789858	-0.266489
C	 0.1697565197	-0.5630757655	-1.5017326479	 0.420328
N	 1.0711931756	-0.450371504	-2.3629338103	-0.553522
C	-1.9531913258	-1.7668346077	 0.5867849828	 0.040967
C	-2.5307063267	-2.9442868596	-0.0720967369	-0.169313
O	-1.2200521319	-2.986073362	 0.501533995	-0.231505
H	 1.2088200421	 1.3018033141	 0.0055686818	 0.303599
H	 0.6379069866	-1.0109762534	 0.5970964056	 0.118888
H	-2.0382435322	 0.2759799018	-0.1075434557	 0.110664
H	 0.7403176753	-0.6825800495	-3.3007614766	 0.233411
H	-2.2922536797	-1.5053600752	 1.5906378146	 0.108188
H	-3.28687537	-3.5300978516	 0.4473502637	 0.120933
H	-2.5580381879	-2.9778606925	-1.1579801283	 0.13702
69.0572	86.7187	133.3756	184.1241	231.89	274.7184	336.5598	399.13	501.5479	619.8005	687.5225	731.6649	810.3246	869.2048	885.7371	911.9528	928.2015	969.2918	1020.1249	1034.2176	1087.8763	1100.6717	1145.6283	1167.5755	1170.7959	1199.293	1218.7114	1282.8074	1287.9164	1340.804	1367.6706	1410.0754	1435.4797	1522.002	1834.2637	3035.2577	3080.1119	3097.6875	3105.6774	3197.6815	3479.6058	3805.1827
OC1C(OC1=N)C1CO1	O[C@H]1[C@@H](O[C]1[NH])[C@H]1CO1	
InChI=1S/C5H7NO3/c6-5-3(7)4(9-5)2-1-8-2/h2-4,6-7H,1H2	InChI=1S/C5H7NO3/c6-5-3(7)4(9-5)2-1-8-2/h2-4,6-7H,1H2/t2-,3+,4+/m1/s1
