12
gdb 129901	6.04524	1.07476	0.91276	8.0041	74.66	-0.2557	-0.0869	0.1689	1159.7416	0.07897	-427.869619	-427.862287	-427.861343	-427.901514	26.909	
N	 0.0051099227	 1.3532725904	 0.1045481169	-0.565391
C	-0.0190369855	-0.000880727	 0.0369201079	 0.432059
C	-1.2217227719	-0.7473944617	 0.0249934097	-0.066868
N	-1.1936903516	-2.0581353365	-0.0014503731	-0.249375
C	 0.0352755644	-2.609953993	-0.0137373621	 0.255954
N	 1.1936077846	-1.9485500445	-0.0102345371	-0.205625
N	 1.1689775657	-0.6292285702	 0.0109877484	-0.256081
C	 0.1174256666	-4.045743977	-0.0377552458	 0.294227
N	 0.1741986857	-5.200228461	-0.0567918531	-0.323557
H	 0.8973169384	 1.8009832483	-0.0359619851	 0.279472
H	-0.8212740844	 1.8861052089	-0.1045512321	 0.273871
H	-2.1937805448	-0.2574138066	 0.0365368254	 0.131314
85.1113	163.6243	252.7621	285.9756	372.7895	408.4866	464.6516	471.2574	521.2743	567.7197	607.5503	672.9874	745.8985	834.2814	877.3428	947.7627	1042.9287	1057.3227	1184.4351	1303.3177	1310.8783	1400.1073	1469.3643	1540.7007	1598.2464	1647.3669	2360.7002	3142.8786	3599.2054	3726.8163
NC1=CN=C(N=N1)C#N	Nc1cnc(nn1)C#N	
InChI=1S/C4H3N5/c5-1-4-7-2-3(6)8-9-4/h2H,(H2,6,8)	InChI=1S/C4H3N5/c5-1-4-7-2-3(6)8-9-4/h2H,(H2,6,8)
