20
gdb 92056	2.64348	1.52988	1.13506	1.448	78.36	-0.2301	-0.0176	0.2125	1128.1419	0.171719	-403.150558	-403.142067	-403.141123	-403.184326	32.247	
C	-0.2546490195	 1.5151111455	 0.0392883081	-0.398145
C	 0.0592190172	 0.021660261	 0.0328535876	-0.087213
C	 0.7763611712	-0.4114261452	-1.2682663928	-0.165836
N	 1.1741235188	-1.8263956245	-1.3153254939	-0.096551
C	 2.5293958833	-2.1579023821	-0.8797853118	-0.243707
C	 1.3613571134	-2.5679919023	-0.0589455728	-0.010624
C	 1.1092974727	-1.918951286	 1.2975819686	-0.330698
C	 0.9125289459	-0.4122228853	 1.2148356263	 0.376814
O	 1.3864286253	 0.3567350233	 2.0184756154	-0.314787
H	 0.6662635934	 2.1047252082	 0.030731818	 0.131664
H	-0.8517634107	 1.7890678156	-0.8359531484	 0.110927
H	-0.8102698881	 1.7946473089	 0.9377951933	 0.126964
H	-0.8724745046	-0.5606239255	 0.0885516415	 0.095361
H	 0.1024797653	-0.2216258977	-2.1114979962	 0.113758
H	 1.6550915287	 0.2295925044	-1.4178682339	 0.109454
H	 3.065187534	-2.8776402076	-1.4935875191	 0.115647
H	 3.1486122913	-1.3503321963	-0.4876829671	 0.114613
H	 1.0338800821	-3.6037524775	-0.1243947653	 0.095938
H	 0.1764944058	-2.3246181061	 1.7138200598	 0.127979
H	 1.9056286245	-2.1433752007	 2.0128727425	 0.128439
35.5662	98.5	176.8952	262.8685	279.8774	320.4661	379.437	413.0496	479.0184	528.8769	581.6893	707.5927	717.3862	802.4498	815.1763	879.6159	909.3479	928.8641	960.2187	1021.987	1052.3951	1068.5116	1106.0631	1119.1523	1121.5829	1145.7656	1171.3492	1191.0521	1219.605	1237.8629	1301.8852	1314.7658	1334.6145	1342.5496	1402.1823	1410.6908	1414.2322	1465.2325	1488.035	1494.5917	1502.9285	1522.1192	1816.6665	3000.6546	3016.3654	3020.0577	3045.3247	3054.6374	3079.5857	3091.0045	3116.1297	3117.2844	3123.7756	3168.3853
CC1CN2CC2CC1=O	C[C@H]1CN2C[C@H]2CC1=O	
InChI=1S/C7H11NO/c1-5-3-8-4-6(8)2-7(5)9/h5-6H,2-4H2,1H3	InChI=1S/C7H11NO/c1-5-3-8-4-6(8)2-7(5)9/h5-6H,2-4H2,1H3/t5-,6+,8?/m0/s1
