18
gdb 85591	2.8325	1.36754	0.96808	1.1141	73.26	-0.2454	-0.0307	0.2147	1189.8957	0.147917	-439.148936	-439.140229	-439.139285	-439.182919	31.618	
C	-0.092312863	 1.4247201713	 0.207975505	-0.344344
N	 0.0589166824	-0.0051956982	-0.0118542573	-0.101968
C	-1.1214407036	-0.7052942145	-0.491350351	-0.255211
C	-1.0922077856	-2.2309214128	-0.3592330741	 0.370839
O	-2.0338762958	-2.884861316	-0.7329387708	-0.29877
C	 0.1695648832	-2.8094588902	 0.2372647439	-0.314016
C	 1.3871847358	-2.0455361257	-0.298757857	-0.333007
C	 1.3208035285	-0.5524710973	-0.0001763306	 0.401077
O	 2.3199167405	 0.0964383658	 0.2524915327	-0.379065
H	 0.8612996743	 1.8154744965	 0.5590750115	 0.172372
H	-0.3727967302	 1.9416682616	-0.7192066364	 0.124332
H	-0.8715767443	 1.6123280127	 0.955475937	 0.123675
H	-1.9940404485	-0.356649012	 0.0755102526	 0.146027
H	-1.336107501	-0.4709416061	-1.5459499298	 0.14058
H	 0.1135454308	-2.6870797089	 1.3277978901	 0.138237
H	 0.2088795883	-3.879958523	 0.0243711014	 0.133262
H	 2.3191961132	-2.4123090365	 0.1334866035	 0.142352
H	 1.4663436651	-2.1783700866	-1.3857214706	 0.133627
52.1671	111.9032	142.9237	172.1134	218.2925	332.3577	374.0696	423.3317	430.3779	512.6383	567.97	597.8366	692.7252	733.4525	792.4084	883.1691	903.1719	980.7902	1038.872	1055.9235	1135.8515	1146.7758	1166.3464	1181.6171	1242.4185	1259.1052	1274.4626	1323.997	1330.8881	1351.1486	1422.391	1440.9724	1462.0406	1474.4407	1482.6723	1500.3763	1529.8163	1772.4173	1830.6237	2987.6995	3014.9789	3024.0436	3037.3895	3044.2315	3068.4482	3112.0434	3124.9303	3169.509
CN1CC(=O)CCC1=O	CN1CC(=O)CCC1=O	
InChI=1S/C6H9NO2/c1-7-4-5(8)2-3-6(7)9/h2-4H2,1H3	InChI=1S/C6H9NO2/c1-7-4-5(8)2-3-6(7)9/h2-4H2,1H3
