18
gdb 63333	2.55015	1.47859	1.17342	1.4705	74.34	-0.2506	0.009	0.2596	1103.5649	0.148011	-435.345273	-435.336257	-435.335313	-435.378829	34.012	
C	-0.0751113577	 1.5702221354	 0.0541512774	-0.401647
C	-0.0058419344	 0.0382350728	 0.0089073342	 0.185026
C	-1.4110050079	-0.580137231	-0.0663646214	-0.409029
N	 0.8587391794	-0.4347213485	-1.0745027818	-0.366306
C	 1.8661802851	-1.264618957	-0.6592180287	 0.445983
O	 2.6657054365	-1.8796379775	-1.3230158405	-0.399579
N	 1.7960389793	-1.2524265944	 0.7453634363	-0.409255
C	 0.742666397	-0.5069393096	 1.2374021547	 0.391524
N	 0.3737759024	-0.2650564317	 2.4273563505	-0.54382
H	 0.9290436549	 2.0012760198	 0.0723627982	 0.125329
H	-0.6017074411	 1.9557515377	-0.8249253347	 0.111584
H	-0.6075133222	 1.8872779547	 0.9536448622	 0.147804
H	-1.939883592	-0.2205104237	-0.9554528133	 0.113851
H	-1.3555859579	-1.6713760865	-0.1130774411	 0.125306
H	-1.9837420177	-0.2990427773	 0.8203669889	 0.14965
H	 0.5812089565	-0.4379451163	-2.0414160062	 0.256849
H	 2.4692230934	-1.7538296419	 1.3011586099	 0.264292
H	 0.9802961464	-0.709191375	 3.1175960055	 0.212437
62.8924	121.045	220.2662	225.373	248.9239	297.3004	324.741	361.081	395.1961	442.4256	501.4258	573.6677	621.0143	637.7011	706.2292	750.1394	764.9935	858.1858	934.532	944.2962	972.4357	1013.712	1022.9641	1096.8105	1191.9197	1193.5011	1226.3825	1307.4046	1349.3681	1392.5719	1397.2897	1402.0706	1427.7797	1478.8058	1481.8625	1498.8201	1506.643	1764.689	1869.5542	3037.7696	3044.0599	3110.0795	3116.8183	3132.9797	3139.1087	3470.035	3662.8598	3669.6809
CC1(C)NC(=O)NC1=N	CC1(C)NC(=O)N[C]1[NH]	
InChI=1S/C5H9N3O/c1-5(2)3(6)7-4(9)8-5/h1-2H3,(H3,6,7,8,9)	InChI=1S/C5H9N3O/c1-5(2)3(6)7-4(9)8-5/h1-2H3,(H3,6,7,8,9)
