12
gdb 131326	5.61333	1.39596	1.11795	5.7606	61.42	-0.2282	-0.0047	0.2235	966.6625	0.08164	-464.996557	-464.990367	-464.989423	-465.027014	23.978	
O	 0.0777080219	 1.2312413428	-0.1389914546	-0.399978
C	 0.0648631785	-0.1021346909	-0.0547064095	 0.425256
N	 0.0056057607	-0.8447564744	-1.1599988027	-0.333142
N	 0.0158202129	-2.0827932549	-0.5931603003	 0.111133
N	-0.0215001968	-3.3542562587	-1.0666727763	-0.223552
C	 0.0192122154	-4.0681026008	 0.0304600299	 0.042798
N	 0.0807773512	-3.2949453348	 1.1781550784	-0.417153
C	 0.0775790632	-1.99704217	 0.7487713474	 0.511547
N	 0.111906711	-0.7397979796	 1.1608912038	-0.489452
H	 0.122781537	 1.563422899	 0.7658545971	 0.312722
H	 0.0067761314	-5.1447084472	 0.0526774782	 0.165459
H	 0.1197224437	-3.6201320806	 2.1279418787	 0.294363
157.7141	331.5557	350.7797	352.841	406.1197	438.9834	583.2288	619.7092	645.8369	728.2399	758.0516	795.242	802.6402	885.2865	979.6396	1022.4297	1083.9732	1171.769	1211.6383	1278.2999	1330.4941	1394.5072	1441.1905	1462.7618	1541.3774	1601.7969	1658.079	3294.2172	3694.4718	3812.8903
OC1=NN2N=CNC2=N1	Oc1nn2nc[nH]c2n1	
InChI=1S/C3H3N5O/c9-3-6-2-4-1-5-8(2)7-3/h1H,(H2,4,5,6,7,9)	InChI=1S/C3H3N5O/c9-3-6-2-4-1-5-8(2)7-3/h1H,(H2,4,5,6,7,9)
