18
gdb 54631	3.89531	1.13293	0.94954	1.8832	80.28	-0.2286	-0.0549	0.1737	1240.766	0.147515	-401.949835	-401.941623	-401.940678	-401.983085	30.864	
C	-0.0258013639	 1.4873509918	 0.044925128	-0.49002
C	 0.0243988332	-0.0295123901	 0.0112212602	 0.293056
O	 1.0803113469	-0.6317707462	-0.002561396	-0.310656
C	-1.2765380397	-0.7453736926	-0.0168824966	 0.193913
C	-1.3971615252	-2.0821713837	-0.0138164955	-0.140131
C	-2.8213906235	-2.4794349179	 0.0197304418	-0.068008
C	-3.574894067	-2.0113313869	 1.2236369084	-0.232556
N	-3.6292799911	-1.2294458318	-0.0093921577	-0.099336
C	-2.659937796	-0.1100753884	-0.0622404705	-0.282883
H	 0.9881855716	 1.8876384693	 0.0310429906	 0.142095
H	-0.5882614859	 1.8743653591	-0.8128107521	 0.139498
H	-0.5448144244	 1.8341627718	 0.9462332354	 0.13782
H	-0.5640663309	-2.7732279848	-0.0237213802	 0.133676
H	-3.1742875967	-3.3303625328	-0.5556554408	 0.105937
H	-4.5117849411	-2.491937523	 1.4920498642	 0.123136
H	-2.9873141734	-1.6384434316	 2.0602537566	 0.116133
H	-2.8469298901	 0.5856780166	 0.7649668471	 0.11835
H	-2.8203040128	 0.4521969211	-0.9914622328	 0.119978
60.4686	130.9379	141.6917	181.7154	333.8611	351.7087	399.4503	458.5512	509.0154	604.9737	618.7153	711.1074	770.3367	804.0014	872.5176	909.4414	930.0067	966.0231	1000.7542	1019.3421	1040.5287	1047.7091	1066.179	1099.7246	1111.0383	1152.6839	1215.1073	1257.3419	1269.2003	1278.8499	1340.654	1360.8786	1382.8159	1461.6589	1474.7095	1486.6719	1499.5771	1653.1592	1771.7369	3013.6216	3031.8787	3049.9004	3090.5479	3097.0695	3152.7268	3154.4979	3189.1117	3227.5291
CC(=O)C1=CC2CN2C1	CC(=O)C1=C[C@H]2CN2C1	
InChI=1S/C7H9NO/c1-5(9)6-2-7-4-8(7)3-6/h2,7H,3-4H2,1H3	InChI=1S/C7H9NO/c1-5(9)6-2-7-4-8(7)3-6/h2,7H,3-4H2,1H3/t7-,8?/m0/s1
