17
gdb 128781	4.92331	0.83122	0.7182	2.8901	72.87	-0.2259	0.0084	0.2343	1543.0114	0.135624	-455.126344	-455.117336	-455.116392	-455.161049	32.021	
C	 0.3210445365	 1.3877122864	-0.0571509358	-0.225664
O	 0.5830724749	 0.002841537	-0.0704976674	-0.230685
C	 0.1773534849	-0.6370611998	 1.1125744715	-0.16931
C	 0.5084470701	-2.0880359993	 0.9994513084	 0.4362
C	 1.1169102721	-2.8175297287	 0.0329978505	-0.398712
C	 1.1174418411	-4.1399669718	 0.5756517911	 0.414939
N	 1.6923567768	-5.2674847685	 0.0138740737	-0.589935
N	 0.5464851934	-4.1901835781	 1.7602275242	-0.231759
O	 0.163956185	-2.8634573418	 2.0361399431	-0.230032
H	 0.854128531	 1.8949074901	 0.7618781986	 0.111168
H	 0.668701485	 1.7914751687	-1.0103828403	 0.133509
H	-0.7546261339	 1.5974153618	 0.0490601047	 0.110569
H	 0.6844388526	-0.2081887371	 1.9946923588	 0.117352
H	-0.9064244216	-0.5148822186	 1.2843305862	 0.116212
H	 1.5133223581	-2.4691122115	-0.9046796694	 0.12285
H	 1.5992794447	-5.3224077547	-0.9900759683	 0.254163
H	 1.3969009993	-6.1234653142	 0.4643945405	 0.259137
48.5652	74.9894	120.0314	187.789	233.36	291.6485	335.3265	362.7385	367.9771	452.1523	617.7443	642.8905	676.7441	744.8078	786.2767	801.5005	936.7955	996.356	1009.278	1041.2931	1045.8069	1140.0821	1156.7447	1175.4161	1185.2211	1230.6519	1245.4712	1293.5122	1424.2735	1481.6421	1486.731	1498.9961	1503.7375	1520.3375	1551.9656	1641.7528	1672.6033	2949.9501	2969.6025	2977.3947	3023.512	3123.3583	3291.0714	3556.7356	3657.1825
COCC1=CC(N)=NO1	COCc1cc(N)no1	
InChI=1S/C5H8N2O2/c1-8-3-4-2-5(6)7-9-4/h2H,3H2,1H3,(H2,6,7)	InChI=1S/C5H8N2O2/c1-8-3-4-2-5(6)7-9-4/h2H,3H2,1H3,(H2,6,7)
