18
gdb 7614	3.34473	1.6632	1.35025	3.2769	68.89	-0.2289	0.0301	0.259	972.1596	0.152829	-381.133236	-381.12438	-381.123436	-381.166214	32.832	
C	-0.2407768849	 1.5744325315	 0.2635559477	-0.319099
N	-0.176065006	 0.1224892586	 0.3609773899	-0.126426
C	 0.9537727378	-0.5632769997	-0.2471901375	-0.266425
C	 0.8140399493	-0.5099115834	 1.2477051648	 0.206394
C	 1.8024710935	 0.2865284991	 2.0736192306	-0.472024
C	 0.3109494984	-1.7628868171	 1.954739629	 0.367721
N	-0.9010338415	-2.1981284748	 1.5214800074	-0.534043
O	 0.9743943403	-2.3244673017	 2.8081960299	-0.374845
H	 0.740620968	 2.0681485676	 0.2328476946	 0.109473
H	-0.781416679	 1.8376978892	-0.6508603387	 0.128678
H	-0.8005641967	 1.9711489057	 1.116012003	 0.128957
H	 0.723951066	-1.4750114349	-0.791977311	 0.123165
H	 1.7470782671	 0.0451391357	-0.680519359	 0.112796
H	 2.3289970313	 1.0370089571	 1.4812698791	 0.111765
H	 1.3030341938	 0.7897271402	 2.9085989194	 0.124561
H	 2.5319066739	-0.4047871697	 2.4991044881	 0.157455
H	-1.4489132179	-1.5789992749	 0.9438999083	 0.265161
H	-1.3254145536	-2.9772263285	 1.9953783945	 0.256735
74.4811	164.5827	177.5507	191.4205	234.3112	304.8564	337.0817	365.8722	390.418	454.5409	493.2341	543.0204	655.1206	692.1261	729.8391	820.1839	848.5476	944.7132	978.2349	1064.5195	1085.2584	1103.3086	1126.6117	1152.7239	1168.2742	1209.3887	1239.6389	1356.6772	1388.7699	1408.2683	1454.3188	1482.85	1489.0757	1500.7372	1505.7298	1511.5441	1577.6299	1791.4767	3001.9187	3048.1981	3076.9795	3087.9783	3106.9616	3117.6608	3147.1838	3180.413	3575.3606	3724.4106
CN1CC1(C)C(N)=O	CN1C[C@]1(C)C(=O)N	
InChI=1S/C5H10N2O/c1-5(4(6)8)3-7(5)2/h3H2,1-2H3,(H2,6,8)	InChI=1S/C5H10N2O/c1-5(4(6)8)3-7(5)2/h3H2,1-2H3,(H2,6,8)/t5-,7?/m1/s1
