20
gdb 11564	3.87698	1.18803	1.06251	2.1338	71.77	-0.2444	0.0812	0.3256	1189.3022	0.17538	-386.113952	-386.104816	-386.103872	-386.148215	33.491	
C	-0.4142393547	 1.4926555468	 0.0467529107	-0.396023
C	 0.0658719482	 0.0431547507	-0.018430349	 0.114945
C	 0.8616850038	-0.3684524718	 1.2222708724	-0.062553
O	 0.0685550004	-0.3143619634	 2.3927826114	-0.422473
O	-1.0139905209	-0.896827651	-0.0658275621	-0.280613
C	-1.732408423	-0.939784215	-1.2593837246	 0.15443
C	-3.0233295276	-1.6912820215	-1.2272628042	-0.297276
C	-3.0317598443	-0.1844287846	-1.3939093932	-0.282179
H	 0.4464211898	 2.1696050828	 0.0482314962	 0.113402
H	-1.0414201564	 1.7434907611	-0.8113442748	 0.122103
H	-0.9817816017	 1.657141233	 0.9660782085	 0.131267
H	 0.7023629176	-0.0987940015	-0.9073545671	 0.064407
H	 1.2683114008	-1.3786068809	 1.061434625	 0.089685
H	 1.7020610149	 0.3170685161	 1.372267853	 0.104038
H	-0.7197445864	-0.8338894024	 2.194701498	 0.289491
H	-1.1052579288	-1.0347673717	-2.1465791769	 0.084403
H	-3.2803507781	-2.3181608567	-2.0734108618	 0.116047
H	-3.3280555211	-2.0823766091	-0.2630842946	 0.12277
H	-3.3481028222	 0.4010413948	-0.5385663972	 0.121627
H	-3.2950936604	 0.236500064	-2.3584641997	 0.112501
47.0594	95.0695	113.2605	189.2318	227.7765	282.6702	323.8252	348.7072	413.0698	461.309	497.5702	639.3696	758.3379	803.0806	817.5458	845.1354	917.7776	928.7403	966.8443	1006.5302	1027.063	1057.3605	1070.7315	1092.4552	1124.8589	1140.4691	1156.5604	1194.7854	1200.1303	1242.4864	1247.4972	1340.286	1359.133	1385.9069	1407.3419	1416.99	1437.0132	1453.6909	1487.9551	1496.6818	1499.0572	1501.9514	2968.6144	2991.7854	3046.5615	3079.6307	3093.567	3116.597	3135.0522	3137.3102	3141.1097	3220.1038	3234.2608	3795.0601
CC(CO)OC1CC1	C[C@@H](CO)OC1CC1	
InChI=1S/C6H12O2/c1-5(4-7)8-6-2-3-6/h5-7H,2-4H2,1H3	InChI=1S/C6H12O2/c1-5(4-7)8-6-2-3-6/h5-7H,2-4H2,1H3/t5-/m0/s1
