15
gdb 50135	4.12599	1.0943	1.00824	4.8047	68.84	-0.2559	-0.0509	0.205	1158.5799	0.109799	-457.725693	-457.717595	-457.71665	-457.758989	29.001	
O	-0.20761091	 0.1123549114	-0.297718623	-0.234325
C	 0.022141103	 1.2108786247	 0.1319996269	 0.148392
C	 1.3351396595	 1.9441118492	-0.0308865175	 0.024862
O	 2.4349586711	 1.1453524274	-0.5044049887	-0.292788
C	 2.6347240259	 2.0227730249	-1.6044388144	 0.391139
C	 1.4234894777	 2.0428728557	-2.5054908212	-0.340187
C	 1.4051242907	 2.8752359461	-1.2583883304	-0.202367
C	 3.9827257526	 2.4540778118	-2.0034966419	 0.059601
O	 5.0073843267	 2.0669496794	-1.5032603361	-0.255145
H	-0.7523588894	 1.8119940966	 0.6633059791	 0.083649
H	 1.599404204	 2.461850712	 0.9002350901	 0.115263
H	 1.5282586846	 2.6084240098	-3.4258305735	 0.137063
H	 0.8422031186	 1.1287922839	-2.5727954096	 0.161673
H	 1.3016710474	 3.9511447639	-1.2458616945	 0.127552
H	 3.9678248379	 3.1935114833	-2.8372675456	 0.075619
81.2401	92.4375	147.2589	189.4655	272.4676	278.5359	419.0801	443.3705	527.9595	668.4492	737.6494	786.1377	805.4182	855.0081	897.3034	937.7791	980.3687	994.7182	1015.4682	1043.5174	1073.2237	1091.6564	1112.5828	1185.1271	1254.3757	1286.1698	1329.9305	1378.2188	1415.7751	1436.3553	1468.6901	1818.5205	1838.5158	2862.7804	2866.954	3032.7889	3129.552	3214.9194	3226.4169
O=CC1OC2(CC12)C=O	O=C[C@H]1O[C@]2(C[C@@H]12)C=O	
InChI=1S/C6H6O3/c7-2-5-4-1-6(4,3-8)9-5/h2-5H,1H2	InChI=1S/C6H6O3/c7-2-5-4-1-6(4,3-8)9-5/h2-5H,1H2/t4-,5+,6+/m0/s1
