20
gdb 103883	3.43522	0.84261	0.76422	5.1547	80.45	-0.2773	0.0317	0.309	1548.2915	0.168444	-403.156151	-403.145939	-403.144995	-403.192273	36.37	
C	-0.6310646327	 1.2702149983	 0.2732020235	-0.382085
C	 0.3626951514	 0.1752201091	-0.1389222907	-0.253414
C	 1.0383455675	-0.4854385433	 1.0529115182	 0.396937
C	 2.0423238914	 0.372136714	 1.7982095452	-0.461975
O	 0.1616373784	-1.2468827665	 1.9122392989	-0.285636
C	 1.161339748	-1.9514596933	 1.1835892917	 0.001821
C	 0.6825629276	-2.9569177222	 0.1456231739	-0.380238
C	 0.4157376405	-4.2673960831	 0.73968161	 0.264379
N	 0.2190960021	-5.3022027541	 1.2140287825	-0.29942
H	-0.1368264338	 2.0991069157	 0.7882570596	 0.121713
H	-1.1347816262	 1.6815437636	-0.6059985733	 0.117893
H	-1.3916560903	 0.8601276426	 0.9435859622	 0.139679
H	-0.1673972017	-0.5724082835	-0.7350105767	 0.099581
H	 1.1399591654	 0.5971214256	-0.7883436164	 0.104605
H	 1.5763119095	 1.2921497014	 2.1633422915	 0.134646
H	 2.4437379182	-0.1657481843	 2.6600907905	 0.132901
H	 2.8731403225	 0.653221355	 1.1422322809	 0.123265
H	 1.9813902101	-2.329063879	 1.7971729818	 0.105188
H	-0.2306794734	-2.6025137803	-0.3380535409	 0.163273
H	 1.4453955854	-3.0796038957	-0.6330522423	 0.156888
37.5271	59.8874	113.6999	166.77	198.8503	212.0525	249.5586	283.8951	365.2339	383.0704	409.9031	459.5636	516.9823	595.6982	690.849	777.1996	805.7269	882.0352	940.1962	946.9478	992.6354	1004.9243	1033.647	1068.5675	1114.1705	1131.4561	1142.4456	1230.193	1256.5342	1307.9837	1314.5568	1338.1934	1381.2321	1407.9949	1414.1209	1447.4581	1468.8479	1476.084	1489.8947	1504.4539	1505.6711	1510.7576	2365.5055	3035.0258	3042.178	3045.1732	3046.264	3085.0347	3091.6333	3107.8831	3113.3909	3117.1603	3123.1927	3128.3397
CCC1(C)OC1CC#N	CC[C@@]1(C)O[C@H]1CC#N	
InChI=1S/C7H11NO/c1-3-7(2)6(9-7)4-5-8/h6H,3-4H2,1-2H3	InChI=1S/C7H11NO/c1-3-7(2)6(9-7)4-5-8/h6H,3-4H2,1-2H3/t6-,7+/m0/s1
