16
gdb 30619	4.56362	0.99462	0.82483	2.2137	71.91	-0.251	-0.0471	0.2038	1345.9519	0.124127	-437.941527	-437.933152	-437.932207	-437.975598	29.524	
C	-0.0595190056	 1.5093716245	 0.089320363	-0.383922
C	 0.0264157485	-0.0083681375	-0.0406058451	-0.281578
C	 0.7454301336	-0.4597660266	-1.2974497109	 0.280227
O	 1.2040466598	 0.3140233922	-2.1146260024	-0.325627
C	 0.8762605559	-1.9207479255	-1.5061120364	 0.171119
C	 1.4775012698	-2.5483444888	-2.5536113826	-0.066854
O	 1.3780960258	-3.8872600548	-2.3595007001	-0.133712
C	 0.7091887663	-4.0103432938	-1.1821633921	 0.069518
N	 0.3862919115	-2.8915146748	-0.6308203578	-0.305085
H	 0.9370934282	 1.9579116448	 0.1108555487	 0.129689
H	-0.5916351103	 1.9458815027	-0.7599091648	 0.129711
H	-0.5845496382	 1.7873716354	 1.0072657245	 0.109326
H	 0.5378355853	-0.4633489792	 0.8178852264	 0.13407
H	-0.967412534	-0.4751580868	-0.0391041967	 0.134065
H	 1.9803440334	-2.2104166655	-3.4422436233	 0.178226
H	 0.5211730999	-5.0147520765	-0.8371350704	 0.160826
57.3048	73.2147	141.6331	169.7196	217.4694	279.5931	362.0022	498.2755	541.2046	643.6105	695.556	714.7236	804.3086	833.1702	862.7099	920.4484	929.6555	998.5545	1043.9503	1089.4293	1089.7586	1113.2262	1139.0662	1236.7952	1271.5792	1286.4913	1345.1599	1384.3609	1413.2862	1442.0435	1491.032	1497.3932	1559.8653	1588.7063	1776.268	3032.1352	3050.6394	3055.5953	3122.0193	3124.5956	3280.1196	3308.6801
CCC(=O)C1=COC=N1	CCC(=O)c1cocn1	
InChI=1S/C6H7NO2/c1-2-6(8)5-3-9-4-7-5/h3-4H,2H2,1H3	InChI=1S/C6H7NO2/c1-2-6(8)5-3-9-4-7-5/h3-4H,2H2,1H3
