20
gdb 78859	2.78951	1.75247	1.35381	1.6433	82.23	-0.2298	0.0893	0.3191	1018.5306	0.171589	-365.928077	-365.920484	-365.919539	-365.959647	31.133	
C	 0.0305308215	 1.5971992874	-0.0656717586	-0.419526
C	 0.1002201829	 0.0819393959	-0.097969833	 0.092118
C	 0.7389274483	-0.7059978388	-1.2688802571	-0.212591
C	 1.2445238999	-1.6841182815	-0.1326649817	-0.033805
C	 2.3562095586	-0.725250457	 0.0679443007	-0.148276
N	 1.06701393	-0.5843080746	 0.8497632059	-0.169355
C	 2.1752895916	-0.1668155235	-1.3244932765	 0.435152
C	 3.1438994364	-0.3830877284	-2.4458473392	-0.35681
C	 2.762642002	 1.0233382728	-2.015618622	-0.340419
H	 1.0047681513	 2.0551463178	-0.2466781322	 0.130347
H	-0.6703022835	 1.9670021007	-0.8226561261	 0.110995
H	-0.3260187083	 1.9308890125	 0.9142730379	 0.1241
H	-0.8821719331	-0.3420521917	 0.1382928455	 0.076862
H	 0.1969149405	-0.9536180681	-2.180934549	 0.067216
H	 1.1181139865	-2.7366524406	 0.0834843055	 0.096103
H	 3.2617599355	-0.8269949804	 0.6520990465	 0.094458
H	 4.1423622267	-0.734601377	-2.2048524697	 0.113171
H	 2.7640225428	-0.7458504745	-3.3958469872	 0.112509
H	 2.129429523	 1.6016660706	-2.6810024686	 0.113642
H	 3.5067646875	 1.6133370585	-1.4892254511	 0.114107
158.4662	184.8935	208.6337	272.718	292.2911	324.5422	483.6978	567.6449	630.857	698.2056	746.8256	779.8186	785.1456	827.3438	869.3935	873.6661	910.9545	926.091	942.2364	963.1811	985.6509	998.1447	1035.2604	1056.5977	1063.9111	1079.0408	1100.6411	1126.3842	1147.0612	1172.2028	1185.1124	1191.6256	1223.2668	1255.4206	1275.3693	1311.281	1392.9387	1410.0123	1411.6355	1463.6316	1487.1904	1499.1573	1510.2061	3036.3235	3044.0856	3099.5759	3119.6911	3121.01	3123.6607	3135.3393	3194.4486	3196.6911	3208.234	3211.4265
CC1C2C3C(N13)C21CC1	C[C@H]1[C@@H]2[C@H]3[C@H](N13)C12CC1	
InChI=1S/C8H11N/c1-4-5-6-7(9(4)6)8(5)2-3-8/h4-7H,2-3H2,1H3	InChI=1S/C8H11N/c1-4-5-6-7(9(4)6)8(5)2-3-8/h4-7H,2-3H2,1H3/t4-,5+,6-,7-,9?/m0/s1
