16
gdb 45109	2.83253	1.83394	1.29696	4.8403	68.27	-0.2491	0.0013	0.2504	954.6567	0.126552	-437.876326	-437.869516	-437.868572	-437.907627	27.144	
O	 0.039724744	 0.0185315171	 0.3247402898	-0.332558
C	 0.0208370067	 1.1640414884	-0.0347833802	 0.464701
O	-1.1722141435	 1.7706401727	-0.2699543062	-0.236314
C	-1.3128141523	 2.9626659354	-1.0155042707	 0.105891
C	-1.1847723449	 4.3018906988	-0.3584260754	-0.315259
C	-0.1207009486	 3.8226260969	-1.3282076318	-0.069842
C	 1.2043965866	 3.3428699201	-0.8082853593	-0.050407
N	 1.3312881829	 3.1988842729	 0.6395255054	-0.329334
C	 1.2641673667	 1.9800660498	-0.204318734	-0.186404
H	-2.0788848911	 2.8235625321	-1.7705127431	 0.114738
H	-1.8608943473	 5.0885412636	-0.6728315362	 0.118505
H	-0.8964704733	 4.3097997503	 0.6857731294	 0.154371
H	-0.0849418629	 4.2662139456	-2.3171407729	 0.099039
H	 2.076550501	 3.6680570337	-1.3683789678	 0.098345
H	 2.2912696108	 3.348157134	 0.9371784124	 0.246979
H	 2.1551758551	 1.3713984286	-0.3077850894	 0.117549
93.5982	205.5713	263.8068	391.5418	411.7153	488.5483	505.5662	580.7639	687.1941	741.646	759.9243	807.6993	837.873	862.0247	904.4613	918.3726	926.1934	1017.9867	1043.6478	1055.6465	1066.9526	1087.4056	1126.8255	1147.4196	1163.3399	1184.8066	1236.3278	1253.0909	1262.3489	1379.1179	1392.9793	1412.4608	1439.9262	1477.2871	1843.2354	3144.8231	3145.5019	3164.0954	3173.4242	3183.8524	3243.4701	3517.3235
O=C1OC2CC2C2NC12	O=C1O[C@H]2C[C@H]2[C@H]2N[C@@H]12	
InChI=1S/C6H7NO2/c8-6-5-4(7-5)2-1-3(2)9-6/h2-5,7H,1H2	InChI=1S/C6H7NO2/c8-6-5-4(7-5)2-1-3(2)9-6/h2-5,7H,1H2/t2-,3+,4-,5-/m1/s1
