15
gdb 56941	3.71922	1.03614	0.89534	5.1891	72.17	-0.2662	-0.0084	0.2578	1250.18	0.110946	-416.74433	-416.735319	-416.734375	-416.77852	32.499	
N	-0.1380899344	 1.4647688973	 0.1850010677	-0.497693
C	-0.1392371721	 0.0208113903	 0.0048427342	-0.184114
C	-1.5296349845	-0.464023523	-0.1045650925	 0.294953
N	-2.6055992488	-0.8693395095	-0.2138003731	-0.312439
C	 0.6539557326	-0.519846144	-1.2037440017	 0.05932
O	 0.8821944137	 0.3851183947	-2.2712371922	-0.229327
C	 2.0270080592	-0.0784688606	-1.5272574233	-0.159519
C	 2.7792250072	 0.8664901387	-0.7445652332	 0.305946
C	 3.4856065534	 1.6030097066	-0.1075764189	-0.398556
H	 0.7903867663	 1.7638230262	 0.4635670905	 0.249407
H	-0.3280880517	 1.9092379949	-0.7090254098	 0.251569
H	 0.2824964819	-0.438441858	 0.9084235585	 0.147214
H	 0.3771441999	-1.5294111604	-1.5110379441	 0.124374
H	 2.6462557503	-0.7806487464	-2.085068096	 0.132849
H	 4.1026969071	 2.2643403531	 0.4505952739	 0.216017
43.2491	120.3979	163.3314	199.2288	223.8528	259.9438	300.6507	345.1665	433.8021	536.4099	571.7603	592.6302	639.116	675.1928	682.0577	792.2189	842.3368	878.1014	894.4729	974.5328	1013.982	1091.4216	1141.7555	1149.9537	1213.62	1282.0384	1295.4529	1372.8431	1400.0617	1447.6135	1674.2343	2233.0523	2364.1754	3037.4613	3103.3558	3117.2552	3496.2887	3507.7544	3589.038
NC(C#N)C1OC1C#C	N[C@@H](C#N)[C@H]1O[C@H]1C#C	
InChI=1S/C6H6N2O/c1-2-5-6(9-5)4(8)3-7/h1,4-6H,8H2	InChI=1S/C6H6N2O/c1-2-5-6(9-5)4(8)3-7/h1,4-6H,8H2/t4-,5-,6+/m0/s1
