15
gdb 127715	3.50993	1.31432	0.96345	5.6757	79.1	-0.2132	0.007	0.2202	1163.2451	0.112445	-412.957021	-412.948292	-412.947348	-412.990296	31.757	
C	-0.0473473423	 1.4291340207	-0.0228859983	-0.344288
N	-0.001494582	-0.0132831279	 0.0395583976	 0.014487
N	 0.0130133227	-0.765806258	-1.1080911482	-0.166205
N	 0.0263130434	-2.0079414109	-0.7614739714	-0.269445
C	 0.0350112426	-2.1042076018	 0.6088571008	 0.168038
C	 0.056226927	-3.3061629139	 1.3445528694	 0.243713
C	 0.0801336101	-4.3036381144	 2.020710745	-0.435988
C	 0.0173189763	-0.813007357	 1.1256697244	 0.224013
N	-0.0637414874	-0.3501007	 2.4247250149	-0.623507
H	 0.8951003843	 1.8746827513	 0.3146479962	 0.139801
H	-0.2146387363	 1.7013706302	-1.0649161572	 0.175956
H	-0.8668844775	 1.8092907679	 0.594036698	 0.153667
H	 0.0944025857	-5.1956198083	 2.5962260903	 0.191665
H	 0.0591373164	-1.0972440885	 3.0965051139	 0.269395
H	 0.540889137	 0.4321329606	 2.6406917445	 0.258698
110.9592	119.8435	128.3317	220.194	256.6921	270.5464	300.7217	393.9533	494.1519	530.6641	537.4742	575.7274	657.668	686.7483	705.9197	748.6065	773.2289	782.294	995.486	1038.2839	1152.5581	1212.9889	1226.8468	1250.402	1354.6074	1383.7872	1442.1164	1485.5029	1505.7166	1554.0427	1605.7678	1658.6589	2228.6862	3035.497	3100.6314	3162.3411	3502.8473	3536.8036	3630.2597
CN1N=NC(C#C)=C1N	Cn1nnc(C#C)c1N	
InChI=1S/C5H6N4/c1-3-4-5(6)9(2)8-7-4/h1H,6H2,2H3	InChI=1S/C5H6N4/c1-3-4-5(6)9(2)8-7-4/h1H,6H2,2H3
