17
gdb 11974	2.72417	2.21999	1.79201	3.7974	67.72	-0.241	-0.0095	0.2315	835.8424	0.141157	-363.849634	-363.841778	-363.840833	-363.881321	29.574	
C	-0.0527242518	 1.5901672454	-0.0548413559	-0.445642
C	 0.0168376798	 0.0651265841	-0.0488845684	 0.1606
C	-1.3585549735	-0.5577481764	 0.2279790575	-0.439861
C	 0.7633602042	-0.6533843849	-1.1886255184	-0.052465
C	 2.2045134443	-0.3782732975	-1.1869592624	-0.262761
N	 1.6902425352	-1.3893875586	-0.2102581087	-0.179687
C	 1.0824179274	-0.6021612788	 0.8537326315	 0.372511
O	 1.3179962988	-0.6095845001	 2.0212159573	-0.307171
H	 0.9086557869	 2.0507671142	-0.297229593	 0.119802
H	-0.7891549237	 1.9399187339	-0.7865199077	 0.121339
H	-0.3571364752	 1.9546937005	 0.9312858342	 0.137991
H	-2.0803640149	-0.2400792507	-0.5322892491	 0.120354
H	-1.3138883258	-1.6510006264	 0.222406689	 0.133522
H	-1.7293065902	-0.2379440086	 1.2058439269	 0.137933
H	 0.2783161537	-1.2159578502	-1.9782093871	 0.109601
H	 2.8180888197	-0.832301057	-1.9582830265	 0.140328
H	 2.5906940253	 0.5620826511	-0.8029479193	 0.133606
135.1637	187.7225	198.6961	224.7355	254.0029	293.2489	339.2495	469.0682	510.3041	650.7218	683.0076	747.1612	767.6624	807.461	894.8573	961.4351	979.3579	988.9557	1010.9481	1035.393	1054.9706	1114.9953	1145.0932	1193.3567	1215.4766	1225.335	1274.7273	1357.0865	1400.4741	1423.1659	1482.0626	1483.8186	1499.6672	1506.4979	1510.4493	1911.879	3033.2734	3036.6728	3102.4141	3105.2231	3113.591	3118.7277	3120.6585	3182.6134	3209.2469
CC1(C)C2CN2C1=O	CC1(C)[C@H]2CN2C1=O	
InChI=1S/C6H9NO/c1-6(2)4-3-7(4)5(6)8/h4H,3H2,1-2H3	InChI=1S/C6H9NO/c1-6(2)4-3-7(4)5(6)8/h4H,3H2,1-2H3/t4-,7?/m1/s1
