14
gdb 23652	3.89664	1.77305	1.2278	0.577	66.57	-0.2576	-0.0172	0.2403	917.385	0.107841	-386.75682	-386.75001	-386.749065	-386.788436	25.104	
C	 0.0052804091	 1.5041582719	-0.0008477734	-0.464627
C	 0.017493783	-0.0016672379	 0.0244081047	 0.35061
N	 0.14862327	-0.6166126135	-1.16099086	-0.321173
C	 0.1633526594	-1.9493521071	-1.1751794635	 0.009411
C	 0.0517082147	-2.7496537744	-0.0413164661	-0.271587
C	-0.0826137453	-2.091951113	 1.1702590787	 0.340418
F	-0.1945195903	-2.7932278669	 2.2971725932	-0.072814
C	-0.1020169512	-0.7069924152	 1.2238229124	-0.31794
H	 0.9327508842	 1.8818505657	-0.4425661461	 0.143755
H	-0.8157973724	 1.864543879	-0.6284618727	 0.14376
H	-0.1052715246	 1.9279990664	 0.9999228947	 0.119117
H	 0.2709730949	-2.4158115597	-2.1517032364	 0.115038
H	 0.0678983545	-3.8308192713	-0.0931195876	 0.11513
H	-0.2074263458	-0.200416394	 2.1754248822	 0.110904
50.7587	198.8572	240.8744	302.2658	450.2477	461.4392	519.459	553.3908	604.0504	751.8951	773.0603	853.1939	886.1766	955.9379	986.5246	1008.1055	1021.2101	1060.9926	1103.5579	1181.3158	1291.8276	1317.285	1326.0657	1408.6343	1433.19	1474.9366	1488.5568	1517.0534	1622.7805	1638.0262	3043.3934	3104.6777	3128.4437	3155.0334	3206.6717	3216.9384	50.7649	198.8572	240.8743	302.2659	450.2476	461.4394	519.459	553.3908	604.0503	751.8955	773.0606	853.1948	886.1751	955.9378	986.5259	1008.1054	1021.2099	1060.992	1103.5585	1181.315	1291.8272	1317.2851	1326.0661	1408.6338	1433.19	1474.9358	1488.5563	1517.0534	1622.7805	1638.026	3043.3934	3104.6777	3128.4437	3155.0334	3206.6714	3216.9386
CC1=NC=CC(F)=C1	Cc1nccc(F)c1	
InChI=1S/C6H6FN/c1-5-4-6(7)2-3-8-5/h2-4H,1H3	InChI=1S/C6H6FN/c1-5-4-6(7)2-3-8-5/h2-4H,1H3
