19
gdb 102760	2.69891	0.8941	0.74597	3.8798	71.99	-0.2504	-0.027	0.2234	1525.7162	0.156304	-460.137291	-460.12725	-460.126306	-460.173575	34.695	
O	 0.0837500014	 1.146975292	-0.539887946	-0.420947
C	 0.0523367779	-0.1142783532	 0.1087951919	-0.098641
C	-1.4051834635	-0.6057641209	 0.1166264659	-0.084507
C	-1.5191120196	-2.0603612658	 0.5950743226	-0.249266
C	-2.8714006603	-2.6852378628	 0.3325423493	 0.082686
C	-3.1595663662	-3.3895239199	-0.9245330372	-0.17458
O	-2.8984665047	-4.113879142	 0.2780467042	-0.23795
C	-2.2587764788	 0.358235523	 0.9252382226	 0.152005
O	-3.0306920861	 0.0281186566	 1.7921421977	-0.248931
H	 0.9652505948	 1.5190896066	-0.4441327896	 0.294138
H	 0.6733624399	-0.8530344767	-0.4199409701	 0.100687
H	 0.4290433301	-0.047155646	 1.1417613787	 0.101773
H	-1.7530885071	-0.5204552326	-0.9246640357	 0.111585
H	-0.7610928493	-2.6715271707	 0.0923230846	 0.104192
H	-1.3114760968	-2.105405428	 1.6706370643	 0.119854
H	-3.7028908804	-2.2431399525	 0.8767834177	 0.119181
H	-4.1820249456	-3.447549825	-1.2953338805	 0.11557
H	-2.3865698027	-3.4634062522	-1.6897607608	 0.10648
H	-2.1105106232	 1.4256562001	 0.6638572005	 0.106672
58.1401	65.587	94.0701	113.2964	145.2159	211.2647	257.9977	291.43	334.1068	368.7072	430.4539	496.44	645.6387	822.7366	829.6515	866.5553	883.3965	917.3071	981.7658	1009.8972	1050.196	1075.2034	1115.3095	1140.0502	1148.9482	1155.4912	1185.6956	1211.2766	1236.173	1253.1927	1287.7961	1297.0855	1346.1395	1371.0874	1418.4825	1437.0623	1451.4856	1479.6778	1526.4876	1529.7302	1818.4945	2934.7799	2972.5965	2996.5865	3011.5182	3036.161	3076.644	3079.4566	3145.0333	3164.1398	3833.6792
OCC(CC1CO1)C=O	OC[C@@H](C[C@H]1CO1)C=O	
InChI=1S/C6H10O3/c7-2-5(3-8)1-6-4-9-6/h2,5-6,8H,1,3-4H2	InChI=1S/C6H10O3/c7-2-5(3-8)1-6-4-9-6/h2,5-6,8H,1,3-4H2/t5-,6-/m0/s1
