12
gdb 24763	3.54727	1.70782	1.15281	4.0107	67.01	-0.2349	-0.1031	0.1318	942.825	0.079686	-435.51317	-435.507009	-435.506065	-435.543829	23.591	
O	-0.024484466	-0.0286432851	 0.0044046202	-0.282719
C	 0.0275726355	 1.1730182619	 0.0088426227	 0.281189
C	-1.1859107719	 2.1228396307	 0.0313123325	-0.174131
C	-0.7810175905	 3.405062131	 0.0317027369	-0.215831
C	 0.6899543899	 3.3637279538	 0.0107571915	 0.318395
C	 1.1929781958	 2.1071989721	-0.0025404525	 0.121624
N	 2.5750774762	 2.1607694107	-0.0213450207	-0.327452
C	 2.8191563772	 3.4327313621	-0.0186809659	 0.032647
O	 1.7006116065	 4.2490875917	 0.0009943638	-0.192505
H	-2.1994293926	 1.7484846959	 0.044031664	 0.136553
H	-1.3927512975	 4.2963137323	 0.0448514996	 0.140774
H	 3.7697495874	 3.940710913	-0.0294270921	 0.161456
150.6529	203.8074	306.9699	371.0639	517.0687	602.512	644.5039	650.6083	670.8352	716.5016	741.8245	796.3263	845.4524	924.689	941.9712	1007.3841	1038.0408	1066.1078	1122.5174	1262.2239	1303.0824	1356.007	1429.1842	1511.4526	1569.4126	1620.3929	1834.5427	3229.7542	3254.2897	3288.8908
O=C1C=CC2=C1N=CO2	O=C1C=Cc2c1nco2	
InChI=1S/C6H3NO2/c8-4-1-2-5-6(4)7-3-9-5/h1-3H	InChI=1S/C6H3NO2/c8-4-1-2-5-6(4)7-3-9-5/h1-3H
