22
gdb 79250	2.38286	1.66122	1.4155	0.6656	86.6	-0.2013	0.0884	0.2897	1085.3751	0.193119	-367.157622	-367.14854	-367.147596	-367.190567	35.526	
C	-0.0401877963	 1.5199938329	 0.0194063007	-0.334627
N	 0.0850683242	 0.0691052591	 0.0610076063	-0.108553
C	 1.1099284329	-0.5732806785	-0.747239552	-0.067423
C	 2.4431814447	-0.6173843445	 0.054917956	-0.144506
C	 2.1396225725	 0.0215023319	 1.4052707979	-0.286002
C	 0.7096697432	-0.59310854	 1.2520868064	 0.28218
C	-0.1786005599	-0.8555642608	 2.4363803823	-0.498781
C	 1.3490488496	-1.6557518425	 0.2497152551	 0.281523
C	 1.3077524753	-3.1458379924	 0.1789937146	-0.530082
H	 0.910480641	 2.0699987646	 0.1014861354	 0.100416
H	-0.5086400474	 1.805241818	-0.9289884176	 0.116869
H	-0.7023753458	 1.8511860747	 0.8264007524	 0.115278
H	 1.0722417093	-0.6214253262	-1.8298017395	 0.086088
H	 3.4027512881	-0.7526383704	-0.4295486169	 0.07743
H	 2.6819091009	-0.4842885694	 2.2095050231	 0.095609
H	 2.2312449056	 1.1055560282	 1.5347881132	 0.085218
H	-0.480017321	 0.0850523178	 2.9128676378	 0.1198
H	-1.0866625384	-1.3843214648	 2.1320895049	 0.125741
H	 0.3416745695	-1.4553497689	 3.1901453231	 0.115907
H	 0.2781518684	-3.515980263	 0.1137790298	 0.126275
H	 1.8447037307	-3.5039594356	-0.706370074	 0.122919
H	 1.7755073528	-3.6091569102	 1.0556403208	 0.11872
149.22	179.4904	186.168	192.7472	202.6098	218.5037	319.3817	323.5697	368.9928	497.6617	580.	604.2864	645.3857	685.2818	751.6536	784.7709	852.0422	874.3853	899.7062	952.8963	966.2644	987.4105	999.1704	1015.7129	1082.6046	1115.6369	1132.0106	1146.3733	1159.7804	1163.4681	1174.411	1227.276	1233.3543	1243.4504	1300.1592	1331.9613	1408.5049	1411.6863	1441.1871	1462.038	1480.5028	1483.6588	1487.2603	1492.6123	1494.8797	1498.2197	1517.6821	2976.6553	3020.1056	3028.2634	3038.4004	3059.524	3079.2834	3088.8993	3089.8271	3092.7827	3095.1874	3111.1281	3174.744	3188.5097
CN1C2C3CC1(C)C23C	CN1[C@H]2[C@H]3C[C@]1(C)[C@@]23C	
InChI=1S/C8H13N/c1-7-4-5-6(9(7)3)8(5,7)2/h5-6H,4H2,1-3H3	InChI=1S/C8H13N/c1-7-4-5-6(9(7)3)8(5,7)2/h5-6H,4H2,1-3H3/t5-,6+,7-,8-/m1/s1
