15
gdb 24357	3.58905	1.62256	1.15247	2.0776	67.15	-0.2059	0.0249	0.2307	992.4418	0.115337	-457.771	-457.764467	-457.763523	-457.801906	26.007	
C	-0.006729725	 1.4127844309	 0.0052141497	-0.104802
C	 1.4179093524	 1.9619691014	 0.0215010917	-0.104781
O	 2.1208365753	 1.5671004461	 1.2038002389	-0.281526
C	 1.9250118758	 0.2461002254	 1.46389957	 0.204036
C	 2.6072924363	-0.5926345902	 2.2871656391	-0.124456
O	 2.0361470913	-1.8310541921	 2.2436894223	-0.154377
C	 0.9780052841	-1.7815176526	 1.3836689877	-0.124451
C	 0.8678937043	-0.5247704145	 0.8784856249	 0.204012
O	-0.0190843487	-0.0179725785	-0.0201180404	-0.281522
H	-0.5513037138	 1.7717602996	 0.889228937	 0.119332
H	-0.5317334963	 1.7417137646	-0.894569844	 0.123878
H	 1.9601542789	 1.6091031731	-0.8663970293	 0.119332
H	 1.4053174919	 3.0543418228	 0.020540545	 0.123876
H	 3.4568101178	-0.4711616462	 2.9356133947	 0.140724
H	 0.4275297957	-2.6937967598	 1.2365407327	 0.140725
124.5782	236.4933	344.8584	395.3983	434.7086	467.9207	542.1075	592.7678	651.6211	701.5529	709.0289	728.7396	731.5506	884.9814	896.5399	940.5363	1054.8738	1067.3291	1088.37	1120.6561	1188.876	1207.7533	1243.0454	1276.0828	1290.4601	1336.5308	1395.7854	1396.882	1446.4954	1490.4117	1491.0244	1613.543	1692.2475	3013.1955	3024.1098	3111.282	3111.4252	3289.1493	3294.2603
C1COC2=COC=C2O1	C1COc2cocc2O1	
InChI=1S/C6H6O3/c1-2-9-6-4-7-3-5(6)8-1/h3-4H,1-2H2	InChI=1S/C6H6O3/c1-2-9-6-4-7-3-5(6)8-1/h3-4H,1-2H2
