21
gdb 53663	4.40453	0.64507	0.61097	0.8507	89.19	-0.2407	0.0446	0.2852	1924.4262	0.178936	-387.043887	-387.033102	-387.032158	-387.081617	37.942	
C	-0.1468488024	 1.4427695828	 0.0235009888	-0.498438
C	-0.1024021208	-0.009786339	 0.1012371617	 0.123338
C	-0.0731440297	-1.2111109143	 0.1619144424	 0.013726
C	-0.0149737043	-2.6638753297	 0.2448586073	-0.23147
O	-1.1924659783	-3.2238980124	-0.3278301999	-0.290891
C	-1.336946634	-4.6049399732	-0.1147643729	 0.474786
C	-0.3803330627	-5.4824241299	-0.8937553869	-0.460177
C	-1.8222440042	-5.0314662113	 1.2513543822	-0.319586
C	-2.7628920699	-5.027269033	 0.0604479718	-0.315442
H	 0.7211885345	 1.8417812263	-0.5127382993	 0.147605
H	-1.0453372724	 1.7782161031	-0.5061017941	 0.152648
H	-0.1613071846	 1.8973745512	 1.0201980498	 0.147241
H	 0.883567155	-3.0275636471	-0.2775539954	 0.116099
H	 0.0794233518	-2.9797187608	 1.2959898027	 0.114254
H	 0.6587877394	-5.3388002961	-0.5781618979	 0.118318
H	-0.6233118063	-6.5388195637	-0.7486413197	 0.117276
H	-0.4456398742	-5.2584042475	-1.9635942326	 0.126981
H	-1.4901144085	-5.9836945898	 1.6511093782	 0.110085
H	-1.9669852937	-4.2535021012	 1.9926063226	 0.118772
H	-3.5067488546	-4.240344189	 0.0215121718	 0.125518
H	-3.0750335901	-5.9763237753	-0.3614716603	 0.109357
27.2475	32.6028	80.147	120.8858	200.3264	214.2715	220.237	284.1949	322.7399	361.4805	375.6572	405.8551	478.9787	518.682	713.5228	780.7181	800.8127	861.0428	924.4358	930.9834	970.9031	1027.9206	1036.7117	1051.7293	1056.6771	1059.1149	1071.5894	1079.9466	1131.2003	1178.913	1189.7081	1253.5571	1285.6029	1337.6912	1408.2489	1413.9641	1418.3342	1453.7232	1476.8899	1479.3363	1483.8636	1492.0528	1503.0381	1509.7536	2380.1966	2973.4609	2994.9226	3027.6706	3033.4174	3088.0377	3089.9591	3095.8035	3113.2978	3131.8835	3139.5382	3216.8395	3233.4634
CC#CCOC1(C)CC1	CC#CCOC1(C)CC1	
InChI=1S/C8H12O/c1-3-4-7-9-8(2)5-6-8/h5-7H2,1-2H3	InChI=1S/C8H12O/c1-3-4-7-9-8(2)5-6-8/h5-7H2,1-2H3
