16
gdb 86835	2.89999	1.25233	1.03414	4.5201	68.86	-0.2861	-0.0093	0.2769	1164.1593	0.124573	-437.946858	-437.938577	-437.937633	-437.98025	30.016	
C	-0.4114604804	 1.4165889303	-0.0318786013	-0.407579
C	 0.1385528898	-0.0068408325	-0.0291335296	-0.139896
C	 1.1210428634	-0.372361998	-1.1475862859	-0.257377
C	 1.9751900548	-1.4765057087	-0.4819312367	-0.048709
O	 1.9781465573	-1.1693891869	 0.917599505	-0.216988
C	 0.9401291579	-0.3223474847	 1.2326185603	 0.453489
O	 0.7655465762	 0.0651368812	 2.3464174271	-0.321111
C	 1.4217595787	-2.8238820192	-0.700906843	 0.284175
N	 0.9805276217	-3.8725841787	-0.8999510392	-0.307797
H	 0.3997203054	 2.150765416	-0.0673328663	 0.128417
H	-1.0618985137	 1.5821720674	-0.8948277376	 0.125605
H	-0.9860422292	 1.595634929	 0.8799311823	 0.15191
H	-0.6971936978	-0.7205246047	-0.035101985	 0.135278
H	 0.6478678903	-0.7129841652	-2.0688898184	 0.142511
H	 1.7671894726	 0.4791448265	-1.3824323884	 0.128551
H	 3.013392123	-1.4697651819	-0.8224182933	 0.149521
73.1312	93.1255	192.1326	208.5323	252.0625	279.282	363.955	465.7327	486.8313	571.5263	608.9754	708.2067	765.1382	784.9747	823.8547	920.86	945.5713	1002.8561	1040.13	1063.8659	1105.6251	1139.4707	1161.0408	1212.5626	1273.4747	1314.7119	1316.9164	1366.7963	1373.982	1413.128	1489.867	1495.9917	1497.8752	1898.5926	2362.5697	3020.7784	3045.667	3065.0725	3091.1376	3115.9032	3132.7629	3136.4177
CC1CC(OC1=O)C#N	C[C@H]1C[C@@H](OC1=O)C#N	
InChI=1S/C6H7NO2/c1-4-2-5(3-7)9-6(4)8/h4-5H,2H2,1H3	InChI=1S/C6H7NO2/c1-4-2-5(3-7)9-6(4)8/h4-5H,2H2,1H3/t4-,5+/m0/s1
