16
gdb 35189	3.61523	1.16291	1.07753	1.5426	75.82	-0.2442	0.0322	0.2764	1141.4207	0.122855	-400.6345	-400.626697	-400.625752	-400.66693	30.248	
C	-0.1066882999	-1.1806870067	-0.0589974252	-0.440611
C	-0.0397565064	 0.0187967239	-0.0134601708	 0.389099
C	 0.0383994031	 1.4518964963	 0.0014762198	-0.336441
N	 0.6115515897	 2.0945686304	 1.2235602677	-0.372374
C	 1.3444227339	 2.1656653443	-0.0273203367	 0.358396
C	 2.7913433212	 1.6407414891	-0.1747266444	-0.331466
C	 3.1013276635	 2.9411066188	-0.9413667561	 0.034547
O	 2.2200828197	 2.9911128035	-2.069170892	-0.235075
C	 1.7159110192	 3.423791093	-0.7988624027	-0.088158
H	-0.1635814622	-2.2405351412	-0.090809281	 0.199329
H	-0.7937193062	 1.9617677614	-0.4800382382	 0.114667
H	 0.1184532409	 2.9678128751	 1.4029345775	 0.236588
H	 3.2868479457	 1.5715603987	 0.7963296401	 0.124748
H	 2.9303167564	 0.71777746	-0.7406451632	 0.126702
H	 4.0312206398	 3.4926218318	-1.0081948792	 0.112125
H	 1.3006794016	 4.4237640517	-0.7298272357	 0.107925
89.502	117.8267	187.3939	285.0848	341.7821	388.205	473.9561	520.7411	545.3675	598.5303	631.0166	662.6112	785.4772	835.6676	844.3645	858.2241	886.3424	934.6575	942.6806	965.3627	1004.6009	1032.5673	1056.0991	1073.4128	1152.7383	1184.9776	1204.5036	1224.8467	1242.1821	1274.8436	1337.7585	1382.1312	1453.857	1472.52	2241.3273	3075.7674	3125.8219	3137.8797	3173.4135	3197.9066	3478.9218	3504.1699
C#CC1NC11CC2OC12	C#C[C@H]1N[C@]21C[C@H]1O[C@@H]21	
InChI=1S/C7H7NO/c1-2-5-7(8-5)3-4-6(7)9-4/h1,4-6,8H,3H2	InChI=1S/C7H7NO/c1-2-5-7(8-5)3-4-6(7)9-4/h1,4-6,8H,3H2/t4-,5-,6-,7+/m1/s1
