13
gdb 130288	3.6344	1.62935	1.12648	3.9314	65.2	-0.2259	0.0052	0.2311	979.3957	0.091781	-452.733622	-452.727078	-452.726134	-452.764388	25.833	
N	-0.0192003371	 1.3946802045	 0.1626319934	-0.587004
C	 0.0609186037	 0.0228652348	 0.0386366711	 0.263426
N	-1.0461877274	-0.7054977787	 0.0026463519	-0.236279
O	-0.6327805681	-2.088972278	-0.0304506728	-0.24991
C	 0.6837981513	-2.0418759974	-0.0344262704	 0.496773
C	 1.231393501	-0.7962636029	 0.007295228	 0.106155
C	 2.6540521482	-1.0278738203	 0.0132428905	-0.37773
C	 2.7992888207	-2.3783947837	-0.0280903543	-0.002136
O	 1.5659745109	-3.0382094563	-0.0568878285	-0.211722
H	 0.6911699198	 1.9032586217	-0.3433016384	 0.258836
H	-0.9474350358	 1.7558871138	-0.0139304203	 0.26435
H	 3.4615391605	-0.3138976147	 0.0464565135	 0.125922
H	 3.6535187121	-3.0329589228	-0.0425722437	 0.149318
181.9792	246.5967	269.289	334.8692	414.9943	542.075	591.9731	609.6748	633.6704	671.534	691.5792	718.382	778.2073	780.244	820.8228	891.0306	917.6595	1011.7781	1104.2434	1130.6635	1173.0615	1247.7045	1360.1075	1437.4859	1534.9793	1544.7202	1579.8614	1634.6103	1655.4955	3261.2892	3299.6128	3556.9239	3660.2998
NC1=NOC2=C1C=CO2	Nc1noc2c1cco2	
InChI=1S/C5H4N2O2/c6-4-3-1-2-8-5(3)9-7-4/h1-2H,(H2,6,7)	InChI=1S/C5H4N2O2/c6-4-3-1-2-8-5(3)9-7-4/h1-2H,(H2,6,7)
