14
gdb 29019	2.61795	1.5978	0.99222	5.244	73.54	-0.2486	-0.0676	0.181	1094.5773	0.102557	-436.757006	-436.749696	-436.748752	-436.788939	27.288	
O	 0.1017553806	 1.3611104582	 0.100568338	-0.421397
C	 0.0700955663	 0.0124805916	 0.0290472279	 0.330832
C	 0.0720208873	-0.6802979859	-1.182567477	-0.252664
C	 0.0378530565	-2.0674426384	-1.1526558706	 0.023421
N	 0.0027006776	-2.7999588843	-0.0311836687	-0.287961
C	 0.0014268502	-2.1229698733	 1.1140335756	-0.024303
C	 0.033659964	-0.7267452662	 1.2226453023	 0.048331
C	 0.028592939	-0.0856712935	 2.5558758948	 0.087949
O	-0.0025394486	-0.7038728066	 3.5969386378	-0.272339
H	 0.1245303187	 1.7328798348	-0.7883481107	 0.308661
H	 0.099602984	-0.1480315494	-2.1288554465	 0.098082
H	 0.0388234277	-2.6232355929	-2.0873892249	 0.120809
H	-0.0268379681	-2.6995003733	 2.0344893246	 0.144213
H	 0.0555901648	 1.0210665991	 2.5487691074	 0.096368
117.7746	169.6276	208.5242	264.7703	354.9354	403.1778	448.0872	510.9285	559.9122	575.512	664.1719	773.4895	827.3545	837.0624	871.5822	974.3315	1009.9472	1049.1098	1074.4666	1153.2549	1222.5114	1232.4843	1294.6687	1338.2071	1355.7544	1432.7461	1454.199	1521.187	1622.3372	1636.9109	1787.7265	2947.7967	3155.8664	3175.0381	3181.2837	3810.6623
OC1=CC=NC=C1C=O	Oc1ccncc1C=O	
InChI=1S/C6H5NO2/c8-4-5-3-7-2-1-6(5)9/h1-4H,(H,7,9)	InChI=1S/C6H5NO2/c8-4-5-3-7-2-1-6(5)9/h1-4H,(H,7,9)
