15
gdb 7709	3.28699	2.01513	1.3082	3.3159	63.46	-0.2731	-0.0169	0.2562	894.6303	0.120334	-399.859093	-399.852133	-399.851189	-399.890811	25.838	
N	-0.1211568052	 1.3239274578	-0.2141552542	-0.484368
C	-0.0748271496	 0.0945747524	 0.0575456026	 0.404638
C	-1.2747524365	-0.8071246251	-0.0198642916	-0.275066
C	-1.2553755504	-1.8414951193	 1.1074458329	-0.234027
C	 0.0472398665	-2.6362996075	 1.0182499436	-0.330335
C	 1.2864514023	-1.7680884775	 0.9206491173	 0.412231
O	 2.3872279419	-2.1229771191	 1.2208483674	-0.295978
O	 1.1321760071	-0.4839083367	 0.4366778667	-0.238116
H	 0.8034144435	 1.7482425017	-0.1146617499	 0.23373
H	-2.1629756277	-0.1748264037	-0.0047802804	 0.143976
H	-1.2581742805	-1.3249447167	-0.9887853973	 0.130459
H	-1.3270265727	-1.3385555004	 2.0787190161	 0.124294
H	-2.1151627164	-2.5121273516	 1.0298650372	 0.11772
H	 0.1998598209	-3.3084206077	 1.8651911331	 0.146136
H	 0.0404382469	-3.2656410367	 0.1179711365	 0.144707
70.5018	107.7015	249.3444	362.6456	431.0457	449.4067	530.7569	542.0276	608.7586	663.3408	738.7511	871.03	902.4829	928.4782	931.2242	958.2347	1051.7758	1082.3856	1104.5654	1142.8394	1175.0641	1230.5667	1274.2544	1331.7638	1353.6188	1363.7907	1372.7192	1458.1926	1475.3015	1502.4649	1766.3967	1871.007	3023.4311	3031.7482	3048.2544	3097.597	3115.4308	3131.6987	3470.1044
N=C1CCCC(=O)O1	[NH][C]1CCCC(=O)O1	
InChI=1S/C5H7NO2/c6-4-2-1-3-5(7)8-4/h6H,1-3H2	InChI=1S/C5H7NO2/c6-4-2-1-3-5(7)8-4/h6H,1-3H2
