16
gdb 123724	3.56	1.57074	1.10448	3.1737	74.85	-0.2472	-0.0089	0.2384	1037.9598	0.127341	-400.764399	-400.75772	-400.756775	-400.79575	26.312	
C	-0.0038058167	 1.5145924704	-0.1269389345	-0.409078
C	 1.3828904811	 2.0649838957	 0.1024296012	-0.047756
C	 2.4720878911	 1.3367658615	 0.3464286515	-0.051619
C	 2.5162734669	-0.168487359	 0.4374812692	-0.380178
C	 1.1574738354	-0.7574997106	 0.2168882498	 0.343881
N	 0.9042144858	-2.0431768686	 0.2417471551	-0.228879
O	-0.4625547915	-2.1524261066	-0.0071200007	-0.1687
C	-0.9764627971	-0.9231548419	-0.1719133198	-0.036717
C	-0.0078330867	 0.0197202817	-0.0440795333	 0.114042
H	-0.6951651174	 1.9517692544	 0.607726813	 0.127293
H	-0.3738365961	 1.8559950343	-1.104382075	 0.127319
H	 1.4709952597	 3.1474231295	 0.0592786065	 0.091952
H	 3.421961975	 1.8432751301	 0.4963214248	 0.09311
H	 3.2270225541	-0.5711212955	-0.2966651279	 0.138765
H	 2.9082253167	-0.4770296121	 1.4159388165	 0.138761
H	-2.0363468503	-0.8829951931	-0.3718586066	 0.147803
73.2405	224.2637	303.9909	391.1082	398.5651	474.1543	586.1816	609.0755	673.8966	689.0886	715.6117	831.0055	877.2344	905.7892	929.603	952.5783	974.4542	979.768	986.1483	1016.7974	1147.2013	1194.5839	1205.5795	1207.4224	1214.9536	1273.9432	1342.7283	1357.5185	1413.2096	1436.8473	1467.1525	1478.2605	1525.4357	1652.0234	1730.3137	3000.8223	3015.6476	3017.8446	3037.3485	3151.5481	3173.8881	3259.465
C1C=CCC2=NOC=C12	C1C=CCc2nocc12	
InChI=1S/C7H7NO/c1-2-4-7-6(3-1)5-9-8-7/h1-2,5H,3-4H2	InChI=1S/C7H7NO/c1-2-4-7-6(3-1)5-9-8-7/h1-2,5H,3-4H2
