15
gdb 13571	4.05802	1.29899	1.23386	4.3481	68.83	-0.2893	-0.0836	0.2057	1022.1127	0.117836	-362.677467	-362.66939	-362.668446	-362.710342	28.697	
C	-0.2897088223	 1.4788524759	 0.087652573	-0.421637
C	-0.0102442804	-0.0054670605	 0.0828377387	 0.014475
C	 1.314398343	-0.5601296055	-0.2989843309	-0.285761
C	 0.8764331848	-0.6848774616	 1.1551609057	-0.141798
C	 1.563492228	 0.1378006393	 2.1666675751	 0.306887
O	 2.185320204	 1.156199703	 1.9574147698	-0.302975
C	 1.4423380303	-0.3696858771	 3.5533279605	 0.218154
N	 1.3488454663	-0.7703540701	 4.6340837854	-0.303469
H	 0.5858096437	 2.0519211229	 0.3981127847	 0.15764
H	-0.5703366	 1.8028136474	-0.9202054629	 0.127635
H	-1.1182971735	 1.7235185656	 0.7599008825	 0.127152
H	-0.8678669965	-0.6238165761	-0.168529815	 0.109633
H	 1.3700196423	-1.4802450205	-0.8691639922	 0.129963
H	 2.11888365	 0.1469495349	-0.4724791419	 0.147579
H	 0.5354892404	-1.6510574878	 1.5078127475	 0.116523
52.9158	146.6898	173.4968	220.4267	243.7286	297.9902	353.9943	418.4543	482.0083	601.5674	715.3112	765.4415	802.898	853.965	879.401	953.277	984.9009	1072.0422	1082.0538	1109.6632	1126.2154	1143.936	1207.7185	1236.3836	1391.7999	1413.3946	1427.3426	1478.9689	1500.9592	1502.6256	1763.9958	2336.4758	3041.0093	3100.023	3133.5023	3139.1736	3151.9465	3185.3473	3232.9541
CC1CC1C(=O)C#N	C[C@H]1C[C@H]1C(=O)C#N	
InChI=1S/C6H7NO/c1-4-2-5(4)6(8)3-7/h4-5H,2H2,1H3	InChI=1S/C6H7NO/c1-4-2-5(4)6(8)3-7/h4-5H,2H2,1H3/t4-,5+/m0/s1
