12
gdb 25263	3.48855	1.69154	1.14743	3.4668	61.4	-0.2765	-0.0582	0.2183	945.3005	0.08037	-472.673147	-472.667046	-472.666102	-472.703877	22.882	
O	-0.0417816409	-0.0445485166	 0.0038962378	-0.340309
C	 0.0459935852	 1.1460653982	 0.0093914647	 0.412461
O	-1.0632796736	 1.9831380756	 0.0285672183	-0.254593
C	-0.716123213	 3.3895930997	 0.0309849372	-0.187157
C	 0.7738506881	 3.3577816441	 0.0101878829	 0.233479
C	 1.1748086237	 2.0748511022	-0.0019017103	 0.120299
O	 2.5314025653	 2.0367628842	-0.0212898296	-0.181948
C	 2.8622933656	 3.3592694199	-0.019277274	 0.056574
N	 1.8659917606	 4.1984862517	-0.0005892807	-0.337409
H	-1.1641663551	 3.8600820034	-0.8502348183	 0.153735
H	-1.1395704271	 3.850934683	 0.9290398036	 0.153717
H	 3.9174907513	 3.5845258048	-0.0329129816	 0.17115
155.3845	219.2093	269.9145	312.7164	547.7203	622.8624	633.7761	660.5879	661.4404	765.5613	784.6428	861.0818	949.0398	1007.2201	1020.9254	1023.8733	1094.7152	1114.4134	1185.6772	1286.6495	1313.3765	1402.3365	1414.1225	1492.8608	1513.0974	1647.1146	1893.5486	3051.4217	3092.8416	3280.3613
O=C1OCC2=C1OC=N2	O=C1OCc2c1ocn2	
InChI=1S/C5H3NO3/c7-5-4-3(1-8-5)6-2-9-4/h2H,1H2	InChI=1S/C5H3NO3/c7-5-4-3(1-8-5)6-2-9-4/h2H,1H2
