17
gdb 72085	3.00749	1.86736	1.70032	1.4946	71.42	-0.2285	0.0066	0.2351	880.2893	0.13753	-421.823107	-421.816437	-421.815493	-421.85369	27.843	
C	 0.0265962766	 1.4905404622	-0.0233718669	-0.485018
C	 0.0070470003	-0.0036326701	 0.0619079699	 0.396013
O	 1.1146467554	-0.6300979387	-0.5316495631	-0.28933
C	 0.9971717125	-2.0008999645	-0.1251433402	 0.10747
O	 0.5507424091	-1.9249703857	 1.2418391108	-0.259907
C	-0.3594134578	-0.8659143822	 1.2174895478	 0.001762
C	-1.2986798161	-0.844879146	-0.0202831088	-0.226964
C	-1.255282186	-2.0388737581	-0.8718064248	-0.051454
C	-0.0718513286	-2.662143809	-0.9434088271	-0.087948
H	 0.9446635162	 1.8880159689	 0.4207269756	 0.134715
H	-0.0238634172	 1.8219907838	-1.0653274887	 0.134785
H	-0.8282448075	 1.9135340637	 0.5112100541	 0.122792
H	 1.9811164391	-2.4668268106	-0.152010443	 0.095166
H	-0.6889915914	-0.5482981575	 2.1968407826	 0.117185
H	-2.2267566571	-0.2961575826	 0.08932325	 0.089417
H	-2.1446226238	-2.3738528641	-1.3949440808	 0.102422
H	 0.1275109663	-3.5562101795	-1.5194597473	 0.098893
196.9766	210.6268	296.6218	370.9735	431.9473	480.0853	553.9707	637.5083	668.913	701.7877	727.9158	749.713	792.8922	859.2053	871.8048	886.1717	923.2354	959.4123	970.5186	985.1319	1014.7206	1064.4033	1086.2929	1099.9001	1117.1612	1162.1799	1220.7978	1230.8469	1299.582	1334.687	1358.0215	1401.1971	1412.3754	1448.0299	1478.6222	1500.4243	1665.9099	3038.9962	3106.1346	3118.9691	3135.8333	3173.9219	3186.7713	3217.7224	3219.6399
CC12OC3OC1C2C=C3	C[C@@]12O[C@H]3O[C@@H]1[C@@H]2C=C3	
InChI=1S/C7H8O2/c1-7-4-2-3-5(9-7)8-6(4)7/h2-6H,1H3	InChI=1S/C7H8O2/c1-7-4-2-3-5(9-7)8-6(4)7/h2-6H,1H3/t4-,5+,6+,7-/m0/s1
