17
gdb 77841	2.14787	1.50964	1.41207	3.003	78.77	-0.2398	-0.0183	0.2215	1052.4786	0.134079	-384.645775	-384.637243	-384.636299	-384.67882	32.317	
C	-0.3295832965	 1.564773321	 0.0093723975	-0.427345
C	 0.0218320722	 0.0838873016	-0.0250662994	-0.106775
C	 0.6944541314	-0.5902031245	-1.2373342912	-0.097392
C	 2.1429056762	-0.2179109572	-1.398869576	-0.205861
C	 2.7517033206	 1.0465792066	-1.0844414965	 0.324912
C	 3.3194940138	 2.0808409355	-0.8507319867	-0.431654
C	 1.7533978538	-1.2554243364	-0.336871692	-0.202567
C	 1.151442234	-0.5362429412	 0.8470605554	 0.39994
O	 1.3616254245	-0.5535365975	 2.0245635761	-0.310495
H	 0.5159174177	 2.1886288558	-0.282749698	 0.143571
H	-1.1668069197	 1.7799770748	-0.6627865066	 0.116395
H	-0.6318203335	 1.8485624155	 1.0223879013	 0.132564
H	-0.8672053355	-0.5083223896	 0.2358632936	 0.110846
H	 0.1601146198	-1.0577097418	-2.0548603467	 0.105697
H	 2.5967135736	-0.7017092291	-2.2619173028	 0.12877
H	 3.8070025779	 2.9981918022	-0.6300636019	 0.202823
H	 2.1858548894	-2.2479547157	-0.3543566862	 0.116571
84.6219	142.4517	176.3829	186.5209	241.8283	257.0076	411.768	462.5922	501.0601	609.9503	613.1491	657.813	664.4791	683.815	730.6825	796.2258	824.5571	900.5415	916.7391	946.6702	986.3492	1052.0474	1062.9731	1081.2136	1111.2643	1155.6046	1166.4617	1212.3449	1275.0156	1320.0219	1351.8185	1407.974	1408.806	1494.3941	1503.0556	1890.3218	2234.5894	3013.3518	3043.3164	3103.8938	3126.8751	3147.2027	3192.0528	3202.2041	3501.8572
CC1C2C(C#C)C2C1=O	C[C@H]1[C@H]2[C@@H](C#C)[C@H]2C1=O	
InChI=1S/C8H8O/c1-3-5-6-4(2)8(9)7(5)6/h1,4-7H,2H3	InChI=1S/C8H8O/c1-3-5-6-4(2)8(9)7(5)6/h1,4-7H,2H3/t4-,5+,6-,7+/m0/s1
