23
gdb 59265	2.62073	1.2705	1.15321	1.4178	84.91	-0.2435	0.0781	0.3216	1233.5699	0.206546	-388.28934	-388.280182	-388.279238	-388.323156	35.14	
C	-0.2490827331	 1.43135328	 0.0709694257	-0.386346
C	 0.1200130645	-0.0365125147	-0.1935802859	 0.003546
C	 1.0752184773	-0.1530731125	-1.3914302096	-0.386348
C	 0.7474255632	-0.6572003987	 1.0470540728	 0.014175
C	-0.0179489861	-1.1866230508	 2.2393481396	-0.101609
C	-1.4711482625	-1.583730738	 2.0509735784	-0.096149
O	-1.5201578171	-2.4013586334	 0.8835594307	-0.250893
C	-0.2559534645	-3.0378156961	 0.7089664637	-0.09615
C	 0.7754935631	-2.1360454053	 1.3631003374	-0.101606
H	 0.6423955039	 2.0232437205	 0.3125121477	 0.106605
H	-0.7182412776	 1.884201103	-0.8088899779	 0.10814
H	-0.9455169751	 1.52401536	 0.9103359422	 0.111768
H	-0.7976868711	-0.5820373283	-0.4335714534	 0.100545
H	 2.012374463	 0.3841793558	-1.2003548015	 0.106605
H	 1.3288276049	-1.197034114	-1.6011252644	 0.111767
H	 0.6276035711	 0.2739584256	-2.2950990463	 0.10814
H	 1.6697197438	-0.1519983705	 1.3347997038	 0.077197
H	 0.3095066153	-0.9298031953	 3.2405199192	 0.085658
H	-1.8200067388	-2.1375307476	 2.9378063622	 0.091803
H	-2.1574888022	-0.7462211003	 1.8834505688	 0.107845
H	-0.2402568257	-4.0278352482	 1.1932021148	 0.091803
H	-0.1187844377	-3.185703324	-0.3680030888	 0.107844
H	 1.6975176715	-2.5906660571	 1.7076586807	 0.085658
68.0615	129.3506	166.8765	217.9604	228.2766	245.4598	275.1605	325.4386	393.7352	501.3955	503.7439	708.83	717.7005	772.6611	796.3561	873.4968	905.0208	919.6891	931.771	962.6921	978.1697	983.133	999.2287	1022.3806	1083.9557	1089.9728	1126.4317	1131.0103	1136.9961	1142.4458	1185.2589	1225.0743	1237.2262	1250.4391	1312.3746	1328.3692	1358.9153	1363.5306	1364.3277	1397.8071	1404.6903	1419.2947	1454.1721	1485.1556	1491.1609	1502.2543	1508.7813	1513.1659	1525.3269	2968.6966	2974.6213	3021.2653	3025.1898	3056.5117	3059.4531	3061.482	3084.8591	3093.7593	3100.3136	3102.4288	3105.9968	3167.0339	3177.0867
CC(C)C1C2COCC12	CC(C)[C@H]1[C@H]2COC[C@@H]12	
InChI=1S/C8H14O/c1-5(2)8-6-3-9-4-7(6)8/h5-8H,3-4H2,1-2H3	InChI=1S/C8H14O/c1-5(2)8-6-3-9-4-7(6)8/h5-8H,3-4H2,1-2H3/t6-,7+,8-
