17
gdb 29575	2.87965	1.31244	0.96068	2.1909	74.73	-0.2199	0.0177	0.2377	1207.4068	0.135906	-421.832221	-421.82402	-421.823076	-421.865659	30.072	
C	 0.1345056877	 1.5555235131	-0.1120951909	-0.506881
C	 0.0349078402	 0.0632307946	-0.0420118014	 0.131588
C	 0.0355071157	-0.8149848942	-1.0795362159	-0.089435
O	-0.0716010037	-2.0978211326	-0.6395196512	-0.148074
C	-0.1445291225	-2.0410999902	 0.7145133473	-0.098506
C	-0.0887446286	-0.7516008054	 1.1442777481	 0.158952
C	-0.1372317531	-0.2933536376	 2.5475562252	-0.055202
C	-1.3364766327	-0.460711698	 3.3925273831	-0.167769
O	-0.2032072639	-1.3133775788	 3.5472623931	-0.228876
H	 1.0080380203	 1.9293795829	 0.4351438752	 0.130747
H	 0.2245837646	 1.8945722126	-1.1476261575	 0.127895
H	-0.747032928	 2.0415431088	 0.3217011522	 0.130536
H	 0.1039910454	-0.6879535197	-2.1478710888	 0.135087
H	-0.2143669058	-2.9811927447	 1.2342803673	 0.150519
H	 0.5304317826	 0.5323451585	 2.7994198003	 0.096655
H	-1.5197738669	 0.2272156977	 4.2172938685	 0.115343
H	-2.2187672615	-0.9303464569	 2.9612982955	 0.117421
58.9881	137.0133	149.158	170.9018	259.5294	276.6159	424.3708	484.729	598.9297	621.8893	674.1516	720.9542	751.3984	793.4532	861.7102	887.6791	915.4433	1008.1321	1013.7652	1065.8385	1084.9068	1095.2573	1141.4017	1166.6431	1169.6851	1193.6858	1245.0846	1277.3355	1310.7226	1370.325	1420.5221	1445.3833	1483.7337	1496.5961	1518.9395	1585.8219	1652.254	3026.0654	3074.5134	3081.2204	3092.9672	3111.2928	3175.7182	3270.2957	3290.6487
CC1=COC=C1C1CO1	Cc1cocc1[C@H]1CO1	
InChI=1S/C7H8O2/c1-5-2-8-3-6(5)7-4-9-7/h2-3,7H,4H2,1H3	InChI=1S/C7H8O2/c1-5-2-8-3-6(5)7-4-9-7/h2-3,7H,4H2,1H3/t7-/m1/s1
