13
gdb 131275	5.53351	1.30434	1.05554	2.6762	65.54	-0.2027	0.019	0.2217	1023.1915	0.093686	-448.958651	-448.952039	-448.951095	-448.989408	25.81	
O	 0.0829413301	 1.2989106714	 0.1226690714	-0.417338
C	 0.0697847368	-0.0348999391	 0.0156540458	 0.433651
N	 0.0935894713	-0.715893965	-1.1097456552	-0.465253
C	 0.0647264858	-2.0123201449	-0.650704284	 0.402769
C	 0.0241767805	-2.1124780415	 0.7298545554	 0.239946
N	 0.0280811122	-0.7841005649	 1.1605310314	-0.468013
C	-0.0007699015	-3.4864964445	 1.0218528796	-0.136243
N	 0.0231288449	-4.1884535728	-0.1167391512	-0.230315
N	 0.0631276605	-3.2779479873	-1.1292528029	-0.338036
H	 0.1128710254	 1.6459104523	-0.7782357932	 0.319442
H	 0.0060439054	-0.4146877985	 2.0943830839	 0.275859
H	-0.0339703453	-4.0077226403	 1.965801207	 0.109767
H	 0.085937724	-3.603902695	-2.079078818	 0.273764
159.5467	273.4552	337.2383	342.6698	406.8133	425.3938	441.5087	552.0589	587.8612	658.8767	718.3979	758.4834	786.2455	843.7007	849.6167	980.6595	1024.339	1078.2733	1182.1481	1197.8898	1238.1396	1295.0978	1330.8126	1402.0832	1511.2948	1527.067	1564.758	1574.3637	1634.7191	3255.3446	3690.6887	3691.5437	3802.5259
OC1=NC2=C(N1)C=NN2	Oc1nc2c([nH]1)cn[nH]2	
InChI=1S/C4H4N4O/c9-4-6-2-1-5-8-3(2)7-4/h1H,(H3,5,6,7,8,9)	InChI=1S/C4H4N4O/c9-4-6-2-1-5-8-3(2)7-4/h1H,(H3,5,6,7,8,9)
