17
gdb 23413	3.63114	1.24733	0.97903	1.1707	79.23	-0.2266	0.0016	0.2282	1176.9674	0.136882	-417.922661	-417.91495	-417.914006	-417.954958	29.921	
O	-0.1912602708	 1.3904490991	 0.141589848	-0.391392
N	 0.0130059107	-0.0002700679	 0.1273480361	-0.22117
C	-1.0838994599	-0.6270578031	 0.0028121068	 0.391029
C	-2.5008383994	-0.0567869528	-0.1291928637	-0.338402
C	-3.3120189761	-1.2634809799	-0.5826019263	-0.201584
C	-2.6001410408	-2.3755059304	-0.4323601472	 0.231402
C	-2.1705904237	-3.6291598677	-1.1605211575	-0.247541
N	-0.7807305739	-3.0368961627	-1.1381531355	-0.328546
C	-1.1858109193	-2.1399240675	 0.0048164322	-0.102259
H	 0.7088773766	 1.727430885	 0.2037017535	 0.306848
H	-2.830534183	 0.396034523	 0.8162564485	 0.130805
H	-2.5294836735	 0.7519675444	-0.8691012759	 0.138422
H	-4.2635023574	-1.1631864252	-1.0918092424	 0.101688
H	-2.2625178721	-4.5512054106	-0.5696719825	 0.103054
H	-2.5808720474	-3.7976179908	-2.160234289	 0.12042
H	-0.0647630568	-3.7079217376	-0.8727624785	 0.220342
H	-0.9004673933	-2.5582780353	 0.9806465934	 0.086884
80.5851	177.6545	211.2785	266.9303	336.8041	352.9743	411.3361	501.8771	519.8336	645.3297	699.3121	722.3116	794.2239	822.0927	833.8529	928.8646	936.6786	962.8248	971.5748	983.4677	1003.8846	1035.0996	1110.6718	1114.5862	1150.0836	1202.2678	1210.7717	1259.8288	1275.4111	1325.3839	1334.8814	1367.3239	1403.9458	1463.361	1501.9332	1734.0309	1760.7224	2994.853	3003.7873	3016.3361	3057.5425	3083.5567	3198.5503	3498.1225	3817.6028
ON=C1CC=C2CNC12	ON=C1C[CH][C]2CN[C@@H]12	
InChI=1S/C6H8N2O/c9-8-5-2-1-4-3-7-6(4)5/h1,6-7,9H,2-3H2	InChI=1S/C6H8N2O/c9-8-5-2-1-4-3-7-6(4)5/h1,6-7,9H,2-3H2/t6-/m1/s1
