20
gdb 99606	2.21585	1.23644	0.99646	4.9342	79.2	-0.276	0.0334	0.3094	1302.2534	0.169041	-403.152086	-403.142118	-403.141174	-403.187054	36.646	
C	-0.1174780399	 1.5922907208	-0.0930828401	-0.400585
C	-0.0781637185	 0.0636490762	-0.1316084483	-0.200384
C	 0.8044436883	-0.508864023	-1.2652517257	-0.193785
C	 2.2037264098	-0.0915109807	-1.1008646795	 0.297627
N	 3.2990798593	 0.2526148975	-0.9693114853	-0.334264
C	 0.708642589	-2.0339920739	-1.3620395554	 0.41894
O	 1.1065372353	-2.7155062706	-0.2070443358	-0.463165
C	-0.3887151016	-2.6383720692	-2.2036403121	-0.339447
C	 1.0617235135	-2.7160503647	-2.6445331388	-0.298511
H	 0.8823437626	 2.0097996655	 0.0581670926	 0.148248
H	-0.5154102302	 2.002422255	-1.0277174458	 0.118676
H	-0.7558572184	 1.9420342566	 0.7232020972	 0.12131
H	 0.2903416834	-0.3214944948	 0.8255887505	 0.11594
H	-1.0892454083	-0.3358863216	-0.2750317337	 0.105854
H	 0.4560718189	-0.0908658262	-2.218463694	 0.119771
H	 0.4047402679	-2.6401809739	 0.4486218714	 0.287734
H	-0.8424345279	-3.549308568	-1.8298911307	 0.121991
H	-1.0623337536	-1.9814802387	-2.744119683	 0.115298
H	 1.3830864872	-2.1098045381	-3.4841873912	 0.123973
H	 1.5600425234	-3.6735196183	-2.5537696123	 0.134779
61.1039	99.5977	134.182	162.8916	184.3723	261.0667	301.1659	306.079	347.2866	354.2922	409.1579	495.8437	543.5584	577.7273	762.231	776.7154	821.0594	861.1086	905.5273	936.095	949.8358	973.3405	991.0868	1050.0768	1055.5175	1081.9254	1114.9574	1126.0573	1187.0495	1227.1081	1276.6149	1294.0146	1303.5847	1345.0211	1359.8625	1394.2759	1417.9883	1455.1193	1492.7733	1498.288	1500.0661	1507.9793	2356.8514	3030.3296	3034.6903	3038.2894	3074.9425	3107.7521	3118.8212	3132.0906	3143.6967	3219.5328	3237.854	3801.9655
CCC(C#N)C1(O)CC1	CC[C@@H](C#N)C1(O)CC1	
InChI=1S/C7H11NO/c1-2-6(5-8)7(9)3-4-7/h6,9H,2-4H2,1H3	InChI=1S/C7H11NO/c1-2-6(5-8)7(9)3-4-7/h6,9H,2-4H2,1H3/t6-/m0/s1
