21
gdb 80975	2.71361	1.41039	1.14953	1.3057	84.33	-0.2157	0.0223	0.238	1174.4414	0.181549	-387.067232	-387.058239	-387.057295	-387.100146	35.465	
C	-0.1805421756	 1.5114951196	 0.0564194467	-0.436023
C	 0.0309453004	 0.0039097987	 0.0177304307	 0.029003
C	 0.8606559682	-0.6274752383	-1.1713574292	-0.141653
C	 2.1504850957	-0.2045852772	-0.3914804996	-0.291081
C	 1.2341162494	-0.6036950257	 0.8210946971	 0.383164
O	 1.4448100139	-0.1750560327	 2.1290264527	-0.49245
C	 1.0290981604	-2.1001569731	 0.5191779767	-0.302638
C	 0.7816588534	-2.1193302117	-0.7954290321	 0.362251
C	 0.4743760369	-3.2333062706	-1.7349578618	-0.517397
H	 0.7208292413	 2.085552868	-0.1712006448	 0.116987
H	-0.9531764321	 1.8048488155	-0.6629618156	 0.11094
H	-0.5212293881	 1.8145575256	 1.0519135435	 0.129301
H	-0.9176996682	-0.5067954837	 0.2092911847	 0.065052
H	 0.6913632869	-0.3403212729	-2.2088522876	 0.058333
H	 3.0488787839	-0.8036847274	-0.559014617	 0.084147
H	 2.3812024436	 0.8616243783	-0.4420716714	 0.096407
H	 2.2195678028	-0.6287058009	 2.4775514559	 0.278155
H	 1.0540348471	-2.9051456228	 1.2420098693	 0.091394
H	 0.4682871105	-4.1990231055	-1.2212114171	 0.124035
H	-0.5053267023	-3.0960434881	-2.2109215832	 0.126605
H	 1.2089855321	-3.285852485	-2.549075768	 0.125472
150.6158	175.9759	178.2252	201.9267	222.0137	260.46	287.5721	403.3755	418.9416	500.3306	520.0671	570.4479	596.3258	656.9761	756.3598	783.8615	801.0231	861.5352	885.6888	927.7133	983.6038	1009.0511	1043.4743	1053.6919	1061.337	1082.8199	1106.083	1110.0025	1140.2039	1161.7829	1207.7097	1224.8847	1235.6097	1282.606	1310.4763	1349.3924	1385.7097	1409.1255	1412.9594	1477.2179	1485.9572	1489.702	1495.1214	1511.1064	1692.0867	3012.2522	3035.458	3055.0832	3056.3094	3063.0596	3096.2592	3104.4861	3115.1804	3119.419	3129.4898	3214.6912	3807.8435
CC1C2CC1(O)C=C2C	C[C@H]1[C@H]2C[C@]1(O)C=C2C	
InChI=1S/C8H12O/c1-5-3-8(9)4-7(5)6(8)2/h3,6-7,9H,4H2,1-2H3	InChI=1S/C8H12O/c1-5-3-8(9)4-7(5)6(8)2/h3,6-7,9H,4H2,1-2H3/t6-,7-,8+/m0/s1
