16
gdb 35095	3.07069	1.55752	1.20128	4.6077	72.95	-0.2466	-0.0107	0.2358	1014.218	0.127318	-396.927013	-396.919807	-396.918863	-396.959125	27.061	
N	-0.0338295385	-1.1612376279	 0.0891605057	-0.32925
C	-0.0605632013	-0.0067974915	 0.0486140878	 0.299488
C	-0.0362828395	 1.458448572	-0.0150663698	-0.144129
N	-0.6950924956	 2.0557279587	 1.1708149248	-0.231032
C	 0.1299680773	 2.8989183892	 1.662013974	 0.044223
N	 1.3345753806	 3.136919276	 1.001941748	-0.102582
C	 2.5976449141	 2.6404736755	 1.649691844	-0.178548
C	 2.5778227241	 1.3930661477	 0.721950785	-0.258318
C	 1.4040774609	 2.063317292	-0.0366962385	 0.003266
H	-0.5833157237	 1.7583177472	-0.9166708424	 0.137806
H	-0.0868008075	 3.4576432854	 2.5689249616	 0.138201
H	 3.4278434134	 3.3270312572	 1.4694424722	 0.126289
H	 2.5065305655	 2.4582037811	 2.723411613	 0.125643
H	 3.4805525521	 1.2102598683	 0.1379192749	 0.122305
H	 2.2913287521	 0.4714680488	 1.2324462769	 0.14391
H	 1.6651394861	 2.4455261003	-1.0248199472	 0.102729
72.0229	144.0624	192.1001	261.7644	348.3237	474.698	511.4897	584.278	682.2171	727.3734	778.8564	787.9433	855.8319	910.1078	924.6765	967.1914	986.0918	1018.4041	1058.9623	1078.3694	1090.4344	1128.4531	1204.7677	1228.3888	1261.714	1266.9683	1272.7661	1299.0488	1323.5441	1339.7971	1364.9395	1488.572	1512.1926	1662.4825	2359.9591	3038.9331	3063.1553	3083.8104	3092.8578	3114.6287	3143.9051	3179.9696
N#CC1N=CN2CCC12	N#C[C@H]1[N][CH]N2CC[C@@H]12	
InChI=1S/C6H7N3/c7-3-5-6-1-2-9(6)4-8-5/h4-6H,1-2H2	InChI=1S/C6H7N3/c7-3-5-6-1-2-9(6)4-8-5/h4-6H,1-2H2/t5-,6+/m1/s1
