14
gdb 13574	3.87754	1.54164	1.24446	4.9814	64.9	-0.2826	-0.064	0.2186	957.3501	0.106211	-378.72604	-378.718063	-378.717119	-378.758776	27.725	
C	 0.2705806722	 1.392632354	 0.2069906868	-0.407227
C	 0.0101942947	-0.0616560998	-0.0996938754	 0.011566
C	 0.7918135742	-0.7890749909	-1.1650085752	-0.254578
N	 0.9913328255	-1.0719138472	 0.2427799431	-0.085676
C	 2.122349958	-0.9160249492	 0.9991192632	 0.308978
O	 2.1888633718	-0.3562452107	 2.0682576733	-0.320637
C	 3.2949550776	-1.6013921648	 0.4146341572	 0.234627
N	 4.2358006082	-2.1023867476	-0.0318529263	-0.318642
H	 1.2911829438	 1.6808009194	-0.0597485517	 0.132274
H	-0.4247979965	 2.018875554	-0.3599433142	 0.13215
H	 0.1326622264	 1.5952202149	 1.2721468733	 0.157598
H	-1.0137096207	-0.3940827544	 0.0612104969	 0.119557
H	 0.3244125138	-1.5807483595	-1.7430653764	 0.143245
H	 1.573777551	-0.2370447282	-1.6809853947	 0.146766
71.3787	123.7165	151.4816	199.7517	260.1648	310.6588	372.928	407.6362	550.657	563.4708	701.576	766.1649	838.722	899.0312	908.5356	1042.0457	1063.7404	1113.8733	1132.0582	1162.6084	1185.6269	1195.2158	1383.4003	1416.5505	1442.1535	1483.7264	1492.8888	1514.2184	1776.9335	2347.0505	3047.3991	3112.5599	3115.3631	3125.4807	3136.8878	3205.3699
CC1CN1C(=O)C#N	C[C@H]1CN1C(=O)C#N	
InChI=1S/C5H6N2O/c1-4-3-7(4)5(8)2-6/h4H,3H2,1H3	InChI=1S/C5H6N2O/c1-4-3-7(4)5(8)2-6/h4H,3H2,1H3/t4-,7?/m0/s1
