25
gdb 76334	1.76269	1.75892	1.16871	1.318	88.38	-0.2479	0.0603	0.3081	1241.907	0.226352	-389.498143	-389.487219	-389.486275	-389.532786	41.959	
C	-0.2712281751	 1.5736213432	-0.017203891	-0.402136
C	-0.0420623233	 0.0634155279	 0.0100377371	-0.031823
C	 1.1283376876	-0.4694563743	-0.8842847881	 0.01404
C	 1.6071459178	 0.3103909843	-2.100082258	-0.415085
C	 2.0340279142	-0.5456660389	 0.3801733555	 0.363971
C	 2.9562794817	-1.7458275797	 0.5398908967	-0.461157
O	 2.7811786904	 0.6678356074	 0.4569923137	-0.468426
C	 0.7338001986	-0.4934278359	 1.2513061062	 0.003689
C	 0.7561744646	 0.2704395414	 2.5671873575	-0.436229
H	 0.6548343569	 2.1286763058	 0.1495964811	 0.134081
H	-0.6812839258	 1.8855631124	-0.983883861	 0.107839
H	-0.9902270428	 1.872305195	 0.7536608922	 0.104845
H	-0.997768101	-0.4398849018	-0.1710905519	 0.055314
H	 0.8916221169	-1.496419053	-1.1855424795	 0.063916
H	 1.9090442565	 1.3252431885	-1.8347829007	 0.132749
H	 2.4705279554	-0.180156788	-2.5628539375	 0.10903
H	 0.8178578383	 0.371133279	-2.857605186	 0.105841
H	 3.750983326	-1.7238756943	-0.2129817612	 0.122694
H	 3.4317154992	-1.7467319339	 1.5297908214	 0.102386
H	 2.4060098467	-2.6863355716	 0.4382562425	 0.113147
H	 3.2374398184	 0.6792448746	 1.3051922415	 0.276433
H	 0.4047090931	-1.5223203361	 1.4382609474	 0.062291
H	 1.1226152735	 1.2920884337	 2.4348928395	 0.121284
H	-0.245492426	 0.3299321754	 3.0062357055	 0.116437
H	 1.4009329383	-0.2274000811	 3.3018731072	 0.104871
93.3825	186.0629	193.6091	208.7249	221.9077	229.2998	242.7861	248.2686	266.863	277.741	281.0413	350.6849	426.1862	493.1744	494.35	571.8729	653.6772	737.2351	767.7158	788.2564	851.0328	943.9781	981.8999	987.9306	1011.1762	1020.2235	1028.0254	1066.3028	1106.5549	1130.5578	1144.0135	1190.3751	1201.7929	1216.6711	1228.254	1280.1096	1309.4935	1331.2943	1363.6177	1373.487	1399.1423	1401.8794	1403.211	1413.5046	1413.652	1485.0214	1488.8407	1491.3676	1492.2586	1496.5651	1502.4037	1507.6105	1519.128	3016.1877	3023.8929	3026.9619	3030.3689	3033.2375	3035.1753	3049.5545	3082.0857	3083.7875	3088.4481	3091.1546	3108.8429	3112.958	3124.2949	3131.4358	3804.2622
CC1C(C)C(C)(O)C1C	C[C@H]1[C@@H](C)[C@@](C)(O)[C@H]1C	
InChI=1S/C8H16O/c1-5-6(2)8(4,9)7(5)3/h5-7,9H,1-4H3	InChI=1S/C8H16O/c1-5-6(2)8(4,9)7(5)3/h5-7,9H,1-4H3/t5-,6+,7-,8+
