16
gdb 131395	3.16344	1.29896	0.99302	0.7156	71.71	-0.2214	0.0002	0.2216	1167.4939	0.126297	-434.059933	-434.052016	-434.051072	-434.093179	29.462	
O	-0.1603563967	 1.3451233257	 0.0117886301	-0.427796
C	-0.0142881782	 0.0055076775	 0.0205496505	 0.295429
N	-0.0268485747	-0.7409874155	-1.075945766	-0.305851
N	 0.1484568297	-1.9712012666	-0.5859591789	-0.09136
N	 0.2713163418	-2.0682719518	 0.729273799	-0.290779
C	 0.1711303995	-0.8072884723	 1.1604372514	 0.267525
C	 0.2478230131	-0.405031399	 2.5747171241	-0.108998
C	-0.3247576544	-1.2960480102	 3.6594488644	-0.259775
C	 1.1627293098	-1.1399074584	 3.5343521716	-0.259882
H	-0.268550371	 1.6227287267	-0.9059490023	 0.308418
H	 0.1851155275	-2.7776352735	-1.1851364298	 0.291131
H	 0.1475611315	 0.6645888976	 2.7197365384	 0.098208
H	-0.8307443306	-0.817910102	 4.4908328013	 0.112692
H	-0.7617924121	-2.233301691	 3.3344260572	 0.129116
H	 1.723772626	-1.9724006472	 3.1253800263	 0.12926
H	 1.6894621389	-0.5534094799	 4.2789348927	 0.112661
37.2884	153.5753	167.2605	289.7249	313.5581	350.8031	358.0946	474.8219	523.2659	620.541	697.2488	750.1481	769.9437	802.5989	824.5596	918.1742	922.019	985.7888	1062.8765	1084.7363	1090.3879	1134.6163	1137.7436	1194.2186	1205.3032	1211.8896	1238.8324	1270.6014	1404.9775	1411.9486	1461.447	1477.2104	1500.9697	1586.6037	1603.6531	3135.6135	3138.7577	3176.4059	3220.3306	3235.5186	3688.685	3805.2118
OC1=NNN=C1C1CC1	Oc1n[nH]nc1C1CC1	
InChI=1S/C5H7N3O/c9-5-4(3-1-2-3)6-8-7-5/h3H,1-2H2,(H2,6,7,8,9)	InChI=1S/C5H7N3O/c9-5-4(3-1-2-3)6-8-7-5/h3H,1-2H2,(H2,6,7,8,9)
