19
gdb 92382	2.23854	1.53942	1.29603	3.3967	80.01	-0.2406	0.0174	0.2581	1088.0609	0.160548	-382.05051	-382.04214	-382.041196	-382.083488	32.054	
C	-0.4868082118	 1.4079117313	 0.0086295986	-0.415228
C	 0.0135799679	-0.0264832143	-0.0716148277	-0.036773
C	 1.2889198281	-0.2940409351	-0.9381445619	-0.220587
C	 2.0662437785	-0.7079983828	 0.3255917552	-0.043005
N	 2.609808575	 0.4619707542	 1.0612440012	-0.321352
C	 1.538827248	 0.3883480661	 2.085819432	-0.22222
C	 0.7554562642	-0.6129657913	 1.1971466615	 0.180956
C	 0.1297555539	-1.735679552	 1.8459382373	 0.187721
N	-0.3728518701	-2.6424833344	 2.3609618099	-0.351888
H	 0.3261314621	 2.1008570909	 0.2438876736	 0.137597
H	-0.9091178174	 1.7094366026	-0.9557776423	 0.1223
H	-1.2708081506	 1.5192392907	 0.7652448566	 0.123046
H	-0.8096666536	-0.6881477101	-0.3507644601	 0.096788
H	 1.1527347099	-1.1112124471	-1.6513065746	 0.106891
H	 1.7070464353	 0.5733082507	-1.4532301693	 0.10996
H	 2.6934107842	-1.6016595212	 0.2993106569	 0.085329
H	 3.5440301501	 0.3279714554	 1.4277397485	 0.22887
H	 1.8426862187	-0.0796771285	 3.0294457415	 0.116807
H	 1.0513353572	 1.3430942348	 2.3065307531	 0.114788
75.5346	137.0012	164.5109	226.9591	284.0779	325.5454	372.9129	435.5105	509.6609	557.0564	566.9451	633.3275	703.3618	781.2511	849.7908	875.3076	919.7412	938.6044	985.6224	1023.9265	1032.0052	1052.2988	1083.8954	1100.7785	1122.9244	1160.719	1180.9602	1193.4363	1230.759	1257.1541	1282.117	1320.2402	1344.7907	1373.4018	1386.7788	1407.1283	1469.6568	1490.3581	1497.7217	1521.8448	2341.4901	3027.7896	3033.4421	3061.197	3075.821	3079.1256	3086.641	3098.923	3114.2231	3125.304	3553.0241
CC1CC2NCC12C#N	C[C@H]1C[C@H]2NC[C@@]12C#N	
InChI=1S/C7H10N2/c1-5-2-6-7(5,3-8)4-9-6/h5-6,9H,2,4H2,1H3	InChI=1S/C7H10N2/c1-5-2-6-7(5,3-8)4-9-6/h5-6,9H,2,4H2,1H3/t5-,6+,7-/m0/s1
