20
gdb 57922	3.19091	0.95895	0.79758	3.3035	77.43	-0.2604	-0.0182	0.2422	1497.0891	0.167553	-440.340915	-440.33021	-440.329265	-440.377902	37.268	
C	 0.3694798291	 1.4440214711	-0.5559014077	-0.380741
C	-0.0746843491	 0.005492336	-0.2830617826	-0.038895
C	 0.5126667849	-0.5327925441	 1.0372306878	-0.389871
C	-1.581922795	-0.1170139379	-0.2726588492	 0.406154
N	-2.3781174525	 0.8526371239	-0.2295397089	-0.498382
O	-1.9046058388	-1.4946808163	-0.3100152085	-0.271383
C	-3.1785318191	-1.978154343	-0.2789763094	 0.433816
C	-3.1496281976	-3.485010884	-0.3397112089	-0.47682
O	-4.1755376779	-1.3072137584	-0.2140347195	-0.331645
H	 1.4619727386	 1.4962557052	-0.5938309483	 0.104825
H	-0.0310616868	 1.8107940503	-1.5039273241	 0.124366
H	 0.0148372229	 2.1153344341	 0.2302480233	 0.134841
H	 0.282479924	-0.6444228605	-1.0930558004	 0.093342
H	 0.2023338419	-1.5641159049	 1.2219066249	 0.120851
H	 1.6056792047	-0.505361527	 1.0015441519	 0.11844
H	 0.185863158	 0.082569485	 1.8819910777	 0.127125
H	-3.3491949097	 0.5466951245	-0.214106895	 0.259231
H	-2.5886199013	-3.8823275338	 0.5110176737	 0.15565
H	-4.1696701589	-3.8666781456	-0.3260313341	 0.15327
H	-2.6367828377	-3.8124698247	-1.2484374429	 0.155824
41.9278	51.4373	87.8787	108.1049	160.2566	207.9217	234.5763	268.0278	308.4052	330.7707	387.1748	436.8519	548.2398	590.9255	653.8351	703.4197	815.2703	854.3733	929.9476	936.6418	968.2933	970.9687	995.2932	1031.3788	1062.4682	1125.6609	1135.1316	1196.296	1227.661	1284.5686	1329.0395	1379.6419	1393.9628	1400.9121	1421.6244	1466.1071	1474.0615	1483.7213	1487.0893	1499.8343	1512.5787	1748.4689	1835.911	3021.3025	3040.0328	3046.9929	3057.7157	3109.8648	3118.5983	3123.3428	3123.6969	3129.4665	3171.362	3518.3593
CC(C)C(=N)OC(C)=O	CC(C)[C]([NH])OC(=O)C	
InChI=1S/C6H11NO2/c1-4(2)6(7)9-5(3)8/h4,7H,1-3H3	InChI=1S/C6H11NO2/c1-4(2)6(7)9-5(3)8/h4,7H,1-3H3
