19
gdb 46912	2.9429	1.37106	1.04589	2.3822	74.6	-0.2428	-0.0166	0.2262	1144.2517	0.160777	-423.039267	-423.031402	-423.030458	-423.0719	30.522	
O	 0.0034433642	-0.0427323013	 0.0280178987	-0.297896
C	-0.0136122227	 1.1670585642	-0.0117715605	 0.382959
C	-1.3423241179	 1.9215345522	-0.0155060272	-0.289124
C	-1.5470261492	 2.8240825786	 1.2256936397	-0.255758
C	-0.7738638634	 4.1234526431	 1.1280213575	 0.062815
O	-0.0291212759	 4.5601486771	 2.2688179276	-0.256733
C	 0.6962096348	 4.1435020325	 1.1081927749	 0.062821
C	 1.5068698967	 2.8657331021	 1.1844726595	-0.255761
C	 1.2934233034	 1.9575209102	-0.0511155576	-0.289123
H	-1.4057995228	 2.5372167541	-0.922957513	 0.110741
H	-2.1276011551	 1.1640887111	-0.0681369667	 0.123321
H	-2.6146064546	 3.0440466279	 1.3265726575	 0.114134
H	-1.2520668541	 2.292227248	 2.1351223629	 0.126727
H	-1.2916828095	 4.9304809499	 0.6064962834	 0.092978
H	 1.1775751315	 4.9641593597	 0.5731881211	 0.092977
H	 2.5703890134	 3.1147581739	 1.2565900649	 0.114135
H	 1.2511705483	 2.3263442124	 2.1013197467	 0.126727
H	 2.0973747734	 1.2217774251	-0.1252567515	 0.123321
H	 1.3155229194	 2.5744155693	-0.959692978	 0.11074
65.7651	153.4012	212.456	267.7701	310.2863	393.6711	397.027	482.268	507.2521	567.4535	681.6077	739.805	790.9061	795.116	858.756	929.6299	935.2861	942.1722	1002.6014	1031.6335	1045.4271	1082.1281	1106.1597	1125.9695	1170.6911	1200.8453	1201.9333	1236.3395	1276.8627	1305.6713	1321.4265	1336.2998	1355.6001	1365.3078	1401.4941	1468.1679	1472.675	1488.3622	1493.438	1505.9645	1802.0058	3021.1063	3027.1745	3050.3154	3053.3416	3079.5752	3089.609	3097.8509	3107.938	3108.1654	3110.059
O=C1CCC2OC2CC1	O=C1CC[C@H]2O[C@H]2CC1	
InChI=1S/C7H10O2/c8-5-1-3-6-7(9-6)4-2-5/h6-7H,1-4H2	InChI=1S/C7H10O2/c8-5-1-3-6-7(9-6)4-2-5/h6-7H,1-4H2/t6-,7+
