23
gdb 63655	3.97939	0.80666	0.77683	1.6924	86.7	-0.2521	0.0931	0.3452	1616.6059	0.203507	-388.271114	-388.260905	-388.259961	-388.306861	37.877	
C	 0.0731791371	 1.4676796714	-0.0888943225	-0.454863
C	 0.0065169813	-0.0233503946	 0.1647112259	 0.392858
C	-0.9722255897	-0.7688957767	-0.7199950818	-0.451103
O	 1.2759973432	-0.6839218012	 0.3273170618	-0.298344
C	 0.3926188406	-0.6242010548	 1.4565137512	 0.030837
C	 0.8692820388	 0.1223027849	 2.682917668	-0.266637
C	 1.8373353792	-0.7018852552	 3.5109910816	 0.040052
C	 3.2851109066	-0.7908803674	 3.1026569207	-0.242634
C	 2.89636984	-0.027157262	 4.3453762903	-0.283206
H	 0.8353690141	 1.953275947	 0.5216101012	 0.126587
H	 0.3155327774	 1.6567831988	-1.1405604339	 0.123408
H	-0.893820144	 1.9392488401	 0.1181029224	 0.118684
H	-0.721017142	-0.6230243163	-1.7765159351	 0.122331
H	-0.9485672086	-1.8407804016	-0.5091914069	 0.12518
H	-1.9938718109	-0.4042978058	-0.5662445062	 0.116927
H	-0.0688801458	-1.5885204826	 1.6898095819	 0.075339
H	 1.3527962675	 1.0580690148	 2.3865338385	 0.098154
H	-0.0047158579	 0.393075867	 3.2919489563	 0.098496
H	 1.4057099536	-1.606882343	 3.9322870096	 0.079806
H	 3.7989940816	-1.738389243	 3.2201313136	 0.108841
H	 3.5895162704	-0.2273842866	 2.2278155153	 0.122866
H	 2.9511634064	 1.0565127529	 4.315543056	 0.107525
H	 3.1417252112	-0.454251386	 5.3115919123	 0.108896
48.9288	64.2134	114.8475	148.6356	188.385	235.7735	261.4791	316.308	367.9901	379.483	427.8785	488.0672	525.2906	700.1976	770.8775	794.9088	808.8775	840.0385	889.0054	915.6325	943.5005	956.986	978.6349	1006.8049	1035.3461	1058.9374	1074.7778	1102.3402	1129.0099	1140.3131	1156.1796	1165.0314	1196.117	1229.5828	1262.0912	1272.4032	1323.2236	1359.4501	1406.7497	1414.8431	1420.8414	1463.5841	1469.5955	1472.1362	1476.0961	1486.7184	1501.2267	1509.2134	1521.3477	3013.7259	3031.4147	3038.0013	3056.7926	3084.1423	3091.6411	3096.8252	3122.465	3128.1735	3131.7345	3140.065	3141.1472	3207.4435	3225.9879
CC1(C)OC1CC1CC1	CC1(C)O[C@H]1CC1CC1	
InChI=1S/C8H14O/c1-8(2)7(9-8)5-6-3-4-6/h6-7H,3-5H2,1-2H3	InChI=1S/C8H14O/c1-8(2)7(9-8)5-6-3-4-6/h6-7H,3-5H2,1-2H3/t7-/m0/s1
