18
gdb 32760	3.32714	0.70261	0.59762	4.2123	79.13	-0.2402	-0.0694	0.1708	1857.5378	0.144376	-439.090673	-439.079957	-439.079012	-439.129608	35.598	
C	 0.8572930635	 1.6538682844	 1.1881595096	-0.304474
N	-0.1201547298	 0.9381991059	 0.3649320013	-0.492458
H	-0.1164138878	-0.0515287178	 0.5924369263	 0.242056
H	-1.0568928724	 1.27465189	 0.5645235328	 0.227952
C	 0.3596676145	-0.9017488877	-2.4198255398	-0.407685
C	 0.3067347164	-2.0964215883	-1.8452950434	 0.280532
C	 0.4360516472	-3.4568900719	-2.4738894392	 0.313854
O	 0.6159995824	-3.685241737	-3.652601922	-0.339889
C	 0.2929120779	-4.3732326007	-1.334787353	-0.309539
C	 0.1118028317	-3.608544002	-0.2452249312	 0.057979
O	 0.1094716692	-2.2652470894	-0.4763681575	-0.222123
H	 1.8594120728	 1.2704088326	 0.9723081693	 0.126883
H	 0.850016646	 2.7153194008	 0.9207247096	 0.124222
H	 0.6973113176	 1.5810268803	 2.2757789977	 0.097845
H	 0.5169503416	-0.8700030786	-3.4915145817	 0.149298
H	 0.2510492333	 0.0148502233	-1.847108934	 0.172183
H	 0.3280428103	-5.4497411287	-1.3746714722	 0.132921
H	-0.0336411445	-3.8765286452	 0.7923908572	 0.150444
24.2953	39.2275	59.9061	73.6441	106.1923	139.8799	163.616	297.5155	326.1033	371.0095	509.5789	525.3484	629.3214	753.135	769.794	783.8266	830.9884	844.1463	879.1369	907.8734	939.0325	986.5238	996.7693	1050.2996	1064.5182	1100.3679	1181.4793	1200.8227	1263.7462	1355.1356	1367.8758	1420.0506	1461.7366	1498.7553	1518.4499	1620.0774	1670.5762	1720.7622	1797.1331	2974.6156	3066.4147	3104.7862	3138.3682	3237.5399	3254.2931	3276.7186	3497.1709	3575.0869
C[NH2+]CC1=C([O-])C=CO1	CN.C=C1C(=O)C=CO1	
InChI=1S/C6H9NO2/c1-7-4-6-5(8)2-3-9-6/h2-3,7-8H,4H2,1H3	InChI=1S/C5H4O2.CH5N/c1-4-5(6)2-3-7-4;1-2/h2-3H,1H2;2H2,1H3
