18
gdb 8198	2.77402	2.43435	1.67573	1.2434	72.42	-0.2246	0.0211	0.2458	842.7106	0.153436	-347.802579	-347.794924	-347.793979	-347.83376	30.337	
C	 0.0075874011	 1.4984284539	 0.0379785848	-0.477606
C	-0.0344263252	-0.0095364559	 0.0671810372	 0.297306
C	 1.2413307534	-0.7847983301	-0.216124213	-0.389278
C	 0.638799397	-0.8065351851	 1.1739011588	 0.339946
O	 1.2836933545	-0.1610277776	 2.2302647045	-0.47199
C	-0.2733801082	-1.9579153506	 1.4561164802	-0.135408
C	-1.3448588069	-1.936510169	 0.6620705796	-0.07605
C	-1.3488387796	-0.7289956568	-0.2531677551	-0.332863
H	 0.9340105842	 1.8689558638	 0.4848116185	 0.124964
H	-0.0559439292	 1.8816856695	-0.9871287871	 0.111755
H	-0.8265675737	 1.9251360571	 0.6062704107	 0.116813
H	 1.2072109007	-1.6907029308	-0.8139061482	 0.106079
H	 2.1336965463	-0.1788039472	-0.3472896638	 0.104697
H	 2.1484352389	-0.5671215558	 2.3476220352	 0.283773
H	-0.0426906024	-2.7095453997	 2.2028909824	 0.090651
H	-2.1226150829	-2.6911493418	 0.6324773739	 0.09377
H	-2.2166631262	-0.0830974853	-0.0593143345	 0.105309
H	-1.4123191118	-1.0169908487	-1.3109018442	 0.108131
183.7839	193.8506	213.3076	257.2189	285.3996	358.4855	431.0896	459.5283	519.7919	553.6695	687.0971	727.2618	760.4239	774.127	901.7316	909.0011	941.4564	952.1331	967.8795	981.1488	993.0769	1054.3071	1092.9405	1101.5689	1160.684	1192.9557	1222.7896	1254.6857	1303.4854	1325.4123	1378.5145	1397.6782	1418.2176	1466.8196	1482.8108	1491.5417	1501.5626	1669.6405	3007.6235	3026.4912	3038.7106	3083.3436	3109.843	3114.5347	3183.6937	3202.0742	3208.7836	3808.2737
CC12CC1(O)C=CC2	C[C@@]12C[C@]1(O)C=CC2	
InChI=1S/C7H10O/c1-6-3-2-4-7(6,8)5-6/h2,4,8H,3,5H2,1H3	InChI=1S/C7H10O/c1-6-3-2-4-7(6,8)5-6/h2,4,8H,3,5H2,1H3/t6-,7-/m1/s1
