18
gdb 42067	2.55051	1.66052	1.10335	1.1608	79.29	-0.247	0.0024	0.2494	1096.9697	0.149068	-401.905772	-401.897672	-401.896727	-401.938252	30.851	
C	 0.0429372519	 1.2189136287	 0.5032275897	-0.182766
C	 1.3174518841	 2.0340725975	 0.1617743286	-0.154764
N	 2.4832285219	 1.4440525194	 0.8153147008	-0.201721
C	 3.4388335056	 0.9266136077	 0.1824578638	 0.107284
O	 3.6215211658	 0.8881197859	-1.1817615823	-0.225478
C	 3.3400392458	-0.4073538633	-1.7639499877	-0.212249
C	 1.9181116952	-0.6752095436	-1.5756354076	-0.064981
C	 0.8138483659	-0.4471931044	-1.148811566	 0.195911
C	-0.3726112378	 0.1485519307	-0.5566200781	-0.348743
H	 0.2165696374	 0.7269548353	 1.4643936322	 0.125924
H	-0.8053249609	 1.8980890229	 0.6373980227	 0.101859
H	 1.4373285133	 2.1391436617	-0.9225660023	 0.112051
H	 1.2033249266	 3.036855717	 0.5879548486	 0.107883
H	 4.2532910358	 0.4539289687	 0.7401064747	 0.105921
H	 3.6250751561	-0.3194286422	-2.8152057201	 0.144612
H	 3.973641703	-1.179016157	-1.3038382251	 0.12727
H	-1.0231862269	-0.5964987751	-0.0851534441	 0.129791
H	-0.9691312231	 0.6231234202	-1.3460871878	 0.132197
102.5065	163.2954	211.3293	240.9245	258.1203	332.4506	359.0798	387.6368	509.0191	554.8668	619.8503	683.767	737.4515	824.0073	859.7056	896.3543	924.2837	964.624	1018.2821	1030.6835	1033.9621	1070.5443	1097.8203	1160.7267	1208.9148	1240.0992	1259.3788	1270.1982	1337.5434	1357.7656	1370.4699	1378.3865	1411.4941	1473.977	1483.8453	1485.6107	1496.4479	1748.1192	2340.7412	3007.8869	3025.334	3029.2412	3048.4946	3061.6866	3074.0171	3084.1511	3096.1311	3101.9981
C1CN=COCC#CC1	C1CN=COC[C][C]C1	
InChI=1S/C7H9NO/c1-2-4-6-9-7-8-5-3-1/h7H,1,3,5-6H2/b8-7-	InChI=1S/C7H9NO/c1-2-4-6-9-7-8-5-3-1/h7H,1,3,5-6H2/b8-7-
