21
gdb 114307	2.22695	1.27638	1.12582	2.8654	78.56	-0.2376	0.068	0.3057	1229.1491	0.181414	-424.189561	-424.1799	-424.178955	-424.223641	36.49	
C	-0.0826937551	 1.5169766496	-0.0062694185	-0.49639
C	-0.0025194924	 0.0148339568	-0.016477028	 0.282382
C	-0.8224698583	-0.8385911109	 0.8954723541	 0.055367
O	-1.659379388	-1.8514402248	 0.4020778902	-0.418545
C	 0.6675255326	-0.9750410865	 0.9851606742	-0.16791
C	 1.1891603573	-1.8264516133	-0.1775163114	-0.265358
C	 0.5921019405	-0.7925945077	-1.1880865834	-0.030755
C	-0.3070312245	-1.2665530222	-2.3246804433	-0.107893
O	 0.4379206621	-1.9329544922	-3.3409010604	-0.422076
H	 0.8720689402	 1.967337332	-0.3006686665	 0.11813
H	-0.8475684851	 1.8774912562	-0.7050101309	 0.125702
H	-0.340228698	 1.8986681355	 0.9871233273	 0.116463
H	-1.2620022184	-0.2730808544	 1.7192369474	 0.084145
H	-1.6761078704	-2.563533228	 1.0509481569	 0.284741
H	 1.2081907559	-0.7635886947	 1.9014982788	 0.081912
H	 2.2777674984	-1.8881635327	-0.220595968	 0.103397
H	 0.7760017034	-2.8402853285	-0.2264181098	 0.084127
H	 1.4124990254	-0.2186872356	-1.6329148444	 0.07739
H	-1.1155659621	-1.8963306166	-1.936559216	 0.113108
H	-0.7667667049	-0.4014851203	-2.8166402561	 0.101253
H	 0.7643168814	-2.7559684818	-2.9639571823	 0.280808
86.605	150.3342	163.5829	188.8152	224.9472	256.5161	276.2012	293.7505	303.3851	373.1749	442.4897	511.3694	577.9237	621.886	759.8765	802.1606	840.0358	872.0708	897.1221	969.0024	983.9114	1009.5319	1039.2986	1045.3834	1086.3812	1100.3367	1118.2364	1152.1287	1162.6386	1213.0628	1235.5891	1240.6521	1265.7247	1296.8518	1312.3793	1336.9575	1355.7283	1396.6428	1414.8764	1419.6372	1469.1545	1487.0106	1491.6507	1502.6542	1511.5169	3020.2894	3034.695	3038.5026	3043.1902	3079.0726	3081.767	3085.5903	3096.0181	3111.1808	3166.3239	3797.0326	3818.496
CC12C(O)C1CC2CO	C[C@]12[C@@H](O)[C@H]1C[C@H]2CO	
InChI=1S/C7H12O2/c1-7-4(3-8)2-5(7)6(7)9/h4-6,8-9H,2-3H2,1H3	InChI=1S/C7H12O2/c1-7-4(3-8)2-5(7)6(7)9/h4-6,8-9H,2-3H2,1H3/t4-,5+,6-,7+/m0/s1
