17
gdb 36129	4.06133	1.13067	1.00123	2.0686	78.53	-0.2468	0.0016	0.2484	1199.3654	0.13475	-384.644525	-384.636466	-384.635522	-384.677379	31.122	
C	-0.0413533911	-1.1964231975	 0.3058436037	-0.449053
C	-0.0504902255	-0.0079621094	 0.1297886339	 0.306955
C	-0.0425822002	 1.4341074991	-0.1003231196	-0.453555
C	 1.355336464	 2.0068669031	-0.2145404273	 0.398073
O	 2.0127265403	 2.3338178991	 1.0321139014	-0.291866
C	 1.7309884302	 3.3948728349	 0.1127722328	-0.035644
C	 2.9090051319	 3.7938992472	-0.768557912	-0.296256
C	 3.1877216881	 2.5261534793	-1.5532484142	-0.075509
C	 2.3203322422	 1.5529316441	-1.267097886	-0.131209
H	-0.0386474272	-2.244827532	 0.4737464399	 0.198495
H	-0.5965725326	 1.659024815	-1.0214298467	 0.136686
H	-0.5607890138	 1.9458271066	 0.7182650782	 0.142527
H	 1.0197512688	 4.1383424551	 0.4645869783	 0.093115
H	 2.6485404342	 4.634938999	-1.4239523345	 0.113224
H	 3.7723116453	 4.1103854716	-0.1707815242	 0.128361
H	 4.0274623306	 2.4387686252	-2.2334115682	 0.103327
H	 2.3056248348	 0.5549338796	-1.6860393756	 0.11233
58.3135	107.7686	233.4551	270.2646	332.0668	346.1083	414.5419	464.9777	510.4089	621.5507	645.1488	706.4201	717.8454	741.7718	794.8981	850.1203	906.8964	928.7889	942.4898	959.3973	973.4173	991.3958	1007.5023	1061.087	1130.4338	1181.5673	1186.7007	1264.7092	1273.6244	1305.7846	1337.5263	1372.9433	1440.5678	1452.0035	1459.2706	1664.5993	2241.4627	3021.8316	3027.9931	3064.1014	3069.5994	3141.3652	3193.9313	3225.2552	3506.4355
C#CCC12OC1CC=C2	C#CC[C@]12O[C@H]1CC=C2	
InChI=1S/C8H8O/c1-2-5-8-6-3-4-7(8)9-8/h1,3,6-7H,4-5H2	InChI=1S/C8H8O/c1-2-5-8-6-3-4-7(8)9-8/h1,3,6-7H,4-5H2/t7-,8+/m0/s1
