13
gdb 28665	6.03922	1.04072	0.88774	2.8373	79.33	-0.24	-0.0466	0.1933	1204.705	0.089669	-415.621155	-415.613794	-415.61285	-415.652949	27.963	
O	 0.0650810794	 1.3695171071	 0.1234729004	-0.428656
C	 0.0594197717	 0.0188100246	 0.0382528539	 0.339416
C	 0.0869701936	-0.698394782	-1.1574131719	-0.130767
N	 0.0800705047	-2.0259487232	-1.1906265013	-0.263866
C	 0.0449693573	-2.6591909895	-0.0090257022	 0.175946
N	 0.016477001	-2.0636690418	 1.1951839571	-0.268664
C	 0.0237927121	-0.7378613062	 1.2123753523	-0.066003
C	 0.0371905833	-4.0907756627	-0.031776341	 0.253422
C	 0.0306202977	-5.2929710023	-0.0504981317	-0.352771
H	 0.0908570945	 1.7513015398	-0.7615116178	 0.307515
H	 0.1154899049	-0.1794373108	-2.1165570781	 0.108326
H	 0.00103051	-0.2406934737	 2.179195821	 0.129683
H	 0.0248160499	-6.3548384395	-0.0663092206	 0.196419
93.1733	153.4327	261.3041	374.1945	378.4386	432.2465	460.4275	461.859	541.8131	558.2371	630.7739	652.059	666.3909	731.1207	827.3184	865.463	936.2826	971.3252	1041.0435	1182.3916	1259.1103	1286.9381	1307.8505	1322.9226	1439.3416	1477.4482	1590.361	1627.0289	2239.88	3118.0776	3164.2953	3503.3875	3804.4159
OC1=CN=C(N=C1)C#C	Oc1cnc(nc1)C#C	
InChI=1S/C6H4N2O/c1-2-6-7-3-5(9)4-8-6/h1,3-4,9H	InChI=1S/C6H4N2O/c1-2-6-7-3-5(9)4-8-6/h1,3-4,9H
