19
gdb 94882	2.64056	1.79668	1.42755	2.5833	73.95	-0.2451	0.0684	0.3135	986.2716	0.159647	-422.981969	-422.974276	-422.973332	-423.013789	30.616	
C	 0.1775947433	 1.4256212918	-0.302758427	-0.401578
C	-0.1673179478	 0.0197655483	 0.1846632707	 0.042674
O	-0.1049557195	-0.9474263374	-0.8890283619	-0.278958
C	 1.1260951599	-1.6854102554	-0.8663586156	-0.162481
C	 1.6063755739	-1.5678260883	 0.5527530691	 0.270587
C	 2.8888432613	-1.1237289436	 1.2857278457	-0.292187
C	 2.0372658238	-0.0037886479	 1.9890828281	-0.300436
C	 0.8124299872	-0.5164753566	 1.1999860885	 0.28203
O	 0.6174557049	-1.8921224829	 1.531717919	-0.295775
H	 1.2088433978	 1.4814556452	-0.6667495326	 0.114505
H	-0.4875290186	 1.7027157509	-1.1241561775	 0.131499
H	 0.0571069538	 2.1576646698	 0.5028061471	 0.118996
H	-1.2034662401	-0.0077330474	 0.5404886887	 0.095971
H	 0.8939909987	-2.7031653696	-1.1952946715	 0.11902
H	 1.8744222738	-1.2584088732	-1.5520351602	 0.096085
H	 3.3457204872	-1.8818546543	 1.9246212342	 0.116745
H	 3.6436104986	-0.7122727083	 0.611880057	 0.112205
H	 1.9391342078	-0.060522427	 3.0748398821	 0.11655
H	 2.3500811239	 1.0023289958	 1.704073506	 0.114545
119.737	180.4008	234.5154	251.527	302.1878	371.3907	439.9537	486.3448	516.8607	640.3565	687.1975	751.6583	765.5743	791.8572	841.6791	888.2521	934.1829	939.7812	978.2114	992.4477	1023.4659	1076.0042	1089.3143	1121.599	1130.2009	1188.3654	1215.434	1228.1618	1229.1801	1263.8243	1274.2071	1329.7953	1359.9016	1381.8669	1403.6028	1420.0158	1464.5949	1484.1945	1489.1076	1497.5533	1509.9213	2985.8105	3036.8061	3043.9374	3070.4776	3073.3218	3078.0744	3106.1828	3122.671	3125.2744	3139.833
CC1OCC23CCC12O3	C[C@H]1OC[C@@]23CC[C@@]12O3	
InChI=1S/C7H10O2/c1-5-7-3-2-6(7,9-7)4-8-5/h5H,2-4H2,1H3	InChI=1S/C7H10O2/c1-5-7-3-2-6(7,9-7)4-8-5/h5H,2-4H2,1H3/t5-,6+,7-/m1/s1
