18
gdb 52845	3.0925	0.99131	0.91744	1.611	81.32	-0.2485	0.0181	0.2665	1374.9258	0.146414	-401.940738	-401.931166	-401.930222	-401.977547	33.314	
C	-0.0825114422	 1.4250774859	 0.0637876841	-0.498752
C	-0.0181980318	-0.0287199535	 0.0211030595	 0.022707
C	 0.020292923	-1.2313317887	-0.0196925939	 0.123791
C	 0.0964476491	-2.6926399064	-0.0589737857	 0.067306
C	 0.9709751919	-3.1567192394	-1.2370612001	-0.415234
C	 0.5871208461	-3.2816770651	 1.3103205828	-0.141769
O	-0.4866760847	-4.1475826295	 1.7381955541	-0.219966
C	-1.4457610927	-4.0266794925	 0.7916336954	 0.118367
N	-1.2681710093	-3.2779360534	-0.2133537701	-0.274943
H	 0.5731277731	 1.8757773687	-0.6893261859	 0.148699
H	-1.1012106885	 1.7790378779	-0.1288160227	 0.153633
H	 0.2223250477	 1.8098390625	 1.0432269566	 0.147409
H	 1.9828996201	-2.7508342213	-1.1462385413	 0.120195
H	 1.025000425	-4.2494821071	-1.2538682251	 0.117554
H	 0.5380926285	-2.8144099721	-2.1791120918	 0.139868
H	 1.4944835155	-3.8831342432	 1.2090698723	 0.119524
H	 0.7372364728	-2.5139329035	 2.0712700191	 0.128895
H	-2.3349378438	-4.6179589195	 0.9823170027	 0.142716
14.2066	40.5191	106.1954	117.7685	248.1184	282.9726	289.3348	332.6851	348.4111	473.5866	498.7183	540.8387	623.0444	771.0088	846.9338	858.323	943.2619	961.7938	969.8016	978.0674	1051.5012	1054.04	1069.3403	1113.7211	1137.5873	1171.8984	1215.1397	1288.4767	1321.0946	1370.1347	1402.8995	1414.0743	1477.6193	1478.3098	1482.4956	1491.563	1514.8733	1703.5483	2371.2788	3027.4353	3040.5144	3062.2798	3088.1452	3089.7795	3114.9555	3120.9229	3136.9799	3211.9106
CC#CC1(C)COC=N1	CC#C[C@@]1(C)COC=N1	
InChI=1S/C7H9NO/c1-3-4-7(2)5-9-6-8-7/h6H,5H2,1-2H3	InChI=1S/C7H9NO/c1-3-4-7(2)5-9-6-8-7/h6H,5H2,1-2H3/t7-/m0/s1
