15
gdb 79495	2.27857	1.93403	1.2373	6.3385	70.58	-0.2462	0.0171	0.2633	983.8742	0.113359	-416.714544	-416.70722	-416.706275	-416.74633	28.045	
O	-0.0406078231	 1.4656918111	-0.0987078467	-0.430282
C	 0.048666273	 0.0677773964	-0.0441296703	 0.048588
C	 0.0520757097	-0.6096153506	 1.3421609583	-0.13784
C	-1.4832538574	-0.3417404723	 1.5480128724	-0.049498
N	-1.8528033262	-1.7664762204	 1.8185031102	-0.335303
C	-0.7523997472	-1.843650903	 0.8057991529	-0.068408
C	-1.3256902342	-0.6200855091	 0.007711132	 0.249234
C	-2.3626302785	-0.6411105021	-0.986173354	 0.164092
N	-3.1777897009	-0.6483409297	-1.8060909691	-0.345682
H	 0.8481620202	 1.8328371042	-0.1255527943	 0.293998
H	 0.7488340594	-0.3375973779	-0.7859253058	 0.087313
H	 0.819412956	-0.6215536226	 2.1156396215	 0.088913
H	-1.975497646	 0.5121258522	 2.0081255272	 0.114661
H	-1.5045235266	-2.0515691229	 2.7379001079	 0.21533
H	-0.3798465681	-2.7761419234	 0.3832685278	 0.104882
127.5249	166.4395	205.6747	231.3156	311.435	438.2504	515.7463	570.5039	573.856	602.9143	752.7507	797.9761	848.1075	876.4305	907.2458	920.0551	953.5267	1004.9252	1059.822	1080.4008	1096.972	1120.34	1129.3086	1164.1006	1179.5293	1217.3494	1250.392	1253.0359	1291.6965	1307.0172	1334.0335	1446.1217	2355.2673	3025.3699	3123.0893	3132.5574	3151.5881	3405.8176	3830.3562
OC1C2C3NC2C13C#N	O[C@H]1[C@H]2[C@@H]3N[C@H]2[C@]13C#N	
InChI=1S/C6H6N2O/c7-1-6-3-2(5(6)9)4(6)8-3/h2-5,8-9H	InChI=1S/C6H6N2O/c7-1-6-3-2(5(6)9)4(6)8-3/h2-5,8-9H/t2-,3-,4+,5-,6+/m0/s1
