17
gdb 75112	3.45914	1.26945	0.96606	2.3102	80.05	-0.1946	-0.0235	0.171	1197.7799	0.138284	-418.068048	-418.059868	-418.058924	-418.100785	31.142	
C	-0.2933661328	 1.4965553511	 0.0729097085	-0.479836
C	 0.055024979	 0.0313680805	-0.0006968301	 0.26013
C	 0.042778667	-0.6104596135	-1.1777396495	-0.111758
N	 0.378694448	-1.960895464	-1.4046535743	-0.358805
C	-0.0331643619	-3.0780080306	-0.6931847834	 0.427966
O	-0.1204074232	-4.1690651432	-1.2151842144	-0.377457
N	-0.3336282221	-2.8972045234	 0.6548400969	-0.361951
C	 0.2102720244	-1.9346429448	 1.5206254533	-0.026005
C	 0.3894120812	-0.635812175	 1.2532056321	-0.168645
H	 0.5119247983	 2.0632546103	 0.5571416699	 0.124222
H	-0.4558813563	 1.9237815684	-0.9202019639	 0.120037
H	-1.1996573477	 1.6669854769	 0.6668085747	 0.129231
H	-0.2179145945	-0.076876024	-2.0869634067	 0.10393
H	 0.5217178086	-2.2145904647	-2.3705433987	 0.2566
H	-0.5486314595	-3.790480877	 1.0715068338	 0.257215
H	 0.4735444705	-2.3322587595	 2.4960342626	 0.113679
H	 0.7959080112	-0.0209036874	 2.0506670293	 0.091448
90.6525	124.804	185.2683	265.9235	316.374	350.4865	366.9953	411.805	515.9727	573.2663	588.4561	642.5245	723.3819	769.4056	775.0156	797.6451	840.5097	910.7656	933.9665	941.4542	1005.6568	1066.403	1088.8172	1189.5462	1213.8124	1265.0239	1301.9954	1412.8368	1417.8696	1457.7341	1471.3513	1477.276	1490.2447	1499.7543	1708.5698	1734.2983	1813.178	3018.7378	3066.101	3110.9061	3161.934	3167.4412	3182.131	3625.4074	3627.9472
CC1=CNC(=O)NC=C1	Cc1c[nH]c(=O)[nH]cc1	
InChI=1S/C6H8N2O/c1-5-2-3-7-6(9)8-4-5/h2-4H,1H3,(H2,7,8,9)	InChI=1S/C6H8N2O/c1-5-2-3-7-6(9)8-4-5/h2-4H,1H3,(H2,7,8,9)
