19
gdb 112205	2.54024	1.23774	0.93594	1.3475	77.03	-0.2421	-0.0235	0.2186	1269.563	0.157759	-423.017112	-423.007975	-423.007031	-423.051601	33.714	
O	-0.0472071253	 1.5277852487	 0.1321665843	-0.418097
C	-0.0757952079	 0.1314904794	 0.3760001721	-0.073555
C	-1.3979156664	-0.50902271	-0.0286528972	-0.121084
C	-1.632312403	-0.6472245186	-1.5745536319	-0.389017
C	-1.7057886478	-2.177133779	-1.3830839443	 0.359385
O	-1.8815910311	-3.1075236125	-2.1192586661	-0.314256
C	-1.4816551292	-2.0460486428	 0.0933028729	 0.224423
C	-0.6772004608	-3.0143409496	 0.9399759205	-0.313904
C	-2.1529090494	-2.9075385288	 1.1412524525	-0.307495
H	-0.1532915933	 1.6638457137	-0.8151270361	 0.284227
H	 0.7570738787	-0.3854401039	-0.1290695659	 0.088421
H	 0.0828169149	 0.0190920968	 1.4542668085	 0.109712
H	-2.2166668948	 0.0128713906	 0.4746880331	 0.086488
H	-2.550120089	-0.2015331926	-1.9667336214	 0.135249
H	-0.7948960203	-0.3320911693	-2.2078450707	 0.120979
H	-0.2866132067	-3.8879931699	 0.4291340622	 0.137977
H	-0.0215818656	-2.5905476154	 1.6928340494	 0.127405
H	-2.5177974024	-2.4018265949	 2.0291215854	 0.125656
H	-2.7845125203	-3.7089767218	 0.7727544927	 0.137487
47.6709	104.825	135.4564	186.4208	206.1306	260.2167	317.2675	369.8317	416.3694	501.0193	535.598	604.8422	726.2901	786.5594	806.7075	823.2422	883.0549	915.7787	942.8739	993.2873	1033.8799	1047.9709	1065.666	1069.0175	1086.3999	1096.0862	1135.8741	1188.0015	1198.8885	1227.8081	1233.2963	1256.5323	1335.635	1355.8348	1388.3061	1421.3791	1436.5713	1458.3499	1489.7017	1503.848	1878.4428	2968.6054	3044.9258	3060.3432	3073.0808	3109.3736	3130.5173	3134.5446	3214.9112	3229.9172	3811.2145
OCC1CC(=O)C11CC1	OC[C@H]1CC(=O)C21CC2	
InChI=1S/C7H10O2/c8-4-5-3-6(9)7(5)1-2-7/h5,8H,1-4H2	InChI=1S/C7H10O2/c8-4-5-3-6(9)7(5)1-2-7/h5,8H,1-4H2/t5-/m1/s1
