18
gdb 105020	2.53012	1.35985	1.01735	6.1957	71.95	-0.2774	0.0237	0.3011	1176.1891	0.146421	-439.07153	-439.062172	-439.061227	-439.105864	34.541	
O	 0.1388070382	 1.2907887341	-0.278393982	-0.422623
C	-0.0349364772	-0.0271226095	 0.259627734	-0.168915
C	-1.4504137511	-0.4789965971	-0.0123203062	 0.304736
C	-1.7586886052	-1.0594024725	-1.3698507256	-0.285578
C	-1.6722485174	-1.9653443772	-0.1697612026	-0.325114
C	-2.4965880516	 0.4063252661	 0.6768266578	-0.065676
O	-2.5693152142	 1.701023862	 0.1157187511	-0.430952
C	-3.8482491671	-0.1794943679	 0.6149637721	 0.289769
N	-4.895211201	-0.6661077075	 0.5828630681	-0.333851
H	 0.9404186243	 1.6752645457	 0.0889655363	 0.299476
H	 0.6727705758	-0.7256418676	-0.2074187878	 0.102554
H	 0.1584065626	-0.0244860081	 1.3429929573	 0.102836
H	-2.741209431	-0.8656849465	-1.7847590945	 0.145071
H	-0.9581520698	-1.0830071755	-2.1006973799	 0.121499
H	-0.8078075656	-2.6131544822	-0.0688361067	 0.113348
H	-2.5938241903	-2.3858665176	 0.2149413182	 0.147201
H	-2.2354961232	 0.4613043566	 1.7495261527	 0.105254
H	-1.6566511461	 1.9410878247	-0.1088164221	 0.300965
46.802	119.7274	150.2285	217.9837	252.405	266.073	298.5458	335.2246	352.6313	412.4442	500.8328	526.1956	579.9042	609.0011	764.432	788.0837	882.4028	944.261	961.6673	968.6499	990.4044	1039.1271	1050.7866	1067.4941	1091.7748	1095.9225	1188.2525	1235.1797	1240.9949	1273.1781	1323.7023	1340.8429	1367.0859	1441.7051	1470.9605	1480.4347	1504.8813	1518.9064	2364.9909	2935.8269	2986.0916	3029.7984	3137.6679	3142.5049	3221.2115	3233.2815	3688.7564	3832.0924
OCC1(CC1)C(O)C#N	OCC1(CC1)[C@@H](O)C#N	
InChI=1S/C6H9NO2/c7-3-5(9)6(4-8)1-2-6/h5,8-9H,1-2,4H2	InChI=1S/C6H9NO2/c7-3-5(9)6(4-8)1-2-6/h5,8-9H,1-2,4H2/t5-/m0/s1
