16
gdb 6352	5.36731	1.13563	0.94844	4.0249	64.07	-0.2543	-0.0054	0.2489	1203.4022	0.129249	-417.107888	-417.098738	-417.097794	-417.143069	30.88	
C	-1.7607334162	 1.742780751	 0.7302677935	-0.226078
O	-2.1323700074	 0.3753261168	 0.9092465044	-0.265242
C	-1.7104564566	-0.4690521198	-0.0587939018	 0.508563
N	-1.0353322598	-0.1045073251	-1.0603026516	-0.575938
N	-2.1658530992	-1.7532897359	 0.2854016797	-0.39968
C	-1.9543528482	-2.9123612553	-0.434713367	 0.420742
C	-2.5741014513	-4.1456537712	 0.1984631402	-0.498627
O	-1.3311908801	-2.9425062625	-1.4765906898	-0.340924
H	-2.1761475723	 2.2741667187	 1.5874428611	 0.126197
H	-0.673004178	 1.8469534253	 0.7013529787	 0.142653
H	-2.17104728	 2.1356356144	-0.2036201657	 0.142663
H	-0.8325447985	-0.9078705313	-1.6524616174	 0.255243
H	-2.693654102	-1.8028584078	 1.1434446619	 0.260284
H	-2.3614317001	-5.0063599579	-0.4340756153	 0.15884
H	-2.1615774731	-4.3185524405	 1.1980210804	 0.145749
H	-3.6580856372	-4.0281072187	 0.3000138487	 0.145556
27.6714	80.9343	105.7929	155.0773	176.7113	184.3117	324.8156	357.2134	415.0872	542.3135	578.9084	616.9562	718.3728	731.7617	903.8337	921.9863	949.4668	1013.3403	1052.8869	1086.8227	1130.6949	1184.9157	1218.136	1239.3073	1360.3627	1391.3161	1464.228	1474.7466	1475.7673	1482.2391	1500.422	1522.712	1744.0735	1810.8019	3043.9351	3049.4795	3106.7828	3124.0227	3151.7489	3168.0974	3517.9114	3627.6575
COC(=N)NC(C)=O	COC(=N)NC(=O)C	
InChI=1S/C4H8N2O2/c1-3(7)6-4(5)8-2/h1-2H3,(H2,5,6,7)	InChI=1S/C4H8N2O2/c1-3(7)6-4(5)8-2/h1-2H3,(H2,5,6,7)
