21
gdb 69828	3.05093	1.5243	1.2215	2.8927	81.45	-0.2251	0.0664	0.2915	1091.1269	0.185759	-383.240534	-383.232733	-383.231789	-383.272271	32.044	
C	-0.0409777416	 1.5151976191	 0.0420449092	-0.447468
C	 0.0100826846	 0.0022486334	 0.0352035236	 0.321114
C	-1.2192501554	-0.6648586787	-0.5677128444	-0.26398
C	-1.1731934416	-2.204197117	-0.6068257909	-0.250122
C	-0.7329976729	-2.8173685337	 0.7160552301	-0.028828
N	 0.6780355124	-3.2399968981	 0.8008137467	-0.341181
C	 0.2279162838	-2.0667933551	 1.572036998	-0.037316
C	 0.7259988849	-0.7149763633	 1.133967948	-0.048127
N	 1.3549620132	-0.5561901317	-0.1871683841	-0.377542
H	 0.8650780936	 1.9268399318	 0.4934224218	 0.124648
H	-0.1150833877	 1.9076920985	-0.9789238193	 0.114591
H	-0.9088388166	 1.8776887103	 0.6050325755	 0.108085
H	-2.0924368805	-0.3402727727	 0.0151036204	 0.09925
H	-1.3767769322	-0.2835896649	-1.584623719	 0.100795
H	-2.1648435632	-2.5785197581	-0.8802585873	 0.100084
H	-0.4910238532	-2.5425193287	-1.3941625851	 0.117042
H	-1.4661014888	-3.4368588319	 1.226560797	 0.084245
H	 0.7795611608	-4.047931441	 1.4086938955	 0.231758
H	 0.134542624	-2.1828822511	 2.649118001	 0.079204
H	 1.1960421858	-0.1291053635	 1.9218090176	 0.076964
H	 1.3261820407	-1.4568624236	-0.6621947742	 0.236784
160.812	184.2702	206.5542	274.9226	345.0608	371.6842	404.0776	475.8414	489.4788	584.4607	679.2299	689.4017	774.921	791.8493	827.781	872.5211	898.1017	919.8556	957.0792	967.9294	1012.1091	1039.2034	1044.1356	1052.7572	1104.9599	1119.0345	1143.245	1155.467	1172.7575	1209.5239	1232.246	1254.426	1278.0023	1291.2881	1336.4958	1361.1668	1381.3842	1406.4928	1414.3704	1442.7762	1452.557	1482.1963	1490.2965	1493.7649	1500.2951	3010.0007	3026.5217	3038.9383	3051.1024	3081.9442	3085.6303	3112.0642	3119.6546	3130.1556	3140.2558	3487.4424	3508.0792
CC12CCC3NC3C1N2	C[C@]12CC[C@H]3N[C@H]3[C@H]1N2	
InChI=1S/C7H12N2/c1-7-3-2-4-5(8-4)6(7)9-7/h4-6,8-9H,2-3H2,1H3	InChI=1S/C7H12N2/c1-7-3-2-4-5(8-4)6(7)9-7/h4-6,8-9H,2-3H2,1H3/t4-,5-,6-,7+/m1/s1
