19
gdb 8514	4.31408	1.81169	1.58994	1.7431	75.33	-0.228	0.0853	0.3134	893.9474	0.165381	-327.87418	-327.866706	-327.865762	-327.905199	29.722	
C	-0.1054302731	 1.4947773925	-0.0093844262	-0.496561
C	-0.0034113168	 0.0036233244	-0.0623298135	 0.357848
C	 0.8740391875	-0.8545629115	-0.9750758034	-0.324948
C	 0.0673019807	-2.0743688883	-0.4432985014	 0.302459
C	-0.082992034	-3.3378466195	-1.2468545363	-0.510845
C	 0.4595710287	-2.0604397079	 1.0463398532	-0.18252
N	-0.2516069329	-0.7533665942	 1.2223697665	-0.184715
C	-1.0543522725	-1.0417158151	-0.0041009464	-0.153287
H	 0.8309276973	 1.9389712408	 0.3473453232	 0.122115
H	-0.319592282	 1.9095931141	-1.000373357	 0.115022
H	-0.9019767712	 1.7992297647	 0.6748533564	 0.132483
H	 0.6514813803	-0.6469803208	-2.0262549891	 0.097842
H	 1.9602835744	-0.8596974731	-0.8218423303	 0.087285
H	 0.8877419939	-3.8300199523	-1.3818155312	 0.120898
H	-0.7507306546	-4.0502061078	-0.7498323953	 0.118659
H	-0.4910038076	-3.1340683934	-2.242892501	 0.118396
H	-0.0618906457	-2.8187868703	 1.6384024417	 0.10113
H	 1.5263126077	-2.0578426671	 1.3046945386	 0.089662
H	-2.1366402798	-1.0210893953	-0.0435688887	 0.089077
187.7606	198.0441	210.9147	246.9093	314.3225	346.5908	448.5007	462.9202	572.2155	628.8483	715.4992	754.8064	826.6262	837.7333	904.8073	926.1136	967.2141	979.6131	999.028	1017.3695	1024.6207	1056.1997	1119.9924	1142.6413	1154.9369	1173.5256	1193.4109	1227.5518	1263.1783	1282.8726	1355.9488	1393.7751	1414.6745	1434.0751	1484.4077	1488.5703	1491.3752	1493.7237	1495.5514	1514.8801	3016.7102	3021.3511	3027.0109	3030.9676	3084.5427	3085.5427	3088.5988	3090.2309	3092.7272	3116.2787	3188.0427
CC12CC3(C)CN1C23	C[C@@]12C[C@@]3(C)CN1[C@@H]23	
InChI=1S/C7H11N/c1-6-3-7(2)5(6)8(7)4-6/h5H,3-4H2,1-2H3	InChI=1S/C7H11N/c1-6-3-7(2)5(6)8(7)4-6/h5H,3-4H2,1-2H3/t5-,6+,7+,8?/m1/s1
