16
gdb 22600	2.3067	1.39808	1.26397	0.5313	68.95	-0.2482	0.0181	0.2663	1074.09	0.122406	-474.913586	-474.905021	-474.904077	-474.946537	32.601	
O	-0.1687436531	 1.3876506696	 0.0784017415	-0.401994
N	 0.0064857088	-0.0193135432	 0.0128870334	-0.325943
C	-1.1014194135	-0.6170178565	-0.0443289017	 0.374776
C	-2.6116212797	-0.4310632179	-0.0026025974	-0.204288
C	-2.6662462924	-1.5761154534	-1.0745663475	-0.269347
C	-1.5963523716	-2.0675028716	-0.0609720999	 0.285276
O	-0.9013580307	-3.2415173622	-0.167422946	-0.457025
C	-2.5919262388	-1.5820383559	 1.0667250101	 0.108468
O	-2.1322509003	-1.3572425272	 2.362221681	-0.450354
H	 0.7428031211	 1.6993107969	 0.0735211096	 0.305793
H	-3.1770416088	 0.4931195899	 0.0177297772	 0.11138
H	-3.593151463	-2.1546488426	-1.0988118905	 0.109228
H	-2.3084770654	-1.3210941444	-2.0712886556	 0.124154
H	-0.352634034	-3.3447351881	 0.6188449227	 0.297763
H	-3.5169710045	-2.1581924948	 1.1389420238	 0.100219
H	-1.3513909639	-0.7897192386	 2.3193690994	 0.291893
97.7319	142.3377	192.7866	262.0562	280.7846	309.7831	343.6062	368.9406	403.7581	480.243	554.2813	585.1453	696.5588	729.8421	758.3332	781.3789	876.7611	911.6857	934.9183	946.1323	1006.9888	1044.3193	1067.842	1123.2993	1142.9743	1169.202	1206.7982	1219.3137	1292.3504	1312.1529	1390.2237	1415.664	1442.9476	1519.2853	1813.2564	3070.4372	3102.1636	3155.7721	3199.1466	3761.5001	3801.2204	3816.2894
ON=C1C2CC1(O)C2O	ON=C1[C@H]2C[C@]1(O)[C@H]2O	
InChI=1S/C5H7NO3/c7-4-2-1-5(4,8)3(2)6-9/h2,4,7-9H,1H2	InChI=1S/C5H7NO3/c7-4-2-1-5(4,8)3(2)6-9/h2,4,7-9H,1H2/t2-,4+,5-/m1/s1
