18
gdb 56840	3.13251	1.18953	1.01108	1.1734	78.41	-0.2332	0.0261	0.2592	1210.0407	0.146945	-401.813747	-401.805276	-401.804332	-401.847412	32.189	
O	 0.3227904326	 1.2538805245	-0.3249124316	-0.413438
C	-0.068401468	-0.1044525085	-0.1170086311	-0.132564
C	 0.2846943324	-0.9561787829	-1.2542018191	 0.324581
C	 0.6299632493	-1.6316130956	-2.186572999	-0.456529
C	 0.5804167696	-0.6192630034	 1.1726302769	 0.095955
C	 0.0874424079	-0.2017761919	 2.5791181518	-0.07974
C	-1.0745262805	-1.1885332836	 2.3379908827	-0.178572
N	 0.1277728356	-1.972325377	 1.7691245613	-0.156489
C	 0.8480423928	-1.4659455304	 3.0364272582	-0.170214
H	 1.223957004	 1.2460243931	-0.6665597011	 0.287211
H	-1.1572216738	-0.0665313604	-0.0245784356	 0.117893
H	 0.9130923565	-2.2383357921	-3.0112202365	 0.202988
H	 1.6675503207	-0.5969721117	 1.0283648089	 0.069358
H	 0.0687959896	 0.7956662884	 3.0293977758	 0.074233
H	-1.5194368227	-1.6689948345	 3.2133147276	 0.103434
H	-1.8468003642	-0.948148649	 1.6066640787	 0.106551
H	 1.9383048176	-1.475800874	 2.9525241545	 0.102291
H	 0.5117122906	-1.965420991	 3.9484684675	 0.103053
42.5944	109.1803	187.9242	211.2146	255.0403	312.9167	382.7191	467.7138	576.4404	594.9996	620.8736	639.3217	674.6269	763.8268	785.4008	856.7715	902.741	911.3302	934.3718	952.5392	1019.3147	1045.9403	1063.9038	1081.3189	1118.6889	1149.6231	1157.8306	1178.9312	1196.9089	1224.5172	1246.3718	1251.4199	1280.9178	1303.8725	1410.108	1436.176	1519.0666	1558.2732	2234.2777	3029.0002	3047.4939	3056.8574	3070.238	3078.6595	3119.9317	3132.3889	3501.5814	3805.2405
OC(C#C)C1C2CN1C2	O[C@@H](C#C)[C@H]1[C@H]2CN1C2	
InChI=1S/C7H9NO/c1-2-6(9)7-5-3-8(7)4-5/h1,5-7,9H,3-4H2	InChI=1S/C7H9NO/c1-2-6(9)7-5-3-8(7)4-5/h1,5-7,9H,3-4H2/t6-,7+/m0/s1
