18
gdb 55767	3.77907	1.08364	0.96041	3.7893	72.61	-0.2341	0.0377	0.2718	1240.1978	0.14742	-439.078897	-439.070306	-439.069362	-439.113044	32.254	
N	 0.4954363655	 0.1295321168	 0.6596578718	-0.512374
C	-0.3873310564	 0.2055240158	-0.373715156	 0.385816
O	-0.3431291954	 1.0669729553	-1.2295932949	-0.364055
C	-1.4944868403	-0.8627455274	-0.3513074563	-0.411767
C	-1.0213867942	-2.2383443831	 0.004018207	 0.464114
C	-0.4167336781	-3.2634131255	-0.9038722543	-0.324258
C	-1.6178824327	-3.6292718155	-0.0493998999	-0.193325
C	-1.1676363803	-3.7501245474	 1.3997175355	-0.089429
O	-0.5340682394	-2.43980413	 1.3488960644	-0.330357
H	 1.2528357137	 0.7923697324	 0.6802590397	 0.255835
H	 0.4786324087	-0.6365124233	 1.3157951945	 0.279528
H	-2.2594954995	-0.5408701536	 0.3664943297	 0.129627
H	-1.9474219197	-0.8634897712	-1.3443538417	 0.13488
H	-0.6353728669	-3.1380382934	-1.9596113665	 0.125628
H	 0.5650527033	-3.6725060159	-0.680444945	 0.116391
H	-2.5558034364	-3.9796957408	-0.4577808724	 0.107369
H	-1.9888933339	-3.7467258005	 2.1243020767	 0.115958
H	-0.4540038581	-4.5440081125	 1.6486095577	 0.110418
34.9405	78.1834	152.043	243.9422	306.0274	347.7297	379.8202	401.045	456.6226	532.0126	572.3936	681.6015	740.2737	762.7587	821.9921	877.9017	892.6143	931.3592	953.3167	975.1387	994.9804	1015.4339	1024.0285	1074.7287	1086.6708	1130.9539	1153.5927	1174.982	1249.4464	1262.4361	1313.6336	1339.519	1360.456	1405.6721	1455.2417	1487.9257	1519.3631	1631.6736	1803.4171	3029.5178	3037.297	3080.6582	3115.2047	3124.1021	3205.1968	3213.0065	3566.7608	3712.3251
NC(=O)CC12CC1CO2	NC(=O)C[C@]12C[C@H]1CO2	
InChI=1S/C6H9NO2/c7-5(8)2-6-1-4(6)3-9-6/h4H,1-3H2,(H2,7,8)	InChI=1S/C6H9NO2/c7-5(8)2-6-1-4(6)3-9-6/h4H,1-3H2,(H2,7,8)/t4-,6+/m0/s1
