18
gdb 6150	4.91296	1.11173	1.06636	3.4253	69.62	-0.2457	-0.0209	0.2248	1141.7052	0.15147	-384.943961	-384.935398	-384.934453	-384.977068	31.762	
C	-0.2517264095	 1.5312688857	-0.042837604	-0.453388
C	-0.0178317219	 0.0249746925	-0.0178462928	 0.427971
O	-1.2284511449	-0.685798859	-0.1768349289	-0.472814
C	 1.1810338442	-0.4349788779	-0.9054675415	-0.305105
C	 2.0790871912	-0.4644853865	 0.3715929311	-0.059722
C	 0.769109964	-0.4688022093	 1.2198270563	-0.284197
C	 2.9782057024	-1.6570280484	 0.5228598542	 0.161486
O	 4.1634478405	-1.6178115061	 0.7320588192	-0.254886
H	 0.6757273541	 2.0859156116	 0.1295775209	 0.12591
H	-0.6450771456	 1.8453197983	-1.0180634936	 0.11004
H	-0.9737206652	 1.8149395947	 0.7291510381	 0.128224
H	-1.7269897566	-0.2837027667	-0.8965202991	 0.275766
H	 0.9955878536	-1.4442117628	-1.2852016269	 0.111444
H	 1.5036069924	 0.2104933974	-1.7261227734	 0.104594
H	 2.6677516707	 0.4458362956	 0.4983770211	 0.089655
H	 0.7508208634	 0.1470549174	 2.121453361	 0.109941
H	 0.4595801182	-1.4877046506	 1.4707158358	 0.118515
H	 2.4441839191	-2.6334531758	 0.4195460526	 0.066568
76.761	79.9709	250.6207	266.4658	269.1873	290.3223	319.1651	354.5819	431.9696	452.3019	470.0121	650.4651	757.2404	827.1898	891.8047	899.0489	919.4206	943.8798	983.2166	1042.2304	1056.531	1079.4284	1128.1507	1180.6785	1190.8435	1232.7608	1258.9375	1268.5956	1289.3	1322.0757	1382.8342	1409.3802	1430.7289	1463.5726	1484.3889	1490.4379	1498.8664	1829.7612	2835.037	3022.013	3053.518	3060.9438	3089.92	3096.2052	3112.6194	3117.2385	3123.6403	3803.203
CC1(O)CC(C1)C=O	C[C@@]1(O)C[C@@H](C1)C=O	
InChI=1S/C6H10O2/c1-6(8)2-5(3-6)4-7/h4-5,8H,2-3H2,1H3	InChI=1S/C6H10O2/c1-6(8)2-5(3-6)4-7/h4-5,8H,2-3H2,1H3/t5-,6+
