19
gdb 52333	4.16164	0.81037	0.74335	4.3011	72.88	-0.264	0.0059	0.2698	1522.4059	0.159753	-460.186349	-460.17745	-460.176506	-460.221832	31.17	
O	 0.0123555831	 0.2014113123	 0.4983164857	-0.273063
C	 0.1953921914	 1.3797968155	 0.5517466404	 0.168734
O	 0.9622012022	 2.0389930963	-0.337503087	-0.184443
C	 1.0829258309	 3.4622483643	-0.2167438566	-0.092945
C	 2.5529672973	 3.8664965363	-0.2936386193	 0.00316
C	 2.6963100057	 5.4134274926	-0.2448810499	-0.265076
C	 3.3203067039	 5.6792578931	 1.1477625218	-0.068779
O	 3.1457320526	 4.4813620777	 1.8907735083	-0.241846
C	 3.3307321646	 3.4263138178	 0.9610785554	-0.100193
H	-0.2323009049	 2.0465830617	 1.3261934356	 0.081132
H	 0.5142566792	 3.9151978677	-1.0362771592	 0.119339
H	 0.6498361341	 3.799912326	 0.7342555112	 0.120722
H	 2.9831185083	 3.4405142558	-1.2034528842	 0.093448
H	 3.3302477176	 5.7902547317	-1.0501998076	 0.112876
H	 1.722138019	 5.9024581712	-0.3445969527	 0.108412
H	 4.391706556	 5.9145461229	 1.0499351864	 0.094835
H	 2.8404544057	 6.4906592953	 1.7001048404	 0.11242
H	 2.9599652082	 2.502058572	 1.4101978032	 0.118737
H	 4.3990230852	 3.2922013299	 0.7259335582	 0.09253
36.1086	58.288	95.9896	144.9214	205.6017	267.6241	330.3697	371.4402	439.2308	660.5788	682.0002	719.504	830.2832	860.2411	927.7747	943.3763	962.001	980.9463	1023.8064	1044.591	1049.507	1098.371	1122.3742	1148.134	1178.7083	1231.5373	1234.3696	1261.54	1284.9293	1305.4831	1309.6672	1350.0442	1377.3938	1394.0908	1405.2953	1433.4873	1498.7227	1504.1455	1510.9588	1527.3536	1866.4827	2943.8982	2974.6548	2982.6139	3018.3483	3056.6254	3069.4403	3085.9072	3096.6099	3106.1242	3111.8106
O=COCC1CCOC1	O=COC[C@H]1CCOC1	
InChI=1S/C6H10O3/c7-5-9-4-6-1-2-8-3-6/h5-6H,1-4H2	InChI=1S/C6H10O3/c7-5-9-4-6-1-2-8-3-6/h5-6H,1-4H2/t6-/m0/s1
