16
gdb 131174	3.15087	1.28399	0.98347	3.548	72.76	-0.2144	-0.0014	0.213	1175.1122	0.125858	-434.052101	-434.044225	-434.043281	-434.085341	29.437	
O	 0.3448800319	 1.3592822933	-0.0028014415	-0.434566
C	 0.1519221894	 0.0236866203	-0.0315085525	 0.277769
C	-0.0833862763	-0.7553680837	-1.1464134547	 0.285344
N	-0.1986050571	-1.9983661924	-0.5955919656	-0.264048
N	-0.0474991618	-1.9892127866	 0.7378713188	-0.130463
N	 0.1671902537	-0.7439195075	 1.0810851467	-0.279117
C	-0.1930343043	-0.4077568483	-2.5687848554	-0.089384
C	 0.3165686192	-1.327580312	-3.6619426406	-0.272577
C	-1.162418074	-1.1157239201	-3.4961188951	-0.272514
H	 0.4824846914	 1.5999882034	 0.9218275085	 0.307123
H	-0.3749723012	-2.8765081104	-1.0563132425	 0.277504
H	-0.0597914209	 0.6546860595	-2.7375666247	 0.113595
H	 0.8144996892	-0.8739260684	-4.5112720543	 0.127202
H	 0.7389327438	-2.2809258951	-3.3612926508	 0.113443
H	-1.7568123244	-1.9233965304	-3.0813868002	 0.113487
H	-1.6869921287	-0.5155971915	-4.230807676	 0.127203
38.8984	145.2543	155.4253	285.4126	312.885	345.217	441.2043	509.4321	541.8054	600.9071	707.2474	742.6382	743.4481	793.7009	818.4501	907.0526	917.3211	1006.684	1059.7466	1069.7302	1076.2071	1111.4202	1132.8395	1148.6143	1199.8493	1211.5214	1240.313	1260.4561	1363.0279	1395.2095	1427.0089	1472.0085	1504.1293	1537.7471	1681.5552	3131.3278	3136.0232	3178.6133	3211.3017	3227.3995	3657.0679	3799.355
OC1=C(NN=N1)C1CC1	Oc1c([nH]nn1)C1CC1	
InChI=1S/C5H7N3O/c9-5-4(3-1-2-3)6-8-7-5/h3H,1-2H2,(H2,6,7,8,9)	InChI=1S/C5H7N3O/c9-5-4(3-1-2-3)6-8-7-5/h3H,1-2H2,(H2,6,7,8,9)
