13
gdb 21146	5.24453	1.69298	1.29007	0.3153	66.12	-0.2543	-0.0934	0.1608	887.9636	0.095377	-394.744813	-394.737739	-394.736795	-394.77676	24.695	
C	-0.0168170434	 1.4284072358	-0.1454886228	-0.328909
N	 0.0052142487	-0.0254347393	-0.1503646677	-0.300642
C	-1.0532696811	-0.6511396674	 0.1511360234	 0.407324
O	-2.2268719503	-0.0016758358	 0.4844488558	-0.286281
N	-3.3806227589	-0.7269546192	 0.8135450703	-0.062671
C	-3.2726266163	-2.0049129965	 0.784173994	 0.105813
N	-2.1569983066	-2.7799136161	 0.4674353587	-0.242367
C	-1.1055317996	-2.1070233518	 0.1675234253	-0.003576
H	 0.9697288027	 1.8014053561	-0.4261108431	 0.127854
H	-0.7590975976	 1.8239474336	-0.8512583049	 0.13633
H	-0.2773992593	 1.825556282	 0.8444116196	 0.136325
H	-4.1795034712	-2.5411540941	 1.042694321	 0.15358
H	-0.1844309771	-2.6237001772	-0.0939048295	 0.15722
61.3894	116.56	203.6044	210.3467	370.5772	444.1562	557.7387	568.4563	642.007	725.7332	781.0093	912.9221	933.6327	981.4109	1000.5073	1038.8843	1097.2385	1100.4416	1165.1853	1262.7864	1350.3914	1363.5371	1432.9631	1483.2208	1495.0934	1596.2651	1678.5466	1730.847	3008.1359	3059.3528	3122.1954	3167.1349	3203.4302
CN=C1ON=CN=C1	C[N]C1=C[N]C=NO1	
InChI=1S/C4H5N3O/c1-5-4-2-6-3-7-8-4/h2-3H,1H3	InChI=1S/C4H5N3O/c1-5-4-2-6-3-7-8-4/h2-3H,1H3
