20
gdb 22072	2.26961	1.34964	1.0705	1.128	78.64	-0.2484	-0.0029	0.2454	1225.4614	0.167985	-440.236257	-440.226237	-440.225293	-440.270726	37.559	
C	-0.5082888016	 1.5190961011	 0.3479610815	-0.437631
C	-0.0711827187	 0.0899995961	 0.0306297252	 0.219918
C	-1.2729867365	-0.8647971413	-0.0141951994	-0.433825
C	 0.8936645563	-0.0857941125	-1.2010669551	-0.29161
C	 1.8787515165	-0.9131211588	-0.3247542482	 0.059835
O	 3.2216680326	-0.5014039753	-0.3806637147	-0.44067
C	 1.0731567802	-0.4539361099	 0.878065763	 0.355794
N	 1.3158986887	-0.3339012608	 2.1141684757	-0.255497
O	 2.5807373787	-0.9118691678	 2.4178584505	-0.409573
H	 0.3502163871	 2.1951745354	 0.3914413399	 0.120598
H	-1.1974616364	 1.8877269945	-0.4200639217	 0.113685
H	-1.0201437871	 1.5637978745	 1.3145055619	 0.126816
H	-1.9748937954	-0.5509418304	-0.794843299	 0.117357
H	-0.9675155071	-1.8932717636	-0.2306592841	 0.117477
H	-1.8034731718	-0.8660364971	 0.9432036818	 0.126422
H	 0.4779066435	-0.5879604056	-2.076455892	 0.101223
H	 1.3592714136	 0.855355351	-1.5000522266	 0.118317
H	 1.7772803451	-1.9960822648	-0.4979074858	 0.084695
H	 3.5975001386	-0.6888781048	 0.4887371646	 0.296819
H	 2.6868861436	-0.6960529798	 3.3501636727	 0.30985
63.0558	131.4882	170.5813	206.5884	232.0711	265.8509	276.2521	323.8452	334.0879	373.8882	381.1926	426.0417	433.5431	529.6812	585.012	686.9497	801.0386	804.7	907.6224	933.5825	936.2759	958.6302	974.711	1027.0018	1046.7688	1115.795	1166.6326	1190.0353	1223.3117	1234.1117	1252.5255	1296.3445	1349.5998	1386.0718	1397.9018	1401.752	1419.5042	1475.7366	1481.8833	1485.9823	1499.599	1506.2944	1773.8316	2972.0204	3028.2129	3032.4093	3074.3555	3097.7892	3101.4062	3106.8137	3112.2706	3136.5632	3781.8826	3825.9764
CC1(C)CC(O)C1=NO	CC1(C)C[C@@H](O)[C]1[N]O	
InChI=1S/C6H11NO2/c1-6(2)3-4(8)5(6)7-9/h4,8-9H,3H2,1-2H3	InChI=1S/C6H11NO2/c1-6(2)3-4(8)5(6)7-9/h4,8-9H,3H2,1-2H3/t4-/m1/s1
