12
gdb 133274	1.57189	1.08493	0.65301	4.6896	60.8	-0.2794	-0.0312	0.2482	1551.4493	0.070885	-510.159104	-510.147479	-510.146535	-510.202232	32.541	
C	-0.2242032487	 1.2809133571	 0.0589208658	-0.329577
N	-0.3874382526	-0.0804117067	-0.3572997142	-0.271637
C	 0.1480786795	-1.1250225088	-0.5232929366	 0.551797
N	 2.155733844	 0.9561077627	-2.7220553465	-0.013856
N	 2.7556696787	 0.8957125305	-3.6401326057	 0.016564
O	 1.6153791625	-2.1692753447	-2.6827435167	-0.336284
C	 1.2454618002	-2.7596172468	-1.713286341	 0.383946
F	 1.4894984934	-4.0593136949	-1.5562658961	-0.066348
N	 0.5519953913	-2.3005505755	-0.6129736792	-0.428373
H	 0.460494037	 1.7953515508	-0.6207564212	 0.174014
H	-1.1921184693	 1.7851445829	 0.038559587	 0.160047
H	 0.1769713342	 1.3251435735	 1.0760686345	 0.159708
11.6265	35.265	48.8182	48.9607	59.0119	69.241	74.9527	102.062	158.055	183.9293	472.4387	529.792	605.8103	688.8429	774.2125	845.3423	980.9262	1134.1136	1158.4224	1231.4187	1453.6407	1485.8941	1499.0695	1531.3653	1855.0885	2345.3197	2435.0518	3044.6482	3118.0631	3133.7058
CN=C1N=NOC(F)=N1	C[N][C][N]C(=O)F.N#N	
InChI=1S/C3H3FN4O/c1-5-3-6-2(4)9-8-7-3/h1H3	InChI=1S/C3H3FN2O.N2/c1-5-2-6-3(4)7;1-2/h1H3;
