22
gdb 76170	1.98294	1.41371	1.17913	4.4111	87.74	-0.2683	0.0405	0.3088	1230.4503	0.191514	-367.234589	-367.223766	-367.222822	-367.26959	39.733	
C	-1.7091638073	 0.971825379	-0.5555536302	-0.424807
C	-0.7996593563	-0.2225495076	-0.3644549449	-0.081862
C	 0.3474215328	-0.5901492959	-1.2744583462	 0.266868
C	 0.5625075816	-2.065494258	-1.5673526596	-0.456669
C	 0.7203097401	 0.2937718037	-2.452104785	-0.454985
C	 0.640542929	-0.0820366884	 0.1536565657	 0.09645
C	 1.271557277	 1.2800916972	 0.4204683886	-0.460287
C	 1.05604851	-1.0658369152	 1.1246876672	 0.252065
N	 1.3993554985	-1.8385704302	 1.9157510368	-0.365526
H	-1.1991505254	 1.8392872296	-0.9785996354	 0.119956
H	-2.5311861751	 0.7139301073	-1.2320767958	 0.127981
H	-2.1508312409	 1.2787659094	 0.3982687335	 0.130053
H	-1.3200175482	-1.0814165735	 0.0524664318	 0.103421
H	-0.0647382859	-2.375921151	-2.4107077711	 0.115992
H	 1.6057716694	-2.2649518967	-1.8366036608	 0.12372
H	 0.3157052646	-2.6957406982	-0.7103145598	 0.141179
H	 0.5228978596	 1.3534531433	-2.2878373397	 0.117647
H	 1.783280099	 0.1850136038	-2.6939589084	 0.125989
H	 0.150716762	-0.0114379481	-3.3371189078	 0.124344
H	 0.9211636782	 2.0407244892	-0.276701478	 0.122635
H	 1.0318902717	 1.6183462738	 1.4330163185	 0.138359
H	 2.3610440856	 1.2226838064	 0.3371951805	 0.137477
116.9353	132.5445	149.9632	158.8684	162.6861	203.6361	221.9023	239.8009	282.8575	303.3332	371.4178	401.0003	436.4813	495.4937	570.8313	587.9682	651.2671	695.1978	780.203	925.8168	966.9092	975.1457	988.0111	1024.9745	1051.0072	1088.8054	1120.25	1134.7489	1152.8496	1189.0713	1212.4835	1291.921	1339.4146	1408.0061	1410.3021	1420.9328	1427.2156	1445.998	1474.4061	1486.5776	1487.3748	1493.7032	1499.5083	1501.0166	1506.0054	1523.3107	2338.848	3030.1092	3036.1586	3040.0112	3049.8706	3087.979	3091.7732	3095.8506	3108.7679	3121.5594	3126.7408	3134.0232	3141.8359	3153.095
CC1C(C)(C)C1(C)C#N	C[C@H]1C(C)(C)[C@]1(C)C#N	
InChI=1S/C8H13N/c1-6-7(2,3)8(6,4)5-9/h6H,1-4H3	InChI=1S/C8H13N/c1-6-7(2,3)8(6,4)5-9/h6H,1-4H3/t6-,8+/m0/s1
