20
gdb 33240	5.42385	0.73524	0.65543	0.8735	82.85	-0.1981	0.0539	0.252	1721.3319	0.171181	-403.177314	-403.167869	-403.166924	-403.213584	33.8	
C	 0.588116284	 1.3114809384	-0.4426848291	-0.386345
C	-0.0330283645	 0.0250675639	 0.0754417305	-0.018042
O	 0.8056328325	-0.5069442588	 1.0773041621	-0.242791
C	 0.3200951082	-1.7112636557	 1.6313401883	-0.174639
C	 1.2733718418	-2.1955604405	 2.6784547608	 0.252019
C	 2.4446374133	-1.5795466019	 3.0528922443	-0.158835
N	 3.0235899554	-2.3395208938	 4.0393198377	-0.241085
C	 2.241039023	-3.4337164405	 4.3029141826	-0.071535
C	 1.1460298834	-3.3730829744	 3.4737598095	-0.254316
H	 1.5793893424	 1.1162634569	-0.8616836614	 0.125031
H	-0.0391084629	 1.7516574479	-1.2237049427	 0.112841
H	 0.6955826958	 2.0381590537	 0.367670843	 0.125056
H	-1.0400331058	 0.2189908644	 0.4838082838	 0.083417
H	-0.1564691547	-0.7026846209	-0.7452696189	 0.083416
H	-0.6848342029	-1.5517985029	 2.0632622906	 0.090404
H	 0.1949056109	-2.4702115242	 0.837477402	 0.090423
H	 2.8983563252	-0.6717241306	 2.6943940273	 0.126482
H	 3.8906320926	-2.1239299153	 4.4978438042	 0.258587
H	 2.5256816735	-4.1563723337	 5.0506175443	 0.114749
H	 0.3406282287	-4.0915617519	 3.4383044113	 0.085164
17.2315	69.7789	101.2882	107.6024	238.4914	261.7067	269.9809	346.4644	462.2437	490.8609	635.4783	638.4262	688.5594	728.3809	775.2635	818.3378	821.0659	906.7784	908.5397	978.8316	1040.9179	1050.1772	1081.2957	1092.5129	1142.8731	1161.6482	1169.6969	1189.3865	1251.8137	1255.5334	1292.3177	1295.2223	1377.3187	1399.4483	1418.929	1457.8505	1467.0689	1483.2431	1499.546	1512.0285	1521.3872	1537.3787	1618.5429	2927.9528	2940.5279	2950.9823	2971.8193	3043.9963	3118.4408	3120.5221	3238.8211	3268.102	3286.4976	3690.517
CCOCC1=CNC=C1	CCOCc1c[nH]cc1	
InChI=1S/C7H11NO/c1-2-9-6-7-3-4-8-5-7/h3-5,8H,2,6H2,1H3	InChI=1S/C7H11NO/c1-2-9-6-7-3-4-8-5-7/h3-5,8H,2,6H2,1H3
