14
gdb 132065	2.36703	1.83424	1.03445	2.7354	70.58	-0.1916	-0.0198	0.1718	1041.8723	0.102511	-478.044067	-478.03665	-478.035706	-478.0757	29.022	
N	-0.0011654865	 1.4010932643	 0.1481344124	-0.58721
C	-0.0360046189	 0.0257814171	 0.055447102	 0.038605
C	-1.174868774	-0.7300327977	 0.0280739217	 0.23952
F	-2.3621905156	-0.1002241537	 0.0292145685	-0.087141
C	-1.164141149	-2.1453067056	-0.0051079039	-0.275972
C	 0.0398405738	-2.7733113818	-0.0174101638	 0.01185
N	 1.1912111426	-2.0312452767	-0.0057407895	-0.375159
C	 1.2595131495	-0.6422105713	 0.0167770929	 0.409789
O	 2.3314569782	-0.045390769	-0.0042106293	-0.418468
H	 0.9008457236	 1.777528052	-0.1124992515	 0.267294
H	-0.7979212964	 1.8927420823	-0.2252396811	 0.255722
H	-2.0942979704	-2.6951989278	-0.0167659673	 0.119844
H	 0.1591087698	-3.8474137245	-0.0373818568	 0.137669
H	 2.0917875133	-2.4879050776	-0.0326185843	 0.263657
143.0628	218.1	268.5042	291.9287	345.0824	392.151	484.3011	521.6069	529.7489	566.9357	599.0826	605.7313	698.7692	714.5513	739.7994	767.9461	869.9029	876.3269	984.9756	1094.4985	1174.4994	1241.9178	1255.2995	1298.498	1375.5569	1454.8661	1495.2878	1590.5805	1632.2232	1690.1579	1754.0322	3227.3758	3243.919	3554.1876	3616.1285	3679.4437
NC1=C(F)C=CNC1=O	Nc1c(F)cc[nH]c1=O	
InChI=1S/C5H5FN2O/c6-3-1-2-8-5(9)4(3)7/h1-2H,7H2,(H,8,9)	InChI=1S/C5H5FN2O/c6-3-1-2-8-5(9)4(3)7/h1-2H,7H2,(H,8,9)
