18
gdb 115228	4.35623	1.03644	0.8716	2.6999	70.95	-0.259	0.0149	0.2739	1310.6801	0.147691	-476.21742	-476.208691	-476.207747	-476.251337	31.486	
C	-0.0789282382	 1.4174913848	-0.0375946788	-0.245167
O	-0.0471575966	-0.0033583751	-0.0185029201	-0.239512
C	-1.2884151729	-0.5956503001	 0.0723309962	 0.199203
C	-1.0933114095	-2.0972156653	-0.063491214	-0.100795
O	-2.3100262961	-2.818401943	 0.1724494463	-0.255361
C	-3.1895650266	-2.3686711707	 1.1124550236	 0.377047
N	-4.0772196508	-3.1112321026	 1.6198709655	-0.505718
C	-3.1493628812	-0.8892123474	 1.4442096876	-0.163314
O	-1.8537655454	-0.329154971	 1.34451003	-0.259383
H	 0.9530171451	 1.7513449731	-0.1577197854	 0.13485
H	-0.6782076897	 1.786608097	-0.8824695815	 0.11136
H	-0.4889722321	 1.8187569171	 0.8945118933	 0.13773
H	-1.9778958626	-0.2143300543	-0.7092630072	 0.059161
H	-0.7692770363	-2.3653065022	-1.0710578089	 0.126632
H	-0.3297377772	-2.4093832738	 0.6580732842	 0.130227
H	-4.0016726877	-4.0602175147	 1.2470985675	 0.222694
H	-3.847198577	-0.3707708636	 0.7642386121	 0.118739
H	-3.4995682853	-0.7450702981	 2.4657436695	 0.151607
68.5744	105.6331	153.9034	167.5117	190.4377	290.9841	369.9803	397.5859	454.6887	529.2534	538.1662	561.8429	723.9598	802.6117	903.5706	913.4306	1001.9696	1012.1635	1054.4099	1084.3183	1109.0107	1117.5489	1162.6112	1180.927	1182.0963	1236.2462	1261.0484	1277.1172	1307.6586	1371.2048	1380.5653	1408.4059	1438.135	1476.6774	1484.1528	1485.1916	1500.306	1511.5379	1758.7156	2893.0047	2964.2101	3002.2854	3048.0544	3084.5561	3120.0826	3138.1396	3141.9016	3462.4157
COC1COC(=N)CO1	CO[C@H]1CO[C]([NH])CO1	
InChI=1S/C5H9NO3/c1-7-5-3-8-4(6)2-9-5/h5-6H,2-3H2,1H3	InChI=1S/C5H9NO3/c1-7-5-3-8-4(6)2-9-5/h5-6H,2-3H2,1H3/t5-/m1/s1
