21
gdb 82873	2.67259	1.70813	1.36598	1.26	81.64	-0.2397	0.0786	0.3183	1036.8629	0.184408	-387.062264	-387.05462	-387.053676	-387.093746	32.045	
C	-0.2154834121	 1.6160596943	-0.0506195338	-0.441432
C	 0.0400367564	 0.1167745961	 0.0066479289	 0.047045
C	 1.1063428737	-0.5961801008	-0.8873752177	-0.093731
C	 2.4152601635	 0.1209620706	-0.5106057713	-0.212861
C	 2.3824473212	-0.3314215179	 0.9673275534	-0.050454
C	 2.5463474702	-1.8706248668	 0.8044314107	-0.308016
C	 1.1433491946	-1.7570391655	 0.197296411	 0.43347
O	 0.3034303137	-2.824532496	-0.0917656351	-0.490167
C	 0.8147377771	-0.5536530398	 1.1530823777	-0.121142
H	 0.6832169694	 2.2074467471	 0.1451593828	 0.114734
H	-0.6060462771	 1.9133809887	-1.0308256997	 0.113483
H	-0.9607150321	 1.9032605112	 0.6997791911	 0.11257
H	-0.9078217608	-0.4208911086	-0.1070650174	 0.080098
H	 0.909707466	-0.8233905748	-1.93500738	 0.061882
H	 3.2928164092	-0.2655526748	-1.0369198697	 0.091874
H	 2.3760387207	 1.2013380695	-0.6639891421	 0.093289
H	 2.9678145204	 0.2194010006	 1.7008970714	 0.063504
H	 3.3843172992	-2.245480372	 0.207079296	 0.089807
H	 2.5084600335	-2.3960295246	 1.7655427166	 0.082929
H	 0.226354766	-3.370914565	 0.6976397797	 0.278539
H	 0.4395791773	-0.6732291313	 2.1705130774	 0.054578
162.8309	194.0336	253.7863	299.2956	320.928	362.7009	470.2913	487.6481	545.2824	594.361	665.3167	693.1788	753.3161	806.985	860.4919	899.2434	910.068	931.0323	935.2216	967.9041	982.6461	1026.7103	1043.2175	1051.7796	1072.1696	1085.5148	1103.3911	1134.9488	1152.1061	1178.8402	1182.4972	1214.9253	1235.9713	1245.686	1272.2584	1284.8304	1322.6179	1337.0452	1372.4992	1396.8128	1410.8994	1488.3167	1494.1659	1501.0354	1525.6623	3028.3493	3030.7942	3048.4982	3060.6044	3085.5866	3086.7595	3101.8323	3103.3888	3112.7986	3118.3519	3133.6958	3804.6156
CC1C2CC3CC2(O)C13	C[C@H]1[C@H]2C[C@@H]3C[C@@]2(O)[C@H]13	
InChI=1S/C8H12O/c1-4-6-2-5-3-8(6,9)7(4)5/h4-7,9H,2-3H2,1H3	InChI=1S/C8H12O/c1-4-6-2-5-3-8(6,9)7(4)5/h4-7,9H,2-3H2,1H3/t4-,5+,6+,7+,8-/m0/s1
