23
gdb 119970	3.10188	0.92472	0.84334	3.3239	82.8	-0.2363	0.0605	0.2968	1503.5836	0.204891	-425.411091	-425.400633	-425.399689	-425.446897	38.549	
C	-0.4596466361	 1.4643884396	 0.1593038522	-0.377023
C	 0.2842036811	 0.150854279	-0.1115910616	-0.187182
C	 0.7479420865	-0.5088563728	 1.1718069948	-0.053617
C	-0.1396922883	-1.490714943	 1.8971142431	 0.093781
O	-1.3555840163	-1.8211457131	 1.3019416361	-0.433575
C	 1.1481035645	-1.9754696065	 1.2644229329	-0.079126
C	 1.1317525712	-2.9169015341	 0.0745414544	-0.22722
C	 0.8508313218	-4.3672837585	 0.4601568456	-0.074364
O	-0.513108628	-4.4720731246	 0.8802145814	-0.410419
H	 0.1727049399	 2.1769852317	 0.7012369648	 0.105474
H	-0.7738107703	 1.9416098677	-0.7745277716	 0.103961
H	-1.3531256942	 1.2817676323	 0.7641274239	 0.13094
H	-0.3829110492	-0.5252216826	-0.6521454489	 0.112726
H	 1.1471428976	 0.3416358653	-0.7631636083	 0.084511
H	 1.3229031599	 0.1542656584	 1.8155838122	 0.07392
H	-0.1712882545	-1.4352156027	 2.9863151183	 0.069866
H	-1.3668004858	-2.7873705133	 1.2188020537	 0.294608
H	 1.9555897094	-2.1879991377	 1.9631563175	 0.072393
H	 0.3815826101	-2.6126384887	-0.6602241776	 0.120916
H	 2.102306443	-2.8851990571	-0.4363544329	 0.099659
H	 1.0283445304	-5.0265462934	-0.4021361832	 0.092803
H	 1.5268979977	-4.6814147331	 1.2690931397	 0.09259
H	-0.6478774803	-5.321725383	 1.3083139338	 0.294378
53.185	70.5912	128.2404	171.0972	200.5467	225.0591	235.4837	267.9722	287.8259	299.0283	435.2857	534.8095	570.8816	587.4737	626.0883	756.3006	776.4053	809.7659	856.3728	886.8012	942.6687	981.6626	1007.1206	1029.7768	1051.5897	1073.7931	1092.0417	1116.6963	1146.9495	1156.2076	1192.0313	1216.2104	1255.8123	1269.4084	1299.2418	1313.0794	1335.4464	1346.4445	1384.066	1398.9932	1410.5262	1419.9551	1445.0752	1461.1638	1470.8453	1485.432	1498.7045	1506.2445	1518.2495	2984.3814	3018.2704	3020.1051	3030.0981	3037.3841	3077.9471	3084.3374	3095.8558	3104.1041	3110.6896	3112.8151	3126.7281	3685.4241	3843.9809
CCC1C(O)C1CCO	CC[C@H]1[C@@H](O)[C@H]1CCO	
InChI=1S/C7H14O2/c1-2-5-6(3-4-8)7(5)9/h5-9H,2-4H2,1H3	InChI=1S/C7H14O2/c1-2-5-6(3-4-8)7(5)9/h5-9H,2-4H2,1H3/t5-,6+,7-/m1/s1
