14
gdb 24327	4.10134	1.61374	1.15808	1.974	77.76	-0.21	-0.0563	0.1537	965.3475	0.105072	-399.606524	-399.600587	-399.599643	-399.636706	24.111	
O	-0.0337622053	 1.3455996172	 0.009727426	-0.122888
C	 1.2285460457	 1.8461023093	 0.000299133	-0.133996
C	 2.1307184448	 0.8124380088	-0.0139338798	 0.203413
C	 3.5477409317	 0.6801748259	-0.0282487157	-0.246297
C	 4.0612977386	-0.5832484081	-0.0399767807	 0.00018
N	 3.3177980924	-1.7465403283	-0.0390931597	-0.287795
C	 2.0174707129	-1.6558781664	-0.0261129378	-0.068521
C	 1.3390822828	-0.4019502888	-0.0128679674	 0.157661
C	 0.0250066748	-0.0008454024	 0.0018657028	-0.131464
H	 1.3094109391	 2.9193713737	 0.0053101042	 0.150573
H	 4.1995943881	 1.5464754134	-0.0298427552	 0.102337
H	 5.1359556656	-0.7372277779	-0.0511202949	 0.108937
H	 1.4515201318	-2.5865768821	-0.0257114934	 0.112861
H	-0.919495093	-0.5182035941	 0.0081234285	 0.154998
207.3886	241.5552	396.9705	440.9587	555.1375	580.3245	614.1467	627.6748	677.7663	722.4868	775.2921	793.6837	833.7796	908.7998	911.6173	955.7459	981.3272	1030.1191	1085.9047	1181.0463	1209.0701	1244.9324	1253.3855	1308.1952	1379.7956	1394.6897	1423.3896	1499.234	1564.9571	1578.5399	1668.664	3133.8874	3172.9073	3197.97	3281.2149	3288.7943
O1C=C2C=CN=CC2=C1	o1cc2ccncc2c1	
InChI=1S/C7H5NO/c1-2-8-3-7-5-9-4-6(1)7/h1-5H	InChI=1S/C7H5NO/c1-2-8-3-7-5-9-4-6(1)7/h1-5H
