15
gdb 49374	2.52448	1.37524	0.96859	3.0923	75.18	-0.2558	-0.0287	0.2271	1172.0705	0.113422	-412.994901	-412.986545	-412.985601	-413.028589	29.668	
N	-0.0444927298	 1.263157655	-0.2606934513	-0.444385
C	-0.1237757424	-0.0067526893	-0.2897442786	 0.071232
N	-1.3176500737	-0.6426051308	-0.0429371273	-0.068596
C	-1.6760954126	-2.0630731873	 0.0501488849	-0.137904
C	-3.1479150681	-1.6016403124	 0.3477063157	-0.342359
C	-2.6152780121	-0.1731626268	 0.2643986848	 0.411124
N	-3.1333844478	 0.9588213717	 0.4204842926	-0.535917
C	-1.4651309578	-2.8400818841	-1.171345433	 0.28686
N	-1.2851876073	-3.45814935	-2.1308179853	-0.309026
H	 0.9025117658	 1.5690107531	-0.4724798633	 0.23849
H	 0.691213512	-0.7070702129	-0.507023225	 0.116766
H	-1.1975563514	-2.5800672163	 0.8886619326	 0.143168
H	-3.8660916613	-1.8646189721	-0.4290922178	 0.161007
H	-3.5263769064	-1.9039431098	 1.3242311348	 0.151377
H	-2.4372479472	 1.6939454321	 0.2838898362	 0.258164
71.2666	87.041	165.5194	192.8321	206.2653	262.9619	425.0497	476.5166	502.7866	519.6378	608.1875	746.1697	784.8787	802.5487	843.4955	912.2209	987.0972	994.2005	1032.7818	1052.6102	1106.9637	1126.6773	1209.4204	1231.4916	1255.3096	1278.9146	1360.6017	1386.1071	1434.8131	1468.5618	1702.0021	1812.7339	2360.8529	3053.5169	3058.1933	3101.6944	3162.1355	3483.9366	3518.4315
N=CN1C(CC1=N)C#N	[NH][CH]N1[C@@H](C[C]1[NH])C#N	
InChI=1S/C5H6N4/c6-2-4-1-5(8)9(4)3-7/h3-4,7-8H,1H2	InChI=1S/C5H6N4/c6-2-4-1-5(8)9(4)3-7/h3-4,7-8H,1H2/t4-/m0/s1
