17
gdb 83492	3.00577	1.53122	1.46133	4.1079	66.53	-0.2673	0.0072	0.2744	968.2835	0.138059	-459.011284	-459.004142	-459.003198	-459.042724	28.049	
C	-0.1091476636	 1.544482032	-0.0235159973	-0.436971
C	 0.044252407	 0.0301527666	 0.034933308	-0.020749
C	 1.0895378902	-0.5837995265	-0.9087945006	 0.203565
O	 2.321974438	-0.0681787417	-0.4691692022	-0.257255
C	 2.236069389	-0.0602275102	 0.9730948539	-0.100377
C	 0.802978041	-0.5876097222	 1.2423057343	-0.221976
C	 0.8436753729	-2.0438624377	 0.7839014725	 0.450231
O	 0.7707124435	-3.063749248	 1.3990943184	-0.344315
O	 1.0247073588	-1.9912372015	-0.5798921691	-0.237295
H	 0.8548246362	 2.0573170797	-0.0014016779	 0.139475
H	-0.6179321824	 1.8375469449	-0.9475930509	 0.128628
H	-0.7135567051	 1.9061057426	 0.8139976743	 0.127374
H	-0.9247080231	-0.457808401	-0.1024152335	 0.102589
H	 1.0036944586	-0.4713791895	-1.9868425854	 0.10949
H	 3.0140330126	-0.7051947416	 1.3915224265	 0.13483
H	 2.3793473417	 0.9586965904	 1.3461566665	 0.117406
H	 0.4219819349	-0.4438516465	 2.2500654224	 0.105349
149.495	179.0033	245.6329	267.9878	296.4576	451.4862	499.9929	531.9596	628.5793	726.1643	760.2705	806.9629	823.1344	894.8368	912.3914	930.6782	941.4087	969.3868	1021.8113	1047.2869	1075.0082	1093.2111	1128.3906	1172.1114	1179.711	1222.4258	1256.262	1284.1349	1303.7719	1342.9114	1380.4047	1400.6652	1416.3228	1493.78	1502.3092	1531.1317	1904.2452	3044.0013	3049.1057	3075.1844	3095.0369	3105.5808	3132.2384	3161.3875	3166.7073
CC1C2OCC1C(=O)O2	C[C@H]1[C@H]2OC[C@@H]1C(=O)O2	
InChI=1S/C6H8O3/c1-3-4-2-8-6(3)9-5(4)7/h3-4,6H,2H2,1H3	InChI=1S/C6H8O3/c1-3-4-2-8-6(3)9-5(4)7/h3-4,6H,2H2,1H3/t3-,4+,6+/m1/s1
