23
gdb 83253	1.79039	1.74396	1.49735	1.4049	85.31	-0.2419	0.0813	0.3231	1120.3896	0.205658	-388.298058	-388.288685	-388.287741	-388.331267	36.5	
C	-0.1974055098	 1.5415870883	-0.1057648206	-0.430038
C	 0.0161401486	 0.0453299522	 0.0244647554	-0.052198
C	 1.3410075405	-0.6475374706	-0.211036951	-0.131658
C	 2.6002952053	 0.1859850163	-0.0557650567	-0.101661
O	 2.4666769007	 0.8819396603	 1.1812950112	-0.270484
C	 1.6572307611	 0.0980991821	 2.0606244497	 0.090273
C	 1.0370675086	 1.0107756634	 3.109559706	-0.411002
C	 0.7020968862	-0.6887501574	 1.163369986	 0.303612
C	 0.0762033027	-1.9332353899	 1.7478858373	-0.488271
H	 0.6588754479	 2.112544102	 0.2538368924	 0.144448
H	-0.3691474955	 1.8072329177	-1.1553669747	 0.109042
H	-1.0816630075	 1.8602225103	 0.457762407	 0.111681
H	-0.8243168424	-0.5268141034	-0.3658161488	 0.077863
H	 1.3859143892	-1.5265598648	-0.8456412949	 0.0802
H	 3.4859395866	-0.4700528504	-0.0465603075	 0.091175
H	 2.7454542796	 0.9406571622	-0.8369740415	 0.104525
H	 2.2946539552	-0.643437434	 2.5778850519	 0.059159
H	 0.3619610338	 1.7392269771	 2.6550465859	 0.125018
H	 0.4712961447	 0.4193746998	 3.8365673425	 0.113929
H	 1.8195087448	 1.552267295	 3.6488835131	 0.123601
H	-0.627093314	-1.6889114043	 2.5530180109	 0.119279
H	-0.4787154623	-2.4918004614	 0.9880139134	 0.116495
H	 0.8368005561	-2.6036791706	 2.166050793	 0.115011
142.9185	194.1161	196.829	216.8252	218.696	237.4663	243.3952	278.688	332.9617	407.3723	495.8725	554.1057	572.0458	663.2099	732.8526	784.7314	844.9935	874.5574	900.4511	951.7733	993.4458	1011.7279	1028.5652	1073.9842	1081.2618	1101.2847	1123.1343	1129.5497	1134.2554	1150.0882	1168.1104	1234.9812	1250.0431	1303.6822	1345.1687	1359.3323	1372.1926	1388.9274	1408.2042	1413.937	1419.7454	1464.2858	1486.1845	1491.1464	1495.5086	1500.2733	1505.2289	1512.1756	1520.6689	2918.9889	2972.1199	3019.9931	3029.1576	3045.707	3056.5039	3076.3152	3079.7212	3098.7847	3111.2578	3112.5229	3131.5713	3146.9358	3162.8182
CC1C2COC(C)C12C	C[C@H]1[C@H]2CO[C@@H](C)[C@@]12C	
InChI=1S/C8H14O/c1-5-7-4-9-6(2)8(5,7)3/h5-7H,4H2,1-3H3	InChI=1S/C8H14O/c1-5-7-4-9-6(2)8(5,7)3/h5-7H,4H2,1-3H3/t5-,6-,7+,8+/m0/s1
