20
gdb 43622	5.02538	0.86889	0.78845	3.0075	81.56	-0.2572	0.0316	0.2888	1472.5303	0.171943	-403.142111	-403.133724	-403.13278	-403.175994	31.647	
N	 0.1388712168	 1.0342982699	 0.7361163112	-0.540236
C	 0.0114448893	-0.038021112	 0.0991116315	 0.435885
C	-1.1532303153	-0.9380063057	-0.2547766473	-0.382144
C	-0.0773232774	-1.778707593	-0.9797976355	 0.106187
O	 0.9508970441	-0.8138991722	-0.5477148976	-0.266093
C	 0.2045522758	-3.1718653153	-0.4828608066	 0.044853
C	-0.7499604702	-4.3150442061	-0.9393091892	-0.239833
C	 0.4910299696	-5.2369545888	-1.0877663823	-0.20912
C	 1.385717453	-3.9682199996	-1.1077393709	-0.231007
H	 1.113384313	 1.3407764442	 0.7498384413	 0.226151
H	-1.6302398255	-1.4226235785	 0.5995476216	 0.13442
H	-1.9154169786	-0.4763768605	-0.884035121	 0.136183
H	-0.1490721003	-1.7571194652	-2.0729516576	 0.085747
H	 0.2904087774	-3.1532803829	 0.6093725866	 0.076474
H	-1.5409695987	-4.6208037409	-0.2508758287	 0.102413
H	-1.2038622322	-4.0908278785	-1.9106044826	 0.101695
H	 0.6576339744	-5.8370173889	-0.1888620814	 0.106943
H	 0.5279235669	-5.8980473465	-1.9561896619	 0.100781
H	 1.5925721734	-3.6335798181	-2.1295015748	 0.103274
H	 2.3262084046	-3.9905474713	-0.5541531146	 0.107428
62.7494	72.3453	133.5394	161.0116	326.3262	339.3721	385.6909	493.2216	505.3881	635.3987	740.0884	767.5227	781.2584	865.5179	876.1855	909.8393	929.147	940.6545	949.717	961.1033	990.1312	1013.3684	1027.3753	1055.3454	1095.0593	1119.4739	1203.3096	1207.3368	1225.0471	1238.0404	1249.7928	1257.1812	1261.8491	1276.3506	1287.3818	1322.7812	1334.4075	1417.3969	1464.4854	1477.9512	1487.1142	1510.0772	1824.0845	3039.2821	3046.5052	3051.0485	3058.733	3062.1317	3085.0717	3101.992	3110.6667	3123.4931	3140.2858	3473.5443
N=C1CC(O1)C1CCC1	[NH][C]1C[C@@H](O1)C1CCC1	
InChI=1S/C7H11NO/c8-7-4-6(9-7)5-2-1-3-5/h5-6,8H,1-4H2	InChI=1S/C7H11NO/c8-7-4-6(9-7)5-2-1-3-5/h5-6,8H,1-4H2/t6-/m1/s1
