18
gdb 117517	2.21117	1.13367	0.8336	3.5592	75.27	-0.2449	0.0182	0.263	1413.5339	0.144156	-439.07463	-439.064069	-439.063125	-439.111415	36.985	
C	-0.6169695689	 1.5404298045	 0.5643107794	-0.3904
C	-0.2748772607	 0.0770514461	 0.3494979047	-0.042195
O	-1.4760883047	-0.618471748	 0.0338898148	-0.259215
C	-1.3100543973	-2.0023884513	-0.2236777023	-0.126906
C	-0.8903631884	-2.751948718	 0.9642064064	 0.361236
C	-0.5508710883	-3.3456454126	 1.9520429568	-0.488222
C	-2.6389710063	-2.5878965924	-0.7716434276	 0.361928
N	-3.7096968775	-1.7816770138	-0.5870128312	-0.510008
O	-2.6629437987	-3.6808300143	-1.2943977062	-0.360098
H	 0.287392071	 2.1068981891	 0.8048719083	 0.122967
H	-1.0654816946	 1.9706460338	-0.3357721087	 0.126768
H	-1.3243691635	 1.6528739929	 1.3909225285	 0.128836
H	 0.4439169314	-0.0402379526	-0.4769306059	 0.095356
H	 0.1811699482	-0.3570053229	 1.2495442281	 0.112002
H	-0.5697220561	-2.1558690784	-1.0239044324	 0.123526
H	-0.2539112208	-3.8842695888	 2.8180524331	 0.205289
H	-3.5784299201	-0.8530705405	-0.2236558296	 0.275226
H	-4.6012004846	-2.0706443627	-0.9530576262	 0.263909
32.1065	67.502	88.4177	132.8294	144.5453	225.2048	250.9138	304.7814	331.193	363.2508	406.8734	451.4619	542.81	626.2063	633.7442	635.015	681.7282	725.9715	822.197	894.109	910.8776	990.357	1044.2993	1099.0467	1127.0875	1149.568	1188.5958	1285.9851	1297.4887	1326.1647	1357.4913	1401.8735	1432.949	1484.2473	1500.72	1528.4701	1596.128	1820.3892	2233.4883	2981.6056	2992.5652	3033.6131	3045.3903	3120.9824	3121.4166	3501.7747	3601.6887	3742.0749
CCOC(C#C)C(N)=O	CCO[C@@H](C#C)C(=O)N	
InChI=1S/C6H9NO2/c1-3-5(6(7)8)9-4-2/h1,5H,4H2,2H3,(H2,7,8)	InChI=1S/C6H9NO2/c1-3-5(6(7)8)9-4-2/h1,5H,4H2,2H3,(H2,7,8)/t5-/m0/s1
