18
gdb 64815	3.78913	1.02213	0.98293	3.5105	72.77	-0.2515	0.0318	0.2834	1247.3592	0.146387	-439.086002	-439.077273	-439.076329	-439.119878	32.646	
C	-0.0157103938	 1.5467905819	 0.1286300208	-0.466769
C	-0.0013171286	 0.0239580516	 0.0571875191	 0.318135
C	 0.8447842746	-0.577817832	-1.1189288478	-0.444694
C	 1.7771243538	-1.1439806127	-0.022765194	 0.436058
O	 2.7957787733	-1.7782966232	 0.0096941434	-0.357675
N	 0.9707022644	-0.6225545382	 0.9625023976	-0.357203
C	-1.3742163903	-0.6137374581	 0.179345994	 0.055252
C	-2.5198223767	-0.0046278375	 0.8692441532	-0.194494
O	-2.4407438966	-0.0197229391	-0.5587672542	-0.232824
H	 0.9748938291	 1.9465999271	-0.1024811236	 0.124937
H	-0.7384595699	 1.9504710826	-0.5851991084	 0.147888
H	-0.2903269189	 1.8961202824	 1.1292900637	 0.117447
H	 0.3410922098	-1.3368456258	-1.7202713609	 0.135851
H	 1.3131798095	 0.1580361375	-1.774258836	 0.133622
H	 1.0782950812	-0.5898627856	 1.9665067967	 0.24658
H	-1.3443199473	-1.703940746	 0.1255998597	 0.097604
H	-3.284084098	-0.6491271767	 1.3008237493	 0.122297
H	-2.4289267458	 0.9770953916	 1.3284749873	 0.117989
57.6489	67.1678	220.2453	229.2713	267.8943	337.9103	354.9271	381.5858	431.6749	439.2115	549.2999	562.1161	667.3911	769.5568	854.5033	872.4831	896.4829	949.5163	955.9596	975.3164	1020.9354	1076.5359	1099.4595	1109.5026	1156.0198	1168.6795	1179.1167	1195.3233	1253.2886	1267.4586	1313.1151	1368.9186	1402.5995	1436.6253	1461.0585	1489.563	1505.558	1530.938	1898.3139	3042.7388	3087.1536	3089.8494	3095.7887	3110.4755	3131.1675	3146.368	3181.3104	3598.4151
CC1(CC(=O)N1)C1CO1	C[C@]1(CC(=O)N1)[C@H]1CO1	
InChI=1S/C6H9NO2/c1-6(4-3-9-4)2-5(8)7-6/h4H,2-3H2,1H3,(H,7,8)	InChI=1S/C6H9NO2/c1-6(4-3-9-4)2-5(8)7-6/h4H,2-3H2,1H3,(H,7,8)/t4-,6+/m1/s1
