18
gdb 43144	2.37888	2.04354	1.67938	4.3291	73.79	-0.2282	-0.0028	0.2254	900.4068	0.151334	-401.948525	-401.941874	-401.940929	-401.979273	27.65	
O	 0.0037107847	 0.0560580394	 0.1334389902	-0.331794
C	-0.0150017291	 1.2432986034	-0.0083121908	 0.4337
C	-1.1922264896	 2.2367305491	-0.0129694156	-0.133347
C	-0.8116640796	 3.0410082065	 1.2630176756	-0.22487
C	 0.7666051973	 3.063215299	 1.2405759462	-0.224869
C	 1.1332199932	 2.2694343669	-0.0460264087	-0.13335
C	 0.6868893003	 3.13229808	-1.2200769465	-0.032137
N	-0.0630201822	 2.386598079	-2.2541667042	-0.348993
C	-0.8038661086	 3.1113485239	-1.1988706164	-0.032138
H	-2.1856922442	 1.7919325725	-0.0223031035	 0.0844
H	-1.235832002	 4.0484840717	 1.2438150542	 0.103858
H	-1.1858222274	 2.5422769407	 2.1606219678	 0.114924
H	 1.1615487421	 4.0822162016	 1.2097171691	 0.103859
H	 1.1800047252	 2.5755766157	 2.126989905	 0.114925
H	 2.1381306724	 1.8527369799	-0.0837585367	 0.084399
H	 1.2457688954	 4.0218491434	-1.4910238151	 0.093344
H	-0.082860158	 2.9246874555	-3.1164776026	 0.234747
H	-1.3949965898	 3.9847396617	-1.4534529578	 0.093343
160.293	213.0009	282.4043	341.3285	462.9894	498.7924	565.523	619.7723	728.666	768.4711	812.457	817.4634	849.1854	860.218	873.3189	907.4089	908.9114	973.6081	986.3347	1006.3945	1033.1379	1056.5194	1105.9719	1124.1673	1141.2589	1145.6215	1182.0884	1203.4357	1222.3906	1238.0043	1289.1753	1298.8849	1304.0452	1330.8959	1366.1896	1411.8707	1490.5937	1507.1021	1895.5102	3055.0876	3064.8994	3094.3577	3113.6016	3134.7905	3136.4469	3161.0053	3171.4399	3512.9966
O=C1C2CCC1C1NC21	O=C1[C@H]2CC[C@@H]1[C@H]1N[C@@H]21	
InChI=1S/C7H9NO/c9-7-3-1-2-4(7)6-5(3)8-6/h3-6,8H,1-2H2	InChI=1S/C7H9NO/c9-7-3-1-2-4(7)6-5(3)8-6/h3-6,8H,1-2H2/t3-,4+,5-,6+
