21
gdb 114003	5.01703	0.62811	0.60729	3.6542	82.22	-0.2447	0.0355	0.2802	1884.3997	0.182613	-420.41222	-420.402069	-420.401124	-420.449207	35.742	
C	 0.7349179334	 1.608192547	-0.1109178224	-0.378336
C	 0.0048902011	 0.2716658348	 0.0658639719	-0.183685
C	 0.0602163892	-0.5673845881	-1.1920043067	 0.00438
N	 1.2883917243	-1.3497641922	-1.4300274098	-0.351591
C	 0.0013791634	-2.0533069881	-1.2489085073	-0.03468
C	-0.086735231	-2.9586938538	-0.0401584025	-0.171633
N	 0.7900686869	-4.1087679655	-0.1954072512	-0.26782
C	 0.3545673627	-5.3945665011	-0.1787491521	 0.153939
O	-0.7929092891	-5.7477046806	-0.0003486703	-0.32659
H	 1.7879145248	 1.4398335395	-0.3570490243	 0.128681
H	 0.2908991649	 2.199781173	-0.9194387693	 0.111995
H	 0.6905394966	 2.2077099889	 0.8030503092	 0.114464
H	 0.4550879226	-0.2792438612	 0.8966512026	 0.105878
H	-1.045362981	 0.4493208324	 0.3306199924	 0.100553
H	-0.3641657548	-0.0655615201	-2.0626943081	 0.083518
H	 1.5462257911	-1.3259604269	-2.4123990111	 0.232545
H	-0.4511211176	-2.4807254879	-2.1426775991	 0.093058
H	 0.178999608	-2.4130470233	 0.8703555396	 0.11227
H	-1.0987322745	-3.3514693894	 0.0814458406	 0.147835
H	 1.7624279012	-3.9221969878	-0.3860003675	 0.25404
H	 1.1857224777	-6.1085562295	-0.3470917644	 0.071179
34.6812	38.8932	80.9315	124.0773	182.2491	221.5102	241.7884	283.4424	341.0938	420.3027	480.7765	566.3913	576.9122	741.0717	760.064	817.6774	845.7579	904.5425	945.2163	976.109	994.1008	1015.8428	1034.8223	1052.1881	1080.2094	1111.3082	1159.704	1197.0422	1215.1388	1256.2687	1274.2786	1294.6413	1304.7701	1339.8465	1367.5331	1406.1576	1428.9321	1430.0998	1475.0427	1481.6703	1488.2349	1498.039	1507.6847	1529.8953	1803.757	2931.1693	3030.1781	3033.4513	3057.1082	3079.9608	3094.3145	3106.9636	3112.9491	3114.0441	3127.3611	3508.8218	3630.9322
CCC1NC1CNC=O	CC[C@H]1N[C@H]1CNC=O	
InChI=1S/C6H12N2O/c1-2-5-6(8-5)3-7-4-9/h4-6,8H,2-3H2,1H3,(H,7,9)	InChI=1S/C6H12N2O/c1-2-5-6(8-5)3-7-4-9/h4-6,8H,2-3H2,1H3,(H,7,9)/t5-,6+/m1/s1
