23
gdb 69370	3.84133	0.94632	0.89384	0.3262	90.88	-0.2415	0.0927	0.3342	1443.345	0.205909	-351.120134	-351.111186	-351.110242	-351.153878	35.153	
C	-0.0811839383	 1.5694883483	 0.1776144395	-0.497051
C	 0.0397384315	 0.0796738603	 0.0329544626	 0.384616
C	-0.8270791304	-0.8918373487	 0.786550957	-0.339918
C	 0.6664859261	-0.9657902147	 0.9642859367	-0.100149
C	 1.3032162143	-1.6945926744	-0.2302053991	 0.023064
C	 0.6480890095	-0.6348532074	-1.184624709	-0.318204
C	 2.8096687193	-1.6968601531	-0.2425896532	 0.028587
C	 3.5778431336	-2.8495690986	 0.3551351454	-0.276813
C	 3.5675003688	-2.642210206	-1.1404762525	-0.278265
H	 0.8608564185	 2.0735578087	-0.0685691477	 0.11236
H	-0.8547720382	 1.9739248684	-0.4873361614	 0.116914
H	-0.3511718636	 1.8473327789	 1.2020481497	 0.114822
H	-1.3743236628	-0.4700338467	 1.6246476579	 0.103843
H	-1.3576926972	-1.68869755	 0.2675549355	 0.096938
H	 1.1365495567	-0.8312424443	 1.9327191223	 0.07782
H	 0.9404450488	-2.7216749413	-0.3701649323	 0.055142
H	-0.0610873662	-1.0053026441	-1.9332493442	 0.086476
H	 1.4073364173	-0.0343396324	-1.6943696008	 0.09807
H	 3.2541772811	-0.7128295088	-0.1073287711	 0.076249
H	 4.492044722	-2.6383258847	 0.8989813587	 0.108203
H	 3.0083528492	-3.6834310057	 0.7530586378	 0.110069
H	 2.9924289455	-3.337863447	-1.7432015114	 0.109099
H	 4.4745734745	-2.2883959367	-1.6179699004	 0.108128
73.1367	87.7308	162.8205	212.5132	272.3237	304.9902	343.8769	372.6994	426.3817	452.7586	616.8581	738.5863	772.7279	805.4838	814.9094	825.2294	877.9399	912.71	929.5892	938.792	955.8492	978.3922	1016.11	1032.1045	1053.2451	1054.7437	1062.5035	1075.3928	1080.7422	1096.2447	1138.7589	1158.5483	1196.8932	1213.7781	1228.1574	1238.1034	1246.6791	1266.2847	1289.751	1309.0238	1390.9469	1422.628	1429.9048	1468.1145	1481.2389	1486.405	1497.3219	1503.6796	1507.511	3007.3428	3015.5662	3035.5332	3072.115	3089.5304	3091.0659	3092.62	3123.7793	3127.0483	3132.559	3164.5029	3186.1687	3204.7099	3219.8916
CC12CC1C(C2)C1CC1	C[C@]12C[C@H]1[C@@H](C2)C1CC1	
InChI=1S/C9H14/c1-9-4-7(6-2-3-6)8(9)5-9/h6-8H,2-5H2,1H3	InChI=1S/C9H14/c1-9-4-7(6-2-3-6)8(9)5-9/h6-8H,2-5H2,1H3/t7-,8-,9-/m0/s1
