22
gdb 57886	2.54329	1.26549	1.07629	3.3131	84.13	-0.2331	0.031	0.2642	1266.7781	0.192379	-404.365912	-404.355384	-404.354439	-404.401405	38.103	
C	 2.0741916065	 0.6390190632	-2.635276831	-0.344002
N	 1.7257417287	-0.6655355946	-2.0976816367	-0.084198
C	 2.643734894	-1.7362218033	-2.4298406242	-0.33686
C	 0.5513689652	-0.8040960831	-1.3963531129	 0.338087
O	-0.2262924857	 0.1279583421	-1.2597493337	-0.38266
C	 0.2699791445	-2.1591851001	-0.7588908372	 0.243982
C	 1.1580612024	-2.5140480077	 0.4234487516	-0.466901
C	-1.1831252861	-2.5337783376	-0.6821235885	-0.301627
C	-0.2795545777	-3.2638438622	-1.642844742	-0.300574
H	 2.0854502022	 0.6188902828	-3.7331354473	 0.117755
H	 1.3329906437	 1.3600155268	-2.2960426805	 0.168851
H	 3.0717180637	 0.9399170539	-2.2910102767	 0.117253
H	 3.6181307512	-1.5930742994	-1.9422833163	 0.120958
H	 2.2410479366	-2.7013846253	-2.1334658885	 0.153583
H	 2.816925517	-1.7585161127	-3.5140259161	 0.120457
H	 1.0781319631	-1.7508606153	 1.2050414975	 0.133307
H	 0.8461997207	-3.4694849621	 0.8575199456	 0.117571
H	 2.2147128924	-2.6031939322	 0.152226744	 0.115649
H	-1.51905344	-3.0599535213	 0.2048125115	 0.106976
H	-1.8916442471	-1.8197700396	-1.083450375	 0.136389
H	-0.3984035275	-3.0636332737	-2.7027942452	 0.117402
H	 0.009590562	-4.2854691885	-1.4144822885	 0.1086
59.8555	96.2116	117.4871	159.1698	185.0147	219.6467	247.0447	269.5983	293.1931	322.1531	370.1681	401.2987	505.6699	545.2951	688.819	750.762	792.0852	838.3501	883.2442	944.4634	956.7606	975.6749	1038.514	1070.9752	1077.4866	1079.681	1125.6246	1132.5106	1140.2122	1179.8495	1191.883	1275.7171	1300.7686	1334.9423	1412.4451	1424.0958	1433.2482	1466.4902	1468.9185	1484.5252	1493.6369	1498.3274	1501.0675	1505.1312	1511.6841	1541.5326	1740.2637	3000.8895	3011.8872	3031.8176	3041.6024	3056.1463	3097.9261	3101.4438	3119.8861	3141.2746	3173.1579	3180.1923	3202.569	3234.1181
CN(C)C(=O)C1(C)CC1	CN(C)C(=O)C1(C)CC1	
InChI=1S/C7H13NO/c1-7(4-5-7)6(9)8(2)3/h4-5H2,1-3H3	InChI=1S/C7H13NO/c1-7(4-5-7)6(9)8(2)3/h4-5H2,1-3H3
