17
gdb 84669	2.40244	1.85373	1.55085	3.1277	74.15	-0.2503	-0.0152	0.2351	935.7819	0.137948	-421.804362	-421.797208	-421.796264	-421.835498	29.102	
O	-0.0281918521	 1.5196966323	 0.1768096236	-0.43383
C	 0.0117052081	 0.1085431284	 0.0165820197	 0.027838
C	 0.8822448669	-0.5951107847	 1.0458830495	-0.116862
C	 0.5950343077	-0.7753124189	 2.3407129059	-0.032117
C	-0.6172553503	-0.3173576679	 3.0419237714	-0.013895
O	-1.2272397746	 0.9192950849	 2.6405269498	-0.25132
C	-1.9738727818	-0.2817306701	 2.3903622065	-0.013894
C	-2.2031368395	-0.7018296052	 0.996798119	-0.032117
C	-1.3646573252	-0.5361035321	-0.0332666804	-0.116861
H	-0.4391881679	 1.6725806404	 1.0409098312	 0.289824
H	 0.4776233248	-0.0407334203	-0.9616679214	 0.086987
H	 1.8277005202	-0.987271157	 0.6803891498	 0.103412
H	 1.3030293283	-1.3136957594	 2.9654316478	 0.095442
H	-0.6076645355	-0.4481727339	 4.1230294216	 0.10427
H	-2.8287951061	-0.3898390178	 3.0562561052	 0.10427
H	-3.155379559	-1.1966106645	 0.8241350228	 0.095441
H	-1.686441164	-0.8949798342	-1.0073944221	 0.103412
178.322	212.3243	252.2177	306.4978	336.7127	395.6949	538.5844	593.1425	597.1894	622.5074	712.1086	725.0384	770.3705	799.473	814.7361	881.1437	897.2495	943.0119	953.5258	991.6462	993.7111	1068.3491	1069.7421	1095.2853	1153.825	1223.0464	1246.0832	1283.8231	1319.7685	1368.1429	1384.2374	1420.0789	1431.7583	1433.8395	1478.6614	1692.8901	1705.1089	3064.7987	3116.1399	3126.2641	3150.3724	3152.3399	3171.8267	3174.4011	3706.1505
OC1C=CC2OC2C=C1	O[C@H]1C=C[C@H]2O[C@H]2C=C1	
InChI=1S/C7H8O2/c8-5-1-3-6-7(9-6)4-2-5/h1-8H	InChI=1S/C7H8O2/c8-5-1-3-6-7(9-6)4-2-5/h1-8H/t5-,6+,7-
