14
gdb 125148	3.34502	1.29854	0.94086	2.1365	75.38	-0.2423	-0.0395	0.2028	1161.4493	0.099369	-436.658231	-436.649843	-436.648899	-436.691318	30.652	
C	-0.0072734729	 1.5653482077	 0.061733221	-0.517543
C	 0.0358012698	 0.0755749856	 0.0158515548	-0.060249
C	 0.0018405553	-0.768377053	-1.0598526944	 0.262878
O	 0.063872448	-2.0632883411	-0.6563878363	-0.230265
N	 0.1418261449	-2.0931923421	 0.7314239234	-0.247536
C	 0.1246037457	-0.8369242636	 1.1052873652	 0.408421
O	 0.1855508832	-0.4707554484	 2.3949182693	-0.423656
C	-0.0829682784	-0.5127275355	-2.4416966594	 0.244634
C	-0.155835786	-0.2746557667	-3.619403138	-0.383696
H	 0.8892295495	 1.9732814378	 0.5407649446	 0.144155
H	-0.0758661247	 1.9786092713	-0.9470500107	 0.140439
H	-0.8685502676	 1.9194715507	 0.6382749394	 0.144146
H	 0.2389046198	-1.2747771467	 2.9290050154	 0.312854
H	-0.2199391565	-0.0713674059	-4.6601507141	 0.205418
99.5451	118.5481	134.5016	236.8079	248.9126	339.3537	406.3914	451.6228	469.9532	524.3564	591.8048	593.3221	675.492	689.9192	694.3	751.0103	776.4053	957.1496	1003.9919	1066.6214	1135.2331	1196.244	1222.5163	1321.723	1421.6201	1481.0799	1481.7006	1521.5065	1566.7334	1667.3793	2236.4773	3037.6235	3090.3476	3127.9484	3499.268	3780.3464
CC1=C(ON=C1O)C#C	Cc1c(onc1O)C#C	
InChI=1S/C6H5NO2/c1-3-5-4(2)6(8)7-9-5/h1H,2H3,(H,7,8)	InChI=1S/C6H5NO2/c1-3-5-4(2)6(8)7-9-5/h1H,2H3,(H,7,8)
