18
gdb 50669	2.41549	1.60647	1.22961	2.4566	72.45	-0.2404	-0.0299	0.2105	1059.0068	0.147644	-439.061806	-439.053452	-439.052508	-439.095669	30.498	
O	 0.4020506787	-0.2348511019	-0.4339759198	-0.240535
C	 0.1045245814	 0.8939729572	-0.1506452364	 0.15328
C	 1.1150413626	 2.0238447066	 0.0548410875	-0.046535
O	 2.399436405	 1.524648189	 0.3406471181	-0.256652
C	 3.2581877458	 1.6497264741	-0.8055356036	-0.066705
C	 2.3650655239	 2.0837894607	-1.9754220247	-0.300776
C	 1.2523014655	 2.8178882871	-1.248001182	 0.312499
C	 0.144347593	 3.5733272728	-1.8744617623	-0.309163
N	 1.2801195973	 4.2843564034	-1.2557547167	-0.355929
H	-0.9597762045	 1.2129801776	-0.0516349426	 0.07048
H	 0.7632635881	 2.6569627505	 0.8831802386	 0.089429
H	 4.0255677524	 2.4045104109	-0.5903778809	 0.106707
H	 3.7510001407	 0.68811039	-0.9738975275	 0.117168
H	 2.8748099548	 2.731383326	-2.6898444338	 0.122203
H	 1.9651565861	 1.2106872876	-2.5000030158	 0.126762
H	 0.0862932104	 3.6520611601	-2.9564344661	 0.12869
H	-0.8200382023	 3.5943062421	-1.3721682094	 0.116248
H	 1.0083118711	 4.6571633462	-0.3488560027	 0.23283
48.3557	83.3586	125.1957	230.308	260.9859	303.8151	347.4439	425.8434	527.3943	658.3244	732.6567	793.7395	823.1131	866.1406	899.1309	905.1287	928.3778	970.7401	974.0622	996.8106	1020.9237	1085.2276	1116.2645	1132.2204	1144.5987	1200.5904	1223.7382	1249.8546	1262.1814	1294.379	1322.3949	1336.8145	1381.4244	1409.4942	1421.1237	1478.4178	1515.4202	1526.3679	1840.5068	2852.8118	2998.3637	3020.5855	3063.052	3086.6691	3105.7038	3134.1987	3189.4629	3494.2903
O=CC1OCCC11CN1	O=C[C@H]1OCC[C@]21CN2	
InChI=1S/C6H9NO2/c8-3-5-6(4-7-6)1-2-9-5/h3,5,7H,1-2,4H2	InChI=1S/C6H9NO2/c8-3-5-6(4-7-6)1-2-9-5/h3,5,7H,1-2,4H2/t5-,6-/m1/s1
