21
gdb 101665	3.13756	0.79501	0.72924	2.1174	77.41	-0.2555	-0.0332	0.2223	1631.0512	0.178617	-461.365527	-461.354667	-461.353723	-461.402391	38.083	
C	 0.0499926141	 1.4128611125	 0.060726007	-0.238454
O	-0.0649284493	 0.013581636	-0.0654630894	-0.250311
C	 0.6777056892	-0.550696106	-1.1416841276	 0.13774
C	 2.152616916	-0.7302064119	-0.7761766273	-0.405489
C	 0.0066096185	-1.885965029	-1.4721287444	-0.222924
C	-1.4336423475	-1.6898139644	-1.9777269858	 0.045797
O	-1.459733249	-0.9649195973	-3.1801626071	-0.440358
C	-2.1215395367	-3.02309337	-2.1529005671	 0.132976
O	-2.5921229394	-3.3662182087	-3.211745881	-0.265469
H	 1.0694252084	 1.7311868435	 0.3235135038	 0.106265
H	-0.2452095724	 1.9285136691	-0.8654904381	 0.113679
H	-0.6236588233	 1.7192054318	 0.8651231658	 0.126102
H	 0.5929611805	 0.1029504348	-2.0229058568	 0.091933
H	 2.7081418985	-1.1601355982	-1.6156387256	 0.11797
H	 2.6196111653	 0.2265872602	-0.5258672408	 0.11868
H	 2.2545078179	-1.3961225758	 0.0868651653	 0.121101
H	 0.5871630926	-2.4062313547	-2.2416787573	 0.107432
H	 0.0019606497	-2.5087450558	-0.5685641698	 0.103111
H	-1.9806403182	-1.1447975563	-1.1891489781	 0.110171
H	-1.9142885415	-1.5376183563	-3.8180446264	 0.292796
H	-2.1693481734	-3.6739385537	-1.2557194294	 0.097252
48.7313	68.5915	87.5445	116.7519	163.2209	207.6691	232.9278	278.9119	306.0639	340.6881	344.901	413.775	459.1687	512.9701	523.3305	753.7103	804.9631	844.2991	878.1239	924.315	997.0721	1002.9044	1089.8212	1111.9817	1120.831	1151.3764	1179.7184	1187.7259	1209.3183	1244.3244	1275.2486	1307.8626	1354.2987	1383.1541	1389.5451	1404.8667	1408.9914	1440.16	1459.5896	1478.9844	1483.8712	1494.2817	1501.8911	1512.4224	1809.319	2926.5028	2972.6301	2981.5845	2998.4107	3030.3862	3031.8009	3039.6321	3086.0319	3110.3389	3111.5185	3113.9749	3690.8184
COC(C)CC(O)C=O	CO[C@@H](C)C[C@@H](O)C=O	
InChI=1S/C6H12O3/c1-5(9-2)3-6(8)4-7/h4-6,8H,3H2,1-2H3	InChI=1S/C6H12O3/c1-5(9-2)3-6(8)4-7/h4-6,8H,3H2,1-2H3/t5-,6+/m0/s1
