20
gdb 108153	3.23117	1.45979	1.25171	0.8875	85.71	-0.2068	-0.0344	0.1724	1084.5316	0.170825	-365.895759	-365.88776	-365.886816	-365.928091	31.823	
C	-0.1550646029	 1.4670410432	-0.3783806156	-0.379609
C	-0.0338962935	 0.0525196587	 0.2022231209	-0.258292
C	-1.3623498135	-0.6574848305	 0.3195476916	 0.348511
C	-2.3941028601	-0.2070132223	 1.3816448068	-0.316809
C	-3.5189460273	-1.1854616362	 1.0973544068	-0.117257
C	-3.0518620802	-2.1729952269	 0.3003752439	 0.014431
C	-3.1658209793	-1.8856135152	-1.1970736631	-0.171787
N	-1.752886367	-1.2946036527	-1.0649142544	-0.189174
C	-1.5288591059	-2.1069164536	 0.1632807774	-0.136923
H	 0.8271643943	 1.9425654641	-0.456010032	 0.111941
H	-0.5977355215	 1.4306520958	-1.3778531336	 0.133742
H	-0.7843209265	 2.1079220828	 0.2479635058	 0.113121
H	 0.6366727683	-0.544743329	-0.4226918392	 0.111435
H	 0.4177657532	 0.0964415298	 1.2025905899	 0.096421
H	-1.9064661373	-0.2321156844	 2.3679936655	 0.114558
H	-2.7771510849	 0.8114573149	 1.2485182577	 0.116817
H	-4.533527055	-0.8113883672	 0.9867923461	 0.094356
H	-3.070721553	-2.7265060643	-1.8915214014	 0.115221
H	-3.9566155125	-1.2038580992	-1.5228114614	 0.109022
H	-0.7942496854	-2.9039362682	 0.2206760183	 0.090274
78.9477	154.0933	207.0981	261.014	331.2124	340.9183	412.6951	474.638	529.7905	596.4131	676.2431	729.9419	767.1659	795.3129	815.0618	861.2426	916.3384	918.5213	947.1338	967.8683	1001.3057	1037.1774	1051.963	1065.8308	1067.6154	1099.3083	1115.2948	1162.5538	1183.9857	1219.4027	1257.9438	1268.737	1299.2467	1320.2643	1341.8901	1405.172	1408.034	1466.803	1474.1323	1498.4951	1506.1165	1507.7339	1576.5043	2991.5979	3021.2451	3037.8722	3039.1549	3058.4342	3078.9235	3102.8507	3106.3218	3118.2692	3154.6979	3156.9703
CCC12CC=C3CN1C23	CC[C@@]12C[CH][C]3CN1[C@@H]23	
InChI=1S/C8H11N/c1-2-8-4-3-6-5-9(8)7(6)8/h3,7H,2,4-5H2,1H3	InChI=1S/C8H11N/c1-2-8-4-3-6-5-9(8)7(6)8/h3,7H,2,4-5H2,1H3/t7-,8+,9?/m1/s1
