20
gdb 104048	3.37338	1.22745	1.10857	1.0288	74.47	-0.2239	0.0592	0.283	1162.4863	0.170763	-440.230187	-440.221431	-440.220487	-440.263362	33.609	
C	 0.1430013415	 1.4906418264	-0.0041741398	-0.448972
C	 0.0108836954	-0.0246577835	 0.0202937984	 0.276784
C	-1.4338548878	-0.5031389634	-0.1688336508	-0.113994
O	-1.8791907983	-0.3700607884	-1.511094998	-0.419928
N	 0.9480656501	-0.7259866069	-0.9194223507	-0.364363
C	 1.4239165704	-1.6265449529	 0.1566742318	-0.051503
C	 2.6917717891	-1.0781924719	 0.831978629	-0.067633
O	 1.897661605	-0.2129834833	 1.6901577453	-0.297639
C	 0.6683121732	-0.7824675881	 1.2106067277	 0.060028
H	 1.1698304192	 1.7759062299	 0.2312049379	 0.141885
H	-0.0964670978	 1.887761674	-0.9975993025	 0.104521
H	-0.5246340414	 1.960106515	 0.7272299395	 0.109972
H	-1.5022773244	-1.5749086465	 0.051504634	 0.104629
H	-2.099886188	 0.021453098	 0.5343803872	 0.092447
H	-1.9020967026	 0.5680898419	-1.7259136096	 0.289453
H	 0.4469298435	-1.1875750217	-1.6719537683	 0.223974
H	 1.3263570664	-2.7010092123	-0.0012618654	 0.079168
H	 3.2551202738	-1.8062104238	 1.4297888849	 0.097427
H	 3.365594671	-0.5166168561	 0.1775990256	 0.111191
H	 0.0239074617	-1.1367683964	 2.0203174935	 0.072553
98.2349	131.1132	171.5716	210.5687	253.1438	311.2429	340.9693	363.6328	391.3979	441.7438	573.068	652.6744	757.0475	801.8527	806.7973	852.9563	909.8691	944.22	956.491	966.5072	1004.8959	1009.7202	1038.5214	1073.3517	1086.5285	1137.1456	1149.929	1174.0505	1183.35	1202.4544	1225.1795	1274.9207	1300.2319	1327.1087	1354.774	1373.9732	1385.9778	1408.1055	1424.0699	1483.5357	1491.2912	1501.8377	1505.0241	2980.6567	3015.5333	3027.295	3057.407	3064.7807	3087.0772	3089.193	3104.6156	3135.06	3525.8255	3817.7491
CC1(CO)NC2COC12	C[C@@]1(CO)N[C@H]2CO[C@@H]12	
InChI=1S/C6H11NO2/c1-6(3-8)5-4(7-6)2-9-5/h4-5,7-8H,2-3H2,1H3	InChI=1S/C6H11NO2/c1-6(3-8)5-4(7-6)2-9-5/h4-5,7-8H,2-3H2,1H3/t4-,5+,6-/m0/s1
