19
gdb 33246	5.64911	0.66633	0.63737	1.0879	78.45	-0.2218	0.0202	0.2419	1761.0924	0.159222	-423.041588	-423.032549	-423.031605	-423.076736	32.116	
C	-0.1400221585	 1.3872248802	 0.0201001308	-0.228266
O	 0.0306503392	-0.0079777857	-0.0325393818	-0.227661
C	 0.6376749753	-0.5314269315	 1.1271177551	-0.039414
C	 0.7749096699	-2.04543727	 0.9557470659	-0.337823
C	 1.3855639224	-2.7067233183	 2.1542693187	 0.236278
C	 2.6275774006	-3.2541296058	 2.2508073229	-0.100013
O	 2.850484526	-3.7508417403	 3.4974279134	-0.141228
C	 1.7237543962	-3.5142534792	 4.2182949509	 0.00629
C	 0.7958855619	-2.8812432766	 3.4570829769	-0.279527
H	 0.8221833913	 1.9145454532	 0.1210900697	 0.103227
H	-0.6143256808	 1.6957472985	-0.9148454541	 0.126325
H	-0.7839067935	 1.6898911883	 0.8616008672	 0.102365
H	 1.6305401998	-0.0780525845	 1.2878157053	 0.088907
H	 0.0314364778	-0.299999189	 2.0198859766	 0.086185
H	-0.2210871368	-2.4566088799	 0.753883401	 0.116502
H	 1.3823256713	-2.2399417297	 0.0659008475	 0.111689
H	 3.4363303299	-3.3707333883	 1.5477596578	 0.133207
H	 1.7413953046	-3.8567891983	 5.2397769615	 0.134502
H	-0.1918089866	-2.5781533933	 3.7695948647	 0.108454
46.9494	85.3206	94.0342	113.7497	235.947	257.992	320.9657	334.9892	455.0173	623.0406	649.8738	724.0292	739.0282	787.2972	803.4567	834.1046	892.6966	982.4401	996.9649	1057.4372	1057.9472	1063.2908	1101.4592	1162.962	1180.1409	1203.8383	1226.3112	1228.7856	1267.495	1277.5428	1307.5739	1329.4821	1409.2052	1420.3302	1481.6241	1486.1372	1490.0902	1505.4493	1531.1645	1537.317	1636.5967	2950.1145	2969.4612	2980.2863	3010.158	3039.3767	3085.7859	3112.3541	3247.6185	3271.5432	3283.7279
COCCC1=COC=C1	COCCc1cocc1	
InChI=1S/C7H10O2/c1-8-4-2-7-3-5-9-6-7/h3,5-6H,2,4H2,1H3	InChI=1S/C7H10O2/c1-8-4-2-7-3-5-9-6-7/h3,5-6H,2,4H2,1H3
