17
gdb 26001	3.64637	1.00005	0.90159	2.7997	74.5	-0.2251	-0.0123	0.2127	1302.579	0.135109	-421.873581	-421.864865	-421.863921	-421.909302	30.908	
C	 0.3580683214	 0.5135838145	 0.8530232376	-0.477486
C	-0.1279545783	 0.1268330717	-0.531108388	 0.390232
O	 0.407456203	 0.5227839562	-1.5387401778	-0.295433
C	-1.3465501155	-0.807340134	-0.5973873877	-0.406591
C	-1.0114298979	-2.19776367	-0.1289468193	 0.216079
C	-0.3808111382	-3.1708976098	-0.8445876793	-0.082193
O	-0.2188251694	-4.2942313624	-0.0975485822	-0.136209
C	-0.7525578875	-4.0368818928	 1.1239080175	 0.008026
C	-1.2506955067	-2.7747039248	 1.1672125558	-0.286407
H	 1.2757920061	 1.0972639308	 0.7750679942	 0.142617
H	-0.4099832432	 1.1085757723	 1.3617312614	 0.136267
H	 0.5292665228	-0.3777243409	 1.4647423857	 0.148666
H	-2.1513719457	-0.3962001471	 0.023001638	 0.114873
H	-1.684417301	-0.8139724374	-1.6362411068	 0.130166
H	-0.0051313901	-3.2167740488	-1.8536202742	 0.146672
H	-0.7063080755	-4.8446632022	 1.8353079618	 0.13954
H	-1.7417064045	-2.3048940553	 2.0058281132	 0.111182
25.472	33.2144	104.6344	132.876	283.7198	300.8092	386.0683	490.1046	547.9912	623.2852	640.7881	722.61	742.5495	779.9974	801.2096	835.1796	870.2471	892.3044	981.6299	1014.8914	1044.719	1059.5752	1102.3529	1150.2114	1207.8113	1240.7342	1268.1234	1278.5783	1308.8994	1381.1333	1409.7774	1462.5701	1471.4993	1479.0058	1532.6833	1622.6289	1818.0662	3036.475	3043.5029	3101.8574	3110.1619	3155.0306	3248.5716	3276.2007	3286.0565
CC(=O)CC1=COC=C1	CC(=O)Cc1cocc1	
InChI=1S/C7H8O2/c1-6(8)4-7-2-3-9-5-7/h2-3,5H,4H2,1H3	InChI=1S/C7H8O2/c1-6(8)4-7-2-3-9-5-7/h2-3,5H,4H2,1H3
