23
gdb 120868	4.65655	0.74536	0.70438	1.5139	86.64	-0.243	0.0816	0.3247	1686.1873	0.205003	-388.262537	-388.252684	-388.25174	-388.297479	37.006	
C	 0.039436735	 1.5726013243	 0.0766221759	-0.497068
C	 0.0403531155	 0.0726886482	 0.0059585573	 0.376031
C	-0.9292656366	-0.7929031621	 0.7606037287	-0.325192
C	 0.5470634919	-0.9707864056	 1.0094744618	-0.12126
C	 1.2100944967	-1.7769439678	-0.1164746603	 0.02705
C	 0.874411317	-3.2585955366	-0.258394535	-0.193263
C	 1.5571979348	-3.9080920124	-1.4555211733	-0.070189
O	 1.1720500624	-5.2748819618	-1.4951902246	-0.421577
C	 0.6363493829	-0.7448855622	-1.1527724074	-0.312058
H	 1.0304348937	 1.9853356617	-0.1466758921	 0.11244
H	-0.6671192527	 2.0052442366	-0.642893586	 0.11734
H	-0.2515691666	 1.9225571345	 1.0727658171	 0.115397
H	-1.4660457852	-0.293592327	 1.5619715741	 0.104962
H	-1.5133123667	-1.5579202152	 0.2537167101	 0.10263
H	 0.9712355271	-0.8178371453	 1.9961307531	 0.076366
H	 2.2984407025	-1.6596742922	-0.060288389	 0.067972
H	 1.1784961991	-3.7962764119	 0.6485308294	 0.102128
H	-0.2076964877	-3.402350447	-0.3579749025	 0.102718
H	 1.2644868137	-3.3865029285	-2.3815975268	 0.086139
H	 2.6512238154	-3.8059820808	-1.3591478916	 0.080175
H	 1.5928215909	-5.6833104313	-2.2572037973	 0.283409
H	-0.0882011276	-1.1334577005	-1.8779967946	 0.089614
H	 1.4212299344	-0.2155486171	-1.699388287	 0.096235
73.2068	90.8648	104.7899	172.9054	210.3035	266.0794	278.7087	286.765	372.2841	382.5883	441.1924	518.551	610.9405	712.5298	787.6122	804.3225	860.7755	895.1903	922.3044	955.0951	974.5738	980.7074	1019.519	1027.0755	1062.1433	1069.8488	1078.3078	1091.4421	1109.1519	1144.7751	1178.8714	1225.5359	1232.4922	1244.4831	1256.8739	1275.7342	1299.521	1311.7424	1331.1353	1385.4448	1399.6948	1424.9722	1460.2801	1481.7798	1486.1707	1489.0533	1498.6024	1510.4461	1526.2322	2954.8201	2980.0459	3015.4212	3028.8225	3032.1423	3032.6887	3071.734	3073.6723	3091.0063	3093.8839	3105.2539	3163.2933	3190.9038	3828.7577
CC12CC1C(CCO)C2	C[C@]12C[C@H]1[C@@H](CCO)C2	
InChI=1S/C8H14O/c1-8-4-6(2-3-9)7(8)5-8/h6-7,9H,2-5H2,1H3	InChI=1S/C8H14O/c1-8-4-6(2-3-9)7(8)5-8/h6-7,9H,2-5H2,1H3/t6-,7-,8-/m0/s1
