23
gdb 109683	2.91323	0.97491	0.90105	2.182	82.46	-0.23	0.0468	0.2768	1468.0606	0.202826	-425.41611	-425.405154	-425.40421	-425.451946	40.456	
C	-0.0232085601	 1.4686638021	-0.4408267471	-0.375604
C	-0.0471685181	 0.088369083	 0.2285069541	-0.203361
C	-1.4135307695	-0.5641548062	 0.1965544763	-0.124025
C	-1.8951253104	-1.341246814	-1.0231705249	-0.012844
O	-1.0008328298	-1.6219642654	-2.0705474906	-0.431896
C	-1.5778276861	-2.0754569492	 0.2554487066	 0.398681
O	-0.4151839297	-2.8568451089	 0.2320277253	-0.47811
C	-2.6751091826	-2.699478703	 1.0892202709	-0.230381
C	-3.1103225973	-4.0744865954	 0.5720828223	-0.37894
H	 0.9713905163	 1.9216813343	-0.3809386019	 0.115645
H	-0.2968998572	 1.4107423129	-1.5014657131	 0.096492
H	-0.7323456445	 2.1542800611	 0.0355615225	 0.118074
H	 0.6856158938	-0.5725156219	-0.2423918992	 0.100065
H	 0.2717414816	 0.1860232311	 1.2733564488	 0.104795
H	-2.1951223466	 0.008361463	 0.6931519102	 0.078521
H	-2.9326779498	-1.2386092808	-1.3385230434	 0.087014
H	-0.6993042495	-0.7935877022	-2.4570498195	 0.297604
H	-0.1112354197	-2.8614232156	-0.6864547152	 0.293631
H	-2.3151470376	-2.7878544143	 2.1223186045	 0.104764
H	-3.5305107778	-2.013965583	 1.1162188059	 0.089888
H	-3.5283810921	-4.0030241417	-0.4379500678	 0.11157
H	-2.2542602151	-4.752612114	 0.5332182678	 0.13226
H	-3.8721784383	-4.5164623023	 1.2212493176	 0.106158
68.2174	79.8853	133.8216	148.7829	199.3586	223.3967	242.7531	275.1509	286.2042	311.5004	326.793	365.9757	434.955	544.3587	599.7054	643.2068	709.8108	776.2296	785.1495	839.2883	853.674	935.9996	983.6441	1010.9073	1040.4284	1057.5652	1069.1671	1098.1111	1105.8842	1148.2951	1168.1423	1223.1206	1249.7656	1279.5932	1283.4958	1331.6487	1339.7507	1358.2582	1382.5662	1391.4135	1403.9139	1414.4647	1470.2482	1475.5881	1485.7851	1495.6809	1497.404	1505.0033	1511.1148	3023.3269	3023.9208	3036.6653	3037.6865	3060.7967	3076.8873	3094.2825	3101.9813	3103.7672	3105.6417	3123.7901	3126.163	3737.4887	3812.7189
CCC1C(O)C1(O)CC	CC[C@H]1[C@@H](O)[C@]1(O)CC	
InChI=1S/C7H14O2/c1-3-5-6(8)7(5,9)4-2/h5-6,8-9H,3-4H2,1-2H3	InChI=1S/C7H14O2/c1-3-5-6(8)7(5,9)4-2/h5-6,8-9H,3-4H2,1-2H3/t5-,6+,7-/m0/s1
