15
gdb 27820	2.02597	1.87953	0.98112	4.8007	73.43	-0.2253	-0.0354	0.1899	1140.206	0.112738	-454.03338	-454.025064	-454.02412	-454.066264	30.78	
C	 0.0130683508	 1.4575283691	-0.0039890692	-0.46744
C	-0.0672292847	-0.0357837542	 0.0200928661	 0.425244
N	-1.198155463	-0.6491993998	-0.0607727863	-0.374627
C	-1.1550124671	-2.0308276864	-0.0304106466	 0.409268
N	-2.3816030996	-2.6089894143	-0.0862890628	-0.562778
C	 0.0185636821	-2.7366742203	 0.0727951001	-0.35613
C	 1.2630885732	-2.0558601126	 0.1642226793	 0.419126
O	 2.381827241	-2.4750160012	 0.2610213683	-0.349491
O	 1.1265412855	-0.6152198769	 0.130158672	-0.245181
H	 0.6373537682	 1.784452018	-0.8413546555	 0.155628
H	-0.9859026129	 1.8812239164	-0.0965195413	 0.149213
H	 0.4889380988	 1.819836146	 0.9125755551	 0.156388
H	-3.157239519	-2.0159150918	-0.3283716137	 0.26872
H	-2.4692942137	-3.5966950308	-0.2491860711	 0.267175
H	 0.0436218504	-3.8181307911	 0.0935580558	 0.104887
111.6269	152.0472	164.5446	203.8281	272.6437	290.459	355.6819	480.2947	496.8479	548.1879	575.1426	603.206	626.9478	726.3158	763.0779	798.7245	821.8906	961.6937	1008.543	1042.3458	1066.8748	1097.8124	1149.1524	1312.1841	1340.3113	1411.1688	1449.5999	1469.9721	1474.3346	1599.5241	1648.3401	1681.8488	1872.0423	3052.5413	3111.8414	3169.7661	3216.6408	3614.9421	3743.4159
CC1=NC(N)=CC(=O)O1	Cc1nc(N)cc(=O)o1	
InChI=1S/C5H6N2O2/c1-3-7-4(6)2-5(8)9-3/h2H,6H2,1H3	InChI=1S/C5H6N2O2/c1-3-7-4(6)2-5(8)9-3/h2H,6H2,1H3
