16
gdb 54873	3.60194	1.35731	1.0715	2.1922	71.39	-0.2338	-0.0092	0.2245	1090.4537	0.126509	-434.099092	-434.091517	-434.090573	-434.131463	29.15	
N	-0.039004627	 1.3565206495	 0.0062636187	-0.565719
C	 0.0510644313	-0.0233254854	 0.0390377387	 0.458282
O	 1.0911477316	-0.6206179877	 0.2192267639	-0.377379
N	-1.1643328529	-0.6903725882	-0.1105191141	-0.128057
C	-2.4643862473	-0.2040432521	 0.0376460616	 0.052859
N	-3.3848074247	-1.0823227972	 0.1641932936	-0.257764
C	-2.7476167706	-2.3761369653	 0.0789855722	-0.012079
C	-2.0600726843	-2.7268412122	-1.2237645659	-0.308932
C	-1.2493253872	-2.1340552576	-0.1045608581	-0.012476
H	 0.8677340516	 1.7967289597	-0.0381735503	 0.268736
H	-0.7360598602	 1.7819673874	-0.5848834582	 0.258655
H	-2.6469891582	 0.8633790157	 0.0543712781	 0.134115
H	-3.1734972024	-3.1615375627	 0.6912542438	 0.106239
H	-1.9051189682	-3.7819155908	-1.4188958295	 0.125732
H	-2.2742249469	-2.1205891116	-2.0977191114	 0.121228
H	-0.4319647145	-2.6514824315	 0.3761192069	 0.136559
85.4456	94.6495	214.5184	340.2854	380.4067	410.4559	450.4741	530.6708	553.8938	614.9715	661.5498	741.8383	760.7029	770.8551	826.7847	896.5416	910.3458	954.4008	999.337	1049.3726	1068.5754	1088.1585	1098.8895	1118.4274	1166.5105	1191.5162	1279.5191	1298.291	1347.0859	1383.7479	1431.9592	1466.7465	1625.9437	1650.1952	1804.7641	3132.0398	3184.839	3216.1341	3222.6405	3230.6804	3582.0568	3694.7288
NC(=O)N1C=NC2CC12	NC(=O)N1C=N[C@H]2C[C@@H]12	
InChI=1S/C5H7N3O/c6-5(9)8-2-7-3-1-4(3)8/h2-4H,1H2,(H2,6,9)	InChI=1S/C5H7N3O/c6-5(9)8-2-7-3-1-4(3)8/h2-4H,1H2,(H2,6,9)/t3-,4+/m0/s1
