21
gdb 40632	3.28215	1.16763	1.13549	0.1538	87.54	-0.2198	0.0234	0.2431	1210.1836	0.184506	-349.936205	-349.928363	-349.927419	-349.968887	31.5	
C	-0.029925515	 1.5241973653	-0.0211609536	-0.270213
C	 1.3299530671	 0.878409209	 0.0760534423	-0.273473
C	 0.09220453	 0.0181969558	-0.0112254523	 0.020154
C	-0.3616846279	-0.7537072065	 1.185315502	-0.017128
C	-1.6718596771	-1.5025101072	 1.2693658903	-0.076703
C	-2.4071897618	-1.8712985604	-0.0222395366	-0.271784
C	-1.4483281377	-2.8081210493	-0.7285900204	-0.07638
C	-0.348639195	-3.0362802476	-0.0055478405	-0.070888
C	-0.3563049161	-2.2770767707	 1.277460508	-0.10947
H	-0.4261317542	 2.0041653555	 0.8680252789	 0.107493
H	-0.3054331408	 2.0155105391	-0.9481117747	 0.107089
H	 1.9885311649	 0.9252883097	-0.7843648809	 0.107986
H	 1.8455670614	 0.9263601838	 1.0300343412	 0.107252
H	-0.0686745767	-0.4763777305	-0.9625758873	 0.086382
H	-0.0882973285	-0.2713215356	 2.1227080296	 0.07584
H	-2.2554567094	-1.3915236418	 2.1761137015	 0.079268
H	-3.3660882224	-2.3621310903	 0.1903133011	 0.103891
H	-2.6439703851	-0.9903210828	-0.6343293674	 0.110802
H	-1.6449549495	-3.2066364859	-1.7178823816	 0.089798
H	 0.4776907137	-3.6712080476	-0.3053995405	 0.090583
H	 0.04741974	-2.7348652819	 2.1747102309	 0.079502
60.3365	145.3697	155.9794	285.4827	303.2607	374.9326	506.7736	562.4014	701.7547	731.0929	759.5047	776.7877	788.1508	807.3683	830.9515	873.7339	920.687	932.4605	936.6566	959.0381	967.4711	999.8597	1016.9112	1024.2196	1059.4741	1068.3245	1076.2325	1105.8662	1130.0104	1135.033	1142.5163	1185.8963	1199.6149	1223.4905	1252.1243	1299.8333	1302.6988	1323.5942	1368.036	1385.1365	1461.27	1469.9776	1480.5387	1507.4889	1666.7451	3013.1233	3036.8933	3112.0209	3125.299	3130.3056	3155.2317	3170.1623	3171.7953	3181.2214	3202.5632	3206.3037	3218.7545
C1CC1C1C2CC=CC12	C1CC1[C@H]1[C@H]2CC=C[C@@H]12	
InChI=1S/C9H12/c1-2-7-8(3-1)9(7)6-4-5-6/h1-2,6-9H,3-5H2	InChI=1S/C9H12/c1-2-7-8(3-1)9(7)6-4-5-6/h1-2,6-9H,3-5H2/t7-,8+,9-/m1/s1
