19
gdb 64336	2.52261	1.46658	1.17702	5.8353	72.06	-0.2734	0.0486	0.322	1122.0441	0.158561	-460.223458	-460.21461	-460.213666	-460.257787	33.147	
C	 0.0679389977	 1.444065229	 0.1708982607	-0.41529
C	-0.1253090728	-0.0524591447	-0.0671357938	 0.363504
C	-1.610790941	-0.388700227	-0.2349342338	-0.415255
C	 0.7333045021	-0.552720151	-1.2302802064	-0.255319
C	 0.8717110405	-2.0597027126	-1.1530993686	-0.083831
O	 1.4030439882	-2.4565683608	 0.1157382009	-0.251166
C	 1.0555330773	-1.8166734535	 1.2547544069	 0.464986
O	 1.4098015968	-2.2344374588	 2.3166684126	-0.36405
O	 0.3201901357	-0.6893915304	 1.1692877407	-0.297679
H	 1.1218593095	 1.6702455713	 0.3529630652	 0.129201
H	-0.266914837	 2.0147060731	-0.7008105819	 0.11866
H	-0.508380333	 1.7680005093	 1.0413542625	 0.13495
H	-2.0306888636	 0.1515769778	-1.089066181	 0.120918
H	-1.7731191416	-1.4586292566	-0.3903682225	 0.12485
H	-2.1583539742	-0.0953156346	 0.6640485354	 0.13979
H	 0.2822442454	-0.2605283173	-2.1835294089	 0.116706
H	 1.7278503389	-0.0965446719	-1.1775936516	 0.120355
H	-0.0887621916	-2.5646336013	-1.3108911875	 0.119869
H	 1.5761347524	-2.4420214301	-1.8952018189	 0.128802
23.4846	109.8378	211.0017	247.406	262.8237	306.0062	333.714	362.4254	447.7531	473.796	507.6643	537.2764	671.3126	735.7917	763.6875	815.024	903.2325	934.7914	958.2786	983.4951	1004.9287	1029.0386	1065.1229	1122.6412	1160.1279	1200.9394	1224.0992	1275.5317	1281.6911	1300.1374	1381.9506	1403.8173	1421.2581	1428.0443	1469.0694	1479.825	1487.1679	1496.1818	1505.8749	1524.4133	1873.5605	3036.3182	3043.0184	3046.7534	3050.7886	3097.393	3105.5335	3117.5034	3121.9088	3126.4271	3130.2347
CC1(C)CCOC(=O)O1	CC1(C)CCOC(=O)O1	
InChI=1S/C6H10O3/c1-6(2)3-4-8-5(7)9-6/h3-4H2,1-2H3	InChI=1S/C6H10O3/c1-6(2)3-4-8-5(7)9-6/h3-4H2,1-2H3
