18
gdb 66788	2.9853	2.23088	1.83199	1.7139	76.21	-0.2356	0.0726	0.3082	831.2672	0.149884	-364.743608	-364.737467	-364.736523	-364.773626	26.687	
C	-0.0211504985	 1.5135324435	 0.0148729519	-0.523458
C	 0.0640207872	 0.0105722467	 0.0069356786	 0.344535
C	 0.8179249199	-0.746575289	-1.1194561638	-0.143645
C	-0.4085746872	-1.6195763973	-1.384750152	-0.091431
C	 0.7527879728	-2.1507975765	-0.5842849748	-0.027057
N	 0.4583084927	-2.1741683639	 0.8626074119	-0.122169
C	-0.8985684318	-1.6421167085	 1.0673198092	-0.060796
C	 0.3013512725	-0.7882826204	 1.3227210639	-0.111483
C	-1.1920650817	-0.9031378101	-0.2628188112	-0.137747
H	 0.9564551857	 1.9627305116	 0.2274659467	 0.120325
H	-0.3602072712	 1.8962212609	-0.9536279404	 0.121774
H	-0.7223724003	 1.8650458334	 0.7797060807	 0.120326
H	 1.5794522725	-0.3677136066	-1.7915043764	 0.082942
H	-0.7810848156	-2.0567076696	-2.3030682004	 0.086942
H	 1.3907086963	-2.9366514612	-0.9658918912	 0.095935
H	-1.5816837244	-2.1518750206	 1.737768992	 0.09044
H	 0.7829651962	-0.463057624	 2.2396463464	 0.084926
H	-2.1681958651	-0.4636850185	-0.4541143611	 0.069642
227.8657	252.0775	255.2873	549.5239	567.3614	582.0177	723.1869	734.8909	756.3771	773.608	804.5682	828.1788	856.336	858.9045	882.7053	900.4521	913.8468	930.0257	950.7902	1001.7092	1018.8023	1030.1793	1043.2937	1058.3808	1072.2402	1106.7408	1159.5453	1166.0259	1186.6802	1210.2303	1225.2956	1231.2179	1266.5934	1311.8219	1351.3895	1364.3474	1412.5393	1490.8336	1492.62	3022.3227	3084.521	3095.495	3145.7863	3153.7816	3171.7321	3172.4347	3185.5513	3211.2321
CC12C3C4C3N3C(C13)C24	C[C@@]12[C@@H]3[C@H]4[C@@H]3N3[C@@H]([C@H]13)[C@@H]24	
InChI=1S/C8H9N/c1-8-3-2-4(8)6-7(8)9(6)5(2)3/h2-7H,1H3	InChI=1S/C8H9N/c1-8-3-2-4(8)6-7(8)9(6)5(2)3/h2-7H,1H3/t2-,3-,4+,5+,6-,7-,8+,9?/m1/s1
