21
gdb 111888	2.72008	1.21277	0.93463	1.879	84.6	-0.2234	0.0196	0.243	1314.0237	0.182953	-387.08849	-387.079546	-387.078602	-387.122014	34.458	
C	-0.0789290049	 1.5137557108	 0.0744447183	-0.496179
C	-0.0069356958	 0.0207548811	 0.0068591829	 0.327066
C	 0.1011827218	-0.7424096115	-1.0876458846	-0.210895
C	 0.1087338484	-2.2277590232	-0.7811109702	-0.046117
C	 1.2616991447	-3.0147991406	-1.426680481	-0.073195
O	 1.2096467408	-3.0067993635	-2.8460055711	-0.422251
C	 0.1188695203	-2.2572186022	 0.7508906067	-0.059931
C	 1.2602240052	-1.6019501128	 1.4918595331	-0.284528
C	-0.0187298272	-0.827564552	 1.2412697908	-0.13295
H	 0.7498868787	 1.9244730142	 0.6647608771	 0.128009
H	-0.0489654804	 1.9656331422	-0.920671155	 0.121676
H	-1.002969976	 1.841766156	 0.5675228714	 0.126328
H	 0.1699107782	-0.3526727084	-2.0987392847	 0.076801
H	-0.8191893873	-2.6854480474	-1.1544569143	 0.084051
H	 2.2271106085	-2.6361079777	-1.0605918645	 0.085325
H	 1.1923162674	-4.0679685044	-1.1340932005	 0.107283
H	 1.4192013682	-2.1156817743	-3.1413091954	 0.282862
H	-0.3980804108	-3.0659364114	 1.2539942628	 0.085306
H	 1.4455783004	-1.9540307136	 2.5015873284	 0.108558
H	 2.1488730507	-1.2934912935	 0.9516313464	 0.110848
H	-0.6447366407	-0.5528073279	 2.0841041032	 0.081932
90.3903	141.0954	158.6954	195.6529	211.7878	310.5175	323.1156	342.2247	445.931	469.2778	591.7351	593.2472	703.3022	790.0967	808.3737	830.5096	857.7106	889.2144	931.8174	1000.4496	1012.5308	1021.5438	1047.4752	1064.3913	1066.0183	1080.1003	1095.478	1101.0972	1106.2112	1184.7659	1193.981	1201.5337	1273.0242	1294.7405	1329.5844	1374.1258	1377.6812	1389.5486	1411.824	1418.4967	1477.267	1478.5925	1489.3938	1501.9883	1702.6244	2990.063	3002.694	3017.8197	3063.8718	3072.2989	3110.7087	3125.55	3158.3208	3172.9194	3176.0262	3213.391	3824.4288
CC1=CC(CO)C2CC12	CC1=C[C@@H](CO)[C@H]2C[C@@H]12	
InChI=1S/C8H12O/c1-5-2-6(4-9)8-3-7(5)8/h2,6-9H,3-4H2,1H3	InChI=1S/C8H12O/c1-5-2-6(4-9)8-3-7(5)8/h2,6-9H,3-4H2,1H3/t6-,7-,8+/m0/s1
