21
gdb 84837	2.21583	1.7995	1.20616	1.6918	83.2	-0.2464	0.0168	0.2632	1104.2548	0.183417	-387.097476	-387.088924	-387.08798	-387.129992	34.258	
C	-0.455662734	 1.359685574	 0.0926031911	-0.47423
C	 0.03436712	-0.0723286067	 0.018804605	 0.337184
C	-0.6262872941	-1.09974932	 0.9164361345	-0.340335
C	 0.7897991329	-0.6532156683	 1.1933550867	-0.072975
C	 1.9417857319	-1.6190789734	 0.9781845655	-0.280677
C	 1.934049549	-2.259534902	-0.3820358335	-0.074606
C	 1.2575965487	-1.7727632509	-1.4208957305	-0.085254
C	 0.4219480673	-0.5210870603	-1.3854168805	 0.011528
O	-0.7279063912	-0.6448639923	-2.2290550705	-0.43821
H	 0.3416985069	 2.0641165654	-0.1730813817	 0.112987
H	-1.2850074704	 1.5149254155	-0.6047283685	 0.130328
H	-0.8021966699	 1.6119103968	 1.0996187363	 0.107517
H	-1.4148592448	-0.7614416677	 1.5800260701	 0.107333
H	-0.7613502924	-2.1090236186	 0.5386071578	 0.106527
H	 0.9174558205	 0.0121466514	 2.0431588996	 0.079345
H	 2.8952129445	-1.0881039853	 1.1179421168	 0.114315
H	 1.9280579459	-2.3972619591	 1.7538965704	 0.106765
H	 2.5334299142	-3.1587319136	-0.5040608173	 0.088884
H	 1.2957679627	-2.2631442611	-2.390320356	 0.093739
H	 0.9938743294	 0.2916674706	-1.8561697208	 0.092863
H	-1.3029567172	-1.3018095648	-1.8201417348	 0.276973
103.6633	196.5142	230.2	250.5959	268.224	312.3717	353.4352	382.9955	417.2122	496.042	519.3098	585.4986	678.8524	749.2494	793.01	807.8338	891.5737	895.823	933.8925	940.9377	977.0097	1008.6275	1034.7339	1054.7571	1065.6108	1075.7703	1107.4464	1128.7992	1137.4504	1191.6387	1229.1728	1239.707	1258.7239	1319.0561	1350.3769	1366.823	1402.7606	1407.7698	1416.5622	1428.952	1476.4865	1487.6333	1490.3597	1506.3781	1721.9919	2996.8271	3001.3339	3022.174	3025.7022	3089.1122	3106.744	3121.1974	3137.4011	3145.769	3170.613	3206.4966	3795.6513
CC12CC1CC=CC2O	C[C@]12C[C@H]1CC=C[C@H]2O	
InChI=1S/C8H12O/c1-8-5-6(8)3-2-4-7(8)9/h2,4,6-7,9H,3,5H2,1H3	InChI=1S/C8H12O/c1-8-5-6(8)3-2-4-7(8)9/h2,4,6-7,9H,3,5H2,1H3/t6-,7-,8+/m1/s1
