18
gdb 43850	2.78627	1.59275	1.16401	3.945	80.57	-0.2443	-0.0342	0.2101	1078.9313	0.148956	-401.954821	-401.94722	-401.946276	-401.986883	30.255	
N	-0.1388045872	 1.2698413086	-0.2059070677	-0.503814
C	-0.004472279	 0.0280029622	 0.0335813574	 0.367395
O	-1.1514784621	-0.7038253554	 0.1316906255	-0.268371
C	-1.0759219256	-1.9335523097	 0.8309795002	 0.436543
C	-1.4499279805	-1.8793337848	 2.2893032234	-0.316509
C	-2.4062376709	-2.4541237203	 1.2587242194	-0.330694
C	 0.0312773497	-2.8391185382	 0.3430164267	-0.340083
C	 1.302950227	-2.0452931408	 0.233205463	-0.080647
C	 1.2644917368	-0.7150487826	 0.1289356979	-0.134734
H	 0.7784443485	 1.6989891723	-0.3210077972	 0.219026
H	-0.9564971613	-2.5570008099	 2.9778167561	 0.113323
H	-1.6892132801	-0.9038012447	 2.6958242309	 0.132965
H	-3.268882923	-1.8552210519	 0.9911956004	 0.135758
H	-2.5681518171	-3.5264873355	 1.23754851	 0.115038
H	 0.1566152509	-3.6800974557	 1.0333042754	 0.116974
H	-0.2233874976	-3.2758515968	-0.6342668995	 0.128174
H	 2.2510210287	-2.5754513106	 0.2310744047	 0.108163
H	 2.1705578429	-0.1225457261	 0.0561119636	 0.101495
98.7369	119.8849	266.6102	304.8359	347.4908	411.0761	456.9016	504.7778	534.8748	631.76	664.9106	767.5057	798.3	822.2763	855.4431	871.3658	920.863	923.2771	970.7502	990.7795	997.007	1017.0035	1033.0689	1054.9528	1083.1837	1116.424	1172.2835	1188.1519	1204.7634	1281.7983	1307.9664	1379.414	1391.6235	1416.4515	1451.7676	1468.0549	1499.7132	1677.2599	1724.1783	3000.817	3069.0737	3135.7284	3138.9676	3166.0338	3191.1825	3222.8577	3235.9674	3496.1773
N=C1OC2(CC2)CC=C1	[NH]C1=C[CH]CC2(O1)CC2	
InChI=1S/C7H9NO/c8-6-2-1-3-7(9-6)4-5-7/h1-2,8H,3-5H2	InChI=1S/C7H9NO/c8-6-2-1-3-7(9-6)4-5-7/h1-2,8H,3-5H2
