19
gdb 89555	5.33011	0.83843	0.82962	2.1295	75.91	-0.2431	-0.0223	0.2208	1401.896	0.157532	-423.020119	-423.011504	-423.01056	-423.054345	33.084	
O	 0.5274634839	 0.4045587424	-1.1207558063	-0.43199
C	-0.098075362	-0.3141533669	-0.0920279525	 0.18281
C	 0.2897650013	-0.0649903779	 1.3903264753	-0.342639
C	-1.194022152	-0.3057680043	 1.7651314209	 0.355701
C	-1.5740052897	-0.0186752685	 0.2878212457	-0.335785
C	-1.6053807303	-1.6970937628	 2.3464211035	-0.411439
C	-2.4370929637	-0.9553096648	 3.4055953633	 0.411173
O	-3.2234373065	-1.3048331351	 4.2361263117	-0.287446
C	-1.9070890779	 0.4119752016	 2.9451866788	-0.430624
H	 0.4355574303	 1.3439219389	-0.9286580354	 0.276705
H	 0.0301478741	-1.3689224018	-0.3525537341	 0.09855
H	 1.0519187854	-0.7025482761	 1.8464762306	 0.103314
H	 0.569673579	 0.9845060002	 1.5432755191	 0.093523
H	-1.8036667484	 1.0435946059	 0.1401036256	 0.093061
H	-2.3635278935	-0.6170123964	-0.1745970574	 0.105689
H	-2.1727623252	-2.3672992114	 1.6934172164	 0.130178
H	-0.7799419528	-2.2651202118	 2.7900914974	 0.130537
H	-1.2253752883	 0.8623692396	 3.67580912	 0.130453
H	-2.6736398436	 1.150156509	 2.6891567176	 0.128229
24.1456	80.7535	254.6707	264.8574	308.4378	330.2989	385.8565	410.9282	441.3537	472.348	501.8267	656.2	672.5865	731.2237	830.353	842.7763	858.8093	903.7817	943.6097	975.2041	1026.1579	1058.4781	1069.1096	1094.0424	1098.5286	1117.9592	1179.7674	1188.5121	1211.0257	1236.0982	1237.6493	1253.9455	1280.9897	1298.2162	1338.8552	1421.4584	1435.6914	1441.2692	1467.1629	1493.8974	1895.2395	3028.7346	3035.2143	3040.2074	3046.2654	3068.2754	3095.0417	3095.6756	3099.046	3101.4432	3804.5888
OC1CC2(C1)CC(=O)C2	OC1CC2(C1)CC(=O)C2	
InChI=1S/C7H10O2/c8-5-1-7(2-5)3-6(9)4-7/h5,8H,1-4H2	InChI=1S/C7H10O2/c8-5-1-7(2-5)3-6(9)4-7/h5,8H,1-4H2
