21
gdb 94872	2.74655	1.60656	1.31506	1.8512	80.7	-0.2216	0.0658	0.2874	1064.6605	0.184015	-387.051528	-387.043721	-387.042777	-387.083279	31.998	
C	-0.007744226	 1.6172256643	-0.0506072546	-0.397836
C	 0.0240469655	 0.0882514369	 0.0053880504	-0.042106
C	 0.7833316101	-0.5630398865	-1.2008570552	-0.230894
C	 1.2617218556	-1.9661182932	-0.7210710242	-0.304367
C	 1.4718951668	-1.7467261586	 0.7568551131	 0.40072
C	 2.2185783942	-0.5800342242	 1.3151863966	-0.385966
C	 0.7007695296	-0.5366542441	 1.2151904138	 0.164265
C	 0.1081072992	-1.5012554348	 2.2487032148	-0.149084
O	 0.9561262799	-2.5992523126	 1.7939971857	-0.332842
H	 1.0053294892	 2.0309363592	 0.0029790753	 0.113777
H	-0.4651144973	 1.9718304727	-0.980730167	 0.109966
H	-0.580751243	 2.0329221566	 0.7841762906	 0.114789
H	-1.0105540595	-0.2815389851	-0.0081424948	 0.073806
H	 0.1596381509	-0.6198854798	-2.097724216	 0.102505
H	 1.6482871469	 0.0564376159	-1.4661902247	 0.103964
H	 0.4670796373	-2.7098766074	-0.8440058779	 0.114467
H	 2.1377631529	-2.3200469437	-1.2737890328	 0.102644
H	 2.6786817953	-0.6818363441	 2.2927300378	 0.117996
H	 2.7678064664	 0.0427174046	 0.6177264432	 0.118389
H	 0.2634364691	-1.2797490515	 3.3114322115	 0.102928
H	-0.9502491831	-1.7282230345	 2.0715660143	 0.102878
136.6155	215.9333	242.5534	254.9601	284.442	370.5066	424.0568	452.4263	561.1355	567.3859	613.8862	744.0213	754.7559	818.8718	857.2412	904.8928	906.136	945.5069	954.7126	959.0424	977.8121	992.1385	1042.4502	1049.7521	1071.392	1096.6139	1127.1751	1151.7617	1207.273	1222.3439	1228.2957	1258.5287	1307.1545	1311.0023	1336.6064	1347.2276	1381.6807	1383.2436	1411.0229	1472.4694	1490.5552	1495.5781	1498.486	1505.2182	1514.5239	3006.9166	3014.9531	3028.0912	3039.196	3045.9525	3064.1183	3082.2543	3093.3682	3096.6455	3101.7083	3129.9578	3220.4874
CC1CCC23CC12CO3	C[C@H]1CC[C@@]23C[C@@]12CO3	
InChI=1S/C8H12O/c1-6-2-3-8-4-7(6,8)5-9-8/h6H,2-5H2,1H3	InChI=1S/C8H12O/c1-6-2-3-8-4-7(6,8)5-9-8/h6H,2-5H2,1H3/t6-,7+,8+/m0/s1
