21
gdb 58916	2.77486	1.54593	1.19906	1.8214	81.67	-0.2275	0.0783	0.3057	1114.6214	0.181478	-387.00379	-386.995311	-386.994367	-387.036859	33.312	
C	-0.030384999	 1.5652748395	 0.0525359944	-0.389418
C	-0.0438142616	 0.0286697661	 0.0077365298	-0.119122
C	 0.7675631919	-0.5662014434	 1.1691560606	-0.385644
C	-1.4611806872	-0.4941804461	-0.0326216141	 0.360416
C	-2.578789348	-0.1898111512	-1.064077196	-0.33629
C	-3.2727093229	-1.1638760502	-0.0936601757	-0.09701
C	-1.9644577518	-1.9722567993	 0.1465342887	 0.026275
O	-2.0426178669	-1.9044852986	 1.602668297	-0.327725
C	-2.506519669	-0.6000064287	 1.1395550776	 0.045656
H	 0.9963325168	 1.9445158795	 0.0355911279	 0.112577
H	-0.5631998492	 1.9992804095	-0.7992080296	 0.114883
H	-0.5054573296	 1.9328153042	 0.969518259	 0.113892
H	 0.434309116	-0.2813160489	-0.9337015672	 0.074297
H	 0.3401647911	-0.2825475605	 2.1358126826	 0.122906
H	 0.7892976518	-1.6582001177	 1.1313502061	 0.122109
H	 1.7993235118	-0.2008885399	 1.135262807	 0.103133
H	-2.9629631638	 0.8340871573	-1.0848581476	 0.099071
H	-2.4103790187	-0.5513364869	-2.0831996364	 0.096462
H	-4.2874284781	-1.5604219489	-0.0991597288	 0.082801
H	-1.6142240913	-2.8948196304	-0.3176280511	 0.089804
H	-2.8172464324	 0.1380408745	 1.8794346658	 0.090928
54.1024	176.1458	185.6931	225.8876	257.8297	317.8288	360.0943	403.5876	464.9266	541.6029	655.6868	738.8655	777.5092	825.736	853.8119	874.5241	880.3299	907.8613	927.1793	932.7483	965.5856	997.2499	1007.2513	1055.8066	1076.6352	1083.6891	1136.6871	1145.7363	1152.4621	1168.9166	1170.7661	1185.1336	1222.883	1255.2318	1295.0449	1338.5861	1346.6726	1376.9595	1401.4868	1425.7678	1481.3769	1491.9587	1503.6008	1508.4167	1517.4272	2990.2235	3028.8223	3039.1063	3045.619	3095.6367	3099.7196	3104.6966	3106.3408	3111.3719	3113.6882	3119.5655	3131.7506
CC(C)C12CC3C1OC23	CC(C)[C@@]12C[C@H]3[C@@H]1O[C@@H]23	
InChI=1S/C8H12O/c1-4(2)8-3-5-6(8)9-7(5)8/h4-7H,3H2,1-2H3	InChI=1S/C8H12O/c1-4(2)8-3-5-6(8)9-7(5)8/h4-7H,3H2,1-2H3/t5-,6-,7+,8-
