16
gdb 18441	2.98027	2.14763	1.63188	1.7584	69.9	-0.2525	0.0363	0.2889	831.3719	0.130263	-346.537722	-346.530464	-346.52952	-346.568826	28.649	
O	 0.1214913873	 1.386376087	-0.2398125995	-0.434514
C	 0.0017618677	 0.0133909898	-0.0004059834	 0.137891
C	 0.2463008849	-0.5782900146	 1.438720699	-0.292129
C	-1.1082475681	-1.2832084286	 1.3381418367	-0.064562
C	-2.2202020183	-0.2641497246	 1.1800111974	-0.206908
C	-2.1963537384	 1.0379073904	 1.7915516206	 0.311738
C	-2.180422079	 2.1249562132	 2.3108511952	-0.450369
C	-1.3822449643	-0.6541092717	-0.0252754729	-0.111007
H	-0.4762246368	 1.8426103211	 0.3656864546	 0.287411
H	 0.6644493909	-0.4752194337	-0.7195009789	 0.095649
H	 1.0996414907	-1.2580751988	 1.4758455397	 0.106327
H	 0.3368573125	 0.1555953045	 2.2441264053	 0.110762
H	-1.3321226539	-2.2875483286	 1.675129408	 0.095953
H	-3.2096515291	-0.7141312498	 1.1540269544	 0.118766
H	-2.1784950758	 3.0794530158	 2.776824212	 0.203036
H	-1.8655560805	-1.0769209714	-0.8985676782	 0.091955
135.3969	148.4927	227.8291	324.9565	391.8124	456.32	476.3033	540.4068	590.0035	625.9153	657.9175	722.3236	768.6549	789.7161	839.104	916.7727	953.3363	967.3315	1006.5499	1014.1995	1055.3651	1073.075	1120.2426	1159.4473	1172.1939	1221.3075	1258.9312	1296.668	1320.3829	1339.7426	1406.7547	1453.996	1485.4332	2221.3651	3064.3179	3076.9447	3121.9194	3139.9845	3175.9096	3194.5534	3499.2494	3767.7796
OC1CC2C(C#C)C12	O[C@H]1C[C@H]2[C@@H](C#C)[C@@H]12	
InChI=1S/C7H8O/c1-2-4-5-3-6(8)7(4)5/h1,4-8H,3H2	InChI=1S/C7H8O/c1-2-4-5-3-6(8)7(4)5/h1,4-8H,3H2/t4-,5+,6+,7-/m1/s1
