17
gdb 60993	2.58219	1.16738	1.01175	5.4676	74.79	-0.2553	0.0079	0.2632	1222.0488	0.135509	-418.027212	-418.018112	-418.017168	-418.061653	32.217	
C	-0.6546669291	 1.1490864236	 0.1037839945	-0.358792
N	 0.0049811784	-0.1505820103	 0.1707695257	-0.049297
C	 0.7221223705	-0.4882352833	 1.2934654718	 0.159051
O	 0.7807540199	 0.1715152161	 2.3058061824	-0.3271
C	 0.1256621731	-0.8965801096	-1.0355295297	 0.017947
C	 0.0494910219	-2.3922054505	-1.0248875963	-0.31495
C	-1.0961847775	-1.6013333513	-1.6345271815	-0.190341
C	-2.3585922972	-1.5593073068	-0.9543418581	 0.300274
N	-3.3841245928	-1.5176294678	-0.4204905446	-0.332292
H	-0.1568505319	 1.800609563	-0.6252504883	 0.123191
H	-1.7033896808	 1.0310821816	-0.180557962	 0.151702
H	-0.5898423345	 1.6013136341	 1.0927696636	 0.174559
H	 1.2454773632	-1.4535650171	 1.17159281	 0.082693
H	 0.772303418	-0.4498589647	-1.7911602414	 0.117262
H	 0.6895382699	-2.9455100413	-1.7012570237	 0.143599
H	-0.1591263142	-2.8847252785	-0.0838643241	 0.159625
H	-1.1726169668	-1.5861405572	-2.7162002382	 0.142868
56.8163	106.3588	130.6593	171.7174	207.3943	242.5504	317.5024	338.237	381.6217	446.8561	559.6353	602.9587	688.7216	781.1987	813.3444	851.5527	920.1243	997.0418	1031.6058	1047.9203	1086.4029	1112.6976	1128.4692	1148.2923	1164.5894	1196.1991	1292.2766	1372.8911	1383.2756	1409.2048	1442.0872	1446.8339	1482.7613	1499.2132	1512.6461	1803.7124	2355.4995	2972.1047	3026.789	3096.5837	3103.4857	3157.6796	3166.9828	3176.1252	3251.109
CN(C=O)C1CC1C#N	CN(C=O)[C@H]1C[C@H]1C#N	
InChI=1S/C6H8N2O/c1-8(4-9)6-2-5(6)3-7/h4-6H,2H2,1H3	InChI=1S/C6H8N2O/c1-8(4-9)6-2-5(6)3-7/h4-6H,2H2,1H3/t5-,6-/m0/s1
