23
gdb 76787	1.90376	1.76101	1.14064	1.5202	85.03	-0.2478	0.0659	0.3136	1194.2392	0.204657	-388.271519	-388.261742	-388.260797	-388.305561	37.928	
C	-0.29855035	 1.4169042516	 0.1758679858	-0.414955
C	-0.0410627022	-0.0781189432	 0.0064830564	-0.049821
C	 0.8136754306	-0.4944149853	-1.244438712	-0.052183
C	 0.8723324403	 0.409071128	-2.4684600265	-0.41648
C	 2.0348655088	-0.6071691374	-0.3141791892	 0.319804
C	 3.3390885141	-1.3099174503	-0.5165789793	-0.339194
C	 3.3051833881	 0.1965677301	-0.3926753605	-0.328658
C	 1.1138865218	-0.6273012151	 0.9132079733	 0.070464
O	 1.4894613037	 0.0703445989	 2.0751574421	-0.430536
H	 0.6123144999	 2.0145033847	 0.0529900295	 0.109358
H	-1.0218316795	 1.7799288724	-0.5608310983	 0.117842
H	-0.7012936238	 1.6244845569	 1.1723157889	 0.124672
H	-0.9872774554	-0.6184306084	 0.1067086479	 0.063696
H	 0.5103184557	-1.4994137715	-1.5625478972	 0.07214
H	 1.1560188699	 1.4333580118	-2.2097696202	 0.115528
H	 1.60427955	 0.0361693583	-3.1941994719	 0.113585
H	-0.0976250038	 0.4481544329	-2.9760678257	 0.114762
H	 3.7461625635	-1.8791957029	 0.3136039505	 0.11497
H	 3.5469037435	-1.7341476829	-1.4944850026	 0.108013
H	 3.4929562563	 0.790101812	-1.2815719383	 0.111499
H	 3.6869012739	 0.631296173	 0.526632164	 0.109116
H	 0.9056452533	-1.6492619459	 1.2461176976	 0.086425
H	 1.7136434012	 0.9708857923	 1.8175592556	 0.279954
60.1085	196.1476	209.9362	215.9465	228.4196	230.1585	238.0448	274.6893	318.2303	382.496	470.3885	504.8753	541.6813	609.1452	740.5503	773.3111	789.1332	808.5065	866.4616	912.6112	929.3979	980.4446	995.1724	1029.2823	1037.1692	1048.9991	1076.9973	1087.0097	1120.0621	1151.209	1170.7378	1192.605	1201.2061	1230.9252	1282.4566	1285.7175	1287.4411	1351.0521	1371.8139	1383.1351	1406.8314	1411.126	1441.3155	1455.5624	1490.5471	1493.8081	1498.1633	1505.2967	1511.0499	3021.3464	3027.2022	3031.1022	3048.0377	3062.6188	3087.9963	3092.7859	3105.1914	3107.2601	3117.2795	3120.749	3194.7078	3209.6537	3810.6423
CC1C(C)C2(CC2)C1O	C[C@H]1[C@@H](C)C2(CC2)[C@H]1O	
InChI=1S/C8H14O/c1-5-6(2)8(3-4-8)7(5)9/h5-7,9H,3-4H2,1-2H3	InChI=1S/C8H14O/c1-5-6(2)8(3-4-8)7(5)9/h5-7,9H,3-4H2,1-2H3/t5-,6+,7-/m0/s1
