20
gdb 82363	2.55385	1.4925	1.18945	1.1772	77.82	-0.2373	-0.0338	0.2035	1106.0778	0.171234	-403.137681	-403.129176	-403.128231	-403.171319	32.294	
C	-0.8390890327	 1.1546561491	 0.0432842559	-0.40113
C	-0.0074607987	-0.1264615186	-0.0517257298	-0.004475
C	 1.010504411	-0.1423916287	-1.1847246636	-0.017687
C	 2.2859203612	 0.593719736	-1.0016748557	-0.256235
N	 2.2333816583	-0.8630394643	-0.7948145018	-0.093858
C	 2.0684677438	-1.2514250893	 0.6185883102	-0.193253
C	 0.8428534183	-0.5150345543	 1.2129623715	-0.124818
C	 1.2030466208	 0.6517147305	 2.1202455614	 0.146827
O	 0.4246636537	 1.1872205788	 2.8669741425	-0.256395
H	-0.205791542	 2.0425873143	 0.1276234999	 0.122065
H	-1.4565153404	 1.2689532398	-0.8532656401	 0.11365
H	-1.4975766228	 1.136072671	 0.9153562557	 0.137709
H	-0.6952043804	-0.9627555437	-0.2273807427	 0.090169
H	 0.6371873177	-0.3285092532	-2.1885009349	 0.092901
H	 2.863938353	 0.9048094608	-1.866710617	 0.121379
H	 2.3944584831	 1.2486554563	-0.1403771779	 0.108563
H	 1.9083726575	-2.3336653706	 0.6438070015	 0.114961
H	 2.9909617598	-1.0460226628	 1.1747070778	 0.109528
H	 0.2424648559	-1.1792730637	 1.8419115263	 0.11205
H	 2.2674910728	 0.9853150626	 2.0809742208	 0.078048
37.1943	125.0059	197.4965	236.3296	255.47	306.3197	358.6974	402.0322	438.3871	546.7922	622.7958	715.4985	753.6224	804.3578	859.1496	882.0728	901.7331	971.9193	993.495	1012.9344	1017.9802	1048.824	1060.0483	1105.3723	1112.4816	1146.6556	1157.7957	1177.0708	1215.572	1247.4299	1277.7582	1302.8546	1339.9834	1341.4654	1362.3731	1389.4604	1417.7693	1433.1604	1489.764	1494.91	1500.4906	1511.2617	1821.6064	2844.0991	3024.0923	3035.9316	3042.2907	3065.9075	3082.0962	3108.8219	3110.2449	3123.8856	3140.576	3191.767
CC1C2CN2CC1C=O	C[C@H]1[C@H]2CN2C[C@H]1C=O	
InChI=1S/C7H11NO/c1-5-6(4-9)2-8-3-7(5)8/h4-7H,2-3H2,1H3	InChI=1S/C7H11NO/c1-5-6(4-9)2-8-3-7(5)8/h4-7H,2-3H2,1H3/t5-,6+,7-,8?/m1/s1
