19
gdb 121589	4.07667	0.71101	0.61234	9.2167	75.57	-0.2277	-0.0297	0.1979	1798.5915	0.158324	-456.39681	-456.386604	-456.38566	-456.434539	35.559	
C	 0.1800174339	 1.5083798346	 0.0080269129	-0.385772
C	 0.0102020952	-0.0118443263	 0.0015100509	-0.200772
C	-1.4593568391	-0.4314257624	 0.0133342527	-0.140795
N	-1.5867361229	-1.8812379124	 0.0067895137	-0.271469
C	-2.6828217768	-2.5919555254	 0.0137063517	 0.303325
N	-3.9207217348	-2.152504265	 0.0282541594	-0.502526
H	-4.5862332311	-2.926515296	 0.0307747927	 0.295148
H	-4.2090739354	-1.1881646584	 0.0362705744	 0.272193
C	-2.5009317303	-4.1631820389	 0.0046460883	 0.39912
O	-1.3075344366	-4.4902238876	-0.0085171703	-0.465139
O	-3.5858210284	-4.7565700081	 0.0125473787	-0.460218
H	 1.2386810412	 1.7801636497	-0.0006600672	 0.131941
H	-0.2882471757	 1.9657053619	-0.8700862479	 0.12446
H	-0.2712900887	 1.9562251819	 0.8997988011	 0.124462
H	 0.4925174077	-0.4403265469	-0.8851557183	 0.124775
H	 0.5093654512	-0.4497525238	 0.8741348651	 0.124789
H	-1.9590910525	-0.0277542165	 0.9050676912	 0.122768
H	-1.9760376667	-0.0182668518	-0.8642819634	 0.122768
H	-0.7773499102	-2.5105169985	-0.0044126558	 0.280941
8.9279	70.5958	91.2403	123.6176	187.6315	228.4522	237.4598	286.9208	338.0302	403.2049	433.7772	550.321	550.3719	703.2575	757.5051	778.4389	796.0295	818.758	831.7701	900.6316	917.5637	1014.9939	1061.5948	1147.0141	1160.1048	1177.1532	1251.2951	1274.6454	1313.0397	1329.9633	1341.4584	1407.4832	1418.7694	1474.2218	1493.2959	1501.0595	1504.1496	1519.1434	1586.9013	1750.3222	1839.2468	2999.7988	3029.8132	3033.2459	3038.3619	3072.2146	3104.8986	3118.1721	3399.6632	3447.3842	3672.4582
CCCNC(=[NH2+])C([O-])=O	CCCNC(=[NH2])C(=O)[O]	
InChI=1S/C5H10N2O2/c1-2-3-7-4(6)5(8)9/h2-3H2,1H3,(H2,6,7)(H,8,9)	InChI=1S/C5H10N2O2/c1-2-3-7-4(6)5(8)9/h7H,2-3,6H2,1H3
