19
gdb 23219	2.80779	1.5205	1.19167	0.7619	78.59	-0.2276	0.0142	0.2418	1080.4188	0.160569	-419.129278	-419.121299	-419.120354	-419.161451	31.653	
C	-0.0969104215	 1.5693376486	-0.0181188303	-0.415434
C	 0.0495752709	 0.0513639443	 0.004277664	-0.037148
N	 0.8695086322	-0.4872751493	-1.1373765238	-0.13614
C	 1.0568625991	-1.9202683611	-0.673270423	-0.187487
C	 1.905010078	-1.3175883281	 0.4881103569	-0.118293
C	 2.2805566359	-0.2787563789	-0.6076486512	-0.192697
C	 0.8182198582	-0.5524369787	 1.1903948844	 0.452739
N	 0.645077547	-0.5182599252	 2.4456683446	-0.290689
O	-0.4952283395	 0.2506504801	 2.7818825739	-0.398353
H	 0.8644683263	 2.0803652321	 0.083893728	 0.11635
H	-0.5490795311	 1.879009046	-0.9644446919	 0.125622
H	-0.7324295558	 1.8896158206	 0.8091747149	 0.143467
H	-0.9478837102	-0.3984880651	-0.0576664543	 0.10128
H	 0.1346048611	-2.456444397	-0.4335236807	 0.110655
H	 1.6481206757	-2.4798658197	-1.401288902	 0.112807
H	 2.6189726104	-1.8729054162	 1.0946226601	 0.082057
H	 3.0069515013	-0.6522340417	-1.3324384316	 0.114056
H	 2.5342618351	 0.7406692414	-0.3115899251	 0.112165
H	-0.4940594431	 0.198882248	 3.743320847	 0.305043
116.4127	184.4862	198.48	265.586	290.7157	333.4509	413.1831	446.3342	516.6196	570.3968	647.0267	655.8248	772.6062	808.6652	831.0456	868.6109	885.1499	888.118	953.8449	1009.3067	1020.0712	1034.9161	1064.3774	1084.0529	1111.516	1149.7356	1184.9004	1206.7774	1208.4388	1232.4442	1269.728	1272.6946	1307.3935	1361.0666	1400.7826	1405.9766	1486.9205	1498.8057	1505.4188	1534.2134	1781.7343	3044.0499	3051.5445	3059.3084	3073.6039	3118.2495	3123.7352	3131.8635	3134.4053	3144.8811	3822.0189
CC1N2CC(C2)C1=NO	C[C@H]1N2C[C@@H](C2)C1=NO	
InChI=1S/C6H10N2O/c1-4-6(7-9)5-2-8(4)3-5/h4-5,9H,2-3H2,1H3	InChI=1S/C6H10N2O/c1-4-6(7-9)5-2-8(4)3-5/h4-5,9H,2-3H2,1H3/t4-/m1/s1
