20
gdb 63852	2.26597	1.57436	1.26369	1.2653	86.84	-0.2221	0.0312	0.2533	1112.3741	0.169078	-365.945878	-365.936724	-365.93578	-365.97894	36.018	
C	-0.0455149984	 1.5461681226	 0.0934853833	-0.452879
C	-0.0034593392	 0.025622322	-0.0116373393	 0.26852
C	-1.3748933102	-0.562590838	-0.3348814932	-0.451703
C	 1.1286567434	-0.5860115418	-0.9287573443	-0.269442
C	 1.7106459187	-1.2925919962	 0.2944291801	-0.120904
N	 2.0768160077	-0.2333179639	 1.2514626953	-0.378416
C	 0.6610217033	-0.7070434328	 1.1932088146	 0.214023
C	 0.0140839357	-1.2478863714	 2.3363191468	 0.169623
C	-0.5569373928	-1.6869307884	 3.3017470251	-0.422771
H	 0.9324969153	 1.9410989677	 0.376902279	 0.13712
H	-0.3358284239	 1.9908832962	-0.865293797	 0.108334
H	-0.7787064792	 1.8646234311	 0.8431705919	 0.113475
H	-1.7329460634	-0.1866964563	-1.2995005518	 0.113159
H	-1.3405501758	-1.6557384704	-0.3877019291	 0.114403
H	-2.1086007126	-0.2891197722	 0.430562936	 0.122283
H	 0.7270610158	-1.2701841088	-1.6793076958	 0.101853
H	 1.8048327024	 0.1282251502	-1.404955812	 0.107127
H	 2.1722670875	-2.2712486645	 0.346033194	 0.103968
H	 2.4994635718	-0.6821654487	 2.064097262	 0.235316
H	-1.058101076	-2.0796827465	 4.1511908344	 0.186912
111.2514	135.1423	199.1443	228.6006	258.8835	286.5171	326.6331	355.1556	427.212	472.7396	505.5227	553.4867	572.5171	605.4637	637.8699	662.0176	792.1345	841.5647	872.6655	909.2248	931.6325	961.0808	979.9538	1000.0169	1027.2442	1040.2442	1097.1453	1165.1013	1179.6538	1220.9347	1244.4951	1267.9495	1294.0975	1340.92	1386.114	1399.4943	1417.2883	1477.356	1482.9524	1487.7678	1498.6509	1511.5069	2226.2508	3026.064	3030.4618	3064.2515	3088.0657	3098.7115	3100.9903	3121.7157	3126.5682	3189.5104	3474.6806	3503.9879
CC1(C)CC2NC12C#C	CC1(C)C[C@H]2N[C@@]12C#C	
InChI=1S/C8H11N/c1-4-8-6(9-8)5-7(8,2)3/h1,6,9H,5H2,2-3H3	InChI=1S/C8H11N/c1-4-8-6(9-8)5-7(8,2)3/h1,6,9H,5H2,2-3H3/t6-,8-/m1/s1
