19
gdb 125951	2.84973	1.73661	1.13621	2.7986	81.7	-0.2278	0.0335	0.2613	1081.0672	0.163195	-382.115049	-382.107541	-382.106597	-382.147027	29.315	
C	-0.0209055071	 1.5651686766	 0.0676195255	-0.397044
C	 0.0409147181	 0.0431432389	 0.0444670252	 0.042301
C	 0.7446125253	-0.5747870028	-1.1944261899	-0.220965
C	 1.5011583301	-1.8397279734	-0.6858664526	-0.361378
C	 1.6637302758	-1.5417617034	 0.773608442	 0.409399
C	 2.2794637679	-1.9550935021	 1.9398875995	-0.394996
C	 1.7600357989	-1.0819063239	 2.9245651691	 0.012564
N	 0.8897838873	-0.2000758524	 2.4208821333	-0.304435
N	 0.8674521106	-0.5035733662	 1.1152883054	 0.056279
H	 0.979240177	 1.9947171705	-0.0462548182	 0.123793
H	-0.6527474397	 1.929341953	-0.7481452067	 0.117417
H	-0.4377527232	 1.9147805571	 1.0151546705	 0.147351
H	-0.9764320773	-0.3598420248	 0.1467487445	 0.094536
H	 0.0367829369	-0.7995077092	-1.9948902286	 0.110014
H	 1.4669222375	 0.1493494745	-1.5847051591	 0.115297
H	 0.9054223965	-2.7485523295	-0.8364178061	 0.122171
H	 2.4489298863	-1.989914378	-1.2096899582	 0.122199
H	 2.9942878603	-2.7511727642	 2.0691017285	 0.09939
H	 1.990737919	-1.0568996807	 3.9801015359	 0.106108
110.1939	142.5297	220.1898	239.8209	283.7484	436.3465	492.1506	567.966	647.0927	663.6271	699.3816	729.0197	783.744	828.7993	882.1432	908.3221	950.9577	960.7336	979.6988	1046.821	1054.8373	1101.0387	1112.7675	1139.2422	1200.3012	1211.5324	1231.1235	1295.3644	1314.385	1332.9005	1341.1274	1351.1659	1389.8391	1410.3623	1434.9519	1478.928	1487.8264	1496.0987	1500.8312	1506.8889	1580.3755	3003.2822	3030.8684	3042.6517	3057.3663	3086.9647	3113.4321	3117.4649	3130.1503	3237.352	3269.7357
CC1CCC2=CC=NN12	C[C@H]1CCc2ccnn12	
InChI=1S/C7H10N2/c1-6-2-3-7-4-5-8-9(6)7/h4-6H,2-3H2,1H3	InChI=1S/C7H10N2/c1-6-2-3-7-4-5-8-9(6)7/h4-6H,2-3H2,1H3/t6-/m0/s1
