16
gdb 75665	2.84562	1.33376	1.118	3.6823	76.98	-0.2507	-0.0229	0.2278	1117.4707	0.122176	-400.697834	-400.689305	-400.688361	-400.730881	31.91	
C	-0.0415071872	 1.6517096686	 0.002017033	-0.42067
C	 0.0724288707	 0.1349574365	 0.0591422389	-0.182545
C	 1.1253744861	-0.6030214162	-0.7850602454	 0.402766
O	 1.4126031601	-0.6429113459	-1.9390332332	-0.294823
N	 1.6744767487	-1.3828756394	 0.3173784085	-0.203155
C	 2.1939238621	-0.3611784182	 1.2682749649	-0.272216
C	 0.7312609263	-0.5737614854	 1.2597939347	 0.118054
C	 0.0152492428	-1.1861428217	 2.3264970559	 0.216216
C	-0.6186424026	-1.6620044108	 3.2310165349	-0.380638
H	 0.9058219131	 2.1427967907	 0.2415258147	 0.124539
H	-0.3352584817	 1.9644446494	-1.0042432736	 0.144068
H	-0.798588824	 2.0108844764	 0.7053544833	 0.134348
H	-0.8994076195	-0.3288125466	-0.1441785658	 0.12699
H	 2.757508288	-0.8048138876	 2.0817654436	 0.150918
H	 2.6171662997	 0.5576012842	 0.8696147847	 0.136123
H	-1.1709028126	-2.0959762541	 4.0278431908	 0.200024
94.5772	133.5093	185.3238	190.4488	224.4442	274.3115	401.94	475.7649	494.757	540.3052	618.0187	629.4863	658.1382	665.7702	700.557	735.2872	802.7574	904.0379	952.0192	1000.1957	1063.9139	1096.5104	1115.9795	1129.685	1156.2873	1209.5765	1239.6381	1324.9974	1379.4508	1409.2953	1491.2283	1495.5592	1505.3089	1921.1324	2239.4888	3044.3441	3058.2907	3114.7979	3116.7773	3119.6846	3214.7932	3500.7135
CC1C(=O)N2CC12C#C	C[C@H]1C(=O)N2C[C@@]12C#C	
InChI=1S/C7H7NO/c1-3-7-4-8(7)6(9)5(7)2/h1,5H,4H2,2H3	InChI=1S/C7H7NO/c1-3-7-4-8(7)6(9)5(7)2/h1,5H,4H2,2H3/t5-,7-,8?/m0/s1
