16
gdb 14112	3.98071	1.7498	1.37282	2.1892	65.94	-0.2498	-0.0277	0.2221	911.2866	0.128682	-383.725313	-383.717564	-383.71662	-383.757679	28.249	
C	 0.45968888	 0.5592117772	-1.0389239303	-0.484867
C	-0.1318348409	 0.3349879856	 0.3362086471	 0.276036
O	 0.392754951	 0.7252320751	 1.3574605071	-0.306285
C	-1.421453979	-0.4014274658	 0.4069785186	 0.330902
C	-2.3251832329	-0.6206306714	 1.625800175	-0.296527
C	-2.7126410914	-2.0233015523	 1.0406242544	-0.241389
C	-1.7932568131	-1.7346559055	-0.1528083706	-0.035521
O	-2.2315379357	-0.5352848009	-0.7730043656	-0.274422
H	 1.4636156562	 0.9724914882	-0.9366153269	 0.139632
H	 0.4881827401	-0.3700517381	-1.6162551946	 0.138404
H	-0.1728950668	 1.2541252021	-1.6013245488	 0.155946
H	-1.7532223208	-0.6870494584	 2.5515413575	 0.135253
H	-3.1285637487	 0.1099153675	 1.7367077967	 0.115573
H	-2.3598541383	-2.8495663533	 1.6611166192	 0.116233
H	-3.7610987958	-2.1821612369	 0.7792387056	 0.118777
H	-1.2107784837	-2.4218541531	-0.7571343645	 0.112254
76.003	115.4478	165.591	185.4249	307.7753	353.0357	490.1774	496.9025	592.9527	625.4724	745.6002	774.1044	855.1506	894.3492	916.0774	935.1201	971.2942	1002.1564	1032.6497	1065.8779	1106.4977	1142.5161	1210.4757	1215.2258	1227.2794	1270.2189	1314.9168	1383.3211	1415.5282	1456.399	1465.2998	1470.2627	1486.5093	1789.5326	3046.2372	3073.3596	3086.2261	3108.3728	3128.3885	3152.1061	3156.1018	3179.1288
CC(=O)C12CCC1O2	CC(=O)[C@]12CC[C@H]1O2	
InChI=1S/C6H8O2/c1-4(7)6-3-2-5(6)8-6/h5H,2-3H2,1H3	InChI=1S/C6H8O2/c1-4(7)6-3-2-5(6)8-6/h5H,2-3H2,1H3/t5-,6-/m1/s1
