17
gdb 5533	3.14446	1.9142	1.23558	1.4538	72.73	-0.1756	0.0403	0.2159	988.3871	0.142295	-363.887451	-363.879094	-363.87815	-363.92074	29.916	
C	-0.1553484187	 1.4035202557	 0.1935260046	-0.33005
N	 0.43630827	 0.1062203681	-0.1308095343	-0.386916
C	 0.8265408556	-0.7149109084	 0.9151012951	 0.328797
C	 0.7343628904	-2.0637883597	 1.1258225325	 0.155425
C	 0.0563707526	-3.0788062221	 0.2582658291	-0.515316
C	 1.4382214864	-2.294611273	 2.3619827571	-0.253975
C	 1.8754080891	-1.0927897967	 2.8034336633	-0.032136
O	 1.5107492195	-0.1085214825	 1.9191807349	-0.180016
H	 0.5596417744	 1.9896015812	 0.7738348933	 0.151057
H	-0.3579782109	 1.938460616	-0.7373580649	 0.122753
H	-1.0892176815	 1.3304339041	 0.7718108239	 0.111685
H	-0.1002374665	-0.4101048396	-0.8135556191	 0.238612
H	 0.7596317638	-3.6244091589	-0.3839861726	 0.127833
H	-0.4729902574	-3.8248818414	 0.8607381022	 0.127222
H	-0.687392003	-2.6150622027	-0.4003195547	 0.106949
H	 1.5772507004	-3.2460410101	 2.8533443229	 0.101597
H	 2.4132837157	-0.7577022598	 3.6733917568	 0.126476
51.1872	107.1246	152.928	187.3062	241.3962	273.7971	345.1615	468.4291	601.0686	609.3723	638.9165	669.803	715.2836	766.8811	816.3185	904.0538	978.5638	1049.6473	1058.7015	1070.1344	1088.4494	1150.1739	1180.0375	1200.8013	1277.3397	1309.2828	1418.2144	1438.8971	1453.7506	1477.0066	1488.1841	1492.2762	1501.2369	1515.8632	1573.2396	1678.9152	2985.6888	3013.2511	3062.3926	3085.2761	3094.3241	3138.0622	3244.0731	3292.4777	3594.8073
CNC1=C(C)C=CO1	CNc1c(C)cco1	
InChI=1S/C6H9NO/c1-5-3-4-8-6(5)7-2/h3-4,7H,1-2H3	InChI=1S/C6H9NO/c1-5-3-4-8-6(5)7-2/h3-4,7H,1-2H3
