18
gdb 91833	3.13051	1.27129	1.06179	4.8792	77.23	-0.2611	0.0185	0.2796	1172.5054	0.147938	-401.958032	-401.949851	-401.948906	-401.990817	31.33	
C	 0.1519337162	 1.5559681745	 0.0648679724	-0.409697
C	 0.0873714472	 0.0448312278	-0.0359361126	 0.14103
C	 0.812629943	-0.5869706109	-1.2463350679	-0.264038
C	 1.2915043739	-1.9325683101	-0.7072579511	-0.109337
C	 2.510155497	-1.9562939845	 0.179836451	-0.329271
C	 1.1358355348	-1.825907562	 0.8008409273	 0.293963
O	 0.7396790769	-0.5228005427	 1.1220672017	-0.302782
C	 0.5684202347	-2.8750797761	 1.6055074493	 0.238153
N	 0.1218792855	-3.7267289921	 2.2485015948	-0.349539
H	 1.1917315993	 1.8967292471	 0.0798701318	 0.124525
H	-0.353482667	 2.0131782195	-0.7913536442	 0.122879
H	-0.3388527274	 1.9024093524	 0.9780691798	 0.136553
H	-0.9623363061	-0.286119743	-0.0344512396	 0.086932
H	 0.1397898643	-0.7086806625	-2.0986666264	 0.117487
H	 1.651394532	 0.0403615129	-1.5677073764	 0.111565
H	 1.0105468342	-2.8455673398	-1.2167036869	 0.120855
H	 3.0295349189	-2.9010366303	 0.2961844071	 0.138029
H	 3.1302729426	-1.0684294903	 0.2416339597	 0.132695
85.1663	140.2553	167.5651	231.0933	314.2643	324.8516	412.9455	453.5615	504.7077	563.2009	591.885	610.3387	756.9249	830.8429	842.8495	880.0495	905.2817	926.1673	960.553	991.1421	1055.6816	1059.7807	1079.017	1112.3866	1143.7637	1161.991	1219.3885	1235.9078	1258.1281	1298.3941	1357.0697	1379.7828	1390.7038	1414.5366	1465.6548	1483.4597	1493.7158	1498.8318	2350.8598	2987.571	3042.3166	3046.3373	3104.915	3116.7888	3124.6066	3134.5265	3195.9952	3231.45
CC1CC2CC2(O1)C#N	C[C@H]1C[C@H]2C[C@]2(O1)C#N	
InChI=1S/C7H9NO/c1-5-2-6-3-7(6,4-8)9-5/h5-6H,2-3H2,1H3	InChI=1S/C7H9NO/c1-5-2-6-3-7(6,4-8)9-5/h5-6H,2-3H2,1H3/t5-,6-,7-/m0/s1
