22
gdb 106321	2.90228	1.18294	1.03655	2.169	83.05	-0.2257	0.0692	0.2949	1279.5107	0.192733	-404.303202	-404.293383	-404.292439	-404.337601	36.963	
C	-0.1272909296	 1.3293306756	 0.283072607	-0.379338
C	-0.1734506864	-0.1920267368	 0.4814123317	-0.274229
C	-1.5604924723	-0.7531905769	 0.3309770224	 0.348901
C	-2.697793993	-0.6061490619	 1.3677486656	-0.357501
C	-3.1020055859	-2.0893003733	 1.0644615219	 0.119953
O	-4.4118055457	-2.3945865191	 0.6319659343	-0.430222
C	-2.0282069366	-2.1571142649	-0.0248904933	-0.138981
N	-2.0694726301	-1.0728821582	-0.981636507	-0.117677
C	-3.2982724238	-0.5304743594	-1.5513787126	-0.31775
H	 0.8894237573	 1.7129069438	 0.41205416	 0.111434
H	-0.4651232104	 1.5993889397	-0.7224086562	 0.125447
H	-0.7719405208	 1.8448296146	 1.0033798052	 0.114533
H	 0.4771617576	-0.6808325991	-0.2513925905	 0.107572
H	 0.2122487583	-0.4457974849	 1.4775771265	 0.090787
H	-2.3381289301	-0.4680378887	 2.390564139	 0.098942
H	-3.453559987	 0.1536998836	 1.1519826152	 0.099514
H	-2.8113194081	-2.7327901332	 1.9067673854	 0.074911
H	-4.9992095465	-2.3443084524	 1.3929681857	 0.283433
H	-1.4565794901	-3.0450230291	-0.2775398094	 0.084903
H	-4.1424566991	-0.4583450888	-0.8582760036	 0.121066
H	-3.0806373472	 0.4626690121	-1.9581793804	 0.111354
H	-3.6040274603	-1.1759404128	-2.3803914668	 0.122949
74.336	116.7431	145.2457	189.9088	213.3139	249.0188	282.2122	289.1185	335.7216	372.2301	431.7818	486.422	607.9848	682.4355	727.3542	744.7581	790.0363	862.584	922.2389	947.4107	967.1878	987.7374	998.6091	1032.4538	1070.8164	1111.6268	1150.0047	1154.5873	1166.3101	1190.5341	1198.4909	1217.2051	1246.2392	1278.3395	1301.2638	1325.4474	1353.7175	1405.7729	1417.4618	1434.3175	1458.0863	1474.8381	1482.4544	1490.8465	1498.6467	1507.2996	1509.606	2998.323	3021.4032	3026.6758	3033.501	3059.0769	3071.6581	3094.7929	3102.4569	3102.7554	3109.1442	3111.1544	3155.6574	3812.8128
CCC12CC(O)C1N2C	CC[C@]12C[C@@H](O)[C@H]1N2C	
InChI=1S/C7H13NO/c1-3-7-4-5(9)6(7)8(7)2/h5-6,9H,3-4H2,1-2H3	InChI=1S/C7H13NO/c1-3-7-4-5(9)6(7)8(7)2/h5-6,9H,3-4H2,1-2H3/t5-,6-,7+,8?/m1/s1
