21
gdb 88693	3.19415	0.98315	0.82816	0.8864	90.28	-0.2365	0.05	0.2866	1451.6657	0.180938	-349.897902	-349.888315	-349.887371	-349.932799	36.381	
C	-0.1768590226	 1.5489510384	-0.0505775227	-0.402034
C	 0.0042600434	 0.0476736132	 0.010453336	-0.001193
C	 1.3442379602	-0.5898197959	-0.2690879744	-0.306156
C	 0.7631477212	-0.6427224492	 1.1255880506	-0.004636
C	 1.3975205091	 0.1130175178	 2.248338122	-0.009901
C	 0.7599138665	 0.1635725591	 3.607750911	-0.303128
C	 2.0475941541	-0.6276893591	 3.4192996466	-0.205096
C	 2.0318818048	-2.0586084319	 3.4942321438	 0.342392
C	 2.0287212691	-3.2602674131	 3.5623480397	-0.476512
H	 0.7218734839	 2.0832801445	 0.2713519928	 0.112326
H	-0.397075887	 1.8716968667	-1.074203221	 0.115579
H	-1.0041633789	 1.8789689474	 0.5876924489	 0.117046
H	-0.8575017557	-0.5072438478	-0.3529496972	 0.081736
H	 1.3890497234	-1.5033884069	-0.8516798928	 0.10994
H	 2.185857373	 0.0780342044	-0.4301372663	 0.105467
H	 0.3656194707	-1.6061271363	 1.4309210166	 0.0923
H	 1.9398797107	 1.005755221	 1.9519643972	 0.08754
H	 0.8143873977	 1.079891739	 4.1850499468	 0.115248
H	-0.1448702637	-0.4146569192	 3.7586718154	 0.125692
H	 2.9471921313	-0.1680459835	 3.818422336	 0.110361
H	 2.0268822588	-4.3199068886	 3.6249827309	 0.19303
36.6207	96.7583	144.675	196.3375	199.6424	238.6507	311.5063	351.7115	411.4682	484.5102	533.7339	573.7848	617.7053	648.2346	753.2464	776.3245	788.695	841.757	861.3424	890.0049	913.0251	966.1501	993.8498	1027.7542	1041.9733	1069.6158	1072.3636	1111.7289	1120.5268	1139.1123	1150.8305	1195.9201	1200.1175	1222.0538	1262.4987	1318.9699	1376.7613	1397.4645	1420.6415	1453.9431	1485.5803	1493.2206	1494.862	1508.0906	2232.911	3029.0509	3087.2663	3099.5853	3123.5355	3131.2506	3135.2839	3141.5976	3149.6382	3158.022	3208.6155	3226.1055	3505.8649
CC1CC1C1CC1C#C	C[C@H]1C[C@H]1[C@H]1C[C@H]1C#C	
InChI=1S/C9H12/c1-3-7-5-9(7)8-4-6(8)2/h1,6-9H,4-5H2,2H3	InChI=1S/C9H12/c1-3-7-5-9(7)8-4-6(8)2/h1,6-9H,4-5H2,2H3/t6-,7+,8+,9-/m0/s1
