21
gdb 105513	2.02585	1.51641	1.2008	3.4668	73.82	-0.245	0.0592	0.3042	1165.3153	0.181493	-461.341452	-461.331812	-461.330868	-461.375815	36.256	
C	 0.5464125877	-1.137727497	-1.6978067365	-0.411315
C	 0.1922997165	-0.3564757612	-0.424789683	 0.105249
O	 0.6357516778	 0.9862916065	-0.5098490546	-0.45297
C	-1.2978058423	-0.4559859747	-0.0636085805	 0.375604
C	-2.2321892984	 0.2616170414	-1.0432022088	-0.125233
O	-2.0433926201	 1.669938689	-0.9585884791	-0.422196
C	-1.7986875513	-1.8398769605	 0.4119933055	-0.345917
C	-2.1555342031	-1.1111951441	 1.7214824724	-0.073048
O	-1.551894052	 0.118499806	 1.2590717806	-0.333493
H	 1.6254618827	-1.0793912486	-1.8603912564	 0.130366
H	 0.266141771	-2.1944709736	-1.626435457	 0.108705
H	 0.0569686573	-0.7100609769	-2.579023737	 0.116795
H	 0.7410431044	-0.7977482529	 0.4179515471	 0.077973
H	-0.0729547133	 1.5042836094	-0.9179383703	 0.286451
H	-2.0356165492	-0.0272602106	-2.0797437985	 0.119152
H	-3.2751125754	-0.0031569144	-0.8138223592	 0.093289
H	-2.1025160539	 1.8723775495	-0.0134585132	 0.301512
H	-2.6302432847	-2.2675396467	-0.1513569575	 0.111669
H	-1.0110018045	-2.5881818176	 0.5125676912	 0.117556
H	-3.2288190251	-0.9937750525	 1.9146176979	 0.105905
H	-1.6712907441	-1.4802545005	 2.6316240069	 0.113946
71.6605	100.6267	143.7581	201.3301	232.0657	249.9712	290.5631	327.4885	363.587	418.2023	463.0026	492.9351	517.294	668.2649	730.2338	778.7485	840.3077	879.2622	925.9527	941.7651	987.3113	1014.3439	1019.7313	1050.2419	1065.5258	1110.4216	1127.9638	1156.6092	1168.988	1201.1606	1217.6261	1259.8966	1298.4809	1333.9763	1346.4105	1358.315	1390.0114	1399.6178	1431.1199	1461.9865	1488.9624	1490.3191	1496.6814	1505.9312	1531.3121	2992.7856	3018.2657	3023.2588	3033.8749	3069.8439	3076.7303	3086.8958	3102.6882	3121.3775	3131.5324	3713.5567	3745.5635
CC(O)C1(CO)CCO1	C[C@@H](O)[C@@]1(CO)CCO1	
InChI=1S/C6H12O3/c1-5(8)6(4-7)2-3-9-6/h5,7-8H,2-4H2,1H3	InChI=1S/C6H12O3/c1-5(8)6(4-7)2-3-9-6/h5,7-8H,2-4H2,1H3/t5-,6+/m1/s1
