20
gdb 94655	3.2588	0.88854	0.79982	2.4354	76.13	-0.2456	0.0249	0.2705	1477.5326	0.1703	-440.292108	-440.282329	-440.281385	-440.328434	34.243	
C	-0.1418821972	 1.6156185936	-0.2166592696	-0.406483
C	 0.0555547256	 0.1514797262	 0.1220527669	 0.144439
O	 1.1320640715	-0.4587386302	-0.6335445694	-0.290899
C	 1.6379714326	-1.1168676918	 0.5437205811	-0.080788
C	 0.7057446641	-0.2990069147	 1.4612528424	-0.049498
C	 1.3942924185	 0.778550816	 2.2986144953	-0.19088
N	 2.1503162908	 0.2180214645	 3.4127318477	-0.270223
C	 1.5562320133	-0.1383703523	 4.5811610074	 0.153146
O	 0.3719417185	-0.0185645507	 4.8175454996	-0.325824
H	 0.7689296748	 2.199081624	-0.0587099238	 0.119054
H	-0.422628904	 1.7118816298	-1.2702303029	 0.129389
H	-0.9471186387	 2.0461913253	 0.3881025099	 0.123218
H	-0.8840659071	-0.3913854293	-0.0600132339	 0.075294
H	 1.4392982438	-2.1968535953	 0.5291834444	 0.100187
H	 2.717725201	-0.9604252238	 0.669249546	 0.086266
H	 0.0521242549	-0.8816185645	 2.1121878091	 0.102858
H	 2.0858302671	 1.3650348545	 1.6869224061	 0.112656
H	 0.6474880216	 1.4595016031	 2.7166840584	 0.139949
H	 3.135763372	 0.0440305683	 3.3028278802	 0.251248
H	 2.2832567668	-0.5489181929	 5.310128825	 0.076889
33.0037	66.0624	69.1768	143.5839	198.8744	221.1457	249.013	320.8548	370.3004	435.0851	500.0409	506.7273	732.4772	763.8415	853.1462	873.0623	885.7181	944.7269	968.2824	1016.5408	1024.9509	1032.8347	1086.9482	1107.8262	1150.8684	1162.6748	1181.5613	1218.5672	1255.695	1278.1425	1302.8931	1351.6299	1373.3018	1391.3626	1405.0118	1410.2651	1428.2225	1468.2719	1482.9145	1497.4461	1523.9463	1526.1127	1801.6618	2935.1029	2984.1794	3000.9651	3037.8774	3038.2366	3056.5183	3098.3404	3107.6273	3112.6086	3120.6539	3646.1882
CC1OCC1CNC=O	C[C@H]1OC[C@H]1CNC=O	
InChI=1S/C6H11NO2/c1-5-6(3-9-5)2-7-4-8/h4-6H,2-3H2,1H3,(H,7,8)	InChI=1S/C6H11NO2/c1-5-6(3-9-5)2-7-4-8/h4-6H,2-3H2,1H3,(H,7,8)/t5-,6-/m1/s1
