12
gdb 132130	3.09427	1.42543	0.97588	1.7871	63.44	-0.2214	-0.0595	0.1619	1064.6755	0.076282	-517.779509	-517.772301	-517.771357	-517.811264	27.195	
O	 0.0377519922	 1.3382242952	 0.0072428898	-0.381843
C	-0.0396610535	 0.0087572767	 0.0009927645	 0.380095
C	-1.2176905016	-0.6767194704	 0.0038862514	 0.066105
F	-2.3854104158	-0.024276461	 0.0134324777	-0.066433
C	-1.1706644901	-2.0834187623	-0.0033856034	-0.131808
C	 0.0146348694	-2.7602193821	-0.0131361743	-0.28945
C	 1.2714829926	-2.0698903697	-0.0165196564	 0.431765
O	 2.3944770505	-2.4814691811	-0.0245053107	-0.330577
O	 1.1271977768	-0.6228871898	-0.0084500565	-0.27148
H	 0.9739617279	 1.5814555383	 0.0034327661	 0.321429
H	-2.1146369971	-2.6190071922	-0.000961818	 0.139168
H	 0.0611707486	-3.8403521218	-0.0187337003	 0.133028
114.4676	193.5396	283.1186	328.8019	355.9392	407.521	447.4078	455.7968	500.0243	604.8205	675.0959	721.7819	728.5522	783.8167	818.6256	831.9433	985.104	1038.3285	1120.7415	1208.7904	1290.1663	1306.5697	1414.9119	1474.6041	1583.4117	1727.0369	1873.2521	3193.0586	3234.7791	3781.9957
OC1=C(F)C=CC(=O)O1	Oc1c(F)ccc(=O)o1	
InChI=1S/C5H3FO3/c6-3-1-2-4(7)9-5(3)8/h1-2,8H	InChI=1S/C5H3FO3/c6-3-1-2-4(7)9-5(3)8/h1-2,8H
