21
gdb 40166	2.99353	1.56186	1.37643	1.3705	81.55	-0.2345	0.0887	0.3232	1036.2319	0.185118	-387.062111	-387.054806	-387.053862	-387.093438	30.742	
C	-0.3579530411	 1.4043134162	 0.062060067	-0.31029
C	 1.1219049106	 1.109226184	-0.0410626229	-0.336898
C	 0.1277027824	-0.0196515364	-0.0284149141	 0.375903
C	 0.0985014463	-0.9287381351	 1.2022475578	-0.149157
O	-0.8069847524	-2.0227781395	 1.0658027211	-0.276653
C	-0.9349435956	-2.4937545398	-0.270629594	 0.136115
C	 0.3566493124	-2.2720880632	-1.108273077	-0.268546
C	-0.1694616509	-0.8149436678	-1.2915499738	-0.099742
C	-1.6039024454	-1.408306869	-1.1540349266	-0.231725
H	-0.7417496382	 1.7588592387	 1.0133939103	 0.110806
H	-0.8533514583	 1.8327354937	-0.8037840468	 0.110545
H	 1.6277692573	 1.3377269669	-0.9737392187	 0.111103
H	 1.7342042274	 1.2625715394	 0.8428668651	 0.109736
H	 1.1110076936	-1.319759124	 1.3849838661	 0.094781
H	-0.2049517562	-0.381246231	 2.1002280122	 0.103934
H	-1.3763633287	-3.4899274568	-0.2048659817	 0.073118
H	 1.3278897807	-2.4355640156	-0.6356722212	 0.1008
H	 0.3096369605	-2.8368316716	-2.0423331729	 0.1009
H	 0.0914150469	-0.2631809798	-2.1983857517	 0.054666
H	-1.9739499297	-1.8186823108	-2.0977239416	 0.091831
H	-2.3716855913	-0.7922490485	-0.6804120667	 0.098772
124.0937	215.8631	279.1961	337.3602	393.8325	409.7253	432.6064	497.4471	548.6643	707.42	778.1308	802.4802	837.4494	856.3791	885.3034	900.8836	924.7733	930.1195	945.4454	971.4092	1002.6497	1024.8942	1053.6444	1061.2264	1077.9023	1084.0623	1088.3562	1110.5527	1134.5437	1186.9006	1189.7614	1238.0343	1254.07	1261.6778	1271.9811	1286.8925	1323.4583	1356.3137	1379.1474	1420.3073	1466.7107	1468.9726	1494.8276	1505.2046	1520.8806	2978.6684	3054.0894	3062.195	3067.9936	3072.5576	3094.1109	3117.6816	3118.9623	3120.7125	3122.6912	3195.6181	3210.7848
C1CC11COC2CC1C2	C1CC21CO[C@@H]1C[C@H]2C1	
InChI=1S/C8H12O/c1-2-8(1)5-9-7-3-6(8)4-7/h6-7H,1-5H2	InChI=1S/C8H12O/c1-2-8(1)5-9-7-3-6(8)4-7/h6-7H,1-5H2/t6-,7+
