18
gdb 14439	4.15636	2.04311	1.76688	1.5921	70.78	-0.2215	0.0988	0.3203	813.4183	0.155483	-347.779219	-347.772602	-347.771658	-347.809531	26.777	
C	-0.0495391796	 1.526853212	 0.0209647785	-0.505379
C	 0.0272460956	 0.0281680043	-0.0136007021	 0.308108
C	 0.8455943308	-0.8005060627	-1.0087284226	-0.279647
C	-0.1304070048	-1.99791457	-0.7718249448	-0.070254
C	 0.392700594	-2.8731179344	 0.3653406998	-0.077274
O	 0.5451884932	-1.9660411082	 1.4662531243	-0.269299
C	-0.2767329735	-0.8508346264	 1.1879906739	 0.071826
C	-1.0983020588	-1.0241650018	-0.0419445889	-0.171435
H	 0.9099004161	 1.9642374975	 0.322601464	 0.123094
H	-0.3070733039	 1.936646657	-0.9629557585	 0.115878
H	-0.8079950129	 1.8715552991	 0.7321729238	 0.116791
H	 0.7544987309	-0.401034751	-2.0228656218	 0.096932
H	 1.9045574658	-0.9690768291	-0.7804271646	 0.094474
H	-0.4821208364	-2.5394631909	-1.6489392393	 0.072959
H	-0.3178129828	-3.6734156465	 0.6245422201	 0.08899
H	 1.3690045638	-3.3221692367	 0.1538681043	 0.10471
H	-0.6776817327	-0.3802848834	 2.0785071927	 0.095594
H	-2.1737640747	-0.9397635089	-0.1321369088	 0.083933
198.2422	204.6082	264.3763	284.8798	394.547	479.3404	556.0676	697.1831	718.5236	770.868	833.7737	856.2397	868.0884	900.0475	930.2989	964.7749	966.8162	1017.1445	1022.8214	1041.2169	1071.0332	1096.8733	1119.7783	1161.0255	1193.0365	1205.5268	1236.4407	1237.0184	1275.9707	1291.9178	1319.8	1373.7008	1413.0808	1431.3012	1484.6171	1493.5521	1500.2818	1516.0715	2983.3037	3017.7501	3031.6599	3069.9189	3077.007	3089.8579	3090.6115	3124.4209	3180.3187	3193.3496
CC12CC3COC1C23	C[C@@]12C[C@H]3CO[C@@H]1[C@@H]23	
InChI=1S/C7H10O/c1-7-2-4-3-8-6(7)5(4)7/h4-6H,2-3H2,1H3	InChI=1S/C7H10O/c1-7-2-4-3-8-6(7)5(4)7/h4-6H,2-3H2,1H3/t4-,5-,6+,7-/m0/s1
