25
gdb 122129	1.81221	1.09495	0.75644	2.0572	86.19	-0.254	0.0764	0.3304	1626.7297	0.226759	-426.626769	-426.615265	-426.614321	-426.66422	41.317	
C	 0.0304452033	 1.8455480239	 0.9019397363	-0.403157
C	-0.04887067	 0.3753171955	 0.4800439477	-0.169658
C	 0.6187319488	-0.6000367691	 1.4568655936	 0.135332
C	 0.454969828	-2.0582110439	 1.0169765256	-0.168988
C	 1.0623446523	-3.0638730103	 1.9968649356	-0.390954
O	 2.0198132595	-0.3090856241	 1.5445925881	-0.283284
C	 2.4792031824	 0.241305872	 2.7684281461	-0.073739
C	 3.8643789708	 0.8081890374	 2.4914222196	-0.064807
O	 3.8243875759	 1.761285716	 1.4456606344	-0.41764
H	 1.0677275373	 2.173545835	 1.0139964742	 0.134162
H	-0.4464853305	 2.4907047415	 0.1577119417	 0.111896
H	-0.4793259954	 2.0131100627	 1.8577689617	 0.109658
H	-1.0985900649	 0.0789366552	 0.3614007983	 0.093369
H	 0.4233005421	 0.2450520971	-0.5023368602	 0.098566
H	 0.1691248526	-0.4776018299	 2.4546164588	 0.067072
H	-0.6144942918	-2.2615004544	 0.8825867678	 0.09336
H	 0.92204392	-2.1722696909	 0.0306109309	 0.101758
H	 0.9410729715	-4.0897460099	 1.6362156857	 0.11189
H	 2.1316378303	-2.8759382884	 2.1269783455	 0.127654
H	 0.5845479293	-2.9999440235	 2.9812782759	 0.108764
H	 1.8130404153	 1.0467163979	 3.1071607968	 0.100526
H	 2.5241867483	-0.525790458	 3.5579154103	 0.087517
H	 4.2433970189	 1.3169855715	 3.3836622441	 0.107705
H	 4.5545108793	-0.0166789809	 2.2533942449	 0.092968
H	 3.3662634068	 1.3185037975	 0.7208798766	 0.290031
51.8583	54.859	99.2592	124.2076	153.3346	177.3323	210.1178	247.2162	275.2853	293.6012	339.1109	387.2014	455.1125	476.3087	500.8462	539.4351	767.106	772.4574	864.709	879.3966	905.6079	936.1399	978.6366	1016.0449	1042.1715	1059.5595	1076.3605	1124.0552	1126.8738	1135.2942	1154.7362	1188.3419	1239.0623	1261.9638	1278.9469	1302.906	1315.2967	1367.0473	1381.6415	1386.8787	1392.4944	1404.6441	1415.763	1428.0509	1439.5955	1470.7056	1482.5809	1496.6596	1498.5563	1501.9775	1508.4445	1511.2556	1522.3728	2973.136	2981.3744	2986.7038	3019.4872	3028.7736	3030.6368	3033.733	3034.4522	3055.508	3067.1467	3081.6023	3097.4595	3099.4694	3117.5572	3119.111	3790.1833
CCC(CC)OCCO	CCC(CC)OCCO	
InChI=1S/C7H16O2/c1-3-7(4-2)9-6-5-8/h7-8H,3-6H2,1-2H3	InChI=1S/C7H16O2/c1-3-7(4-2)9-6-5-8/h7-8H,3-6H2,1-2H3
