15
gdb 129647	3.34757	1.2984	0.94154	2.7708	78.13	-0.2052	0.0005	0.2056	1173.9349	0.113828	-412.967101	-412.958273	-412.957329	-413.000347	32.76	
N	 0.0951290157	 1.4122135091	 0.0762938694	-0.61475
C	-0.0024203693	 0.0261543005	 0.0157783276	 0.390865
C	-1.1269091109	-0.777779229	 0.0159934963	-0.036425
N	-2.4559355482	-0.2770664322	-0.0130843345	-0.631964
C	-0.6135759474	-2.1086809655	 0.0194594781	 0.181984
N	 0.7232834625	-2.1240185517	 0.0158801127	-0.318523
N	 1.0638364189	-0.8122235419	 0.0282072654	-0.271557
C	-1.3842977018	-3.2974688498	 0.0024624733	 0.257192
C	-2.0955581979	-4.2690673178	-0.0131216667	-0.41675
H	 0.7321882605	 1.806519862	-0.6064506369	 0.248427
H	-0.8297066509	 1.8108581839	-0.0512936006	 0.262338
H	-2.9154195003	-0.3933619934	 0.8862008172	 0.244175
H	-3.0182049941	-0.7884316923	-0.6867203822	 0.244536
H	 2.0377355292	-0.5662444565	 0.0768280821	 0.271959
H	-2.7025591959	-5.1399712455	-0.0250495511	 0.188491
99.4084	129.0854	138.9754	245.1331	269.7634	289.1176	316.7106	394.8314	443.4137	518.596	533.3606	571.0137	597.0848	663.0652	677.1539	729.5287	751.8638	777.1571	822.4074	872.1349	1058.6101	1107.1166	1166.7568	1226.6777	1270.9639	1360.3118	1413.1307	1466.4206	1544.4765	1622.8116	1650.8822	1684.9659	2233.7544	3484.7534	3503.521	3508.3343	3550.0778	3597.4927	3673.9989
NC1=C(N)C(=NN1)C#C	Nc1c(N)c(n[nH]1)C#C	
InChI=1S/C5H6N4/c1-2-3-4(6)5(7)9-8-3/h1H,6H2,(H3,7,8,9)	InChI=1S/C5H6N4/c1-2-3-4(6)5(7)9-8-3/h1H,6H2,(H3,7,8,9)
