21
gdb 112130	2.65171	1.21514	0.9697	1.6942	86.17	-0.2338	0.0155	0.2493	1290.9286	0.184249	-387.090187	-387.081299	-387.080355	-387.124367	33.896	
O	 0.3266605058	 0.0243720536	 1.7334155421	-0.421011
C	-0.1436319035	 0.3816931146	 0.4468527317	-0.063764
C	-1.3620722112	-0.4661025981	-0.0265327582	-0.094613
C	-1.8899431646	 0.1272413504	-1.3087805371	-0.068416
C	-1.5733860765	-0.1967249445	-2.5615727621	-0.061551
C	-0.6457489969	-1.3045264991	-2.995485986	-0.257439
C	-1.0131942061	-2.6910098017	-2.4426612187	-0.237912
C	-0.9060673281	-2.8496015331	-0.9492464636	-0.060568
C	-1.0389795144	-1.9392678157	 0.0173549513	-0.080448
H	 0.7437142239	-0.8397954594	 1.6612587551	 0.284229
H	-0.4444686498	 1.4318737125	 0.5163054413	 0.109081
H	 0.6519017937	 0.313563285	-0.3095706853	 0.094822
H	-2.1267604051	-0.3100651317	 0.7481405007	 0.091655
H	-2.5652497582	 0.9684575974	-1.1616803595	 0.086843
H	-2.0278162397	 0.385530609	-3.3604277945	 0.085589
H	-0.6361118848	-1.3570717849	-4.0891890497	 0.098139
H	 0.3848037943	-1.072753319	-2.6950609604	 0.111969
H	-2.0326062055	-2.9485399059	-2.7642382039	 0.115434
H	-0.3618775626	-3.4392045183	-2.912169298	 0.098593
H	-0.7002146033	-3.8691792673	-0.6254007695	 0.08261
H	-0.9195691874	-2.3025867738	 1.0377171543	 0.086759
34.9716	123.2476	155.0879	213.7516	238.9836	339.5265	353.9677	382.6235	421.2161	507.7438	542.6026	646.2654	729.1732	749.3316	761.9987	827.718	840.7772	911.7872	952.7708	969.9595	1007.9684	1025.0487	1038.4228	1048.2384	1072.0249	1080.1041	1111.5272	1189.6893	1198.288	1258.1148	1269.1957	1287.6544	1298.8631	1353.8347	1376.1257	1380.0715	1397.3376	1419.0112	1425.3485	1442.6653	1475.4888	1485.5561	1497.7749	1730.9042	1738.8475	2991.0275	3005.0105	3005.8083	3017.742	3041.1999	3067.6263	3079.6613	3112.9238	3128.9382	3138.9648	3155.0457	3820.4932
OCC1C=CCCC=C1	OC[C@H]1C=CCCC=C1	
InChI=1S/C8H12O/c9-7-8-5-3-1-2-4-6-8/h3-6,8-9H,1-2,7H2	InChI=1S/C8H12O/c9-7-8-5-3-1-2-4-6-8/h3-6,8-9H,1-2,7H2
