23
gdb 120383	2.65353	1.06145	0.84039	1.0602	87.8	-0.2344	0.0288	0.2632	1473.9789	0.205586	-388.293676	-388.283902	-388.282958	-388.328718	36.172	
C	 0.2883783404	 1.3556554414	-0.1944224512	-0.226493
O	 0.0675264758	-0.0190290342	 0.0007382291	-0.234315
C	 0.856817421	-0.5608085504	 1.0401120225	-0.059942
C	 0.531543765	-2.0549009683	 1.1493022303	-0.069078
C	 0.9039666594	-2.7876931549	-0.1228958572	-0.059105
C	 1.9743873311	-3.5634158944	 0.0383835039	-0.07132
C	 2.5001663155	-3.5160053565	 1.4520798593	-0.259805
C	 1.3455063455	-2.8335228841	 2.2341111012	 0.017264
C	 1.7973683162	-2.0430438057	 3.4629293335	-0.412686
H	 1.3336240459	 1.5681396913	-0.4711594446	 0.102294
H	-0.3645348476	 1.6820757043	-1.0079314804	 0.124527
H	 0.05008667	 1.9413536127	 0.7082981786	 0.100764
H	 1.9285253122	-0.4115107188	 0.8228550521	 0.083619
H	 0.6382713181	-0.0426259189	 1.9888385073	 0.081674
H	-0.5445222923	-2.1198316797	 1.353430075	 0.076756
H	 0.3727809691	-2.6255115012	-1.0528234525	 0.099962
H	 2.4496372609	-4.1445798843	-0.7447600962	 0.087468
H	 2.7422241948	-4.5050321701	 1.8588578692	 0.098643
H	 3.4302690691	-2.9298312951	 1.5056925644	 0.0986
H	 0.6842999765	-3.6378428309	 2.5781575308	 0.080117
H	 2.483953954	-1.2320998454	 3.1969384766	 0.116224
H	 0.9484582572	-1.6030981392	 3.9971587894	 0.113604
H	 2.323804092	-2.6974522777	 4.1660370091	 0.11123
62.9982	100.3019	110.7924	141.2247	227.5528	251.0589	272.4294	286.4208	358.2724	387.2063	486.7854	523.4476	634.8367	741.5076	772.3431	823.9791	870.9045	925.7036	951.2366	973.7355	977.0752	1005.1413	1015.0536	1067.8135	1092.166	1119.3866	1133.1603	1159.4597	1172.7769	1183.2645	1191.3116	1228.9761	1253.7595	1281.132	1305.8261	1331.2762	1356.696	1365.822	1374.2882	1411.8555	1416.5286	1479.9969	1485.1309	1489.3149	1498.6355	1501.6892	1504.8004	1528.3281	1685.5867	2946.994	2967.5357	2979.2498	2992.02	3007.6194	3018.0399	3028.4831	3033.2246	3050.7306	3093.055	3097.3156	3110.0254	3182.2983	3216.1373
COCC1C=CCC1C	COC[C@H]1C=CC[C@H]1C	
InChI=1S/C8H14O/c1-7-4-3-5-8(7)6-9-2/h3,5,7-8H,4,6H2,1-2H3	InChI=1S/C8H14O/c1-7-4-3-5-8(7)6-9-2/h3,5,7-8H,4,6H2,1-2H3/t7-,8-/m1/s1
