17
gdb 35033	3.28202	1.44682	1.40248	2.2721	72.75	-0.2522	0.0427	0.2949	984.4261	0.137539	-421.794609	-421.787432	-421.786488	-421.826074	28.633	
C	-0.0545718841	-1.2111395692	-0.0943515253	-0.430872
C	-0.0132814881	-0.0119081379	-0.0213855174	 0.319009
C	 0.0174109637	 1.4341642371	 0.0542470036	-0.246361
C	-0.2832974077	 2.0674667789	 1.4464928904	-0.098944
C	 0.9346220158	 1.56229962	 2.2389369699	-0.08068
O	 2.0055027134	 1.6157894807	 1.2694883073	-0.267347
C	 1.4177556924	 2.0994788053	 0.0828700825	 0.22446
O	 1.1107178287	 3.4752846001	 0.1989823518	-0.273264
C	-0.0143656277	 3.5423669228	 1.1040694213	-0.092124
H	-0.0810569305	-2.2704852232	-0.1625860235	 0.195524
H	-0.6012575707	 1.8776141461	-0.7314537597	 0.113113
H	-1.2546351863	 1.8544055755	 1.8897469813	 0.091742
H	 1.1770792278	 2.2071513366	 3.0908071255	 0.107113
H	 0.8127441498	 0.5315516427	 2.5879513255	 0.117604
H	 2.1007746429	 1.9482794028	-0.749931932	 0.105789
H	-0.8613780162	 4.0220762226	 0.5982199348	 0.104822
H	 0.2555253268	 4.1378178991	 1.9835799738	 0.110415
139.7885	147.0526	208.8383	372.4881	382.1457	448.956	498.3148	560.1247	629.3209	631.0957	644.7454	791.4687	835.8784	863.4763	914.6685	922.5853	934.0697	942.5135	969.8706	1012.5408	1040.6279	1065.2519	1093.8149	1113.6028	1167.2277	1194.6155	1204.5945	1257.356	1275.0138	1299.9461	1319.1519	1355.7687	1381.6899	1394.3714	1515.267	1530.8074	2238.4561	3021.1187	3035.1972	3064.482	3070.3224	3080.2785	3137.9168	3162.1011	3503.8316
C#CC1C2COC1OC2	C#C[C@H]1[C@H]2CO[C@@H]1OC2	
InChI=1S/C7H8O2/c1-2-6-5-3-8-7(6)9-4-5/h1,5-7H,3-4H2	InChI=1S/C7H8O2/c1-2-6-5-3-8-7(6)9-4-5/h1,5-7H,3-4H2/t5-,6-,7+/m0/s1
