13
gdb 129239	3.08548	1.29628	1.03925	4.4153	65.3	-0.2386	-0.0372	0.2013	1095.4165	0.09022	-445.078406	-445.07044	-445.069496	-445.11227	27.793	
N	-0.0889427597	 1.3410367876	 0.0449443641	-0.595725
C	 0.0105726005	 0.0746533273	-0.0339292268	 0.501228
N	 1.0488644464	-0.8401935902	-0.1170020923	-0.319159
N	 0.5995790656	-2.1287255037	-0.1846313337	-0.059306
N	-0.6628921912	-2.1054899621	-0.1416531403	-0.097295
N	-1.0663927332	-0.8062982058	-0.0395555771	-0.036285
C	-2.4553047565	-0.4251737253	-0.013737497	-0.283655
C	-3.0671837569	-0.3695786167	-1.3503345549	 0.278769
N	-3.5602342818	-0.3302211722	-2.3933181244	-0.289399
H	 0.8128023988	 1.8070141715	 0.0516463146	 0.224822
H	 2.0357344482	-0.6570538332	-0.1648267027	 0.290648
H	-3.0101615041	-1.1312356508	 0.6097840286	 0.182344
H	-2.4988298362	 0.5684692634	 0.443148292	 0.203013
33.9445	73.1778	192.362	245.7505	257.4426	361.1379	375.7306	445.7823	538.3014	676.0765	699.4139	717.1169	738.8754	804.8078	919.0487	928.0867	1003.6699	1036.0635	1072.6745	1174.64	1241.4769	1342.363	1372.8996	1389.3424	1425.162	1446.5433	1515.6999	1768.8582	2371.3739	3067.8864	3120.1838	3549.6744	3696.2655
N=C1NN=NN1CC#N	[NH][C@H]1NN=NN1CC#N	
InChI=1S/C3H4N6/c4-1-2-9-3(5)6-7-8-9/h2H2,(H2,5,6,8)	InChI=1S/C3H5N6/c4-1-2-9-3(5)6-7-8-9/h3,5H,2H2,(H,6,8)/t3-/m0/s1
