25
gdb 58193	2.04692	1.11422	0.98237	0.4726	94.26	-0.2579	0.0554	0.3133	1444.8237	0.225579	-352.336368	-352.324758	-352.323814	-352.372905	43.25	
C	 0.3217380798	 1.6853775317	 0.5491446372	-0.399569
C	 0.0205262753	 0.184363432	 0.4023257868	 0.048247
C	 0.4480007815	-0.5434207889	 1.6879306308	-0.40541
C	-1.4652512196	-0.070088083	 0.0274812296	 0.038428
C	-1.8335992042	 0.569014454	-1.32017535	-0.412734
C	-1.8421663303	-1.5854895218	 0.0564550672	-0.158422
C	-3.3498576701	-1.8383084363	-0.1601278634	-0.404749
C	-1.0466752091	-2.3701217512	-0.8885436658	 0.366321
C	-0.403312748	-3.0167323811	-1.6730794335	-0.510358
H	 1.3680820362	 1.8381775441	 0.8327128116	 0.109439
H	 0.1516740953	 2.2431366875	-0.3747036848	 0.11474
H	-0.2999718231	 2.1363047554	 1.3326936663	 0.108538
H	 0.6349650343	-0.2065571768	-0.4199952283	 0.084028
H	-0.2080948977	-0.2859014171	 2.5290479392	 0.106704
H	 0.4442113644	-1.6299431734	 1.5720162982	 0.12351
H	 1.4656939415	-0.2526043383	 1.9674619535	 0.107673
H	-2.0826863585	 0.3963993128	 0.8102141181	 0.065694
H	-1.2579984638	 0.1145367056	-2.133598024	 0.126399
H	-2.8945408393	 0.4398405059	-1.5493239705	 0.11243
H	-1.6365896175	 1.6428603667	-1.3236203129	 0.114775
H	-1.6097258457	-1.9523904434	 1.0627909362	 0.105162
H	-3.5868439844	-2.8897782175	 0.0228718792	 0.123029
H	-3.9392273904	-1.2273466918	 0.5314911008	 0.111917
H	-3.6588363229	-1.6025715525	-1.1807656127	 0.130263
H	 0.166545146	-3.5924459627	-2.3595680789	 0.193945
44.0046	73.071	136.0221	184.3825	193.9788	203.1316	224.9614	237.9659	264.5707	329.4555	354.419	366.0055	391.0089	436.5917	464.0915	556.8387	619.9352	631.6752	646.6449	746.1451	815.3283	885.0703	929.567	935.5467	968.7661	984.4387	998.9754	1042.1652	1057.4189	1109.5743	1125.2801	1179.6701	1187.5418	1201.729	1287.8432	1303.5729	1333.973	1351.3572	1373.6252	1380.7058	1401.1609	1404.7183	1410.4611	1423.9599	1485.5251	1489.505	1492.5605	1497.6414	1503.6469	1505.3726	1516.2873	1522.9053	2226.8426	2987.9865	3017.5108	3023.6385	3030.4256	3038.5381	3041.876	3046.9513	3086.5566	3094.1522	3109.6833	3111.7908	3112.4892	3114.9974	3128.3247	3131.7931	3503.5014
CC(C)C(C)C(C)C#C	CC(C)[C@@H](C)[C@@H](C)C#C	
InChI=1S/C9H16/c1-6-8(4)9(5)7(2)3/h1,7-9H,2-5H3	InChI=1S/C9H16/c1-6-8(4)9(5)7(2)3/h1,7-9H,2-5H3/t8-,9+/m0/s1
