19
gdb 60584	3.78065	1.02094	0.93425	3.1476	71.27	-0.2283	0.0684	0.2967	1288.6307	0.158609	-460.112212	-460.103532	-460.102588	-460.145907	33.248	
O	-0.54580072	 1.1633468214	 0.0530473665	-0.444064
C	-0.1421922372	-0.2033498355	 0.0116560538	 0.055256
C	 0.7030357243	-0.4328676485	-1.2373031274	 0.069726
C	 0.4047368884	 0.2436391502	-2.5022205096	-0.189393
O	 1.4669473181	 0.7087202167	-1.6486788743	-0.246568
C	 0.594875746	-0.6388216449	 1.2716323292	-0.077371
C	 1.5117136914	 0.3201664259	 2.0177990582	-0.336839
C	 0.1986307531	-0.1045483099	 2.626391101	 0.132294
O	-0.8639161962	 0.7784592882	 2.7952153156	-0.435858
H	 0.2068701064	 1.6630236345	-0.3004646881	 0.300399
H	-1.0652654342	-0.7913476895	-0.0777621686	 0.105651
H	 1.2506976807	-1.3742046381	-1.2659561395	 0.104464
H	 0.7330595089	-0.1973902646	-3.4408128906	 0.126339
H	-0.456899941	 0.9040219721	-2.5614303664	 0.132373
H	 0.9048667364	-1.6810279098	 1.2334763182	 0.085336
H	 2.4439455173	-0.0575732287	 2.4236493978	 0.111211
H	 1.5645935383	 1.3407972897	 1.6532133825	 0.110205
H	 0.2390992271	-0.7986385528	 3.4603908182	 0.101942
H	-0.9693142879	 1.2584010736	 1.9608481736	 0.294897
61.4072	95.9082	164.8871	227.3244	264.1623	315.9154	360.2985	422.8182	489.2702	507.6402	619.8982	649.0005	681.5009	761.6514	795.9259	802.9605	874.0714	887.1261	945.1247	969.166	1017.361	1032.4418	1051.8307	1075.8876	1100.2459	1125.8391	1139.5014	1154.4309	1164.0919	1171.3946	1230.9375	1258.3221	1294.8863	1332.2581	1358.1496	1379.4391	1419.9668	1443.8184	1458.2632	1494.8032	1519.6036	3025.4355	3102.5894	3120.7864	3128.461	3131.5321	3157.3984	3196.7093	3217.5147	3701.045	3720.1228
OC(C1CO1)C1CC1O	O[C@@H]([C@H]1CO1)[C@H]1C[C@H]1O	
InChI=1S/C6H10O3/c7-4-1-3(4)6(8)5-2-9-5/h3-8H,1-2H2	InChI=1S/C6H10O3/c7-4-1-3(4)6(8)5-2-9-5/h3-8H,1-2H2/t3-,4+,5+,6+/m0/s1
