16
gdb 66699	2.99729	1.83231	1.48455	4.3807	71.2	-0.2351	-0.0126	0.2225	913.0203	0.124813	-400.715723	-400.708914	-400.70797	-400.746733	27.437	
C	 0.0087643616	 1.5231961838	 0.0251262835	-0.513523
C	 0.0155265634	 0.0316580744	-0.0391738539	 0.327562
C	-0.6852855705	-0.8680308246	-1.1239138867	-0.141096
C	 0.3799445491	-1.9072215877	-0.9366944587	-0.090372
C	-1.0075232287	-2.1452388294	-0.3723850335	-0.205077
C	-0.9599333104	-1.8217508831	 1.0888967811	 0.440277
O	-1.5878404882	-2.2788355371	 1.9968265106	-0.318135
N	 0.0425900667	-0.7776015652	 1.2130793807	-0.215208
C	 1.0557672715	-1.0014315343	 0.1441179382	-0.12858
H	 0.6743497585	 1.8728396986	 0.8179583428	 0.142892
H	 0.341786594	 1.951845355	-0.9263320418	 0.125957
H	-0.9986138716	 1.9010480952	 0.2325692793	 0.133726
H	-1.1980885822	-0.5416542084	-2.0170428577	 0.107301
H	 0.8630345352	-2.5527738872	-1.6548149375	 0.108752
H	-1.6711857669	-2.8976582101	-0.7727997714	 0.117726
H	 2.1037178984	-0.9490470198	 0.409490615	 0.107799
135.6029	194.1039	248.1831	284.0092	466.6358	540.2297	571.5062	626.4668	711.9848	745.0731	766.2749	794.0611	821.2912	840.4535	870.6667	895.2274	910.0226	942.3682	979.4845	998.9975	1015.0801	1039.8044	1067.2057	1096.6479	1129.1797	1164.6428	1234.3803	1243.5602	1264.6869	1328.6956	1404.6457	1450.5669	1482.4496	1489.8593	1890.2568	3033.3959	3094.5732	3125.95	3199.6988	3221.427	3228.1458	3238.8702
CC12C3C4C3C(=O)N1C24	C[C@]12[C@H]3[C@@H]4[C@H]3C(=O)N1[C@H]24	
InChI=1S/C7H7NO/c1-7-4-2-3(4)6(9)8(7)5(2)7/h2-5H,1H3	InChI=1S/C7H7NO/c1-7-4-2-3(4)6(9)8(7)5(2)7/h2-5H,1H3/t2-,3+,4-,5-,7+,8?/m0/s1
