16
gdb 124228	4.88894	1.03796	0.86287	3.9428	72.92	-0.2356	0.0097	0.2453	1295.2829	0.125296	-434.093965	-434.085641	-434.084697	-434.128672	30.084	
C	 0.0977329464	 1.3291397475	-0.1147614064	-0.443744
C	-0.0081138216	-0.1537959094	 0.0910529972	 0.389159
N	-0.0218700463	-0.7011304749	 1.2241307161	-0.500454
O	-0.0821039736	-0.7569731402	-1.1640548188	-0.285616
C	-0.1493299288	-2.0941848644	-1.3622711952	 0.466516
N	-0.3665437039	-2.9999698626	-0.4157680641	-0.330047
N	-0.3623207276	-4.1743224891	-1.0891595543	-0.187535
C	-0.1566575621	-4.0228227578	-2.4168038167	 4.*^-6
C	-0.0104439512	-2.6731970159	-2.6447318029	-0.325459
H	 0.9860265104	 1.5708803535	-0.7068143732	 0.136976
H	-0.7711753013	 1.7000587884	-0.6675479157	 0.137993
H	 0.1551512828	 1.8223436396	 0.8544131513	 0.147672
H	-0.1114239489	-1.7144467797	 1.1588532843	 0.250213
H	-0.5099648241	-5.0247029282	-0.5746390153	 0.282347
H	-0.1307221716	-4.8680281815	-3.0859942895	 0.144207
H	 0.1687803415	-2.1680027154	-3.5779881968	 0.117768
15.9074	79.4629	155.5463	185.2858	340.7195	351.7123	388.5002	431.8641	546.4414	566.3379	651.8281	711.4339	752.1275	770.7842	842.3903	885.6695	938.1726	940.8348	996.0024	1039.0118	1071.8821	1078.2465	1095.0944	1122.7985	1224.254	1309.1522	1326.9993	1405.619	1410.6159	1475.9518	1477.7582	1491.0463	1510.9047	1579.2098	1765.1753	3049.5752	3106.9223	3169.4571	3264.3847	3290.5633	3493.2782	3689.815
CC(=N)OC1=NNC=C1	C[C]([NH])Oc1n[nH]cc1	
InChI=1S/C5H7N3O/c1-4(6)9-5-2-3-7-8-5/h2-3,6H,1H3,(H,7,8)	InChI=1S/C5H7N3O/c1-4(6)9-5-2-3-7-8-5/h2-3,6H,1H3,(H,7,8)
