16
gdb 66660	4.63436	1.20489	1.16073	2.2962	80.96	-0.2148	0.0159	0.2307	1096.74	0.122351	-363.458563	-363.450892	-363.449948	-363.490381	30.189	
C	 0.0043512872	 1.5142275555	 0.0352663578	-0.526293
C	-0.0119070553	 0.0232618447	-0.0005369323	 0.336608
C	 0.9826532096	-0.9950213201	-0.5028164669	-0.065725
C	 0.6180395013	-0.9986628207	 0.9587096625	-0.244101
C	-0.5129254168	-2.0087005754	 0.6140690752	 0.350442
C	-1.0538353992	-3.1242182812	 1.2935834248	 0.027653
C	-1.5109827623	-4.0558050856	 1.9036850409	-0.362624
C	-1.115435033	-1.0184993398	-0.3355860126	-0.184463
N	-0.1124808745	-2.0011593192	-0.8586768398	-0.211619
H	 0.9995142963	 1.8805085689	 0.309724862	 0.128087
H	-0.2494556968	 1.9414673117	-0.9416442004	 0.129184
H	-0.7077598735	 1.9063144738	 0.7703052347	 0.128509
H	 1.9307072152	-0.9126685297	-1.0191937251	 0.103726
H	 1.2106198771	-0.8366704842	 1.8475409802	 0.103182
H	-1.9138362454	-4.884848626	 2.4307585795	 0.182876
H	-2.1238158699	-0.9517605027	-0.7282584306	 0.104558
124.6978	144.18	215.1962	257.9614	279.5685	472.1508	488.0377	513.0478	586.5323	617.0388	673.9497	674.5445	755.1823	764.1462	839.3607	842.3276	870.8586	883.9303	922.1964	945.8914	991.8126	1012.0405	1055.5391	1103.7333	1114.8049	1145.2508	1173.8743	1217.7137	1279.0414	1374.5837	1410.2492	1445.9088	1481.6841	1498.9873	2231.8119	3023.1096	3083.7525	3095.2246	3178.9983	3190.6521	3223.9211	3502.2675
CC12C3C1C1(C#C)C2N31	C[C@@]12[C@H]3[C@@H]1[C@@]1(C#C)[C@@H]2N31	
InChI=1S/C8H7N/c1-3-8-4-5-7(4,2)6(8)9(5)8/h1,4-6H,2H3	InChI=1S/C8H7N/c1-3-8-4-5-7(4,2)6(8)9(5)8/h1,4-6H,2H3/t4-,5+,6+,7-,8-,9?/m0/s1
