17
gdb 71103	2.89829	1.44771	1.27339	2.5678	74.2	-0.2381	-0.0287	0.2094	1044.0035	0.134266	-421.777167	-421.76916	-421.768216	-421.8098	30.18	
C	 0.2571988766	 1.6035774818	-0.0758093413	-0.507392
C	-0.0192185893	 0.1342276242	-0.0835797155	 0.341135
C	 0.2559132366	-0.8125735148	-1.2858141383	-0.263754
C	-0.6734715983	-1.8001829378	-0.5773570775	-0.158151
C	-0.4216964314	-1.5634498808	 0.8895731919	 0.067121
O	 0.6030502474	-0.5960575341	 1.0309763806	-0.319782
C	-1.3792157613	-0.6361510357	 0.1582133824	 0.17259
C	-2.7911754919	-0.3542094	 0.3882945008	-0.001821
O	-3.6381884791	-1.2103341381	 0.5247178154	-0.280726
H	 1.3328557436	 1.7807973095	-0.1800651145	 0.140711
H	-0.2551385569	 2.0957465089	-0.9077649143	 0.129436
H	-0.0753224307	 2.0577669877	 0.8617039451	 0.138163
H	-0.1876704875	-0.4382037136	-2.2111460193	 0.112183
H	 1.3007260303	-1.0993625836	-1.4401404604	 0.107709
H	-1.1608387549	-2.6873832639	-0.9585318321	 0.120291
H	-0.6237273872	-2.2586700499	 1.6928560512	 0.131845
H	-3.051107526	 0.7264587601	 0.4454198557	 0.070442
100.2965	126.9876	176.0989	202.3181	268.8752	306.5042	407.8287	526.3101	567.7319	618.51	704.4451	734.6632	807.6551	819.4826	849.6977	872.603	917.4313	957.038	992.4006	1007.3543	1033.7237	1054.9185	1097.2301	1108.3092	1157.4416	1164.7276	1217.2785	1253.9813	1293.4923	1340.1475	1392.9219	1419.1337	1442.5274	1478.0843	1485.9554	1488.7885	1778.7984	2874.2784	3040.6429	3053.2121	3111.6163	3120.0909	3122.7681	3215.5749	3226.2875
CC12CC3C(O1)C23C=O	C[C@@]12C[C@H]3[C@@H](O1)[C@@]23C=O	
InChI=1S/C7H8O2/c1-6-2-4-5(9-6)7(4,6)3-8/h3-5H,2H2,1H3	InChI=1S/C7H8O2/c1-6-2-4-5(9-6)7(4,6)3-8/h3-5H,2H2,1H3/t4-,5+,6-,7-/m0/s1
