20
gdb 104264	2.18587	1.45343	1.12131	5.0942	79.5	-0.261	0.0344	0.2954	1188.717	0.169409	-403.148065	-403.138434	-403.13749	-403.18246	35.37	
C	-0.1933632201	 1.4546465156	-0.0643652431	-0.256156
O	-0.3816244981	 0.0785827849	-0.3248055597	-0.273209
C	 0.5773474644	-0.5279313749	-1.151817882	 0.436725
C	 0.5138933299	-0.0243885249	-2.5929504101	-0.452484
C	 2.0312429938	-0.6376382947	-0.5923499854	-0.276598
C	 2.0262193982	-2.1477455688	-0.9388396906	-0.231975
C	 0.4679937887	-2.0958945311	-1.0881405328	-0.249039
C	-0.2440356925	-2.6088471652	 0.0711771752	 0.305573
N	-0.7891355935	-3.0549892233	 0.987860888	-0.337076
H	 0.8141212934	 1.6648951182	 0.3224083728	 0.111221
H	-0.363292928	 2.077672884	-0.9531706265	 0.111753
H	-0.9249515074	 1.7293107775	 0.698342452	 0.139406
H	 0.8152224551	 1.0252858423	-2.6574553049	 0.124446
H	 1.1865426491	-0.5974657978	-3.2384744004	 0.12184
H	-0.5051029094	-0.1191648075	-2.9803562548	 0.131889
H	 2.7983287919	-0.0161856071	-1.059217	 0.102566
H	 2.0397156179	-0.4742721509	 0.4878889449	 0.126154
H	 2.5061035774	-2.3723377287	-1.8932095558	 0.116722
H	 2.4075070796	-2.8319282753	-0.1814791231	 0.130064
H	 0.0566260995	-2.5612822723	-1.9876196736	 0.118178
80.0469	102.6824	125.1084	194.3487	215.6194	242.9526	266.8982	319.1466	359.6187	394.6587	444.1588	507.1578	599.4416	649.8724	733.0064	808.48	890.9357	902.4106	919.3208	957.0113	965.7243	1025.5716	1100.9624	1114.0234	1140.8418	1175.3216	1180.7904	1199.2009	1228.5415	1233.3279	1265.6686	1276.0112	1282.676	1339.6293	1405.0582	1473.9186	1475.5111	1484.1723	1489.9606	1494.2971	1505.4766	1509.257	2356.8901	2992.826	3037.8471	3045.8979	3067.4685	3075.5894	3086.1455	3109.8287	3116.3048	3122.8817	3124.066	3147.3462
COC1(C)CCC1C#N	CO[C@@]1(C)CC[C@H]1C#N	
InChI=1S/C7H11NO/c1-7(9-2)4-3-6(7)5-8/h6H,3-4H2,1-2H3	InChI=1S/C7H11NO/c1-7(9-2)4-3-6(7)5-8/h6H,3-4H2,1-2H3/t6-,7-/m0/s1
