21
gdb 74274	2.62879	1.24211	1.043	3.223	86.64	-0.2338	-0.0375	0.1963	1274.0097	0.180768	-387.148922	-387.139189	-387.138245	-387.183582	36.407	
C	 0.0190304521	 1.5405041796	 0.0004632	-0.492168
C	-0.0205366058	 0.0471761645	 0.0072456387	 0.188817
C	-1.0702783803	-0.782849984	-0.0468453373	-0.174487
C	-0.7233941209	-2.2599190838	-0.0183977327	 0.260357
C	-1.3634393367	-2.9344224559	 1.2111358089	-0.424312
C	-1.2219533399	-2.94963348	-1.3037356929	-0.424315
C	 0.8249564018	-2.2385755695	 0.0685899108	-0.387987
C	 1.2269481538	-0.7588230229	 0.0823524603	 0.327292
O	 2.3539562573	-0.3217628209	 0.1432150417	-0.329995
H	 0.6115537869	 1.9052922812	-0.8456531012	 0.142419
H	-0.9819195914	 1.9750092561	-0.0582947163	 0.119053
H	 0.5134893462	 1.9158112133	 0.903079428	 0.142425
H	-2.1082884328	-0.4637257379	-0.1072052904	 0.100867
H	-2.4557384393	-2.8548466241	 1.179857431	 0.112884
H	-1.1065507147	-3.9986081625	 1.2456619045	 0.118109
H	-1.0188060987	-2.4700402479	 2.1404073464	 0.11878
H	-0.7749553259	-2.4962560224	-2.1940223387	 0.118779
H	-0.9635349204	-4.0139835773	-1.2963987923	 0.118109
H	-2.3108145917	-2.8704285451	-1.3961263698	 0.112884
H	 1.2056362225	-2.7248664026	 0.9721340849	 0.126245
H	 1.3042356982	-2.7353314979	-0.7807124637	 0.126246
46.3724	99.4176	132.4819	238.6937	243.0378	272.7441	320.6837	320.7719	332.2137	342.5302	443.6312	520.4428	565.2924	608.8304	628.2406	756.9554	824.8891	902.0106	912.27	929.5164	952.2314	966.8307	1000.9668	1032.6302	1065.9907	1076.8171	1110.2363	1174.7437	1225.8202	1247.5679	1261.1972	1306.2339	1346.3374	1396.2906	1413.0221	1418.0358	1454.6348	1473.3798	1484.2806	1484.3708	1488.1316	1502.4519	1508.4562	1701.2319	1806.6383	3023.9473	3028.1426	3036.3386	3056.3198	3090.2133	3091.099	3096.9338	3097.2943	3102.5738	3104.5423	3121.317	3159.627
CC1=CC(C)(C)CC1=O	CC1=CC(C)(C)CC1=O	
InChI=1S/C8H12O/c1-6-4-8(2,3)5-7(6)9/h4H,5H2,1-3H3	InChI=1S/C8H12O/c1-6-4-8(2,3)5-7(6)9/h4H,5H2,1-3H3
