13
gdb 23775	3.33286	2.25767	1.34594	5.7887	66.01	-0.1961	-0.008	0.1882	826.7209	0.097635	-402.776537	-402.770109	-402.769164	-402.806985	24.823	
F	 0.0577171646	 0.062400692	 0.1787720649	-0.083933
C	 0.0173273812	 1.3950040527	 0.0581132766	 0.159726
C	-1.1777697857	 2.0164274802	 0.0110045897	-0.097232
N	-1.2372063577	 3.3859319141	-0.1128645774	-0.33567
C	-0.0812707332	 4.1225932685	-0.1887351066	 0.015853
C	 1.1339481436	 3.5344723099	-0.1448056954	-0.164766
C	 1.2997367233	 2.0919559604	-0.015140749	 0.20532
N	 2.4631627829	 1.5372777543	 0.0261522258	-0.565293
H	-2.1140709771	 1.4774707314	 0.0672226301	 0.140289
H	-2.1317896969	 3.8411663036	-0.1472158423	 0.268686
H	-0.2158980152	 5.1925863712	-0.2848194749	 0.131439
H	 2.033181826	 4.134044849	-0.2062377359	 0.116561
H	 2.3548742042	 0.5255875627	 0.1188360945	 0.20902
139.8169	306.0263	314.0251	331.0744	426.5543	446.8384	538.7491	541.8254	589.8876	722.5077	750.7283	827.091	861.6015	875.8206	901.0436	956.2961	1019.428	1093.2011	1176.0785	1238.9674	1286.8563	1311.166	1408.9206	1436.6963	1537.8066	1632.7363	1662.5568	1718.7904	3209.0635	3224.7078	3226.9163	3458.7028	3684.3451
FC1=CNC=CC1=N	FC1=CNCC=C1[NH]	
InChI=1S/C5H5FN2/c6-4-3-8-2-1-5(4)7/h1-3H,(H2,7,8)	InChI=1S/C5H6FN2/c6-4-3-8-2-1-5(4)7/h1,3,7-8H,2H2
