21
gdb 109147	3.64494	0.98014	0.93878	3.931	79.86	-0.2271	0.027	0.2541	1365.8168	0.182189	-420.431276	-420.421668	-420.420724	-420.465492	36.274	
C	 0.250782047	 1.4048572995	 0.1587838597	-0.426151
C	-0.0198304581	-0.0995932232	 0.007631118	 0.283842
C	-1.5182192248	-0.3833223443	-0.1047379991	-0.427035
C	 0.8098426699	-0.7064118934	-1.1714745979	-0.199581
N	 2.0095702868	-1.3005489917	-0.5684575429	-0.323067
C	 1.8032271677	-1.3286949137	 0.6944150292	 0.343143
C	 2.8216688401	-1.9166705728	 1.6337722213	-0.132079
O	 3.9655368861	-2.3365491927	 0.9423501434	-0.420739
N	 0.5832545033	-0.8518598239	 1.1375561224	-0.36689
H	 1.3262392149	 1.6011339739	 0.2111414395	 0.128289
H	-0.154711057	 1.9579896185	-0.6947523403	 0.122472
H	-0.2190882226	 1.8025500437	 1.0658407222	 0.109736
H	-1.9329868287	 0.0892505001	-1.0014574114	 0.119067
H	-1.70252489	-1.4592645576	-0.1624778137	 0.12383
H	-2.0633889772	 0.0103908309	 0.7601277384	 0.111126
H	 0.2393378688	-1.4875480459	-1.6912044105	 0.106835
H	 1.079749492	 0.0491881215	-1.916543651	 0.106861
H	 3.0867330623	-1.1641681364	 2.395588177	 0.099588
H	 2.354235765	-2.755121176	 2.1760161375	 0.112467
H	 3.7649915252	-2.1809456067	 0.0048941201	 0.29493
H	 0.5454161294	-0.4261437097	 2.0543773783	 0.233357
65.1031	108.0785	194.7123	203.5861	226.4694	271.5437	299.2767	323.947	371.9811	389.4686	435.6254	478.7888	546.6583	602.6926	657.4602	719.5997	829.4832	900.0865	924.1253	955.6644	975.3441	1000.0396	1030.553	1040.4007	1058.8092	1117.8229	1167.2593	1209.6235	1221.7486	1247.2424	1255.8741	1273.1864	1323.0333	1353.3475	1398.4308	1417.6692	1438.672	1480.5811	1484.5538	1496.0017	1497.1648	1502.7504	1506.2983	1512.2017	1706.2751	2965.804	2980.7108	3014.9405	3025.5921	3033.668	3066.5195	3093.0016	3099.3297	3108.6367	3118.2485	3576.6327	3669.2032
CC1(C)CN=C(CO)N1	CC1(C)C[N][C](CO)N1	
InChI=1S/C6H12N2O/c1-6(2)4-7-5(3-9)8-6/h9H,3-4H2,1-2H3,(H,7,8)	InChI=1S/C6H12N2O/c1-6(2)4-7-5(3-9)8-6/h9H,3-4H2,1-2H3,(H,7,8)
