20
gdb 73136	2.38095	1.78017	1.56551	2.4118	77.19	-0.2347	0.0696	0.3043	978.67	0.173109	-403.123142	-403.115575	-403.114631	-403.154631	31.374	
O	 0.3571157546	 1.4156142338	-0.1539173833	-0.484268
C	 0.0156668203	 0.0561765912	 0.0195226553	 0.431502
C	-1.3822027333	-0.1411836498	 0.6456548486	-0.253433
C	-0.7800038766	-1.1967204182	 1.6176879496	-0.227612
C	 0.6563175103	-0.7551547225	 1.2005051806	-0.067981
C	 1.6482310083	-1.7820946677	 0.6122109675	-0.243668
C	 1.3311804553	-1.8329367789	-0.8771175937	-0.02918
N	-0.0772213437	-2.1780757075	-1.1532383037	-0.333934
C	 0.3493337111	-0.7649368337	-1.2210187575	-0.14257
H	 1.2682770129	 1.459579834	-0.4654363393	 0.271675
H	-1.6984851252	 0.7730066508	 1.1533540784	 0.105579
H	-2.1752059815	-0.477172364	-0.024852455	 0.099678
H	-1.0249484095	-1.0697015777	 2.6745724637	 0.087895
H	-1.0043567924	-2.2189073759	 1.3132355748	 0.119432
H	 1.1174388781	-0.1058977844	 1.9478956548	 0.070176
H	 2.6838192348	-1.4494212786	 0.7508567328	 0.092665
H	 1.5562870635	-2.7678143136	 1.0809328011	 0.107586
H	 2.0916066775	-2.1595083955	-1.580560706	 0.082781
H	-0.1602091794	-2.54472596	-2.0980536586	 0.231858
H	 0.339486945	-0.2582462619	-2.1819380902	 0.081818
137.2363	212.3033	253.2917	297.5794	348.8403	368.9934	415.7933	471.215	574.4297	637.8106	693.9222	746.6832	785.7161	822.342	855.4223	865.3037	884.5283	916.6642	944.888	966.8648	1009.8375	1033.8989	1047.6441	1061.7426	1108.8926	1116.6663	1124.7155	1163.5156	1184.4626	1216.1722	1232.2611	1243.94	1252.715	1268.6081	1278.0279	1313.032	1334.1567	1365.6194	1386.298	1418.4621	1465.0362	1479.2311	1485.9526	3032.3375	3067.3584	3071.2095	3074.7966	3086.2065	3123.1183	3143.3798	3146.4414	3157.0778	3500.8544	3792.7331
OC12CCC1CC1NC21	O[C@]12CC[C@H]1C[C@H]1N[C@@H]21	
InChI=1S/C7H11NO/c9-7-2-1-4(7)3-5-6(7)8-5/h4-6,8-9H,1-3H2	InChI=1S/C7H11NO/c9-7-2-1-4(7)3-5-6(7)8-5/h4-6,8-9H,1-3H2/t4-,5+,6+,7+/m0/s1
