16
gdb 7336	4.75449	1.09148	0.90259	0.9346	63.18	-0.2422	-0.0847	0.1576	1259.6819	0.125907	-420.890457	-420.880865	-420.879921	-420.926116	31.5	
C	-0.0736676213	 1.4112092306	-0.0712041751	-0.226207
O	-0.1537008593	 0.0034006776	-0.065949097	-0.217926
C	 0.5181071594	-0.578216297	-1.1396645659	-0.152211
C	 0.3869688593	-2.0884799249	-1.0677481464	 0.246035
O	-0.2110757206	-2.680641238	-0.2053315181	-0.258571
C	 1.0921555035	-2.8584815544	-2.2092209327	 0.296936
C	 0.9784938579	-4.3603263889	-2.1635479126	-0.475374
O	 1.6865278067	-2.2413956312	-3.0635621118	-0.275302
H	 0.9680680911	 1.7612694762	-0.0017642954	 0.108616
H	-0.5214199142	 1.8422486172	-0.9802093841	 0.108606
H	-0.626764801	 1.7677984298	 0.8002934428	 0.135362
H	 0.126507557	-0.243906514	-2.1169118528	 0.124813
H	 1.5933306648	-0.3255789103	-1.1549686689	 0.12482
H	-0.0754872767	-4.6559121932	-2.1773137548	 0.158964
H	 1.5088796514	-4.7967048175	-3.0099689188	 0.14247
H	 1.385601292	-4.7372642622	-1.2198118184	 0.15897
45.3095	78.969	86.684	100.057	134.9764	235.6333	264.0338	320.1111	354.0053	381.3184	527.7723	585.1971	613.7715	817.3736	901.7555	936.013	1015.299	1057.9232	1076.5036	1173.8028	1182.8735	1237.1429	1238.7973	1258.9083	1383.6606	1408.3525	1451.3067	1457.8516	1458.3939	1486.7718	1488.338	1511.8272	1804.3406	1822.2183	2954.4269	2972.489	2975.5669	3020.8611	3049.5083	3110.5055	3123.1394	3162.9542
COCC(=O)C(C)=O	COCC(=O)C(=O)C	
InChI=1S/C5H8O3/c1-4(6)5(7)3-8-2/h3H2,1-2H3	InChI=1S/C5H8O3/c1-4(6)5(7)3-8-2/h3H2,1-2H3
