17
gdb 124278	2.57147	1.55678	0.98134	4.0487	76.93	-0.2389	-0.0342	0.2047	1172.2617	0.136095	-418.063226	-418.054336	-418.053392	-418.097335	31.808	
C	-0.0939521286	 1.5083143564	-0.0612226082	-0.475317
C	 0.0220677603	-0.0032277519	-0.0495434914	 0.318464
O	 1.0993852812	-0.5688001719	-0.077883259	-0.329106
C	-1.2330273739	-0.7819121126	-0.0019049426	 0.178318
N	-2.4232244741	-0.1672209628	 0.0298947567	-0.285532
N	-3.3087056965	-1.1623148328	 0.0678666492	-0.186247
C	-2.7321000627	-2.3960797829	 0.061818604	-0.105087
C	-1.369618747	-2.2014798392	 0.0165135308	 0.139943
C	-0.2961759858	-3.2427400446	-0.0073555671	-0.491685
H	 0.9058088467	 1.9420832813	-0.0981549748	 0.130593
H	-0.6825143617	 1.8392165761	-0.9223438251	 0.144602
H	-0.6253416997	 1.8569867281	 0.8295762998	 0.144609
H	-4.2905829958	-0.9420137901	 0.0974563243	 0.278944
H	-3.323930665	-3.2976857623	 0.089384861	 0.139339
H	 0.3250068353	-3.1501042977	-0.9026579982	 0.144982
H	 0.3806673246	-3.1327515414	 0.8445749704	 0.145
H	-0.7275325173	-4.2476825516	 0.0163103403	 0.108178
61.6745	110.0192	120.9742	178.2573	188.5572	280.9982	293.6333	408.8094	497.9646	542.8284	573.7021	634.6588	674.0961	686.8409	748.9434	790.8859	949.0084	952.0453	1014.2615	1044.1833	1068.7105	1085.6585	1102.5508	1197.8099	1273.5416	1325.3273	1378.1707	1393.0842	1424.4422	1456.6119	1463.6291	1468.4657	1475.9969	1484.6291	1506.5762	1601.505	1769.7503	3044.3212	3049.4207	3107.6246	3113.3098	3116.5498	3156.7461	3259.7168	3662.1566
CC(=O)C1=NNC=C1C	CC(=O)c1n[nH]cc1C	
InChI=1S/C6H8N2O/c1-4-3-7-8-6(4)5(2)9/h3H,1-2H3,(H,7,8)	InChI=1S/C6H8N2O/c1-4-3-7-8-6(4)5(2)9/h3H,1-2H3,(H,7,8)
