19
gdb 109513	1.90532	1.44893	1.0529	2.5125	77.84	-0.2273	0.0291	0.2565	1230.6982	0.15714	-419.196659	-419.186509	-419.185565	-419.231586	36.871	
C	 0.0018174488	 1.2908107239	-0.4807222466	-0.321455
N	-0.1038689834	 0.1348383222	 0.4091491145	-0.289581
C	-1.3328960858	-0.5665045837	 0.3031295994	 0.012052
C	-1.6500130232	-1.614565336	-0.8226365998	-0.314357
C	-0.6279614248	-1.9492262389	-1.759685374	 0.293507
N	 0.2341622129	-2.2077760257	-2.4905218367	-0.358429
C	-1.4886592743	-1.9941124326	 0.6698509431	 0.341377
C	-0.3252871094	-2.8466883289	 1.1208329789	-0.467451
O	-2.6889781242	-2.2522487124	 1.3385579679	-0.453892
H	 0.9707104845	 1.7723704851	-0.326683606	 0.126515
H	-0.1007696169	 1.0416637785	-1.5477167227	 0.123693
H	-0.7774766935	 2.0159204632	-0.2227744648	 0.126263
H	 0.6900802712	-0.4805576569	 0.2806294534	 0.233919
H	-2.1977438634	 0.0481303119	 0.537039954	 0.123861
H	-2.6662191001	-1.6250311997	-1.2003904356	 0.129024
H	 0.5758381327	-2.6754549807	 0.5281111628	 0.143326
H	-0.1038783732	-2.6476526808	 2.173158461	 0.142474
H	-0.5768522258	-3.908402406	 1.0156644723	 0.123702
H	-2.916030262	-3.1794582824	 1.1992230388	 0.285451
77.2849	103.7027	136.6128	166.0609	189.6442	217.5381	250.8918	313.8607	334.6383	385.9899	403.5645	431.616	523.796	564.324	653.991	674.8787	700.1718	818.9732	879.2184	903.2548	997.9135	1023.9199	1036.6151	1086.3942	1093.8897	1154.7226	1159.3539	1179.9262	1268.4497	1283.6242	1314.6008	1353.8313	1420.282	1434.0782	1459.9621	1484.2416	1490.0365	1495.0407	1512.7129	1537.7596	2330.1833	2991.1625	3037.8166	3071.1473	3104.0367	3116.736	3133.8928	3155.8793	3178.4177	3555.4753	3784.2855
CNC1C(C#N)C1(C)O	CN[C@H]1[C@@H](C#N)[C@]1(C)O	
InChI=1S/C6H10N2O/c1-6(9)4(3-7)5(6)8-2/h4-5,8-9H,1-2H3	InChI=1S/C6H10N2O/c1-6(9)4(3-7)5(6)8-2/h4-5,8-9H,1-2H3/t4-,5+,6+/m1/s1
