17
gdb 29358	3.23423	1.23011	0.89722	3.8064	83.2	-0.1955	-0.0367	0.1588	1246.8829	0.136578	-418.065628	-418.056625	-418.05568	-418.099242	32.956	
C	 0.0184944122	 1.5447056411	 0.0766813304	-0.527035
C	 0.0236200331	 0.0487066088	 0.0200333736	 0.162634
C	-0.0067275353	-0.772445289	-1.1118701349	 0.14265
N	 0.028973678	-2.0767841279	-0.6863685948	-0.296975
C	 0.0717739988	-2.1200393721	 0.6727446892	-0.13564
C	 0.0716525957	-0.8121504529	 1.1452184968	 0.170933
N	 0.1891871344	-0.3911150507	 2.4819481155	-0.605696
C	-0.0622820058	-0.4948250846	-2.5251479134	 0.072065
O	-0.0814746172	-1.3630844154	-3.3835895064	-0.330319
H	 0.8616877419	 1.9174881813	 0.67021942	 0.139328
H	 0.0866123647	 1.9924134907	-0.9172042093	 0.133127
H	-0.8968578528	 1.932344759	 0.5439959048	 0.124091
H	 0.018067752	-2.8482404636	-1.3328964191	 0.275961
H	 0.1066037844	-3.0548235321	 1.21019228	 0.121515
H	-0.0515463938	-1.1167531165	 3.1446834334	 0.241326
H	-0.3696610912	 0.4296583432	 2.6801671674	 0.243796
H	-0.0878795792	 0.5802988206	-2.7973682231	 0.068239
102.2084	115.009	178.4701	185.3318	220.3484	243.6028	318.1608	325.8378	381.7144	522.8591	549.5694	632.2344	653.5088	673.2999	722.0199	748.5512	786.5981	811.9395	948.7037	1018.0108	1059.2347	1083.3997	1091.5759	1157.0845	1227.598	1294.5749	1376.917	1400.7822	1418.1158	1467.2555	1480.9973	1482.5162	1498.1104	1563.6446	1620.4107	1657.8657	1744.2239	2915.2045	3013.9654	3062.8102	3120.3753	3255.5806	3531.5264	3620.8797	3668.0976
CC1=C(NC=C1N)C=O	Cc1c([nH]cc1N)C=O	
InChI=1S/C6H8N2O/c1-4-5(7)2-8-6(4)3-9/h2-3,8H,7H2,1H3	InChI=1S/C6H8N2O/c1-4-5(7)2-8-6(4)3-9/h2-3,8H,7H2,1H3
