16
gdb 125450	5.79747	0.94596	0.81739	2.5052	76.27	-0.2109	0.0147	0.2256	1366.8287	0.126313	-430.282866	-430.274174	-430.27323	-430.3178	30.474	
C	-0.1536584438	 1.5184335722	-0.0740210428	-0.494324
C	-0.0842743066	 0.0298371193	-0.0360145422	 0.374904
N	-0.2176504775	-0.7933045082	-1.0630204984	-0.382661
C	-0.0655404746	-2.0255984881	-0.4895342011	 0.448776
N	-0.1513760719	-3.1372765055	-1.3074390774	-0.377404
C	-0.0385817558	-4.4746248516	-0.9975876304	 0.06969
N	 0.177642002	-4.9257669687	 0.1707233704	-0.418592
N	 0.1517918566	-2.0298242952	 0.8153547044	-0.274184
N	 0.1344991857	-0.6901863027	 1.0802577947	-0.230975
H	-0.0728074754	 1.9455983813	 0.9288653544	 0.126605
H	 0.6544877866	 1.9260484368	-0.6888023163	 0.156017
H	-1.0995285928	 1.8447208303	-0.5151557064	 0.157185
H	-0.3233010381	-2.8990889319	-2.2702438735	 0.26218
H	-0.1623982137	-5.0827012791	-1.9029560075	 0.085573
H	 0.2190906006	-5.9425317751	 0.1410397153	 0.2203
H	 0.2766869787	-0.3752615039	 2.0253872568	 0.276911
29.7643	46.8506	154.6254	167.2088	242.325	274.5218	391.5539	421.7618	508.494	512.0803	581.3524	689.4049	726.5267	766.7394	805.5572	842.1021	994.0932	1012.7895	1047.3418	1059.0066	1074.9895	1131.1722	1169.9309	1242.4747	1285.9794	1355.9067	1414.9428	1423.37	1445.7239	1471.5549	1501.126	1547.5504	1601.6417	1614.2796	1737.4166	3032.2927	3048.135	3112.6805	3127.0642	3504.3072	3659.183	3669.0798
CC1=NC(NC=N)=NN1	Cc1nc(NC=N)n[nH]1	
InChI=1S/C4H7N5/c1-3-7-4(6-2-5)9-8-3/h2H,1H3,(H3,5,6,7,8,9)	InChI=1S/C4H7N5/c1-3-7-4(6-2-5)9-8-3/h2H,1H3,(H3,5,6,7,8,9)
