21
gdb 94285	2.8746	1.42071	1.19234	1.5591	82.2	-0.2272	0.0772	0.3043	1133.7882	0.182721	-387.032266	-387.023941	-387.022996	-387.065089	32.542	
C	-0.2374250237	 1.4874736941	 0.0340890234	-0.396678
C	-0.0290260746	-0.025576451	 0.0333323927	-0.067602
C	 1.1761125562	-0.4976862052	-0.844041842	-0.219891
C	 2.0273050686	-0.7130068402	 0.4426160125	-0.314395
C	 0.7279334617	-0.5920606933	 1.2486512089	 0.36658
C	 0.6450976081	-0.3241147859	 2.7322266043	-0.236336
C	-0.8181170451	-0.2842446826	 3.1675024864	-0.092385
O	-1.1000794495	-1.5470123371	 2.5044676706	-0.286712
C	 0.2808966625	-1.683445185	 2.1600487612	 0.018738
H	 0.694318226	 2.0181783062	 0.260468003	 0.111485
H	-0.5852320406	 1.8295254858	-0.9469588514	 0.112814
H	-0.9818935212	 1.793432572	 0.7758675765	 0.116231
H	-0.9761069238	-0.5337980849	-0.1691382664	 0.080641
H	 0.9726437017	-1.433183624	-1.370099826	 0.103544
H	 1.5586208876	 0.2312848553	-1.5630890574	 0.094638
H	 2.5755077915	-1.6560102524	 0.5251567507	 0.099099
H	 2.7273744521	 0.1073475516	 0.6299439782	 0.102006
H	 1.4935364656	-0.0096685392	 3.326532931	 0.093896
H	-0.9518284468	-0.3863659555	 4.2506003594	 0.107825
H	-1.447287795	 0.5314304944	 2.7943391449	 0.106985
H	 0.7307187288	-2.6681397526	 2.2382218494	 0.099516
85.2013	156.7871	165.1136	230.3829	242.0602	301.1643	355.4448	445.6991	525.7888	578.7355	721.0238	773.4277	792.1	829.5482	861.2387	886.332	929.7069	941.1029	953.6118	959.3607	999.201	1007.828	1038.55	1057.2917	1082.573	1087.6776	1138.209	1154.332	1167.3033	1177.1333	1204.6557	1235.1264	1240.3584	1251.4788	1274.9831	1291.2925	1331.4547	1359.7214	1409.9798	1427.9387	1480.	1493.9552	1496.8635	1499.6541	1516.9015	3025.6572	3028.3071	3043.8935	3058.1578	3065.2069	3074.183	3086.9826	3093.8833	3101.0749	3117.4145	3160.5646	3191.5389
CC1CCC11C2COC12	C[C@H]1CC[C@]21[C@H]1CO[C@@H]21	
InChI=1S/C8H12O/c1-5-2-3-8(5)6-4-9-7(6)8/h5-7H,2-4H2,1H3	InChI=1S/C8H12O/c1-5-2-3-8(5)6-4-9-7(6)8/h5-7H,2-4H2,1H3/t5-,6-,7+,8-/m0/s1
