18
gdb 69479	4.49752	0.87185	0.82502	3.5277	74.81	-0.2469	0.0315	0.2784	1397.8392	0.147093	-439.074161	-439.065419	-439.064475	-439.108467	32.576	
O	-0.2843550656	 1.4598056589	-0.1758893072	-0.463733
C	-0.1012904461	 0.0983106415	-0.020821709	 0.400142
C	-0.3145775196	-0.8853296698	-1.1319610058	-0.339707
C	-1.1749382509	-0.9737679076	 0.1135816914	-0.138816
C	-0.3721635919	-1.6662820681	 1.2263435276	 0.066074
C	 0.7110945862	-0.5352021074	 1.1181165076	-0.32571
N	-1.042766049	-1.7418105807	 2.5043910692	-0.291097
C	-1.1493985745	-2.8862870663	 3.2344568963	 0.153214
O	-0.6951714944	-3.9662968022	 2.9232686682	-0.322259
H	 0.3641203681	 1.7855316588	-0.8096601435	 0.287787
H	-0.8307339597	-0.4786478854	-1.9960993207	 0.117386
H	 0.4157511154	-1.6599608816	-1.358340707	 0.109891
H	-2.254918029	-0.9016061313	 0.0684839082	 0.096985
H	-0.0300328965	-2.6771257892	 0.9993890006	 0.121412
H	 1.7405940837	-0.8381517672	 0.9000298317	 0.1001
H	 0.7032013255	 0.0922980325	 2.0129818645	 0.108501
H	-1.4702628195	-0.9051834351	 2.8717575589	 0.24712
H	-1.713310542	-2.7162012297	 4.173564479	 0.072711
32.3846	89.4492	193.5813	212.7547	243.337	344.4052	372.1072	400.3299	436.7574	448.4634	550.0764	623.1659	714.7091	779.8189	849.9211	864.687	893.422	938.7193	987.6908	1008.9481	1027.0045	1032.1301	1047.978	1080.2302	1105.7022	1140.3966	1216.3401	1224.9722	1235.0946	1254.6053	1284.6506	1311.4588	1363.0541	1401.509	1433.1707	1475.1039	1500.4391	1538.0482	1807.1106	2931.1431	3044.869	3099.4661	3105.9337	3116.6046	3188.3557	3201.2889	3619.1227	3795.9582
OC12CC1C(C2)NC=O	O[C@]12C[C@H]1[C@@H](C2)NC=O	
InChI=1S/C6H9NO2/c8-3-7-5-2-6(9)1-4(5)6/h3-5,9H,1-2H2,(H,7,8)	InChI=1S/C6H9NO2/c8-3-7-5-2-6(9)1-4(5)6/h3-5,9H,1-2H2,(H,7,8)/t4-,5+,6-/m0/s1
