19
gdb 91216	2.03864	1.61691	1.54709	1.8941	75.42	-0.2424	-0.027	0.2155	1041.0672	0.157029	-423.022561	-423.013621	-423.012677	-423.056078	33.361	
C	 0.2206943535	 1.5022177126	-0.1796688441	-0.408994
C	 0.0503949454	 0.0174986684	 0.0666597956	 0.115644
O	 0.8006140612	-0.816731145	-0.8535925487	-0.313435
C	 1.3683087269	-1.5923574224	 0.2164893198	 0.067755
C	 2.7827005058	-1.0992460269	 0.6002823088	-0.364476
C	 2.1132427392	-0.1329285394	 1.5996926522	 0.369987
O	 2.5246008995	 0.6804394966	 2.3756653451	-0.307059
C	 0.7008945191	-0.6769820633	 1.3003960631	 0.129811
C	-0.1708301005	-1.0769480772	 2.4686570513	-0.502431
H	 1.2685935541	 1.8061086088	-0.1129213261	 0.131634
H	-0.1507878227	 1.7587826118	-1.1767456302	 0.130302
H	-0.3528719592	 2.0764658948	 0.5555968225	 0.125992
H	-1.0156196789	-0.2500483126	 0.0154090366	 0.079673
H	 1.1934487816	-2.665058169	 0.1123343754	 0.084453
H	 3.3854528578	-1.8492508403	 1.1259443924	 0.132034
H	 3.3763509316	-0.6576852703	-0.2033698773	 0.138214
H	-0.4576956914	-0.1918648637	 3.0468472169	 0.140631
H	-1.0847612862	-1.5747043724	 2.128782932	 0.124055
H	 0.3537903629	-1.7550354407	 3.1493756048	 0.12621
81.2922	121.8273	163.7286	196.9123	220.3941	236.9944	343.7467	373.2788	421.757	493.2669	539.1549	602.9128	668.3618	726.8091	821.5787	858.4471	874.4691	889.3504	967.4539	1004.153	1039.1597	1045.8106	1095.5768	1111.9957	1129.8715	1155.0223	1176.723	1207.8034	1224.3377	1254.3185	1308.7937	1348.7854	1389.8925	1410.1112	1412.2324	1416.9711	1480.3823	1488.2094	1492.6318	1494.8482	1883.5221	2985.7356	3031.3658	3040.2055	3047.9426	3093.2588	3100.1121	3103.3802	3109.6158	3119.5244	3123.9048
CC1OC2CC(=O)C12C	C[C@H]1O[C@H]2CC(=O)[C@@]12C	
InChI=1S/C7H10O2/c1-4-7(2)5(8)3-6(7)9-4/h4,6H,3H2,1-2H3	InChI=1S/C7H10O2/c1-4-7(2)5(8)3-6(7)9-4/h4,6H,3H2,1-2H3/t4-,6+,7-/m1/s1
