15
gdb 13325	5.38357	1.33119	1.08176	2.8706	65.97	-0.2218	-0.01	0.2118	1031.7507	0.119555	-399.824043	-399.816572	-399.815628	-399.856465	26.365	
O	-0.3226658437	 0.0735465448	 0.0526436751	-0.295935
C	-0.0814541182	 1.2579797637	 0.0413515864	 0.149844
N	 1.173109144	 1.8109187784	-0.0051840242	-0.387475
C	 2.3782332172	 1.1109282897	-0.047446533	 0.364421
C	 2.6198709631	-0.2000735955	-0.0523176308	-0.218835
C	 4.1037450268	-0.4167149858	-0.1066627698	-0.099289
O	 4.6874337824	 0.8913444135	-0.1317750117	-0.261032
C	 3.67643017	 1.8787347586	-0.0980237747	-0.156854
H	-0.8640768871	 2.0406760309	 0.0678735281	 0.085735
H	 1.2217566574	 2.8184014896	-0.0088860276	 0.257038
H	 1.8856337774	-0.9882077566	-0.0228552373	 0.139324
H	 4.4846551804	-0.9687748499	 0.7668128367	 0.108291
H	 4.4190770404	-0.9736218306	-1.0029172545	 0.108269
H	 3.7393955588	 2.52436945	-0.9909221549	 0.103256
H	 3.8049991211	 2.5306480393	 0.7831918022	 0.103242
73.6945	101.5212	179.7024	195.787	330.641	332.6028	481.9149	558.1715	573.9796	769.626	831.9965	840.4245	919.8163	936.4982	1002.0083	1013.8819	1029.11	1067.7711	1103.8498	1148.644	1167.8941	1223.7161	1250.3027	1278.7081	1362.9593	1399.6303	1435.4737	1520.8621	1533.6862	1545.7106	1728.8752	1810.7035	2948.0255	2949.9521	2963.7825	2976.5466	2991.4261	3277.9181	3620.5697
O=CNC1=CCOC1	O=CNC1=CCOC1	
InChI=1S/C5H7NO2/c7-4-6-5-1-2-8-3-5/h1,4H,2-3H2,(H,6,7)	InChI=1S/C5H7NO2/c7-4-6-5-1-2-8-3-5/h1,4H,2-3H2,(H,6,7)
