18
gdb 67567	2.90823	2.05197	1.50765	1.5406	74.05	-0.2275	0.0787	0.3062	902.957	0.148632	-401.853433	-401.846718	-401.845774	-401.884005	28.355	
C	-0.0894559499	 1.5092596427	 0.0200119531	-0.501763
C	-0.0298362942	 0.0076518859	 0.0400051799	 0.346802
C	 1.1390772935	-0.7842507759	-0.6471856293	 0.020616
O	 2.070893539	-0.3997008987	 0.4085393731	-0.318205
C	 0.8357520657	-0.7550275728	 1.1173108188	-0.014125
C	 0.6016944989	-1.9893397234	 0.207148668	-0.063156
C	-0.8753831038	-2.1049558495	-0.085838036	-0.053848
C	-1.8298806724	-1.4634253821	 0.8580879438	-0.257355
N	-1.2879054827	-0.6893163046	-0.2743211343	-0.157001
H	 0.9075030964	 1.9185339784	 0.2015709789	 0.136653
H	-0.4564264977	 1.8675014993	-0.9462833532	 0.128758
H	-0.7694279081	 1.8815398109	 0.7935463787	 0.12009
H	 1.4899869568	-0.758343182	-1.6795180794	 0.095151
H	 0.8488341742	-0.6805557566	 2.2048632304	 0.092454
H	 1.2250973528	-2.8719950728	 0.3338106899	 0.085542
H	-1.2264546224	-2.8221528021	-0.8220528112	 0.099287
H	-2.8885209443	-1.6914765768	 0.7753192919	 0.121618
H	-1.4982775618	-1.22233997	 1.864636117	 0.118485
227.2112	238.2977	276.4127	316.6167	382.8344	498.4566	541.599	654.6426	669.1826	695.3599	785.3434	794.0208	807.8369	832.8905	884.7896	894.9438	918.9793	938.0453	992.5149	1006.7955	1054.7353	1068.1958	1093.001	1111.5377	1131.4179	1148.4451	1163.6912	1175.1818	1182.8198	1204.372	1256.3408	1268.604	1315.9076	1330.1901	1372.6436	1408.3305	1490.1106	1491.0357	1505.1901	3040.3712	3104.8599	3108.0929	3113.8349	3117.2846	3129.1335	3145.1897	3155.6449	3199.0522
CC12C3OC1C3C1CN21	C[C@@]12[C@H]3O[C@@H]1[C@H]3[C@H]1CN21	
InChI=1S/C7H9NO/c1-7-5-4(6(7)9-5)3-2-8(3)7/h3-6H,2H2,1H3	InChI=1S/C7H9NO/c1-7-5-4(6(7)9-5)3-2-8(3)7/h3-6H,2H2,1H3/t3-,4-,5-,6+,7+,8?/m1/s1
