15
gdb 34889	2.3051	1.77268	1.22058	3.7448	69.44	-0.2649	0.0114	0.2763	1007.9134	0.112761	-416.740395	-416.732942	-416.731998	-416.772568	28.125	
N	-0.1337299978	-1.192784997	-0.0659005972	-0.329647
C	-0.0778572563	-0.039099128	-0.0181083955	 0.298639
C	 0.0119701683	 1.4109274965	 0.0194528874	-0.302281
C	-0.2335436965	 2.1201307573	 1.3784164036	 0.02465
O	 0.7944829576	 1.719728292	 2.2708691074	-0.222543
C	 1.0884399111	 2.766770762	 1.3318604771	-0.060477
C	 1.4302638403	 2.0729335905	 0.0256734722	 0.351085
C	 2.7067337096	 1.5406375629	-0.4806475116	-0.296072
N	 2.0668377177	 2.7245712881	-1.1008593189	-0.373439
H	-0.6099938071	 1.8474961555	-0.7691484904	 0.134526
H	-1.1834473727	 2.4395767048	 1.7878362643	 0.128235
H	 1.4339791959	 3.7189427678	 1.7132726722	 0.130517
H	 3.6321782791	 1.743586963	 0.049605033	 0.135223
H	 2.6766425696	 0.5918167908	-1.0097483093	 0.139767
H	 1.6167039213	 2.4731389438	-1.9777100044	 0.241818
97.7314	130.9484	185.8163	280.9157	322.7337	387.5168	492.6248	513.7782	567.9443	668.2344	782.5298	843.5049	863.3868	881.8112	891.2305	919.2941	950.3478	983.791	1008.8224	1041.6375	1049.3505	1076.4917	1127.7029	1155.8012	1204.3419	1229.7677	1251.8503	1283.5177	1316.0244	1379.0951	1430.4902	1517.4774	2356.9977	3065.3188	3115.7712	3200.9855	3205.2828	3216.3757	3499.1581
N#CC1C2OC2C11CN1	N#C[C@H]1[C@H]2O[C@H]2[C@]21CN2	
InChI=1S/C6H6N2O/c7-1-3-4-5(9-4)6(3)2-8-6/h3-5,8H,2H2	InChI=1S/C6H6N2O/c7-1-3-4-5(9-4)6(3)2-8-6/h3-5,8H,2H2/t3-,4+,5+,6+/m0/s1
