17
gdb 49183	3.86162	1.32713	1.17526	3.619	79.97	-0.2416	-0.0543	0.1873	1061.5963	0.137657	-384.6768	-384.669985	-384.669041	-384.708107	27.37	
O	-0.0287934996	 0.0034217789	 0.1755171809	-0.278431
C	 0.0256489841	 1.2113931551	 0.0841768739	 0.058458
C	 1.2634434027	 1.9769762442	-0.0310192773	 0.25695
C	 1.3569300689	 3.3204787389	-0.0816023473	-0.170861
C	 2.8085750797	 3.7133758487	-0.0586745708	-0.104998
C	 3.3474461889	 3.3355783988	 1.3867729264	-0.22943
C	 3.7222732762	 1.9652972299	 0.8423872741	-0.064758
C	 3.5773590527	 2.448149571	-0.5816905189	-0.076553
C	 2.6307506006	 1.3864619366	-0.0903223351	-0.151042
H	-0.9001757548	 1.829560695	 0.0708994934	 0.064253
H	 0.5316977149	 4.0182123055	 0.0075614579	 0.113077
H	 3.062340567	 4.7046831105	-0.4283929659	 0.079188
H	 4.2453184453	 3.915955995	 1.6116774001	 0.112431
H	 2.6407898905	 3.4092202125	 2.2200437624	 0.098479
H	 4.4611200888	 1.2958077597	 1.2651433967	 0.094349
H	 4.2389425207	 2.3731801151	-1.43564095	 0.092535
H	 2.7646893633	 0.3521978948	-0.3790769205	 0.106354
104.2158	179.2693	236.5284	364.5752	439.3645	498.8019	570.9245	679.4438	714.2907	763.6862	779.008	795.0236	822.6991	873.7072	878.5467	925.0354	942.8642	976.2171	1004.3298	1019.5413	1038.5608	1056.9184	1063.3895	1090.7523	1131.497	1172.4877	1214.8849	1223.1079	1248.2507	1273.855	1310.6862	1354.6673	1392.2191	1420.9497	1488.3407	1647.7668	1778.6355	2876.1044	3043.8515	3108.096	3133.8975	3183.5608	3192.7049	3199.9868	3211.2789
O=CC1=CC2CC3C2C13	O=CC1=C[C@H]2C[C@@H]3[C@H]2[C@H]13	
InChI=1S/C8H8O/c9-3-5-1-4-2-6-7(4)8(5)6/h1,3-4,6-8H,2H2	InChI=1S/C8H8O/c9-3-5-1-4-2-6-7(4)8(5)6/h1,3-4,6-8H,2H2/t4-,6+,7-,8+/m0/s1
