23
gdb 60539	2.69514	1.21089	0.96202	1.5576	85.39	-0.2442	0.0891	0.3333	1325.0939	0.204526	-388.262821	-388.253084	-388.25214	-388.29719	38.016	
C	-0.2514707968	 1.6382884975	 0.0602778161	-0.417549
C	-0.0393750533	 0.1183371163	 0.0279380622	-0.063034
C	 0.7979312469	-0.2706650568	-1.1851408522	 0.025321
C	 0.6299806341	-1.6130144574	-1.8665815416	-0.289723
C	 0.1748238887	-0.3493946529	-2.5535019179	-0.284739
C	 0.5728508469	-0.4715945469	 1.2998202312	 0.439562
O	 0.5645488684	-1.8797361993	 1.3082035379	-0.474114
C	 1.7352655106	 0.1828106589	 2.0117068532	-0.322896
C	 0.3662367287	 0.1061059607	 2.6643854501	-0.321609
H	 0.6948693785	 2.1783968973	 0.1711081116	 0.116757
H	-0.704914743	 1.9684565717	-0.8787649051	 0.119104
H	-0.9145246694	 1.9419208917	 0.8748924868	 0.117451
H	-1.0236480529	-0.3592431175	-0.0815570435	 0.076238
H	 1.8143577349	 0.1169160845	-1.1539924259	 0.082943
H	 1.5109094999	-2.116827706	-2.2505724785	 0.111232
H	-0.1376484788	-2.2805782616	-1.4895126635	 0.12412
H	-0.8945308025	-0.1802003966	-2.6314890676	 0.113161
H	 0.7433975429	 0.0084511762	-3.4045174151	 0.111403
H	 1.1068323401	-2.1701838656	 0.5664991973	 0.284302
H	 2.5056071037	-0.4790739362	 2.3906571641	 0.111751
H	 2.0892404273	 1.1525123795	 1.6795344284	 0.107727
H	-0.2004461519	 1.0221222414	 2.7790186898	 0.111122
H	 0.236227067	-0.6129655288	 3.4648474623	 0.12147
58.6433	99.3217	163.6842	211.2954	256.3074	285.8682	297.0863	339.2199	357.2182	392.7389	444.706	503.2581	517.1662	696.4668	771.9764	780.895	818.6146	829.6242	887.842	913.8132	930.0552	934.7688	958.9554	979.5352	997.5058	1044.9343	1053.137	1077.852	1079.0592	1092.957	1098.9456	1142.886	1188.3436	1200.8844	1203.482	1224.0485	1240.8836	1282.1932	1310.8909	1350.3981	1381.5124	1411.1927	1416.1178	1451.6056	1469.5762	1499.639	1503.5474	1505.047	1507.7351	3004.2957	3040.7057	3105.5755	3114.9281	3124.6116	3126.8137	3132.248	3135.3277	3145.6547	3205.5648	3220.0584	3220.5429	3236.3733	3800.4938
CC(C1CC1)C1(O)CC1	C[C@@H](C1CC1)C1(O)CC1	
InChI=1S/C8H14O/c1-6(7-2-3-7)8(9)4-5-8/h6-7,9H,2-5H2,1H3	InChI=1S/C8H14O/c1-6(7-2-3-7)8(9)4-5-8/h6-7,9H,2-5H2,1H3/t6-/m0/s1
