19
gdb 6918	3.18163	1.51656	1.34613	3.3598	72.55	-0.2434	0.0273	0.2706	1017.1065	0.164133	-365.083544	-365.074498	-365.073554	-365.117161	32.975	
C	-0.1578319112	 1.4246068971	 0.3482700831	-0.450863
C	 0.0503371327	-0.0495317989	 0.067436306	 0.360598
C	-1.1884588171	-0.7803513362	-0.4120162622	-0.450601
C	 1.3939380115	-0.4969426865	-0.4680062694	-0.372794
C	 0.9969252494	-0.83984785	 0.9465512832	 0.011125
N	 1.6983089805	-0.2112601352	 2.0281539521	-0.282845
C	 1.1048062024	 0.0607863516	 3.2242816743	 0.15167
O	-0.0739134811	-0.0819510468	 3.4653004753	-0.319897
H	 0.7639067631	 1.9061405509	 0.6838912469	 0.108199
H	-0.5004848918	 1.94296544	-0.5542682067	 0.109813
H	-0.9106095724	 1.5617797922	 1.1308524833	 0.138422
H	-1.556236109	-0.3538403359	-1.3523952005	 0.113799
H	-0.9881518399	-1.8425361632	-0.5851145038	 0.109828
H	-1.9911719096	-0.7064504175	 0.3297653162	 0.132115
H	 1.437274877	-1.3034751227	-1.1922552871	 0.11417
H	 2.1582722573	 0.263163422	-0.5989371048	 0.108473
H	 0.7067751383	-1.8694395148	 1.145702136	 0.101042
H	 2.7041718977	-0.1536650709	 1.9806727139	 0.246898
H	 1.8346050224	 0.4469285348	 3.9652443641	 0.070847
56.3821	110.6431	179.9121	202.8216	217.0134	274.6885	302.2104	349.2265	377.8611	438.7733	487.5272	549.1685	696.5813	787.8644	831.3559	873.7103	919.149	976.5414	988.8507	1030.4539	1037.0191	1061.4182	1079.4693	1120.1172	1141.8993	1154.9125	1246.2853	1286.4521	1345.6975	1405.7178	1415.0007	1424.4762	1430.939	1481.7763	1483.8717	1490.779	1503.4892	1503.9194	1512.4424	1809.527	2924.0275	3025.0996	3035.1932	3089.6072	3099.3815	3099.8955	3118.4242	3120.1987	3124.8763	3210.1699	3613.086
CC1(C)CC1NC=O	CC1(C)C[C@H]1NC=O	
InChI=1S/C6H11NO/c1-6(2)3-5(6)7-4-8/h4-5H,3H2,1-2H3,(H,7,8)	InChI=1S/C6H11NO/c1-6(2)3-5(6)7-4-8/h4-5H,3H2,1-2H3,(H,7,8)/t5-/m1/s1
