23
gdb 101670	2.3518	0.92997	0.8384	2.2616	78.62	-0.2577	0.0589	0.3167	1534.418	0.202933	-462.553455	-462.542206	-462.541262	-462.59076	40.57	
C	-0.2356816204	 1.4511691058	-0.0532742009	-0.393378
C	-0.0052688546	-0.0603378338	-0.0373572381	 0.113439
C	 0.9032395074	-0.5232509775	-1.1787734894	-0.063271
O	 2.1898390205	 0.0612973976	-1.1011667785	-0.419207
O	 0.6631990014	-0.4722864813	 1.159254721	-0.313988
C	-0.1391771207	-0.6325754134	 2.3335296059	 0.113437
C	-0.8594110275	-1.9813748167	 2.334964726	-0.393382
C	 0.8374994252	-0.4923904265	 3.5035576782	-0.063267
O	 1.8582254421	-1.4718574523	 3.4609002433	-0.419209
H	 0.7243395557	 1.9720479814	-0.0740245734	 0.135505
H	-0.8045826637	 1.7379875941	-0.9437509466	 0.116257
H	-0.800266716	 1.781961	 0.8228861762	 0.115117
H	-0.9655383812	-0.5889802096	-0.127954713	 0.070082
H	 0.9610634882	-1.6223209807	-1.1589920882	 0.089957
H	 0.4761533703	-0.2227972882	-2.1411222176	 0.106678
H	 2.5051644076	-0.1109817969	-0.2067199219	 0.285819
H	-0.8712681413	 0.1857241458	 2.3984986043	 0.070081
H	-1.5172866541	-2.058252312	 3.206831472	 0.116259
H	-1.4757872826	-2.1100139169	 1.4408909215	 0.115118
H	-0.1282530154	-2.7917105747	 2.3813413091	 0.135504
H	 1.2580326486	 0.5248048407	 3.491090161	 0.089957
H	 0.3066428372	-0.6289358511	 4.4513638261	 0.106677
H	 2.239058393	-1.4187333239	 2.5769939931	 0.285818
24.8788	87.258	93.5961	119.9651	198.6977	225.0582	228.5448	253.7385	281.1745	323.7352	369.8014	413.003	420.2502	443.1506	455.0936	620.3323	674.2605	813.9082	838.9262	899.5494	915.4446	925.1605	984.953	1014.346	1028.8751	1078.6226	1094.122	1139.4952	1140.9203	1149.566	1155.2093	1227.1596	1250.5942	1325.6875	1350.3282	1353.2377	1384.2446	1388.0658	1397.7066	1412.587	1413.0045	1427.5767	1436.1458	1485.6729	1488.8711	1496.4438	1496.6356	1501.523	1501.6353	2985.0048	2986.494	3002.7791	3006.8176	3044.5259	3045.1368	3079.6187	3079.8272	3110.0676	3110.5211	3133.6585	3134.6903	3802.6782	3806.791
CC(CO)OC(C)CO	C[C@@H](CO)O[C@@H](C)CO	
InChI=1S/C6H14O3/c1-5(3-7)9-6(2)4-8/h5-8H,3-4H2,1-2H3	InChI=1S/C6H14O3/c1-5(3-7)9-6(2)4-8/h5-8H,3-4H2,1-2H3/t5-,6-/m0/s1
