20
gdb 60936	3.19715	1.12296	0.9906	2.9726	80.77	-0.2291	-0.0207	0.2084	1264.91	0.169601	-403.076226	-403.067492	-403.066548	-403.110563	32.681	
C	 1.010015199	-0.5694834786	-1.1735910216	-0.4047
C	 0.1517928539	-0.077247459	 0.0039800334	-0.050849
C	-0.0551392986	 1.4245890292	-0.1578722146	 0.166414
O	 0.5891198065	 2.2682638238	 0.4088907587	-0.252783
N	-1.1680867971	-0.7034155321	-0.057737966	-0.116404
C	-2.0056999861	-0.7777657676	 1.215107336	-0.01692
C	-2.8230683147	-1.8726147924	 0.4842632615	-0.208414
C	-1.3193071398	-2.1846734974	 0.2688149787	-0.011852
C	-1.0956057639	-1.906100405	 1.7822864992	-0.238932
H	 1.9733026742	-0.0527327704	-1.1874021816	 0.133784
H	 1.198813311	-1.6433289261	-1.0839989007	 0.123862
H	 0.4959812185	-0.3930237964	-2.1233765127	 0.130433
H	 0.7113706307	-0.2222781618	 0.9389409322	 0.078798
H	-0.8608912927	 1.6819452731	-0.8822541909	 0.082225
H	-2.371549363	 0.1215195733	 1.7134556642	 0.089942
H	-3.3850279693	-2.5687901174	 1.1083667214	 0.097394
H	-3.3670971909	-1.5425556292	-0.400624719	 0.10664
H	-0.8773916405	-2.9603877724	-0.358046992	 0.084967
H	-0.0907877426	-1.6339245223	 2.1041278361	 0.108648
H	-1.5526142244	-2.6037101911	 2.4891572076	 0.097747
48.8344	57.2467	169.0888	204.5937	217.1974	283.8527	401.616	423.2802	443.8998	561.5104	625.891	769.6902	788.3716	808.2115	880.3755	892.0108	899.918	906.212	935.3965	999.6884	1002.7936	1031.1143	1059.5608	1092.2253	1103.9001	1123.7083	1137.6854	1161.7942	1175.8976	1186.6936	1193.9467	1224.1468	1264.0939	1276.1992	1304.9072	1339.831	1392.4098	1405.7683	1481.9794	1490.0571	1498.5481	1527.5523	1836.0069	2881.9483	2998.393	3041.03	3066.6858	3080.0911	3101.4151	3108.8677	3114.2003	3124.8886	3139.5533	3161.2528
CC(C=O)N1C2CC1C2	C[C@@H](C=O)N1[C@H]2C[C@@H]1C2	
InChI=1S/C7H11NO/c1-5(4-9)8-6-2-7(8)3-6/h4-7H,2-3H2,1H3	InChI=1S/C7H11NO/c1-5(4-9)8-6-2-7(8)3-6/h4-7H,2-3H2,1H3/t5-,6-,7+/m0/s1
