20
gdb 109297	3.1233	1.13053	0.86576	4.1845	77.25	-0.2526	0.023	0.2755	1354.8657	0.171425	-440.312531	-440.303527	-440.302583	-440.346356	33.665	
C	 0.0424872242	 1.4895364298	 0.1124547158	-0.40448
C	 0.0151969468	-0.0237131966	-0.0093705994	 0.141944
C	 0.7350790194	-0.5735515533	-1.237591126	-0.231634
C	 0.7572589393	-2.1040894749	-1.1701937796	-0.169943
N	 1.1410572517	-2.600360235	 0.1450072846	-0.338373
C	 1.0711081696	-1.8232213176	 1.1441452061	 0.379129
C	 1.5229691784	-2.3174915462	 2.5005092235	-0.11404
O	 2.033426031	-3.618056344	 2.4293448657	-0.42405
O	 0.6307116153	-0.5475721134	 1.1916272763	-0.268426
H	 1.0732967718	 1.8563870043	 0.1178978535	 0.12878
H	-0.4851745817	 1.9448767295	-0.7308479359	 0.121729
H	-0.4422054943	 1.8091314009	 1.0387707896	 0.131443
H	-1.0259483754	-0.3770141535	-0.0121356934	 0.090658
H	 0.236880199	-0.2251646555	-2.1480819634	 0.106452
H	 1.7597684855	-0.1829452797	-1.2520569646	 0.113259
H	-0.2288122305	-2.5148273656	-1.4265058476	 0.113343
H	 1.4567978297	-2.5116239002	-1.9079169975	 0.114829
H	 2.2765410993	-1.6143176766	 2.8881082802	 0.111702
H	 0.6635627403	-2.2610875282	 3.1879027941	 0.109268
H	 1.9211963805	-3.8747418744	 1.498525168	 0.28841
74.6433	126.1645	164.3222	201.1788	231.9143	260.805	308.8139	400.7834	421.0169	461.0554	504.9985	539.8807	613.3195	697.4827	811.9139	882.6301	900.1391	920.5996	968.9583	1006.4029	1039.4134	1070.9107	1120.0839	1138.3014	1160.2424	1172.259	1218.0292	1241.4746	1254.8783	1266.8581	1326.4427	1337.2776	1374.4608	1384.7397	1400.536	1414.5763	1476.9981	1484.4989	1486.3538	1495.0448	1498.6076	1507.7006	1752.3804	2980.2352	2999.6056	3003.1458	3016.3612	3036.3795	3044.6807	3062.5602	3088.4428	3120.0599	3124.0185	3652.0812
CC1CCN=C(CO)O1	C[C@H]1CCN=C(CO)O1	
InChI=1S/C6H11NO2/c1-5-2-3-7-6(4-8)9-5/h5,8H,2-4H2,1H3	InChI=1S/C6H11NO2/c1-5-2-3-7-6(4-8)9-5/h5,8H,2-4H2,1H3/t5-/m0/s1
