20
gdb 63827	3.03556	1.4883	1.30826	1.7162	77.76	-0.2413	0.0199	0.2612	1059.1192	0.171702	-403.161981	-403.153762	-403.152818	-403.194756	32.078	
C	 0.2427515654	 1.4700436779	 0.0176608349	-0.439945
C	 0.0311779709	-0.0409547819	-0.0063756759	 0.298919
C	-1.4509393396	-0.387287057	-0.1608156632	-0.442128
C	 0.9456239686	-0.8336986103	-1.0125005536	-0.283452
C	 1.5445884188	-1.6523106552	 0.1630406877	-0.008614
N	 2.934514367	-1.3084340265	 0.5004557121	-0.264661
C	 2.8591372379	-0.4892924394	 1.465082122	 0.108602
O	 1.6476824915	-0.1295483701	 1.9680915586	-0.224541
C	 0.6769886691	-0.8429886668	 1.1705636342	 0.046372
H	 1.2940727508	 1.7325492582	 0.158936591	 0.121382
H	-0.0897350096	 1.9096514185	-0.9294628042	 0.113348
H	-0.3292169081	 1.9389567923	 0.8257132456	 0.116492
H	-1.8420861554	 0.0005955406	-1.1077171284	 0.118217
H	-1.6146580625	-1.47086319	-0.1544016866	 0.112847
H	-2.0436331507	 0.0460951948	 0.6528133057	 0.116865
H	 0.3961237225	-1.4216826492	-1.7524115179	 0.099651
H	 1.6932646392	-0.2271400206	-1.528510196	 0.107703
H	 1.421203454	-2.7356178594	 0.1081771176	 0.082803
H	 3.7019531469	-0.022029235	 1.9626920361	 0.140099
H	-0.0134814168	-1.3434581111	 1.8527035101	 0.080039
51.0684	203.8776	220.3845	251.3584	294.7816	310.7667	355.5171	365.0781	498.3547	555.0399	611.3566	747.1224	792.4702	843.7032	868.8391	887.9301	909.7827	942.2912	960.5092	967.6178	971.3879	1009.3842	1036.1938	1042.8194	1100.7947	1131.8342	1195.2576	1216.0623	1228.5106	1262.4502	1277.854	1289.2325	1307.1291	1326.3998	1359.0781	1401.7665	1421.2903	1478.0779	1481.8002	1485.4407	1501.3395	1506.0758	1689.5867	3021.2005	3031.0972	3059.0408	3080.3515	3088.2769	3090.8237	3093.3709	3096.8956	3115.5924	3119.3388	3214.8072
CC1(C)CC2N=COC12	CC1(C)C[C@H]2N=CO[C@@H]12	
InChI=1S/C7H11NO/c1-7(2)3-5-6(7)9-4-8-5/h4-6H,3H2,1-2H3	InChI=1S/C7H11NO/c1-7(2)3-5-6(7)9-4-8-5/h4-6H,3H2,1-2H3/t5-,6-/m1/s1
