20
gdb 111601	3.63687	1.30372	1.24387	2.6647	77.79	-0.2362	0.0785	0.3148	1086.3117	0.174161	-403.087551	-403.080317	-403.079373	-403.119301	29.594	
O	-0.0152388218	 1.4777066951	 0.114767717	-0.42448
C	 0.1360581818	 0.0866085489	-0.1215190833	-0.099855
C	-1.2203965701	-0.590817896	-0.0395889828	 0.063927
C	-1.5002165691	-2.1091895323	-0.0060835108	-0.101686
C	-0.6110543277	-2.5665862535	 1.1645795515	-0.229451
C	-1.3132273335	-1.6443481573	 2.1896159517	-0.001806
C	-2.7259086364	-2.2634751777	 2.2431669664	-0.23633
C	-2.7828251973	-1.6856163747	 0.8313336775	 0.010311
N	-1.9124331789	-0.5136119643	 1.2973853602	-0.183243
H	-0.6033847741	 1.5580335307	 0.8761378937	 0.292684
H	 0.5610940139	-0.0234493331	-1.1259624993	 0.106734
H	 0.8519791317	-0.3527964821	 0.5884109493	 0.084878
H	-1.8870148349	-0.0863888682	-0.7499158425	 0.087114
H	-1.5440649972	-2.7245657572	-0.9056236795	 0.063265
H	-0.7306685108	-3.6229070997	 1.4192544616	 0.098484
H	 0.4511902954	-2.3717735988	 1.0112011058	 0.10277
H	-0.7750206558	-1.3258461916	 3.0805848513	 0.075864
H	-2.8134969057	-3.3403813212	 2.402869548	 0.096621
H	-3.3997515733	-1.7147942699	 2.9040786098	 0.114574
H	-3.7022428262	-1.4576814671	 0.2907475642	 0.079624
83.6263	180.3743	206.0402	352.1932	416.1644	471.0636	504.8624	539.5469	658.1858	707.1794	741.8951	826.1562	844.1046	879.2157	904.0265	922.734	936.0003	964.171	974.0229	990.7232	1020.8179	1040.9834	1055.0616	1068.2421	1098.6216	1121.1705	1135.6752	1185.9734	1191.4871	1212.7677	1220.6166	1233.2143	1253.5099	1263.0445	1285.9801	1304.1243	1334.0997	1348.3	1406.6178	1443.8993	1482.2533	1508.0426	1521.1735	2993.2346	3036.1144	3061.9809	3067.1665	3072.4926	3102.7689	3113.8228	3118.7814	3130.8333	3135.4143	3777.327
OCC1C2CC3CC2N13	OC[C@H]1[C@H]2C[C@@H]3C[C@H]2N13	
InChI=1S/C7H11NO/c9-3-7-5-1-4-2-6(5)8(4)7/h4-7,9H,1-3H2	InChI=1S/C7H11NO/c9-3-7-5-1-4-2-6(5)8(4)7/h4-7,9H,1-3H2/t4-,5+,6-,7+/m1/s1
