20
gdb 14729	6.73307	0.60037	0.57982	0.7711	82.7	-0.2411	0.0436	0.2847	2008.5746	0.174242	-348.974493	-348.964116	-348.963171	-349.011578	34.888	
C	-0.10509905	 1.3372984576	 0.660242216	-0.386145
C	-0.0787661747	-0.0031271666	-0.053696511	-0.015062
O	-1.3798743651	-0.5547993058	-0.0168077781	-0.24056
C	-1.4524561893	-1.8106652898	-0.6650059247	-0.205546
C	-2.8090359304	-2.3366671647	-0.5994583667	-0.020175
C	-3.9250288123	-2.7867048102	-0.5632049428	 0.156796
C	-5.273743344	-3.3376738339	-0.4890253881	-0.316279
C	-5.5159761894	-4.1849994476	 0.7732520025	-0.36449
H	 0.8892462904	 1.79373489	 0.6514401508	 0.113566
H	-0.8056996513	 2.018634934	 0.1695191788	 0.128681
H	-0.4214960264	 1.2112279097	 1.6994232129	 0.128581
H	 0.2538174242	 0.1204016087	-1.0990334384	 0.084419
H	 0.6396438739	-0.6868584549	 0.431148549	 0.084349
H	-1.1379525069	-1.7149960169	-1.7195201035	 0.110574
H	-0.7511576303	-2.523631798	-0.1960609941	 0.110073
H	-6.0001159845	-2.515611232	-0.5249754317	 0.132083
H	-5.4659982351	-3.9453660875	-1.3827552797	 0.128612
H	-6.5388350786	-4.5734170578	 0.7821988655	 0.113184
H	-4.8251694871	-5.0316853811	 0.8112516506	 0.126787
H	-5.3655210432	-3.5869290234	 1.6759494828	 0.130551
26.4403	65.2873	75.9808	109.3992	137.5133	197.2166	242.6097	256.848	298.7674	350.3391	404.7875	500.0926	539.049	760.765	784.2313	822.211	906.8573	964.4446	1028.871	1031.8102	1080.3116	1103.3954	1129.7657	1150.0957	1180.2835	1188.5614	1253.93	1287.0048	1294.277	1351.9705	1378.9351	1405.0508	1409.3731	1448.604	1472.5685	1482.8338	1494.6594	1497.0898	1501.9072	1505.2494	1532.0479	2373.2491	2938.1441	2951.3872	2955.5474	2971.4963	3020.5396	3044.1237	3045.5472	3047.7284	3117.0877	3119.6001	3123.3126	3124.3908
CCOCC#CCC	CCOCC#CCC	
InChI=1S/C7H12O/c1-3-5-6-7-8-4-2/h3-4,7H2,1-2H3	InChI=1S/C7H12O/c1-3-5-6-7-8-4-2/h3-4,7H2,1-2H3
