17
gdb 92880	2.74218	1.40023	1.09439	2.755	78.16	-0.2512	-0.0738	0.1774	1116.7945	0.137192	-421.847615	-421.839555	-421.83861	-421.880567	30.573	
O	 0.1706045832	 1.4732701096	-0.206076572	-0.424935
C	 0.0447143106	 0.0706318672	 0.0179356976	 0.069037
C	-1.4078383001	-0.3482809753	 0.2801503728	-0.283567
C	-2.378707436	-0.1109288904	-0.8428408843	-0.070334
C	-2.2163257442	-0.3516635978	-2.1491376803	-0.149917
C	-1.0679757233	-0.9703367649	-2.8543107227	 0.338738
O	-1.2252544505	-1.3380605023	-4.0098826729	-0.334896
C	 0.275634601	-1.1364620283	-2.2434740741	-0.136704
C	 0.7543179813	-0.6996970338	-1.0729512517	-0.092607
H	-0.2429146284	 1.6654106787	-1.0559589593	 0.285396
H	 0.5932864166	-0.0993022884	 0.9506107169	 0.099207
H	-1.4209751041	-1.4128919814	 0.5556201605	 0.12931
H	-1.7488791852	 0.2011485544	 1.1631801876	 0.120311
H	-3.3460464705	 0.2833111341	-0.5378283575	 0.111319
H	-3.0424186701	-0.1577827069	-2.8278857247	 0.112291
H	 0.9541413669	-1.6336770379	-2.9320320938	 0.114229
H	 1.8150885427	-0.8551760367	-0.887346272	 0.113122
56.4609	119.0366	223.1445	294.8507	322.9439	367.1993	375.8345	423.4389	457.8403	518.7489	672.0286	686.1978	755.3949	789.9027	835.6763	853.6344	897.9926	918.498	953.3151	1032.8031	1041.6009	1066.6266	1100.0138	1199.9296	1222.8542	1250.1007	1286.2275	1311.832	1352.2023	1402.8022	1411.1448	1426.6912	1436.5059	1462.4306	1690.773	1702.4391	1724.6007	3011.9537	3052.3834	3077.2433	3144.5549	3146.53	3173.0824	3176.8586	3793.8419
OC1CC=CC(=O)C=C1	O[C@H]1CC=CC(=O)C=C1	
InChI=1S/C7H8O2/c8-6-2-1-3-7(9)5-4-6/h1-2,4-5,7,9H,3H2	InChI=1S/C7H8O2/c8-6-2-1-3-7(9)5-4-6/h1-2,4-5,7,9H,3H2/t7-/m0/s1
