24
gdb 36981	5.00893	0.64415	0.62722	0.999	90.7	-0.2292	0.0879	0.3172	1891.1785	0.217924	-368.371308	-368.361788	-368.360844	-368.406863	35.515	
C	-0.014538101	 1.4481063727	 0.1260757276	-0.212677
C	 0.0962129274	-0.0757712258	 0.1932638039	-0.14004
N	-1.2216563114	-0.6971512846	 0.2882972719	-0.058028
C	-1.8759888518	-1.0103409571	-0.9779499515	-0.21858
C	-1.3077338513	-2.0918478301	-0.1268416017	-0.221236
C	 1.3388880269	 2.1408367319	 0.0474500428	 0.063828
C	 2.1881492829	 2.0212060823	-1.2539049547	-0.215717
C	 2.5964557348	 3.5083522384	-1.0794205603	-0.210944
C	 1.3855498554	 3.6860088554	-0.1244778148	-0.23579
H	-0.6168279007	 1.7274651614	-0.749395723	 0.089372
H	-0.5670721141	 1.7980741298	 1.006980607	 0.104187
H	 0.6611718719	-0.4489532127	-0.6820464487	 0.078799
H	 0.6660061291	-0.3664127724	 1.0852144233	 0.099156
H	-2.9480573778	-0.839504949	-1.0161369661	 0.114807
H	-1.3435014287	-0.7746682693	-1.8988048875	 0.105875
H	-0.3987800026	-2.5753454166	-0.4827020899	 0.106247
H	-1.9564952472	-2.7260749423	 0.470737186	 0.114598
H	 1.9525684941	 1.8515311807	 0.9102171903	 0.06626
H	 2.9827311217	 1.2713368504	-1.2855614728	 0.092058
H	 1.544858992	 1.8812278719	-2.129797978	 0.093823
H	 3.5478782246	 3.6062296364	-0.5484892153	 0.100235
H	 2.6353903945	 4.1339276867	-1.9743164142	 0.094037
H	 0.5013297261	 4.0489002305	-0.6595195167	 0.096616
H	 1.5212080151	 4.2960769314	 0.7722458825	 0.093115
53.4402	59.5274	99.1707	129.518	173.1395	255.9543	306.9682	372.307	413.185	474.8255	634.3596	754.313	772.7836	789.3791	793.4722	844.8114	895.1403	902.1843	932.8643	940.0019	974.224	987.8653	1002.4029	1035.0417	1048.2803	1092.1721	1112.1231	1116.0502	1121.0198	1157.5399	1177.726	1190.1928	1204.3742	1232.6108	1255.2622	1259.8786	1267.3192	1273.4878	1291.4358	1315.7717	1318.7027	1328.0338	1383.3194	1408.1835	1478.0732	1481.6899	1486.3371	1489.896	1500.0799	1510.4645	1520.6922	2920.4072	3010.7944	3021.1305	3035.6849	3040.3008	3046.6348	3056.3997	3062.2847	3088.4511	3092.6568	3093.6772	3097.1332	3114.3841	3172.9944	3187.2518
C(CN1CC1)C1CCC1	C(CN1CC1)C1CCC1	
InChI=1S/C8H15N/c1-2-8(3-1)4-5-9-6-7-9/h8H,1-7H2	InChI=1S/C8H15N/c1-2-8(3-1)4-5-9-6-7-9/h8H,1-7H2
