20
gdb 101306	2.56668	1.21649	1.01452	2.6221	77.04	-0.256	-0.0051	0.2509	1268.1358	0.169948	-440.284139	-440.274607	-440.273663	-440.318495	34.955	
C	 0.433180585	 1.4023151392	 0.1409489163	-0.384965
C	 0.2522336805	-0.1117642735	 0.0090144912	-0.208256
C	 0.8562867525	-0.6722256111	-1.2872885965	 0.107883
O	 2.2469698594	-0.4230598721	-1.39565997	-0.443621
C	 0.5420260303	-2.157797787	-1.459989937	-0.017417
C	 1.3372776907	-3.0185282661	-2.4059046964	-0.270439
N	 1.4332502504	-3.1833366753	-0.9683485318	-0.051033
C	 2.5569547427	-3.0781307392	-0.1939516953	 0.147166
O	 2.6912163426	-2.3511872984	 0.7713061746	-0.327437
H	 1.4911942167	 1.6744743997	 0.0986504454	 0.128889
H	-0.0776190659	 1.9348319731	-0.6692915205	 0.111598
H	 0.0252944888	 1.7642403351	 1.089162988	 0.113349
H	 0.717794109	-0.6310043561	 0.8547384462	 0.129991
H	-0.8155664963	-0.3640890588	 0.0334135544	 0.09201
H	 0.397750219	-0.1538286508	-2.1417366559	 0.092839
H	 2.6424698038	-0.6795334384	-0.5503980087	 0.301611
H	-0.5125226883	-2.4050245032	-1.3427024609	 0.10684
H	 0.8492477834	-3.8188255799	-2.9552768673	 0.126645
H	 2.1795748187	-2.5386421561	-2.8963930223	 0.147606
H	 3.3323768868	-3.8029996809	-0.5044555835	 0.096744
82.8716	113.4211	145.8613	185.0191	212.7556	218.9079	274.6462	301.8041	326.2644	394.4611	486.9093	595.4557	621.2844	675.4118	775.8992	793.9638	875.0783	913.2629	982.2387	998.1945	1032.8895	1050.2075	1068.5846	1100.0576	1103.4047	1125.4621	1149.3474	1161.3833	1172.7605	1267.2523	1311.5307	1342.389	1375.397	1387.9287	1410.4887	1416.6115	1436.2869	1439.6719	1490.6844	1497.0644	1502.9151	1507.5417	1759.	2965.6927	3009.2057	3027.3728	3036.8913	3073.7823	3104.2597	3111.2022	3118.8741	3121.4769	3209.4711	3737.9173
CCC(O)C1CN1C=O	CC[C@@H](O)[C@H]1CN1C=O	
InChI=1S/C6H11NO2/c1-2-6(9)5-3-7(5)4-8/h4-6,9H,2-3H2,1H3	InChI=1S/C6H11NO2/c1-2-6(9)5-3-7(5)4-8/h4-6,9H,2-3H2,1H3/t5-,6-,7?/m1/s1
