23
gdb 36943	3.97322	0.89636	0.85641	0.954	86.17	-0.2395	0.0842	0.3237	1487.3497	0.206776	-388.284569	-388.275496	-388.274552	-388.320188	34.231	
C	 0.0185760433	 1.0189863442	-0.1876992567	-0.286269
C	 1.2536419218	 0.877172078	 0.6820240291	-0.285257
C	 0.4798938599	-0.3377986911	 0.2857677471	 0.140899
O	-0.2242071321	-0.9747427219	 1.3022671612	-0.270571
C	-1.3966103094	-1.6725079509	 0.8699016585	 0.142009
C	-1.0543554224	-3.048672503	 0.2396971414	-0.223725
C	-1.2116238255	-4.0991013959	 1.3775268478	-0.194108
C	-1.4830049759	-3.2813661064	 2.658259965	-0.191991
C	-2.1886671168	-2.0217667131	 2.1339990207	-0.221136
H	-0.8678337992	 1.4276676774	 0.2843656319	 0.117892
H	 0.1404921112	 1.2792103142	-1.2335075617	 0.110048
H	 2.2301337164	 1.0394076659	 0.2399294096	 0.111278
H	 1.1638416385	 1.1849515745	 1.7174187666	 0.123737
H	 0.9242802223	-1.0014037089	-0.4563977526	 0.081722
H	-1.9560587906	-1.0280883532	 0.1794861034	 0.059729
H	-1.7289182809	-3.2655085694	-0.5942758675	 0.095683
H	-0.0414326181	-3.03530504	-0.1706874121	 0.10459
H	-2.062781115	-4.7550505898	 1.1654491703	 0.095903
H	-0.3343443032	-4.7439974038	 1.4742594299	 0.096423
H	-2.0715883216	-3.8318315039	 3.3973182023	 0.087928
H	-0.5391218588	-2.9927188134	 3.1315479134	 0.112699
H	-2.2019757549	-1.1882567694	 2.8402818309	 0.100845
H	-3.2245828693	-2.2532880402	 1.8571274615	 0.091671
22.5027	57.1143	99.1797	145.8069	217.9465	304.6051	399.7904	447.2675	473.8828	578.3471	712.0626	757.4963	782.837	811.1048	822.535	855.055	868.7346	898.0557	906.6106	935.2524	967.5017	987.4016	1012.3846	1035.9722	1048.5192	1059.0796	1070.9911	1093.0228	1128.7647	1188.3862	1192.5519	1195.1658	1208.5688	1221.8231	1241.3871	1256.8077	1289.4759	1313.8229	1340.1024	1347.928	1356.9222	1372.6077	1415.042	1453.265	1474.4058	1478.5681	1490.4071	1497.4812	1510.6014	3013.7031	3037.167	3041.4719	3052.179	3059.2354	3082.5941	3093.4149	3097.5082	3104.6976	3110.0482	3133.8762	3141.001	3218.5122	3233.6228
C1CC1OC1CCCC1	C1CC1OC1CCCC1	
InChI=1S/C8H14O/c1-2-4-7(3-1)9-8-5-6-8/h7-8H,1-6H2	InChI=1S/C8H14O/c1-2-4-7(3-1)9-8-5-6-8/h7-8H,1-6H2
