19
gdb 91364	2.13771	2.05946	1.4472	2.2356	69.55	-0.2431	0.0604	0.3036	976.1969	0.160684	-460.166834	-460.159019	-460.158075	-460.19885	31.003	
C	-0.0852752708	 1.5588925898	-0.0844097266	-0.406904
C	 0.0140071407	 0.047619897	 0.0301827334	 0.152996
O	 0.6887423786	-0.5163292755	-1.1222922227	-0.296527
C	 1.6052274958	-1.4574449625	-0.5816849489	 0.196954
C	 2.8476542547	-0.7074169785	-0.0681558778	-0.286988
C	 2.282020991	-0.149641575	 1.2787115046	 0.127084
O	 2.3970318431	 1.2447144961	 1.4799952582	-0.430234
C	 0.8076451601	-0.6105456198	 1.1813192476	-0.01398
O	 0.9936785787	-1.9223231503	 0.616164225	-0.257271
H	 0.8963220281	 2.0232793085	-0.1588106121	 0.138925
H	-0.6744015746	 1.8139402625	-0.9703255296	 0.1187
H	-0.5964534514	 1.9711421726	 0.7919717125	 0.11269
H	-1.0000853611	-0.3762156083	 0.0648078929	 0.081604
H	 1.7587692519	-2.2770540887	-1.2837583395	 0.089844
H	 3.694509407	-1.3815925569	 0.0851539186	 0.100747
H	 3.1408243654	 0.0957271722	-0.7472841088	 0.11325
H	 2.7327751606	-0.6906928832	 2.1210003401	 0.0817
H	 3.3271130281	 1.453348709	 1.6076398661	 0.289795
H	 0.2755830644	-0.6746142591	 2.1293504868	 0.087613
107.7977	177.9388	252.0398	260.6172	288.8099	350.396	417.0506	457.9147	524.4778	571.028	631.0977	726.1034	806.8447	831.2407	847.6257	869.5932	923.8421	954.6639	989.7425	1004.9821	1034.2095	1080.3022	1093.4641	1110.4853	1117.3862	1155.8465	1193.8149	1211.6964	1247.3895	1262.288	1318.6191	1328.4366	1333.9521	1365.774	1371.9235	1391.4608	1416.7624	1434.2534	1478.8657	1489.199	1496.711	2993.8718	3007.8952	3047.3773	3063.842	3107.2891	3122.9496	3126.2852	3137.3587	3169.987	3828.6674
CC1OC2CC(O)C1O2	C[C@H]1O[C@H]2C[C@@H](O)[C@@H]1O2	
InChI=1S/C6H10O3/c1-3-6-4(7)2-5(8-3)9-6/h3-7H,2H2,1H3	InChI=1S/C6H10O3/c1-3-6-4(7)2-5(8-3)9-6/h3-7H,2H2,1H3/t3-,4-,5-,6-/m1/s1
