17
gdb 32331	3.07093	1.35035	1.00106	3.7061	71.34	-0.1865	0.0448	0.2313	1167.7982	0.135516	-455.1867	-455.177314	-455.17637	-455.221306	32.784	
C	 0.1953033791	 1.0025863439	 0.615529714	-0.252162
O	-0.4225815213	 0.3300461179	-0.4868943856	-0.269164
C	 0.4065771617	-0.4307445447	-1.231865692	 0.339145
C	 0.6889444748	-1.747235561	-1.1584486373	-0.202314
N	 1.566689803	-2.0241717726	-2.212615166	-0.36054
C	 1.8275604368	-0.8931279605	-2.9651133146	 0.460633
O	 2.5208142897	-0.7837199627	-3.9606304149	-0.44554
N	 1.1007025546	 0.1092045444	-2.3203854587	-0.157547
C	 1.020062233	 1.4609616394	-2.8242926057	-0.347327
H	 0.66356867	 0.2813138985	 1.2946993688	 0.126064
H	 0.9524635531	 1.7189848619	 0.2750475154	 0.125162
H	-0.6010306757	 1.5378842142	 1.1355972559	 0.137548
H	 0.3460604663	-2.4955572574	-0.4671436875	 0.141686
H	 1.935445318	-2.9233954147	-2.4644293225	 0.267589
H	 1.5102377519	 1.4630726927	-3.7995707467	 0.16987
H	-0.0221717125	 1.7736578056	-2.931589398	 0.140131
H	 1.5358377075	 2.1724965352	-2.1694978546	 0.126768
71.053	106.3711	123.8012	147.1849	172.2719	201.0124	264.7827	350.3579	358.3763	477.4611	583.272	593.9402	629.7278	710.5278	747.295	758.2139	794.5183	958.587	1029.5457	1076.7778	1154.6083	1159.9661	1173.847	1196.4571	1229.7297	1288.7853	1339.6076	1387.4706	1413.7708	1462.7177	1481.1019	1489.2037	1497.0511	1503.4029	1514.594	1698.0502	1825.8324	3018.1174	3031.9077	3085.7601	3095.0796	3138.3376	3146.1014	3296.8755	3701.1768
COC1=CNC(=O)N1C	COc1c[nH]c(=O)n1C	
InChI=1S/C5H8N2O2/c1-7-4(9-2)3-6-5(7)8/h3H,1-2H3,(H,6,8)	InChI=1S/C5H8N2O2/c1-7-4(9-2)3-6-5(7)8/h3H,1-2H3,(H,6,8)
