15
gdb 48518	2.77653	1.67952	1.20255	3.141	70.75	-0.2449	-0.0416	0.2033	996.7183	0.112189	-420.603951	-420.596652	-420.595708	-420.635979	27.41	
O	-0.8593406222	 1.3382099528	-0.3207389189	-0.271407
C	 0.2153769564	 0.9250429846	 0.0529740225	 0.042601
C	 1.4282462144	 1.7528887577	 0.1361630972	 0.090875
C	 1.3504637209	 3.3011788246	 0.1991004845	-0.092969
C	 2.6974764036	 3.7874064125	 0.7433749984	-0.247536
C	 3.3396120584	 2.7170298161	-0.1941118325	-0.198132
C	 1.9767540816	 2.7061223595	-0.9963416077	-0.085656
C	 2.8548698075	 1.3865828987	 0.4126911534	 0.383538
O	 3.3984602899	 0.3743190017	 0.753844828	-0.335107
H	 0.3603757897	-0.1326872988	 0.3550432011	 0.102267
H	 0.3630876103	 3.7352759082	 0.2899042477	 0.130212
H	 2.9117261435	 4.8029038009	 0.4020887886	 0.122926
H	 2.8970671844	 3.6987618005	 1.8157352141	 0.116378
H	 4.340659287	 2.8188629168	-0.6022329002	 0.104666
H	 1.7143072747	 2.6238446943	-2.0397251465	 0.137344
104.7474	148.0109	169.6398	221.5365	346.4064	406.5806	578.0801	586.18	669.5944	688.186	785.4995	814.1621	831.895	861.6342	919.0686	938.0806	952.1712	991.149	1002.1644	1057.0397	1070.191	1100.1301	1137.0351	1175.449	1199.8952	1227.5898	1273.5523	1288.7618	1377.7954	1431.0995	1497.0142	1790.4285	1878.2119	2922.8723	3054.1463	3116.5399	3173.2234	3209.6049	3249.8747
O=CC12C3CC(C13)C2=O	O=C[C@]12[C@H]3C[C@H]([C@@H]13)C2=O	
InChI=1S/C7H6O2/c8-2-7-4-1-3(5(4)7)6(7)9/h2-5H,1H2	InChI=1S/C7H6O2/c8-2-7-4-1-3(5(4)7)6(7)9/h2-5H,1H2/t3-,4+,5-,7+/m1/s1
