21
gdb 113472	2.64756	1.33416	1.11551	1.2301	83.12	-0.2355	0.0738	0.3093	1189.3272	0.182672	-387.03753	-387.028871	-387.027927	-387.070897	33.728	
O	 0.1362464954	 0.3304864439	 1.0884704068	-0.418488
C	-0.1960049577	 0.0873994969	-0.2765547042	-0.099575
C	-1.5347586051	-0.5953321458	-0.3116843249	-0.050552
C	-1.8524865006	-1.6056877672	-1.3969036058	-0.399168
C	-1.6239709885	-2.0599135277	 0.0115974373	 0.401387
C	-0.4952464068	-2.997762085	 0.5008180685	-0.318514
C	-1.5090431653	-3.6434711617	 1.4592714192	-0.041099
C	-2.1255140312	-2.6043497206	 2.3553366104	-0.279807
C	-2.6209448511	-2.729202249	 0.9380140876	-0.139099
H	 0.9532543202	 0.838035492	 1.1128105454	 0.284425
H	-0.2313879221	 1.0304727381	-0.8446921871	 0.086605
H	 0.5588424509	-0.5552751269	-0.7573737035	 0.081715
H	-2.3598975565	 0.0222301308	 0.0346026153	 0.085813
H	-2.8635479945	-1.6243101659	-1.7916705666	 0.109899
H	-1.0854166718	-1.8238236418	-2.1352439703	 0.10555
H	-0.1564311942	-3.6817339052	-0.2826601932	 0.097183
H	 0.3735481396	-2.5228139459	 0.9679376677	 0.104625
H	-1.5595598549	-4.7000603312	 1.691210444	 0.081532
H	-2.7937264524	-2.9886301705	 3.119848796	 0.102893
H	-1.5545387294	-1.7258392264	 2.6468218058	 0.124951
H	-3.6499652242	-2.9684191311	 0.6957349418	 0.07972
76.7039	107.2951	176.2564	185.492	273.365	320.1612	368.4638	422.1801	463.9296	504.7641	571.0619	751.6047	786.2086	798.735	820.6069	888.9745	901.3009	930.7698	962.2316	972.1125	982.6852	1011.7191	1038.6756	1051.7276	1061.3004	1066.7734	1082.692	1093.6419	1113.8099	1154.1401	1167.3544	1199.0148	1216.353	1245.3199	1257.2358	1276.2282	1292.5129	1319.2023	1358.0903	1419.5909	1464.7698	1479.2085	1491.5936	1501.8609	1517.2906	2966.098	2993.8221	3042.8325	3094.136	3109.0675	3113.7042	3138.6777	3172.8674	3185.3311	3197.9631	3202.7911	3821.48
OCC1CC11CC2CC12	OC[C@H]1C[C@]21C[C@H]1C[C@@H]21	
InChI=1S/C8H12O/c9-4-6-3-8(6)2-5-1-7(5)8/h5-7,9H,1-4H2	InChI=1S/C8H12O/c9-4-6-3-8(6)2-5-1-7(5)8/h5-7,9H,1-4H2/t5-,6-,7-,8+/m1/s1
