14
gdb 21726	5.05119	1.41704	1.14275	3.9703	59.45	-0.2262	0.0286	0.2548	991.7151	0.109773	-412.054483	-412.047208	-412.046264	-412.086193	26.789	
N	-0.0413625489	 1.5499285893	-0.0141730215	-0.526592
H	-0.4726435309	 1.3774090429	-0.9165163133	 0.238287
H	 1.8951076492	 0.7230615726	 1.6027810777	 0.283789
H	-0.0276607228	 2.5584696605	 0.1097360857	 0.238331
C	-0.8467513902	 0.9300017333	 1.0489362719	-0.274298
C	-0.0926198058	 0.9660613047	 2.3371478749	 0.379195
N	-0.5743005001	 1.1257013464	 3.5385636675	-0.279475
N	 0.4919696894	 1.0541523375	 4.4341921113	-0.329722
C	 1.5621168144	 0.8637814234	 3.7156391033	 0.456917
O	 2.8236373796	 0.7492495745	 4.1501599285	-0.423494
N	 1.2722777562	 0.7907299951	 2.3906606154	-0.337508
H	-1.8315726261	 1.3834432925	 1.226211583	 0.127295
H	-1.0243439163	-0.1130592478	 0.7556376279	 0.127532
H	 2.7895371626	 0.840491025	 5.1116174578	 0.319744
84.7583	150.4921	226.2799	291.0213	366.422	408.3476	430.4789	493.6125	566.8149	642.0333	701.3077	736.6588	764.414	875.2486	991.737	1028.5637	1030.8058	1048.2434	1100.8359	1170.3943	1185.776	1238.203	1302.3948	1410.601	1426.5955	1498.675	1554.1244	1591.7862	1627.0155	1660.7203	3009.3943	3042.4632	3493.5586	3575.1908	3666.6982	3793.2236
[NH3+]CC1=N[N-]C(O)=N1	NCc1nnc(O)[nH]1	
InChI=1S/C3H5N4O/c4-1-2-5-3(8)7-6-2/h1,4H2,(H-,5,6,7,8)/q-1/p+1	InChI=1S/C3H6N4O/c4-1-2-5-3(8)7-6-2/h1,4H2,(H2,5,6,7,8)
