21
gdb 98677	3.25789	0.90933	0.86168	3.4633	81.56	-0.2614	-0.0242	0.2372	1461.2673	0.180028	-424.243272	-424.233233	-424.232289	-424.278201	37.317	
C	-0.1976774546	 1.5512613027	 0.0758002111	-0.466399
C	 0.0001426533	 0.0485786189	 0.0427354088	 0.337844
C	-1.2157660992	-0.7297257811	-0.4264889714	-0.445048
C	 1.34782881	-0.5041562191	-0.2786179644	-0.320298
C	 0.8318831304	-0.644841625	 1.1476314889	-0.160175
C	 1.4813905951	 0.1201199389	 2.231299978	 0.358987
O	 2.1291298607	 1.1403704498	 2.063683165	-0.357838
C	 1.324276941	-0.4137163401	 3.6512573158	-0.135188
O	 1.9693352235	 0.4064868436	 4.5758752217	-0.422411
H	 0.6848241116	 2.0685739262	 0.4530730027	 0.155449
H	-0.4086428649	 1.916746016	-0.9356688694	 0.116705
H	-1.0515228334	 1.820715021	 0.707919565	 0.114806
H	-1.4955007577	-0.4228260437	-1.4408924626	 0.123988
H	-1.0271798883	-1.8074578857	-0.4437138608	 0.115285
H	-2.0780341955	-0.5462157817	 0.2241640753	 0.12212
H	 1.4219847115	-1.4123397989	-0.8672469686	 0.116381
H	 2.1667987513	 0.1969292207	-0.399204093	 0.13753
H	 0.4615805047	-1.6201573128	 1.4487516507	 0.088073
H	 0.2457591408	-0.4987016129	 3.8686221628	 0.114072
H	 1.7231563055	-1.4425873205	 3.6750789604	 0.113354
H	 2.3661791942	 1.1134595336	 4.0398783938	 0.292764
58.6027	107.5327	139.4342	182.3433	212.2855	251.6091	282.9471	317.4309	360.141	380.0282	404.375	429.6311	464.342	575.2388	685.794	701.9923	803.9079	849.732	923.6177	942.3987	966.1546	978.351	1026.8535	1048.6763	1066.1899	1079.0576	1121.3706	1129.0415	1147.3447	1162.7478	1241.6369	1286.5686	1309.9538	1337.9864	1410.8708	1418.023	1427.5402	1456.8282	1478.5494	1484.7833	1490.538	1493.921	1510.5286	1512.4783	1763.339	2963.0859	2977.9124	3025.6578	3032.5804	3085.3022	3089.7829	3103.4339	3132.0082	3147.9515	3153.1114	3224.9833	3664.4476
CC1(C)CC1C(=O)CO	CC1(C)C[C@H]1C(=O)CO	
InChI=1S/C7H12O2/c1-7(2)3-5(7)6(9)4-8/h5,8H,3-4H2,1-2H3	InChI=1S/C7H12O2/c1-7(2)3-5(7)6(9)4-8/h5,8H,3-4H2,1-2H3/t5-/m0/s1
