20
gdb 86365	2.24867	1.32722	0.94245	2.6077	77.73	-0.2512	0.0189	0.2701	1293.4828	0.169755	-440.271967	-440.26235	-440.261405	-440.307129	35.034	
C	-0.0377131214	 1.5652453768	-0.1446787869	-0.408677
C	 0.058435283	 0.0509363028	-0.0413333147	 0.005165
C	 1.1240185896	-0.7096395187	-0.8863843737	-0.290427
C	 1.3403332782	-1.6589750223	 0.3240396047	 0.148738
O	 2.6216043136	-2.1021592679	 0.6649842209	-0.435132
C	 0.6712021869	-0.5823854389	 1.235437478	 0.054615
O	 1.672244172	 0.2825233489	 1.7706421305	-0.208594
C	 2.1724686599	-0.036770014	 2.9836475539	 0.128028
N	 3.2096328911	 0.5449368592	 3.4052732317	-0.446932
H	 0.9268107976	 2.0335135548	 0.0657261336	 0.138391
H	-0.3521590297	 1.8598668497	-1.1512965607	 0.116274
H	-0.7680679555	 1.9681734339	 0.5651091714	 0.116262
H	-0.9271015256	-0.400621292	-0.1988144973	 0.08142
H	 0.815549686	-1.1525534144	-1.8355203126	 0.102906
H	 2.0086595228	-0.0870405189	-1.0551708634	 0.10907
H	 0.7095112741	-2.5497514345	 0.2519048447	 0.094319
H	 3.1813328948	-1.3228671635	 0.7662967249	 0.296865
H	-0.0040607227	-0.9117422384	 2.0331919633	 0.073098
H	 1.5830407368	-0.796948261	 3.5128082826	 0.093382
H	 3.4320815483	 0.2202256985	 4.3439444992	 0.231228
50.1888	90.6942	98.8684	158.3537	208.3321	234.0141	283.3454	357.8881	396.7521	441.0035	464.0117	591.854	596.6183	685.5637	766.7933	824.3126	877.5373	899.2762	938.9567	971.7413	982.5106	1043.9616	1062.3263	1080.3733	1102.1419	1154.7055	1160.2577	1176.6141	1215.4686	1250.4159	1263.1903	1282.6107	1306.1381	1324.96	1365.9256	1369.1327	1411.9193	1423.0982	1438.492	1483.0468	1493.4741	1500.6589	1741.7738	3029.5864	3036.6508	3040.3316	3050.5571	3056.5027	3074.9881	3098.6456	3118.4665	3126.5388	3519.254	3793.0036
CC1CC(O)C1OC=N	C[C@H]1C[C@@H](O)[C@H]1O[CH][NH]	
InChI=1S/C6H11NO2/c1-4-2-5(8)6(4)9-3-7/h3-8H,2H2,1H3	InChI=1S/C6H11NO2/c1-4-2-5(8)6(4)9-3-7/h3-8H,2H2,1H3/t4-,5+,6-/m0/s1
