20
gdb 55651	3.05736	0.98648	0.90243	2.8953	76.92	-0.2501	-0.0384	0.2116	1378.4799	0.166437	-440.334997	-440.32391	-440.322966	-440.371964	38.685	
C	 0.0097744648	 1.5581795556	-0.0718447163	-0.484409
C	-0.0201069301	 0.0471718576	 0.1134995488	 0.418902
O	-0.0727208112	-0.4674455134	 1.216661501	-0.376016
N	 0.0344825233	-0.673214748	-1.0484920721	-0.362566
C	 0.124346143	-2.1378759392	-1.1243956686	 0.187026
C	 1.4179582762	-2.6714810879	-0.4974090815	-0.408246
C	-1.1252502119	-2.7916301938	-0.4834230023	-0.414454
C	 0.0501487384	-2.4916733117	-2.6106169343	 0.129574
O	 0.6149173444	-3.4163386937	-3.1271603627	-0.241141
H	 1.027696728	 1.9203823605	 0.105442415	 0.152958
H	-0.3043499762	 1.8817324996	-1.0679178285	 0.116908
H	-0.6389095182	 2.0120431099	 0.6788746564	 0.155683
H	 0.1502109562	-0.1559392752	-1.9059316156	 0.240291
H	 1.4226619631	-2.4563904499	 0.5718765938	 0.150524
H	 1.4919294223	-3.7490618062	-0.6575353766	 0.132603
H	 2.2910834001	-2.20089839	-0.9584785412	 0.112512
H	-2.0408175322	-2.459036284	-0.9831745818	 0.114395
H	-1.0566940129	-3.8796358375	-0.5649742224	 0.12948
H	-1.1781322465	-2.5057300426	 0.5671439262	 0.169633
H	-0.6306400105	-1.8274139601	-3.1982697674	 0.076342
45.4687	65.7461	73.2287	110.4786	170.7552	214.0083	251.3439	269.132	309.2537	322.4203	358.3009	379.2404	424.9884	436.9368	561.7857	632.324	692.4257	777.5916	882.3581	927.818	959.2982	968.9648	1014.4191	1047.386	1049.8166	1053.1364	1186.007	1219.0815	1255.1139	1288.7652	1386.9287	1393.5951	1399.0909	1422.7496	1467.3657	1475.0464	1487.3955	1490.4682	1493.8623	1514.5486	1538.3303	1775.5783	1846.653	2830.3089	3044.5719	3047.5415	3055.5756	3115.6841	3116.6185	3128.4418	3147.7419	3154.7947	3158.7465	3618.1199
CC(=O)NC(C)(C)C=O	CC(=O)NC(C)(C)C=O	
InChI=1S/C6H11NO2/c1-5(9)7-6(2,3)4-8/h4H,1-3H3,(H,7,9)	InChI=1S/C6H11NO2/c1-5(9)7-6(2,3)4-8/h4H,1-3H3,(H,7,9)
