14
gdb 32044	2.9144	1.47435	0.98517	3.4978	71.71	-0.2282	-0.0689	0.1593	1118.7021	0.100502	-473.862391	-473.85458	-473.853636	-473.895196	28.065	
C	 0.0185250466	 1.4387245926	-0.0506244953	-0.250739
O	 0.0179116175	 0.0024617825	-0.0312207517	-0.243772
C	 0.5915901245	-0.6466228907	-1.0334301479	 0.468698
C	 0.6379806332	-2.0129238752	-1.0972961875	-0.185797
N	 1.2390813683	-2.6233066978	-2.1484916271	-0.187747
C	 1.7729245003	-1.9136670959	-3.0984157742	-0.137686
C	 1.7798225514	-0.4654376242	-3.1295221977	 0.379627
O	 2.2324168437	 0.2916057268	-3.9365963492	-0.318034
O	 1.1265662196	 0.1097866731	-1.9859801884	-0.248633
H	 1.0396461752	 1.8276632542	-0.0488760442	 0.153276
H	-0.5108619644	 1.8164329459	-0.9287211681	 0.153275
H	-0.5004927827	 1.7340408945	 0.8602347927	 0.150849
H	 0.1992108396	-2.6178766433	-0.3162465826	 0.128731
H	 2.2512838969	-2.4130469728	-3.9347188288	 0.137954
91.0962	144.6904	155.9867	202.3167	213.206	428.1162	466.1285	491.4304	501.5266	607.4041	706.0762	713.2267	760.5111	824.204	845.8681	891.1367	1000.1339	1010.9172	1097.8129	1173.6139	1177.7046	1210.5006	1325.3743	1385.8015	1424.1127	1475.4006	1487.4731	1495.9854	1532.9676	1641.7149	1863.8402	3054.2532	3131.8512	3169.2497	3186.1383	3227.3748
COC1=CN=CC(=O)O1	COc1cncc(=O)o1	
InChI=1S/C5H5NO3/c1-8-5-3-6-2-4(7)9-5/h2-3H,1H3	InChI=1S/C5H5NO3/c1-8-5-3-6-2-4(7)9-5/h2-3H,1H3
