15
gdb 60755	4.70472	0.85205	0.72795	4.5814	68.59	-0.2793	-0.0512	0.2281	1440.2366	0.110894	-454.00456	-453.995223	-453.994279	-454.039786	31.692	
C	-0.0177129054	 1.4807709719	-0.0074982798	-0.361167
N	-0.0080758199	 0.0181051034	 0.0014364261	-0.160547
C	-0.0039628778	-0.6318905789	 1.2467045126	 0.176327
O	-0.0083031082	-0.0433973963	 2.2977870546	-0.304045
C	-0.0020721275	-0.7659508173	-1.1560782322	 0.459097
O	 0.0058950142	-1.9719923336	-1.1341522772	-0.310601
C	-0.0060590209	 0.0292311984	-2.4711508644	-0.505612
C	 0.0016144519	-0.8422872588	-3.6399823738	 0.300807
N	 0.0074541979	-1.4931378493	-4.592717778	-0.285433
H	 0.8732271157	 1.8836868768	-0.4968630622	 0.143861
H	-0.9113382182	 1.8718045045	-0.5014965096	 0.143814
H	-0.0224414763	 1.7977813274	 1.0348238212	 0.185684
H	 0.0035285642	-1.7225419091	 1.1358617301	 0.152025
H	-0.8868508819	 0.680370358	-2.5112567531	 0.182913
H	 0.8654592724	 0.6928736528	-2.5089909141	 0.182879
40.6579	75.3239	126.6495	160.6628	188.8025	256.9058	317.5442	337.9151	380.1275	394.0187	436.8993	550.1254	566.0358	755.6473	841.8126	942.4847	952.3505	1002.0655	1057.7211	1107.1011	1151.8043	1225.976	1270.8571	1300.8485	1363.6631	1416.2595	1438.0522	1453.8633	1503.4551	1511.3007	1800.4636	1822.6274	2382.2043	3045.7131	3050.6284	3085.1108	3085.7902	3113.5451	3163.6637
CN(C=O)C(=O)CC#N	CN(C=O)C(=O)CC#N	
InChI=1S/C5H6N2O2/c1-7(4-8)5(9)2-3-6/h4H,2H2,1H3	InChI=1S/C5H6N2O2/c1-7(4-8)5(9)2-3-6/h4H,2H2,1H3
