19
gdb 105652	2.10201	1.41435	1.22114	1.9179	77.99	-0.2512	0.028	0.2792	1165.6552	0.155679	-422.960085	-422.950202	-422.949257	-422.994876	35.808	
C	-0.010821838	 1.4287299616	 0.066533624	-0.256049
O	-0.1377518075	 0.0271459009	-0.0935263384	-0.27271
C	 0.5940894363	-0.521957795	-1.166500105	 0.147001
C	 2.1193550402	-0.6814096366	-0.8899336722	-0.117569
O	 1.9856250855	-2.0970541729	-0.6975914204	-0.289663
C	 0.5922068227	-2.0848581234	-1.0845787828	 0.1101
C	-0.3109419264	-2.7566549613	-0.0750176453	-0.398788
C	 0.2199961897	 0.0501624265	-2.4555880605	 0.31377
C	-0.0853201154	 0.5092205241	-3.524267443	-0.484982
H	 1.0327888116	 1.7282446396	 0.2401859764	 0.109105
H	-0.3911805497	 1.9715009352	-0.8076984453	 0.125839
H	-0.6033967939	 1.6943132535	 0.9442897714	 0.132563
H	 2.770692515	-0.4313559465	-1.7352873916	 0.10649
H	 2.4673521527	-0.1703269967	 0.0150098672	 0.10839
H	 0.4682982943	-2.5323817235	-2.07900053	 0.081946
H	-0.2336057444	-2.2735869958	 0.8997592924	 0.134987
H	-1.352880902	-2.7157881816	-0.4073627543	 0.123115
H	-0.0198819246	-3.8073967478	 0.021247596	 0.124223
H	-0.3567485663	 0.9128825997	-4.4686962584	 0.202235
61.0865	117.9602	146.1394	166.3472	180.2489	205.4227	224.0299	309.2349	372.6118	407.6054	482.3247	527.7065	567.9599	631.9645	635.0106	667.3721	784.8626	882.2118	894.5187	997.655	1029.1234	1034.6582	1086.7731	1097.794	1128.0338	1159.2096	1182.6933	1187.4258	1208.9829	1230.2182	1296.9691	1355.4369	1382.0743	1404.1	1476.1649	1481.2453	1487.2521	1489.0534	1505.6613	1511.256	2228.1956	2997.4323	3018.2169	3025.7402	3046.6228	3060.1607	3074.1012	3113.3464	3127.38	3148.7271	3498.7318
COC1(COC1C)C#C	CO[C@]1(CO[C@H]1C)C#C	
InChI=1S/C7H10O2/c1-4-7(8-3)5-9-6(7)2/h1,6H,5H2,2-3H3	InChI=1S/C7H10O2/c1-4-7(8-3)5-9-6(7)2/h1,6H,5H2,2-3H3/t6-,7-/m0/s1
