20
gdb 55121	2.65482	1.45068	1.11485	3.4747	80.87	-0.2252	0.031	0.2562	1166.4249	0.169543	-403.152956	-403.143588	-403.142644	-403.187455	34.393	
C	-0.103788937	 1.4376545879	-0.1584487882	-0.487186
C	-0.0168967284	-0.0757198035	-0.0337895306	 0.361129
O	 1.0237464948	-0.6955957431	-0.1722655578	-0.370092
N	-1.1905149568	-0.7001558506	 0.2825306639	-0.110667
C	-2.6032033372	-0.3023807626	 0.1191696624	-0.193474
C	-2.9585004676	-1.7850504978	-0.0465117786	-0.142823
C	-2.1347849433	-2.3934597845	-1.1597479441	-0.314696
C	-1.484660777	-2.1296214324	 0.1708230571	 0.375659
C	-0.7831627123	-3.1384090685	 1.0273502978	-0.488834
H	 0.8997002791	 1.8521276212	-0.0610587568	 0.147258
H	-0.4964320023	 1.7105783667	-1.1446995985	 0.13855
H	-0.7629777312	 1.8776472112	 0.5953126632	 0.129644
H	-3.016116304	 0.1534698199	 1.0257087058	 0.117234
H	-2.8077251021	 0.3493245271	-0.7387010269	 0.111338
H	-3.8365666651	-2.2614036079	 0.3669179415	 0.101642
H	-2.3530400032	-3.4364311961	-1.367789604	 0.118716
H	-1.8624053122	-1.8059052229	-2.0327378016	 0.112303
H	 0.2669694895	-3.2120787011	 0.7330362079	 0.158014
H	-0.8223682278	-2.8511741001	 2.0831646256	 0.120874
H	-1.2490824859	-4.122314883	 0.9178913118	 0.115411
70.6793	79.6737	108.0833	164.3196	209.3219	251.7898	288.0115	393.4262	420.6236	459.5195	518.1483	604.3618	640.8842	686.5958	787.1261	830.2401	876.7817	944.6372	949.2243	973.4643	998.9381	1042.9355	1048.6913	1072.2184	1080.8435	1111.3254	1122.6117	1160.707	1189.3519	1237.956	1273.6061	1324.6729	1378.1395	1382.6215	1417.207	1428.7066	1470.4429	1475.9329	1482.6867	1486.4154	1505.8168	1513.5312	1764.129	3022.7363	3039.2946	3040.8774	3069.3882	3105.317	3107.2618	3112.7091	3124.6302	3156.2779	3201.9028	3213.8577
CC(=O)N1CC2CC12C	CC(=O)N1C[C@H]2C[C@@]12C	
InChI=1S/C7H11NO/c1-5(9)8-4-6-3-7(6,8)2/h6H,3-4H2,1-2H3	InChI=1S/C7H11NO/c1-5(9)8-4-6-3-7(6,8)2/h6H,3-4H2,1-2H3/t6-,7-/m1/s1
