14
gdb 124222	5.1393	0.81719	0.76213	2.3622	72.94	-0.2533	-0.0741	0.1793	1430.1415	0.09767	-470.013095	-470.003846	-470.002902	-470.048581	31.358	
C	-0.3771175007	 1.0137475412	 0.020829631	-0.479616
C	 0.7631275611	 0.0639812436	 0.2594351717	 0.37963
N	 1.7006791624	 0.1247993265	 1.0964789855	-0.4338
O	 0.8476984231	-0.9919406695	-0.6541760456	-0.250575
C	-0.1871617531	-1.8753180436	-0.7667825556	 0.465634
C	 0.1351276657	-2.8326262716	-1.8113063219	-0.25362
N	-0.7319730516	-3.7779398926	-2.0550132084	 0.307019
N	-1.4934591496	-4.5877823458	-2.2525512829	-0.19877
O	-1.191187062	-1.8626602561	-0.0966263483	-0.39635
H	-0.2887364162	 1.8860517726	 0.6708935803	 0.128599
H	-0.3764924418	 1.3439517321	-1.0231925707	 0.144606
H	-1.3265332217	 0.5090656004	 0.2106632658	 0.182188
H	 1.605683942	 0.9615964448	 1.671295323	 0.231868
H	 1.0482388622	-2.8367868119	-2.3848226739	 0.173187
41.4837	60.3886	114.6057	128.1177	159.7523	233.879	318.3092	420.1671	485.5762	498.8159	513.8114	570.9925	571.8619	736.0622	755.723	849.9106	908.7827	997.5736	1007.4251	1071.1241	1079.1738	1171.8196	1203.0062	1319.8882	1400.8873	1415.6491	1468.7576	1489.8022	1764.7872	1791.08	2242.8001	3050.6224	3124.1959	3150.5146	3258.3209	3496.3774
CC(=N)OC1=CN=NO1	C[C]([NH])OC(=O)[CH][N][N]	
InChI=1S/C4H5N3O2/c1-3(5)8-4-2-6-7-9-4/h2,5H,1H3	InChI=1S/C4H5N3O2/c1-3(5)9-4(8)2-7-6/h2,5H,1H3
