16
gdb 47190	2.1844	1.77041	1.06344	5.7946	72.56	-0.245	-0.0657	0.1793	1088.5005	0.125645	-437.940912	-437.933018	-437.932074	-437.973904	29.477	
O	-0.3060871539	-0.0293348135	 0.3015180123	-0.349686
C	-0.0381965267	 1.1069307808	-0.0299976829	 0.371871
C	-1.0455744981	 2.0191768209	-0.7291325522	-0.41918
C	-1.4844865642	 3.2165326956	 0.1137737688	 0.361831
O	-2.6493007194	 3.3725214667	 0.4135558542	-0.306023
C	-0.4723466874	 4.2287355747	 0.5042664112	-0.130278
C	 0.8527381361	 4.1497768567	 0.3469890172	-0.04579
C	 1.6447702556	 2.9819405522	-0.1964912252	-0.238238
N	 1.1869639049	 1.664929352	 0.207844085	-0.288883
H	-0.6052982874	 2.3967064643	-1.6618021209	 0.130425
H	-1.9269561315	 1.4251201863	-0.9627272008	 0.152431
H	-0.9108130499	 5.1198988585	 0.9441318521	 0.116834
H	 1.4522025793	 5.0132835416	 0.62697661	 0.118464
H	 1.6946526609	 3.0643582864	-1.295608038	 0.138101
H	 2.677620139	 3.0739769407	 0.1476652175	 0.132652
H	 1.8413794528	 1.0521205863	 0.6694257515	 0.255469
57.9051	103.3888	197.6857	285.717	320.486	386.4478	444.7468	475.9674	516.7531	578.6999	600.1297	668.6569	711.1813	816.4606	834.9477	874.9548	928.8065	975.0787	987.4608	1030.1329	1118.2448	1151.6765	1207.4256	1263.6267	1269.3399	1284.447	1347.0135	1398.2405	1409.2883	1454.7911	1466.5984	1493.5803	1701.3878	1772.4406	1805.3353	2962.5507	3029.8473	3094.9435	3151.5365	3161.2782	3183.0778	3629.3527
O=C1CC(=O)C=CCN1	O=C1CC(=O)C=CCN1	
InChI=1S/C6H7NO2/c8-5-2-1-3-7-6(9)4-5/h1-2H,3-4H2,(H,7,9)	InChI=1S/C6H7NO2/c8-5-2-1-3-7-6(9)4-5/h1-2H,3-4H2,(H,7,9)
