22
gdb 15260	2.40533	1.49008	1.10476	1.326	78.7	-0.2524	0.0749	0.3273	1194.1178	0.19889	-350.190551	-350.180551	-350.179607	-350.225768	35.957	
C	-0.6101013627	 0.4915074834	-2.5589230012	-0.379611
C	-0.3940138812	-0.7000772051	-1.6180754139	-0.187028
C	-1.6749779554	-1.1371396334	-0.9330785348	 0.000675
C	-2.6224860064	-2.1743808005	-1.5042900541	-0.035586
C	-2.4009045865	-2.8731420117	-2.8312073893	-0.409031
C	-1.8250286971	-2.4805228013	-0.2499071841	-0.036587
C	-0.7009730767	-3.4823934543	-0.2128193863	-0.098631
O	 0.2333611283	-3.0496224486	 0.773200496	-0.421614
H	 0.3307129572	 0.8118352898	-3.0180030819	 0.107174
H	-1.3092854619	 0.2408790139	-3.3637867213	 0.115112
H	-1.0251986404	 1.3496672514	-2.0185047505	 0.112658
H	 0.0494334157	-1.5272753022	-2.1815926083	 0.088631
H	 0.342206701	-0.4375707976	-0.8488005639	 0.109639
H	-2.1644640929	-0.3153976954	-0.4134293049	 0.07544
H	-3.6752290784	-1.9758100445	-1.3164023805	 0.079963
H	-1.3450354359	-3.0358954022	-3.0590335748	 0.116944
H	-2.8935653467	-3.8520420876	-2.8456900463	 0.114773
H	-2.8225722403	-2.2820550754	-3.651876632	 0.116822
H	-2.3881441447	-2.4678688088	 0.6798464428	 0.083598
H	-1.1039833026	-4.4762827502	 0.0412053822	 0.08375
H	-0.21580237	-3.5757774555	-1.1941398261	 0.080342
H	 0.9151528073	-3.7238945041	 0.8516102833	 0.28257
49.5861	67.7812	142.5965	161.9846	192.3911	222.7946	258.057	270.0259	296.4662	352.716	474.2616	529.7359	560.5775	743.9616	766.8431	806.1879	847.7817	938.6762	965.0225	971.4454	1034.0485	1046.0174	1065.7353	1068.1134	1098.758	1138.1481	1157.2407	1175.5132	1192.931	1247.9715	1259.4523	1285.0864	1290.756	1334.6639	1377.6483	1400.4241	1410.5585	1419.1679	1451.3636	1473.1971	1482.2521	1498.2257	1498.9945	1503.9847	1510.4164	1521.0606	2968.1968	3013.0461	3028.9423	3030.9212	3036.5544	3065.1992	3083.8468	3096.8308	3101.4278	3110.9432	3116.0374	3127.2369	3141.9789	3820.6785
CCC1C(C)C1CO	CC[C@H]1[C@@H](C)[C@H]1CO	
InChI=1S/C7H14O/c1-3-6-5(2)7(6)4-8/h5-8H,3-4H2,1-2H3	InChI=1S/C7H14O/c1-3-6-5(2)7(6)4-8/h5-8H,3-4H2,1-2H3/t5-,6+,7-/m1/s1
