18
gdb 94951	3.51568	1.35632	1.17431	3.4137	70.76	-0.2321	0.0057	0.2378	1078.5126	0.149736	-439.117339	-439.109605	-439.108661	-439.149646	29.646	
C	 0.1699319456	 1.4584126569	-0.1406816138	-0.405062
C	-0.0673894866	-0.0279283625	 0.1542979864	 0.001953
C	 0.4618220221	-0.9462260081	-0.9712068755	-0.200281
N	 1.8984989696	-1.0456374597	-0.662567064	-0.296016
C	 2.0122373735	-1.1804793339	 0.7797231417	-0.193169
C	 0.7566135311	-0.4888554796	 1.3570174385	 0.123798
O	 0.2920339765	-1.7727628668	 1.90589362	-0.26471
C	 1.392256089	-2.44338318	 1.4266121218	 0.428916
O	 1.6319335177	-3.604279027	 1.5191111323	-0.327142
H	 1.2238132231	 1.6488036835	-0.3644800261	 0.13762
H	-0.4198635175	 1.777676846	-1.0049830579	 0.121643
H	-0.1189295908	 2.0828628089	 0.71097389	 0.117454
H	-1.1297667227	-0.2083721872	 0.3409479852	 0.094843
H	-0.058705806	-1.9160122201	-0.9383790945	 0.108237
H	 0.3180493152	-0.519603026	-1.9680449007	 0.107844
H	 2.3621426215	-1.7960401256	-1.1626994971	 0.237094
H	 3.0029551038	-0.9133190762	 1.1519913892	 0.10948
H	 0.8693352046	 0.2415490973	 2.1582503845	 0.097497
95.7854	142.4512	209.0367	251.9894	274.2445	332.3097	443.2099	478.1151	589.0527	683.2781	728.4133	774.0418	827.1097	842.6937	874.3406	917.1287	958.9044	969.4073	975.631	1006.8169	1036.5736	1103.8689	1121.4875	1133.4487	1150.006	1206.3599	1226.6435	1267.1108	1296.8353	1308.2799	1311.5997	1364.2814	1374.872	1406.0643	1437.6904	1494.9712	1504.3391	1521.0704	1929.8737	2980.5444	3037.8321	3074.0957	3080.2474	3097.0744	3106.3402	3116.5519	3119.9812	3544.6989
CC1CNC2C1OC2=O	C[C@H]1CN[C@H]2[C@@H]1OC2=O	
InChI=1S/C6H9NO2/c1-3-2-7-4-5(3)9-6(4)8/h3-5,7H,2H2,1H3	InChI=1S/C6H9NO2/c1-3-2-7-4-5(3)9-6(4)8/h3-5,7H,2H2,1H3/t3-,4-,5+/m0/s1
