25
gdb 93849	2.12105	1.52696	1.14048	1.3608	87.48	-0.258	0.0698	0.3277	1232.5207	0.228335	-389.515761	-389.505383	-389.504439	-389.550025	40.319	
C	-0.792429707	 1.1815371313	-0.0178186329	-0.422949
C	 0.0999894921	-0.0575834091	-0.0731374549	 0.034974
C	 1.2190031019	 0.0261911474	-1.145669335	-0.228242
C	 2.3702315036	-0.8769245685	-0.6312021125	-0.264409
C	 1.8493926145	-1.4782461543	 0.6916305293	 0.129804
O	 2.8545700882	-1.755901833	 1.6537911948	-0.447664
C	 0.838390986	-0.4440998928	 1.2400713544	 0.273004
C	 1.5764813941	 0.7501022474	 1.8734364479	-0.427006
C	-0.0914572124	-1.0793678441	 2.27957777	-0.448273
H	-0.2130397878	 2.086276945	 0.1927134959	 0.116383
H	-1.2995698803	 1.3333278295	-0.9769329793	 0.110131
H	-1.5669463338	 1.0912410562	 0.7512854452	 0.112497
H	-0.540674955	-0.9145037851	-0.3268522587	 0.062651
H	 0.848569183	-0.2832342513	-2.1272493814	 0.094118
H	 1.5598546467	 1.0608955556	-1.2571203867	 0.098179
H	 2.6530383305	-1.6536156252	-1.3486605306	 0.087059
H	 3.2711118125	-0.293615493	-0.4173164592	 0.10543
H	 1.2870675182	-2.4008343735	 0.4699542314	 0.055023
H	 3.432868514	-2.4358727769	 1.2959660194	 0.281677
H	 2.1997984132	 1.2862611926	 1.151129819	 0.106544
H	 0.8646914695	 1.4668011885	 2.2938160091	 0.106502
H	 2.2289023184	 0.4048793091	 2.6785150124	 0.131697
H	 0.4845670771	-1.4496888334	 3.1335669315	 0.123926
H	-0.8241383871	-0.3583339273	 2.6577057752	 0.107037
H	-0.6430590399	-1.9256769551	 1.8539478958	 0.101909
101.065	122.2706	209.1075	220.7181	229.1858	249.624	252.2162	269.6469	296.5379	316.2779	364.8047	428.0137	479.3247	538.9046	552.0471	605.3456	696.5612	807.7237	827.2912	883.7323	942.2629	954.3262	981.5934	995.4391	1005.2866	1015.5353	1063.2376	1084.8983	1112.2704	1136.0528	1147.731	1208.5756	1223.5924	1250.885	1259.5756	1272.9692	1303.7954	1315.4237	1347.84	1371.2438	1380.0448	1398.1252	1404.3596	1413.9199	1441.6659	1481.2336	1487.3839	1492.3411	1497.6764	1501.4509	1507.5604	1512.981	1515.7961	2949.9818	2991.6799	3025.0058	3029.8782	3040.6605	3043.0487	3052.0248	3075.0516	3088.6645	3092.2163	3095.7859	3101.0993	3103.6179	3106.2004	3127.6245	3827.6318
CC1CCC(O)C1(C)C	C[C@H]1CC[C@@H](O)C1(C)C	
InChI=1S/C8H16O/c1-6-4-5-7(9)8(6,2)3/h6-7,9H,4-5H2,1-3H3	InChI=1S/C8H16O/c1-6-4-5-7(9)8(6,2)3/h6-7,9H,4-5H2,1-3H3/t6-,7+/m0/s1
