21
gdb 36859	3.64391	1.03277	0.98628	0.6656	82.91	-0.2338	0.0925	0.3263	1312.1314	0.183726	-383.194296	-383.185909	-383.184965	-383.227949	32.249	
C	 0.3018584665	 1.0849886638	-0.6494540549	-0.266271
N	-0.0117010869	 0.0253420694	 0.3064179978	-0.064797
C	-0.9797956151	 0.3598162614	 1.3458005002	-0.21652
C	-1.3516666531	-0.5409292109	 0.2197889286	-0.217765
C	 1.4782307558	 1.8963490599	-0.1902010532	 0.361622
C	 2.8256454176	 1.3429661449	 0.3048962741	-0.289812
C	 2.9321729828	 2.559347135	 1.2848935968	-0.234521
C	 1.5875622904	 3.0699175609	 0.7496986593	-0.077469
N	 1.6273508524	 3.2558956127	-0.6988964837	-0.367106
H	 0.5390212145	 0.6052058085	-1.6089373046	 0.10306
H	-0.5481037708	 1.7654473977	-0.8291803406	 0.093808
H	-0.776535815	-0.044193395	 2.3334630347	 0.114164
H	-1.4060406784	 1.3618514481	 1.3418239715	 0.111688
H	-2.0274851265	-0.1387385516	-0.5336652594	 0.109622
H	-1.4238608946	-1.6146625149	 0.3686465285	 0.115577
H	 2.7175485184	 0.3926558039	 0.8298789117	 0.125261
H	 3.6039752957	 1.2415978064	-0.4596706845	 0.088707
H	 2.8925331831	 2.2509286567	 2.3322589439	 0.107512
H	 3.7812527623	 3.2390377393	 1.1530512793	 0.094513
H	 0.8253289801	 3.6045812834	 1.3061454319	 0.08829
H	 2.5668686307	 3.4487986404	-1.0435338676	 0.220435
65.1441	75.9218	127.7865	231.725	313.8675	330.1758	378.1188	464.8325	477.6354	667.6421	760.7421	772.8308	783.3618	814.7546	845.6129	903.1502	922.949	940.8543	952.3044	982.7914	1024.417	1032.1681	1052.1286	1072.3298	1095.8738	1112.5911	1118.9424	1133.6827	1164.596	1177.1283	1196.894	1212.6498	1230.8821	1241.3824	1268.1299	1284.3732	1319.8723	1326.3457	1363.5613	1453.2872	1478.2848	1482.6633	1494.2807	1499.9998	1521.9548	2958.0482	3028.4275	3038.1648	3047.088	3092.8039	3097.6117	3101.178	3126.3407	3169.3432	3175.0815	3189.5031	3452.3694
C(N1CC1)C12CCC1N2	C(N1CC1)[C@]12CC[C@H]1N2	
InChI=1S/C7H12N2/c1-2-7(6(1)8-7)5-9-3-4-9/h6,8H,1-5H2	InChI=1S/C7H12N2/c1-2-7(6(1)8-7)5-9-3-4-9/h6,8H,1-5H2/t6-,7-/m1/s1
