19
gdb 89596	4.30088	0.91989	0.88523	4.6377	80.28	-0.2411	0.0258	0.2669	1370.018	0.159425	-382.045829	-382.037063	-382.036118	-382.07965	32.839	
C	-0.0834225912	 1.5940310693	 0.1499396625	-0.404719
C	 0.0058292061	 0.0776729498	 0.0672800445	 0.040808
C	 0.981641508	-0.566068876	-0.9913069665	-0.29237
C	 1.6942684978	-1.286478574	 0.1612608747	 0.367339
C	 2.3122471328	-2.660034431	 0.1313170236	-0.475456
C	 3.5761008938	-2.7032429529	-0.6121781705	 0.269784
N	 4.5682713855	-2.7320794015	-1.2030966696	-0.301767
N	 2.2072072541	-0.214548779	 1.0444555848	-0.356466
C	 0.7931490398	-0.6596719978	 1.1651439244	-0.137676
H	 0.9093582398	 2.0254564029	 0.3009966841	 0.141528
H	-0.5053895965	 2.0117722155	-0.770326239	 0.114115
H	-0.7243488725	 1.9066167071	 0.9818473875	 0.110797
H	-0.9900061853	-0.3641330938	-0.0363070125	 0.075889
H	 0.4693789403	-1.2424665037	-1.6797141386	 0.103541
H	 1.6106350467	 0.1258801592	-1.5557087406	 0.118386
H	 2.4975206021	-3.0147116495	 1.1528246221	 0.148754
H	 1.6206949705	-3.3756455363	-0.3299269073	 0.157826
H	 2.7279964959	-0.6567439429	 1.8023660237	 0.227656
H	 0.4213799122	-1.0474887954	 2.1070595927	 0.092031
59.4485	86.8228	169.6701	226.8305	236.589	319.6767	363.0305	391.2776	421.6307	443.6046	579.7655	662.4773	715.7254	801.3714	854.6988	889.4955	898.9892	904.7894	943.7818	962.3244	996.7029	1044.1401	1057.0719	1104.291	1116.4355	1134.2475	1193.1872	1195.0399	1232.2979	1263.6496	1287.4072	1332.9094	1343.6765	1379.6103	1402.7086	1431.6775	1452.0399	1481.0018	1491.4342	1505.0824	2364.13	3030.1799	3032.9241	3056.5295	3067.467	3068.8197	3094.1097	3122.9013	3126.385	3176.	3463.3587
CC1CC2(CC#N)NC12	C[C@H]1C[C@@]2(CC#N)N[C@@H]12	
InChI=1S/C7H10N2/c1-5-4-7(2-3-8)6(5)9-7/h5-6,9H,2,4H2,1H3	InChI=1S/C7H10N2/c1-5-4-7(2-3-8)6(5)9-7/h5-6,9H,2,4H2,1H3/t5-,6-,7+/m0/s1
