17
gdb 97641	2.85619	0.69458	0.58773	2.3454	76.85	-0.2485	-0.0446	0.2039	1855.4559	0.13141	-458.908956	-458.898111	-458.897167	-458.947565	35.467	
C	-0.1393854116	 1.4694988113	-0.1556870343	-0.241112
O	-0.4091750347	 0.0863653533	-0.3172987422	-0.243262
C	 0.6415743527	-0.6116373643	-0.9660784102	-0.125896
C	 1.8054337635	-0.820499566	 0.0270445692	 0.147934
O	 2.946712924	-0.522771779	-0.1926411282	-0.230227
C	 0.170643398	-1.9204609728	-1.3951654298	-0.032751
C	-0.1496659476	-3.0368797315	-1.7164550275	 0.162649
C	-0.6045180544	-4.3594667644	-2.1457871584	-0.198336
O	-1.0746243591	-4.3919396106	-3.48373278	-0.397483
H	 0.7515809153	 1.6539258902	 0.4608912683	 0.122929
H	 0.0034665029	 1.965136034	-1.1269397112	 0.118599
H	-1.0096877914	 1.9008780151	 0.3423136296	 0.138341
H	 1.0326813941	-0.0405995643	-1.8222340085	 0.11401
H	 1.4684954564	-1.2606254892	 0.9907927814	 0.099018
H	 0.2284756683	-5.0698362304	-2.1032347768	 0.148449
H	-1.3668838323	-4.7221837804	-1.4380875583	 0.126088
H	-1.7555143542	-3.7162899309	-3.5693365231	 0.29105
21.226	48.133	72.356	96.6273	115.4276	180.7914	195.0887	262.1971	326.4046	333.0871	357.3314	461.4704	484.2174	502.2685	588.8531	813.0196	966.3254	981.7517	1016.9611	1035.3515	1054.4452	1118.4197	1164.0903	1181.8415	1215.6018	1217.6601	1263.5123	1351.1932	1361.9112	1396.0002	1417.1091	1477.7117	1486.2912	1488.8347	1508.7088	1839.5	2354.9768	2903.1295	2981.2406	2988.9971	2995.2386	3043.2789	3066.6744	3130.7173	3816.227
COC(C=O)C#CCO	CO[C@@H](C=O)C#CCO	
InChI=1S/C6H8O3/c1-9-6(5-8)3-2-4-7/h5-7H,4H2,1H3	InChI=1S/C6H8O3/c1-9-6(5-8)3-2-4-7/h5-7H,4H2,1H3/t6-/m1/s1
