17
gdb 32450	3.20632	1.22983	0.89816	1.2114	71.8	-0.1714	0.074	0.2453	1252.8362	0.136153	-455.15434	-455.144983	-455.144039	-455.188112	34.342	
C	 0.0419076288	 1.3448967088	 0.0923945327	-0.242496
O	 0.014387385	-0.0660198471	 0.0372291636	-0.268476
C	-1.2277647461	-0.6169656104	 0.0118224061	 0.295594
C	-2.4610727011	-0.0088393393	 0.0315502663	-0.24686
N	-3.4138435667	-1.0333645644	-0.011373628	-0.333175
C	-2.7808796236	-2.2315333437	-0.0559969872	 0.415196
O	-3.4763748287	-3.386776356	-0.1031971849	-0.439874
C	-1.4198013804	-2.0367482321	-0.0440772763	-0.060639
N	-0.4978902091	-3.1221084864	-0.0834301875	-0.638702
H	 1.091960367	 1.642754171	 0.107429824	 0.126743
H	-0.4505865944	 1.7869468152	-0.7851126854	 0.116038
H	-0.456383337	 1.7173174056	 0.9984760154	 0.11604
H	-2.7598206826	 1.0227466628	 0.0707633293	 0.113552
H	-4.4100504412	-0.9122491087	-0.0098899868	 0.263624
H	-2.7988502263	-4.0792425268	-0.1281466994	 0.30462
H	 0.1098475723	-3.1214012492	 0.7312172317	 0.239403
H	 0.1153971242	-3.0578444094	-0.8913532438	 0.23941
86.104	172.7891	188.7734	197.1728	235.9175	238.2323	254.8716	278.4431	357.1522	422.5419	504.9711	543.1953	560.4883	629.3815	652.5704	709.6066	753.0275	777.7341	879.2973	1025.5256	1075.6528	1133.4913	1183.0608	1194.8356	1219.6645	1221.5647	1256.9941	1288.6324	1393.6436	1424.5059	1473.4129	1480.5755	1510.3353	1586.4565	1603.8763	1643.3236	1697.8165	2991.7905	3044.1094	3127.8912	3292.1219	3478.9833	3534.9154	3701.7583	3736.9834
COC1=CNC(O)=C1N	COc1c[nH]c(O)c1N	
InChI=1S/C5H8N2O2/c1-9-3-2-7-5(8)4(3)6/h2,7-8H,6H2,1H3	InChI=1S/C5H8N2O2/c1-9-3-2-7-5(8)4(3)6/h2,7-8H,6H2,1H3
