19
gdb 51891	4.27277	0.86037	0.75808	3.7295	73.74	-0.2615	0.0061	0.2676	1473.5976	0.160034	-460.194703	-460.186196	-460.185252	-460.228954	31.164	
O	 0.0102485642	-0.0228401856	 0.0954212182	-0.274254
C	 0.0172755139	 1.1686093272	 0.1677357355	 0.16376
O	 1.0758613158	 1.9156781017	-0.1987809773	-0.186389
C	 0.9800797914	 3.3449629948	-0.0968339938	 0.09748
C	 2.1590004898	 3.8723158382	 0.7180406289	-0.220092
C	 2.195602913	 5.4067293558	 0.6493535495	-0.214663
C	 2.1300775705	 5.8732720495	-0.8062078396	-0.065537
O	 0.9889568507	 5.3465830074	-1.4698009377	-0.242878
C	 0.997731976	 3.9346645048	-1.5122384739	-0.092833
H	-0.8289052747	 1.7783622568	 0.5416332522	 0.079062
H	 0.0330118492	 3.6167380415	 0.3891164668	 0.093496
H	 2.0927234681	 3.5193203958	 1.7520881446	 0.107785
H	 3.0801332068	 3.4540395699	 0.2933861745	 0.117086
H	 1.3420965088	 5.8278060581	 1.1943960546	 0.10985
H	 3.1050567531	 5.789397483	 1.1249020397	 0.105907
H	 2.0424315735	 6.9609764157	-0.8726417831	 0.112752
H	 3.0470621056	 5.5717561394	-1.3409634947	 0.091544
H	 1.8866644398	 3.5549736667	-2.0430129254	 0.103399
H	 0.1095817545	 3.6260637192	-2.0710656688	 0.114526
35.067	103.8998	144.2419	232.6531	265.8019	345.8836	351.8458	384.7653	454.8176	494.7055	546.2971	713.3606	831.4938	869.8186	886.3576	925.0585	980.5448	992.8407	1040.9886	1044.5166	1070.751	1120.5707	1137.2094	1166.9606	1192.1278	1209.2358	1242.2097	1296.3583	1318.0457	1338.6398	1342.7805	1372.9338	1379.0861	1399.7427	1416.1543	1440.4749	1480.1122	1490.5097	1493.6665	1507.8503	1866.0207	2942.8533	2963.5045	2976.2253	3016.847	3034.2968	3036.3052	3078.942	3086.8369	3090.1417	3094.6407
O=COC1CCCOC1	O=CO[C@H]1CCCOC1	
InChI=1S/C6H10O3/c7-5-9-6-2-1-3-8-4-6/h5-6H,1-4H2	InChI=1S/C6H10O3/c7-5-9-6-2-1-3-8-4-6/h5-6H,1-4H2/t6-/m0/s1
