23
gdb 72491	2.47934	1.70813	1.4193	1.5376	83.69	-0.2377	0.0763	0.314	1059.7707	0.20909	-388.3243	-388.316395	-388.315451	-388.355952	32.98	
C	-0.0633130849	 1.5165391276	 0.0169411403	-0.467845
C	 0.0177616872	-0.0075771738	-0.0127127249	 0.281843
C	 0.9069393502	-0.5416160628	-1.1562205928	-0.097819
O	 1.4147472586	-1.8098992698	-0.7266238021	-0.281994
C	 1.0029577247	-2.0372386959	 0.6321172597	 0.104809
C	 0.7642343356	-0.630176175	 1.1854397642	-0.242216
C	-0.3020767734	-2.848025792	 0.657041142	-0.203266
C	-1.3517879076	-2.1762226185	-0.2472935273	-0.205257
C	-1.3932014964	-0.6444843057	-0.076461875	-0.228916
H	 0.930458033	 1.964409939	 0.125823586	 0.111727
H	-0.5101164092	 1.910087997	-0.9034168129	 0.113233
H	-0.6803832734	 1.8612456473	 0.8537720314	 0.114177
H	 0.3545679752	-0.6691372355	-2.0961455345	 0.094168
H	 1.7489557027	 0.1389639923	-1.3495996828	 0.086839
H	 1.8133812607	-2.5749890604	 1.1335545081	 0.068226
H	 1.7140842999	-0.1151110098	 1.3664284094	 0.092461
H	 0.1812369823	-0.6200307636	 2.1106679233	 0.092492
H	-0.1166229067	-3.8714585601	 0.3146351749	 0.097594
H	-0.6553759032	-2.9158880497	 1.6943275977	 0.088362
H	-1.1015536003	-2.4111899263	-1.2873659189	 0.112803
H	-2.3447643708	-2.6012982586	-0.0666977401	 0.08906
H	-1.9266535714	-0.3811756979	 0.8467523571	 0.089988
H	-1.9651437627	-0.1997327978	-0.9004062629	 0.089534
175.2709	223.8063	239.0567	268.1154	291.8576	371.9713	390.8369	431.7562	467.6849	542.2876	599.2717	726.0203	768.8214	821.0185	860.0849	877.2461	888.5595	922.5553	928.0585	949.4156	988.0496	1010.4783	1013.1474	1052.3862	1062.6439	1085.3565	1116.018	1159.52	1174.1965	1195.1435	1232.5893	1246.3947	1284.7117	1298.9165	1309.4548	1332.0256	1344.6547	1361.189	1373.5424	1391.7541	1400.4043	1415.5244	1477.4084	1481.2968	1491.4265	1494.0547	1498.8966	1502.2756	1528.9916	2991.0121	3011.5636	3023.0929	3023.6408	3033.7643	3037.8736	3041.7286	3052.2344	3062.7807	3072.2311	3083.2547	3088.3491	3093.7797	3098.3479
CC12COC(C1)CCC2	C[C@@]12CO[C@@H](C1)CCC2	
InChI=1S/C8H14O/c1-8-4-2-3-7(5-8)9-6-8/h7H,2-6H2,1H3	InChI=1S/C8H14O/c1-8-4-2-3-7(5-8)9-6-8/h7H,2-6H2,1H3/t7-,8+/m1/s1
