13
gdb 23763	3.31816	2.31026	1.36198	3.2971	66.03	-0.1954	-0.0313	0.164	820.0953	0.097817	-402.78862	-402.78239	-402.781446	-402.818915	24.341	
F	 0.0378491677	 0.0271699704	 0.0031886106	-0.078872
C	-0.0248182814	 1.3621690047	 0.0109734944	 0.197714
C	-1.2084071764	 2.0130761574	 0.029694915	-0.204765
C	-1.2324971309	 3.4455638795	 0.0374897504	-0.172585
C	-0.0485589848	 4.1067341262	 0.0256259406	 0.034583
N	 1.1328901664	 3.4241906155	 0.006783664	-0.345395
C	 1.2670797947	 2.0331367007	-0.0022718197	 0.29306
N	 2.4416552948	 1.5175584907	-0.0202113844	-0.574774
H	-2.1289441399	 1.4400375813	 0.0386186903	 0.119692
H	-2.1675439304	 3.9865414601	 0.0524063388	 0.109961
H	 0.0339473179	 5.1859515789	 0.030204002	 0.133691
H	 2.0126096703	 3.9203032272	-0.0020390631	 0.266102
H	 2.3700995822	 0.5024403573	-0.0245800988	 0.221587
142.9617	272.631	316.6434	412.4314	469.8949	541.8937	554.627	580.0732	659.5283	744.9978	751.3947	754.554	800.5111	905.4379	913.6349	925.0185	1048.3843	1061.1306	1150.4049	1236.613	1267.4332	1302.8005	1403.1387	1443.8418	1493.5908	1611.2798	1670.5057	1713.3218	3196.5903	3216.0555	3241.0663	3520.1272	3614.3084
FC1=CC=CNC1=N	FC1=C(NCC=C1)[NH]	
InChI=1S/C5H5FN2/c6-4-2-1-3-8-5(4)7/h1-3H,(H2,7,8)	InChI=1S/C5H6FN2/c6-4-2-1-3-8-5(4)7/h1-2,7-8H,3H2
