15
gdb 48494	2.3613	1.50765	1.20508	2.2885	61.89	-0.2592	-0.052	0.2072	1046.3652	0.110202	-494.900041	-494.891452	-494.890508	-494.934594	29.288	
O	-0.4877137036	 0.476913232	 0.655571979	-0.237507
C	 0.3005605477	 0.7572553032	-0.2059576024	 0.137398
C	 1.3611733568	 1.8657882265	-0.0806609195	 0.164911
C	 1.3476813367	 2.5805673677	 1.3032008784	-0.174059
O	 2.6874372943	 2.4637105452	 1.7586622341	-0.225799
C	 3.177691574	 1.2935551114	 1.1731732813	 0.012317
O	 2.6537076025	 1.2659222805	-0.1509220099	-0.291398
C	 1.2378515627	 2.8489964229	-1.2351446915	 0.111613
O	 0.2249863401	 3.0028210393	-1.8652568923	-0.239791
H	 0.3584436601	 0.1951116172	-1.1588308915	 0.114071
H	 1.0956941568	 3.6418293465	 1.2466238355	 0.136287
H	 0.6349789616	 2.0684027272	 1.960470058	 0.146858
H	 4.2677773482	 1.3384538144	 1.120511221	 0.135108
H	 2.8489678086	 0.3966438561	 1.7247953986	 0.104514
H	 2.1732210934	 3.4130732099	-1.439015109	 0.105477
48.2967	74.5968	94.0881	190.9794	229.2716	282.7663	305.6197	366.5501	447.3965	598.9536	690.7183	740.0307	803.8748	925.9762	932.8936	979.4182	999.3619	1023.7293	1090.8615	1112.0833	1156.2521	1181.1374	1200.1417	1239.7225	1274.0966	1352.6882	1389.3566	1414.8306	1422.0154	1515.6165	1539.8636	1821.356	1842.0601	2913.0861	2944.1631	2964.9907	3042.4136	3109.6136	3112.2281
O=CC1(COCO1)C=O	O=CC1(COCO1)C=O	
InChI=1S/C5H6O4/c6-1-5(2-7)3-8-4-9-5/h1-2H,3-4H2	InChI=1S/C5H6O4/c6-1-5(2-7)3-8-4-9-5/h1-2H,3-4H2
