16
gdb 22007	4.02577	1.11347	0.87703	7.7136	83.68	-0.1598	-0.0201	0.1397	1254.8826	0.124267	-434.04394	-434.035455	-434.034511	-434.077241	31.195	
C	 0.0430309301	 1.5725372893	 0.02043417	-0.546429
C	-0.0039254191	 0.0754145849	-0.0474454973	 0.168215
N	-0.0602928947	-0.7377076034	 1.0448971509	-0.108757
O	-0.0736077505	-0.2015900505	 2.1697351138	-0.380281
C	 0.0053037474	-0.6427192909	-1.2423819643	 0.442964
N	 0.055620396	-0.1721083113	-2.522897835	-0.355246
H	 0.0937527055	 0.8050815944	-2.7518731987	 0.282276
C	 0.0458783591	-1.2328418226	-3.4309296411	-0.093482
C	-0.0111758323	-2.368722468	-2.702768053	-0.077263
N	-0.035550249	-2.0003807319	-1.3673192779	-0.302155
H	 0.9567649843	 1.9954198818	-0.4183845631	 0.107118
H	-0.8158729753	 2.0532150242	-0.4669416554	 0.107112
H	 0.0223573007	 1.831040077	 1.0830365368	 0.163787
H	 0.0801214382	-1.0746518782	-4.4937782394	 0.152622
H	-0.036347614	-3.3985834926	-3.0124093179	 0.154826
H	-0.0769328465	-2.5726509623	-0.5376095783	 0.284693
97.6675	111.803	155.9437	157.162	282.5865	290.1741	432.3723	458.5763	466.0543	476.9194	575.3686	632.2201	701.3733	736.2715	768.3925	797.8727	916.4659	925.8209	978.3375	1057.2288	1058.1755	1097.7144	1134.9266	1161.6857	1261.7763	1328.391	1371.2542	1385.9813	1396.0613	1454.1531	1485.0734	1496.0836	1496.6961	1619.361	1684.1868	2999.6792	3043.0596	3113.1011	3291.9207	3313.2112	3636.9885	3698.6152
CC(=N[O-])C1=[NH+]C=CN1	CC(=N[O])[C@@H]1NC=CN1	
InChI=1S/C5H7N3O/c1-4(8-9)5-6-2-3-7-5/h2-3,9H,1H3,(H,6,7)	InChI=1S/C5H8N3O/c1-4(8-9)5-6-2-3-7-5/h2-3,5-7H,1H3
