20
gdb 89749	2.29046	1.65294	1.17854	1.9128	79.66	-0.2247	0.0684	0.2931	1128.7338	0.169894	-403.088592	-403.079919	-403.078975	-403.121806	33.594	
C	-0.5170375536	 1.385354003	-0.0241619073	-0.40634
C	 0.142377371	 0.0218192478	-0.0199805611	 0.083371
O	 1.414877559	 0.0179156353	-0.7249052077	-0.344028
C	 2.0951221842	-0.5359072434	 0.4066163114	 0.433061
C	 3.0882564106	-1.6426937805	 0.2950505303	-0.332342
C	 3.5224799808	-0.2437242276	 0.7181715176	-0.342782
C	 0.8502078759	-0.4652370603	 1.2509617345	 0.17045
C	 0.63219013	-0.0607371495	 2.6536015485	-0.305997
N	 0.4313076075	-1.4620771871	 2.2200589108	-0.363031
H	 0.1425612977	 2.1360673263	 0.4195181668	 0.126518
H	-0.748926411	 1.6889689443	-1.0497743627	 0.130322
H	-1.4560759381	 1.3619369768	 0.540406668	 0.112302
H	-0.5292932233	-0.7372478517	-0.4479366618	 0.079866
H	 3.0504631601	-2.4265932317	 1.044126779	 0.128988
H	 3.3590531101	-1.9663513279	-0.7041125482	 0.121622
H	 4.0712993725	 0.3481841353	-0.0066695697	 0.123613
H	 3.8049258255	-0.0726214571	 1.7522682258	 0.114677
H	 1.4778501771	 0.093267179	 3.3186874114	 0.122574
H	-0.2381976517	 0.5501190066	 2.8815314694	 0.114721
H	-0.5605972444	-1.6676058076	 2.120717495	 0.232433
65.0878	181.1549	193.3679	213.1593	219.6158	251.051	353.854	426.7649	452.6082	536.9834	569.751	611.2126	759.2824	810.756	850.3908	871.3931	892.0912	905.9395	939.9899	955.4317	979.817	995.1122	1023.0088	1046.5199	1061.6214	1064.0771	1084.3492	1121.6824	1149.1271	1187.7559	1205.6634	1258.3415	1267.5724	1299.5721	1352.8206	1381.378	1407.0356	1445.9543	1452.3154	1483.0299	1491.6998	1501.5496	1531.1147	2990.9813	3034.289	3102.3454	3103.5472	3121.5402	3125.5795	3132.1691	3186.721	3210.7905	3227.5377	3488.3447
CC1OC2(CC2)C11CN1	C[C@H]1OC2(CC2)[C@]21CN2	
InChI=1S/C7H11NO/c1-5-7(4-8-7)6(9-5)2-3-6/h5,8H,2-4H2,1H3	InChI=1S/C7H11NO/c1-5-7(4-8-7)6(9-5)2-3-6/h5,8H,2-4H2,1H3/t5-,7-/m1/s1
