15
gdb 29806	3.16104	1.29916	0.92715	5.7646	78.95	-0.208	-0.0329	0.1751	1192.9552	0.114366	-413.040036	-413.031553	-413.030609	-413.073284	30.616	
C	 0.0101156207	 1.4527755781	 0.034539014	-0.356342
N	 0.0020626661	 0.0016439048	-0.0060746745	-0.03884
C	-0.0057176108	-0.7792808276	-1.1367260403	-0.186053
C	-0.0100510354	-2.0913621006	-0.6901826423	 0.288047
N	-0.0815324825	-3.2645586199	-1.4320375333	-0.602678
N	-0.0064936615	-2.1287708594	 0.6690077068	-0.35231
C	-0.0029636508	-0.8575561217	 1.0555152567	 0.254358
C	 0.0022409771	-0.3993397228	 2.3961198361	 0.2342
N	 0.0090026217	 0.0150912009	 3.4784977819	-0.358666
H	 0.9010029026	 1.8434754989	-0.4654410016	 0.151156
H	-0.8807789274	 1.8533085556	-0.4575069539	 0.152873
H	 0.0164570964	 1.7774214391	 1.0755382448	 0.177484
H	-0.0154306656	-0.3464050549	-2.122891931	 0.13107
H	 0.4269034175	-3.2392965083	-2.3045608241	 0.247868
H	 0.183402952	-4.0680856022	-0.8779659393	 0.257833
89.2806	146.0146	149.7408	173.2994	248.0993	289.2543	343.3467	421.0457	505.0971	558.1658	589.7641	640.875	652.7412	683.1269	710.6775	755.7225	827.6022	1035.9767	1081.6481	1100.9782	1151.7158	1200.3393	1229.3095	1355.5856	1429.938	1446.1866	1484.8293	1485.3305	1503.8981	1526.8252	1602.2473	1649.1095	2336.6599	3047.2195	3111.3322	3154.883	3274.468	3554.9099	3653.4191
CN1C=C(N)N=C1C#N	Cn1cc(N)nc1C#N	
InChI=1S/C5H6N4/c1-9-3-4(7)8-5(9)2-6/h3H,7H2,1H3	InChI=1S/C5H6N4/c1-9-3-4(7)8-5(9)2-6/h3H,7H2,1H3
