19
gdb 71239	2.7169	1.81502	1.6584	2.5305	73.03	-0.2339	0.0744	0.3083	915.9261	0.161317	-423.000893	-422.993918	-422.992973	-423.031656	29.555	
O	-0.0847414636	 1.4067425746	 0.0729975804	-0.495157
C	 0.0147059817	 0.0106337646	-0.0228542486	 0.378925
C	 0.2846039165	-0.6430082465	-1.4167259349	-0.313255
C	-0.7844593775	-1.6858170171	-1.04053577	-0.085088
C	-0.4822376411	-2.5046438015	 0.2667704001	 0.095094
C	 0.8871652254	-2.1705328594	 0.8511964717	-0.231904
C	 0.9299544071	-0.6304635593	 1.0287563917	-0.261989
O	-1.4785336289	-1.7367343493	 1.017266455	-0.305267
C	-1.3814891433	-0.7284589036	 0.0041915803	 0.095658
H	 0.804919832	 1.7758658488	 0.1049530586	 0.274233
H	-0.0814553844	 0.0004766297	-2.221654995	 0.107715
H	 1.3040891153	-0.968583526	-1.6461973557	 0.08967
H	-1.3703956851	-2.1982026372	-1.8022482187	 0.076259
H	-0.7200333288	-3.5710612117	 0.2585582137	 0.076279
H	 1.026256961	-2.6772411888	 1.8106552766	 0.108457
H	 1.6770442709	-2.5241530416	 0.1790246711	 0.102245
H	 1.9522100332	-0.2464068788	 0.9223562782	 0.082581
H	 0.5681253517	-0.3531044511	 2.0220522157	 0.120653
H	-2.266368762	-0.0993895361	-0.1037266403	 0.084888
221.6637	247.1799	296.1711	322.5655	384.585	425.847	434.6727	526.8583	628.3475	638.0122	755.6483	775.702	800.3369	847.7371	890.1859	914.287	932.0226	937.5747	975.8651	988.0773	1013.8293	1049.2299	1067.3663	1076.0965	1146.0535	1156.7361	1185.1211	1203.5235	1208.5067	1216.9573	1252.6934	1268.5199	1299.2449	1321.5492	1335.2498	1348.1277	1363.3359	1384.3432	1474.9751	1479.1329	1500.3335	3028.2289	3042.6166	3048.1398	3078.8741	3085.9193	3102.5415	3105.1663	3106.7739	3122.5563	3794.7321
OC12CC3C(CC1)OC23	O[C@@]12C[C@H]3[C@@H](CC1)O[C@@H]23	
InChI=1S/C7H10O2/c8-7-2-1-5-4(3-7)6(7)9-5/h4-6,8H,1-3H2	InChI=1S/C7H10O2/c8-7-2-1-5-4(3-7)6(7)9-5/h4-6,8H,1-3H2/t4-,5+,6+,7+/m0/s1
