17
gdb 28332	4.76704	1.20829	0.98186	2.7653	76.26	-0.1613	0.0618	0.2231	1161.1386	0.138981	-418.029573	-418.021903	-418.020959	-418.0615	29.836	
O	-0.0549446307	 1.336758787	-0.1006151904	-0.449962
C	 0.0108467041	-0.0268176475	-0.0449772324	 0.3504
C	-0.0942440939	-0.8434323393	-1.1461847807	-0.24988
N	-0.075062865	-2.1460085645	-0.6547561543	-0.008244
C	 0.1662881484	-3.4648670875	-1.2039768248	-0.172992
C	-0.0387744025	-4.3312993435	 0.0608459536	-0.175683
N	 0.3745697784	-3.4317174302	 1.1609308193	-0.402598
C	 0.1213638887	-2.1306819032	 0.692116276	 0.413466
C	 0.1611310489	-0.8286231695	 1.1367358856	-0.493555
H	 0.0890376582	 1.6804896154	 0.785194967	 0.293683
H	-0.2581357577	-0.6167187595	-2.1846552027	 0.11067
H	-0.535083637	-3.7196697711	-2.0029853885	 0.120415
H	 1.1896946993	-3.5552620722	-1.5942339806	 0.118714
H	-1.0973246263	-4.6167377439	 0.1413877552	 0.107627
H	 0.5681206383	-5.2395856644	 0.0478251314	 0.116244
H	-0.0617102149	-3.6502061116	 2.0474240323	 0.239062
H	 0.2789489935	-0.4806413345	 2.1510785942	 0.082634
119.8174	191.3253	201.3845	252.3079	308.5617	322.8033	501.0441	532.6639	584.3289	614.3861	646.8213	663.6863	698.7918	729.2244	795.8696	846.9203	909.6149	954.5638	998.6586	1051.0679	1122.7473	1124.2197	1156.1848	1176.5667	1207.3166	1233.0841	1269.5007	1314.6696	1336.7346	1383.6281	1403.803	1439.6658	1495.7078	1517.8068	1534.4313	1584.7267	1649.3516	2998.4237	3006.5026	3085.4072	3098.1377	3245.747	3287.56	3562.0525	3847.8138
OC1=CN2CCNC2=C1	Oc1cn2CCNc2c1	
InChI=1S/C6H8N2O/c9-5-3-6-7-1-2-8(6)4-5/h3-4,7,9H,1-2H2	InChI=1S/C6H8N2O/c9-5-3-6-7-1-2-8(6)4-5/h3-4,7,9H,1-2H2
