16
gdb 44658	2.7864	1.80265	1.79056	3.6404	71.42	-0.2283	-0.0159	0.2124	862.5207	0.12726	-400.779526	-400.773029	-400.772085	-400.809988	27.368	
O	 0.0160197678	-0.0187949493	-0.090576761	-0.378266
C	-0.0140766312	 1.1859962908	 0.0258516414	 0.420869
N	-1.1378773919	 1.9610241367	 0.1410669866	-0.290754
C	-0.9000076713	 3.4219794562	 0.0692398583	-0.115228
C	 0.0002989749	 3.7383472973	 1.266872192	-0.053742
C	 1.1119437432	 3.0107985729	 1.2550750521	-0.074416
C	 1.2423402717	 2.1117081758	 0.0272913594	-0.227186
C	 1.0438289033	 2.973256501	-1.2239402933	-0.078739
C	-0.0752853544	 3.6906860694	-1.197985255	-0.067199
H	-2.0107587403	 1.5755949447	-0.1819908213	 0.253594
H	-1.8560814942	 3.9417165287	 0.093040035	 0.07956
H	-0.2947699955	 4.4478498215	 2.0283159222	 0.108466
H	 1.8731197103	 3.0054957698	 2.0246882939	 0.112399
H	 2.1398419098	 1.4992652926	 0.0099862335	 0.089705
H	 1.761282071	 2.9437225213	-2.0336194359	 0.113409
H	-0.4122314133	 4.3786131705	-1.9626328578	 0.107529
138.1141	338.3662	407.0379	424.6124	444.9061	480.2181	481.2881	606.8776	632.5826	688.7409	704.1762	714.0507	794.4937	833.9936	866.9057	909.1371	922.6802	936.3807	946.1643	988.3464	1027.3438	1029.2859	1103.9511	1122.0367	1177.229	1249.5676	1249.9952	1290.2938	1311.0608	1316.9727	1361.4279	1414.3655	1648.5783	1689.1049	1821.4943	3131.1152	3154.1034	3202.0005	3203.9823	3225.7944	3228.9566	3643.1411
O=C1NC2C=CC1C=C2	O=C1N[C@H]2C=C[C@@H]1C=C2	
InChI=1S/C7H7NO/c9-7-5-1-3-6(8-7)4-2-5/h1-6H,(H,8,9)	InChI=1S/C7H7NO/c9-7-5-1-3-6(8-7)4-2-5/h1-6H,(H,8,9)/t5-,6+
