16
gdb 81879	3.03729	1.3375	1.02934	2.7915	71.8	-0.2527	-0.0545	0.1982	1142.1167	0.122136	-437.864419	-437.855848	-437.854904	-437.897889	30.752	
C	-0.2064043019	 1.5956715044	-0.0223604232	-0.41896
C	 0.0906387502	 0.1073643642	 0.0132653892	-0.063978
N	 0.7255676147	-0.5354951439	-1.2097740023	-0.141732
C	 2.0578302955	-0.0019646939	-1.3295372645	-0.263409
C	 1.8642472067	-1.0918402509	-0.3077613987	 0.093032
C	 2.4622232168	-2.4400326479	-0.4805697631	 0.064947
O	 2.767030424	-2.9001489573	-1.5527345625	-0.247677
C	 1.1961759103	-0.5062327633	 0.9010184389	 0.33534
O	 1.3441502471	-0.6488738184	 2.080625536	-0.305793
H	 0.6833925193	 2.2041236536	-0.2011467677	 0.127838
H	-0.940012424	 1.8188159638	-0.8028320689	 0.141102
H	-0.6278028247	 1.9003625847	 0.9401037234	 0.14771
H	-0.8310955016	-0.4501631107	 0.2168359935	 0.12921
H	 2.5785686824	-0.3336033312	-2.2234571693	 0.163815
H	 2.2940576955	 1.0026614275	-0.9894594629	 0.133193
H	 2.6111705497	-2.9994154007	 0.465778652	 0.105361
89.2433	129.7407	153.9214	176.7145	191.4395	260.3357	325.6117	368.5249	510.5259	576.1356	619.5572	682.1311	729.9066	773.9896	817.5116	868.7694	933.81	989.9431	1042.7528	1078.0778	1089.0535	1121.3369	1140.2537	1171.7213	1237.7099	1265.0594	1319.5489	1355.8881	1406.4077	1423.5061	1480.9606	1494.1867	1501.0236	1807.6259	1886.1042	2925.1278	3046.7907	3051.7014	3113.6883	3118.7168	3125.3374	3210.9605
CC1N2CC2(C=O)C1=O	C[C@H]1N2C[C@@]2(C=O)C1=O	
InChI=1S/C6H7NO2/c1-4-5(9)6(3-8)2-7(4)6/h3-4H,2H2,1H3	InChI=1S/C6H7NO2/c1-4-5(9)6(3-8)2-7(4)6/h3-4H,2H2,1H3/t4-,6-,7?/m1/s1
