16
gdb 34521	4.2645	1.19448	1.08651	4.12	75.95	-0.259	-0.0542	0.2047	1100.7767	0.126718	-400.751538	-400.744596	-400.743652	-400.782941	27.338	
N	 0.0641605503	-1.1319506116	-0.0565202255	-0.333502
C	-0.0093788653	 0.023954948	-0.0275622269	 0.215731
C	-0.0537122877	 1.4474794472	 0.0150873334	 0.17252
C	-1.2051275299	 2.1358205548	 0.0458772809	-0.137032
C	-1.0748398616	 3.6425863017	 0.0731028873	 0.043954
C	-0.0967765416	 4.0455732658	 1.2044046875	-0.245745
C	 0.9400678798	 3.7218021188	 0.1053306059	 0.076998
C	 1.2602154825	 2.2223677474	 0.0235064095	-0.308075
O	-0.0642789523	 4.0286770881	-0.9059694404	-0.287784
H	-2.1735985548	 1.64946239	 0.0586728743	 0.123874
H	-2.0162781557	 4.176272334	-0.0617039281	 0.090045
H	-0.1346510018	 5.1155689005	 1.4121266946	 0.120291
H	-0.0995160812	 3.464573251	 2.1281108029	 0.111313
H	 1.8311313576	 4.3465775119	 0.0108932425	 0.089112
H	 1.8837934281	 1.9083982361	 0.8692998817	 0.129156
H	 1.8282939537	 2.0065316163	-0.8886399396	 0.139144
113.0991	162.2184	297.6173	344.0973	373.989	481.3101	544.1457	557.0827	574.0085	612.1291	786.069	840.6404	857.9937	876.8715	885.2717	931.5736	949.7958	989.1708	1002.5164	1063.2896	1075.6992	1101.4571	1174.9929	1183.5354	1222.9416	1249.8358	1303.4666	1317.834	1323.4253	1349.7283	1376.9764	1464.6381	1487.1138	1674.9181	2334.804	3036.3628	3073.4317	3078.1217	3089.7597	3111.0256	3146.2136	3203.3859
N#CC1=CC2CC(C1)O2	N#CC1=C[C@H]2C[C@@H](C1)O2	
InChI=1S/C7H7NO/c8-4-5-1-6-3-7(2-5)9-6/h1,6-7H,2-3H2	InChI=1S/C7H7NO/c8-4-5-1-6-3-7(2-5)9-6/h1,6-7H,2-3H2/t6-,7+/m0/s1
