16
gdb 82266	3.20663	1.39313	1.0807	3.9098	77.4	-0.2547	-0.0498	0.2049	1087.7198	0.125485	-400.758183	-400.75044	-400.749496	-400.790475	29.589	
O	 0.0021072821	 1.4271944149	 0.0615379363	-0.419679
C	 0.0198811744	 0.0110101736	 0.0087600881	-0.010778
C	-1.4021359669	-0.5369508135	-0.0514249927	-0.048456
C	-2.2599900786	-0.0801789244	-1.1971388812	-0.26911
C	-1.5186448406	-1.406611415	-1.2895656532	-0.080433
C	-0.1977439126	-1.3271828074	-1.9608970443	-0.167485
C	 0.6481690221	-0.5350298431	-1.2846591451	 0.16712
C	 1.9541522138	-0.1434143524	-1.6713418344	 0.195516
N	 3.0268148428	 0.2204943821	-1.9197207967	-0.343485
H	 0.9134514278	 1.7392436447	 0.0994957978	 0.297399
H	 0.5528813029	-0.3933780384	 0.8826415274	 0.088276
H	-1.8803519012	-0.8223346413	 0.8764984252	 0.100242
H	-3.3340185916	-0.1278302414	-1.0556172819	 0.122225
H	-1.9107416525	 0.7446821568	-1.8066613109	 0.13832
H	-2.084555292	-2.3299945521	-1.3049682089	 0.103295
H	 0.0281870001	-1.8168247931	-2.9011197755	 0.127033
101.5549	130.69	187.083	273.8329	309.8221	382.145	444.8188	484.2397	560.1012	595.9053	657.87	694.8591	798.2224	822.0716	865.7749	900.968	928.4052	950.8519	995.7919	1043.6316	1062.6664	1080.8605	1103.1796	1112.8232	1173.1474	1199.4564	1240.402	1282.5003	1327.0603	1349.2591	1376.3051	1420.0342	1478.2893	1668.6431	2327.3556	2984.3557	3141.1479	3185.7728	3196.3857	3207.051	3235.1921	3801.1901
OC1C2CC2C=C1C#N	O[C@H]1[C@H]2C[C@H]2C=C1C#N	
InChI=1S/C7H7NO/c8-3-5-1-4-2-6(4)7(5)9/h1,4,6-7,9H,2H2	InChI=1S/C7H7NO/c8-3-5-1-4-2-6(4)7(5)9/h1,4,6-7,9H,2H2/t4-,6+,7-/m1/s1
