20
gdb 107855	3.44934	1.36462	1.30601	2.8549	78.12	-0.2175	0.0676	0.285	1057.2659	0.173207	-403.080774	-403.073279	-403.072335	-403.112718	30.333	
O	-0.0797351213	 1.3931133924	-0.0609301012	-0.423777
C	-0.010403458	-0.0276366321	-0.0216757329	-0.210279
C	-1.4189214647	-0.5542308617	-0.0323837267	 0.340764
C	-2.3662963115	-0.4074714309	-1.2570164709	-0.268818
C	-3.0962387135	-1.5733188407	-0.5948261634	 0.008553
C	-1.7578421521	-2.1178905062	-0.0265767152	-0.109515
C	-2.5282294587	-2.4188653005	 1.2528509424	-0.188242
N	-3.4101064221	-1.2365744109	 0.9026843729	-0.156106
C	-2.4067675451	-0.138118922	 1.07861071	-0.190681
H	 0.8175387138	 1.7389500805	-0.0652944125	 0.289051
H	 0.5491651798	-0.4208307733	-0.8859943213	 0.083781
H	 0.5063167992	-0.3770337079	 0.8885180255	 0.083936
H	-2.8719400803	 0.5490852028	-1.412214983	 0.105469
H	-1.8998475033	-0.7430576689	-2.1888946659	 0.095461
H	-3.8726817607	-2.1780135101	-1.0599855769	 0.075946
H	-1.0865140378	-2.7969711375	-0.5548911487	 0.063698
H	-3.1025647852	-3.3474248352	 1.180535189	 0.104352
H	-2.0465862637	-2.3604530038	 2.2345412836	 0.094586
H	-1.9953127162	-0.1560452865	 2.0914651349	 0.093642
H	-2.8526515386	 0.8422561026	 0.9007927003	 0.108178
79.9819	167.0281	237.4562	288.122	354.5264	417.6527	473.1977	523.3573	633.8685	661.5651	730.141	795.1364	830.6394	853.7869	884.2977	890.3654	938.4022	963.6715	977.2509	992.4298	1015.8273	1033.6478	1044.463	1066.5051	1126.1958	1139.2422	1155.4248	1179.9861	1191.4865	1198.4849	1221.4914	1243.6766	1251.8952	1262.9354	1269.8233	1299.6606	1306.6013	1359.5852	1464.7307	1488.7328	1505.9288	1515.4557	1529.0977	2953.1319	2981.7244	3038.2433	3049.1524	3063.3997	3094.4533	3098.5888	3106.6518	3116.7081	3133.2429	3829.9064
OCC12CC3C1CN3C2	OC[C@@]12C[C@H]3[C@@H]1CN3C2	
InChI=1S/C7H11NO/c9-4-7-1-6-5(7)2-8(6)3-7/h5-6,9H,1-4H2	InChI=1S/C7H11NO/c9-4-7-1-6-5(7)2-8(6)3-7/h5-6,9H,1-4H2/t5-,6-,7-/m0/s1
