14
gdb 10446	2.87394	1.70788	1.26696	5.8236	65.95	-0.3073	0.0062	0.3135	952.9436	0.107224	-341.599582	-341.591855	-341.590911	-341.632133	27.513	
N	-0.21794577	-1.0450459715	-0.5560056008	-0.292702
C	-0.0917143392	 0.0293001458	-0.1516240877	 0.280632
C	 0.0663878332	 1.3982405503	 0.3429933394	-0.422694
C	 1.4680568839	 1.9634159735	 0.1046755671	 0.176875
C	 1.8294191497	 2.4580613685	-1.2864681428	-0.277359
C	 1.6042220747	 3.4514179008	-0.1874990658	-0.303706
C	 2.512200222	 1.3506368	 0.8873881707	 0.251057
N	 3.345682735	 0.8673247787	 1.5271074686	-0.328819
H	-0.6663865815	 2.0344072276	-0.1645358336	 0.158629
H	-0.1754236345	 1.4213416198	 1.4109282217	 0.173291
H	 2.8423184581	 2.2854214723	-1.6280290761	 0.154268
H	 1.0677460266	 2.3420207507	-2.049335967	 0.142219
H	 0.6886032627	 4.0324156332	-0.1880884958	 0.135156
H	 2.4633336493	 3.9603467204	 0.2318138421	 0.153154
59.6203	120.2599	188.0077	228.4182	311.0771	334.9994	386.9776	489.784	567.9569	585.369	710.1004	784.566	874.3797	909.6404	936.5363	952.0536	987.3113	1016.2102	1075.4587	1100.088	1192.5647	1210.6217	1282.2551	1334.2875	1355.211	1458.0684	1470.349	1498.2265	2355.5211	2368.759	3051.6521	3093.5905	3146.2825	3149.9205	3233.2704	3246.4625
N#CCC1(CC1)C#N	N#CCC1(CC1)C#N	
InChI=1S/C6H6N2/c7-4-3-6(5-8)1-2-6/h1-3H2	InChI=1S/C6H6N2/c7-4-3-6(5-8)1-2-6/h1-3H2
