17
gdb 107529	2.00067	1.6611	1.10183	5.0092	72.48	-0.239	0.0137	0.2527	1119.8285	0.136218	-417.959008	-417.950469	-417.949525	-417.99268	31.542	
O	 0.0132665769	 1.4637810591	 0.1844716661	-0.405854
C	 0.0391506511	 0.057174895	-0.0017688585	-0.175816
C	-1.3362387221	-0.5366285678	-0.0249824792	 0.294012
C	-2.0680754937	-1.0567176859	 1.1992173838	-0.3294
C	-1.881006006	-1.9568551466	 0.0210917384	-0.078776
N	-2.9502332325	-1.6539502666	-0.9592120492	-0.320381
C	-2.3574028056	-0.2837180001	-1.1534623886	-0.192419
C	-3.3016703018	 0.8236462519	-0.988942266	 0.31407
N	-4.0353395029	 1.7039655513	-0.8404979455	-0.330572
H	-0.4839714938	 1.6469656683	 0.9891753613	 0.290892
H	 0.543754216	-0.0960013547	-0.9628619485	 0.111452
H	 0.6430187386	-0.4512256035	 0.7674610032	 0.092689
H	-1.4177301575	-1.2518439458	 2.0467607168	 0.120716
H	-3.0666422993	-0.7083943728	 1.4473027372	 0.140688
H	-1.3751306384	-2.9140184311	 0.0486256053	 0.109868
H	-2.8449919477	-2.1954047392	-1.811011606	 0.2338
H	-1.8488400914	-0.1756216716	-2.1170027904	 0.125032
66.7709	94.2907	129.3424	218.3879	286.9161	321.6847	368.2242	399.0842	450.7401	544.2679	551.768	691.3688	743.5152	817.3225	858.4644	915.2808	925.5739	955.967	985.8546	1004.9385	1037.1678	1051.1925	1065.7285	1080.8702	1110.4535	1184.8596	1185.8787	1258.7452	1276.4005	1343.6621	1362.3371	1373.4603	1410.3719	1429.7358	1484.3052	1503.7075	2358.6804	2973.395	3055.64	3058.9828	3116.85	3192.6953	3210.7305	3529.4536	3807.7663
OCC12CC1NC2C#N	OC[C@]12C[C@H]1N[C@H]2C#N	
InChI=1S/C6H8N2O/c7-2-5-6(3-9)1-4(6)8-5/h4-5,8-9H,1,3H2	InChI=1S/C6H8N2O/c7-2-5-6(3-9)1-4(6)8-5/h4-5,8-9H,1,3H2/t4-,5+,6-/m1/s1
