16
gdb 105139	2.44373	1.22429	0.96107	3.778	77.81	-0.2488	-0.0035	0.2453	1236.1964	0.123527	-396.867355	-396.858046	-396.857101	-396.901593	33.707	
N	-0.1796423974	 1.4638597086	 0.1352188921	-0.505367
C	 0.3228719523	 0.1308462868	-0.1828589953	-0.229765
C	 0.9353229172	-0.4751525211	 1.066765658	 0.172592
N	-0.0363552905	-0.978984431	 2.0554774867	-0.342849
C	 0.8362433151	-1.9534466421	 1.3722393516	-0.31536
C	 0.2354903579	-2.8874532289	 0.4612406395	 0.369749
C	-0.2305034677	-3.698268889	-0.293564191	-0.401241
C	 2.1198537354	 0.1854142531	 1.573804998	 0.270293
N	 3.0720321482	 0.6885028211	 1.9953063717	-0.339157
H	-0.4754948427	 1.9387796321	-0.7106181175	 0.236462
H	-0.9976851104	 1.3809172522	 0.7314717929	 0.241089
H	-0.4319244213	-0.575969683	-0.5550643469	 0.114702
H	 1.0994288745	 0.220649479	-0.950044993	 0.124032
H	 0.2977332685	-0.821198633	 3.0034648107	 0.258193
H	 1.6695961638	-2.3546621761	 1.9443353043	 0.138656
H	-0.6503614029	-4.4106834686	-0.9604109518	 0.207971
82.8618	111.1476	122.6071	158.5663	219.1667	265.0161	277.8764	353.3521	398.6818	483.6341	545.4534	592.6505	628.9919	647.8633	668.5937	690.2749	825.8179	860.0695	892.0398	949.9955	975.3245	1050.7013	1076.0419	1101.5151	1178.0845	1205.2726	1265.5827	1324.7567	1343.6012	1429.2062	1431.3053	1495.6733	1655.0408	2243.4484	2352.1113	3006.8066	3076.0679	3138.6536	3501.2071	3502.5349	3508.6451	3585.748
NCC1(NC1C#C)C#N	NC[C@]1(N[C@H]1C#C)C#N	
InChI=1S/C6H7N3/c1-2-5-6(3-7,4-8)9-5/h1,5,9H,3,7H2	InChI=1S/C6H7N3/c1-2-5-6(3-7,4-8)9-5/h1,5,9H,3,7H2/t5-,6-/m0/s1
