21
gdb 109553	2.05922	1.51971	1.00697	3.4159	79.72	-0.2328	-0.0143	0.2184	1258.5009	0.179588	-424.230838	-424.220502	-424.219558	-424.266356	36.821	
C	 0.1220839309	 1.468774418	-0.0038194816	-0.240911
O	-0.1473558347	 0.0855918916	-0.100005161	-0.236316
C	 0.5670456876	-0.5716524793	-1.1180247174	 0.079556
C	 1.9076237808	-1.2424895428	-0.6288722276	-0.117904
C	 2.623520071	-0.7617224416	 0.6248747919	-0.415212
C	 1.1047982273	-2.5528869183	-0.5292219218	 0.380961
O	 1.2604181383	-3.5672676619	 0.0880636663	-0.307517
C	-0.04932406	-1.9872172952	-1.3717208986	-0.121231
C	-1.4838039712	-2.2914722021	-0.9673626841	-0.407026
H	 1.1688345371	 1.6743498568	 0.2578375513	 0.112445
H	-0.1080330259	 1.9859772837	-0.9477103127	 0.109727
H	-0.5221901521	 1.8666863855	 0.7837993236	 0.13112
H	 0.6554331913	 0.0727085191	-2.0016198352	 0.062195
H	 2.6044291575	-1.3226343374	-1.4734493451	 0.098091
H	 1.9038580414	-0.5497529201	 1.4198145277	 0.134339
H	 3.2997415481	-1.5431264149	 0.9842739683	 0.136074
H	 3.2149793515	 0.1400314319	 0.4393085435	 0.113907
H	 0.1281638564	-2.2648217989	-2.4189493824	 0.102269
H	-1.6864887677	-1.9278672274	 0.0416691459	 0.139034
H	-2.1974355954	-1.8185839112	-1.6487582473	 0.115933
H	-1.6539756822	-3.3717993356	-0.9876143737	 0.130464
51.7009	113.4176	150.447	164.4028	179.9606	196.9363	207.7596	222.0767	241.5616	338.2456	454.9431	499.3579	547.2501	580.2407	733.1769	767.7984	808.4125	899.1254	954.0627	958.0778	968.5106	1016.107	1094.5627	1112.7503	1138.0212	1159.3388	1160.0594	1180.3506	1184.9697	1220.5982	1255.6619	1261.9361	1316.0286	1353.0807	1383.426	1399.6409	1407.6723	1480.1248	1485.3386	1488.0266	1494.8043	1498.6127	1501.7584	1512.232	1886.5454	2985.6461	3017.1394	3027.2315	3037.8055	3040.0351	3044.2729	3047.7178	3108.8374	3112.8493	3118.1056	3123.3855	3137.8525
COC1C(C)C(=O)C1C	CO[C@H]1[C@@H](C)C(=O)[C@H]1C	
InChI=1S/C7H12O2/c1-4-6(8)5(2)7(4)9-3/h4-5,7H,1-3H3	InChI=1S/C7H12O2/c1-4-6(8)5(2)7(4)9-3/h4-5,7H,1-3H3/t4-,5+,7-
