15
gdb 33819	2.21037	1.59658	1.13657	5.8218	76.66	-0.2884	-0.0292	0.2592	1078.075	0.113629	-379.674776	-379.666964	-379.66602	-379.707302	29.071	
N	 0.0890896493	-1.1610819954	-0.0459978543	-0.334718
C	 0.0589671762	-0.0044832105	-0.0211056449	 0.219185
C	 0.001631912	 1.4190298422	 0.0339687492	 0.153568
C	 0.2767018542	 2.2861103649	-1.1661091604	-0.349074
C	 1.1794752499	 2.4492781436	 0.028056109	 0.153606
C	 0.4715321646	 3.2621419992	 1.1268792656	-0.283102
C	-0.7033638114	 2.2342685051	 1.1329425937	-0.283081
C	 2.5823797304	 2.2027383223	-0.0336979688	 0.219177
N	 3.7245634604	 2.0190495698	-0.0642195644	-0.33472
H	 0.7183455537	 1.7763219848	-2.0144547851	 0.165124
H	-0.4205311277	 3.0817214697	-1.4149575834	 0.137287
H	 1.0256719842	 3.2641761008	 2.0653650391	 0.142987
H	 0.2320295491	 4.2912455382	 0.8488687098	 0.125387
H	-1.6931201304	 2.607056479	 0.8588937359	 0.125378
H	-0.7734974345	 1.6900639163	 2.0746211892	 0.142994
91.0992	142.6594	180.6089	207.5188	302.6293	394.4216	452.7602	497.654	556.9325	571.5182	641.1169	658.7393	739.7268	788.2781	820.547	939.0497	946.4369	983.844	1017.1577	1098.7191	1119.6936	1125.7665	1214.6459	1219.7846	1249.2587	1254.8696	1316.9977	1384.1845	1479.9004	1482.743	1508.3516	2349.0039	2350.5758	3074.1333	3079.6848	3123.1388	3134.1478	3149.9981	3228.952
N#CC12CC1(CC2)C#N	N#C[C@]12C[C@]1(CC2)C#N	
InChI=1S/C7H6N2/c8-4-6-1-2-7(6,3-6)5-9/h1-3H2	InChI=1S/C7H6N2/c8-4-6-1-2-7(6,3-6)5-9/h1-3H2/t6-,7+
