20
gdb 37800	2.42713	2.10827	1.66319	0.8207	77.24	-0.2201	0.0859	0.3059	915.4221	0.175249	-403.133479	-403.126805	-403.12586	-403.164087	28.425	
C	-0.0279273371	 1.492110904	 0.0009369758	-0.246364
C	 1.4120031582	 1.9826306271	 0.0308099073	-0.03035
C	 2.2855163134	 0.8404821557	 0.4620016864	-0.037668
C	 1.3762455841	-0.3387496568	 0.7877778189	-0.270639
C	 0.0650816759	-0.0552049558	 0.0255749272	 0.09838
O	 0.0214502757	-0.6196402098	-1.2825608996	-0.262988
C	 1.2388625508	-0.6384021825	-1.9993027812	-0.082794
C	 1.9451462114	 0.7144019379	-2.1180149078	-0.167386
N	 2.3647292313	 1.3872620077	-0.8893584077	-0.091905
H	-0.5535908846	 1.8552035002	 0.8930247201	 0.098702
H	-0.5950437045	 1.8292812779	-0.8722790514	 0.109364
H	 1.6071475707	 3.0154744491	 0.310462295	 0.082016
H	 3.1788271005	 0.979724154	 1.066255581	 0.085549
H	 1.7932325786	-1.3223588635	 0.556371212	 0.112706
H	 1.1770660271	-0.3246594565	 1.8664060675	 0.104201
H	-0.798880296	-0.4914237952	 0.5332979596	 0.085773
H	 1.9368856052	-1.3749189731	-1.5736029205	 0.091856
H	 0.9826011467	-0.9890291441	-3.0048792268	 0.106443
H	 2.8437662745	 0.5511135826	-2.7283192623	 0.104836
H	 1.3092953882	 1.4129880313	-2.6746850531	 0.110268
178.1636	244.6256	340.9324	390.1604	427.9997	451.8551	458.9513	609.5064	675.8518	716.301	780.2826	799.7277	814.3315	865.4369	886.8337	912.231	940.8701	969.4482	983.6824	1029.6619	1057.5245	1063.0358	1097.1655	1112.7957	1132.3431	1167.0316	1181.2529	1229.4041	1243.3531	1280.9823	1292.3198	1310.7464	1319.7311	1334.8219	1351.4353	1376.1956	1391.5757	1415.7459	1423.1923	1468.6083	1480.4068	1488.6691	1511.1712	2988.8273	3013.3251	3030.7826	3037.0341	3058.8432	3071.2761	3078.0207	3084.974	3094.374	3125.4485	3136.3044
C1C2C3CC1OCCN23	C1[C@H]2[C@H]3C[C@@H]1OCCN23	
InChI=1S/C7H11NO/c1-2-9-5-3-6-7(4-5)8(1)6/h5-7H,1-4H2	InChI=1S/C7H11NO/c1-2-9-5-3-6-7(4-5)8(1)6/h5-7H,1-4H2/t5-,6+,7-,8?
