21
gdb 40778	3.66666	1.12208	0.96259	1.4733	81.39	-0.2261	0.0833	0.3093	1278.7125	0.184215	-387.061324	-387.05332	-387.052376	-387.094194	31.681	
C	-0.2227988925	 1.3848182401	-0.1929061482	-0.273341
C	 1.2316575685	 1.1131324337	 0.1028002723	-0.274854
C	 0.2490143293	-0.0288318891	 0.0505385711	 0.029566
C	-0.1478802376	-0.7640854941	 1.3103249128	-0.022699
C	-1.5511846495	-1.4200197362	 1.2195085252	-0.109371
O	-1.5383980825	-2.5696997076	 2.062240133	-0.258121
C	-0.2091619194	-3.0124470676	 2.1690761198	 0.115048
C	 0.5836658151	-3.2323528946	 0.9065984311	-0.333054
C	 0.7347856017	-1.9444773906	 1.7052464865	-0.084732
H	-0.8140861289	 1.8625930443	 0.5818343863	 0.110045
H	-0.5003398661	 1.6722724668	-1.2008917285	 0.111292
H	 1.9495108648	 1.2137449096	-0.7035869001	 0.111583
H	 1.6137659214	 1.4090331265	 1.0745560331	 0.109577
H	 0.3122372905	-0.6659014857	-0.8284836007	 0.081141
H	-0.1402201181	-0.0529174225	 2.1471614862	 0.07089
H	-2.3581416731	-0.7639436854	 1.5562603485	 0.110196
H	-1.7664933921	-1.7077102001	 0.179672598	 0.092424
H	-0.0567818335	-3.6312683275	 3.0452866694	 0.098964
H	 1.4061806458	-3.937957949	 0.9530267764	 0.111992
H	 0.0688663884	-3.214935348	-0.0483165413	 0.115669
H	 1.6737728878	-1.745313953	 2.2079204793	 0.087786
75.1701	113.5133	162.4785	262.8167	286.1476	402.8456	410.0551	472.9536	637.275	696.0489	759.6223	782.5465	808.8623	828.1805	857.8701	899.9669	920.3485	951.254	975.0888	976.7704	996.0606	1030.065	1041.4815	1057.4122	1073.2494	1077.6459	1092.7206	1115.5514	1136.7191	1161.6772	1195.2237	1198.8357	1203.6674	1226.2565	1242.9111	1298.7015	1306.6642	1318.6751	1377.5763	1396.8058	1430.5034	1470.2188	1478.4433	1506.8227	1523.3965	2989.6667	3014.4786	3087.5091	3128.1466	3130.9331	3132.4299	3135.8093	3174.669	3185.9713	3206.0934	3217.0032	3221.2155
C1CC1C1COC2CC12	C1CC1[C@H]1CO[C@H]2C[C@@H]12	
InChI=1S/C8H12O/c1-2-5(1)7-4-9-8-3-6(7)8/h5-8H,1-4H2	InChI=1S/C8H12O/c1-2-5(1)7-4-9-8-3-6(7)8/h5-8H,1-4H2/t6-,7+,8-/m0/s1
