19
gdb 88130	2.65663	1.42481	1.07394	3.4963	76.28	-0.2366	-0.033	0.2036	1174.7835	0.158547	-423.04726	-423.038649	-423.037705	-423.080699	32.396	
C	-0.0254093746	 1.4441738152	-0.3146146187	-0.424794
C	 0.1184341495	-0.0272825005	-0.0255743754	 0.008945
O	 1.4388231223	-0.5422984416	 0.1438830629	-0.284898
C	 0.5600374802	-0.5448426968	 1.2816234276	 0.307157
C	 0.9239642536	 0.2596944534	 2.5175328591	-0.312523
C	 1.2052931072	-0.8145828221	 3.5983178753	-0.230308
C	 0.2346736726	-1.9631671472	 3.2670728754	-0.325883
C	 0.1090716906	-1.9252544885	 1.7451463701	 0.354112
O	-0.2672930867	-2.8091427986	 1.0200425352	-0.312671
H	 0.6331651573	 2.0434303087	 0.3181007405	 0.12737
H	 0.2238340281	 1.6495139104	-1.3607695272	 0.135609
H	-1.0597522399	 1.7643182173	-0.1492932165	 0.125686
H	-0.5259797288	-0.6926698397	-0.6025305327	 0.109312
H	 1.7768786807	 0.9165195668	 2.3378228013	 0.122679
H	 0.0752956103	 0.8857097251	 2.8201629965	 0.109329
H	 2.2378666726	-1.1676371416	 3.5041949669	 0.119909
H	 1.0827977975	-0.429682941	 4.612944772	 0.106966
H	 0.5435142925	-2.951121328	 3.6145006376	 0.133102
H	-0.7621439852	-1.7678459812	 3.6867874001	 0.130899
65.264	158.3605	163.699	188.0911	193.8275	305.156	363.1851	442.7332	502.021	544.1389	557.5779	639.3159	676.1451	770.876	828.208	865.5385	909.3886	922.3303	961.964	991.8064	1018.9488	1034.1553	1078.436	1132.2411	1158.0259	1184.266	1190.0478	1221.6465	1257.0666	1299.558	1307.6005	1336.5867	1362.3305	1408.2605	1450.7381	1459.7739	1478.587	1487.1734	1501.1149	1505.8811	1846.3748	3024.1903	3033.4387	3039.9273	3052.6602	3102.2054	3102.6636	3105.5112	3114.4605	3117.444	3133.2031
CC1OC11CCCC1=O	C[C@H]1O[C@]21CCCC2=O	
InChI=1S/C7H10O2/c1-5-7(9-5)4-2-3-6(7)8/h5H,2-4H2,1H3	InChI=1S/C7H10O2/c1-5-7(9-5)4-2-3-6(7)8/h5H,2-4H2,1H3/t5-,7+/m1/s1
