20
gdb 121453	6.05338	0.69076	0.62968	3.0085	84.96	-0.2253	-0.0049	0.2205	1788.4299	0.171213	-399.355892	-399.34641	-399.345466	-399.391322	33.844	
C	 0.0168128285	 1.6186090196	-0.2425478554	-0.384505
C	 0.0910935545	 0.0908808124	-0.2294262694	-0.163567
C	-1.0004638282	-0.5521650222	 0.6264573278	-0.139805
N	-0.887935649	-2.0043335412	 0.6071643901	-0.337639
C	-1.7272638384	-2.6782092203	 1.2730561955	 0.410807
C	-1.8039903714	-4.1969118377	 1.3999390579	-0.259817
N	-2.9478466931	-4.4887015791	 2.2791799423	-0.244905
C	-3.4358198591	-3.3542250184	 2.5971809174	 0.07026
N	-2.797858458	-2.2419663269	 2.0637439686	-0.353674
H	 0.8090276708	 2.0492215508	-0.8621107193	 0.114996
H	-0.9422206302	 1.9691403771	-0.641473338	 0.110532
H	 0.1242495912	 2.0330808559	 0.7666240712	 0.110533
H	 0.0081024119	-0.3039681296	-1.2485494668	 0.10438
H	 1.0654553306	-0.2405803898	 0.1476165713	 0.104383
H	-0.9231707947	-0.1672893773	 1.6590581568	 0.084634
H	-1.9889042625	-0.2311575849	 0.2518793946	 0.084623
H	-1.9432791744	-4.670797806	 0.4223842171	 0.144949
H	-0.8816118171	-4.60726441	 1.8246817433	 0.144949
H	-4.297461765	-3.2174465486	 3.2432406981	 0.133831
H	-3.0582429863	-1.283956904	 2.2176271668	 0.265034
39.4787	88.5415	107.0623	112.694	230.7112	239.5536	285.5902	332.8154	340.1851	498.726	511.7355	630.7696	728.5723	754.312	878.064	885.579	888.1683	904.9711	929.3648	986.6812	994.2137	1032.4104	1064.2832	1089.1377	1132.9937	1147.7886	1184.4126	1209.1693	1263.0912	1292.8241	1325.1609	1327.4353	1350.4441	1403.4039	1408.1223	1415.2496	1453.8278	1481.0237	1493.0782	1501.4202	1510.7937	1684.5343	1779.6177	2931.8726	2959.4129	3026.7969	3038.7632	3051.1563	3068.1162	3082.9135	3094.3547	3104.0712	3190.9782	3687.5479
CCCN=C1CN=CN1	CCCN=C1CN=CN1	
InChI=1S/C6H11N3/c1-2-3-8-6-4-7-5-9-6/h5H,2-4H2,1H3,(H,7,8,9)	InChI=1S/C6H11N3/c1-2-3-8-6-4-7-5-9-6/h5H,2-4H2,1H3,(H,7,8,9)
