16
gdb 84530	2.22183	1.8681	1.48887	4.1675	72.69	-0.2535	-0.0164	0.2371	943.3601	0.12583	-400.753036	-400.745558	-400.744614	-400.784869	29.114	
O	 0.1639697753	 1.3881730123	-0.2466193722	-0.432317
C	 0.0425377012	-0.0051141105	-0.0430224071	 0.07824
C	 0.6746899299	-0.5169752112	 1.2432749831	-0.113579
C	-0.1544481065	-1.2881675591	 1.9459854563	-0.081973
C	-1.4905767806	-1.3953507979	 1.2807216636	-0.096961
C	-2.2906816509	-0.0890082005	 1.185644011	-0.196755
C	-1.9599443388	 1.061290996	 1.9798720392	 0.300009
N	-1.69394466	 2.0012525991	 2.6016785869	-0.354253
C	-1.3964270426	-0.5515661505	 0.0406820499	-0.094058
H	-0.1523554406	 1.839756205	 0.5459541424	 0.301392
H	 0.5343999622	-0.4531650556	-0.915794262	 0.103415
H	 1.6777603351	-0.2251406407	 1.5298975903	 0.116477
H	 0.0596157531	-1.755199428	 2.8996685043	 0.113707
H	-2.064032054	-2.3136779878	 1.3265086794	 0.109379
H	-3.3557832769	-0.1983004286	 1.0075000418	 0.139145
H	-1.9057947859	-0.8182288619	-0.8765761569	 0.108133
120.7293	131.8499	213.4257	267.1169	373.1282	420.0218	458.8431	515.634	603.7509	628.7551	735.3911	738.9727	764.6744	793.7914	834.9658	897.8949	943.0894	968.1907	980.7993	1005.8748	1035.1069	1059.3347	1090.602	1109.1539	1144.2208	1185.407	1271.6439	1295.7001	1304.7782	1349.7264	1367.9484	1397.1359	1436.1497	1671.5905	2342.276	3028.9631	3163.4463	3182.4176	3196.92	3200.8178	3224.2416	3778.6708
OC1C=CC2C(C#N)C12	O[C@H]1C=C[C@H]2[C@@H](C#N)[C@@H]12	
InChI=1S/C7H7NO/c8-3-5-4-1-2-6(9)7(4)5/h1-2,4-7,9H	InChI=1S/C7H7NO/c8-3-5-4-1-2-6(9)7(4)5/h1-2,4-7,9H/t4-,5+,6-,7-/m0/s1
