19
gdb 41855	2.35954	2.06876	1.64795	2.0472	74.42	-0.2469	0.0072	0.2541	914.2373	0.163361	-423.039758	-423.03302	-423.032076	-423.070476	28.244	
C	 0.0473167875	 1.4203178727	-0.0926652684	 0.019655
O	 1.3696801366	 1.9087203735	-0.0664992722	-0.268922
C	 2.1509767655	 1.4394108788	 1.0403693748	 0.095708
C	 1.6600193439	 1.9722858036	 2.4026042007	-0.274152
C	 0.5433723166	 1.156205849	 3.0048796648	-0.049684
C	 0.0879871094	 0.0298502011	 2.4550087986	-0.082537
C	 0.664577039	-0.4945754024	 1.158078532	 0.062878
C	 2.1365405267	-0.0918600529	 1.0285043703	-0.226155
O	-0.0411730323	 0.0216242724	 0.0074525791	-0.264684
H	-0.5486193072	 1.8991006321	 0.7001502199	 0.086217
H	-0.3593965395	 1.6850858821	-1.0715669948	 0.115529
H	 3.1524413202	 1.8313186431	 0.8436568622	 0.081419
H	 2.5087243932	 1.9958364112	 3.1017537024	 0.112654
H	 1.3469298231	 3.0171725726	 2.2834806904	 0.121102
H	 0.1121433661	 1.5272562	 3.9324030604	 0.092874
H	-0.7383169277	-0.5144141874	 2.9022212172	 0.091762
H	 0.5371878271	-1.577551864	 1.0900902033	 0.080425
H	 2.5412990063	-0.4612038934	 0.0825719252	 0.107836
H	 2.7270486053	-0.5000532918	 1.8551689241	 0.098074
168.2368	255.3068	333.8901	375.0896	399.454	428.0354	498.1739	552.5041	646.3413	685.0553	730.3086	794.8876	825.957	872.3254	909.9965	924.7668	949.659	1001.3245	1015.5182	1017.2344	1028.4252	1064.9326	1077.5821	1136.0455	1152.5689	1191.3535	1205.6095	1244.4152	1286.0848	1306.6913	1351.3119	1354.1245	1368.7565	1384.3751	1391.2197	1417.9274	1447.3941	1454.6036	1471.8602	1515.0349	1710.7008	2979.875	3005.7461	3047.8804	3049.5983	3071.342	3079.3631	3101.3799	3105.8794	3144.0169	3177.1288
C1OC2CC=CC(C2)O1	C1O[C@H]2CC=C[C@H](C2)O1	
InChI=1S/C7H10O2/c1-2-6-4-7(3-1)9-5-8-6/h1-2,6-7H,3-5H2	InChI=1S/C7H10O2/c1-2-6-4-7(3-1)9-5-8-6/h1-2,6-7H,3-5H2/t6-,7+/m1/s1
