21
gdb 69946	3.47007	1.42744	1.26182	1.7191	81.17	-0.2432	0.08	0.3232	1082.6878	0.184559	-387.077509	-387.069859	-387.068915	-387.109146	31.325	
C	-0.055995245	 1.5827481	 0.1061912894	-0.484925
C	 0.0653630011	 0.0840465098	-0.0370598056	 0.358026
C	-0.8702628839	-0.8208740058	 0.7209742009	-0.33814
C	 0.6040764028	-0.805276318	 1.0767107523	-0.090127
C	 1.4946894404	-1.8921853291	 0.4913229943	-0.069849
C	 0.8683155104	-3.2899300942	 0.3138607032	-0.094929
O	 0.4555873934	-2.9675305859	-1.0349216632	-0.297218
C	 1.3002966854	-1.7853521332	-1.0439657838	 0.120174
C	 0.5863972375	-0.4696575969	-1.3660263256	-0.30303
H	 0.8971960379	 2.0836753506	-0.1021070727	 0.11145
H	-0.801551222	 1.9900948813	-0.5872398656	 0.117716
H	-0.3655970442	 1.8595082469	 1.1192334916	 0.112972
H	-1.5486539479	-0.3546058498	 1.4286932065	 0.101645
H	-1.2760145815	-1.6871994983	 0.210454611	 0.130876
H	 0.8836235457	-0.3744416589	 2.0323593997	 0.077335
H	 2.5100882235	-1.8550709017	 0.8893197687	 0.069709
H	 1.5940787139	-4.1141111295	 0.3237355452	 0.095227
H	 0.019089405	-3.5443722399	 0.9570017932	 0.104999
H	 2.1834095592	-1.9560547599	-1.6719879044	 0.071017
H	-0.2032496548	-0.6286287675	-2.108972611	 0.112772
H	 1.3059124129	 0.2355383699	-1.8006088039	 0.094301
160.553	180.7679	215.0401	270.0847	325.9619	371.1888	387.6824	490.4974	566.1108	665.3702	701.8373	795.0745	806.117	853.3971	861.471	898.9048	926.5072	934.2574	957.875	1005.4779	1013.4357	1022.193	1050.0454	1059.372	1081.4338	1102.3024	1114.6512	1122.3605	1169.8922	1201.9254	1211.4591	1248.24	1275.3464	1297.5611	1323.0971	1335.3763	1351.6794	1366.2512	1405.1485	1420.9684	1470.365	1487.4532	1491.6062	1503.4963	1522.0014	3008.1919	3017.0887	3019.0901	3035.345	3069.2267	3073.6634	3076.1238	3094.1456	3095.1197	3125.8108	3161.3839	3214.9322
CC12CC1C1COC1C2	C[C@]12C[C@H]1[C@H]1CO[C@H]1C2	
InChI=1S/C8H12O/c1-8-2-6(8)5-4-9-7(5)3-8/h5-7H,2-4H2,1H3	InChI=1S/C8H12O/c1-8-2-6(8)5-4-9-7(5)3-8/h5-7H,2-4H2,1H3/t5-,6+,7+,8-/m1/s1
