14
gdb 130003	5.47052	1.29359	1.0489	5.1397	70.37	-0.1943	0.0282	0.2225	1053.1274	0.10551	-429.068987	-429.061933	-429.060989	-429.1001	27.339	
N	 0.0621185274	 1.3646985289	 0.1327312118	-0.597445
C	-0.0323992581	-0.0179239778	 0.0246986939	 0.361331
N	-1.131487887	-0.7206087014	 0.0422641891	-0.398083
C	-0.6854901069	-2.0426507694	 0.0415439451	 0.206442
C	 0.6946493874	-2.0830128886	 0.0140127655	 0.43008
N	 1.0878635837	-3.370562658	-0.0756321456	-0.356558
N	-0.0062244327	-4.1985835402	-0.0524346324	-0.234199
C	-1.0738277979	-3.4009855582	-0.001564843	-0.128763
N	 1.1447456525	-0.7795140641	-0.0411537171	-0.448839
H	 0.6132289958	 1.7934213254	-0.602305541	 0.251145
H	-0.8664423781	 1.7682497019	 0.1495239288	 0.266003
H	 2.0023473011	-3.7820208615	-0.0271382929	 0.269787
H	-2.0592404739	-3.8416737106	 0.0034448353	 0.112481
H	 2.0501441067	-0.4320467764	 0.2265838924	 0.266617
151.7094	264.9311	276.5177	309.6088	320.6626	380.6554	393.9477	536.7171	587.3157	656.0638	677.7191	752.9508	783.1797	792.3893	850.4995	876.9972	963.2981	989.1729	1055.9923	1135.4149	1193.792	1240.3347	1256.6446	1348.5256	1405.9912	1443.0608	1476.6245	1556.0534	1595.7997	1624.6558	1661.642	3252.3994	3522.6295	3622.9633	3663.8801	3692.7535
NC1=NC2=C(NN=C2)N1	Nc1nc2c([nH]nc2)[nH]1	
InChI=1S/C4H5N5/c5-4-7-2-1-6-9-3(2)8-4/h1H,(H4,5,6,7,8,9)	InChI=1S/C4H5N5/c5-4-7-2-1-6-9-3(2)8-4/h1H,(H4,5,6,7,8,9)
