17
gdb 17695	4.93251	1.50603	1.47236	2.0435	68.09	-0.2306	0.0837	0.3143	906.1738	0.143504	-363.751383	-363.744674	-363.74373	-363.78276	25.77	
C	 0.269967128	 1.4979253641	 0.070097168	-0.177728
O	 1.1381883129	 0.4150719357	-0.2602947576	-0.233063
C	-0.2289745166	 0.115611045	 0.0513365921	-0.094356
C	-0.4610279653	-0.6602590425	 1.3046836491	 0.333248
C	-1.7685006258	-0.8600920192	 2.1105727479	-0.211506
N	-0.7594980205	-1.6809769334	 2.9340492101	-0.145899
C	-0.2573327094	-2.1742249422	 1.5653534513	-0.207857
C	 0.1905997843	-0.4913115641	 2.6969011784	-0.209866
H	 0.4706576442	 1.982873482	 1.0243449572	 0.113878
H	 0.0228956136	 2.170098883	-0.7504550188	 0.117662
H	-0.8206571166	-0.1984173841	-0.8110301297	 0.091197
H	-2.1761799262	-0.0005850881	 2.650267279	 0.101705
H	-2.5631233957	-1.4658138647	 1.6659263856	 0.101647
H	-0.9387898529	-2.8781548517	 1.0793875367	 0.100045
H	 0.7664094867	-2.5562608993	 1.5855341497	 0.109975
H	 1.2474628022	-0.7467934103	 2.8016343589	 0.111917
H	-0.0697390029	 0.3929973899	 3.2855355021	 0.099002
62.1397	166.3613	187.2636	385.1837	444.8912	577.1045	593.0736	638.0805	791.4111	796.8908	846.3719	871.1685	923.3827	942.0086	960.6083	978.3573	997.8237	1023.3152	1039.4351	1095.0632	1152.4177	1156.1921	1160.0523	1167.8007	1168.9229	1171.1499	1198.7831	1200.35	1266.2013	1286.0729	1327.984	1444.4777	1510.9645	1512.7722	1526.8826	1565.1202	3045.3425	3049.2554	3057.8295	3083.2052	3090.1204	3113.0163	3120.476	3124.6167	3171.0761
C1OC1C12CN(C1)C2	C1O[C@H]1[C@@]12CN(C1)C2	
InChI=1S/C6H9NO/c1-5(8-1)6-2-7(3-6)4-6/h5H,1-4H2	InChI=1S/C6H9NO/c1-5(8-1)6-2-7(3-6)4-6/h5H,1-4H2/t5-/m1/s1
