21
gdb 91122	3.6355	1.39187	1.29609	1.7106	81.09	-0.2279	0.0872	0.3151	1075.0566	0.185714	-387.084748	-387.07755	-387.076606	-387.116016	29.927	
C	-0.1281458286	 1.5212622816	 0.0113921368	-0.411053
C	 0.0576455794	 0.0034769083	 0.0430965246	 0.021296
C	 0.9648787389	-0.568662662	-1.0984498293	-0.259619
C	 2.0154696246	-1.2977089239	-0.2615990596	-0.031877
C	 1.2183817874	-2.0016133893	 0.8934330631	-0.083497
C	 2.3080307067	-2.3321321044	 1.9077130909	-0.099681
O	 3.0734700669	-1.1092475573	 1.8758703333	-0.285589
C	 2.3517030488	-0.3394541039	 0.917952236	 0.121496
C	 0.8396181367	-0.5224599867	 1.2525826831	-0.033797
H	 0.8335976761	 2.0453293209	 0.0334850844	 0.115125
H	-0.6530176288	 1.83254038	-0.8981043564	 0.113564
H	-0.7148450644	 1.8673089326	 0.8693161048	 0.112879
H	-0.932727102	-0.4661780451	 0.0103720534	 0.068157
H	 0.4246992535	-1.2409102629	-1.7720427348	 0.096783
H	 1.4041091992	 0.2262397697	-1.7113655167	 0.096094
H	 2.8209863825	-1.8233572944	-0.7778013745	 0.062158
H	 0.4549588954	-2.754399746	 0.6896226517	 0.0651
H	 1.9263496534	-2.5117726352	 2.9204797393	 0.097879
H	 2.9399926609	-3.1794234792	 1.6136611223	 0.098162
H	 2.8322222571	 0.6297674827	 0.7859284456	 0.076877
H	 0.4708749164	-0.2731261054	 2.2498955819	 0.059543
146.3112	218.1175	235.9447	317.8841	344.8976	399.3718	447.0904	588.5219	651.9841	693.483	780.5488	823.3147	893.4301	912.2954	927.3185	931.716	955.551	958.9724	971.0797	995.7129	1019.6633	1025.0844	1030.6593	1065.4451	1091.0103	1105.699	1122.404	1174.5555	1188.0407	1208.0815	1225.7151	1240.4438	1257.9153	1271.5386	1276.1931	1296.4661	1319.1031	1348.2087	1375.1282	1391.9784	1411.2448	1496.8694	1498.6288	1503.9017	1525.4773	3014.9348	3023.2126	3027.3524	3040.9709	3051.4889	3080.8781	3092.8873	3095.7529	3097.2044	3098.1292	3106.5958	3126.7367
CC1CC2C3COC2C13	C[C@H]1C[C@@H]2[C@H]3CO[C@@H]2[C@@H]13	
InChI=1S/C8H12O/c1-4-2-5-6-3-9-8(5)7(4)6/h4-8H,2-3H2,1H3	InChI=1S/C8H12O/c1-4-2-5-6-3-9-8(5)7(4)6/h4-8H,2-3H2,1H3/t4-,5+,6+,7-,8-/m0/s1
