19
gdb 64113	3.65799	1.00938	0.95974	1.1028	88.76	-0.2301	-0.0241	0.206	1318.8718	0.156495	-385.876328	-385.866875	-385.865931	-385.910464	35.537	
C	 0.1042674465	 1.4674194118	-0.0797945744	-0.404329
C	-0.1000472253	-0.0506194639	 0.0385002738	 0.342164
C	-1.5939018904	-0.4075352443	 0.0037053612	-0.404323
O	 0.5515847494	-0.690523882	-1.0792831229	-0.306171
C	 1.5608970286	-1.5863382019	-0.6442918318	-0.181191
C	 1.5438224123	-1.5029133522	 0.8693101208	 0.170422
C	 0.6008489772	-0.6320355106	 1.2403115119	-0.255317
C	 2.4182797929	-2.2590442108	 1.6813527845	 0.2061
C	 3.1858883152	-2.9258491495	 2.327912098	-0.409961
H	 1.1695683471	 1.7118162947	-0.0714022844	 0.120032
H	-0.3274860292	 1.8283977661	-1.0180608045	 0.124661
H	-0.3808766861	 1.9944202799	 0.748269276	 0.111643
H	-2.0372568603	-0.0594441492	-0.9340186225	 0.124656
H	-1.7302898966	-1.4898980917	 0.0712335067	 0.120022
H	-2.1294842957	 0.063828575	 0.8342190563	 0.111641
H	 1.3488062494	-2.6068154949	-0.9967717803	 0.11263
H	 2.5387153576	-1.2944866825	-1.0556937731	 0.112648
H	 0.3508729289	-0.3601436479	 2.2575171279	 0.110346
H	 3.8553075782	-3.506755836	 2.9125658367	 0.194329
60.7698	113.9116	141.345	203.6363	244.5717	262.4626	321.5217	359.7995	368.7644	512.5035	514.4325	533.302	538.9599	602.2379	634.3245	642.5597	820.0388	880.7354	893.0989	914.9453	922.2617	951.238	1008.8763	1044.1357	1089.0248	1131.7958	1178.3852	1207.8791	1210.5425	1248.0498	1311.3399	1372.7419	1391.0652	1410.6371	1475.4887	1479.2321	1494.8636	1502.5342	1524.7861	1686.6039	2225.3988	2986.0753	3008.0436	3035.354	3040.4636	3107.4192	3114.2304	3121.0546	3123.3844	3222.8977	3503.5237
CC1(C)OCC(=C1)C#C	CC1(C)OCC(=C1)C#C	
InChI=1S/C8H10O/c1-4-7-5-8(2,3)9-6-7/h1,5H,6H2,2-3H3	InChI=1S/C8H10O/c1-4-7-5-8(2,3)9-6-7/h1,5H,6H2,2-3H3
