19
gdb 36852	4.39851	0.93124	0.87619	2.5054	75.29	-0.2366	0.069	0.3056	1360.1987	0.158681	-422.955302	-422.947035	-422.946091	-422.989111	31.005	
C	 0.0075825164	 1.527341489	-0.6859496893	-0.353854
C	-0.029705654	 0.0190687445	-0.5481393804	 0.104403
C	-0.6606137359	-0.6447607453	 0.5979540151	-0.171121
O	-1.3116894662	-0.5972574147	-0.6743509503	-0.240564
C	 1.3024088686	 2.0994127598	-0.1949823599	 0.491853
C	 1.6606848998	 2.479230987	 1.209945168	-0.328759
C	 1.8168646081	 3.4941595303	 0.0907115737	-0.199187
C	 3.0071265839	 3.0913919365	-0.7692223742	-0.084784
O	 2.4931426256	 1.7394714279	-0.917570927	-0.32765
H	-0.1307730667	 1.7918721687	-1.7415420668	 0.116932
H	-0.8258305276	 1.9622684736	-0.1244340662	 0.110764
H	 0.7732119538	-0.5082529973	-1.0634904564	 0.112316
H	-0.3197452933	-1.6297029281	 0.9134774395	 0.11635
H	-1.1209505912	-0.0418550603	 1.3801896062	 0.108861
H	 0.8235316807	 2.6702278497	 1.8744362937	 0.113586
H	 2.5352229904	 2.0398877186	 1.6828007909	 0.113743
H	 1.3132262623	 4.4513516039	 0.0816100507	 0.101862
H	 3.043170323	 3.5961322355	-1.7412351473	 0.110177
H	 4.0008990321	 3.1103524007	-0.3057950601	 0.105073
59.4254	68.8805	123.5223	230.5584	341.1614	346.7514	374.0581	436.1073	457.5735	718.988	747.5364	806.6656	856.481	867.1307	877.7637	911.1344	951.5595	963.3844	979.5228	991.1083	1015.0423	1023.279	1062.3557	1072.4465	1108.9643	1132.8495	1154.8598	1163.9581	1176.5751	1186.2024	1248.7849	1267.7194	1290.4239	1335.526	1344.8461	1406.9993	1444.0069	1471.4739	1488.4668	1520.6597	1531.3599	3022.6979	3032.6823	3071.1401	3081.3091	3084.5178	3112.2971	3116.8822	3167.7755	3199.4608	3207.9207
C(C1CO1)C12CC1CO2	C([C@H]1CO1)[C@]12C[C@H]1CO2	
InChI=1S/C7H10O2/c1-5-3-9-7(1,5)2-6-4-8-6/h5-6H,1-4H2	InChI=1S/C7H10O2/c1-5-3-9-7(1,5)2-6-4-8-6/h5-6H,1-4H2/t5-,6-,7+/m0/s1
