21
gdb 38459	3.80975	1.28349	1.17054	1.4736	81.4	-0.2277	0.0786	0.3063	1139.764	0.184052	-387.067036	-387.059249	-387.058305	-387.099774	31.307	
C	 0.1791019364	 1.5306715603	 0.1319624589	-0.311411
C	 1.3785428745	 0.6409149445	 0.044949043	 0.103237
O	 1.6220632054	-0.0133793886	 1.2886089133	-0.338973
C	 0.3372925748	-0.7344736588	 1.1724511747	 0.456267
C	 0.5934203094	-2.2348325483	 0.9967986491	-0.247253
C	 0.6647971946	-2.7561099959	 2.4377203134	-0.210687
C	-0.4961908957	-2.0129076336	 3.1263346855	-0.20654
C	-0.5152408076	-0.6141824086	 2.4563709807	-0.265778
C	 0.004008048	 0.0414694932	-0.101077481	-0.20753
H	-0.0872352545	 1.985126966	 1.0815335414	 0.114385
H	-0.0135128847	 2.1443353676	-0.7431266373	 0.111146
H	 2.2073231765	 0.7591279361	-0.6432617135	 0.099797
H	-0.2667444631	-2.6831974525	 0.479910007	 0.090482
H	 1.4866108507	-2.4229657961	 0.3970711905	 0.103109
H	 0.5848301182	-3.8439768023	 2.5122362505	 0.090862
H	 1.6218652153	-2.4607119109	 2.8829413747	 0.112866
H	-1.437228382	-2.5389369627	 2.9283932762	 0.09645
H	-0.3839102928	-1.9584174369	 4.2122958974	 0.096812
H	-0.0617852308	 0.1457935046	 3.096953406	 0.117254
H	-1.5301952211	-0.279369353	 2.2229281943	 0.102322
H	-0.5033385516	-0.3692179241	-0.9643875347	 0.093184
40.2894	154.836	192.9368	271.7802	377.0318	399.8287	477.4982	506.1576	566.8553	712.8697	753.8631	779.0699	818.6929	846.7	863.036	886.7143	909.1307	939.2891	960.8241	973.2924	986.4567	1013.5316	1027.7199	1041.9645	1044.99	1062.4487	1085.2085	1116.9438	1165.7612	1183.9792	1202.3871	1232.9903	1244.0591	1262.4383	1298.4507	1306.1759	1335.2121	1342.9262	1357.1514	1366.5244	1471.2268	1472.6285	1476.7765	1491.5228	1508.6382	3014.5708	3037.2575	3044.1212	3061.0173	3087.3497	3097.2087	3107.759	3112.1822	3118.5565	3177.2894	3193.8053	3209.5575
C1C2OC3(CCCC3)C12	C1[C@H]2OC3(CCCC3)[C@@H]12	
InChI=1S/C8H12O/c1-2-4-8(3-1)6-5-7(6)9-8/h6-7H,1-5H2	InChI=1S/C8H12O/c1-2-4-8(3-1)6-5-7(6)9-8/h6-7H,1-5H2/t6-,7+/m0/s1
