22
gdb 53582	4.44134	0.64183	0.60859	1.4679	92.84	-0.2312	0.0643	0.2955	1947.3166	0.191428	-367.176235	-367.165119	-367.164175	-367.214045	39.253	
C	-0.0775609777	 1.4707477332	-0.3289878782	-0.496082
C	-0.0105225873	 0.0377587024	-0.0787928184	 0.082439
C	 0.0555359177	-1.1476706329	 0.1213232791	 0.048687
C	 0.102199982	-2.5862396682	 0.371143495	-0.363923
C	-1.2849262304	-3.2146935953	 0.3896297349	-0.039014
N	-1.8302198398	-3.6829130373	-0.8947252921	-0.361461
C	-1.5674192675	-4.6639531494	 0.1789904624	 0.320711
C	-0.4653879049	-5.6623763489	-0.1170452675	-0.435988
C	-2.7578867777	-5.2575344963	 0.9085975366	-0.4571
H	 0.5990873257	 2.0246610352	 0.3314946147	 0.144091
H	 0.2005863223	 1.7091525682	-1.3617246661	 0.146272
H	-1.0892440887	 1.8579613182	-0.1631396479	 0.143803
H	 0.7107197104	-3.0739576865	-0.3970045835	 0.132372
H	 0.5964761639	-2.7773244043	 1.3338615033	 0.121738
H	-1.9725647104	-2.6975665909	 1.0577860142	 0.082576
H	-2.8237399507	-3.4744752633	-0.9577726314	 0.223549
H	 0.329967336	-5.2190206934	-0.717923531	 0.127079
H	-0.0290643692	-6.0516861698	 0.8098856478	 0.112252
H	-0.8677499932	-6.5131591616	-0.6786392825	 0.115303
H	-3.2318556239	-6.0403199811	 0.3041856172	 0.119758
H	-2.4545507841	-5.7145048447	 1.8573875098	 0.121374
H	-3.5121603323	-4.4953514832	 1.1298081738	 0.111567
24.0434	42.1	73.0031	162.4874	187.1946	207.1747	213.6334	253.2553	273.235	362.8611	378.2018	391.509	444.3067	458.9381	526.6299	697.8624	763.8841	837.6594	859.9593	955.8952	962.8956	983.9051	994.0754	1046.9517	1053.8465	1057.8096	1074.9574	1127.9062	1157.5091	1167.3856	1202.1814	1262.8348	1309.4859	1325.1499	1356.0784	1412.1817	1415.9875	1423.2663	1453.4071	1462.9163	1478.4067	1479.4872	1480.2663	1490.4117	1499.9187	1513.5925	2374.1893	3013.5084	3021.0952	3024.415	3032.5104	3073.0997	3082.8528	3083.2112	3084.2893	3089.072	3097.6531	3113.3952	3137.2163	3494.0083
CC#CCC1NC1(C)C	CC#CC[C@H]1NC1(C)C	
InChI=1S/C8H13N/c1-4-5-6-7-8(2,3)9-7/h7,9H,6H2,1-3H3	InChI=1S/C8H13N/c1-4-5-6-7-8(2,3)9-7/h7,9H,6H2,1-3H3/t7-/m1/s1
