16
gdb 79108	2.61177	2.06779	1.57954	3.7216	67.6	-0.2257	-0.0025	0.2232	876.2973	0.125559	-437.865501	-437.858621	-437.857677	-437.896682	27.104	
C	-0.1587425975	 1.5247430305	 0.0543760798	-0.341404
N	 0.0997653626	 0.0894018022	-0.0275608043	-0.075286
C	 0.7217146635	-0.461217814	-1.2189191597	-0.061462
C	 2.2469309946	-0.3559756446	-1.1513362466	 0.078305
O	 2.8198277601	 0.6022640637	-0.2805829389	-0.225758
C	 2.2991317472	 0.415644459	 0.97881649	 0.44389
O	 2.6574246595	 1.0456761033	 1.9288796476	-0.342125
C	 1.1447481863	-0.5746697885	 0.8262207739	-0.16636
C	 1.5462971937	-1.4348010879	-0.3914706003	-0.150506
H	 0.7090670981	 2.161305665	-0.16920182	 0.129993
H	-0.9537379646	 1.7649404177	-0.658854	 0.125714
H	-0.5220185744	 1.765244958	 1.057579283	 0.137209
H	 0.1740560549	-0.5856161993	-2.1471535117	 0.106375
H	 2.8611142742	-0.5598756868	-2.0183877096	 0.123421
H	 0.7849784425	-1.0041625127	 1.7587413821	 0.102622
H	 1.6967227392	-2.5027150457	-0.4477325054	 0.115373
139.0573	169.1288	213.1217	313.3138	425.9053	452.6942	583.1372	620.7141	686.6666	742.9211	761.8886	791.9645	819.0906	861.3154	890.4595	915.2609	989.9283	995.8853	1034.9777	1053.973	1088.9189	1124.9393	1132.9366	1162.1441	1188.3756	1215.2118	1231.2858	1245.152	1268.2216	1330.4333	1393.2874	1448.0574	1485.9476	1510.9041	1882.4062	3001.3939	3078.5155	3114.4116	3142.2907	3170.1273	3210.1762	3227.3093
CN1C2C3OC(=O)C1C23	CN1[C@H]2[C@H]3OC(=O)[C@@H]1[C@@H]23	
InChI=1S/C6H7NO2/c1-7-3-2-4(7)6(8)9-5(2)3/h2-5H,1H3	InChI=1S/C6H7NO2/c1-7-3-2-4(7)6(8)9-5(2)3/h2-5H,1H3/t2-,3-,4+,5+/m1/s1
