19
gdb 51584	5.64238	0.62355	0.59679	2.1863	83.32	-0.2485	-0.0231	0.2254	1816.7938	0.156258	-385.849625	-385.839752	-385.838807	-385.885839	35.103	
O	-0.6711916826	 0.3603529172	 0.1677640733	-0.237572
C	-0.0944799134	 1.4166407507	 0.1724277552	 0.163057
C	 1.3259914906	 1.6304542145	-0.3137246812	-0.299621
C	 1.3956081351	 2.7603629374	-1.3261231641	-0.034591
C	 1.4784620817	 4.2074115065	-0.8863890188	-0.284387
C	 2.6471487042	 3.5691280107	-1.5887535572	-0.003613
C	 3.9607936888	 3.3141997769	-0.8609813928	-0.382105
C	 4.8398679234	 4.4801744548	-0.878480896	 0.303119
C	 5.5521080962	 5.4476093335	-0.9088996647	-0.438025
H	-0.5915351015	 2.3425579556	 0.5436203503	 0.077362
H	 1.9313766229	 1.8738089923	 0.5698585979	 0.116596
H	 1.694288285	 0.6846695059	-0.7235709827	 0.123206
H	 0.7904406236	 2.575024168	-2.2101262205	 0.09983
H	 0.8907672678	 4.9522415663	-1.4106370723	 0.119916
H	 1.5868689331	 4.3998921574	 0.1771067951	 0.115738
H	 2.7915493882	 3.8609118254	-2.6247836665	 0.102237
H	 3.7730923066	 3.0260338831	 0.180117218	 0.127318
H	 4.479404553	 2.4626294744	-1.3214711082	 0.135127
H	 6.1862255573	 6.2989403393	-0.9278029947	 0.196408
42.9128	55.0388	82.2464	111.6751	171.2908	230.488	317.1544	337.6936	390.9611	463.7029	499.8225	551.1092	619.6245	640.7399	777.9129	795.2024	838.7609	873.2377	907.9767	932.7531	965.7041	1013.9787	1044.3883	1072.2038	1088.3892	1133.1002	1149.4454	1172.8121	1240.5969	1251.7454	1257.8239	1294.3613	1324.6762	1393.8623	1424.3644	1428.182	1458.4932	1469.0263	1496.7625	1835.9519	2240.0508	2867.8806	3017.8032	3025.548	3055.5076	3089.2594	3127.8316	3134.953	3153.394	3214.1412	3506.6211
O=CCC1CC1CC#C	O=CC[C@H]1C[C@H]1CC#C	
InChI=1S/C8H10O/c1-2-3-7-6-8(7)4-5-9/h1,5,7-8H,3-4,6H2	InChI=1S/C8H10O/c1-2-3-7-6-8(7)4-5-9/h1,5,7-8H,3-4,6H2/t7-,8+/m1/s1
