18
gdb 30750	3.00872	1.27125	0.94941	1.4071	76.77	-0.1691	0.0581	0.2272	1239.617	0.147956	-435.270405	-435.260473	-435.259528	-435.305432	35.754	
C	 0.2322995336	 0.9674345848	 0.5436989241	-0.248121
O	-0.2221745414	 0.2153663825	-0.5844554603	-0.278083
C	-1.3189629829	-0.5529971556	-0.3475181153	 0.281864
C	-1.4013591637	-1.8923029311	-0.0582601848	 0.114628
N	-0.3524779553	-2.8091271534	 0.1860907287	-0.632288
C	-2.7932185883	-2.2067551691	 0.0554446112	 0.207048
N	-3.2558200083	-3.5154904111	 0.3102467617	-0.618948
C	-3.5045632491	-1.0524673025	-0.1721522175	-0.182155
N	-2.5946668779	-0.0241784719	-0.3756526192	-0.324089
H	 1.1240208887	 1.5101242018	 0.2215052697	 0.125906
H	-0.5289704615	 1.6837279983	 0.8763377014	 0.115904
H	 0.4844879347	 0.3063695856	 1.3815935495	 0.124296
H	 0.5394814504	-2.4016861198	-0.0732993174	 0.238715
H	-0.4798825996	-3.6505515371	-0.3691907298	 0.243124
H	-2.7472461375	-3.9348428357	 1.0826669455	 0.242828
H	-4.2437948728	-3.5336180331	 0.5319024622	 0.234697
H	-4.5664958468	-0.8699846149	-0.1839683392	 0.100855
H	-2.8094450925	 0.8412390823	-0.8404212205	 0.253819
45.8809	111.8275	134.8168	147.2293	216.9238	243.7784	274.8597	307.91	328.3472	368.7336	436.2811	540.883	563.1846	611.3436	654.2471	710.8719	739.4407	761.8468	830.5103	879.4367	973.8686	1044.9398	1092.1926	1119.6201	1174.2721	1206.4371	1231.1069	1260.2989	1284.0441	1345.922	1446.1892	1462.1795	1484.1343	1503.5344	1517.77	1598.1632	1634.9894	1648.4305	1698.1611	3010.3848	3075.2018	3124.2843	3263.4786	3487.9983	3499.0877	3580.4242	3598.2446	3671.258
COC1=C(N)C(N)=CN1	COc1c(N)c(N)c[nH]1	
InChI=1S/C5H9N3O/c1-9-5-4(7)3(6)2-8-5/h2,8H,6-7H2,1H3	InChI=1S/C5H9N3O/c1-9-5-4(7)3(6)2-8-5/h2,8H,6-7H2,1H3
