19
gdb 75914	2.7437	1.42526	1.16564	4.3131	74.81	-0.2595	0.014	0.2736	1116.7033	0.15976	-423.063625	-423.055255	-423.054311	-423.096717	31.829	
C	 0.1924513894	 1.615789386	-0.1567218499	-0.398136
C	-0.0226566341	 0.1130929532	 0.0953143853	-0.247227
C	 0.5657075673	-0.6920444947	-1.067671872	 0.446426
O	 0.1478668698	-0.7808932596	-2.1851364162	-0.346617
O	 1.7106690226	-1.313889064	-0.6688542404	-0.222289
C	 2.0199408596	-0.9970910657	 0.6979065482	-0.147208
C	 0.7254474015	-0.4584682124	 1.2903472796	 0.345749
C	 0.670042603	 0.0989355354	 2.6818585023	-0.328268
C	 0.0133360941	-1.2266070003	 2.3742729757	-0.314734
H	 1.2571004634	 1.8652146439	-0.2113672886	 0.124423
H	-0.2738382587	 1.907741701	-1.1012009726	 0.143645
H	-0.2507099955	 2.2079747716	 0.6487231897	 0.120642
H	-1.0957656656	-0.0914094329	 0.1394983303	 0.108649
H	 2.3773207049	-1.9076221055	 1.1859160641	 0.12245
H	 2.8280356369	-0.2544526572	 0.7069505414	 0.115297
H	 1.5819565912	 0.094386663	 3.2712036308	 0.117554
H	 0.0321573923	 0.9570260205	 2.8654928577	 0.120655
H	-1.0707408227	-1.2631603134	 2.3434785523	 0.120765
H	 0.4799010007	-2.1298823491	 2.754211622	 0.118224
62.5062	161.9092	206.963	222.8058	239.4377	271.2219	326.731	467.5212	473.7935	540.2411	684.1712	722.5699	770.1152	780.8083	815.1171	877.5374	930.7376	940.6237	980.2507	1025.596	1045.0192	1059.2475	1068.255	1084.9158	1086.8369	1122.1034	1173.6463	1188.3968	1230.2846	1243.8781	1301.3947	1322.1199	1363.7427	1402.5012	1420.4298	1468.5653	1494.8299	1497.0551	1508.2338	1522.9996	1880.5152	3023.1602	3041.2885	3073.7749	3092.2021	3112.4516	3124.2254	3125.4802	3128.0682	3202.7207	3217.4781
CC1C(=O)OCC11CC1	C[C@H]1C(=O)OCC21CC2	
InChI=1S/C7H10O2/c1-5-6(8)9-4-7(5)2-3-7/h5H,2-4H2,1H3	InChI=1S/C7H10O2/c1-5-6(8)9-4-7(5)2-3-7/h5H,2-4H2,1H3/t5-/m0/s1
