13
gdb 27516	2.1144	1.87902	0.99489	4.3178	64.91	-0.2483	-0.0261	0.2221	1076.3936	0.090382	-489.953095	-489.945696	-489.944752	-489.985209	27.92	
O	 0.0533627743	 1.3244363271	-0.0842369319	-0.390746
C	-0.063478142	 0.004347787	 0.0434768282	 0.503249
C	-1.2027344266	-0.6771670581	-0.1566313542	-0.418922
C	-1.2021964546	-2.1172346625	 0.0146494413	 0.460583
O	-2.1475049835	-2.8616506046	-0.1314224695	-0.372557
N	 0.0533766901	-2.6355025705	 0.3849521686	-0.40438
C	 1.2179508803	-1.9439323592	 0.589978138	 0.474958
N	 2.3046160253	-2.4901502273	 0.9222333282	-0.551401
O	 1.1135586943	-0.5671290422	 0.401333279	-0.273672
H	 0.9657981261	 1.5754046444	 0.111013038	 0.317836
H	-2.1119798296	-0.1716774944	-0.4409595265	 0.139965
H	 0.1061482129	-3.635658943	 0.5161238629	 0.281441
H	 3.049574063	-1.8065936668	 1.024896438	 0.233646
106.3976	158.4144	179.798	347.5372	372.9489	381.1817	503.555	513.4225	591.0913	610.1487	652.1524	685.7379	703.7877	732.6668	795.9636	818.679	914.1283	965.0988	1017.8135	1113.1464	1190.0907	1251.4176	1278.6339	1386.2625	1400.835	1427.2333	1732.7104	1798.4441	1809.8927	3264.9479	3547.4237	3626.9514	3794.4926
OC1=CC(=O)NC(=N)O1	OC1=CC(=O)N[C]([NH])O1	
InChI=1S/C4H4N2O3/c5-4-6-2(7)1-3(8)9-4/h1,8H,(H2,5,6,7)	InChI=1S/C4H4N2O3/c5-4-6-2(7)1-3(8)9-4/h1,8H,(H2,5,6,7)
