14
gdb 5137	6.09056	1.40047	1.14661	3.0567	68.03	-0.2188	0.0338	0.2526	979.1936	0.108259	-341.59178	-341.58458	-341.583635	-341.624388	26.399	
C	-0.3976111735	-0.6350699652	-1.1132317872	-0.434665
C	-0.1096712082	 0.1705346556	-0.2686677774	 0.285829
C	 0.2686888312	 1.1578065889	 0.7367092307	-0.472316
C	 1.523736415	 1.9146186754	 0.3880598025	 0.377529
N	 2.0722459211	 2.8544069448	 1.1257119988	-0.314889
C	 3.1871047995	 3.2611919243	 0.4281470611	-0.090567
C	 3.309055741	 2.558065427	-0.7406397325	-0.11471
N	 2.233839731	 1.6970446034	-0.7527871741	-0.269912
H	-0.676859893	-1.3549587509	-1.8425783607	 0.204415
H	-0.5501489216	 1.8736283403	 0.8815668035	 0.163739
H	 0.4077242779	 0.6654721755	 1.7073629648	 0.163724
H	 3.8356113708	 4.0357305571	 0.8083895688	 0.106409
H	 4.0301807112	 2.58291316	-1.5401228058	 0.126477
H	 1.9942838477	 1.0222286839	-1.4611549024	 0.268939
21.2105	129.4403	235.1888	325.5576	327.5796	481.7811	575.8432	621.17	653.4756	661.8712	691.2271	728.9301	730.8091	857.2294	931.8098	949.0597	958.9561	999.7433	1103.7854	1136.8568	1179.0236	1206.7019	1274.7516	1309.722	1393.8247	1458.3523	1481.1881	1501.7913	1583.2527	2239.2147	3028.7652	3053.9494	3248.7825	3283.273	3503.3376	3652.6147
C#CCC1=NC=CN1	C#CCc1ncc[nH]1	
InChI=1S/C6H6N2/c1-2-3-6-7-4-5-8-6/h1,4-5H,3H2,(H,7,8)	InChI=1S/C6H6N2/c1-2-3-6-7-4-5-8-6/h1,4-5H,3H2,(H,7,8)
