16
gdb 27261	3.34884	1.51199	1.05958	2.8834	72.3	-0.1782	0.0426	0.2208	1078.2116	0.12664	-437.899783	-437.892214	-437.891269	-437.93183	28.951	
N	 0.1248324042	 1.4048823842	 0.0465053709	-0.59469
C	-0.0620952022	 0.0297780493	 0.0138602883	 0.225457
C	-1.1461550104	-0.7799099024	-0.1144496708	 0.111488
C	-2.6329227046	-0.8508249213	-0.2879865896	-0.399469
C	-2.8521310177	-2.391635221	-0.1376137994	-0.087536
O	-1.5767277269	-3.0563954356	-0.3339785929	-0.285257
C	-0.6246358553	-2.1041443933	-0.1760998258	 0.329829
C	 0.7217791984	-2.0598669943	-0.0765494932	-0.21089
O	 1.0737060043	-0.7111493736	 0.0448369437	-0.192519
H	 0.992719691	 1.6608058009	 0.5002114957	 0.25578
H	-0.6542172723	 1.8993484351	 0.4591453608	 0.253712
H	-3.2148460968	-0.3055744714	 0.462311614	 0.110665
H	-2.9591705586	-0.4977251004	-1.2740303607	 0.120704
H	-3.2089394183	-2.6344070943	 0.8704357852	 0.113245
H	-3.5524400767	-2.8042031361	-0.8670095073	 0.118361
H	 1.5330993718	-2.7624325256	-0.071151219	 0.13112
110.6597	164.4765	198.6248	247.1079	283.414	380.4121	539.2015	583.5325	590.8752	621.3441	640.0086	685.0637	732.5918	756.1648	805.4063	854.7375	937.7451	989.7585	1002.3299	1073.3848	1084.6137	1110.6441	1199.7475	1214.1379	1242.3519	1271.8674	1305.8128	1341.7803	1393.2112	1456.9726	1497.4077	1515.5017	1630.0841	1668.9452	1727.5773	3023.1271	3031.2728	3065.3807	3108.9398	3313.438	3544.5956	3644.3733
NC1=C2CCOC2=CO1	Nc1c2CCOc2co1	
InChI=1S/C6H7NO2/c7-6-4-1-2-8-5(4)3-9-6/h3H,1-2,7H2	InChI=1S/C6H7NO2/c7-6-4-1-2-8-5(4)3-9-6/h3H,1-2,7H2
