21
gdb 81697	2.0559	1.79484	1.68554	1.6077	82.47	-0.2341	0.0309	0.265	1008.6974	0.184648	-387.091463	-387.083574	-387.08263	-387.1233	31.819	
C	 0.2184668135	 1.7243824283	 0.0384949283	-0.435688
C	 0.1247109922	 0.2061576554	 0.0179368812	-0.009073
C	 0.9748559761	-0.6797554738	-0.9275011357	 0.084658
C	 2.3295471445	-0.1422532453	-1.3715534909	-0.265315
C	 3.2745212242	 0.3167390077	-0.2922453317	-0.044797
C	 3.1227455121	 0.3081502588	 1.0333868214	-0.044798
C	 1.9589564205	-0.1632229425	 1.8652276119	-0.265316
C	 0.7404708751	-0.6930172092	 1.1196477357	 0.084658
O	 1.1170680607	-1.6728390686	 0.1193831081	-0.300147
H	 1.2443111108	 2.0785370194	 0.1583244333	 0.132485
H	-0.1800535947	 2.1462819828	-0.8909878955	 0.115337
H	-0.3805808151	 2.1349756229	 0.8590493545	 0.115336
H	-0.9232398072	-0.0860824704	-0.1039384189	 0.083448
H	 0.4442935902	-1.092897315	-1.7936433242	 0.069806
H	 2.8322985763	-0.9285057861	-1.9538448491	 0.116768
H	 2.1638980821	 0.6792934818	-2.0855296306	 0.105071
H	 4.2209586774	 0.694324535	-0.6770877143	 0.082961
H	 3.9571591863	 0.6793965485	 1.626976138	 0.082961
H	 2.3182418579	-0.9575931235	 2.5359771667	 0.116768
H	 1.635021548	 0.6493680916	 2.5337355869	 0.105071
H	 0.0284819492	-1.1164246679	 1.8381063149	 0.069806
166.6811	189.4215	204.4793	210.0024	332.8056	350.7601	395.916	459.6134	461.6693	594.8498	674.2573	735.5342	789.4111	820.6126	859.6722	875.711	890.9033	929.3216	964.8625	992.0999	998.5814	1017.1714	1035.8315	1054.5227	1115.1184	1137.7264	1183.901	1188.5297	1214.386	1240.8021	1264.9437	1282.2133	1341.9401	1350.857	1374.7704	1383.4724	1389.1512	1410.2282	1421.57	1437.4461	1453.9787	1455.1656	1496.2377	1508.2712	1735.4263	2993.7574	2993.9836	3018.5564	3020.0446	3030.4924	3031.5419	3032.9817	3057.2903	3087.7959	3120.1058	3128.9606	3144.7688
CC1C2CC=CCC1O2	C[C@H]1[C@H]2CC=CC[C@@H]1O2	
InChI=1S/C8H12O/c1-6-7-4-2-3-5-8(6)9-7/h2-3,6-8H,4-5H2,1H3	InChI=1S/C8H12O/c1-6-7-4-2-3-5-8(6)9-7/h2-3,6-8H,4-5H2,1H3/t6-,7+,8-
