21
gdb 104722	2.52514	1.13337	0.92973	2.5101	74.47	-0.2532	0.0748	0.328	1331.4	0.180449	-461.332964	-461.322966	-461.322022	-461.367844	37.205	
C	-1.6908467417	 0.0474908168	-0.4032696496	-0.261617
O	-0.303147101	 0.2816348819	-0.2407494807	-0.300686
C	 0.5601850156	-0.6072221854	-0.9425349374	 0.37913
C	 0.5067517762	-0.3071460532	-2.4405189103	-0.100028
O	 0.7918854909	 1.0531719865	-2.6938508831	-0.427582
C	 1.9932610627	-0.5632670199	-0.3621976005	-0.326919
C	 2.0336806162	-2.112216177	-0.4525058347	 0.172583
O	 2.6406352966	-2.8536610783	 0.5733657495	-0.432434
C	 0.4836015984	-2.1205925544	-0.5896105959	-0.34165
H	-2.0382212863	 0.2500292955	-1.4252917055	 0.11682
H	-1.9621501208	-0.9847328895	-0.1430738728	 0.115161
H	-2.2050480606	 0.7283604641	 0.2792230361	 0.131546
H	 1.2563059846	-0.9050046582	-2.9705028091	 0.109489
H	-0.4778881763	-0.596038647	-2.8451317998	 0.083714
H	 0.3536680701	 1.5480802879	-1.9899817569	 0.287479
H	 2.7396146998	 0.017588232	-0.9064208532	 0.118346
H	 1.9588933698	-0.2306074961	 0.6798557743	 0.10024
H	 2.5145797854	-2.4492669945	-1.3745139415	 0.096241
H	 2.2805548485	-2.5506257974	 1.4137155752	 0.277049
H	 0.0126153209	-2.2628840265	 0.3886107218	 0.100946
H	 0.0296508409	-2.8058753371	-1.3102783561	 0.102173
79.7828	89.274	124.6339	176.2947	204.3538	263.0893	303.2477	324.4699	357.9243	384.287	417.3224	447.9952	470.1537	553.1412	637.6855	744.4789	823.0289	863.1726	896.9356	953.7077	976.575	1042.9587	1060.2147	1080.0018	1096.9816	1104.85	1132.9808	1175.3874	1181.7387	1206.0182	1219.2876	1239.6627	1276.155	1277.9107	1299.808	1337.2901	1361.3241	1435.2875	1441.4246	1460.1146	1475.4297	1488.3708	1489.2776	1508.4856	1519.9044	2965.4868	3000.22	3047.7201	3053.5377	3060.9372	3065.6807	3077.143	3109.5466	3116.7137	3129.9183	3772.4723	3806.2054
COC1(CO)CC(O)C1	CO[C@@]1(CO)C[C@@H](O)C1	
InChI=1S/C6H12O3/c1-9-6(4-7)2-5(8)3-6/h5,7-8H,2-4H2,1H3	InChI=1S/C6H12O3/c1-9-6(4-7)2-5(8)3-6/h5,7-8H,2-4H2,1H3/t5-,6+
