17
gdb 73654	2.45506	1.70712	1.43882	1.9314	68.87	-0.2541	0.0178	0.272	975.2276	0.137763	-455.138153	-455.130336	-455.129392	-455.17043	29.812	
N	-0.0503447202	 1.3789421218	-0.2425964337	-0.583272
C	 0.0095765672	-0.0446872089	-0.0191812467	 0.136725
C	 0.7137974544	-0.793581081	-1.1675643925	-0.122166
O	 0.1254595231	-2.0828764821	-1.2292952691	-0.248816
C	-1.2557745541	-1.9239819781	-0.9287751468	-0.112776
C	-1.3016496234	-0.8682010322	 0.1598164208	 0.08914
O	-0.804215706	-1.3741938403	 1.4427000647	-0.274649
C	 0.3395088409	-0.6076335096	 1.3619875305	 0.390938
N	 1.2709571682	-0.4254924818	 2.1803798251	-0.555213
H	-0.3350378027	 1.8586189359	 0.6065415375	 0.241149
H	 0.8776594568	 1.731651757	-0.4610537541	 0.24468
H	 0.5436790395	-0.2262635005	-2.0968804646	 0.102696
H	 1.7872808387	-0.9201429156	-1.0087273935	 0.131189
H	-1.8199408538	-1.5682032584	-1.8067294572	 0.102065
H	-1.6520641022	-2.892629985	-0.615425955	 0.128685
H	-2.245866618	-0.3367888282	 0.2816162227	 0.099679
H	 1.1346093914	-0.9644240829	 3.037433182	 0.229947
100.3916	166.8639	195.5772	238.031	278.3712	324.2058	371.3331	509.998	566.4535	655.4012	708.2514	749.2488	793.2565	849.0266	867.3214	875.3871	940.3141	951.9394	991.4859	1008.4975	1037.457	1060.843	1105.6849	1135.809	1192.9948	1216.7327	1244.3857	1279.9138	1298.0969	1317.5392	1355.1985	1364.27	1411.3786	1488.0396	1509.1945	1669.8059	1821.734	2975.4678	2981.4354	3105.2246	3108.5665	3119.0654	3474.1228	3492.6124	3564.2492
NC12COCC1OC2=N	N[C@]12COC[C@H]1O[C]2[NH]	
InChI=1S/C5H8N2O2/c6-4-5(7)2-8-1-3(5)9-4/h3,6H,1-2,7H2	InChI=1S/C5H8N2O2/c6-4-5(7)2-8-1-3(5)9-4/h3,6H,1-2,7H2/t3-,5-/m1/s1
