18
gdb 26342	3.98777	1.09491	0.87684	1.4771	76.75	-0.1755	0.0424	0.218	1313.738	0.148062	-435.29178	-435.282632	-435.281688	-435.325484	33.748	
C	-0.0136965109	 1.3790233139	-0.047182187	-0.331326
N	 0.0107594326	-0.0524977195	-0.2578095922	-0.1574
C	 1.2152286333	-0.7355112308	 0.1880723631	-0.337561
C	-1.1959025561	-0.7019805601	-0.0782081018	 0.349863
C	-2.4376625609	-0.1858097373	 0.1304166532	-0.186345
O	-3.3287868344	-1.2652120472	 0.1558621915	-0.190456
C	-2.5437318861	-2.3375935761	-0.0119360716	 0.468666
N	-3.1664916949	-3.5587269024	-0.0811719454	-0.59068
N	-1.2760000107	-2.0929625456	-0.151555918	-0.412626
H	 0.9422221773	 1.807623058	-0.3598453576	 0.121734
H	-0.8045111869	 1.8281625193	-0.6568598058	 0.129275
H	-0.1909256956	 1.6585094432	 1.006308163	 0.1045
H	 1.37228349	-0.6561403893	 1.2774158701	 0.100603
H	 1.1454770784	-1.790743116	-0.0739049524	 0.1583
H	 2.0831812212	-0.2979369209	-0.3150749841	 0.114602
H	-2.8670605828	 0.787944918	 0.2637993423	 0.12768
H	-4.0222167038	-3.6256047454	 0.449981279	 0.262905
H	-2.5355324297	-4.3316766118	 0.0681581136	 0.268264
77.6797	133.2078	184.6508	196.6839	230.725	271.1501	306.9919	353.5763	375.3416	400.8551	542.6153	548.3247	585.8526	603.0527	701.7966	749.997	777.3043	936.6453	981.7601	1030.1112	1083.038	1096.5541	1129.9778	1138.7589	1178.0406	1213.8302	1244.0945	1306.873	1393.1683	1440.5432	1456.4657	1468.4793	1483.5921	1493.9673	1506.287	1517.4084	1604.6821	1658.1355	1685.8428	2951.3493	2960.7603	3062.7545	3071.9745	3111.516	3156.1175	3323.9628	3577.6631	3687.3527
CN(C)C1=COC(N)=N1	CN(C)c1coc(N)n1	
InChI=1S/C5H9N3O/c1-8(2)4-3-9-5(6)7-4/h3H,1-2H3,(H2,6,7)	InChI=1S/C5H9N3O/c1-8(2)4-3-9-5(6)7-4/h3H,1-2H3,(H2,6,7)
