21
gdb 83396	2.53878	1.32503	1.11044	2.7636	84.36	-0.2347	-0.0097	0.225	1219.7941	0.181279	-387.093354	-387.08395	-387.083006	-387.127661	35.18	
C	-0.0408211206	 1.450449276	-0.2960696466	-0.422667
C	 0.1392258796	-0.0344131736	-0.0664184016	-0.037287
C	 1.4348816678	-0.7653303582	-0.0735040353	-0.09962
C	 2.5753464683	 0.0412772092	 0.5580682591	-0.22926
C	 1.7463801112	 0.1876883493	 1.8741519512	-0.320446
C	 0.6114582412	-0.6400017128	 1.2483535227	 0.230557
C	-0.1784838185	-1.7307201801	 1.8698749633	 0.280935
C	-0.0261323526	-1.9308343647	 3.3683823849	-0.490276
O	-0.9098569299	-2.4422353348	 1.2079997033	-0.327344
H	 0.7656426546	 2.0493967094	 0.1340400493	 0.119601
H	-0.0740055376	 1.6666321396	-1.3694947978	 0.123028
H	-0.9824119398	 1.7980460991	 0.1415998975	 0.122963
H	-0.6626984471	-0.6461517196	-0.4724077538	 0.117527
H	 1.559139504	-1.6784041573	-0.6440380708	 0.102324
H	 3.4774843578	-0.5551520276	 0.7061166338	 0.108261
H	 2.8554735076	 0.9650773498	 0.0428987295	 0.103158
H	 2.2258701837	-0.3143824378	 2.7166078436	 0.105772
H	 1.4878531085	 1.204523383	 2.1863091203	 0.099899
H	-0.183896859	-0.9904042238	 3.9079040184	 0.134488
H	-0.7408161564	-2.6814091878	 3.7075119871	 0.139525
H	 0.9894744372	-2.2674647075	 3.6069468119	 0.138861
55.0462	131.8676	147.169	169.7573	196.9864	236.421	271.7989	343.993	409.4638	473.2296	548.4704	591.2717	623.625	716.3713	746.4916	795.8386	862.3669	916.939	933.7821	955.8071	973.4051	1006.3559	1038.9321	1044.362	1060.8239	1095.5053	1129.8584	1144.8531	1173.939	1223.6767	1230.9963	1248.1771	1276.7701	1320.3132	1341.25	1379.6124	1413.7313	1453.9238	1462.0948	1473.3984	1478.6416	1499.4066	1502.6714	1509.5979	1771.0157	3034.1238	3036.9649	3049.4593	3057.0663	3093.7911	3095.3446	3101.7151	3114.8135	3120.056	3151.7702	3154.0124	3183.0279
CC1C2CCC12C(C)=O	C[C@H]1[C@H]2CC[C@@]12C(=O)C	
InChI=1S/C8H12O/c1-5-7-3-4-8(5,7)6(2)9/h5,7H,3-4H2,1-2H3	InChI=1S/C8H12O/c1-5-7-3-4-8(5,7)6(2)9/h5,7H,3-4H2,1-2H3/t5-,7+,8-/m0/s1
