23
gdb 95080	2.23544	1.85452	1.25879	1.4891	84.41	-0.2334	0.0778	0.3112	1103.1304	0.207118	-388.287915	-388.279475	-388.278531	-388.320094	34.687	
C	 0.0244120686	 1.5595995072	-0.0799931827	-0.420934
C	 0.0116844437	 0.032791986	 0.0576777869	-0.03127
C	 0.6283803573	-0.5920140738	-1.2193660823	-0.076758
O	 1.1636573226	-1.8975154879	-1.0398390987	-0.277843
C	 1.7007823319	-2.1068283551	 0.2578771193	 0.127993
C	 2.2505931011	-0.8022528189	 0.8961342705	-0.296262
C	 0.7668395688	-0.5111976808	 1.3023238043	 0.330329
C	 0.4868799631	 0.2452069823	 2.5898264079	-0.486887
C	 0.5668658655	-2.0593677927	 1.308809612	-0.265573
H	 1.0479959965	 1.9518822875	-0.0630446354	 0.116872
H	-0.4282769284	 1.8640909093	-1.0302887053	 0.114492
H	-0.5368970067	 2.0466816412	 0.721618356	 0.118546
H	-1.0333485193	-0.2936704423	 0.1490118762	 0.07321
H	-0.1178618294	-0.6677906082	-2.0164693774	 0.104749
H	 1.4212418939	 0.0782822819	-1.586357261	 0.088108
H	 2.3414122752	-2.9882274446	 0.191969878	 0.071383
H	 2.8633591199	-1.029031201	 1.7729258201	 0.095783
H	 2.786903528	-0.0913396534	 0.2622062513	 0.096566
H	 0.8500176611	 1.2773121237	 2.5498518117	 0.116893
H	-0.5878768905	 0.2788354885	 2.8061663285	 0.112994
H	 0.9796078934	-0.2465726363	 3.4355857972	 0.107907
H	-0.403325212	-2.4607199076	 1.002757269	 0.091509
H	 0.8698420457	-2.5003230152	 2.263670164	 0.088194
135.3927	219.3459	238.6502	253.0927	302.1007	316.4021	347.6214	404.108	440.6518	462.6446	501.9374	569.9027	656.5634	773.2796	827.2314	853.8932	870.8474	905.0866	916.9123	953.7553	970.2957	985.4904	1006.4739	1052.152	1057.9568	1075.4399	1093.4139	1144.6353	1161.3108	1192.4908	1212.2262	1229.6788	1255.1794	1267.8709	1283.3098	1293.2977	1338.5751	1359.4647	1369.845	1406.8056	1412.2099	1420.3058	1469.729	1489.1107	1491.4127	1496.91	1498.8225	1510.2398	1521.655	2973.4015	3006.7626	3022.0771	3029.1298	3044.3639	3057.9499	3071.5115	3085.6903	3089.3148	3093.1583	3095.9538	3105.341	3109.9889	3113.7545
CC1COC2CC1(C)C2	C[C@H]1CO[C@H]2C[C@]1(C)C2	
InChI=1S/C8H14O/c1-6-5-9-7-3-8(6,2)4-7/h6-7H,3-5H2,1-2H3	InChI=1S/C8H14O/c1-6-5-9-7-3-8(6,2)4-7/h6-7H,3-5H2,1-2H3/t6-,7-,8+/m0/s1
