15
gdb 19923	4.54607	2.18525	1.79001	3.5288	64.53	-0.2378	0.0083	0.2462	740.8592	0.121347	-362.615971	-362.610242	-362.609298	-362.645563	23.32	
C	 0.0399060251	 1.4941900565	 0.0648892139	-0.288535
C	 1.3627096239	 0.7763063425	 0.0394582816	 0.004252
N	 1.911963388	 0.5720922911	 1.3775526151	-0.290352
C	 1.1579480503	-0.3179369725	 1.870214012	 0.391363
O	 0.689890797	-0.5893061059	 3.1296096161	-0.264395
C	-0.6302651264	-0.8670112526	 2.5097788714	-0.127578
C	 0.0357498617	-0.9265108557	 1.0925035254	-0.138142
C	 0.0154161995	-0.007055872	-0.1034172338	-0.09623
H	-0.2589774693	 1.9460351071	 1.0057642071	 0.123261
H	-0.241974861	 2.0641072498	-0.8145067717	 0.118962
H	 2.0582989169	 0.9185935934	-0.7785120409	 0.098347
H	-1.0520548425	-1.7955126868	 2.8961457881	 0.130207
H	-1.2983513963	-0.0190845917	 2.6776647323	 0.133186
H	 0.1992925367	-1.9678037833	 0.804096766	 0.110612
H	-0.2920694037	-0.40003101	-1.0639072827	 0.095042
208.5441	219.1235	432.5791	472.1586	507.8722	662.4013	685.6096	717.8432	754.4997	799.4366	852.7299	882.3756	921.4627	951.8009	969.4734	995.5002	1065.4725	1067.7831	1087.4554	1093.1323	1116.1575	1148.1306	1180.1815	1189.8896	1206.1114	1294.7765	1335.1787	1343.0397	1380.1575	1473.5936	1499.1683	1734.6981	3071.0095	3080.0595	3124.3777	3146.4265	3187.7711	3193.8306	3213.4746
C1C2N=C3OCC3C12	C1[C@H]2[N][C]3OC[C@H]3[C@@H]12	
InChI=1S/C6H7NO/c1-3-4-2-8-6(4)7-5(1)3/h3-5H,1-2H2	InChI=1S/C6H7NO/c1-3-4-2-8-6(4)7-5(1)3/h3-5H,1-2H2/t3-,4+,5-/m1/s1
