18
gdb 81573	2.7806	1.49355	1.34476	10.5733	72.39	-0.1825	0.0127	0.1952	1021.9282	0.148396	-438.99721	-438.988966	-438.988022	-439.03081	30.517	
C	-0.2827349542	 1.4925529259	 0.7570546346	-0.35922
N	 0.0086295586	 0.0275251899	 0.6248088555	-0.0922
H	-0.8373231834	-0.5119399731	 0.8043451874	 0.270346
C	 1.2575802543	-0.6626296832	 1.2548107398	-0.028729
C	 0.9403596059	-1.858274898	 0.3212672423	-0.260896
C	 0.8242505631	-0.5854043803	-0.5550981322	-0.028741
C	 2.111677197	-0.0365540991	 0.1185674117	-0.04792
C	 2.4049146208	 1.5038315456	 0.1141434203	 0.306042
O	 2.7389403445	 1.9451472864	 1.2273693876	-0.473214
O	 2.2080928998	 2.0398610199	-0.9901884075	-0.473217
H	-0.0421295679	 1.9856270148	-0.1843368067	 0.212057
H	-1.3370660111	 1.5981869003	 1.013569541	 0.127918
H	 0.3663768163	 1.912588399	 1.5248088493	 0.21201
H	 1.3858843125	-0.6190139486	 2.3338895482	 0.137168
H	 1.7818870723	-2.5077794635	 0.0920761379	 0.144826
H	 0.0258756178	-2.4310306826	 0.5157735634	 0.107845
H	 0.4516521275	-0.4525260252	-1.5681577022	 0.137167
H	 3.0010414062	-0.6223841983	-0.1193662905	 0.108757
55.0106	75.4872	148.2336	189.2874	295.8836	313.1562	410.396	495.8643	571.3065	650.7632	676.5615	757.4506	784.5764	795.5905	882.6168	882.965	938.2138	967.4551	1025.5181	1029.7542	1052.6174	1083.2231	1101.3602	1125.1606	1146.4527	1174.4691	1189.208	1208.9297	1228.2238	1249.4902	1260.2604	1306.2541	1346.2346	1459.1412	1466.1909	1479.0156	1503.0086	1521.9237	1771.846	3036.6116	3070.7683	3105.1943	3161.0843	3162.1652	3170.3389	3170.6103	3172.9999	3469.4445
C[NH+]1C2CC1C2C([O-])=O	C[NH]1[C@H]2C[C@@H]1[C@H]2C(=O)[O]	
InChI=1S/C6H9NO2/c1-7-3-2-4(7)5(3)6(8)9/h3-5H,2H2,1H3,(H,8,9)	InChI=1S/C6H9NO2/c1-7-3-2-4(7)5(3)6(8)9/h3-5,7H,2H2,1H3/t3-,4+,5-
