18
gdb 16577	2.98235	2.57205	2.1043	1.563	65.59	-0.2473	0.0825	0.3298	752.9939	0.157837	-384.962193	-384.956039	-384.955094	-384.992161	25.217	
C	-0.032366105	 1.5628755469	-0.1017582552	-0.092646
O	 1.3401726363	 1.9451872515	 0.0131336624	-0.277406
C	 2.104352936	 0.7401414569	 0.0592825715	 0.202892
C	 2.4159336153	 0.3523570666	 1.508553466	-0.216027
C	 1.1018787733	 0.2512752628	 2.3069168631	-0.209464
C	-0.0029255487	-0.4547130252	 1.4930693814	-0.210338
C	 0.0074715253	 0.0303851177	 0.0373047529	 0.064473
O	 1.2925419981	-0.253307172	-0.5325417417	-0.255009
H	-0.6226430324	 2.05126065	 0.6816090378	 0.103386
H	-0.4196592504	 1.8673600347	-1.081770849	 0.104042
H	 3.0022711892	 0.8650750204	-0.5533697147	 0.084625
H	 2.944969152	-0.6076951618	 1.4887392616	 0.102735
H	 3.0868048705	 1.0912169168	 1.9586730066	 0.102311
H	 1.266436737	-0.2679632871	 3.2560742469	 0.096589
H	 0.771901953	 1.2644465798	 2.560726133	 0.113861
H	 0.1634233336	-1.5379329254	 1.4806431838	 0.106927
H	-0.9862149008	-0.2834109149	 1.9466552304	 0.095233
H	-0.7476664323	-0.4748011076	-0.5687991466	 0.083817
181.8152	247.4374	336.1436	371.9699	446.2538	512.1709	615.3823	754.2986	790.5167	812.4297	837.4109	869.8111	898.4969	905.5791	947.3471	970.1806	1017.476	1040.7589	1043.9029	1086.2954	1109.0659	1141.8145	1173.9052	1202.8699	1229.4638	1264.1664	1303.8413	1333.1155	1342.0332	1357.0236	1368.6281	1382.5189	1393.1499	1399.3852	1472.8063	1480.846	1498.8063	1526.9316	3021.95	3032.6027	3037.4014	3045.429	3066.1911	3070.2079	3072.9642	3081.9498	3093.1179	3094.5253
C1OC2CCCC1O2	C1O[C@H]2CCC[C@@H]1O2	
InChI=1S/C6H10O2/c1-2-5-4-7-6(3-1)8-5/h5-6H,1-4H2	InChI=1S/C6H10O2/c1-2-5-4-7-6(3-1)8-5/h5-6H,1-4H2/t5-,6+/m0/s1
