19
gdb 71001	3.06547	1.61482	1.47106	2.5215	76.15	-0.2293	0.0527	0.282	982.1453	0.159184	-422.912992	-422.905602	-422.904658	-422.944221	30.443	
C	-0.123494554	 1.5669029682	 0.0434241588	-0.500464
C	-0.0147440871	 0.0624800508	 0.0178987688	 0.195856
C	 1.041455784	-0.7294611282	-0.9451612006	-0.362574
C	 0.7151973667	-1.8472133688	 0.0838202446	 0.331302
C	 1.0206024643	-2.7965819111	 1.2677566898	-0.176027
O	 0.4145840226	-1.7857157348	 2.1662208667	-0.317525
C	 0.7222561762	-0.7931463095	 1.1347614921	 0.098994
O	-0.6869919858	-2.0914253421	-0.196646215	-0.293143
C	-1.2577273382	-0.777124233	-0.2329693841	-0.103277
H	 0.840711198	 2.0316946254	 0.271011869	 0.122283
H	-0.4622658316	 1.9547346772	-0.9238358536	 0.124303
H	-0.8427026014	 1.8923154346	 0.8032863925	 0.130219
H	 0.7334587938	-0.8811657163	-1.982092369	 0.11321
H	 2.0493766356	-0.3191795217	-0.8825473815	 0.113448
H	 0.4728300622	-3.7400338724	 1.2875921632	 0.129591
H	 2.0813813179	-2.9356864925	 1.5008629295	 0.108139
H	 1.7004359904	-0.3494825917	 1.3491289144	 0.082773
H	-2.0122722487	-0.6644352949	 0.5556455194	 0.1075
H	-1.7261016252	-0.5837077991	-1.2062864351	 0.095392
198.2556	224.8944	249.8363	260.4535	338.2673	378.1959	457.5582	475.3077	574.5221	594.6926	667.0268	783.8933	811.9057	836.2115	856.0797	898.8336	922.9976	950.4027	958.7397	994.9532	1000.411	1023.6695	1031.9834	1116.4877	1123.2709	1149.0715	1183.5022	1193.0269	1201.0667	1221.4252	1256.957	1264.6178	1294.8758	1356.5768	1396.1385	1414.056	1476.6707	1489.162	1491.2324	1492.7073	1524.5599	3012.9888	3029.018	3040.8243	3049.385	3052.1175	3074.958	3093.2909	3102.6973	3131.7805	3152.251
CC12CC3(COC13)OC2	C[C@@]12C[C@]3(CO[C@H]13)OC2	
InChI=1S/C7H10O2/c1-6-2-7(9-3-6)4-8-5(6)7/h5H,2-4H2,1H3	InChI=1S/C7H10O2/c1-6-2-7(9-3-6)4-8-5(6)7/h5H,2-4H2,1H3/t5-,6+,7-/m1/s1
