19
gdb 17063	5.85552	1.28581	1.24919	0.927	73.27	-0.2138	0.0925	0.3063	1056.4884	0.164881	-364.96739	-364.959438	-364.958493	-364.999596	29.944	
C	-0.2695070821	 1.4612890735	-0.5492689365	-0.241123
O	-0.0528602407	 0.1738982444	-0.0102032581	-0.250519
C	-1.2119720765	-0.5929730052	 0.0552750309	 0.194651
C	-1.6981933257	-1.4191913769	-1.1875984405	-0.069997
C	-0.422588107	-2.2950461685	-1.030203224	-0.251851
C	-1.0326302557	-2.0918727245	 0.3884762948	-0.073353
N	-2.4429380741	-2.2447412574	-0.1561675011	-0.110676
C	-2.9025780537	-3.5767535093	-0.5299038107	-0.324816
H	 0.681333019	 1.9967741953	-0.5012407857	 0.128467
H	-0.6011641976	 1.416771608	-1.5970328122	 0.109331
H	-1.0226526074	 2.0186452794	 0.0279662199	 0.110097
H	-2.0224732911	-0.0943745259	 0.5998959373	 0.077102
H	-2.1878684474	-1.0694391582	-2.0985967778	 0.073847
H	-0.4522976993	-3.3002946699	-1.4484757954	 0.097973
H	 0.5354005765	-1.8114112853	-1.2229216153	 0.113039
H	-0.7312611828	-2.5339696998	 1.3398306234	 0.079289
H	-3.1827354557	-4.1132867719	 0.3828270013	 0.120804
H	-3.8059982011	-3.4712909083	-1.1398883968	 0.120084
H	-2.1926453177	-4.2074468495	-1.0859586236	 0.097652
85.8852	165.4412	178.5294	188.2883	269.1276	324.1306	403.7155	453.7021	547.5762	590.6648	739.6429	769.8544	808.8741	893.8975	908.191	942.5516	1005.6885	1021.6764	1055.7857	1096.9391	1114.6133	1122.632	1135.5068	1171.5128	1183.1223	1189.5799	1197.466	1207.7143	1231.6983	1246.1622	1264.097	1290.0763	1374.4936	1443.3994	1477.8927	1485.6454	1489.3898	1501.0342	1507.7683	1521.4201	2982.1373	2986.6978	3031.6189	3045.524	3062.1214	3088.9194	3094.9631	3095.1865	3106.8229	3119.3533	3155.5762
COC1C2CC1N2C	CO[C@H]1[C@H]2C[C@@H]1N2C	
InChI=1S/C6H11NO/c1-7-4-3-5(7)6(4)8-2/h4-6H,3H2,1-2H3	InChI=1S/C6H11NO/c1-7-4-3-5(7)6(4)8-2/h4-6H,3H2,1-2H3/t4-,5+,6+
