17
gdb 98096	4.2747	0.91843	0.80342	2.6694	73.31	-0.2475	-0.0713	0.1762	1425.8036	0.135872	-455.164869	-455.155515	-455.154571	-455.200081	32.338	
C	 0.163616234	 1.431335233	 0.2159436863	-0.33549
N	-0.0886486474	 0.037255931	-0.0803294878	-0.306041
C	-1.2938978536	-0.5468481946	 0.078401304	 0.329387
O	-2.3134195503	-0.0088997998	 0.4779156074	-0.37063
C	-1.2719308477	-2.0371021759	-0.3171149128	 0.292579
O	-0.2460059501	-2.5651617929	-0.7051256315	-0.35059
C	-2.5573590456	-2.7628375878	-0.1948444571	-0.096845
C	-2.9596519156	-3.5877166887	-1.387747153	-0.215169
N	-2.4981366452	-4.2347033176	-0.1730892821	-0.304875
H	 0.9224386724	 1.5383249753	 0.9985954071	 0.13533
H	 0.5027380997	 1.9698238665	-0.6755671556	 0.134619
H	-0.7725643181	 1.870229224	 0.5639819308	 0.170787
H	 0.6471908123	-0.5651284265	-0.4208213054	 0.26739
H	-3.3209813188	-2.2902142772	 0.408416247	 0.133853
H	-4.0194636483	-3.6857876887	-1.6027322667	 0.135642
H	-2.3006657373	-3.5609667673	-2.2511996858	 0.132269
H	-1.5191211003	-4.4968773227	-0.2956085448	 0.247783
55.4787	84.2121	92.301	147.0052	155.7315	257.4947	274.6711	320.8572	365.1852	510.4817	522.496	641.1719	743.7951	816.2369	828.1031	850.4388	884.0902	956.1604	1003.5627	1018.9987	1114.4429	1133.1002	1152.1916	1154.2238	1178.5025	1183.1076	1257.2238	1285.3617	1316.8452	1404.3103	1445.0062	1494.019	1496.5258	1497.9083	1572.0785	1765.0628	1783.9371	3032.2877	3086.5164	3114.3192	3150.5265	3206.4648	3216.597	3462.4653	3609.4231
CNC(=O)C(=O)C1CN1	CNC(=O)C(=O)[C@H]1CN1	
InChI=1S/C5H8N2O2/c1-6-5(9)4(8)3-2-7-3/h3,7H,2H2,1H3,(H,6,9)	InChI=1S/C5H8N2O2/c1-6-5(9)4(8)3-2-7-3/h3,7H,2H2,1H3,(H,6,9)/t3-/m1/s1
