21
gdb 71656	2.96496	1.8185	1.8067	0.079	83.68	-0.2512	0.0951	0.3463	917.9566	0.185927	-349.945983	-349.939381	-349.938437	-349.976308	29.345	
C	 0.0013058641	 1.5017649954	 0.0161699648	-0.50116
C	-0.0132741102	-0.0150000256	-0.0337096969	 0.317494
C	-1.3959792526	-0.7224323354	-0.0669031694	-0.241603
C	-0.8415687895	-2.1437199231	 0.1003401294	-0.058606
C	-0.0295887544	-2.0698634187	 1.4092431982	-0.078881
C	 1.2737902674	-2.057731643	 0.65598167	-0.078879
C	 0.6843918345	-0.7509762814	 1.1615097677	-0.082659
C	 0.5460813146	-2.1307698615	-0.7016334798	-0.058604
C	 0.6580489219	-0.7032501598	-1.253982262	-0.241615
H	 1.0260815257	 1.8896245437	 0.025493216	 0.111991
H	-0.507626696	 1.9329086218	-0.8530038654	 0.110793
H	-0.5038286266	 1.8750488884	 0.9140508619	 0.111995
H	-2.0431396005	-0.4348656694	 0.7689638077	 0.086674
H	-1.9315048237	-0.5492481661	-1.0071880905	 0.084221
H	-1.5069273041	-2.9909125221	-0.0560431901	 0.05999
H	-0.2786849833	-2.4675740201	 2.3856152517	 0.076412
H	 2.2495984823	-2.4440668627	 0.9244361166	 0.076411
H	 1.1496740218	-0.209228098	 1.9753072855	 0.075144
H	 0.754529938	-2.9698048755	-1.3630418182	 0.059987
H	 0.1083501674	-0.5302199844	-2.1860793727	 0.084221
H	 1.7012633733	-0.3998983725	-1.3949299347	 0.086674
212.5324	269.2064	273.3795	407.6847	479.3545	539.4509	584.421	650.2553	657.9096	765.0022	783.8587	812.053	812.9654	828.4959	881.4078	891.0888	906.7422	915.6706	962.1616	969.6159	972.3192	1011.2035	1023.8244	1034.4646	1052.621	1061.5215	1096.7885	1098.1262	1121.3215	1191.521	1191.7296	1222.1445	1238.0914	1244.1056	1257.6361	1274.5715	1275.8579	1294.0301	1337.8897	1377.1055	1412.9045	1478.625	1494.7318	1495.694	1502.2353	3022.989	3029.952	3037.5604	3079.5022	3085.6101	3088.6452	3090.2638	3124.9978	3134.1588	3174.3983	3182.4706	3197.7644
CC12CC3C4C(C14)C3C2	C[C@]12C[C@@H]3[C@H]4[C@H]([C@@H]14)[C@@H]3C2	
InChI=1S/C9H12/c1-9-2-4-5(3-9)7-6(4)8(7)9/h4-8H,2-3H2,1H3	InChI=1S/C9H12/c1-9-2-4-5(3-9)7-6(4)8(7)9/h4-8H,2-3H2,1H3/t4-,5+,6-,7+,8-,9+
