19
gdb 38499	3.32892	1.69933	1.58029	1.3771	77.05	-0.2186	0.0741	0.2927	932.1283	0.160893	-385.822996	-385.816207	-385.815263	-385.853623	29.082	
C	 0.0303467727	 1.5374732126	-0.0614416286	-0.324449
C	 1.3157055741	 0.7561353088	-0.005602779	 0.08721
O	 1.9655037612	 0.6156707834	 1.251410771	-0.294062
C	 1.2277309739	-0.2712978119	 2.040806301	 0.359038
C	-0.0760457764	 0.135661453	 2.6607465063	-0.394151
C	-0.076293737	-0.649023764	 1.3633391531	 0.215831
C	 0.226643121	-2.1417776828	 1.6251689622	-0.284684
C	 1.5968495396	-1.7414281922	 2.28064111	-0.282799
C	-0.0218471012	 0.0224427672	 0.0166744035	-0.157513
H	-0.2595093587	 2.1344517179	 0.7950744953	 0.121391
H	-0.231382158	 1.983372653	-1.0162328884	 0.114058
H	 2.0099287474	 0.7649849798	-0.8391963692	 0.098138
H	-0.4173107902	-0.3517098083	 3.5712674248	 0.10785
H	-0.3217797583	 1.187772728	 2.6061378932	 0.122828
H	-0.4918590315	-2.6608513976	 2.2667878483	 0.101114
H	 0.3530513804	-2.7193810088	 0.7069683867	 0.106651
H	 2.4494281894	-2.0470105469	 1.6715603522	 0.113566
H	 1.7744847343	-2.0431217527	 3.3175168962	 0.097883
H	-0.3781789627	-0.5279826986	-0.8462147084	 0.092099
186.8899	221.8251	291.4861	356.6796	453.3699	468.1927	547.5294	626.5356	678.4894	738.3667	761.8551	767.8471	782.0409	809.0387	842.154	916.1923	919.3937	946.7944	954.4467	960.7643	989.8465	1033.7507	1055.5919	1071.5105	1085.2061	1093.8611	1123.7244	1174.0113	1188.4831	1192.9082	1235.0445	1241.3567	1253.4549	1285.9992	1353.0649	1357.5547	1373.027	1461.0846	1473.7345	1484.6212	1497.472	3047.6456	3054.4636	3104.6014	3114.1262	3125.246	3131.1401	3165.006	3178.3797	3217.2825	3230.7773
C1C2OC34CC3(CC4)C12	C1[C@H]2O[C@@]34C[C@@]3(CC4)[C@@H]12	
InChI=1S/C8H10O/c1-2-8-4-7(1,8)5-3-6(5)9-8/h5-6H,1-4H2	InChI=1S/C8H10O/c1-2-8-4-7(1,8)5-3-6(5)9-8/h5-6H,1-4H2/t5-,6+,7-,8-/m0/s1
