19
gdb 30361	2.90911	1.67712	1.11907	3.6592	81.45	-0.2104	0.0396	0.25	1094.4672	0.16322	-382.128703	-382.121144	-382.1202	-382.160718	29.411	
C	-0.0576547874	 1.577444172	-0.0024210335	-0.394006
C	 0.0470666348	 0.0519261867	 0.0353479321	-0.119951
C	 0.8072469367	-0.5768648939	-1.1719168129	-0.221811
C	 1.5291542902	-1.8357923674	-0.6210034025	-0.194353
N	 1.6479381008	-1.5088173719	 0.7900046391	 0.011672
C	 2.2913092314	-1.9860914878	 1.9073834782	-0.164472
C	 1.8330555545	-1.1921974163	 2.9336157787	-0.096324
N	 0.9232009092	-0.2579645013	 2.4792408715	-0.369173
C	 0.8410073941	-0.4893214525	 1.1892312952	 0.387233
H	 0.9350698662	 2.0344463457	-0.067834151	 0.119547
H	-0.6473290543	 1.9094524567	-0.8629553013	 0.109724
H	-0.5364666087	 1.9481747244	 0.9077495964	 0.141169
H	-0.9699692488	-0.3641816886	 0.0782344497	 0.095221
H	 0.149568331	-0.8167448419	-2.0100522433	 0.109895
H	 1.5550994892	 0.1377434185	-1.531007153	 0.116423
H	 0.9335624911	-2.7470858436	-0.7572991181	 0.120821
H	 2.5076142865	-1.9993682843	-1.0813485719	 0.123449
H	 2.9970707798	-2.7990522935	 1.8738735933	 0.122538
H	 2.1157177638	-1.237590101	 3.9749471532	 0.102398
112.1616	162.156	202.4134	220.358	273.0957	431.4547	484.517	569.6558	628.6065	658.6828	718.4135	737.9874	749.6632	835.9782	844.4561	918.509	938.6971	961.9776	989.389	1051.8488	1083.7938	1109.0815	1137.9413	1147.6737	1171.4585	1213.1039	1235.5444	1293.753	1312.2287	1319.2477	1325.2971	1363.1752	1409.9853	1422.6255	1455.4764	1489.6244	1493.9459	1497.9474	1505.0952	1534.2069	1574.4895	2995.0977	3026.3202	3036.9033	3054.9689	3084.0504	3105.6653	3114.3732	3120.9286	3242.3284	3278.9441
CC1CCN2C=CN=C12	C[C@H]1CCn2ccnc12	
InChI=1S/C7H10N2/c1-6-2-4-9-5-3-8-7(6)9/h3,5-6H,2,4H2,1H3	InChI=1S/C7H10N2/c1-6-2-4-9-5-3-8-7(6)9/h3,5-6H,2,4H2,1H3/t6-/m0/s1
