18
gdb 88286	3.865	0.93682	0.88674	4.2346	75.29	-0.2453	-0.0382	0.2071	1370.0651	0.146146	-439.043557	-439.034524	-439.033579	-439.078566	32.35	
C	 0.2726471022	 1.8251615205	-0.2732841434	-0.404417
C	 0.1854759186	 0.3265074565	-0.1349625399	 0.013759
N	 1.4313674507	-0.4067043737	 0.0358793924	-0.308983
C	 0.4733763643	-0.4067846537	 1.1566052609	-0.169476
C	 0.8650961102	 0.3204238561	 2.4054999033	 0.401261
O	 1.7025249601	 1.1922680475	 2.4450214657	-0.314774
C	 0.1235866203	-0.0997371105	 3.6556635597	-0.029355
C	 0.8620289531	-0.1278307014	 4.9363581945	-0.161674
O	-0.0513869772	 0.9128214494	 4.6443307761	-0.207549
H	 1.0531908918	 2.2252227153	 0.3744861951	 0.168373
H	 0.5097688991	 2.0867887976	-1.3100557918	 0.121229
H	-0.6828036724	 2.2942100687	-0.0163139308	 0.117276
H	-0.5907030355	-0.1462008577	-0.737436718	 0.091991
H	 1.396862492	-1.3064895371	-0.4362539361	 0.237922
H	-0.116286709	-1.3065711187	 1.3216463266	 0.08596
H	-0.7300207585	-0.7649857582	 3.5290661606	 0.097862
H	 0.5544052908	-0.8320168064	 5.7081474442	 0.120782
H	 1.9109934495	 0.161002986	 4.924786311	 0.139814
35.9264	56.5969	166.8995	178.598	226.1955	270.9486	291.9037	355.5061	384.0849	443.0148	679.3225	729.1984	791.3687	827.845	838.4968	879.7488	898.067	940.3588	991.8798	1007.8792	1029.0086	1075.4789	1081.4857	1098.0862	1148.4215	1162.4052	1170.8051	1191.6984	1236.6937	1257.0434	1285.0356	1395.9966	1408.023	1434.491	1462.4449	1494.0074	1500.4226	1506.0598	1801.993	3040.3335	3087.6261	3099.5388	3100.2496	3113.5624	3127.2598	3156.2069	3188.4167	3504.0805
CC1NC1C(=O)C1CO1	C[C@H]1N[C@H]1C(=O)[C@H]1CO1	
InChI=1S/C6H9NO2/c1-3-5(7-3)6(8)4-2-9-4/h3-5,7H,2H2,1H3	InChI=1S/C6H9NO2/c1-3-5(7-3)6(8)4-2-9-4/h3-5,7H,2H2,1H3/t3-,4-,5-/m1/s1
