18
gdb 82339	2.30274	1.71038	1.34603	4.1804	74.13	-0.2556	0.0172	0.2728	1023.0877	0.148374	-401.94827	-401.940206	-401.939262	-401.980772	30.945	
C	 0.0377094251	 1.5877054237	-0.0475823626	-0.40962
C	 0.0996719179	 0.0605905646	-0.0225254504	-0.020985
C	 0.7762815719	-0.6094750304	-1.2113457104	-0.077702
C	 2.2965409916	-0.5984416504	-1.2750195253	-0.339964
C	 1.5613173115	-1.7524591974	-0.6501550357	 0.107335
O	 1.4277216394	-1.7906651361	 0.757245908	-0.246391
C	 0.8657278359	-0.5607835141	 1.1946331121	-0.067757
C	 1.9165718949	 0.323503309	 1.7431719386	 0.299007
N	 2.729617915	 1.0102209024	 2.1941744279	-0.344676
H	 1.03385505	 2.0276899004	-0.1417356313	 0.143336
H	-0.5640607565	 1.9235372146	-0.8971310508	 0.121108
H	-0.421306892	 1.9846861345	 0.8635241653	 0.125846
H	-0.9229012638	-0.3317546788	 0.0303731726	 0.095666
H	 0.2082366299	-0.7007005583	-2.1296684578	 0.097972
H	 2.7434680511	-0.7711048876	-2.2481857392	 0.121472
H	 2.8610564834	 0.0745034333	-0.6396079427	 0.147692
H	 1.5948517747	-2.7505955249	-1.0681698429	 0.111011
H	 0.1822962099	-0.7854664244	 2.0202086646	 0.136649
94.7411	152.5976	189.5203	222.0719	270.4669	326.0876	404.1493	481.6366	488.4232	601.7345	654.7713	720.6665	757.1586	798.7574	850.7751	887.0597	947.766	965.0663	988.2573	1006.4089	1048.9792	1061.9572	1081.0494	1097.0792	1131.0459	1151.6263	1162.6745	1203.9112	1257.0397	1316.9665	1335.189	1351.721	1371.4985	1391.2134	1419.066	1483.9336	1493.2054	1499.4823	2350.6401	3032.3437	3042.9068	3060.6544	3108.3683	3125.7575	3139.6981	3177.4026	3197.8466	3227.3271
CC1C2CC2OC1C#N	C[C@H]1[C@H]2C[C@H]2O[C@H]1C#N	
InChI=1S/C7H9NO/c1-4-5-2-6(5)9-7(4)3-8/h4-7H,2H2,1H3	InChI=1S/C7H9NO/c1-4-5-2-6(5)9-7(4)3-8/h4-7H,2H2,1H3/t4-,5+,6+,7-/m0/s1
