23
gdb 57953	3.57742	0.79159	0.75007	2.3346	86.26	-0.2361	-0.0066	0.2295	1668.5693	0.20329	-388.30651	-388.29584	-388.294896	-388.343567	38.456	
C	-0.0895893294	 1.54316471	 0.2910004568	-0.386366
C	 0.0528858679	 0.0236658344	 0.0609056931	-0.061232
C	 0.7033442305	-0.27812141	-1.2924362149	-0.38493
C	 0.8750280615	-0.5587184437	 1.2151138218	 0.390175
O	 2.0827893526	-0.6178503687	 1.1681939467	-0.317399
C	 0.0884308334	-1.0573675211	 2.4241203981	-0.336625
C	 0.9345317192	-1.3024232871	 3.6497120812	 0.050651
C	 1.1015682971	-0.2208681802	 4.6852909495	-0.251649
C	 0.2880534255	-1.4527692931	 5.0023347318	-0.285489
H	 0.8933979819	 2.0239293633	 0.2679862284	 0.135387
H	-0.7078037858	 1.9898467863	-0.4935908664	 0.12002
H	-0.5558834727	 1.7716984458	 1.2549649939	 0.115229
H	-0.9503039668	-0.4204695561	 0.0988647342	 0.076027
H	 1.729059413	 0.0983930572	-1.3098465064	 0.138746
H	 0.7423767951	-1.3547266809	-1.4843288062	 0.114568
H	 0.1411078593	 0.1927887721	-2.1046678144	 0.107128
H	-0.7286258308	-0.3557350359	 2.6382701756	 0.11065
H	-0.4126721018	-1.9837844744	 2.0994111694	 0.124857
H	 1.8118951782	-1.9103374633	 3.4573678332	 0.101243
H	 2.0709264989	-0.1040876459	 5.1562794798	 0.11585
H	 0.5674874246	 0.712481911	 4.5366417905	 0.105099
H	-0.7901405117	-1.3443762584	 5.0674220216	 0.105787
H	 0.7000040201	-2.1808931911	 5.6923839828	 0.112273
32.6471	48.3817	76.5379	132.5679	199.4585	227.5045	236.8137	276.1454	293.7907	349.3192	364.6903	438.4521	578.8439	644.285	772.4268	789.1582	808.0631	850.9896	886.6697	893.3031	931.1434	957.5124	971.8129	993.0139	1043.745	1057.4554	1078.1335	1104.9149	1124.5466	1135.804	1157.7024	1195.9968	1198.1174	1230.8318	1252.6618	1317.891	1329.4149	1372.2456	1393.5217	1414.1802	1418.8361	1448.6236	1471.392	1485.6853	1487.7664	1500.6541	1508.7847	1510.4005	1806.1921	2989.6004	3021.9529	3033.0084	3041.7617	3042.2669	3101.9419	3107.841	3112.3496	3126.8249	3128.2631	3132.2409	3170.5234	3205.1189	3221.1773
CC(C)C(=O)CC1CC1	CC(C)C(=O)CC1CC1	
InChI=1S/C8H14O/c1-6(2)8(9)5-7-3-4-7/h6-7H,3-5H2,1-2H3	InChI=1S/C8H14O/c1-6(2)8(9)5-7-3-4-7/h6-7H,3-5H2,1-2H3
