20
gdb 117648	2.61821	0.98761	0.97124	4.6483	71.73	-0.2487	0.0195	0.2682	1363.5055	0.169327	-477.449291	-477.438981	-477.438037	-477.484797	37.055	
C	-0.0636682927	 1.4027710266	-0.0013686514	-0.235514
O	-0.0267947301	-0.0077085633	 0.0354028757	-0.248628
C	 0.6761104333	-0.5718336057	-1.0518631493	-0.068982
C	 0.6205048331	-2.1043930685	-0.9167427704	 0.081534
C	 1.3990972156	-2.5738825104	 0.3187586651	-0.430081
N	-0.8020024755	-2.5052362296	-0.9113617883	-0.567835
H	-0.4702982459	-3.0059451162	-2.6622598937	 0.306213
H	-0.9255972519	-3.3562002167	-0.3711224913	 0.241357
H	-1.3455962455	-1.7806299912	-0.4513403397	 0.251809
C	 1.2832057739	-2.6603225614	-2.2056198167	 0.421655
O	 2.472443581	-2.6416642816	-2.3886184255	-0.354745
O	 0.4053737941	-3.1165998208	-3.1034708662	-0.374412
H	 0.9470561338	 1.8340562436	 0.0478259389	 0.116515
H	-0.5530033509	 1.7715529564	-0.9155830255	 0.11297
H	-0.6350461362	 1.7358379437	 0.867903931	 0.132579
H	 0.2134844973	-0.262287405	-2.0037070682	 0.100703
H	 1.7260757846	-0.2492107728	-1.0638677844	 0.122644
H	 1.0404692142	-2.0516050882	 1.2086499411	 0.129047
H	 1.2736866648	-3.6521170845	 0.4660531566	 0.114338
H	 2.465185873	-2.3788271545	 0.1869278622	 0.148832
60.8519	95.3273	120.3982	135.951	227.4845	237.4221	260.4806	297.664	335.2486	345.6011	366.0151	387.5345	461.6973	551.0508	659.5203	757.8622	778.2252	862.4382	906.8505	958.4482	963.7587	990.5048	1004.7403	1089.425	1150.5427	1159.8038	1178.2884	1208.253	1224.9558	1263.7977	1284.7462	1329.3057	1394.2775	1414.0734	1438.7968	1479.2644	1485.8178	1489.7881	1500.047	1504.1721	1525.5348	1657.959	1859.0408	2969.8034	2983.9975	3032.2587	3037.8006	3042.5455	3115.5282	3121.221	3144.5323	3404.4125	3498.059	3572.9062
COCC(C)([NH3+])C([O-])=O	COC[C@@](C)(N)C(=O)O	
InChI=1S/C5H11NO3/c1-5(6,3-9-2)4(7)8/h3,6H2,1-2H3,(H,7,8)	InChI=1S/C5H11NO3/c1-5(6,3-9-2)4(7)8/h3,6H2,1-2H3,(H,7,8)/t5-/m1/s1
