17
gdb 74013	2.22461	1.88646	1.09496	3.5337	77.47	-0.2049	-0.0131	0.1918	1088.2734	0.137363	-418.001964	-417.994028	-417.993084	-418.034393	30.12	
C	-0.096225705	 1.4422470389	-0.0954454526	-0.49899
C	-0.0412803875	-0.0239319169	 0.1647112934	 0.310425
C	-1.0132371126	-0.8938473791	 0.493731782	-0.023069
C	-2.363531329	-1.2229051134	-0.1143462247	-0.224881
N	-1.6734082163	-2.3918996287	-0.7698041863	-0.321429
C	-0.5356286179	-2.292478082	 0.2073106539	-0.13848
C	 0.933698158	-2.1111125067	-0.23070176	 0.414306
O	 1.7747575601	-2.9267090578	-0.5168760099	-0.361317
N	 1.1490324559	-0.7385045056	-0.0754501574	-0.366715
H	 0.5411282261	 1.9992315605	 0.6026863519	 0.139186
H	 0.2496037604	 1.6764593196	-1.1093945164	 0.138833
H	-1.1178232324	 1.8098419605	 0.0220545427	 0.142667
H	-3.1336721315	-1.5214370466	 0.6099035055	 0.101531
H	-2.7939339822	-0.5025214501	-0.8172892103	 0.110398
H	-2.1843444165	-3.2657014462	-0.6751205269	 0.223678
H	-0.5742553909	-3.0408098207	 1.0084825091	 0.097777
H	 2.0529099513	-0.3234778756	-0.2390338537	 0.256078
123.5798	148.6086	166.7461	231.7127	264.046	317.0948	426.9494	498.93	576.3536	607.5959	617.8122	681.9303	736.6458	757.3971	879.3578	909.2088	936.7633	973.2436	990.2268	1054.4536	1063.9073	1088.746	1115.1468	1145.2366	1196.9014	1214.9683	1259.2436	1291.5266	1328.4438	1375.7469	1402.5973	1417.5864	1473.9677	1488.2755	1512.3683	1715.0976	1841.2142	3003.8626	3023.7084	3030.4818	3068.6489	3073.4291	3129.3166	3494.8187	3641.3874
CC1=C2CNC2C(=O)N1	C[C]1[C]2CN[C@H]2C(=O)N1	
InChI=1S/C6H8N2O/c1-3-4-2-7-5(4)6(9)8-3/h5,7H,2H2,1H3,(H,8,9)	InChI=1S/C6H8N2O/c1-3-4-2-7-5(4)6(9)8-3/h5,7H,2H2,1H3,(H,8,9)/t5-/m1/s1
