19
gdb 91503	2.62373	1.82727	1.50916	2.245	75.27	-0.2418	0.0492	0.291	953.1578	0.160757	-422.91681	-422.909777	-422.908833	-422.94774	29.93	
O	-0.074076669	 1.3514493283	-0.0728692489	-0.454598
C	 0.0667927134	-0.0460647925	 0.0494418873	 0.146982
C	 0.5461780736	-0.5272309407	 1.4510689062	-0.256823
C	-0.7625575442	-1.1972403058	 1.8596451929	-0.004093
O	-1.7932940978	-0.1942841851	 1.3842372684	-0.398782
C	-1.3344383568	-0.7218179232	 0.0492300983	 0.375652
C	-1.790446208	-1.3172547982	-1.3020460208	-0.347666
C	-0.89919694	-2.5720933484	-0.8302873468	-0.293426
C	-1.2113184788	-2.0727867516	 0.633298047	-0.00662
H	-0.7395212057	 1.5934366905	 0.586217077	 0.283204
H	 0.7177966554	-0.3585557872	-0.7694495771	 0.079499
H	 1.388014019	-1.2248224387	 1.4187498579	 0.103007
H	 0.8089651596	 0.3183079258	 2.0901882708	 0.109749
H	-0.9335784825	-1.499738249	 2.892886586	 0.087396
H	-2.8457545734	-1.5940535161	-1.3349080741	 0.123831
H	-1.5098770368	-0.7901027805	-2.2170579867	 0.116438
H	-1.2748802199	-3.5625152018	-1.0915973192	 0.113575
H	 0.1380323282	-2.4799711176	-1.153807642	 0.125082
H	-2.2151766763	-2.4307998783	 0.8760353538	 0.097593
167.1983	258.1726	265.0809	331.5706	426.5016	461.7051	539.9851	549.9844	613.0474	626.0004	669.6509	745.3012	784.3352	801.0993	845.2658	854.1528	876.3705	922.4673	947.3911	987.5575	1020.5311	1058.9998	1069.1406	1085.1542	1112.6299	1142.7169	1150.983	1197.2997	1206.128	1219.0359	1228.1102	1249.027	1262.9321	1296.9086	1301.3522	1337.2865	1390.2104	1448.4511	1480.8133	1485.7249	1493.5521	3062.6235	3066.6912	3070.5283	3082.8173	3094.8445	3119.0073	3124.5704	3132.5211	3150.4722	3750.4177
OC1CC2OC11CCC21	O[C@H]1C[C@H]2O[C@]31CC[C@@H]23	
InChI=1S/C7H10O2/c8-6-3-5-4-1-2-7(4,6)9-5/h4-6,8H,1-3H2	InChI=1S/C7H10O2/c8-6-3-5-4-1-2-7(4,6)9-5/h4-6,8H,1-3H2/t4-,5+,6-,7+/m0/s1
