15
gdb 129549	3.21924	1.2185	1.01828	4.1162	71.38	-0.2437	0.0011	0.2448	1158.998	0.114176	-412.963088	-412.954747	-412.953802	-412.99702	30.232	
N	-0.1342739398	 1.5411717363	-0.017819257	-0.498293
C	 0.0034653432	 0.0815302169	-0.0593616647	-0.245913
C	-1.3037495294	-0.5510111829	 0.1474174788	 0.37195
C	-2.3782579915	-1.0664440024	 0.2950037654	-0.477084
C	 0.6451275823	-0.4652611693	-1.3230418013	 0.335153
N	 0.6997694014	 0.2315704156	-2.4471895443	-0.274651
N	 1.3330632755	-0.6269622762	-3.2828724327	-0.175184
C	 1.6298711405	-1.7719288806	-2.6376701615	 0.016026
N	 1.2109667706	-1.7066953771	-1.3905432917	-0.293075
H	 0.7736377826	 1.9537742917	-0.2174919607	 0.23225
H	-0.7373064931	 1.8293447559	-0.7840548042	 0.242993
H	 0.6546853085	-0.2178896755	 0.7725448511	 0.13322
H	-3.3257041484	-1.5246252258	 0.4359407188	 0.198636
H	 1.5232975389	-0.3551990936	-4.2333944028	 0.28384
H	 2.1421644288	-2.6000939729	-3.1044027531	 0.150131
30.3779	106.2977	186.8631	212.4519	239.164	307.9704	414.0332	462.5599	540.3127	578.4924	621.5855	650.144	679.6903	713.6618	815.9441	860.9235	912.8685	943.1927	996.2339	1013.9202	1103.8248	1127.8522	1172.9157	1200.2511	1267.0192	1307.7219	1362.7107	1394.6238	1466.4584	1470.7345	1552.6473	1661.4439	2243.4555	3025.5148	3257.1666	3484.6553	3505.7037	3561.376	3664.8202
NC(C#C)C1=NNC=N1	N[C@@H](C#C)c1n[nH]cn1	
InChI=1S/C5H6N4/c1-2-4(6)5-7-3-8-9-5/h1,3-4H,6H2,(H,7,8,9)	InChI=1S/C5H6N4/c1-2-4(6)5-7-3-8-9-5/h1,3-4H,6H2,(H,7,8,9)/t4-/m0/s1
