17
gdb 6261	4.03455	1.06713	1.03457	3.6435	73.75	-0.2557	-0.0227	0.233	1221.3426	0.139554	-363.865598	-363.856155	-363.855211	-363.901323	33.336	
C	 0.2033492181	 1.7049902621	-0.1462350621	-0.383386
C	 0.0165024002	 0.1958085107	 0.0487712001	 0.040008
C	 0.57029754	-0.6125033555	-1.1304085284	-0.383455
N	 0.6279656087	-0.2397095744	 1.3020876975	-0.319823
C	-0.0789339603	-0.7868200888	 2.3313333615	 0.297301
O	-1.2834123517	-0.9723553686	 2.3220712554	-0.364899
C	 0.7536949267	-1.1415411599	 3.476730194	 0.203684
C	 1.4121556608	-1.4446573191	 4.4361205552	-0.401158
H	 1.26598981	 1.963506368	-0.2279947898	 0.10959
H	-0.2902485221	 2.0366383708	-1.0648389218	 0.122077
H	-0.220294223	 2.2619483306	 0.693620886	 0.129941
H	-1.0475185788	-0.0235376637	 0.1686036212	 0.130518
H	 1.6475064869	-0.4460542971	-1.2513432604	 0.109598
H	 0.4043875303	-1.6827158058	-0.9815631729	 0.129919
H	 0.0818675024	-0.3135647499	-2.0628934172	 0.122097
H	 1.6240407622	-0.1327145703	 1.4198293912	 0.24977
H	 1.9806448096	-1.7177864091	 5.2915329005	 0.208219
12.3895	68.3742	127.7029	228.0037	229.073	260.1482	262.9212	334.9121	437.3455	446.917	490.9287	521.7088	601.6958	656.2898	674.1349	762.498	852.0728	909.6786	932.6016	948.9019	996.0834	1144.8624	1176.1296	1189.3162	1240.4825	1362.1158	1367.6375	1399.7272	1419.3366	1483.7363	1488.6218	1494.9044	1506.3509	1536.3672	1753.796	2225.4915	3028.587	3032.376	3084.4439	3095.305	3111.7576	3119.8308	3122.5884	3496.3302	3622.5241
CC(C)NC(=O)C#C	CC(C)NC(=O)C#C	
InChI=1S/C6H9NO/c1-4-6(8)7-5(2)3/h1,5H,2-3H3,(H,7,8)	InChI=1S/C6H9NO/c1-4-6(8)7-5(2)3/h1,5H,2-3H3,(H,7,8)
