16
gdb 35750	2.85769	1.46139	1.21195	3.7154	68.27	-0.2721	0.0137	0.2858	1046.0393	0.124268	-437.87115	-437.863238	-437.862294	-437.90433	29.166	
N	 1.0766641724	-0.8422503214	 0.0708297639	-0.326428
C	 0.5478715633	 0.1843282123	 0.0978652411	 0.282306
C	-0.154172228	 1.5053516402	 0.1073515088	 0.041956
O	-0.7737343269	 1.7245823217	 1.3497365508	-0.251558
C	 0.1175667873	 2.5324858113	 2.1345092274	-0.154657
C	 1.2640614987	 2.843038292	 1.1801997139	 0.392528
C	 2.2298596783	 3.966574968	 1.2986651812	-0.347144
C	 2.7051794203	 2.5308184376	 1.4639548093	-0.314895
O	 0.7413194991	 2.5579524566	-0.1075700547	-0.248749
H	-0.9088593575	 1.5125522806	-0.6840847336	 0.141769
H	-0.429076933	 3.4287438797	 2.4461166979	 0.124522
H	 0.4475731705	 1.9807044698	 3.0204480795	 0.127267
H	 2.4974989423	 4.4806872201	 0.3825026524	 0.139317
H	 2.1693346268	 4.6023199672	 2.1756834613	 0.126296
H	 2.969364759	 2.1818338538	 2.4566861437	 0.125282
H	 3.2850734775	 2.1014682205	 0.6555957972	 0.142188
55.79	82.6254	189.271	266.3488	280.9502	322.0783	447.9435	505.5072	534.4022	600.8789	762.6782	796.7366	809.1244	870.0167	904.4476	922.5211	957.1759	963.3566	990.6809	1040.3927	1057.8234	1082.4215	1108.383	1131.2328	1187.128	1207.3519	1245.6219	1321.1643	1351.0488	1371.9347	1402.7324	1452.3597	1501.7497	1525.296	2355.0221	3039.3462	3084.8219	3085.5259	3135.9632	3138.7532	3222.1064	3236.5319
N#CC1OCC2(CC2)O1	N#C[C@H]1OCC2(CC2)O1	
InChI=1S/C6H7NO2/c7-3-5-8-4-6(9-5)1-2-6/h5H,1-2,4H2	InChI=1S/C6H7NO2/c7-3-5-8-4-6(9-5)1-2-6/h5H,1-2,4H2/t5-/m0/s1
