17
gdb 105996	2.72122	1.68249	1.27406	2.023	72.16	-0.2139	0.0697	0.2836	1018.6181	0.133623	-421.688583	-421.680593	-421.679649	-421.720969	31.002	
C	 0.0445417996	 1.2591203257	 0.2432423633	-0.255933
O	-0.0714485448	-0.0685527116	-0.2529029007	-0.275484
C	-1.3229025195	-0.5837889057	-0.1533142922	 0.391358
C	-2.6667700455	-0.2611608109	-0.9036854013	-0.178317
C	-3.4509421892	-0.7240639576	 0.3149185805	-0.076099
C	-3.0779360007	-1.7235731479	-0.7705916795	-0.172925
C	-1.7323732429	-2.0260826015	-0.0171161719	 0.299105
O	-0.9257643434	-3.1267208083	 0.0255862558	-0.448126
C	-2.1363299268	-1.0266488232	 1.0863663138	-0.289219
H	 1.0909338292	 1.5486505112	 0.128996291	 0.130313
H	-0.5862295679	 1.955579033	-0.3252671876	 0.116721
H	-0.2392871248	 1.3109649653	 1.3023806204	 0.115176
H	-2.9319229871	 0.4445332723	-1.6806077079	 0.089901
H	-4.430288356	-0.4152937399	 0.6585661214	 0.085258
H	-3.7047306117	-2.3118919304	-1.4289359324	 0.089413
H	-1.327044638	-3.7793671157	 0.6115886173	 0.289692
H	-1.8649309805	-1.0139128848	 2.13337509	 0.089167
99.7649	143.831	171.5344	252.1889	295.2476	337.5623	404.8715	467.0205	564.7024	649.63	723.2014	744.8179	753.0823	785.7004	807.2283	856.3835	882.1961	916.5642	927.9947	964.8606	1007.1304	1015.0739	1027.4362	1061.8523	1103.2451	1171.3552	1178.2989	1185.9981	1222.01	1237.9328	1287.9793	1308.8628	1366.5094	1468.1877	1486.1501	1503.9422	1526.9085	3002.2433	3060.311	3129.5372	3180.6167	3185.9951	3200.6219	3210.618	3776.3741
COC12C3C4C3C1(O)C24	CO[C@@]12[C@@H]3[C@H]4[C@@H]3[C@]1(O)[C@@H]24	
InChI=1S/C7H8O2/c1-9-7-4-2-3(4)6(7,8)5(2)7/h2-5,8H,1H3	InChI=1S/C7H8O2/c1-9-7-4-2-3(4)6(7,8)5(2)7/h2-5,8H,1H3/t2-,3+,4-,5+,6+,7-/m1/s1
