21
gdb 68748	2.33475	1.68587	1.19889	3.0995	82.85	-0.2316	-0.0053	0.2264	1118.8145	0.181973	-387.13071	-387.121614	-387.12067	-387.164075	34.986	
C	-0.0198121451	 1.5200250919	-0.0814130276	-0.47933
C	-0.0087856975	 0.0140025523	 0.0165169899	 0.298166
C	 1.2572362146	-0.7537796774	-0.2011737802	-0.371078
C	 0.6242388741	-0.7374550942	 1.1931636774	 0.186127
C	 1.3456010077	-0.1248142099	 2.3671661085	-0.482878
C	-0.2473949793	-1.9260861025	 1.4598576075	 0.372482
O	-0.2319774445	-2.5890167931	 2.4693127818	-0.334058
C	-1.2147810287	-2.1113595379	 0.2824673262	-0.348534
C	-1.2893129577	-0.7271302046	-0.3890186665	-0.272192
H	 0.9260571366	 1.957708305	 0.2501820352	 0.119355
H	-0.1828933629	 1.8369529958	-1.1183609385	 0.122187
H	-0.8231647872	 1.9513100935	 0.5265870421	 0.120161
H	 1.251392098	-1.6699236892	-0.7836518768	 0.113688
H	 2.1770543653	-0.1837121843	-0.287832854	 0.11643
H	 1.9711660716	 0.7189320481	 2.0635586769	 0.110748
H	 0.6395281244	 0.2280831508	 3.1257777634	 0.125884
H	 1.9869212804	-0.8718108222	 2.8446092763	 0.138022
H	-0.8120613789	-2.8787191923	-0.3890288047	 0.128439
H	-2.174752797	-2.4831058723	 0.6450281399	 0.128475
H	-2.1561315055	-0.1734624426	-0.0096988911	 0.106106
H	-1.3963011784	-0.7836676651	-1.4778740558	 0.101799
96.2767	124.8758	180.5795	195.8224	229.753	261.3175	314.0853	384.4304	433.9758	474.6239	515.9255	562.7114	651.0169	673.2295	679.9991	795.854	850.764	883.6751	938.9739	955.0657	972.4391	1010.054	1027.3106	1051.2912	1077.952	1094.7959	1104.3211	1140.3139	1202.834	1236.5299	1245.483	1284.1617	1320.2094	1357.1624	1394.4785	1413.4192	1424.0933	1462.3728	1479.7791	1489.8631	1490.6059	1492.2998	1499.778	1511.4893	1822.3409	3024.7931	3033.4919	3039.8407	3046.5178	3071.4647	3083.3319	3103.5259	3106.5492	3115.5661	3118.4543	3121.2218	3203.7844
CC12CC1(C)C(=O)CC2	C[C@@]12C[C@]1(C)C(=O)CC2	
InChI=1S/C8H12O/c1-7-4-3-6(9)8(7,2)5-7/h3-5H2,1-2H3	InChI=1S/C8H12O/c1-7-4-3-6(9)8(7,2)5-7/h3-5H2,1-2H3/t7-,8-/m1/s1
