17
gdb 120241	3.06838	1.11585	0.91554	2.5582	69.85	-0.2307	-0.0366	0.1941	1298.2814	0.133197	-458.917051	-458.908236	-458.907292	-458.951626	31.244	
C	-0.0979181681	 1.50120267	 0.0479221637	-0.386259
C	-0.1358445545	 0.0115663373	-0.2398428273	-0.048164
O	-1.3351466527	-0.5177427467	 0.3230802919	-0.254626
C	-1.477911525	-1.8850200002	 0.1419776056	 0.01729
C	-2.7707578184	-2.49915911	 0.679107646	-0.012028
O	-3.8378680353	-1.9920833478	-0.1101411584	-0.223105
C	-3.1152586677	-3.1349662696	-0.6206143959	-0.114144
C	-1.880355925	-2.5046235034	-1.2577856485	 0.386172
O	-1.3624580929	-2.5429059854	-2.3327791117	-0.299454
H	 0.8145594209	 1.9422587707	-0.3638869979	 0.118712
H	-0.9597423152	 2.0006020571	-0.4030622133	 0.133834
H	-0.1187372473	 1.6856383528	 1.1257031312	 0.126627
H	-0.1110991798	-0.1829591092	-1.3202792096	 0.122198
H	 0.7354850544	-0.4959869816	 0.2064557468	 0.08926
H	-0.5919411856	-2.4469486466	 0.4934115898	 0.090286
H	-2.9959565327	-2.8535596361	 1.6772173696	 0.123709
H	-3.6757078451	-4.0345729013	-0.842105352	 0.129693
62.2847	76.4399	96.0372	180.0164	220.321	257.6467	288.6573	399.6473	482.5889	560.1858	664.4236	734.2196	813.8963	822.6413	851.533	895.8788	908.5557	925.0201	974.016	1029.7561	1053.6739	1066.0936	1142.9391	1178.6316	1185.7139	1209.2679	1214.1743	1263.7942	1299.3695	1348.3748	1358.1683	1403.7697	1441.263	1483.7006	1500.0038	1528.7925	1899.9103	2935.7555	2970.1602	3035.9639	3046.9427	3121.9075	3125.3204	3198.4615	3210.934
CCOC1C2OC2C1=O	CCO[C@H]1[C@H]2O[C@H]2C1=O	
InChI=1S/C6H8O3/c1-2-8-4-3(7)5-6(4)9-5/h4-6H,2H2,1H3	InChI=1S/C6H8O3/c1-2-8-4-3(7)5-6(4)9-5/h4-6H,2H2,1H3/t4-,5+,6-/m1/s1
