14
gdb 24033	4.15076	1.09442	1.01316	0.3824	73.4	-0.2681	-0.0547	0.2134	1164.9949	0.102142	-395.743162	-395.735533	-395.734589	-395.776783	27.357	
C	 0.0080544688	-1.1995709893	-0.0054076661	-0.454901
C	-0.006139432	 0.0012858982	 0.0018262559	 0.313333
C	-0.0025277718	 1.4611042506	 0.0104591663	-0.40709
C	 1.4138027465	 2.003468565	-0.0003740687	 0.356175
N	 2.0049849549	 2.2110869031	 1.1800444981	-0.261394
C	 3.2537444799	 2.6673612407	 1.1018773463	 0.084197
N	 3.9272418976	 2.9241197662	-0.0199061843	-0.236747
C	 3.2297925711	 2.6854214935	-1.130959748	 0.084225
N	 1.9795216001	 2.2302733227	-1.189688101	-0.261494
H	 0.0123258399	-2.2613868295	-0.0117845314	 0.203903
H	-0.5269213444	 1.8411797722	-0.8719375538	 0.153831
H	-0.5092843761	 1.8305413882	 0.907577555	 0.153828
H	 3.7704879067	 2.8500636876	 2.0416348418	 0.136067
H	 3.7262864287	 2.8833423907	-2.07851954	 0.136067
22.8292	87.199	205.3055	318.3952	345.2963	355.2388	399.7826	527.9667	621.2696	642.0744	660.391	706.3939	817.353	895.0711	938.3162	964.6617	991.6031	1011.4842	1048.6692	1160.3898	1185.9919	1221.0842	1291.649	1306.8426	1348.3481	1423.745	1452.3286	1465.5845	1585.7951	1603.6103	2243.3129	3050.6768	3100.0196	3162.9792	3166.6206	3506.7859
C#CCC1=NC=NC=N1	C#CCc1ncncn1	
InChI=1S/C6H5N3/c1-2-3-6-8-4-7-5-9-6/h1,4-5H,3H2	InChI=1S/C6H5N3/c1-2-3-6-8-4-7-5-9-6/h1,4-5H,3H2
