15
gdb 29301	5.51477	0.98214	0.88098	1.8739	69.33	-0.1987	0.0149	0.2136	1258.0741	0.113939	-453.959846	-453.952205	-453.951261	-453.992313	28.715	
O	 0.5702229853	 1.2621696874	-0.6901835588	-0.438467
C	 0.2608124527	 0.0290212006	-0.2345281653	 0.338563
C	-0.8436644533	-0.7178774841	-0.5612154488	-0.205599
N	-0.6911536339	-1.8830574272	 0.1736175197	-0.276649
C	 0.4650189175	-1.7831132296	 0.8715368045	 0.356986
N	 1.0702370707	-0.6287015495	 0.6465671058	-0.406435
C	 0.9288038387	-2.8566743552	 1.7692837526	-0.028248
C	 0.0899570638	-3.3696100428	 2.8698482366	-0.172068
O	 0.218079949	-4.0951655811	 1.6446950357	-0.244312
H	 1.4084070292	 1.499144745	-0.2755397502	 0.300687
H	-1.6747259336	-0.5443215069	-1.2204968537	 0.131667
H	-1.2613508253	-2.7120175408	 0.1389053535	 0.27452
H	 2.0096421815	-2.9390844055	 1.8644554149	 0.120983
H	 0.56307151	-3.8305918577	 3.7353364854	 0.126988
H	-0.8841861922	-2.9177999127	 3.047088708	 0.121384
75.2034	145.8218	169.4216	311.623	348.2264	367.2419	416.7147	496.9594	588.4708	652.7674	659.033	707.5986	730.961	745.3702	853.8831	897.1906	987.5849	1024.6656	1031.5086	1090.9577	1105.244	1147.9333	1167.515	1177.1455	1258.2376	1293.2235	1324.1325	1377.2234	1435.5507	1492.432	1519.7043	1576.548	1657.7596	3088.4316	3139.4512	3182.8022	3297.5479	3664.6137	3806.8387
OC1=CNC(=N1)C1CO1	Oc1c[nH]c(n1)[C@H]1CO1	
InChI=1S/C5H6N2O2/c8-4-1-6-5(7-4)3-2-9-3/h1,3,8H,2H2,(H,6,7)	InChI=1S/C5H6N2O2/c8-4-1-6-5(7-4)3-2-9-3/h1,3,8H,2H2,(H,6,7)/t3-/m1/s1
