20
gdb 51651	3.56977	1.08344	1.04209	3.6245	79.17	-0.2477	0.0311	0.2787	1230.8567	0.173144	-403.176326	-403.168062	-403.167118	-403.209818	31.687	
O	-0.191842968	 0.6500447704	-0.8162855649	-0.330028
C	 0.2623649673	 1.7365367458	-0.5211339246	 0.151886
N	 1.5425742337	 1.9579090825	-0.128150175	-0.275403
C	 2.4965302913	 0.8648004416	 0.0684942014	 0.033148
C	 3.0770506207	 0.3128800981	-1.2648966041	-0.218662
C	 4.4181694553	 1.0045702442	-1.4604094098	-0.02127
C	 4.4588905549	 2.5082517977	-1.3435731674	-0.288936
C	 4.8120833681	 1.6513374604	-0.1499949146	-0.021175
C	 3.7290699151	 1.3454438871	 0.8745267842	-0.264647
H	-0.3334455603	 2.6715779164	-0.5470404213	 0.071925
H	 1.7967833296	 2.8874149175	 0.1655759161	 0.246116
H	 1.9554104595	 0.0723560344	 0.5913681754	 0.104977
H	 3.2360021917	-0.7666214882	-1.163469437	 0.103424
H	 2.3722617408	 0.4572662035	-2.0873138229	 0.122578
H	 5.1571469645	 0.5205134328	-2.0892921799	 0.083223
H	 5.279684543	 3.020156162	-1.8346007111	 0.111197
H	 3.5264084731	 3.0618646816	-1.3615110662	 0.100729
H	 5.842259592	 1.6533126454	 0.1884162886	 0.083031
H	 3.482077576	 2.1907581496	 1.5284514223	 0.095398
H	 4.0701476917	 0.5355352271	 1.5282862308	 0.112487
40.5426	120.8172	184.2873	226.9113	268.1269	372.0869	384.2154	414.9843	517.1854	623.1828	725.3269	757.7975	764.4017	825.4926	863.0241	878.4666	885.3104	957.4994	970.5494	982.3476	1030.236	1051.4521	1067.9607	1072.8498	1096.0774	1111.6433	1125.8991	1186.6536	1194.	1208.8881	1248.079	1270.8084	1324.4403	1325.1239	1356.429	1388.5606	1406.1478	1427.8113	1483.0402	1488.3662	1494.2294	1514.708	1799.1104	2925.5277	3030.3866	3045.084	3066.4883	3079.5924	3103.1988	3132.4503	3163.4657	3172.3974	3214.242	3633.713
O=CNC1CC2CC2C1	O=CN[C@H]1C[C@H]2C[C@H]2C1	
InChI=1S/C7H11NO/c9-4-8-7-2-5-1-6(5)3-7/h4-7H,1-3H2,(H,8,9)	InChI=1S/C7H11NO/c9-4-8-7-2-5-1-6(5)3-7/h4-7H,1-3H2,(H,8,9)/t5-,6+,7+
