15
gdb 97495	4.1975	0.68743	0.59603	1.0438	74.45	-0.2514	-0.0988	0.1526	1785.4902	0.108196	-457.750853	-457.740525	-457.739581	-457.78833	33.927	
C	 0.4330846881	 1.3769114492	 0.0214281101	-0.483483
C	 0.3062922613	-0.1243375326	 0.0644912186	 0.308573
O	 0.1940178012	-0.777841664	 1.0722517354	-0.268715
C	 0.3246406039	-0.8298507343	-1.3147209249	 0.078946
O	 0.4118404163	-0.183151578	-2.338028688	-0.274195
C	 0.2297405247	-2.2654677428	-1.2817783026	 0.020414
C	 0.1621678712	-3.4718246389	-1.2737264575	 0.165301
C	 0.0457619568	-4.9268773871	-1.3017226538	-0.205869
O	 0.300758957	-5.5017922037	-2.569131091	-0.393182
H	 1.3707173709	 1.6594391323	-0.468083209	 0.158865
H	-0.3687364374	 1.8045649048	-0.5885537905	 0.158817
H	 0.3976660634	 1.7761141082	 1.0350786511	 0.142677
H	 0.7784799138	-5.364136872	-0.6140593318	 0.159724
H	-0.9492822062	-5.2009123742	-0.9140147001	 0.136824
H	-0.2762253052	-5.0748540266	-3.211414216	 0.295301
37.8622	44.6617	62.8138	113.7338	139.5621	159.8818	263.4397	292.6777	362.4842	382.5865	427.7747	439.9919	556.5458	608.4293	678.3348	728.0567	881.4788	968.847	990.0653	1035.1328	1064.7601	1147.6527	1214.5404	1278.6691	1357.103	1385.0811	1413.4738	1452.6185	1460.178	1472.7063	1749.7731	1816.6038	2320.8774	2976.143	3050.1658	3066.9637	3111.8859	3163.2376	3815.8319
CC(=O)C(=O)C#CCO	CC(=O)C(=O)C#CCO	
InChI=1S/C6H6O3/c1-5(8)6(9)3-2-4-7/h7H,4H2,1H3	InChI=1S/C6H6O3/c1-5(8)6(9)3-2-4-7/h7H,4H2,1H3
