16
gdb 128555	3.85187	1.17617	0.9063	5.5337	79.78	-0.1974	-0.028	0.1694	1237.8115	0.125565	-434.058982	-434.05065	-434.049706	-434.093013	30.348	
C	-0.0058675759	 1.4219594974	 0.0086240376	-0.271421
O	-0.0204514566	 0.0025141869	 0.0045720329	-0.25197
C	-1.1958135511	-0.6609658775	 0.011968694	 0.52883
C	-1.2210501079	-2.016392982	 0.0088984366	-0.302617
C	-2.4861396705	-2.7162454864	 0.0168322593	 0.288279
N	-2.5653802912	-4.0051310402	 0.0143460157	-0.560811
C	-3.6396106937	-1.8015075308	 0.027762956	-0.045006
N	-3.5950937514	-0.5114267607	 0.0305378389	-0.20092
N	-2.3655250706	 0.0578666716	 0.0226531666	-0.32718
H	 1.0462536876	 1.7072809981	 0.0015217317	 0.158915
H	-0.489031039	 1.8376131822	-0.8850570494	 0.135789
H	-0.4755116528	 1.8323363967	 0.9118917334	 0.135815
H	-0.2915587056	-2.5685387596	 0.0005259766	 0.119052
H	-3.5455478104	-4.2953196878	 0.0210947467	 0.197985
H	-4.6413815275	-2.2255441013	 0.0343002557	 0.120653
H	-2.3818599734	 1.0614307535	 0.0248899278	 0.274608
22.6491	137.2254	187.4788	223.5273	238.5056	340.1584	379.5522	471.2125	479.928	527.74	576.0355	659.5359	723.1949	735.7243	817.4895	869.5315	931.9736	943.2627	1031.5033	1057.4566	1113.1739	1163.164	1169.5367	1210.0486	1266.1111	1338.6953	1364.7319	1415.5382	1483.2717	1498.6799	1503.8326	1512.6956	1628.1911	1662.48	1690.9841	3004.566	3067.9077	3147.6397	3158.7612	3233.0959	3438.2667	3691.5723
COC1=CC(=N)C=NN1	CO[C@H]1C=C([NH])C=NN1	
InChI=1S/C5H7N3O/c1-9-5-2-4(6)3-7-8-5/h2-3H,1H3,(H2,6,8)	InChI=1S/C5H8N3O/c1-9-5-2-4(6)3-7-8-5/h2-3,5-6,8H,1H3/t5-/m0/s1
