15
gdb 34183	4.52115	1.46263	1.3198	3.5257	72.35	-0.2565	0.0154	0.2719	935.5889	0.115107	-379.624745	-379.61851	-379.617565	-379.655277	25.374	
N	 0.1063368065	-1.0728362712	 0.000568493	-0.340932
C	 0.0532823708	 0.0831837345	-0.0019129924	 0.172138
C	-0.031717981	 1.509356864	-0.0203163088	 0.194042
C	-1.0868532644	 2.2592891829	-0.8296821064	-0.232079
N	-0.7587304953	 3.6500502167	-0.5223777126	-0.116475
C	-0.2333353172	 3.744001234	 0.8476495409	-0.07072
C	 0.6915445446	 3.7841174788	-0.3209679653	-0.070685
C	 1.2276261037	 2.3699877365	 0.0451653964	-0.126726
C	 0.2936524663	 2.3295728846	 1.2256060691	-0.126712
H	-0.9976204844	 2.0768386646	-1.9039282418	 0.129892
H	-2.1049699373	 2.0289046093	-0.5046972094	 0.129891
H	-0.5966018289	 4.5093342494	 1.520189911	 0.110009
H	 1.2364222193	 4.5888383389	-0.7958775743	 0.110015
H	 2.2286421301	 1.981409215	-0.0677190788	 0.119167
H	 0.4276239772	 1.9034702119	 2.2085879592	 0.119174
153.8675	158.6056	395.0276	493.3863	515.4331	528.7227	576.236	728.2205	737.135	772.4964	790.1344	814.2098	853.252	860.7334	925.3983	935.0422	953.5154	1002.3932	1015.2371	1042.3322	1065.3522	1072.0909	1133.1869	1189.361	1191.1595	1218.0655	1238.6185	1258.318	1282.6491	1316.8698	1389.2265	1498.2298	2352.3596	3066.7587	3119.0136	3200.3664	3212.2937	3230.2951	3240.4742
N#CC12CN3C4C3C1C24	N#C[C@]12CN3[C@@H]4[C@H]3[C@H]1[C@H]24	
InChI=1S/C7H6N2/c8-1-7-2-9-5-3(7)4(7)6(5)9/h3-6H,2H2	InChI=1S/C7H6N2/c8-1-7-2-9-5-3(7)4(7)6(5)9/h3-6H,2H2/t3-,4+,5-,6+,7+,9?
