16
gdb 19915	4.04535	1.89662	1.67169	2.4261	63.83	-0.221	0.0528	0.2738	823.4615	0.129006	-383.629473	-383.622314	-383.62137	-383.661194	26.864	
C	 0.1648521751	 1.0302944746	-0.3371087783	-0.232485
O	-0.1252201322	 0.0390867538	 0.6253117901	-0.221408
C	-1.269554101	-0.6807178233	 0.3329114381	 0.141668
C	-1.4986815756	-1.6808999393	-0.7826108171	-0.177608
C	-0.3338719675	-2.6840553636	-1.0275808673	 0.027673
O	 0.7877964701	-2.3446183037	-0.208348364	-0.230703
C	-0.3027265151	-3.0639111594	 0.3773363519	 0.028262
C	-1.486723661	-2.1030655671	 0.7142842447	-0.172214
H	 1.0540905746	 1.5610464487	 0.0096272634	 0.127911
H	 0.3707316287	 0.5863754351	-1.3208330809	 0.113433
H	-0.6615255394	 1.7509623388	-0.4442574462	 0.098033
H	-2.1828308354	-0.0901490903	 0.4753819385	 0.088889
H	-2.3530558357	-1.6090075177	-1.4445229364	 0.093309
H	-0.1540093063	-3.2480542604	-1.9348736165	 0.107878
H	-0.0864307252	-4.0039679249	 0.8694477444	 0.109936
H	-2.3223909741	-2.4222838713	 1.3250954556	 0.09743
57.1952	168.0625	181.2171	268.8808	340.3823	422.1346	596.8679	653.4832	706.5585	731.7031	774.4789	836.8515	862.9426	899.4822	942.0128	958.0483	973.6866	1009.0796	1037.2552	1055.3189	1091.7713	1097.2995	1179.2253	1204.3033	1230.7874	1240.7431	1270.7219	1279.9474	1322.3612	1391.4331	1441.5817	1485.9978	1490.6725	1506.1635	2976.2593	3026.2415	3036.4722	3122.3731	3178.1178	3186.9426	3189.446	3202.4007
COC1C2C3OC3C12	CO[C@H]1[C@H]2[C@H]3O[C@H]3[C@@H]12	
InChI=1S/C6H8O2/c1-7-4-2-3(4)6-5(2)8-6/h2-6H,1H3	InChI=1S/C6H8O2/c1-7-4-2-3(4)6-5(2)8-6/h2-6H,1H3/t2-,3+,4-,5+,6-
