16
gdb 34524	4.33832	1.25218	1.14191	5.3949	75.35	-0.2425	-0.0437	0.1988	1066.9084	0.12752	-396.93182	-396.924803	-396.923859	-396.963136	27.816	
N	 0.1136567747	-1.0924584856	 0.0806191567	-0.323536
C	 0.0122609903	 0.0575957726	 0.0291652823	 0.264935
C	-0.0599018719	 1.5009143009	-0.0129868337	 0.24303
N	-1.1978177007	 2.0910312186	 0.0142118412	-0.283216
C	-1.0883050323	 3.5540494515	 0.026809844	 0.006272
C	-0.0858081331	 4.0209739891	-1.0738896057	-0.221427
C	 1.0191520247	 3.6206160248	-0.0567677739	-0.000601
C	-0.0014482236	 3.9965117584	 1.0571640385	-0.233692
N	 1.1466695122	 2.1625634405	-0.1231871926	-0.331462
H	-2.08197656	 3.9966907181	 0.0725885429	 0.084198
H	-0.1067338367	 3.5027763178	-2.0339327408	 0.117227
H	-0.1179008176	 5.1020679719	-1.2179600893	 0.112566
H	 2.0053544753	 4.0816934837	-0.0971942541	 0.085328
H	-0.0283066942	 5.0746442926	 1.2229504407	 0.112758
H	 0.0484560852	 3.461347926	 2.0076375843	 0.108044
H	 1.9715937478	 1.7209612089	 0.2539695695	 0.259577
119.9502	165.3792	319.028	361.5424	389.5555	428.6433	501.924	540.516	564.6617	574.0781	729.6729	811.9414	829.019	866.4684	871.7409	898.0728	970.1622	991.488	1004.516	1056.8342	1071.1883	1116.4227	1161.9697	1187.785	1228.257	1240.3943	1260.3034	1269.7847	1322.0265	1360.9836	1468.9144	1476.9156	1502.4835	1660.7959	2361.1713	3071.6333	3078.2921	3120.2099	3122.3458	3138.3603	3143.5354	3615.9528
N#CC1=NC2CC(C2)N1	N#C[C]1[N][C@@H]2C[C@@H](C2)N1	
InChI=1S/C6H7N3/c7-3-6-8-4-1-5(2-4)9-6/h4-5H,1-2H2,(H,8,9)	InChI=1S/C6H7N3/c7-3-6-8-4-1-5(2-4)9-6/h4-5H,1-2H2,(H,8,9)/t4-,5+
