19
gdb 53422	2.52205	1.07046	0.90234	2.7604	84.43	-0.2277	-0.0187	0.2089	1395.62	0.158468	-385.904581	-385.895087	-385.894143	-385.941392	33.539	
C	-0.1258289541	 1.4252371134	 0.147293396	-0.497118
C	-0.0034855826	-0.0242034511	 0.0863597424	 0.030258
C	 0.1063681858	-1.2221465943	 0.017931134	 0.107715
C	 0.2032721305	-2.6764282752	-0.036806308	-0.266591
C	 0.7390468727	-3.2902928667	 1.2779010951	-0.220179
C	-0.5026277662	-3.3622769952	 2.1922768361	-0.212716
C	-1.6373731059	-3.7888968823	 1.2489564447	-0.30822
C	-1.2363156471	-3.2703371915	-0.1367083777	 0.406712
O	-1.8949583536	-3.3291444793	-1.1376352216	-0.307548
H	 0.4642643444	 1.9058780578	-0.6407648763	 0.150814
H	-1.1670488097	 1.7415661389	 0.0200040314	 0.151216
H	 0.2248039813	 1.8161946067	 1.1088439545	 0.146611
H	 0.7731525803	-2.9832002377	-0.9195295174	 0.115953
H	 1.1136599784	-4.3001797138	 1.0728610431	 0.10198
H	 1.5561206743	-2.7089046413	 1.7085727926	 0.113129
H	-0.3639672974	-4.0465159602	 3.0324492352	 0.103341
H	-0.7093023606	-2.369396598	 2.6044788361	 0.118822
H	-1.7109722256	-4.88145708	 1.1735155109	 0.132904
H	-2.630862355	-3.4244813801	 1.5216321588	 0.132917
12.331	56.0654	85.5311	120.4545	216.7277	248.6245	307.417	402.6453	446.6579	485.7098	531.8041	598.7959	628.2045	728.6935	793.8394	833.5716	893.1448	902.3212	964.2388	1025.9571	1050.4637	1051.1204	1058.8734	1108.6924	1126.9001	1160.2342	1186.8818	1233.8814	1254.431	1299.7147	1309.6136	1337.7001	1350.7651	1414.7955	1447.5473	1477.6983	1478.3842	1489.0486	1500.6764	1855.2975	2363.1588	3026.5933	3037.5569	3038.3038	3056.7235	3060.6953	3087.2529	3088.163	3100.6148	3108.7429	3116.3206
CC#CC1CCCC1=O	CC#C[C@H]1CCCC1=O	
InChI=1S/C8H10O/c1-2-4-7-5-3-6-8(7)9/h7H,3,5-6H2,1H3	InChI=1S/C8H10O/c1-2-4-7-5-3-6-8(7)9/h7H,3,5-6H2,1H3/t7-/m0/s1
