16
gdb 11445	4.52414	1.33078	1.21343	4.0476	60.33	-0.2634	0.0155	0.2789	998.8518	0.131215	-420.918767	-420.911128	-420.910184	-420.951157	27.647	
O	 0.0937803913	 1.25349555	-0.3302491802	-0.420989
C	 0.0053734402	-0.1457541591	-0.1181365537	-0.085493
C	-1.4566329988	-0.4770673913	 0.1771937473	-0.014557
C	-2.359576376	-0.1782473019	-1.0355091918	-0.087002
O	-2.4160284077	-1.3968882644	-1.7987276972	-0.218707
C	-2.0747215828	-2.4694386652	-1.0341877575	 0.432391
O	-2.10511973	-3.5908768363	-1.4489827495	-0.336176
C	-1.6773843074	-1.9825563389	 0.3580974193	-0.385843
H	 0.9856346938	 1.4633757063	-0.6215920324	 0.293402
H	 0.3410555223	-0.7086527512	-1.0041906801	 0.1027
H	 0.629286692	-0.4637656292	 0.731610818	 0.095134
H	-1.7706637305	 0.1074369513	 1.0453799034	 0.09574
H	-3.377597256	 0.092184648	-0.7335856345	 0.113379
H	-1.9559759026	 0.6082163829	-1.6743745859	 0.138968
H	-0.8067644555	-2.5371544874	 0.7149338075	 0.136468
H	-2.5047724623	-2.1983448838	 1.0424388873	 0.140585
74.8171	127.8368	169.9454	251.672	258.4409	346.376	431.9312	518.0623	558.9947	692.5667	726.3329	828.9255	851.6451	904.7659	946.316	1022.8095	1032.3994	1073.8241	1085.0522	1138.8904	1173.4141	1179.3104	1216.3113	1244.615	1275.1415	1285.111	1319.6389	1372.4328	1393.1178	1458.3889	1465.6114	1519.1812	1524.9879	1883.7444	2969.2889	3001.4082	3044.0035	3060.45	3086.8228	3115.5588	3130.4182	3836.1595
OCC1COC(=O)C1	OC[C@H]1COC(=O)C1	
InChI=1S/C5H8O3/c6-2-4-1-5(7)8-3-4/h4,6H,1-3H2	InChI=1S/C5H8O3/c6-2-4-1-5(7)8-3-4/h4,6H,1-3H2/t4-/m0/s1
