18
gdb 80368	2.35565	1.66956	1.18164	2.4452	77.48	-0.2312	0.024	0.2552	1079.95	0.14538	-401.856699	-401.847805	-401.846861	-401.889693	34.347	
C	-0.144221114	 1.4971985102	 0.1794900075	-0.433202
C	 0.0599429899	 0.0140476819	-0.0324594016	 0.017695
C	 0.6204197979	-0.665958724	-1.2186924552	-0.098097
N	 1.3408175782	-0.7089213612	 0.1254752707	-0.152151
C	 2.4199299981	 0.1489039934	-0.4759622065	-0.227294
C	 1.777875734	 0.0726843949	-1.8998559619	 0.238484
O	 2.4381805882	-0.8712103953	-2.733702033	-0.46169
C	 1.5257568798	 1.3088014874	-2.6334697853	 0.283322
C	 1.3806967592	 2.325989218	-3.2594503829	-0.477378
H	 0.5485336351	 2.1228505501	-0.383283574	 0.136341
H	-1.1565479415	 1.7714456063	-0.1347457623	 0.126742
H	-0.0494369317	 1.739871747	 1.2436039307	 0.124792
H	-0.7234788743	-0.5782902545	 0.4394423454	 0.101743
H	 0.1822928905	-1.5499305347	-1.6711848336	 0.107619
H	 2.5360239187	 1.1341009821	-0.0175694921	 0.105788
H	 3.3694408733	-0.3880822487	-0.4609638353	 0.119865
H	 3.1478101845	-0.408460793	-3.1931232728	 0.284731
H	 1.230797914	 3.22204281	-3.8102139079	 0.202691
117.6401	135.2732	182.5134	210.5842	263.6621	275.0611	317.6337	390.7827	463.9423	491.0937	528.9858	601.238	639.1185	647.3018	666.6537	708.4303	785.6809	843.299	914.4385	922.0431	964.716	1002.9314	1044.6884	1078.2027	1097.8755	1121.1499	1126.9511	1177.8402	1219.0354	1250.0043	1276.7601	1335.8831	1382.8927	1415.7854	1440.7534	1476.4929	1498.9288	1505.1169	2224.5857	3040.9345	3064.3947	3098.0497	3111.5065	3131.8921	3150.0844	3166.759	3497.5549	3807.1648
CC1C2N1CC2(O)C#C	C[C@H]1[C@@H]2N1C[C@]2(O)C#C	
InChI=1S/C7H9NO/c1-3-7(9)4-8-5(2)6(7)8/h1,5-6,9H,4H2,2H3	InChI=1S/C7H9NO/c1-3-7(9)4-8-5(2)6(7)8/h1,5-6,9H,4H2,2H3/t5-,6-,7+,8?/m0/s1
