17
gdb 92784	2.76476	1.43619	1.06452	3.0531	72.76	-0.2602	-0.0731	0.1871	1113.9029	0.135934	-458.986364	-458.978207	-458.977263	-459.019059	31.148	
O	-0.0410792306	 1.434644901	 0.2208116085	-0.447997
C	 0.0425856121	 0.0329311925	 0.0930745494	 0.109766
C	 0.6070785821	-0.5403236516	 1.415014488	-0.275595
C	-0.6293115187	-0.8322744181	 2.2221400317	-0.141703
C	-1.7317827033	-0.8232888604	 1.4589608633	 0.215425
C	-3.1028195212	-1.0056530158	 1.9138947398	 0.0662
O	-4.0692780874	-0.8691358404	 1.1827450015	-0.298253
C	-1.3857185335	-0.5742553468	 0.0005949432	 0.001786
O	-2.246253209	 0.3293667881	-0.6663989201	-0.451812
H	-0.8719611948	 1.6853253108	-0.2092396497	 0.295596
H	 0.6577670904	-0.2428452996	-0.7743862087	 0.069883
H	 1.185656205	-1.4596856144	 1.2483276861	 0.120777
H	 1.2759773583	 0.179380778	 1.896404701	 0.135951
H	-0.6161651282	-1.0287316395	 3.2900983269	 0.117568
H	-3.2355430678	-1.2618263662	 2.9854920639	 0.09237
H	-1.3534367876	-1.5347068299	-0.53939609	 0.084377
H	-3.1456304058	 0.1121741424	-0.3773640349	 0.305661
89.2605	138.5835	204.5938	285.1165	294.9925	327.49	378.4927	450.5237	470.9788	493.7312	558.9028	632.5345	743.8541	783.9696	805.917	858.2771	895.9929	951.0684	969.0753	1007.3216	1037.2955	1098.3097	1125.4009	1192.2691	1203.3111	1240.0266	1277.1779	1304.4536	1344.6722	1365.3477	1378.7908	1408.7874	1416.5025	1435.8489	1456.1578	1681.1374	1748.6811	2918.8046	2964.8626	3005.6701	3023.8331	3088.0378	3183.199	3704.6488	3724.1886
OC1CC=C(C=O)C1O	O[C@H]1CC=C(C=O)[C@H]1O	
InChI=1S/C6H8O3/c7-3-4-1-2-5(8)6(4)9/h1,3,5-6,8-9H,2H2	InChI=1S/C6H8O3/c7-3-4-1-2-5(8)6(4)9/h1,3,5-6,8-9H,2H2/t5-,6+/m0/s1
