16
gdb 125998	4.57831	1.35532	1.09937	4.4706	69.58	-0.234	0.0223	0.2564	1071.2232	0.127575	-434.092484	-434.085315	-434.084371	-434.124593	26.692	
C	 0.2243613388	 1.5098112389	 0.0762091276	-0.404618
C	 0.0782648529	 0.0060319506	-0.0186766339	 0.103636
C	 0.797942484	-0.6516069052	-1.2461018235	-0.211649
N	 1.3948638498	-1.7817635921	-0.5792913009	 0.000879
N	 2.1832792345	-2.8376157629	-0.9358006259	-0.279194
C	 2.5170959868	-3.303984493	 0.2593987925	 0.031083
N	 2.0305379246	-2.6213770332	 1.3529066256	-0.392504
C	 1.3514476578	-1.67565534	 0.7547306696	 0.499963
O	 0.6633818791	-0.6083689212	 1.1801913166	-0.282207
H	 1.2802223365	 1.7938975121	 0.1040170279	 0.139196
H	-0.2439050866	 1.9868572702	-0.7906742154	 0.131328
H	-0.2619743094	 1.8849156214	 0.9799099231	 0.145916
H	-0.978342142	-0.282374014	-0.0205456722	 0.114758
H	 0.0901389647	-0.9455349777	-2.0246422028	 0.142292
H	 1.5575547363	 0.0065386363	-1.6849020854	 0.133224
H	 3.1367395421	-4.1824328604	 0.362484747	 0.127896
63.349	142.2382	232.6396	270.208	327.4341	440.6524	488.0106	609.442	660.8557	744.7663	762.9375	809.7513	841.3403	896.8909	909.1437	951.3041	986.1627	1068.8757	1121.7238	1155.6802	1167.0233	1197.8429	1223.2614	1278.5472	1283.1693	1344.3261	1355.6838	1383.6005	1414.6982	1448.6554	1483.5276	1496.3558	1517.7466	1559.4623	1619.3344	3031.9432	3045.9949	3050.9702	3100.982	3119.9041	3132.6315	3259.6836
CC1CN2N=CN=C2O1	C[C@H]1Cn2ncnc2O1	
InChI=1S/C5H7N3O/c1-4-2-8-5(9-4)6-3-7-8/h3-4H,2H2,1H3	InChI=1S/C5H7N3O/c1-4-2-8-5(9-4)6-3-7-8/h3-4H,2H2,1H3/t4-/m0/s1
