19
gdb 71016	3.72369	1.43421	1.29218	2.4222	74.74	-0.2428	0.0663	0.3091	1015.622	0.160871	-422.95897	-422.951871	-422.950927	-422.989852	30.189	
O	-0.0389152487	 1.4191712918	 0.0952436759	-0.474413
C	-0.0028131657	 0.0339029371	 0.012420332	 0.409166
C	 0.3333642373	-0.8720384037	 1.3048405697	-0.385876
C	-0.4076005833	-1.881425285	 0.4162528474	 0.467991
C	-1.3406204977	-0.7293182922	-0.0375599686	-0.320188
O	-0.8371625956	-3.2465746392	 0.3800322515	-0.359516
C	-0.384038106	-3.2958149636	-1.0208603491	-0.168097
C	 0.5515404909	-2.0882418709	-0.742077285	-0.025281
C	 0.7325461955	-0.6258912196	-1.2109296891	-0.338439
H	 0.8666678632	 1.7466749765	 0.1217681391	 0.281523
H	 1.3752081071	-1.0876890293	 1.5561756085	 0.091374
H	-0.2122127213	-0.478919514	 2.1648545553	 0.109819
H	-2.0314119777	-0.4205594761	 0.7488826392	 0.106643
H	-1.8517856348	-0.8003841686	-1.0004870979	 0.093595
H	 0.0868852255	-4.2537495627	-1.2542470899	 0.112439
H	-1.2179482349	-3.1079942325	-1.7069354415	 0.10853
H	 1.4972612433	-2.4951178732	-0.3743997652	 0.087988
H	 0.230415924	-0.3469088448	-2.1414310539	 0.11309
H	 1.7871398589	-0.3446457198	-1.2957033484	 0.089653
215.0383	258.2367	299.8478	321.2263	393.5803	437.3424	452.7404	521.0602	546.3195	570.5525	652.9912	717.1332	783.4073	814.646	866.9238	909.5786	926.5752	958.8207	969.7764	979.191	1018.1888	1066.3573	1088.3055	1107.581	1116.1433	1140.073	1151.3529	1173.8849	1201.0725	1215.0469	1228.7626	1252.3702	1277.203	1312.4563	1323.9897	1387.2363	1392.5179	1482.2495	1491.5104	1513.5103	1530.0689	3035.039	3047.4315	3057.3896	3063.4808	3070.8491	3099.7016	3107.2935	3129.7385	3135.9278	3802.695
OC12CC3(C1)OCC3C2	O[C@@]12C[C@]3(C1)OC[C@H]3C2	
InChI=1S/C7H10O2/c8-6-1-5-2-9-7(5,3-6)4-6/h5,8H,1-4H2	InChI=1S/C7H10O2/c8-6-1-5-2-9-7(5,3-6)4-6/h5,8H,1-4H2/t5-,6-,7+/m1/s1
