22
gdb 60435	4.40026	0.54574	0.53203	4.5716	79.96	-0.2417	0.0365	0.2782	2128.3268	0.19147	-441.528609	-441.517074	-441.516129	-441.567207	40.225	
C	 0.0931091277	 1.5945932631	-0.0469163801	-0.402476
C	 0.0916851212	 0.0787308304	 0.152625211	 0.137085
O	 0.5917032603	-0.2691779136	 1.4436301508	-0.427272
C	-1.2873107739	-0.5447408547	-0.1027359549	-0.200061
C	-1.2832983718	-2.0725330939	-0.0116136997	-0.162393
C	-2.6755363942	-2.6873509374	-0.1757348353	-0.316069
C	-2.6259575469	-4.2106827296	-0.2902610434	 0.407984
N	-3.7116033265	-4.8634001525	 0.2228487549	-0.522013
O	-1.7004897416	-4.8040736531	-0.809013596	-0.358697
H	 1.0842568607	 2.0042720374	 0.165609716	 0.123821
H	-0.1822137134	 1.8616346367	-1.0723851813	 0.115219
H	-0.6276427557	 2.0763350834	 0.6265783046	 0.102887
H	 0.812314303	-0.3722547476	-0.5415657714	 0.091731
H	 0.0248449621	 0.1562584772	 2.0970506778	 0.273364
H	-1.9994031108	-0.1225356995	 0.624088422	 0.075628
H	-1.6428569202	-0.2288599725	-1.0929323414	 0.092183
H	-0.6309280796	-2.4969028216	-0.7815264335	 0.124935
H	-0.8546685872	-2.3722548874	 0.9501634292	 0.114616
H	-3.3384306528	-2.3846562242	 0.6444105596	 0.092128
H	-3.1404158608	-2.3151409838	-1.0998563088	 0.123842
H	-4.5070340725	-4.3747509315	 0.5932137177	 0.255081
H	-3.7719040471	-5.8601617654	 0.0933552019	 0.258475
25.4053	49.5957	85.5866	97.3941	135.0737	141.5303	225.3764	243.859	262.3673	290.5744	384.4102	426.8625	475.3018	497.657	531.2889	613.871	679.8452	748.3014	829.1395	845.7167	882.0037	939.9736	987.555	1032.7378	1065.0778	1069.2017	1096.1576	1111.4072	1153.0831	1170.0524	1242.5285	1274.8299	1303.8219	1314.4858	1340.2755	1357.8195	1395.898	1401.8009	1406.4563	1421.1632	1464.9622	1476.4069	1491.7671	1495.0774	1507.1992	1615.934	1797.9188	2984.6914	3011.7698	3020.3734	3029.9254	3040.5736	3049.862	3056.5786	3091.4832	3101.4527	3117.8837	3602.6019	3740.9986	3792.8311
CC(O)CCCC(N)=O	C[C@@H](O)CCCC(=O)N	
InChI=1S/C6H13NO2/c1-5(8)3-2-4-6(7)9/h5,8H,2-4H2,1H3,(H2,7,9)	InChI=1S/C6H13NO2/c1-5(8)3-2-4-6(7)9/h5,8H,2-4H2,1H3,(H2,7,9)/t5-/m1/s1
