19
gdb 110958	2.7717	1.28957	1.08822	2.841	76.95	-0.2344	0.0068	0.2412	1190.2657	0.15764	-422.986893	-422.977862	-422.976917	-423.0207	33.243	
C	 0.2250282495	 1.3069719276	 0.1996680131	-0.24521
O	-0.2905341396	 0.0728835584	-0.259103735	-0.255487
C	 0.4808169558	-0.5107412638	-1.2644533275	 0.13928
C	 1.7721805601	-1.3251552611	-0.8578618364	-0.236464
C	 0.7796467026	-2.3684854186	-0.2349601029	-0.27268
C	 0.0753606376	-1.9851784935	-1.5991543859	 0.136112
C	-1.2276900231	-2.476812	-2.156370895	-0.522896
C	 1.5033534392	-2.0857779205	-2.1583466453	 0.419966
O	 2.0863715398	-2.5532336365	-3.0890412445	-0.328799
H	 1.2051044854	 1.1864828969	 0.682690305	 0.113837
H	 0.3291681316	 2.0300688217	-0.6230991308	 0.112459
H	-0.4857220579	 1.7005721875	 0.9294942445	 0.132939
H	 0.5961471169	 0.1765866523	-2.1140694635	 0.079445
H	 2.7099193163	-0.9581937161	-0.448943308	 0.091243
H	 1.1350917933	-3.3946426953	-0.1308694289	 0.110318
H	 0.2515080536	-2.0158712383	 0.6482710429	 0.128061
H	-2.064071443	-2.1759864607	-1.5178598022	 0.135048
H	-1.400122944	-2.0692772453	-3.1578836606	 0.131129
H	-1.2314968241	-3.568438965	-2.2348458089	 0.131698
87.4129	134.7781	147.3567	168.876	197.199	234.5382	276.3365	361.1036	414.0779	530.1912	565.3343	640.5731	740.5474	743.5479	777.3465	801.2874	881.8654	935.4257	998.3249	1029.7303	1031.9983	1047.5176	1065.6215	1135.8826	1152.6284	1171.1849	1177.6293	1187.0571	1212.4454	1222.4627	1238.6585	1357.793	1409.2449	1419.6371	1481.3222	1486.1551	1488.3693	1489.5006	1504.0233	1513.5729	1912.3179	2985.3888	3009.3564	3036.6503	3038.4615	3087.9778	3105.0813	3109.012	3122.7411	3157.085	3173.3673
COC1C2CC1(C)C2=O	CO[C@H]1[C@H]2C[C@]1(C)C2=O	
InChI=1S/C7H10O2/c1-7-3-4(5(7)8)6(7)9-2/h4,6H,3H2,1-2H3	InChI=1S/C7H10O2/c1-7-3-4(5(7)8)6(7)9-2/h4,6H,3H2,1-2H3/t4-,6-,7+/m0/s1
