18
gdb 96652	3.31381	1.16389	0.87714	0.8363	78.8	-0.2249	-0.0032	0.2217	1310.0668	0.147775	-435.304741	-435.295485	-435.294541	-435.339026	33.416	
C	 1.2450270178	 1.5484900282	 0.37087787	-0.332636
N	 1.3944922441	 0.1077452326	 0.3060934058	-0.320149
C	 0.4646866161	-0.598014197	 0.8189075873	 0.44508
N	-0.6815208777	-0.1917198866	 1.4625671908	-0.579647
N	 0.605786146	-1.9891366028	 0.7881689712	-0.143419
C	 1.7016007997	-2.8303637792	 0.296369308	-0.156847
C	 0.8214795379	-4.064924902	 0.6615471547	-0.376166
C	-0.2300027123	-3.0374785278	 1.1163301664	 0.424088
O	-1.348232079	-3.0515870037	 1.5728479365	-0.384198
H	 1.1120711387	 1.9160716483	 1.4008126203	 0.112908
H	 2.1402985586	 2.0233336337	-0.0382774611	 0.124144
H	 0.3880625472	 1.9140408995	-0.2202070855	 0.103238
H	-1.0154678301	 0.7333015524	 1.2505535007	 0.259187
H	-1.3847099385	-0.9004665286	 1.6315507146	 0.278775
H	 1.907050172	-2.6905562074	-0.7667925115	 0.133336
H	 2.6248687441	-2.7140943415	 0.8677708628	 0.131125
H	 0.5052439358	-4.6876070372	-0.1770201662	 0.140316
H	 1.2040666798	-4.6985405607	 1.4634968552	 0.140865
77.2007	108.5706	129.9941	156.2663	197.2881	265.097	288.5615	356.6664	401.9869	453.9762	535.7916	586.7462	589.6639	718.981	756.1129	794.4735	811.2064	925.671	988.8185	1049.7803	1059.5893	1112.2231	1115.9275	1157.3291	1166.9481	1181.4483	1207.5988	1232.3198	1252.5436	1365.0503	1438.0265	1439.9219	1465.4082	1494.4049	1504.6465	1526.2863	1642.6897	1739.6905	1847.947	2954.8229	3001.0702	3075.1333	3090.5928	3097.7874	3124.6398	3148.1198	3536.2804	3694.2181
CN=C(N)N1CCC1=O	CN=C(N)N1CCC1=O	
InChI=1S/C5H9N3O/c1-7-5(6)8-3-2-4(8)9/h2-3H2,1H3,(H2,6,7)	InChI=1S/C5H9N3O/c1-7-5(6)8-3-2-4(8)9/h2-3H2,1H3,(H2,6,7)
