19
gdb 88797	3.13266	1.07715	0.87161	2.7773	77.47	-0.237	-0.023	0.214	1349.9164	0.158839	-419.170066	-419.161074	-419.16013	-419.204677	32.918	
C	-0.0081621355	 1.531147456	-0.2825317294	-0.397655
C	-0.0450108193	 0.05057629	 0.0122257942	 0.003431
N	 1.2219914126	-0.6885095505	-0.0758455626	-0.338626
C	 0.5430892377	-0.5889908702	 1.2256705166	-0.014418
C	 1.2715953815	 0.1654111383	 2.3056788004	-0.084307
N	 0.434681844	 0.6154448119	 3.4554678319	-0.332204
C	 1.3897296189	 0.0965476938	 4.467922154	-0.284874
C	 2.1063610221	-0.6438119624	 3.3263342256	 0.381004
O	 2.9166754423	-1.5160195555	 3.2565949699	-0.280934
H	 0.9081125447	 1.9914539659	 0.0942535764	 0.122749
H	-0.041883614	 1.7055385163	-1.3632224464	 0.123316
H	-0.8678081095	 2.0396777307	 0.1674720826	 0.1179
H	-0.9325089082	-0.4528139963	-0.3708878538	 0.0845
H	 1.0908377706	-1.6107809883	-0.4801414578	 0.235854
H	 0.0187748796	-1.469020702	 1.5944426177	 0.084766
H	 1.8988886362	 0.9484821709	 1.8573811077	 0.099812
H	 0.286342872	 1.6166971411	 3.4937111527	 0.225211
H	 2.04386204	 0.8437064928	 4.9401948571	 0.121803
H	 0.9415549844	-0.5230782921	 5.2522112132	 0.132675
44.0563	101.7323	114.7044	175.5065	192.512	259.6754	380.3297	404.6325	449.0362	496.9728	575.5505	652.2956	759.3771	772.8337	817.9598	872.6445	934.1197	958.7772	987.6653	1005.745	1015.8821	1019.9048	1052.8228	1084.7292	1097.0349	1114.9252	1155.3374	1208.0543	1214.4951	1251.7539	1274.1154	1277.8776	1308.4865	1366.2343	1401.9424	1428.3144	1466.9374	1478.1572	1490.0926	1502.9719	1916.5075	3004.3125	3014.0729	3036.3677	3068.8879	3096.6493	3101.2399	3121.2601	3128.5888	3518.338	3549.6994
CC1NC1C1NCC1=O	C[C@H]1N[C@H]1[C@H]1NCC1=O	
InChI=1S/C6H10N2O/c1-3-5(8-3)6-4(9)2-7-6/h3,5-8H,2H2,1H3	InChI=1S/C6H10N2O/c1-3-5(8-3)6-4(9)2-7-6/h3,5-8H,2H2,1H3/t3-,5-,6+/m1/s1
