23
gdb 104740	2.01278	1.1743	0.99071	0.9312	92.89	-0.2369	0.0517	0.2886	1391.4586	0.203249	-351.122721	-351.112107	-351.111163	-351.15824	39.848	
C	 0.9379863279	 1.5441629254	 0.2856862723	-0.385136
C	 0.1592992244	 0.2537078253	 0.0006277263	-0.256343
C	 0.5571918621	-0.4272717604	-1.3018907722	 0.367393
C	 0.2839550797	 0.3384507496	-2.5910576913	-0.249156
C	-1.1984360264	 0.6334934704	-2.8494496146	-0.384298
C	 1.7743154249	-1.310196133	-1.2758747949	-0.338856
C	 0.3950966163	-1.9483369261	-1.3992886976	-0.262234
C	-0.1490114444	-2.7314281676	-0.3298020702	 0.327947
C	-0.615419696	-3.3998790131	 0.5561093223	-0.452914
H	 2.0174681287	 1.3592399465	 0.2987078515	 0.11655
H	 0.7432544291	 2.3163449011	-0.4655044806	 0.116747
H	 0.6571002768	 1.9573375301	 1.259347601	 0.112817
H	 0.3098109699	-0.4511254214	 0.8242348679	 0.110193
H	-0.9163394517	 0.4681713146	-0.0107149764	 0.101306
H	 0.8496527051	 1.278693489	-2.5797420261	 0.09973
H	 0.6862255967	-0.2393964107	-3.4323993844	 0.092873
H	-1.3320304308	 1.1313117795	-3.81479128	 0.112241
H	-1.7878364756	-0.2894200368	-2.8620816797	 0.121152
H	-1.623005242	 1.287358876	-2.0816091646	 0.120945
H	 2.4178257883	-1.3482120605	-2.1487190862	 0.11122
H	 2.2882187297	-1.4441976636	-0.3302546565	 0.120226
H	 0.1409911641	-2.3162669982	-2.3902329434	 0.107043
H	-1.0257206069	-3.9885842963	 1.3382979371	 0.190555
60.4959	91.688	122.9535	140.9139	206.2096	227.3879	246.7383	282.6979	338.9102	358.1786	391.5486	478.0138	529.3019	570.7608	599.4805	645.6274	676.5415	770.1359	794.1298	805.3344	876.7176	898.1095	950.3963	981.0106	1010.5522	1041.7128	1050.7982	1072.4679	1088.7917	1117.9666	1129.1364	1142.6639	1246.7323	1273.1339	1316.9261	1334.6249	1357.0049	1381.4537	1409.5832	1411.7363	1416.1795	1480.0057	1485.4275	1489.0458	1500.8154	1502.7751	1504.3073	1514.6266	2231.0941	3020.9319	3033.0007	3035.04	3038.4593	3051.4548	3074.9209	3103.5869	3104.5227	3105.7108	3108.6477	3129.349	3134.4939	3218.2237	3505.0092
CCC1(CC)CC1C#C	CCC1(CC)C[C@H]1C#C	
InChI=1S/C9H14/c1-4-8-7-9(8,5-2)6-3/h1,8H,5-7H2,2-3H3	InChI=1S/C9H14/c1-4-8-7-9(8,5-2)6-3/h1,8H,5-7H2,2-3H3/t8-/m1/s1
