20
gdb 77957	3.36838	1.20628	1.00203	1.6973	87.41	-0.2266	0.0298	0.2564	1243.781	0.169611	-365.890604	-365.881459	-365.880515	-365.924506	34.91	
C	-0.1079769049	 1.5485840756	-0.3089092494	-0.458684
C	 0.0113080982	 0.0350933431	-0.2946409455	 0.096712
C	 0.8442583299	-0.8348973949	-1.2714045698	-0.120142
C	 2.0981215078	-0.4617841315	-0.4393236331	 0.101443
C	 2.8569026206	 0.8649843223	-0.494583014	-0.461472
N	 1.0180974877	-0.680109702	 0.65853193	-0.187467
C	 0.6722434732	-1.9443864478	-0.1907299176	-0.164818
C	-0.5986338435	-2.5963565111	 0.0425862316	 0.342058
C	-1.6233450682	-3.2002176421	 0.2220337964	-0.437913
H	 0.7653194694	 2.0889738276	-0.6640796712	 0.12233
H	-0.9521788854	 1.8257148581	-0.9500561091	 0.11956
H	-0.3394105181	 1.9006395811	 0.7025994878	 0.132635
H	-0.9904981307	-0.3618601313	-0.1107679785	 0.093036
H	 0.7450693058	-0.9462269099	-2.3580049396	 0.065802
H	 2.8299725755	-1.2745221604	-0.3876507599	 0.074556
H	 2.6416735249	 1.4847589064	 0.3791921576	 0.14176
H	 3.9333732968	 0.6728290917	-0.4971502638	 0.117271
H	 2.6316160191	 1.4462971192	-1.3922591763	 0.128866
H	 1.4790266888	-2.6811599849	-0.1430428999	 0.099741
H	-2.533255727	-3.7226188392	 0.3863763444	 0.194727
48.8121	133.8423	146.8987	195.9343	252.2137	310.2115	334.7896	339.7727	439.2564	490.1925	515.6583	626.9657	649.674	666.8657	714.3071	761.1942	792.1719	802.9914	849.4824	904.9688	1023.4937	1031.3886	1042.5798	1060.9092	1070.9502	1132.6413	1147.9556	1152.4888	1187.0102	1196.0431	1203.4388	1262.4435	1285.1486	1382.2064	1402.5939	1412.1405	1449.1458	1479.2527	1491.5403	1498.3504	1511.6277	1515.637	2230.2007	3026.8899	3035.2436	3041.0766	3049.6383	3066.8132	3069.241	3093.8193	3111.2848	3125.2713	3183.2477	3502.7698
CC1C2C(C)N1C2C#C	C[C@H]1[C@H]2[C@@H](C)N1[C@H]2C#C	
InChI=1S/C8H11N/c1-4-7-8-5(2)9(7)6(8)3/h1,5-8H,2-3H3	InChI=1S/C8H11N/c1-4-7-8-5(2)9(7)6(8)3/h1,5-8H,2-3H3/t5-,6+,7-,8-/m0/s1
