23
gdb 107046	3.68137	1.03959	0.92815	1.403	85.65	-0.2575	0.0769	0.3344	1363.3571	0.206523	-388.295628	-388.286336	-388.285392	-388.329374	36.093	
C	 0.0133800724	 1.5764774801	 0.0298022728	-0.396524
C	 0.0543650601	 0.0470100937	 0.0367449897	 0.034969
C	 0.7571270444	-0.5694844268	-1.1979559334	-0.241489
C	 1.2506136391	-1.9600088883	-0.743477741	-0.269722
C	 1.5079784052	-1.8199098798	 0.7550993935	 0.384218
C	 1.5614363521	-3.0665310148	 1.590328171	-0.182561
O	 2.7051890029	-3.8218882723	 1.2024329566	-0.422657
C	 2.2991296174	-0.6069131339	 1.1852634814	-0.327138
C	 0.7888495093	-0.5720531885	 1.2233880997	-0.093359
H	 1.0262876246	 1.9941605978	 0.0345386932	 0.113365
H	-0.5018095544	 1.9551268879	-0.8598420645	 0.108996
H	-0.5111879722	 1.9662338044	 0.908696388	 0.108683
H	-0.979693534	-0.3253237002	 0.067439632	 0.0668
H	 0.0954393957	-0.6209592951	-2.0672419516	 0.093454
H	 1.6050520136	 0.0598377609	-1.4918218006	 0.099559
H	 0.4662492411	-2.7131017313	-0.8956732446	 0.089828
H	 2.1308673493	-2.3002121308	-1.2969504388	 0.106482
H	 1.6078876192	-2.797567021	 2.6583164856	 0.077569
H	 0.6393539309	-3.6530581166	 1.4394777172	 0.079159
H	 2.6784572256	-4.6631636466	 1.6679022061	 0.284286
H	 2.8144918058	-0.6737918378	 2.1375552839	 0.106937
H	 2.8340185228	-0.0264371984	 0.4406249709	 0.106865
H	 0.3070960889	-0.5400897427	 2.1962908329	 0.072281
80.0729	120.299	179.6247	217.2614	237.6899	261.5156	299.8963	358.5542	381.4149	388.686	511.6616	585.1454	623.9855	699.4681	794.7288	832.4874	889.5737	920.2729	939.9617	954.98	966.6088	978.1948	1004.9272	1032.4103	1056.7308	1062.2725	1071.4961	1088.1971	1129.2807	1154.5531	1197.3284	1220.0171	1227.7911	1248.0946	1277.0447	1301.7828	1319.0728	1339.3363	1353.6874	1370.7629	1404.4072	1413.8952	1465.2454	1486.5035	1492.9608	1497.1959	1499.0681	1510.8646	1518.2173	2951.4977	2981.3381	2996.8683	3021.9176	3025.9949	3041.1648	3080.0612	3089.2975	3093.4343	3096.5482	3128.2235	3148.4192	3208.4643	3824.6099
CC1CCC2(CO)CC12	C[C@H]1CC[C@@]2(CO)C[C@@H]12	
InChI=1S/C8H14O/c1-6-2-3-8(5-9)4-7(6)8/h6-7,9H,2-5H2,1H3	InChI=1S/C8H14O/c1-6-2-3-8(5-9)4-7(6)8/h6-7,9H,2-5H2,1H3/t6-,7-,8-/m0/s1
