22
gdb 122702	9.64287	0.46276	0.46155	2.7842	92.04	-0.2256	0.0257	0.2514	2470.7617	0.19214	-404.335946	-404.325432	-404.324488	-404.373209	36.872	
C	 0.0306231402	 1.4752276664	-0.1429837798	-0.385596
C	-0.0299738874	-0.0349779928	 0.0990840679	-0.182742
C	-1.4415023922	-0.5827879315	-0.0422065749	-0.0545
O	-1.3980123559	-1.9898770379	 0.20041585	-0.209531
C	-2.5731812004	-2.6419475696	 0.1025127145	 0.113311
N	-2.6359320312	-3.8845083262	 0.3011177124	-0.219113
C	-3.9028836636	-4.5163893727	 0.1817654591	 0.077649
C	-3.9266364304	-5.926878886	-0.3613520183	-0.272637
C	-4.1867384833	-5.6820872981	 1.1013230017	-0.272692
H	 1.0537039464	 1.8459417663	-0.036274933	 0.122844
H	-0.3122372588	 1.7335321947	-1.1509624172	 0.118592
H	-0.5960106813	 2.0209613938	 0.5710111978	 0.118643
H	 0.6203957921	-0.5618872146	-0.6078985226	 0.115525
H	 0.3384087901	-0.276437322	 1.1022909029	 0.115639
H	-2.1175708463	-0.099222658	 0.6779204947	 0.103646
H	-1.8321868035	-0.3883640953	-1.05167297	 0.103539
H	-3.4317183743	-2.0040663603	-0.158064695	 0.07282
H	-4.7530053005	-3.8795824818	-0.0759696862	 0.069288
H	-4.7564544422	-6.2119590795	-0.9984865617	 0.108866
H	-2.9684970836	-6.3506173039	-0.6372638642	 0.123795
H	-3.4023424456	-5.9426163291	 1.8017325767	 0.123792
H	-5.1969423286	-5.7973415619	 1.4781645354	 0.108862
34.2455	44.1914	85.8664	110.7017	150.6292	209.3762	229.6937	247.312	294.7679	362.8077	452.6552	506.0352	588.3017	764.7	776.1342	819.9502	870.2825	899.3785	915.1566	922.1767	987.3552	990.1025	1041.849	1056.2721	1070.241	1071.8889	1120.996	1142.8929	1188.3221	1198.387	1205.6967	1217.9877	1250.52	1270.8467	1322.2827	1335.896	1374.2314	1412.6792	1420.6479	1446.8977	1455.6123	1492.2243	1497.1573	1500.6303	1507.1206	1523.1826	1767.5583	2983.5718	3001.5412	3026.2461	3033.3442	3044.9428	3059.3811	3077.7265	3103.2547	3112.6071	3138.0168	3142.1696	3224.5367	3238.4505
CCCOC=NC1CC1	CCCOC=NC1CC1	
InChI=1S/C7H13NO/c1-2-5-9-6-8-7-3-4-7/h6-7H,2-5H2,1H3	InChI=1S/C7H13NO/c1-2-5-9-6-8-7-3-4-7/h6-7H,2-5H2,1H3
