19
gdb 38967	2.87199	1.78051	1.51127	2.2049	72.56	-0.236	0.0781	0.3141	943.5772	0.162697	-423.025128	-423.018166	-423.017222	-423.056688	27.859	
C	-0.1448252613	 1.0658799228	-0.1830494699	-0.070634
C	 1.0314078278	 1.8212358646	 0.4768774591	-0.239858
C	 2.1802194061	 0.7816636733	 0.5595312194	-0.038449
C	 2.698601942	 0.4173428571	 1.9732994128	-0.26744
C	 1.907045019	-0.8133163386	 2.3717246465	 0.049919
O	 0.4923712016	-0.6412810087	 2.2180484323	-0.258028
C	 1.2101181652	-1.3613890568	 1.2009519739	 0.016459
C	 1.5262974671	-0.5101861167	-0.0205766619	 0.084583
O	 0.4062963374	-0.1088108159	-0.7819833149	-0.264666
H	-0.8995313289	 0.7941351309	 0.5630065217	 0.113209
H	-0.6296631078	 1.6363853381	-0.9806766749	 0.098766
H	 1.3337684741	 2.6802668367	-0.1274733424	 0.101033
H	 0.7507999982	 2.1933699406	 1.4645112088	 0.109331
H	 3.0088907693	 1.1027145192	-0.0736284689	 0.080548
H	 3.7651348578	 0.1644136397	 1.947193843	 0.103299
H	 2.5783064258	 1.2347555448	 2.6918455091	 0.112209
H	 2.2098108654	-1.4272762477	 3.2166204371	 0.094369
H	 0.9412767807	-2.4094985062	 1.0979420361	 0.09707
H	 2.1873115203	-1.0711851769	-0.691313027	 0.078279
79.0889	178.745	219.2593	351.1307	376.2083	506.5657	575.1829	675.4041	682.1628	751.9569	818.4428	844.0603	870.6195	882.4687	902.598	915.4033	956.306	967.1612	991.6621	1035.0669	1059.1993	1084.0892	1099.0491	1126.3142	1129.0172	1209.7244	1210.6665	1244.9656	1254.7378	1262.411	1289.1944	1308.4176	1324.8355	1331.8888	1353.0451	1369.7143	1399.7301	1435.9331	1480.3617	1494.1219	1522.9217	3037.5932	3037.8117	3044.8084	3061.5941	3078.8278	3084.1664	3088.7228	3116.2846	3140.7395	3155.1539
C1CC2CC3OC3C2O1	C1C[C@H]2C[C@H]3O[C@H]3[C@H]2O1	
InChI=1S/C7H10O2/c1-2-8-6-4(1)3-5-7(6)9-5/h4-7H,1-3H2	InChI=1S/C7H10O2/c1-2-8-6-4(1)3-5-7(6)9-5/h4-7H,1-3H2/t4-,5+,6-,7+/m0/s1
