21
gdb 107240	2.38681	1.66603	1.21717	1.1255	81.76	-0.2055	0.0711	0.2766	1113.8142	0.181362	-387.01854	-387.009712	-387.008768	-387.051469	35.207	
C	 0.0378710947	 1.597796074	-0.0341971808	-0.380096
C	-0.0519531503	 0.0663538605	 0.0366584837	-0.287007
C	-1.4574851798	-0.4803997562	 0.0428119218	 0.284144
C	-1.8911521153	-1.6914176828	-0.7417379031	-0.369937
C	-2.5519427772	-0.3604195897	-1.0092212845	-0.101554
C	-3.5737438918	 0.0763494255	 0.0779502627	-0.110605
C	-3.7468106756	-0.9346392331	 1.1952553315	-0.366142
C	-2.5140225006	-0.0719042301	 1.1364297762	 0.334774
O	-2.2053206772	 0.8330000443	 2.1410006568	-0.446061
H	 1.0827324583	 1.9245610844	-0.0503510364	 0.102648
H	-0.4452968174	 1.9727010397	-0.9427103989	 0.109926
H	-0.4556920575	 2.0578709022	 0.8244013248	 0.139839
H	 0.4834340169	-0.3694834185	-0.8159264715	 0.095198
H	 0.4764345012	-0.2885694596	 0.9329995928	 0.089984
H	-1.1832015851	-1.9928160235	-1.5098103101	 0.106874
H	-2.4180482957	-2.5313007399	-0.3026495961	 0.107781
H	-2.4965766227	 0.1176537954	-1.9793880851	 0.087062
H	-4.2791759685	 0.8835338395	-0.0691178597	 0.095828
H	-4.4424163482	-0.5975863982	 1.9587360619	 0.113104
H	-3.7589563734	-2.0072312483	 1.0351644205	 0.108455
H	-1.8948894947	 0.3370361445	 2.9070738737	 0.285784
97.6289	130.6018	197.8635	236.9505	270.2995	295.2943	383.3192	403.5652	459.0788	465.4744	497.9358	587.6477	614.4486	746.8335	787.7454	807.0025	847.4948	890.6069	908.743	927.0519	960.1894	979.2273	986.433	1008.7934	1024.9638	1041.6987	1059.3251	1087.4544	1104.6239	1110.3178	1169.6704	1228.0383	1245.5389	1267.594	1298.9294	1323.8246	1343.6965	1376.9646	1402.2773	1409.3477	1476.4229	1486.8139	1496.3018	1515.6628	1516.543	3004.5259	3037.0176	3046.3292	3099.3216	3114.9007	3128.1877	3133.8951	3182.4752	3195.3796	3200.2986	3206.9869	3783.239
CCC12CC1C1CC21O	CC[C@]12C[C@H]1[C@H]1C[C@@]21O	
InChI=1S/C8H12O/c1-2-7-3-5(7)6-4-8(6,7)9/h5-6,9H,2-4H2,1H3	InChI=1S/C8H12O/c1-2-7-3-5(7)6-4-8(6,7)9/h5-6,9H,2-4H2,1H3/t5-,6+,7-,8-/m0/s1
