16
gdb 33472	2.884	1.31304	1.02662	3.4309	68.78	-0.2613	-0.0048	0.2565	1140.098	0.123786	-437.840868	-437.832622	-437.831678	-437.874595	29.39	
N	-0.3454005688	-1.1483713227	 0.6446654635	-0.322165
C	-0.2044979655	-0.0310325998	 0.3855762572	 0.264743
C	-0.0833290239	 1.3795883719	 0.0461000212	 0.225739
C	 0.7786786531	 2.2221337476	 0.8996593083	-0.210757
O	 1.2239034949	 1.7759619732	-0.3789972236	-0.239399
C	-1.2586327582	 1.9351352768	-0.7259431599	-0.127802
C	-1.1266399062	 3.3461906648	-1.3415612995	-0.099881
O	-1.4188050345	 2.8432368774	-2.6580141238	-0.266377
C	-1.4153249202	 1.4781007257	-2.1975832676	-0.078719
H	 0.5539823079	 3.2845584587	 0.9756972257	 0.133983
H	 1.2848918682	 1.7788221416	 1.7539639505	 0.146514
H	-2.1674782775	 1.7975770757	-0.1358338204	 0.109487
H	-1.8619725111	 4.0864338908	-1.0080524809	 0.109492
H	-0.1189135939	 3.774459075	-1.2854542076	 0.117705
H	-0.5609907402	 0.9129409577	-2.5905649	 0.120053
H	-2.3434311343	 0.9535314157	-2.446467653	 0.117384
62.6235	85.9202	132.57	207.2563	241.0282	270.1764	412.5905	446.9793	556.3821	590.5435	649.3106	802.2283	859.027	884.65	892.8842	944.6503	971.8299	1035.303	1047.187	1061.4666	1115.7051	1134.0941	1167.3551	1173.4731	1185.7562	1207.0267	1257.0369	1319.7665	1354.0619	1370.0883	1399.7353	1506.5894	1518.2305	1533.5091	2358.9369	3020.2705	3030.4018	3070.21	3075.3086	3093.797	3096.8731	3193.0962
N#CC1(CO1)C1COC1	N#C[C@]1(CO1)C1COC1	
InChI=1S/C6H7NO2/c7-3-6(4-9-6)5-1-8-2-5/h5H,1-2,4H2	InChI=1S/C6H7NO2/c7-3-6(4-9-6)5-1-8-2-5/h5H,1-2,4H2/t6-/m0/s1
