22
gdb 110356	3.00844	1.10795	0.9672	1.0374	82.65	-0.2255	0.0625	0.288	1342.5607	0.192998	-404.298196	-404.288539	-404.287595	-404.332577	36.513	
C	-0.3619580529	 1.4045536295	-0.2326222465	-0.373253
C	 0.2592095738	 0.0649690555	 0.1547932169	-0.121457
N	 0.7561439678	-0.6189075169	-1.0362964399	-0.076982
C	 1.0352203841	-2.0325730123	-1.1025114478	-0.057039
C	-0.0841194274	-1.4093917301	-1.9080751436	-0.116677
C	-1.1347492167	-2.256510163	-1.1517215507	 0.119626
O	-1.8935319254	-3.1189837368	-1.9676141387	-0.429516
C	 0.0301722378	-2.9119244814	-0.3179511246	-0.054131
C	 0.2159597543	-4.4093370306	-0.5366742131	-0.409586
H	 0.3592229594	 2.0187802045	-0.7790758079	 0.126389
H	-1.2358865554	 1.2583452922	-0.876037672	 0.120555
H	-0.6860704786	 1.9525663613	 0.6573034476	 0.111849
H	 1.1234165772	 0.2271722115	 0.809378573	 0.102692
H	-0.4676705114	-0.5242882593	 0.7335940959	 0.092889
H	 2.0266603898	-2.349359516	-1.4152334757	 0.087559
H	-0.1459448222	-1.1520357312	-2.9622283404	 0.089767
H	-1.8713938852	-1.6948427369	-0.5697377203	 0.08603
H	-1.2966116012	-3.5616053734	-2.580398245	 0.281396
H	-0.0096146735	-2.7075382792	 0.7577954191	 0.07102
H	 0.3698246128	-4.6576935799	-1.5933956312	 0.100232
H	 1.0983905056	-4.7652163289	 0.0049396299	 0.118085
H	-0.6528692727	-4.9723494788	-0.1850013749	 0.13055
62.5356	112.9855	177.8638	194.3986	222.907	257.3915	275.6385	296.0739	318.3869	366.7795	480.3734	564.6883	588.2159	718.4846	771.8851	805.0617	816.5128	860.9952	897.0228	955.269	956.0006	995.1749	1031.4451	1053.3216	1066.2941	1106.6872	1111.5927	1129.6287	1133.7077	1177.0136	1218.8303	1223.979	1269.5644	1274.7883	1296.0358	1305.2654	1353.25	1373.4918	1390.556	1411.7722	1414.3556	1439.0937	1489.2458	1490.7297	1498.0578	1504.5527	1516.4027	2992.508	3029.4544	3035.3748	3039.0673	3052.031	3066.3335	3090.3849	3107.921	3114.8771	3119.544	3138.4262	3150.2712	3805.6374
CCN1C2C1C(O)C2C	CCN1[C@@H]2[C@H]1[C@@H](O)[C@H]2C	
InChI=1S/C7H13NO/c1-3-8-5-4(2)7(9)6(5)8/h4-7,9H,3H2,1-2H3	InChI=1S/C7H13NO/c1-3-8-5-4(2)7(9)6(5)8/h4-7,9H,3H2,1-2H3/t4-,5-,6-,7-,8?/m0/s1
