19
gdb 53704	11.57483	0.43396	0.42268	1.4153	88.56	-0.2464	0.0314	0.2778	2515.2972	0.154895	-385.818974	-385.807756	-385.806811	-385.858288	37.32	
C	 0.036220677	 1.4665890602	 0.0041248024	-0.496573
C	 0.0192136612	 0.0106224745	 0.0209514856	 0.078531
C	 0.0194151182	-1.1932473228	 0.035117938	 0.033926
C	-0.0176551272	-2.6504342604	 0.050751132	-0.353094
C	-1.4484376896	-3.1932545636	-0.0133869584	-0.034437
O	-1.3697365751	-4.603332174	 0.007794701	-0.241716
C	-2.641551899	-5.2179077981	-0.0477857939	-0.205897
C	-2.4971402828	-6.6675470658	-0.0225690217	 0.279026
C	-2.4071494544	-7.8646742111	-0.0031331676	-0.41339
H	 0.9887952588	 1.8483538271	-0.379756617	 0.148403
H	-0.7602739035	 1.8675871873	-0.6325349776	 0.146454
H	-0.1043573364	 1.879896995	 1.0090667651	 0.146724
H	 0.5463381899	-3.0608385445	-0.7955219591	 0.1375
H	 0.4596335986	-3.0397103333	 0.9581436042	 0.137517
H	-2.0338804412	-2.8197405398	 0.842023654	 0.098824
H	-1.9461682401	-2.8415323825	-0.9312945231	 0.098739
H	-3.2653410212	-4.8927937761	 0.8028005883	 0.119353
H	-3.177542291	-4.91475124	-0.9638215983	 0.119338
H	-2.3203097321	-8.922907992	 0.0143783458	 0.20077
14.1985	34.181	59.3856	98.0562	118.3204	126.2185	223.3979	244.9348	309.8289	334.7505	372.5434	393.8585	492.4562	566.664	608.36	676.2902	781.1588	798.2618	966.8448	1022.3266	1030.0198	1052.6266	1054.1898	1079.6027	1090.8588	1144.7297	1170.4193	1226.2147	1256.6573	1301.2432	1311.4324	1385.0615	1415.7713	1443.438	1478.6401	1479.153	1479.9046	1498.0899	1527.6799	2248.7807	2376.5859	2950.4504	2969.1647	2971.0039	3001.1684	3026.3678	3031.6658	3068.039	3086.3002	3086.8768	3506.8521
CC#CCCOCC#C	CC#CCCOCC#C	
InChI=1S/C8H10O/c1-3-5-6-8-9-7-4-2/h2H,6-8H2,1H3	InChI=1S/C8H10O/c1-3-5-6-8-9-7-4-2/h2H,6-8H2,1H3
