15
gdb 16282	3.37012	1.81827	1.45562	4.2529	66.54	-0.2778	-0.0034	0.2743	885.3561	0.118338	-362.63967	-362.632355	-362.631411	-362.671156	27.209	
C	-0.0639356087	 1.5587166897	 0.0788454198	-0.412879
C	 0.0353684541	 0.0468293137	-0.0395232592	-0.060297
C	 1.1609193927	-0.5758533504	-0.9509744675	-0.265508
C	 1.7164529461	-1.2948002814	 0.2814085809	-0.0427
O	 2.0400390909	-0.2988327437	 1.2520978596	-0.269543
C	 0.6706546628	-0.7093466536	 1.1522738204	 0.316698
C	 0.0208222907	-1.2161751572	 2.3202776288	 0.202492
N	-0.5531928432	-1.6161024597	 3.2413490825	-0.337127
H	 0.8974935249	 1.983279661	 0.3802289416	 0.138473
H	-0.3493871503	 2.0019214292	-0.8804975127	 0.123651
H	-0.8167152757	 1.8475300878	 0.8194670057	 0.131308
H	-0.9327889147	-0.3984794627	-0.2852276958	 0.100211
H	 0.7634124243	-1.253855071	-1.7085052162	 0.120806
H	 1.855917971	 0.1289230868	-1.4127096362	 0.123632
H	 2.2239130551	-2.2484831884	 0.3635101382	 0.130784
121.4507	163.1008	195.9698	233.4325	306.8258	407.4106	493.5442	542.7337	568.2519	623.7402	707.8971	806.981	855.6479	899.4664	928.6258	949.4836	1017.8083	1056.4428	1103.5325	1111.409	1147.2268	1189.9069	1226.9763	1260.4912	1271.7947	1355.6581	1402.0907	1419.242	1477.0096	1491.3617	1502.1782	2355.1576	3038.9595	3072.3188	3077.1114	3105.2487	3122.9354	3135.3597	3199.4155
CC1CC2OC12C#N	C[C@H]1C[C@H]2O[C@@]12C#N	
InChI=1S/C6H7NO/c1-4-2-5-6(4,3-7)8-5/h4-5H,2H2,1H3	InChI=1S/C6H7NO/c1-4-2-5-6(4,3-7)8-5/h4-5H,2H2,1H3/t4-,5+,6-/m0/s1
