16
gdb 31370	3.79247	1.15574	0.89088	8.1063	76.65	-0.2084	-0.0056	0.2028	1247.7654	0.125199	-437.930942	-437.922674	-437.92173	-437.965055	30.33	
C	 0.0322719174	 1.4289582592	 0.0086662623	-0.273679
O	-0.0103454279	 0.0126295247	 0.0045094485	-0.247981
C	-1.1997732912	-0.6311574737	 0.0119761117	 0.542786
C	-1.2404146114	-1.9889992102	 0.0091400285	-0.408177
C	-2.4981738793	-2.7248546661	 0.0168869392	 0.396756
O	-2.5706907363	-3.9502983722	 0.0141744117	-0.4097
C	-3.6895463625	-1.8589805733	 0.0275404315	-0.240883
C	-3.5859259275	-0.5167014843	 0.0299129506	 0.014692
N	-2.3558493396	 0.1093319891	 0.0222937486	-0.417817
H	 1.0894744447	 1.6955538254	 0.0016303436	 0.159625
H	-0.4419245465	 1.8562633427	-0.8851667572	 0.131782
H	-0.4285936098	 1.8505795256	 0.9121082427	 0.131814
H	-0.308343747	-2.5384603263	 0.0009051123	 0.113704
H	-4.6623540392	-2.3343856151	 0.0335576308	 0.112101
H	-4.4359552344	 0.1547895586	 0.0377251032	 0.130847
H	-2.3180956194	 1.1127318259	 0.0242683522	 0.264131
17.6996	163.7928	187.0881	236.96	243.0643	355.3301	389.2839	444.4028	483.2928	522.1644	582.4597	662.4003	718.7806	749.1984	824.4129	870.6063	905.53	950.8348	1001.3627	1061.7579	1084.9888	1169.2796	1200.4928	1217.5221	1234.3992	1290.9491	1354.427	1424.2438	1483.1806	1498.6812	1507.2573	1528.0888	1640.3379	1686.0893	1731.0241	2997.5227	3058.5456	3145.3107	3200.6844	3222.6933	3224.3279	3685.6732
COC1=CC(=O)C=CN1	COc1cc(=O)cc[nH]1	
InChI=1S/C6H7NO2/c1-9-6-4-5(8)2-3-7-6/h2-4H,1H3,(H,7,8)	InChI=1S/C6H7NO2/c1-9-6-4-5(8)2-3-7-6/h2-4H,1H3,(H,7,8)
