14
gdb 57148	3.29915	0.79444	0.66602	1.8107	70.53	-0.2751	-0.0735	0.2016	1571.2504	0.098291	-473.824453	-473.81491	-473.813966	-473.860348	32.615	
N	-0.3710937459	 1.2914760275	 0.1192328798	-0.514971
C	-0.0327735934	-0.0005453152	-0.0619789195	 0.396369
O	 1.0750835823	-0.3996616396	-0.3663717262	-0.364639
C	-1.18541477	-1.0456260378	 0.0651457249	-0.130451
O	-0.6357006593	-2.3287256285	 0.0179517981	-0.412282
C	-1.9834368586	-0.8139667914	 1.2667626362	 0.119618
C	-2.6571057155	-0.5697998705	 2.2401087986	 0.004676
C	-3.4505660764	-0.2991874561	 3.4115054313	 0.021954
O	-3.9527937588	 0.7746033616	 3.6542950085	-0.23098
H	 0.3559740806	 1.987925427	 0.0803300104	 0.277654
H	-1.2546221761	 1.5376642584	 0.5349431176	 0.281996
H	-1.8449027088	-0.8718041061	-0.804836454	 0.13688
H	 0.3056343841	-2.1764911795	-0.1854335225	 0.302832
H	-3.5689945041	-1.1662898098	 4.0908217667	 0.111345
53.1882	55.4206	76.5685	133.7132	205.8428	260.8723	324.3851	376.0299	423.9104	441.3013	471.8752	516.5244	568.176	631.3143	639.5374	717.1444	865.14	867.924	1021.15	1105.4774	1111.6202	1167.9392	1225.0988	1335.126	1366.8633	1418.7673	1442.9375	1621.5731	1764.7635	1808.5096	2317.2803	2935.2205	2941.9047	3591.5066	3620.29	3719.9744
NC(=O)C(O)C#CC=O	NC(=O)[C@@H](O)C#CC=O	
InChI=1S/C5H5NO3/c6-5(9)4(8)2-1-3-7/h3-4,8H,(H2,6,9)	InChI=1S/C5H5NO3/c6-5(9)4(8)2-1-3-7/h3-4,8H,(H2,6,9)/t4-/m0/s1
