17
gdb 84954	2.24849	1.67114	1.13403	5.1194	68.82	-0.2298	-0.0838	0.146	1088.3742	0.134215	-459.000256	-458.991455	-458.99051	-459.033827	32.487	
C	-0.4000076091	 1.492859317	-0.0332836576	-0.408145
C	 0.1068586926	 0.054943694	-0.0274895103	-0.109124
C	 0.9095179654	-0.4075403177	-1.262279149	 0.077242
O	 1.8807615647	 0.6037788428	-1.5009705618	-0.426605
C	 1.5964173643	-1.7115017956	-0.808884394	-0.365834
C	 1.9822071557	-1.4296090112	 0.6383077349	 0.338972
O	 2.8256466441	-1.9616613733	 1.3045345291	-0.277738
C	 1.0451858977	-0.2803808688	 1.1275523903	 0.322938
O	 1.0837141025	 0.2175797834	 2.2187145808	-0.289708
H	 0.4216693312	 2.1848329159	-0.2259108659	 0.148948
H	-1.1622167042	 1.6383708363	-0.804270839	 0.113327
H	-0.8346161779	 1.7353018911	 0.9396460204	 0.137197
H	-0.7432897343	-0.6387788648	 0.0753171373	 0.108791
H	 0.2656975776	-0.5529553043	-2.1392441353	 0.076589
H	 2.4560410454	 0.3162353325	-2.2170470063	 0.291868
H	 0.8888377632	-2.5516993335	-0.8254064179	 0.134995
H	 2.458489021	-1.9948458839	-1.4183111656	 0.12629
70.3286	106.8746	178.4681	231.0856	246.5877	315.0919	316.3895	368.1379	388.0964	482.4714	536.347	568.6252	682.6081	704.3859	747.2913	869.2286	883.7139	968.6633	986.5837	998.9357	1032.2386	1061.9496	1121.9796	1175.2676	1184.1089	1196.094	1258.871	1301.878	1316.9225	1364.3202	1400.2169	1418.3072	1442.5223	1489.6309	1502.7929	1848.6352	1867.8157	2987.7642	3015.6727	3033.4323	3052.5415	3102.0431	3122.3897	3145.3971	3821.0137
CC1C(O)CC(=O)C1=O	C[C@H]1[C@@H](O)CC(=O)C1=O	
InChI=1S/C6H8O3/c1-3-4(7)2-5(8)6(3)9/h3-4,7H,2H2,1H3	InChI=1S/C6H8O3/c1-3-4(7)2-5(8)6(3)9/h3-4,7H,2H2,1H3/t3-,4-/m0/s1
