12
gdb 131002	7.78189	0.75266	0.68925	0.7926	57.43	-0.2859	-0.08	0.2059	1464.7132	0.074963	-505.872536	-505.864693	-505.863748	-505.906721	26.033	
O	-0.2358534791	 0.1986871937	 0.491103954	-0.222311
C	 0.0391974241	 1.1245784304	-0.2203635088	 0.140618
C	 1.3687874699	 1.8541746698	-0.1281987496	-0.164153
O	 1.3518486764	 2.892489266	-1.1165754931	-0.243955
C	 2.4351779963	 3.6413507511	-1.1873183411	 0.532078
N	 3.513658499	 3.5405195478	-0.4601180935	-0.184644
O	 4.3071742881	 4.5420930453	-0.9388951102	-0.153306
N	 3.6381740567	 5.2042571441	-1.9551840945	 0.066297
N	 2.5119779046	 4.6667232039	-2.1086326081	-0.224105
H	-0.6479450643	 1.5208836582	-0.9979943496	 0.114884
H	 1.5011508494	 2.279193338	 0.8736223284	 0.169291
H	 2.1972495889	 1.1605420516	-0.3135300937	 0.169306
48.7872	65.4083	117.2814	128.2264	301.1916	356.8199	395.7032	580.1053	654.4224	730.9882	752.0924	774.7362	790.4628	943.9183	1046.5843	1057.6433	1069.7738	1105.9769	1122.8231	1239.6334	1322.0001	1363.8836	1411.8387	1467.2802	1520.9096	1637.9828	1851.8209	2918.0415	3040.5897	3088.0977
O=CCOC1=NON=N1	O=CCOc1nonn1	
InChI=1S/C3H3N3O3/c7-1-2-8-3-4-6-9-5-3/h1H,2H2	InChI=1S/C3H3N3O3/c7-1-2-8-3-4-6-9-5-3/h1H,2H2
