18
gdb 66255	1.97628	1.63524	1.38955	4.5345	75.63	-0.2598	-0.0441	0.2156	1063.841	0.147459	-402.003738	-401.99496	-401.994016	-402.03727	32.543	
C	-0.198371755	 1.5857730868	 0.0174581434	-0.438674
C	 0.0340341435	 0.0701284736	-0.0482210591	 0.006831
C	 0.876392308	-0.4403163524	-1.2437929694	-0.244896
C	 1.4665082484	-1.7814562286	-0.7610066401	-0.231373
C	 1.8233022783	-1.5305557418	 0.7127535699	-0.317199
C	 0.8730061663	-0.431222225	 1.1838968175	 0.398159
O	 0.7883503414	 0.0310725546	 2.2860084389	-0.299499
C	-1.2442071309	-0.6483314495	-0.0059205817	 0.274692
N	-2.2438117258	-1.2297838004	 0.0234095155	-0.340606
H	 0.759448882	 2.1087851781	-0.0549213636	 0.125891
H	-0.8427151315	 1.9194633417	-0.79943022	 0.135275
H	-0.662901086	 1.8509244152	 0.9694143298	 0.15761
H	 0.2924521692	-0.5317487916	-2.1615475799	 0.126607
H	 1.677632297	 0.2854057565	-1.4261614598	 0.110972
H	 0.708100195	-2.5667731315	-0.8394326089	 0.134043
H	 2.324912505	-2.093396049	-1.3592234053	 0.113507
H	 1.7449216391	-2.4052034914	 1.3631679491	 0.146679
H	 2.844073406	-1.144271985	 0.8256223936	 0.14198
65.4249	134.5425	150.6902	214.7965	220.3821	259.1108	329.6147	421.2199	493.2874	522.9245	560.6389	616.7641	618.8149	669.2661	801.4589	818.4883	901.8226	920.3229	949.8685	1021.6744	1035.7711	1060.9414	1085.1163	1144.3465	1180.8113	1215.6744	1231.2917	1264.4812	1301.9493	1335.8962	1347.5002	1408.9336	1445.0697	1485.5039	1490.7582	1494.0981	1500.5746	1859.7477	2342.5989	3042.7395	3044.2203	3050.9683	3061.4562	3105.2866	3113.2488	3119.0927	3126.3951	3141.3173
CC1(CCCC1=O)C#N	C[C@]1(CCCC1=O)C#N	
InChI=1S/C7H9NO/c1-7(5-8)4-2-3-6(7)9/h2-4H2,1H3	InChI=1S/C7H9NO/c1-7(5-8)4-2-3-6(7)9/h2-4H2,1H3/t7-/m0/s1
