23
gdb 122074	2.94547	0.70177	0.58776	0.785	89.7	-0.2618	0.0395	0.3014	1961.8482	0.202151	-388.253889	-388.242433	-388.241489	-388.291371	40.412	
C	 0.1235695891	 1.5812218712	 0.0311686136	-0.379775
C	 0.0537636812	 0.0530706423	-0.0313322892	-0.170121
C	-1.379221993	-0.4846691789	 0.0403587585	-0.165611
C	-1.4464314759	-2.0133255065	-0.0171899844	-0.198844
C	-2.8828424972	-2.5534243207	 0.0310924597	-0.078819
O	-3.5581959702	-2.071361692	-1.1208537555	-0.230521
C	-4.95128059	-2.3008153367	-1.1106883252	-0.236706
C	-2.9046863825	-4.0218718597	 0.106343965	 0.33864
C	-2.9133178728	-5.2228402692	 0.162526185	-0.460059
H	 1.1570946173	 1.9373046936	-0.0237187528	 0.11029
H	-0.4304188261	 2.0361165188	-0.7975007614	 0.114852
H	-0.3098708363	 1.9596119245	 0.963798942	 0.11227
H	 0.5250872388	-0.2978141119	-0.9589090889	 0.096707
H	 0.6456294332	-0.3752006428	 0.7888318248	 0.092485
H	-1.851984984	-0.1345307783	 0.9692762225	 0.086461
H	-1.9731432959	-0.0707060163	-0.781817476	 0.114285
H	-0.9801181707	-2.3817527661	-0.9382043725	 0.114424
H	-0.8905628588	-2.4525528977	 0.8190574346	 0.105345
H	-3.3811573918	-2.1572951488	 0.9344264741	 0.087857
H	-5.3516432529	-1.866820434	-2.029767275	 0.127277
H	-5.1879409043	-3.3730547854	-1.0857747219	 0.120001
H	-5.4338572551	-1.8163112873	-0.2473686549	 0.102706
H	-2.922324122	-6.2835873881	 0.215269528	 0.196854
61.9239	67.1102	82.5939	114.7666	143.0911	164.6191	202.8505	244.8503	258.132	277.454	315.5611	382.8697	467.2583	572.6243	587.1805	624.8828	671.479	736.3466	779.5579	863.3987	898.9748	954.8724	990.3671	1019.9544	1054.7002	1068.7377	1126.5757	1144.0345	1153.0799	1184.2305	1221.2587	1251.875	1265.4936	1316.2984	1327.221	1334.4014	1365.1031	1380.4669	1399.1598	1413.6882	1474.1424	1478.8288	1484.2211	1487.1073	1499.5323	1499.952	1510.6642	1513.5111	2228.7558	2938.1878	2981.0774	3006.6131	3013.9141	3029.0571	3038.5076	3041.8956	3042.941	3067.709	3088.4463	3096.6103	3101.2349	3119.1859	3502.8962
CCCCC(OC)C#C	CCCC[C@@H](OC)C#C	
InChI=1S/C8H14O/c1-4-6-7-8(5-2)9-3/h2,8H,4,6-7H2,1,3H3	InChI=1S/C8H14O/c1-4-6-7-8(5-2)9-3/h2,8H,4,6-7H2,1,3H3/t8-/m0/s1
