17
gdb 31061	2.54083	1.33201	0.91931	1.5406	72.69	-0.1739	0.0588	0.2327	1255.8826	0.137524	-451.348763	-451.339596	-451.338651	-451.382585	33.76	
C	 0.2003391951	 1.0924098741	 0.590066482	-0.317616
N	-0.0460230802	 0.02850082	-0.3932614321	-0.406622
C	-1.258138881	-0.6709897268	-0.2064056044	 0.109304
C	-1.3338525529	-1.9990304252	 0.083469586	 0.348695
O	-0.3904676515	-2.9520630328	 0.2441920029	-0.442471
N	-2.6741330888	-2.3053701831	 0.1869580247	-0.349271
C	-3.3532557115	-1.1296703994	-0.0455194368	 0.358084
N	-4.746642051	-1.0747889909	 0.0699698484	-0.600587
N	-2.5457916317	-0.1351509985	-0.2940300046	-0.348652
H	 1.1467648481	 1.5893490711	 0.3543331871	 0.107897
H	-0.597776014	 1.8472115597	 0.6241213945	 0.121433
H	 0.2868911885	 0.6463818707	 1.5855476082	 0.120569
H	-0.0099969194	 0.4282337694	-1.3264826499	 0.226069
H	 0.4501585033	-2.4991542972	 0.0865172253	 0.304433
H	-3.0606496988	-3.1773808357	 0.505718784	 0.268041
H	-5.0470593926	-0.1201873208	-0.0892395997	 0.256695
H	-5.2217797118	-1.6800073745	-0.5926131757	 0.243999
77.5521	137.5386	171.6712	218.8967	224.5296	260.5835	308.357	320.3293	402.1195	431.4908	475.3477	564.6281	621.0294	654.0996	690.2026	702.9166	811.2809	830.3086	849.5061	1024.3426	1047.3258	1136.1143	1145.7545	1159.9042	1175.7848	1205.0393	1269.2175	1344.4207	1446.5198	1466.6749	1485.5504	1490.1471	1518.4078	1520.9859	1605.5005	1655.7312	1702.0219	3003.0909	3073.9167	3106.8398	3493.6493	3501.0132	3604.5038	3671.9663	3759.3835
CNC1=C(O)NC(N)=N1	CNc1c(O)[nH]c(N)n1	
InChI=1S/C4H8N4O/c1-6-2-3(9)8-4(5)7-2/h6,9H,1H3,(H3,5,7,8)	InChI=1S/C4H8N4O/c1-6-2-3(9)8-4(5)7-2/h6,9H,1H3,(H3,5,7,8)
