24
gdb 104604	2.73867	0.92629	0.88357	2.8004	85.16	-0.2441	0.0666	0.3108	1502.292	0.216778	-405.528908	-405.518546	-405.517602	-405.564088	39.335	
C	 0.1966158362	 1.621107281	-0.0165354749	-0.393563
C	 0.0511198351	 0.0937761159	-0.071159564	 0.038735
C	 0.8049683433	-0.4807113555	-1.2785008813	-0.390548
C	 0.5330968993	-0.5955209888	 1.2237839019	-0.279316
C	-0.1686720185	-0.2069579445	 2.5148662532	 0.303821
C	-1.6768074914	-0.4431367829	 2.57508527	-0.113857
O	-2.241879026	 0.0355263726	 3.7745211258	-0.424246
C	 0.594253977	-0.288796567	 3.7858663464	-0.280576
N	 0.2190298158	 1.0284220676	 3.2288646446	-0.369715
H	 1.247481866	 1.9079244656	 0.1194510107	 0.105074
H	-0.1464778012	 2.0778790059	-0.9505838218	 0.113462
H	-0.3809151056	 2.0605134813	 0.8014640753	 0.130346
H	-1.0131888092	-0.1382494768	-0.2073587081	 0.082595
H	 1.8803538837	-0.2790185248	-1.2014574264	 0.111368
H	 0.6750634728	-1.5654535853	-1.3540902735	 0.111229
H	 0.4508112542	-0.0341220907	-2.2131773065	 0.112117
H	 0.4339843291	-1.6825611452	 1.0957231998	 0.101989
H	 1.6096578768	-0.4053263975	 1.3425239786	 0.086605
H	-2.1538677789	 0.0281608573	 1.7002286467	 0.086859
H	-1.8855081062	-1.5186110964	 2.5191510394	 0.104825
H	-1.8176254204	 0.8937560793	 3.9250163815	 0.29115
H	 0.07786707	-0.5485287546	 4.7040063755	 0.13098
H	 1.6376330037	-0.5887400028	 3.7368772332	 0.108765
H	 1.0172758745	 1.4691046561	 2.781490434	 0.231903
62.2771	103.2932	126.545	174.2667	234.2951	254.7951	275.3832	314.2045	321.3552	353.765	378.5033	421.3288	469.2194	553.4538	595.9268	720.1475	808.9696	823.4299	873.9108	911.685	932.3963	957.9516	966.8918	975.2279	983.89	1041.1013	1072.2144	1098.0402	1116.7835	1140.2289	1155.1577	1194.9408	1232.9333	1256.0515	1262.74	1290.7296	1331.0284	1361.7864	1370.9373	1387.3337	1401.9102	1413.1968	1425.8105	1452.9396	1472.5208	1490.5555	1494.9973	1501.8276	1506.2333	1510.5977	1515.723	2966.2802	2996.2875	3016.5471	3021.3975	3026.9909	3039.0843	3049.4421	3085.4334	3092.7574	3100.6479	3112.4098	3115.1756	3208.3874	3517.5819	3714.5625
CC(C)CC1(CO)CN1	CC(C)C[C@@]1(CO)CN1	
InChI=1S/C7H15NO/c1-6(2)3-7(5-9)4-8-7/h6,8-9H,3-5H2,1-2H3	InChI=1S/C7H15NO/c1-6(2)3-7(5-9)4-8-7/h6,8-9H,3-5H2,1-2H3/t7-/m0/s1
