16
gdb 93186	2.89712	1.42657	0.99954	6.8925	66.93	-0.2574	-0.0481	0.2092	1144.8156	0.124767	-475.089044	-475.080789	-475.079845	-475.12218	30.365	
C	-0.0901766096	 1.4989779218	 0.0626347472	-0.402228
C	-0.0249159111	-0.0104365867	-0.0892285203	 0.123194
C	 0.9113269644	-0.4735711034	-1.1952143093	-0.173607
N	 0.9641741325	-1.9238821126	-1.1766913008	-0.334631
C	 0.9253115753	-2.6619633961	-0.0310515213	 0.286117
O	 1.0064458828	-3.8672725418	 0.004844469	-0.331109
C	 0.7973609842	-1.8371455603	 1.2779228683	 0.328101
O	 1.050435302	-2.3164883392	 2.3414301454	-0.284734
O	 0.4255765917	-0.5362220271	 1.1783787198	-0.243905
H	 0.9042513895	 1.9123883507	 0.2537500003	 0.137275
H	-0.4941828641	 1.9558581124	-0.8455027016	 0.126136
H	-0.7378981657	 1.7622332793	 0.9016884452	 0.146495
H	-1.0264072629	-0.4160771552	-0.2853526526	 0.106656
H	 0.5261749151	-0.1414992389	-2.1636870612	 0.13009
H	 1.904849759	-0.0228644843	-1.0557751322	 0.125976
H	 1.1596619668	-2.4401407287	-2.0223235359	 0.260175
73.2457	109.0204	212.5028	222.4827	278.5019	349.8886	397.8715	423.7126	448.7454	498.4907	573.3018	606.8943	674.7128	741.0907	820.9344	889.2311	943.8652	976.8477	1068.6962	1120.3845	1142.7497	1153.2054	1198.0603	1267.5331	1320.8851	1363.8029	1383.9939	1405.7357	1417.3012	1468.2216	1485.0112	1498.8863	1510.3419	1820.0069	1866.8144	3000.3557	3025.5792	3049.8753	3088.2116	3124.0646	3135.7392	3609.4551
CC1CNC(=O)C(=O)O1	C[C@H]1CNC(=O)C(=O)O1	
InChI=1S/C5H7NO3/c1-3-2-6-4(7)5(8)9-3/h3H,2H2,1H3,(H,6,7)	InChI=1S/C5H7NO3/c1-3-2-6-4(7)5(8)9-3/h3H,2H2,1H3,(H,6,7)/t3-/m0/s1
