16
gdb 49050	2.20605	1.74894	1.24877	3.3464	70.22	-0.2474	-0.0562	0.1911	1026.5538	0.122648	-437.858263	-437.850111	-437.849166	-437.891919	29.399	
O	-0.6106559558	 0.8524342318	 0.8573587567	-0.240375
C	 0.0384251687	 1.1185212552	-0.1210304845	 0.089493
C	 1.3534751241	 1.8467401912	-0.0779309796	 0.132448
C	 1.5896999945	 2.9045472778	 1.0247137649	-0.309915
C	 1.9508455428	 3.8808702448	-0.1262799425	-0.164724
N	 1.6609314917	 2.846339363	-1.1813052604	-0.168817
C	 2.8782407884	 2.0878925589	-1.6023994139	-0.301797
C	 2.623910932	 1.046085803	-0.5009177175	 0.343447
O	 3.1510421859	 0.0494328541	-0.1188195249	-0.262639
H	-0.2939835844	 0.8428157742	-1.1456274896	 0.091687
H	 0.6774898323	 3.1404082122	 1.574440471	 0.141294
H	 2.3808530032	 2.6761043352	 1.7403040968	 0.129481
H	 1.2915998952	 4.7465979478	-0.2236658587	 0.12394
H	 2.9881197097	 4.2308698954	-0.1371916493	 0.111548
H	 2.7827508514	 1.6715292341	-2.6119090683	 0.147455
H	 3.8272053403	 2.6328646212	-1.5413001303	 0.137475
57.8471	67.6063	152.6956	203.1784	250.9436	336.3548	450.6802	484.8595	521.0173	614.9057	715.3598	745.0568	781.563	829.6253	892.6495	932.0773	956.8216	995.1988	1027.6514	1040.5202	1056.2944	1152.2155	1167.2221	1190.7261	1209.1761	1222.0727	1253.9657	1257.302	1309.5969	1409.6487	1448.3174	1487.2735	1508.7124	1813.6639	1905.5306	2896.6513	3033.6524	3047.39	3082.6069	3086.0408	3100.2368	3141.2066
O=CC12CCN1CC2=O	O=C[C@]12CCN1CC2=O	
InChI=1S/C6H7NO2/c8-4-6-1-2-7(6)3-5(6)9/h4H,1-3H2	InChI=1S/C6H7NO2/c8-4-6-1-2-7(6)3-5(6)9/h4H,1-3H2/t6-/m0/s1
