14
gdb 75704	2.24121	2.12587	1.1895	1.3213	62.92	-0.2768	-0.0524	0.2244	975.0942	0.100913	-473.866891	-473.859091	-473.858146	-473.900447	27.589	
C	 0.0886864727	 1.4628881339	 0.0128854885	-0.350936
N	 0.0105587338	 0.0121990734	 0.0025257641	-0.164214
C	-0.0837268461	-0.742262817	-1.1702057266	 0.446569
O	-0.1995545178	-0.297312578	-2.2829273271	-0.349662
C	-0.0284888683	-2.1974946526	-0.7433789265	-0.098962
O	 1.1915362085	-2.4905559816	-0.0493303364	-0.232562
C	 0.016803999	-2.2066747609	 0.7226515976	-0.098554
C	-0.0110425062	-0.7563496939	 1.1684069646	 0.444556
O	-0.0568878331	-0.3202212355	 2.2897010353	-0.349865
H	 1.1192558159	 1.7977632951	 0.1649298661	 0.151056
H	-0.2713657831	 1.8250679057	-0.9504027101	 0.165226
H	-0.5303014239	 1.847759942	 0.8249001308	 0.15945
H	-0.4471703006	-2.9744537356	-1.3718382716	 0.139094
H	-0.3630205808	-2.991721945	 1.3655841513	 0.138805
26.7921	126.6357	180.0912	212.2732	276.8702	365.9031	385.3088	513.114	602.0965	661.5287	700.3682	765.5579	806.008	859.2883	890.6394	951.5727	982.9056	1068.4581	1123.4602	1144.2744	1158.1295	1228.6003	1289.0489	1295.8909	1387.1871	1399.4171	1451.9999	1492.2344	1510.4796	1818.8024	1874.3667	3053.9483	3127.1159	3165.2976	3195.0607	3205.0768
CN1C(=O)C2OC2C1=O	CN1C(=O)[C@H]2O[C@H]2C1=O	
InChI=1S/C5H5NO3/c1-6-4(7)2-3(9-2)5(6)8/h2-3H,1H3	InChI=1S/C5H5NO3/c1-6-4(7)2-3(9-2)5(6)8/h2-3H,1H3/t2-,3+
