21
gdb 121652	5.87144	0.6312	0.60315	3.3762	82.41	-0.2426	-0.0083	0.2344	1924.1502	0.179926	-424.224541	-424.214271	-424.213327	-424.261217	35.922	
C	-0.0197846478	 1.4723941427	 0.0185383336	-0.384543
C	 0.0365932555	-0.044722371	-0.0185052819	-0.027063
O	 0.6750293913	-0.4393063476	-1.2179352027	-0.222573
C	 0.7816047779	-1.8201304514	-1.3563783372	-0.163556
C	 1.4780046555	-2.1837309242	-2.6627906797	 0.357796
O	 1.8715548654	-1.3525850808	-3.448173699	-0.314101
C	 1.6356407053	-3.6495092642	-2.8956730493	-0.110966
C	 1.5632460336	-4.1354552313	-4.3360787185	-0.248093
C	 2.8811728164	-4.1038902618	-3.6427873203	-0.248113
H	 0.988741561	 1.8933628807	-0.0169492637	 0.131642
H	-0.5800831654	 1.8551886883	-0.8388588869	 0.131617
H	-0.5087834384	 1.8129929066	 0.9360729298	 0.113416
H	 0.5905107314	-0.4349633774	 0.8525865053	 0.085519
H	-0.9792893162	-0.4731873057	 0.0296641035	 0.085508
H	 1.3536389937	-2.2780210379	-0.5263756966	 0.10544
H	-0.2081554612	-2.3162159438	-1.3481710245	 0.105443
H	 1.2465264384	-4.3080959313	-2.1261299797	 0.085664
H	 1.0832633264	-5.0911700776	-4.511914018	 0.11779
H	 1.370762049	-3.3678116105	-5.0767531214	 0.140692
H	 3.5712611332	-3.3149868941	-3.9190982741	 0.140693
H	 3.333600915	-5.0372319378	-3.3283527388	 0.117787
43.3222	61.8928	86.0726	100.7614	147.9415	234.7523	244.4765	261.0757	296.3365	324.5269	482.546	589.0084	665.2566	790.4927	822.1252	831.5888	831.9667	871.6991	917.0319	920.4809	1025.7252	1035.4064	1062.3013	1094.3533	1097.4927	1109.844	1128.2798	1156.5102	1187.914	1197.5687	1210.2953	1224.4664	1256.2567	1296.5358	1367.4125	1400.5513	1414.0083	1438.2781	1452.3762	1483.1989	1484.7792	1486.6855	1499.4539	1531.842	1810.1866	2922.1232	2940.0446	2952.8221	2975.7369	3046.9692	3121.2791	3125.4443	3141.1493	3142.4632	3163.3704	3228.7907	3243.181
CCOCC(=O)C1CC1	CCOCC(=O)C1CC1	
InChI=1S/C7H12O2/c1-2-9-5-7(8)6-3-4-6/h6H,2-5H2,1H3	InChI=1S/C7H12O2/c1-2-9-5-7(8)6-3-4-6/h6H,2-5H2,1H3
