18
gdb 102851	1.75769	1.35351	0.86365	4.1178	74.93	-0.2478	0.0336	0.2813	1347.7335	0.145087	-439.070607	-439.060293	-439.059348	-439.106964	36.11	
O	-0.0573577834	 1.6097228021	 0.0182594897	-0.427692
C	 0.1267040213	 0.2017323665	 0.1151385968	-0.101827
C	-1.2540324039	-0.4440907601	-0.0037330165	 0.027167
C	-2.1583428847	-0.0265192034	 1.1837737181	-0.364561
C	-3.481408237	-0.6316873619	 1.1459494825	 0.302882
C	-4.5700789419	-1.1384621037	 1.1062554872	-0.432643
N	-1.8533871719	-0.0959950381	-1.2793130014	-0.264461
C	-2.1793819923	-1.015064439	-2.2273577451	 0.161154
O	-2.0382996429	-2.2148630032	-2.1221438777	-0.325943
H	 0.8047602303	 2.0343394003	 0.0076515932	 0.296642
H	 0.766741874	-0.1735309643	-0.6953173078	 0.106626
H	 0.587263826	-0.0771966588	 1.0751143381	 0.09474
H	-1.1415664148	-1.5307184033	-0.0114106522	 0.132139
H	-1.6507334424	-0.3039663539	 2.1165080619	 0.129642
H	-2.2401770972	 1.0664396277	 1.1949508991	 0.143156
H	-5.5301388698	-1.5904203126	 1.0714900705	 0.195639
H	-1.9340377577	 0.8846344443	-1.4990176435	 0.254157
H	-2.5997427815	-0.5337757388	-3.1326244828	 0.073181
37.1868	68.2711	109.5937	123.593	197.7409	210.061	252.5814	278.5399	335.1165	346.3099	412.3967	530.9724	549.769	619.7398	632.2072	640.4549	762.9903	871.5436	914.6027	932.8081	992.323	1030.8604	1069.5433	1099.9168	1130.8981	1192.9727	1195.8705	1259.3696	1265.3156	1311.2783	1361.3145	1374.0194	1430.9339	1447.9723	1471.8428	1515.5294	1525.945	1804.8139	2242.9959	2936.5017	2985.293	3026.7854	3030.915	3066.1312	3106.9306	3507.3485	3634.1945	3841.7161
OCC(CC#C)NC=O	OC[C@@H](CC#C)NC=O	
InChI=1S/C6H9NO2/c1-2-3-6(4-8)7-5-9/h1,5-6,8H,3-4H2,(H,7,9)	InChI=1S/C6H9NO2/c1-2-3-6(4-8)7-5-9/h1,5-6,8H,3-4H2,(H,7,9)/t6-/m1/s1
