16
gdb 37757	2.55416	1.84714	1.19698	2.0427	80.53	-0.2046	-0.0383	0.1663	1012.488	0.124747	-400.74999	-400.74272	-400.741776	-400.781945	28.338	
C	-0.1048563597	 1.3727618434	 0.3804237927	-0.310969
N	 1.3112007417	 1.0496556944	-0.0047163309	-0.105322
C	 2.0491053449	 0.2975241536	 0.9339656535	-0.0554
C	 2.2541500209	-0.9811934645	 0.5702621537	-0.202854
C	 1.5682745971	-1.2615626463	-0.6896515302	 0.351647
C	 1.5481460624	-2.3893970827	-1.4059093857	-0.440624
O	-1.6388954667	-0.1511251792	-0.9311157634	-0.27084
C	-0.5819561022	 0.2989311849	-0.6155777317	 0.395847
C	 0.8846402363	 0.0461226968	-1.0447351961	-0.221604
H	-0.3564214665	 1.1801898255	 1.4284234193	 0.139738
H	-0.4031625399	 2.3915723334	 0.1144579933	 0.14275
H	 2.38746079	 0.79103474	 1.8369043817	 0.122181
H	 2.8490470473	-1.7043895142	 1.1107024006	 0.108462
H	 0.9817399515	-2.4720968751	-2.3261210622	 0.113175
H	 2.0934928033	-3.2691481416	-1.0831442112	 0.107347
H	 1.0787088797	 0.3717331814	-2.0715605434	 0.126466
76.5726	134.6167	245.074	321.9386	391.7421	423.2923	515.8603	580.6182	635.122	696.0334	727.1665	731.7505	772.9165	834.7141	882.0847	883.3299	927.6646	936.5697	982.1052	996.7584	1009.5237	1072.1512	1089.2519	1141.3913	1186.0195	1222.026	1243.5047	1260.6637	1266.1102	1365.7051	1454.4217	1462.3346	1618.6877	1703.5726	1913.0593	3045.6237	3063.36	3101.3463	3156.6096	3208.3292	3237.9175	3240.148
C1N2C3C=C4COC13C24	C1N2[CH]C=C([CH2])[C@H]2C1=O	
InChI=1S/C7H7NO/c1-4-2-9-7-3-8(5(1)7)6(4)7/h1,5-6H,2-3H2	InChI=1S/C7H7NO/c1-5-2-3-8-4-6(9)7(5)8/h2-3,7H,1,4H2/t7-/m0/s1
