18
gdb 91571	2.93385	1.25483	1.04711	2.7496	77.14	-0.2387	0.043	0.2818	1181.7857	0.146631	-401.866012	-401.857317	-401.856373	-401.899723	33.216	
O	 0.2747922609	 1.3279892527	-0.0418144159	-0.43333
C	 0.2006461518	-0.0574504699	 0.1103747395	 0.10721
C	 0.2178737273	-0.6607353477	 1.5718502206	-0.259136
C	-1.1749001799	-1.2253785764	 1.3005942795	-0.117037
N	-2.020009537	-0.0500283115	 0.9470828301	-0.384461
C	-1.1877903789	-0.7020530336	-0.0927483381	 0.335605
C	-1.7810073955	-1.2555984839	-1.3632024345	-0.50566
C	-2.2094893679	-0.2210906393	-2.3028382065	 0.318084
C	-2.5623794603	 0.6345280768	-3.0684958993	-0.446703
H	-0.5224395038	 1.6757412433	 0.3816655435	 0.290304
H	 0.9725858851	-0.4989037546	-0.5251518881	 0.089328
H	 0.9865334118	-1.4260237145	 1.701575111	 0.103243
H	 0.2812192712	 0.073194309	 2.3787590082	 0.107649
H	-1.6290810834	-2.1247393968	 1.6987870822	 0.096433
H	-2.9785176296	-0.3737359415	 0.821658926	 0.231229
H	-1.0431319348	-1.9074488545	-1.8495798946	 0.139304
H	-2.6345677861	-1.9007876841	-1.1120234537	 0.127842
H	-2.8668654007	 1.3936676865	-3.74557601	 0.200096
51.6577	88.4844	166.1417	243.6671	279.9575	342.9951	386.4255	413.9755	479.3771	513.9497	582.4555	627.7472	644.8205	680.9429	737.0517	815.8364	877.4812	895.9256	917.6075	943.8639	973.7613	1008.3844	1028.9324	1047.1568	1105.526	1133.6509	1162.4361	1178.9088	1196.9161	1249.9063	1277.4895	1318.0133	1334.5426	1362.294	1422.6948	1449.3892	1457.9585	1478.1772	2242.2796	3006.8138	3039.9169	3064.8145	3083.714	3126.0191	3188.9176	3478.2764	3506.7065	3749.5695
OC1CC2NC12CC#C	O[C@H]1C[C@H]2N[C@@]12CC#C	
InChI=1S/C7H9NO/c1-2-3-7-5(8-7)4-6(7)9/h1,5-6,8-9H,3-4H2	InChI=1S/C7H9NO/c1-2-3-7-5(8-7)4-6(7)9/h1,5-6,8-9H,3-4H2/t5-,6+,7-/m1/s1
