17
gdb 14448	3.37732	2.51743	2.022	1.9294	71.88	-0.2125	-0.0047	0.2077	750.0301	0.143562	-326.649581	-326.643277	-326.642333	-326.679486	26.059	
C	 0.0043427653	 1.5460702859	-0.0361766694	-0.525206
C	 0.0123799297	 0.0397431167	-0.0237406456	 0.309994
C	 0.5211258852	-0.9602529629	-1.0718036227	-0.221346
N	 0.0152126444	-1.9159597295	 0.008380793	-0.147133
C	 0.6201789405	-0.9313005228	 1.0527698168	-0.06907
C	-0.3166900047	-0.988010318	 2.2388042769	-0.09275
C	-1.5221196268	-0.9991970745	 1.6643353284	-0.092754
C	-1.1917844031	-0.948113715	 0.1892487678	-0.069073
H	 1.0213546373	 1.944460473	-0.1198142666	 0.120948
H	-0.5762540588	 1.9296490401	-0.8822238575	 0.120947
H	-0.4396613406	 1.9350231855	 0.8866903948	 0.12485
H	-0.0251203942	-1.0400730352	-2.017068996	 0.093391
H	 1.600475316	-1.0250058867	-1.2423728221	 0.093391
H	 1.7000147645	-1.0046827062	 1.1932976035	 0.067397
H	-0.0392523991	-1.0338881774	 3.2819274384	 0.109508
H	-2.5062997838	-1.0567838531	 2.1062123836	 0.109508
H	-1.9798170916	-1.03883214	-0.560386043	 0.067397
213.0366	220.7194	265.829	450.3243	452.5685	513.7083	597.0673	703.1954	736.7619	763.1051	784.467	791.3794	900.4226	907.9209	916.8343	923.133	947.7642	954.5771	1006.3953	1023.7787	1098.822	1128.6011	1131.4542	1141.9864	1180.2687	1202.6178	1242.6298	1263.6918	1297.1831	1336.2588	1337.1733	1402.3272	1487.0207	1487.1381	1527.7854	1630.1434	3026.6104	3038.7633	3095.3447	3096.869	3098.6257	3104.2131	3108.3564	3226.4892	3253.0754
CC12CN3C1C=CC23	C[C@@]12CN3[C@@H]1C=C[C@@H]23	
InChI=1S/C7H9N/c1-7-4-8-5(7)2-3-6(7)8/h2-3,5-6H,4H2,1H3	InChI=1S/C7H9N/c1-7-4-8-5(7)2-3-6(7)8/h2-3,5-6H,4H2,1H3/t5-,6+,7-
