19
gdb 92247	2.67084	1.69404	1.35217	1.6225	74.71	-0.2389	0.0633	0.3021	1019.5507	0.159371	-422.967901	-422.960203	-422.959258	-422.999941	30.251	
C	-0.117966017	 1.5604427329	-0.0472714612	-0.416983
C	 0.0705072912	 0.0630245014	 0.0521384675	 0.067474
O	 1.1749028413	-0.4399220398	-0.7665949588	-0.319932
C	 1.6390131405	-1.3439403328	 0.26982023	 0.049217
C	 2.9139954164	-0.844509068	 0.9937682112	-0.262394
C	 2.0088200264	-0.0320177291	 1.964461138	-0.138713
C	 1.3944080606	-0.7875761739	 3.1726785347	-0.109837
O	 0.158859897	-1.0680911807	 2.4483780042	-0.327653
C	 0.7351011406	-0.5647801345	 1.2644889316	 0.40271
H	 0.7986847719	 2.0891876644	 0.2290314531	 0.119852
H	-0.3838415354	 1.8450000119	-1.0698783662	 0.13102
H	-0.9269262139	 1.8829095253	 0.6167069398	 0.125879
H	-0.8595113719	-0.4640019911	-0.2121074061	 0.082318
H	 1.5335865134	-2.3955879569	-0.0103565574	 0.077365
H	 3.5113910893	-1.6289971822	 1.4689504061	 0.101191
H	 3.5609687628	-0.2388767839	 0.3554026712	 0.11635
H	 2.2139020591	 1.026213492	 2.124162307	 0.08114
H	 1.9103075104	-1.7104418478	 3.4640184731	 0.106808
H	 1.194781357	-0.1831257871	 4.0627168122	 0.114186
114.5825	157.6309	197.1768	236.4888	324.9996	381.6766	417.7065	500.5725	530.1039	642.222	735.6835	790.0737	830.4693	857.3138	878.7372	931.4229	948.2463	975.5182	992.223	1007.0055	1034.4828	1078.5655	1091.9853	1120.1324	1142.6533	1151.8505	1155.8618	1192.5645	1226.566	1263.9002	1273.3372	1295.5812	1306.8712	1338.36	1351.5421	1396.4417	1412.5679	1460.4046	1483.2551	1494.7278	1516.0734	2985.207	3026.3426	3038.9259	3051.9799	3073.6073	3082.491	3109.4481	3110.7999	3118.1754	3121.032
CC1OC2CC3COC123	C[C@H]1O[C@H]2C[C@@H]3CO[C@]123	
InChI=1S/C7H10O2/c1-4-7-5(3-8-7)2-6(7)9-4/h4-6H,2-3H2,1H3	InChI=1S/C7H10O2/c1-4-7-5(3-8-7)2-6(7)9-4/h4-6H,2-3H2,1H3/t4-,5-,6+,7+/m1/s1
