14
gdb 19384	3.17678	2.32475	1.59707	3.8511	62.68	-0.2441	-0.0271	0.217	794.4099	0.106664	-382.497026	-382.490447	-382.489502	-382.527745	25.003	
O	-0.0048138089	 0.0253782694	-0.1209548746	-0.308554
C	-0.0429037377	 1.2099116052	 0.0393993588	 0.357132
C	-1.1272839635	 2.2540123564	-0.0402434523	-0.177094
C	-0.984251878	 3.226351405	 1.1207307053	-0.293216
C	-0.0321773048	 3.3593016083	-0.0175405554	-0.148221
C	 1.0484375738	 2.298338781	 0.1386274749	 0.339044
C	 2.3740594088	 2.3202082802	 0.760026191	-0.264009
O	 2.2071928966	 2.2315015307	-0.6626565899	-0.268046
H	-2.0390204722	 2.1885014194	-0.6189747458	 0.119859
H	-1.7779566357	 3.9642239972	 1.1758928316	 0.134228
H	-0.6352961326	 2.8760199853	 2.0880820824	 0.128646
H	 0.0383905167	 4.2248124178	-0.6612974291	 0.123466
H	 2.7757259495	 3.2647708245	 1.1240033736	 0.12331
H	 2.759458148	 1.4209472696	 1.2370932592	 0.133455
127.8442	199.6735	233.4472	273.8645	424.1026	497.5539	619.0239	645.5203	732.0863	775.6011	832.0509	880.1326	896.6583	924.189	945.289	972.0129	1019.1558	1054.9364	1087.5385	1102.2738	1123.8004	1146.0819	1166.0773	1203.3162	1267.5135	1295.67	1436.0147	1493.1569	1526.3202	1890.8816	3086.7123	3120.4659	3180.1259	3205.5413	3210.7726	3224.7412
O=C1C2CC2C11CO1	O=C1[C@H]2C[C@H]2[C@]21CO2	
InChI=1S/C6H6O2/c7-5-3-1-4(3)6(5)2-8-6/h3-4H,1-2H2	InChI=1S/C6H6O2/c7-5-3-1-4(3)6(5)2-8-6/h3-4H,1-2H2/t3-,4+,6-/m0/s1
