22
gdb 118885	2.99964	1.08511	0.969	1.4238	82.99	-0.2264	0.0863	0.3127	1342.8163	0.193278	-404.292154	-404.28265	-404.281706	-404.326529	35.714	
C	-0.0860148782	 1.3898447912	 0.122679024	-0.220845
O	-0.0419235172	-0.0151502409	 0.1236219965	-0.242112
C	-1.3078036216	-0.6068080952	-0.1049882331	-0.106871
C	-1.1526084325	-2.1189152594	-0.0331054273	 0.326908
C	-0.2222692292	-2.6460671009	-1.1230946242	-0.458165
C	-0.8031524723	-2.7052351846	 1.391518039	-0.267202
C	-2.1174993972	-3.489195003	 1.3507671229	-0.036312
N	-3.2006760218	-2.4788195452	 1.2506866912	-0.339811
C	-2.4768061457	-2.9099524452	 0.0290411273	-0.114239
H	 0.9266701816	 1.7519192092	 0.318665052	 0.122321
H	-0.4234545659	 1.7888865804	-0.8477181564	 0.099633
H	-0.7600377415	 1.7792487523	 0.9023498247	 0.103469
H	-2.0337442607	-0.2724366226	 0.6492513713	 0.107616
H	-1.6934518813	-0.3108644242	-1.0979061494	 0.071606
H	 0.76895116	-2.196012015	-1.0260257384	 0.135225
H	-0.1200204668	-3.7347064696	-1.062925927	 0.106624
H	-0.6094081457	-2.3998416489	-2.1193478719	 0.105923
H	 0.0877568419	-3.3362341182	 1.367896959	 0.100218
H	-0.7174184035	-1.9811040618	 2.2045264325	 0.107453
H	-2.3220570817	-4.4728565617	 1.7555897273	 0.089628
H	-4.0857323837	-2.9856062026	 1.2620527006	 0.226074
H	-3.0105939373	-3.346692254	-0.8078386604	 0.08286
73.6715	96.8805	139.1854	191.712	229.8364	246.0821	276.471	342.0516	362.7375	404.6272	463.3426	529.3315	671.9259	783.2385	810.2069	841.0333	877.9539	924.1217	949.175	960.8765	979.902	989.4205	1008.5722	1019.2792	1085.1398	1103.9051	1146.134	1153.7512	1162.7534	1177.54	1208.4357	1223.6854	1236.5399	1269.4943	1292.3364	1309.1481	1330.8886	1381.0622	1398.7987	1418.726	1476.9496	1480.7787	1484.8229	1491.3073	1500.1325	1504.5122	1529.2987	2936.4035	2966.7188	3008.6014	3024.6338	3025.3675	3069.8014	3087.3653	3107.6559	3120.9385	3126.7736	3169.7454	3189.1378	3468.4082
COCC1(C)CC2NC12	COC[C@@]1(C)C[C@H]2N[C@@H]12	
InChI=1S/C7H13NO/c1-7(4-9-2)3-5-6(7)8-5/h5-6,8H,3-4H2,1-2H3	InChI=1S/C7H13NO/c1-7(4-9-2)3-5-6(7)8-5/h5-6,8H,3-4H2,1-2H3/t5-,6-,7-/m1/s1
