21
gdb 41401	2.51011	1.84346	1.28824	1.8237	80.86	-0.2414	0.068	0.3094	1044.827	0.185065	-387.073737	-387.066221	-387.065277	-387.105916	30.184	
C	-0.0955731575	 1.4791211859	-0.1735328111	-0.231976
C	 1.4259820287	 1.5961741729	 0.1441754731	-0.326534
C	 1.5364639479	 0.054549126	 0.154349196	 0.323553
C	 2.5348002281	-0.7791432329	-0.657556178	-0.15843
O	 2.7875878372	-1.653311719	 0.4631354825	-0.299734
C	 1.965099514	-0.8371764101	 1.3375525761	 0.081153
C	 0.691610656	-1.5385635511	 1.8485318394	-0.234577
C	-0.4735561152	-0.6463529381	 1.3594947277	-0.228662
C	-0.0062124088	-0.0649654239	 0.0057803651	-0.059946
H	-0.7748071263	 1.9952222199	 0.5101769086	 0.097444
H	-0.3423585335	 1.7849020214	-1.1930610101	 0.101239
H	 2.0247389609	 2.092751963	-0.6245597498	 0.102452
H	 1.65987804	 2.0639939167	 1.1052507105	 0.101559
H	 2.1416427044	-1.3186712278	-1.529298656	 0.096998
H	 3.4409172691	-0.23264576	-0.9551917705	 0.094712
H	 2.5685884727	-0.38065768	 2.1319941561	 0.068052
H	 0.6496744426	-2.5265303368	 1.3783526844	 0.114065
H	 0.6806346994	-1.6867317871	 2.9320638871	 0.096663
H	-1.4201800841	-1.1899120509	 1.2895427085	 0.100521
H	-0.6328703505	 0.1711874225	 2.0739779811	 0.096452
H	-0.3709468553	-0.6597265307	-0.8367818209	 0.064997
73.8592	125.7202	223.3405	288.4436	359.4885	421.5504	511.2168	550.1063	603.5117	730.5626	787.417	800.4376	823.6041	842.7534	892.467	925.3507	942.0424	951.4508	963.0319	996.8257	1012.7608	1030.1321	1050.6996	1117.028	1136.2193	1151.9973	1164.3316	1192.9679	1196.7844	1206.3539	1227.0279	1255.4897	1258.0542	1280.4282	1297.1561	1309.8855	1317.6519	1337.3505	1346.1464	1365.3907	1475.0592	1485.049	1490.9652	1502.0923	1519.1469	2993.2797	3024.3744	3027.9252	3038.0066	3048.5144	3051.6162	3054.4218	3062.1795	3086.9963	3091.6043	3101.9799	3113.7852
C1CC23COC2CCC13	C1C[C@@]23CO[C@@H]2CC[C@@H]13	
InChI=1S/C8H12O/c1-2-7-8(5-9-7)4-3-6(1)8/h6-7H,1-5H2	InChI=1S/C8H12O/c1-2-7-8(5-9-7)4-3-6(1)8/h6-7H,1-5H2/t6-,7+,8-/m0/s1
