17
gdb 84062	2.42843	1.53754	0.99736	4.8792	77.1	-0.2292	-0.0903	0.139	1184.0431	0.134404	-421.880782	-421.871775	-421.870831	-421.914841	32.288	
C	-0.1537898243	 1.5778909836	 0.0214830799	-0.393924
C	-0.0031330861	 0.0484534143	 0.0024281617	-0.167547
C	 0.7649997254	-0.5036188333	-1.1751915964	-0.165437
C	 1.8365918243	-1.2558328178	-0.861356109	 0.195748
C	 2.7973952733	-1.9449338401	-1.7731504013	-0.489978
C	 1.9695871277	-1.3344442652	 0.6090575902	 0.231998
O	 2.7965652883	-1.9312077093	 1.2558387437	-0.299128
C	 0.8116244321	-0.4758464185	 1.1890210686	 0.318104
O	 0.6224979927	-0.2532597517	 2.3533884007	-0.285202
H	 0.8219719446	 2.069701191	-0.0385984809	 0.127051
H	-0.7606290771	 1.920489174	-0.8218897511	 0.122041
H	-0.6382730164	 1.8901170086	 0.9499958597	 0.146968
H	-1.0070109224	-0.3976654486	 0.0497551217	 0.120118
H	 0.4560355616	-0.2895109341	-2.1952091744	 0.115745
H	 3.8182898757	-1.5903124968	-1.5942557939	 0.148945
H	 2.8075592628	-3.0222259904	-1.5748590196	 0.149317
H	 2.5472353978	-1.7823312356	-2.8243420996	 0.12518
60.5809	110.9073	145.9377	211.6822	213.6369	249.4193	309.6616	322.1301	384.9803	515.5923	535.02	603.616	652.0771	709.8505	805.0321	890.8096	909.272	940.6886	995.9348	1040.7229	1067.0888	1077.484	1093.5724	1115.4125	1245.9631	1290.208	1316.5481	1354.2338	1404.9347	1415.6904	1472.2846	1483.2503	1494.7431	1499.2697	1677.7116	1811.6007	1858.2855	3008.0396	3037.8048	3041.6732	3093.3103	3112.4514	3123.9995	3127.9824	3165.2362
CC1C=C(C)C(=O)C1=O	C[C@H]1C=C(C)C(=O)C1=O	
InChI=1S/C7H8O2/c1-4-3-5(2)7(9)6(4)8/h3-4H,1-2H3	InChI=1S/C7H8O2/c1-4-3-5(2)7(9)6(4)8/h3-4H,1-2H3/t4-/m0/s1
