20
gdb 67878	2.7522	2.02084	1.36774	1.5523	84.15	-0.2182	0.0098	0.2279	984.9776	0.173262	-365.950423	-365.943223	-365.942279	-365.98148	30.252	
C	-0.0410582937	 1.5260742379	-0.0938440822	-0.504542
C	 0.0419624013	 0.0107272197	 0.0371505689	 0.353517
C	 0.2490919406	-0.5979746374	-1.3257375346	-0.097368
C	 0.2357241654	-1.9159738413	-1.4873406414	-0.091916
C	 0.0067001329	-2.7585424575	-0.2715264455	-0.309547
C	-0.1293766871	-1.8849116463	 0.9618272581	 0.05457
C	 0.7961237962	-0.6663164849	 1.228435898	-0.118396
C	-0.3648242959	-0.1887277961	 2.1138602142	-0.187031
N	-1.1121155401	-0.6824470301	 0.8637220109	-0.197162
H	 0.8534106209	 1.8939805672	-0.6086483184	 0.120228
H	-0.9076684039	 1.7927747395	-0.7087140862	 0.132177
H	-0.1213961816	 2.0636016977	 0.8504751841	 0.118769
H	 0.4000546498	 0.0793472077	-2.160950887	 0.083889
H	 0.3748601148	-2.3880948908	-2.4551861481	 0.091787
H	-0.9017423475	-3.366324805	-0.3852626508	 0.12138
H	 0.8278403251	-3.4748596283	-0.1245279445	 0.11004
H	-0.3508619513	-2.4943667576	 1.8434609133	 0.068207
H	 1.8746141585	-0.6575179818	 1.4294242345	 0.056725
H	-0.5935832189	-0.7828819881	 3.0027488325	 0.096352
H	-0.4841460257	 0.8718762954	 2.3267939641	 0.09832
167.4055	183.4707	284.4004	326.3371	384.1804	472.8566	485.4608	535.958	584.9749	637.4965	685.5756	748.8596	777.8179	790.7873	853.3553	904.7445	919.3453	941.973	962.4168	974.6539	992.5092	1036.7417	1070.6839	1082.8823	1106.4067	1126.3993	1146.9182	1172.5703	1208.9874	1215.5224	1219.4157	1232.2494	1261.98	1287.1056	1355.8103	1396.2571	1410.7177	1436.5091	1460.3075	1489.6251	1494.2805	1550.3026	1724.9085	3005.3402	3021.0541	3031.0825	3037.7587	3055.5992	3071.2189	3094.801	3134.0833	3156.8088	3160.2003	3184.1124
CC12C=CCC3C1CN23	C[C@@]12C=CC[C@H]3[C@@H]1CN23	
InChI=1S/C8H11N/c1-8-4-2-3-7-6(8)5-9(7)8/h2,4,6-7H,3,5H2,1H3	InChI=1S/C8H11N/c1-8-4-2-3-7-6(8)5-9(7)8/h2,4,6-7H,3,5H2,1H3/t6-,7-,8+/m0/s1
