25
gdb 53501	3.53206	0.66019	0.58976	0.0947	98.88	-0.2392	0.0619	0.3011	2015.3875	0.22577	-352.348563	-352.336495	-352.335551	-352.387421	42.745	
C	 0.0589495165	 1.5410970818	-0.0394182086	-0.498347
C	 0.0376311974	 0.0846503633	-0.0376657275	 0.106378
C	 0.0303245823	-1.1200593543	-0.0384049469	 0.031047
C	 0.0053771328	-2.5795785308	-0.0236597143	-0.375101
C	-1.4244570159	-3.1853113892	 0.0124682314	 0.054904
C	-2.2156327733	-2.7209683619	-1.2194889136	-0.40653
C	-1.3819520292	-4.7294915237	 0.1437734743	 0.053283
C	-0.6559674376	-5.1987272615	 1.4161805635	-0.399411
C	-2.7885202965	-5.3500883237	 0.1105013447	-0.403808
H	 0.8961053345	 1.9291858196	 0.5517134929	 0.144901
H	 0.1603342497	 1.9392236236	-1.0553567254	 0.144508
H	-0.8627395458	 1.9543789563	 0.3855000162	 0.144801
H	 0.5287062928	-2.9654021828	-0.9107467611	 0.117742
H	 0.5802242411	-2.927110368	 0.840952674	 0.123672
H	-1.921710537	-2.7875987247	 0.9089185413	 0.075479
H	-1.8203136358	-3.1811712599	-2.1338609673	 0.106522
H	-3.2752473046	-2.9761796922	-1.1470911377	 0.113013
H	-2.1404214058	-1.6364990621	-1.3328552385	 0.127106
H	-0.8264887672	-5.1162647214	-0.7246428462	 0.067489
H	 0.4002179138	-4.9183717446	 1.4317987028	 0.115122
H	-1.1275966491	-4.7788018858	 2.3130088061	 0.112778
H	-0.7008489843	-6.2892804297	 1.5020163408	 0.109286
H	-3.300905237	-5.1723117361	-0.8376729253	 0.116019
H	-2.7320983336	-6.4338015218	 0.2557654812	 0.108208
H	-3.4155839081	-4.9428714107	 0.9132461432	 0.110938
26.0236	47.8277	57.4987	87.3602	191.1152	208.823	216.9562	237.4608	258.6518	283.4481	348.454	367.7965	387.3163	400.1971	415.0963	472.6722	534.6226	760.1401	809.7317	865.4401	891.3349	928.5083	943.7278	966.3995	991.9135	1053.2165	1053.99	1067.0362	1117.5304	1150.1093	1170.3357	1180.8589	1193.0946	1247.3556	1291.9287	1336.5678	1349.6479	1358.3145	1380.4062	1401.5152	1408.4622	1415.87	1423.405	1470.7621	1479.7943	1480.1663	1487.6419	1493.8418	1498.9623	1506.6942	1509.0832	1523.0406	2369.4663	2983.0377	2998.4429	3011.976	3024.2398	3026.6203	3030.9431	3032.165	3066.3633	3083.3374	3083.6516	3087.5675	3095.0756	3103.2945	3111.9123	3118.0515	3127.4161
CC#CCC(C)C(C)C	CC#CC[C@@H](C)C(C)C	
InChI=1S/C9H16/c1-5-6-7-9(4)8(2)3/h8-9H,7H2,1-4H3	InChI=1S/C9H16/c1-5-6-7-9(4)8(2)3/h8-9H,7H2,1-4H3/t9-/m1/s1
