16
gdb 37385	3.07778	2.14163	1.94379	0.9176	65.38	-0.2149	0.0796	0.2945	782.3924	0.127749	-437.830059	-437.824451	-437.823507	-437.859692	24.364	
C	 0.0330338864	 1.5141321906	-0.0989049101	-0.251528
C	 1.287436558	 0.7257622733	-0.0041798451	-0.027165
C	 2.0344363581	 0.6373327935	 1.3170296668	 0.138649
O	 1.2562207459	 1.1858877918	 2.3694074303	-0.25674
C	 0.2940772041	 0.1810159422	 2.6315191531	 0.008123
C	 0.8992866861	-1.0990999805	 2.1226496233	 0.041585
O	 2.1699432459	-0.7507538959	 1.6201106466	-0.253461
C	-0.2776785964	-0.4789900237	 1.3820269425	-0.085193
N	-0.0219639716	 0.0499823514	 0.0601554935	-0.10601
H	-0.2350458238	 2.1380158704	 0.7467409666	 0.134742
H	-0.299911137	 1.8652034591	-1.0707922373	 0.118981
H	 1.8832231845	 0.5121883514	-0.8891084711	 0.100238
H	 3.0217511652	 1.1014120899	 1.3121892125	 0.102814
H	-0.243258546	 0.3290504175	 3.5588953994	 0.114607
H	 0.8760490204	-2.0698144078	 2.5980604099	 0.11721
H	-1.2366754697	-0.9783347933	 1.4819139193	 0.103148
279.7451	315.0033	417.5886	517.6842	584.7725	630.6774	664.3984	738.7316	749.707	775.0382	790.5623	822.4021	899.3751	910.2202	927.935	965.6413	1012.4661	1044.9487	1052.3109	1069.0142	1086.3705	1097.3131	1109.7236	1121.5436	1141.7252	1161.8509	1170.9481	1259.3476	1284.3331	1317.6119	1345.0515	1357.3515	1392.4644	1404.3909	1496.6469	3111.4558	3124.6116	3131.4846	3152.8921	3202.3002	3216.5324	3221.3161
C1C2C3OC4C(O3)C4N12	C1[C@H]2[C@H]3O[C@@H]4[C@H](O3)[C@@H]4N12	
InChI=1S/C6H7NO2/c1-2-6-8-4-3(7(1)2)5(4)9-6/h2-6H,1H2	InChI=1S/C6H7NO2/c1-2-6-8-4-3(7(1)2)5(4)9-6/h2-6H,1H2/t2-,3-,4+,5-,6+,7?/m0/s1
