23
gdb 123160	7.47912	0.45723	0.44616	2.3514	84.8	-0.255	0.0861	0.3411	2509.5915	0.203281	-425.397602	-425.386752	-425.385808	-425.435506	37.427	
C	-0.0725687403	 1.5475727456	 0.1227359214	-0.379254
C	-0.0440535919	 0.0191366908	 0.0375118066	-0.165894
C	-1.4443365496	-0.6014912256	 0.0084119899	-0.178221
C	-1.4161095106	-2.1204901662	-0.0835146491	-0.047992
O	-2.7453484611	-2.5999057988	-0.0930573386	-0.250023
C	-2.8327155299	-4.0014800042	-0.1946430862	-0.07429
C	-4.2844750612	-4.3931588713	-0.189673661	 0.083592
C	-4.7116111324	-5.7303540567	 0.2356611964	-0.182032
O	-4.8986590831	-4.5984158609	 1.0834827794	-0.226386
H	 0.9388428369	 1.9650497985	 0.1444226248	 0.111323
H	-0.5945611626	 1.9817117137	-0.7371016004	 0.115349
H	-0.5917449973	 1.8833368259	 1.0271270881	 0.116587
H	 0.5101159925	-0.2863887709	-0.8600359442	 0.095226
H	 0.5162830048	-0.3840973133	 0.8914482651	 0.096751
H	-2.0013418362	-0.3174213432	 0.9095375252	 0.107888
H	-2.0120480442	-0.2099238036	-0.8447206426	 0.102914
H	-0.8881113083	-2.4418979576	-0.9990181477	 0.081075
H	-0.8631428376	-2.5480048321	 0.771065544	 0.085393
H	-2.3579453424	-4.3526919204	-1.128896852	 0.085973
H	-2.3202598842	-4.4967260525	 0.6465591538	 0.093212
H	-4.9035499602	-3.8487583782	-0.9032486489	 0.100499
H	-5.6184355071	-6.1645919048	-0.1826968102	 0.116096
H	-3.9690450537	-6.4518769742	 0.5758683762	 0.112217
36.7439	49.336	79.5295	97.8803	130.8152	154.6362	194.2063	250.1776	276.8586	336.2182	407.4873	487.3589	515.4496	743.0969	804.5777	814.3924	869.4753	905.9488	951.0255	952.2419	993.4288	1024.1156	1038.1212	1071.7537	1099.3153	1138.6444	1157.0661	1159.0371	1166.4567	1175.4339	1197.8394	1251.3492	1270.3988	1292.0491	1293.8057	1311.5798	1323.6253	1365.1026	1388.3984	1411.984	1427.6722	1469.723	1487.046	1494.0617	1499.2524	1499.8837	1511.0723	1530.4179	1534.6542	2936.7388	2947.6621	2968.3719	2987.4994	3012.3985	3028.742	3032.8378	3038.7304	3074.0887	3080.5286	3098.4148	3103.1379	3114.6559	3165.6187
CCCCOCC1CO1	CCCCOC[C@H]1CO1	
InChI=1S/C7H14O2/c1-2-3-4-8-5-7-6-9-7/h7H,2-6H2,1H3	InChI=1S/C7H14O2/c1-2-3-4-8-5-7-6-9-7/h7H,2-6H2,1H3/t7-/m0/s1
