21
gdb 94905	2.04497	1.65625	1.34672	0.8735	87.68	-0.238	0.0485	0.2865	1104.7735	0.18335	-349.930119	-349.921512	-349.920568	-349.962871	34.259	
C	-0.1435712591	 1.5464395422	-0.0391789966	-0.405294
C	-0.0349166835	 0.0207763609	 0.0262887411	 0.029478
C	 0.5944885507	-0.6277611945	-1.2340444816	-0.239747
C	 1.2583839365	-1.9418169461	-0.7549344859	-0.227391
C	 1.5469265968	-1.7364846757	 0.726220862	-0.063416
C	 2.3134594853	-0.4876479292	 1.1524619127	-0.212551
C	 3.1154428448	 0.3047756272	 0.2658049271	 0.341875
C	 3.8439303789	 0.9612708975	-0.4332075201	-0.468633
C	 0.785921761	-0.5245759805	 1.1912062262	-0.06157
H	 0.8453446505	 2.0021136106	-0.1437334037	 0.132472
H	-0.7537184117	 1.8587586741	-0.8936503381	 0.108043
H	-0.6096227118	 1.9508450389	 0.8658516268	 0.106319
H	-1.046428168	-0.3899874349	 0.1561224493	 0.070939
H	-0.1517743115	-0.8038295564	-2.0140169393	 0.091082
H	 1.3478661199	 0.0413552896	-1.6548396765	 0.120886
H	 0.5674742227	-2.7866290264	-0.8576751418	 0.098793
H	 2.1547543242	-2.1859822831	-1.3342828006	 0.106024
H	 1.6650409998	-2.6119909713	 1.3557837619	 0.085384
H	 2.7565106547	-0.5771071859	 2.1417121617	 0.111745
H	 4.4732186773	 1.5448647693	-1.0580794248	 0.19228
H	 0.3447866726	-0.4830897665	 2.1820955805	 0.083283
105.5699	137.762	189.8148	235.3915	245.2988	320.6076	346.6672	440.8025	532.7428	547.6778	580.0864	642.2659	663.7739	684.4243	744.6568	770.3421	829.3313	840.7205	915.752	946.474	953.4551	992.6043	1014.7729	1024.9522	1051.4471	1070.1471	1112.8727	1138.7297	1152.9577	1204.3656	1216.6495	1238.0855	1311.7341	1319.9964	1338.0811	1342.4892	1360.0157	1382.9831	1409.8206	1417.841	1488.6604	1497.668	1504.8642	1508.551	2225.768	2996.4722	3031.4965	3036.044	3065.8145	3075.1086	3092.9238	3113.564	3117.9181	3127.628	3154.0299	3167.7569	3502.9369
CC1CCC2C(C#C)C12	C[C@H]1CC[C@H]2[C@@H](C#C)[C@@H]12	
InChI=1S/C9H12/c1-3-7-8-5-4-6(2)9(7)8/h1,6-9H,4-5H2,2H3	InChI=1S/C9H12/c1-3-7-8-5-4-6(2)9(7)8/h1,6-9H,4-5H2,2H3/t6-,7+,8-,9+/m0/s1
