21
gdb 93036	2.74323	1.44437	1.10455	2.0979	82.49	-0.2502	0.0038	0.254	1162.409	0.184087	-387.082204	-387.074039	-387.073094	-387.114546	32.695	
C	-0.2876364129	 1.4786373617	 0.0677186878	-0.390441
C	 0.06604484	-0.0110405439	-0.0297447703	 0.030786
C	 0.8407616343	-0.3353469232	-1.3408165235	-0.266989
C	 2.3294399687	-0.060059836	-1.2879526934	-0.047629
C	 3.1778473134	-0.793180404	-0.5648483746	-0.093588
C	 2.7089164494	-1.9441693574	 0.2581692399	 0.018888
O	 2.8534983802	-1.8565323022	 1.6852445442	-0.263231
C	 1.5323940382	-1.791368582	 1.1305854709	 0.035321
C	 0.8348545071	-0.4490231617	 1.2371237941	-0.224634
H	 0.6179164203	 2.0961610333	 0.0563003326	 0.119396
H	-0.9201453585	 1.793248914	-0.7688727245	 0.109579
H	-0.8254791499	 1.6985588124	 0.9960880981	 0.113567
H	-0.8738936122	-0.5762169037	-0.0802429727	 0.071895
H	 0.6885374061	-1.394161327	-1.5768741552	 0.10946
H	 0.3858492836	 0.2255817295	-2.1636512926	 0.095614
H	 2.7128935766	 0.771912179	-1.8737819567	 0.092452
H	 4.2442010624	-0.580583764	-0.5637402207	 0.096024
H	 2.9434383895	-2.9383933455	-0.1294899256	 0.092724
H	 0.9278189523	-2.6776374745	 1.3288652202	 0.085488
H	 1.6097371635	 0.2902188926	 1.4598611741	 0.118083
H	 0.1501305879	-0.4516501175	 2.0932550979	 0.097233
105.1384	173.4213	240.3063	266.7142	300.1208	332.1591	353.7945	411.6215	474.0537	531.8945	575.1576	723.7388	749.0549	816.5002	825.6871	837.4605	905.4889	935.6874	941.9245	967.3626	993.4371	1016.302	1028.5429	1046.4302	1106.5708	1125.9411	1136.0536	1174.1012	1215.6992	1230.5077	1269.367	1285.0153	1310.8945	1325.2966	1355.739	1382.2784	1386.9061	1411.6053	1418.9122	1469.0357	1483.5556	1492.102	1499.0784	1503.9742	1705.8328	3010.2419	3026.1415	3039.0583	3041.8137	3072.5778	3076.1355	3086.7789	3094.5377	3098.6404	3104.3056	3145.7292	3168.5412
CC1CC=CC2OC2C1	C[C@H]1CC=C[C@H]2O[C@H]2C1	
InChI=1S/C8H12O/c1-6-3-2-4-7-8(5-6)9-7/h2,4,6-8H,3,5H2,1H3	InChI=1S/C8H12O/c1-6-3-2-4-7-8(5-6)9-7/h2,4,6-8H,3,5H2,1H3/t6-,7+,8-/m0/s1
