16
gdb 67535	2.54383	1.83123	1.4925	4.7766	67.48	-0.2388	0.0022	0.2411	927.1205	0.1252	-437.856186	-437.848936	-437.847992	-437.887593	28.874	
N	-0.000792911	 1.4703031345	 0.1340036014	-0.59923
C	 0.0337351186	 0.0558550424	-0.0197954963	 0.143116
C	 1.199497194	-0.6537344537	 0.731184533	-0.078107
C	 1.0806003124	-2.1481157713	 0.7445667246	-0.307232
C	 1.5404976549	-1.4785367709	-0.518861632	-0.067844
C	 0.3606124248	-0.825022827	-1.2627522021	 0.039104
O	-0.9333885069	-1.4987982136	-1.1267610317	-0.267551
C	-1.3119332073	-0.7024782891	-0.0567939493	 0.410654
O	-2.359185074	-0.7027542923	 0.5024256054	-0.318894
H	 0.916916851	 1.8828202793	 0.0044252733	 0.238612
H	-0.6471049054	 1.9123950452	-0.510909651	 0.243519
H	 1.8466213705	-0.1139569271	 1.4119739893	 0.100989
H	 1.8656866986	-2.6554534303	 1.2957826076	 0.122426
H	 0.1165599768	-2.6438603405	 0.790394798	 0.146645
H	 2.5044372825	-1.6829047355	-0.9666277643	 0.096759
H	 0.5145818206	-0.4418819003	-2.2697752561	 0.097032
131.3648	200.3219	256.824	286.5291	332.7659	370.3384	479.7742	560.0629	683.0796	686.8464	721.292	761.5197	781.8979	825.8572	845.6085	892.795	920.9104	959.9624	965.3962	1005.2101	1022.284	1047.7584	1053.7985	1092.0302	1102.5861	1165.742	1182.2097	1248.8882	1299.378	1308.7314	1328.5578	1383.6579	1498.5331	1655.0675	1933.2396	3132.6869	3137.6044	3185.2714	3196.2492	3216.1877	3505.1906	3592.418
NC12C3CC3C1OC2=O	N[C@]12[C@H]3C[C@H]3[C@H]1OC2=O	
InChI=1S/C6H7NO2/c7-6-3-1-2(3)4(6)9-5(6)8/h2-4H,1,7H2	InChI=1S/C6H7NO2/c7-6-3-1-2(3)4(6)9-5(6)8/h2-4H,1,7H2/t2-,3+,4-,6-/m1/s1
