14
gdb 35007	2.88605	1.33411	1.09199	4.4308	74.69	-0.2617	-0.0047	0.257	1090.7614	0.099735	-399.477902	-399.470023	-399.469079	-399.510442	29.329	
C	 0.0024014229	-1.221691765	 0.0451553103	-0.375733
C	 0.0162997536	-0.0190189565	 0.0204724775	 0.157624
C	 0.0182946761	 1.3983926067	-0.0203555036	 0.096231
C	-0.626591752	 2.2929857819	-1.0879818191	-0.141156
O	 0.4621525804	 3.2551304835	-0.9885625731	-0.267755
C	 1.1283695863	 2.4410669458	-0.0512199837	 0.057955
C	 0.326879609	 2.2686507556	 1.2162598246	-0.275199
C	-0.5917241241	 3.2670485032	 1.6881476439	 0.317688
N	-1.3448017912	 4.0635217084	 2.0568744608	-0.33833
H	-0.0087807583	-2.2835671222	 0.0678229584	 0.199343
H	-0.6314982742	 1.8244832701	-2.0752062883	 0.13634
H	-1.5995905725	 2.7344393557	-0.8556901065	 0.143268
H	 2.2083601248	 2.3620929464	-0.0939040522	 0.137945
H	 0.8395841493	 1.7093893564	 1.9926803611	 0.151777
102.6393	134.4327	164.0033	198.0827	339.3176	383.5281	465.5301	486.5937	530.4192	598.1762	611.9695	647.2147	671.9781	784.7748	824.9863	896.1677	928.4014	988.8834	1014.735	1040.1463	1067.1977	1081.2389	1156.7372	1192.8303	1256.1005	1277.2739	1348.3264	1436.656	1507.2604	2239.1706	2355.7834	3059.2196	3123.0959	3171.9676	3193.6894	3499.9515
C#CC12COC1C2C#N	C#C[C@]12CO[C@H]1[C@H]2C#N	
InChI=1S/C7H5NO/c1-2-7-4-9-6(7)5(7)3-8/h1,5-6H,4H2	InChI=1S/C7H5NO/c1-2-7-4-9-6(7)5(7)3-8/h1,5-6H,4H2/t5-,6+,7-/m1/s1
