17
gdb 88264	3.07461	1.21226	0.95491	1.2164	71.36	-0.2358	-0.0389	0.1969	1233.5188	0.134944	-455.181357	-455.172007	-455.171062	-455.215918	33.557	
C	 0.3758793191	 1.3644799771	 0.2008270405	-0.404158
C	 0.0325460204	-0.075266777	-0.0970416253	-0.001307
C	 0.7494052303	-0.845483845	-1.1796921519	-0.231296
N	 0.9763343912	-1.1247077526	 0.2149092862	-0.065189
C	 2.1038448213	-1.0859363856	 0.9736928723	 0.304941
O	 2.1812000017	-0.5601908349	 2.070977816	-0.37795
C	 3.2992535294	-1.8699585273	 0.3776272165	 0.319152
N	 4.3087400787	-1.951750077	 1.2708724854	-0.511792
O	 3.3038607236	-2.3244213993	-0.7500695493	-0.360911
H	 1.3984907085	 1.599347213	-0.1087545815	 0.124962
H	-0.3080807016	 2.0301535157	-0.3348313485	 0.124709
H	 0.2950630819	 1.5702984636	 1.2714565942	 0.150315
H	-1.0024463797	-0.3534165603	 0.0962710358	 0.107663
H	 0.2286778494	-1.6176528167	-1.7386453422	 0.13306
H	 1.5431762511	-0.3425770141	-1.7240387014	 0.140098
H	 4.1917300785	-1.5062003988	 2.1670007902	 0.280758
H	 5.1657785263	-2.4137046209	 1.020356603	 0.266944
64.0668	82.7639	125.8306	167.8143	206.7214	291.6269	319.7027	363.1374	380.7506	444.1529	468.2406	519.2788	640.253	672.1662	680.6051	827.0681	843.6812	896.4994	904.2447	1043.5147	1069.0225	1092.417	1118.0734	1132.1703	1160.2171	1189.2715	1194.2523	1349.0901	1391.7855	1417.1974	1470.5405	1485.026	1494.5775	1522.031	1581.208	1755.6092	1807.0924	3043.2995	3108.2804	3118.8031	3120.1937	3129.043	3208.5278	3593.9233	3739.9551
CC1CN1C(=O)C(N)=O	C[C@H]1CN1C(=O)C(=O)N	
InChI=1S/C5H8N2O2/c1-3-2-7(3)5(9)4(6)8/h3H,2H2,1H3,(H2,6,8)	InChI=1S/C5H8N2O2/c1-3-2-7(3)5(9)4(6)8/h3H,2H2,1H3,(H2,6,8)/t3-,7?/m0/s1
