19
gdb 55920	3.82963	0.99418	0.93242	3.3464	75.85	-0.2386	-0.0095	0.2291	1314.1855	0.157522	-423.001606	-422.99281	-422.991866	-423.035985	32.558	
C	-0.1133322065	 0.9499612772	 0.789576808	-0.482975
C	-0.0229639279	 0.0666918827	-0.4360123094	 0.391192
O	 0.9525972287	 0.0280001658	-1.1495947866	-0.307529
C	-1.2275851613	-0.8373015136	-0.7106251325	-0.313479
C	-1.0092149573	-2.2081474601	-0.0750825866	 0.143438
O	-0.8938236974	-2.1701089941	 1.3826481251	-0.307283
C	-1.8675848173	-3.2130529027	 1.4955756435	 0.115115
C	-3.1983671022	-2.7540654249	 0.9994527003	-0.299429
C	-2.1473668012	-3.2245713618	 0.0111076277	-0.15684
H	 0.8287776674	 1.4757118067	 0.9486922264	 0.1366
H	-0.9256785998	 1.6767820039	 0.6691911746	 0.133428
H	-0.3632171298	 0.3303944735	 1.6576437925	 0.163681
H	-2.1522735751	-0.3925091399	-0.3319030804	 0.10235
H	-1.3081452022	-0.9738535257	-1.793529938	 0.125497
H	-0.0991243724	-2.6590185752	-0.488525866	 0.104822
H	-1.6853584912	-4.0000322952	 2.2173639447	 0.109934
H	-4.0165921117	-3.4542388408	 1.1369743601	 0.11965
H	-3.4727773489	-1.7067488425	 1.0844003381	 0.116649
H	-2.3055054739	-4.0469853636	-0.6726043014	 0.105178
47.6322	74.9966	138.997	177.9361	198.2344	296.5807	387.7628	457.8449	484.4621	546.264	589.3741	719.7705	769.2425	795.7926	820.0567	862.5258	917.4382	947.9952	971.2649	975.5624	1019.3714	1039.0934	1049.461	1065.0734	1080.5571	1086.1012	1106.7999	1177.7664	1199.4618	1239.1519	1266.9085	1277.7673	1313.3846	1367.0491	1378.6384	1383.2752	1459.0775	1470.4322	1475.5793	1477.2396	1813.8097	3033.6929	3037.9862	3053.1104	3099.4739	3111.0446	3121.2837	3154.1661	3186.8529	3205.8513	3214.837
CC(=O)CC1OC2CC12	CC(=O)C[C@H]1O[C@H]2C[C@@H]12	
InChI=1S/C7H10O2/c1-4(8)2-6-5-3-7(5)9-6/h5-7H,2-3H2,1H3	InChI=1S/C7H10O2/c1-4(8)2-6-5-3-7(5)9-6/h5-7H,2-3H2,1H3/t5-,6+,7-/m0/s1
