12
gdb 5343	6.08962	1.63916	1.29152	1.9999	72.22	-0.255	-0.0544	0.2006	870.0486	0.085474	-340.399791	-340.393554	-340.39261	-340.430154	23.359	
C	 0.0180265441	-1.1794949764	-0.0039021768	-0.344177
C	 0.0017348271	 0.0225662683	 0.0026855955	 0.260772
C	-0.0177156624	 1.4557461204	 0.0105335507	 0.18268
N	-1.2237872099	 2.045281806	 0.029872377	-0.272079
C	-1.2247519603	 3.3770966757	 0.0369795592	 0.000337
C	-0.0539743807	 4.1274270408	 0.0252608857	-0.119065
C	 1.136732003	 3.4093191878	 0.0054657034	 0.000339
N	 1.171910235	 2.0779708709	-0.0020983582	-0.272078
H	 0.0324299358	-2.241602211	-0.0097240437	 0.200462
H	-2.2005616128	 3.8575838098	 0.0526322582	 0.122717
H	-0.0686721063	 5.2104135637	 0.0312211752	 0.117374
H	 2.0991410473	 3.916252944	-0.0047475064	 0.122717
128.1403	164.8591	327.363	409.347	518.2102	543.8534	559.8364	645.8784	652.2107	652.8381	812.6707	828.6601	839.1947	1001.3083	1008.0971	1009.8106	1092.748	1114.3593	1245.4326	1283.6075	1306.5713	1446.0981	1458.7037	1587.7869	1613.1204	2240.5213	3155.7538	3157.5693	3212.0788	3502.1594
C#CC1=NC=CC=N1	C#Cc1ncccn1	
InChI=1S/C6H4N2/c1-2-6-7-4-3-5-8-6/h1,3-5H	InChI=1S/C6H4N2/c1-2-6-7-4-3-5-8-6/h1,3-5H
