21
gdb 108255	2.47686	1.33786	1.30738	2.1747	78.1	-0.237	0.0609	0.2979	1149.9033	0.180784	-424.200205	-424.190685	-424.18974	-424.234638	35.474	
C	-0.1442057186	 1.5782766958	-0.1402753272	-0.388158
C	-0.1382046634	 0.0443164016	-0.1262679334	-0.260592
C	 0.793333289	-0.5316295426	-1.1626836727	 0.42313
C	 2.3353432171	-0.4319675299	-0.9952388251	-0.267682
C	 2.4682785134	-1.9496497903	-1.345916061	-0.299307
C	 0.9320027888	-2.0377580758	-1.5405965073	 0.280009
O	 0.220029419	-3.0266580569	-0.858490162	-0.479709
C	 0.4275932409	-1.5970560157	-2.9293886226	-0.129188
O	 0.4031859953	-0.2085321973	-2.5255635077	-0.336648
H	 0.8447850523	 1.9839818503	 0.0986145934	 0.114408
H	-0.4297625831	 1.9493403054	-1.1284499766	 0.137339
H	-0.853282541	 1.9736521756	 0.5928379758	 0.110875
H	 0.1604768005	-0.3289337066	 0.8608769448	 0.098736
H	-1.148434475	-0.3364824413	-0.3147838021	 0.107376
H	 2.7988848323	 0.2597080378	-1.7003598859	 0.111731
H	 2.6647337113	-0.1872658702	 0.0177702778	 0.101898
H	 3.0817331418	-2.2029958419	-2.2147047082	 0.097747
H	 2.7954191726	-2.5500857709	-0.493176233	 0.103877
H	 0.6127957627	-3.8827591738	-1.0603768804	 0.282168
H	 1.0873769668	-1.7706904111	-3.7893615602	 0.090544
H	-0.5788808427	-1.972024832	-3.1545320763	 0.101445
81.1996	83.4267	125.4387	144.4026	219.4274	258.8273	298.0605	347.7409	380.4365	399.8647	538.9895	593.271	654.1467	714.1729	749.7551	781.1386	882.0898	895.0395	936.5154	947.3777	983.3434	996.795	1007.0001	1017.6189	1072.0327	1130.41	1154.6875	1175.8403	1197.7857	1210.5522	1229.1074	1252.3285	1254.3792	1284.6314	1316.6668	1330.5335	1365.165	1404.9132	1406.0642	1461.546	1476.7821	1482.323	1498.709	1509.9428	1516.8233	3004.798	3032.5463	3038.2825	3053.9933	3055.5791	3066.0699	3069.7117	3104.8996	3106.8063	3120.4001	3131.7788	3802.9715
CCC12CCC1(O)CO2	CC[C@@]12CC[C@]1(O)CO2	
InChI=1S/C7H12O2/c1-2-7-4-3-6(7,8)5-9-7/h8H,2-5H2,1H3	InChI=1S/C7H12O2/c1-2-7-4-3-6(7,8)5-9-7/h8H,2-5H2,1H3/t6-,7+/m0/s1
