14
gdb 127576	3.5104	1.31057	0.96009	4.033	72.1	-0.2438	-0.0034	0.2404	1139.8306	0.102199	-432.907167	-432.898845	-432.897901	-432.941108	29.136	
C	 0.020696003	 1.4314310999	-0.035147305	-0.331909
N	 0.0231386503	-0.0162876444	 0.0075867334	-0.028261
N	 0.0372879592	-0.7426970938	-1.1513853545	-0.267384
C	 0.0565184596	-2.0038317944	-0.7681687938	-0.069164
C	 0.0579649599	-2.1301486625	 0.6477393908	-0.042434
C	 0.0722286246	-3.2619371015	 1.4850753429	 0.173678
N	 0.0834395228	-4.1567175933	 2.2236856003	-0.365744
C	 0.0377130555	-0.8083038124	 1.0925836239	 0.400146
O	 0.0317232176	-0.2780642675	 2.3218011655	-0.420006
H	 0.9822045625	 1.8040201514	-0.3989939246	 0.15553
H	-0.7710294305	 1.7699090616	-0.7060794299	 0.160717
H	-0.1597518232	 1.8102061524	 0.970889306	 0.163258
H	 0.0666464721	-2.79877448	-1.4983308009	 0.140673
H	 0.0263645268	-0.9932567954	 2.970819336	 0.330899
35.3027	112.0142	122.7247	218.1395	288.6317	308.329	362.3074	433.7309	520.3504	540.7039	597.6364	650.904	721.8068	737.2984	787.0727	885.8731	996.216	1067.0432	1153.8651	1216.7217	1226.3734	1289.7604	1299.042	1405.3859	1450.2024	1480.0535	1485.1417	1509.7019	1601.0463	1618.3466	2331.8325	3058.2168	3129.6388	3166.5298	3258.6179	3793.5956
CN1N=CC(C#N)=C1O	Cn1ncc(C#N)c1O	
InChI=1S/C5H5N3O/c1-8-5(9)4(2-6)3-7-8/h3,9H,1H3	InChI=1S/C5H5N3O/c1-8-5(9)4(2-6)3-7-8/h3,9H,1H3
