23
gdb 121299	4.00735	0.84598	0.73178	1.1023	88.43	-0.2339	0.0336	0.2675	1614.2776	0.206722	-388.301537	-388.292138	-388.291194	-388.336089	35.143	
C	-0.0603313823	 1.3999598255	 0.0356182199	-0.224451
O	-0.0311084445	-0.0053126103	 0.017453307	-0.236017
C	 0.6950070579	-0.5568501955	 1.0961186724	-0.0723
C	 0.6374990256	-2.0774976657	 1.0122893139	 0.004641
C	 1.4665497783	-2.7310141436	 2.1280657244	-0.206306
C	 1.5124602692	-4.2574408416	 1.9653241098	-0.262916
C	 0.1573971737	-4.8316276265	 1.6415044119	-0.039426
C	-0.8776364822	-4.0892982328	 1.2504343502	-0.064213
C	-0.8098079759	-2.5974104377	 1.0535663351	-0.23313
H	 0.9513651633	 1.8322801822	-0.0290746651	 0.1013
H	-0.6393099853	 1.7287431422	-0.8311147787	 0.125104
H	-0.537750899	 1.7883909198	 0.949784032	 0.101647
H	 1.74340249	-0.2112808849	 1.0657778659	 0.0805
H	 0.2700106508	-0.2136927024	 2.0573124763	 0.078843
H	 1.0737797568	-2.3680010841	 0.046352652	 0.081269
H	 2.4840383574	-2.322747832	 2.1416556566	 0.088472
H	 1.0151524784	-2.4851955953	 3.0989181991	 0.096772
H	 2.2267258011	-4.5311385776	 1.174078442	 0.105827
H	 1.9035959402	-4.7200151614	 2.8805402813	 0.099558
H	 0.0429359793	-5.9087813398	 1.740016425	 0.079576
H	-1.8354069898	-4.5653150963	 1.0515282099	 0.079711
H	-1.3607204172	-2.0922354983	 1.8632415309	 0.098
H	-1.3287057857	-2.3123174937	 0.1323970681	 0.117539
72.0697	101.3372	118.6265	165.2378	208.9245	242.9784	318.0099	363.3067	394.3424	431.7732	507.4295	542.1446	672.495	746.7767	819.8578	878.2072	899.9974	933.4957	959.3209	979.1505	1004.8193	1006.2634	1055.0327	1094.0755	1114.6941	1118.5597	1160.2487	1165.4625	1183.7984	1204.8497	1227.6271	1241.9103	1265.2369	1290.6423	1313.8553	1330.9919	1368.1699	1379.6839	1395.7362	1417.303	1424.212	1474.9587	1479.3901	1480.7974	1485.7136	1495.0905	1503.1195	1526.6336	1726.3498	2933.0875	2961.8796	2966.7044	2981.2713	2994.8287	3007.4694	3009.1317	3019.808	3037.9076	3059.748	3067.7622	3110.5659	3137.6644	3161.9054
COCC1CCC=CC1	COC[C@H]1CCC=CC1	
InChI=1S/C8H14O/c1-9-7-8-5-3-2-4-6-8/h2-3,8H,4-7H2,1H3	InChI=1S/C8H14O/c1-9-7-8-5-3-2-4-6-8/h2-3,8H,4-7H2,1H3/t8-/m1/s1
