19
gdb 104355	2.28646	1.4891	1.27771	2.2	70.86	-0.2494	-0.0369	0.2125	1089.2741	0.158284	-460.180361	-460.171299	-460.170355	-460.214001	33.715	
C	-0.1628648731	 1.6318360272	 0.0409564666	-0.434577
C	 0.0104498489	 0.1125796848	-0.0326349549	 0.109552
C	-1.3707544231	-0.6026475999	-0.0502942684	-0.079216
O	-2.1763554192	-0.2672961923	 1.053904296	-0.42521
C	 0.8983803656	-0.3776098457	-1.1894188858	-0.134941
O	 1.5820615544	-1.5403020583	-0.7136218964	-0.25062
C	 1.8905999648	-1.3254862881	 0.6479788691	-0.18341
C	 0.7633363481	-0.445072617	 1.1790060331	 0.36112
O	 0.4690085975	-0.2682153274	 2.3378143733	-0.336886
H	 0.8019279673	 2.1415535827	 0.1250873408	 0.115646
H	-0.6647302043	 2.0011861702	-0.8599092082	 0.120682
H	-0.7756299108	 1.8984120244	 0.9034474096	 0.14849
H	-1.9161083335	-0.2827060951	-0.9460832183	 0.111553
H	-1.2111291718	-1.6900723671	-0.1313112262	 0.100444
H	-1.64033386	-0.3703106635	 1.852251737	 0.298201
H	 0.336423914	-0.6732721951	-2.0796850057	 0.119316
H	 1.6207696661	 0.4021259324	-1.4780873321	 0.096387
H	 1.949637551	-2.2831629859	 1.1715373879	 0.143587
H	 2.8518567579	-0.7977924863	 0.7823258427	 0.119882
75.2918	158.3227	174.2386	194.2641	198.4425	274.1941	290.8433	342.6818	420.5507	467.7584	486.7673	559.3252	644.2596	676.8646	716.4177	860.5896	920.9601	950.2025	953.3922	993.061	1022.0515	1085.2745	1101.4325	1116.1856	1172.5413	1184.3061	1211.8287	1225.9742	1263.5203	1288.9537	1328.5997	1373.7828	1390.9352	1410.0354	1446.49	1475.9415	1488.7511	1496.9822	1512.3342	1514.4731	1825.2361	2952.9122	2973.8509	2981.0507	3038.641	3053.9035	3089.9381	3099.3504	3101.8661	3144.2682	3748.6811
CC1(CO)COCC1=O	C[C@@]1(CO)COCC1=O	
InChI=1S/C6H10O3/c1-6(3-7)4-9-2-5(6)8/h7H,2-4H2,1H3	InChI=1S/C6H10O3/c1-6(3-7)4-9-2-5(6)8/h7H,2-4H2,1H3/t6-/m1/s1
