19
gdb 40998	3.88353	1.52534	1.44824	2.02	79.49	-0.2362	0.0656	0.3019	967.9795	0.161538	-385.770144	-385.763694	-385.76275	-385.800588	27.556	
C	 0.0723420555	 1.5097494105	 0.1949692751	-0.20601
O	 1.5210499485	 1.435320003	-0.0744760022	-0.312046
C	 1.2784713999	 0.2358793995	-0.9025346809	 0.105599
C	 1.3299831245	-1.268893923	-0.5347537804	-0.123033
C	 0.7356850321	-0.9422852448	 0.8514126067	-0.005161
C	-0.2256401693	-2.0513185314	 1.2819373098	-0.248968
C	-0.9174400095	-2.3618904256	-0.0753952837	-0.231502
C	-0.2369869568	-1.322521777	-0.9611520921	-0.124372
C	-0.0049422532	 0.0132891207	-0.1627958053	 0.230774
H	-0.1369566421	 1.7972215809	 1.2298153184	 0.112572
H	-0.417243301	 2.1985956473	-0.5045465974	 0.106919
H	 1.2932138318	 0.5075183494	-1.9622020835	 0.073031
H	 2.0686904086	-2.0408090208	-0.7769528823	 0.065734
H	 1.3814562308	-0.4857274671	 1.5992910198	 0.079292
H	 0.3023955851	-2.9179897646	 1.6923003031	 0.099043
H	-0.9314476974	-1.7075115371	 2.0450821501	 0.098236
H	-0.7240114168	-3.3807349382	-0.4260597384	 0.101645
H	-2.0025784886	-2.2256312619	-0.045209409	 0.103807
H	-0.4976809221	-1.26888927	-2.0191064777	 0.07444
206.4389	247.3458	282.6164	331.5187	474.337	538.5284	624.5401	706.4197	718.0552	765.4051	823.1199	843.9144	867.7183	886.2915	914.1951	928.3311	951.7514	957.2649	974.4611	995.8221	1028.1146	1045.2937	1066.0194	1097.5495	1120.5686	1154.8999	1164.2274	1178.0152	1196.8362	1235.5682	1244.1294	1246.7575	1264.52	1277.183	1290.1742	1314.1193	1338.0776	1378.9853	1485.2071	1500.4765	1505.9111	3020.2994	3042.3556	3042.7022	3052.9182	3062.3131	3076.2299	3090.862	3096.4275	3114.4727	3137.7458
C1OC2C3C4CCC3C124	C1O[C@H]2[C@H]3[C@@H]4CC[C@H]3[C@]124	
InChI=1S/C8H10O/c1-2-5-6-4(1)8(5)3-9-7(6)8/h4-7H,1-3H2	InChI=1S/C8H10O/c1-2-5-6-4(1)8(5)3-9-7(6)8/h4-7H,1-3H2/t4-,5+,6-,7-,8+/m0/s1
