19
gdb 114368	2.83543	1.23472	1.14179	2.2938	70.38	-0.2515	0.0436	0.2951	1154.3327	0.15967	-460.117132	-460.108764	-460.10782	-460.15071	32.047	
O	-0.0185566591	 1.2267280866	-0.6113182628	-0.418982
C	 0.0521429759	-0.1383741666	-0.2373270161	-0.086074
C	-1.329462866	-0.6782799796	 0.0714379783	 0.127081
O	-2.1835902837	-0.6665538762	-1.1200980937	-0.3443
C	-2.6467233795	-2.011929415	-0.8412534038	 0.078795
C	-1.8702646078	-3.0371971125	-1.7121386355	 0.142839
O	-1.4473262005	-2.5533448142	-2.9536643298	-0.432615
C	-0.8139036997	-3.1819440808	-0.558566855	-0.290935
C	-1.6161535034	-2.1735578822	 0.3122779049	-0.122408
H	-0.6300658706	 1.2813839102	-1.3546573013	 0.29331
H	 0.5326391319	-0.741432014	-1.0211395202	 0.093592
H	 0.6797345929	-0.1896745123	 0.6595458906	 0.114918
H	-1.7884997388	-0.0417391075	 0.8395853907	 0.092783
H	-3.7347807923	-2.0655760337	-0.7600931251	 0.080419
H	-2.4253960453	-3.9643349053	-1.8842080444	 0.087663
H	-1.3750536247	-1.594223798	-2.842411873	 0.283267
H	-0.7878334182	-4.1857180785	-0.1279022659	 0.107703
H	 0.2052956758	-2.9008448041	-0.8298423651	 0.110881
H	-1.873436517	-2.4684680662	 1.327682197	 0.082062
48.6282	92.5981	178.3092	234.6834	303.7181	395.2298	398.1869	449.2442	489.1647	514.6861	563.0891	657.4733	763.3133	809.0291	829.6244	881.7534	902.7162	926.8922	1000.0677	1026.0286	1041.6137	1059.4483	1065.4744	1099.3252	1140.1495	1149.9416	1165.1236	1212.1316	1216.0659	1241.7294	1265.8169	1294.3248	1309.0954	1314.5643	1337.769	1353.7325	1401.5708	1433.9198	1444.1385	1481.1254	1495.518	3004.52	3021.5232	3060.4579	3071.2243	3074.3884	3084.8832	3122.5817	3132.4826	3726.5882	3801.3842
OCC1OC2C(O)CC12	OC[C@H]1O[C@H]2[C@@H](O)C[C@@H]12	
InChI=1S/C6H10O3/c7-2-5-3-1-4(8)6(3)9-5/h3-8H,1-2H2	InChI=1S/C6H10O3/c7-2-5-3-1-4(8)6(3)9-5/h3-8H,1-2H2/t3-,4-,5+,6+/m0/s1
