14
gdb 5279	5.03334	1.64549	1.24124	3.0068	67.47	-0.2216	-0.0255	0.1961	914.2183	0.109256	-378.759692	-378.752728	-378.751784	-378.791345	26.308	
N	-0.1679167397	 1.3196427818	 0.1815378562	-0.524776
C	 0.0472626573	-0.0360220251	 0.0651973339	 0.238356
N	 1.2432789792	-0.4959352846	 0.0079133525	-0.53401
C	-1.1763798378	-0.8530253865	 0.0574706352	 0.370745
C	-1.4002970909	-2.1998417551	 0.0334659449	-0.285549
C	-2.8165196069	-2.3802371157	 0.0243255951	-0.168232
C	-3.3549504954	-1.1319104204	 0.0412277505	-0.020732
O	-2.3764327647	-0.1938982022	 0.0625722591	-0.190443
H	 0.6380731584	 1.8879948815	-0.0277745205	 0.257062
H	-1.0589740831	 1.6812734268	-0.1143643152	 0.260005
H	 1.2412386065	-1.5130909874	-0.0171251932	 0.211911
H	-0.6496120614	-2.9740572607	 0.025380356	 0.123014
H	-3.3578194402	-3.3128152855	 0.0077834555	 0.120887
H	-4.364900831	-0.7561953069	 0.0420838599	 0.141762
45.204	189.2693	218.8955	384.8129	425.3071	483.342	509.6015	598.7467	622.5747	658.1914	743.0796	757.2717	806.0396	821.3756	864.1043	901.817	939.9122	1041.1292	1095.5531	1117.2024	1144.121	1185.6659	1221.1921	1252.6588	1408.6141	1421.5865	1524.6587	1610.7848	1633.4804	1699.0854	3255.927	3266.7077	3286.599	3512.2616	3593.4117	3717.7975
NC(=N)C1=CC=CO1	NC(=N)c1ccco1	
InChI=1S/C5H6N2O/c6-5(7)4-2-1-3-8-4/h1-3H,(H3,6,7)	InChI=1S/C5H6N2O/c6-5(7)4-2-1-3-8-4/h1-3H,(H3,6,7)
