25
gdb 109584	1.93811	1.41388	1.02445	1.4804	87.86	-0.2483	0.056	0.3044	1337.7087	0.227948	-389.488441	-389.477816	-389.476872	-389.523318	40.497	
C	 0.3427474743	 1.3224042191	-0.4708007924	-0.388613
C	 0.3920533309	-0.1970032243	-0.2621947247	-0.197938
C	 0.6953035003	-0.5818486175	 1.1886014777	-0.036906
C	 0.7426464453	-2.10876467	 1.5442485087	 0.005762
C	 0.0528539284	-3.1268276267	 0.6433162999	-0.41252
C	 2.3065626322	-2.0504175736	 1.6038384949	-0.04042
C	 3.07267805	-2.6243335312	 0.4129818996	-0.423604
C	 2.1944410851	-0.4926190572	 1.6337846486	 0.131789
O	 3.1139891279	 0.2802853677	 0.8949328483	-0.425687
H	 1.2941034679	 1.7848235886	-0.1951222953	 0.135091
H	 0.1247565634	 1.5738904479	-1.5138081029	 0.105237
H	-0.439142185	 1.7731639151	 0.1505856257	 0.112588
H	-0.5712143124	-0.6351263801	-0.5513017546	 0.09886
H	 1.1270180249	-0.6357777977	-0.9504169052	 0.080044
H	 0.0180808215	-0.00805128	 1.8316325704	 0.0599
H	 0.3590300997	-2.2409150478	 2.5616563188	 0.069931
H	 0.3863307794	-3.0630210917	-0.3964828745	 0.114009
H	 0.2483996759	-4.1477667065	 0.9897674304	 0.111831
H	-1.0332153464	-2.9824037897	 0.6497978912	 0.114008
H	 2.7312548459	-2.4770653149	 2.5184439062	 0.06486
H	 2.6924024017	-2.2749051159	-0.553311572	 0.109551
H	 4.1308987378	-2.3499065961	 0.4724790671	 0.124954
H	 3.0120102828	-3.7170282068	 0.4000500643	 0.119424
H	 2.2713244775	-0.1153069784	 2.6570310312	 0.085431
H	 3.1282836413	-0.0477093223	-0.0096543514	 0.282418
79.2706	129.289	173.5653	205.1938	220.2182	231.0626	242.4821	257.6527	275.6933	291.8308	328.3841	429.8587	472.2737	505.5943	567.5863	724.1049	750.1817	772.5621	804.3576	843.49	894.5067	962.0969	990.4872	1017.6569	1029.2157	1035.5737	1064.3322	1073.3714	1123.5799	1171.8608	1177.9321	1182.1534	1191.6725	1261.3608	1273.3365	1276.6674	1292.5606	1307.0831	1338.5641	1367.7534	1370.7731	1392.5988	1407.9403	1410.4356	1414.4324	1444.9102	1485.4786	1493.3906	1498.9584	1500.448	1504.6016	1509.9523	1516.4898	3010.4095	3024.2227	3028.9817	3033.3669	3033.6812	3035.5679	3045.9235	3049.0061	3074.8277	3088.7766	3095.1965	3097.1384	3103.6545	3108.3261	3122.3617	3819.3558
CCC1C(C)C(C)C1O	CC[C@H]1[C@@H](C)[C@@H](C)[C@H]1O	
InChI=1S/C8H16O/c1-4-7-5(2)6(3)8(7)9/h5-9H,4H2,1-3H3	InChI=1S/C8H16O/c1-4-7-5(2)6(3)8(7)9/h5-9H,4H2,1-3H3/t5-,6+,7-,8+/m0/s1
