23
gdb 103275	3.64798	0.96923	0.93982	1.3528	86.57	-0.2475	0.0755	0.323	1397.611	0.204735	-388.261539	-388.251731	-388.250787	-388.295653	37.567	
C	 0.0348620479	 1.4983677865	-0.0338413733	-0.407353
C	 0.0406996493	-0.0239355272	 0.0397623518	 0.013611
C	 1.0975930763	-0.708856954	-0.8919386825	-0.271171
C	 1.8213013641	-1.2565587803	 0.3428091782	-0.069566
C	 0.7886522611	-0.588378415	 1.260741398	-0.112153
C	 0.9161275245	-2.0923580333	 1.2173985626	 0.344456
C	-0.1590044416	-3.0208549775	 0.6833276794	-0.475443
C	 1.6317589701	-2.6536095087	 2.4303318902	-0.146354
O	 2.3245279462	-3.8362397175	 2.0434023123	-0.424338
H	 1.0450836118	 1.9030598188	 0.0969141101	 0.113332
H	-0.3434314964	 1.8440125609	-1.0021505688	 0.111628
H	-0.6000785749	 1.9302354636	 0.7481633201	 0.110645
H	-0.9838498689	-0.3956690822	-0.0765236313	 0.06508
H	 0.733344722	-1.4443690036	-1.6164024808	 0.09414
H	 1.6934972052	 0.0342731774	-1.4287115993	 0.098087
H	 2.8977853292	-1.3171418039	 0.4544368899	 0.083039
H	 0.9483006118	-0.0338138759	 2.1808435029	 0.070289
H	-0.6121611622	-2.6601276756	-0.2417873375	 0.114921
H	 0.2690429206	-4.0080598578	 0.4885037568	 0.133254
H	-0.9631379061	-3.1434173544	 1.4192788436	 0.105916
H	 2.3315534502	-1.902224334	 2.8293671988	 0.080063
H	 0.8962116478	-2.8739534799	 3.2209835176	 0.082812
H	 2.6518016222	-4.2646684564	 2.8395599814	 0.285106
91.7962	128.5121	163.775	209.3943	224.505	247.1026	262.9695	302.0474	317.8015	363.3719	412.5402	465.6693	574.7703	680.9461	715.4406	829.672	847.8686	874.9531	899.5374	942.6602	964.3622	970.6268	1007.0434	1015.1652	1043.0183	1063.892	1072.7229	1111.6669	1119.7088	1125.7265	1172.5624	1208.8383	1237.3084	1247.8322	1256.504	1268.8995	1293.1727	1318.4524	1364.8756	1408.5782	1414.0044	1424.9236	1458.4339	1482.769	1494.581	1496.3549	1502.0635	1508.9618	1517.0228	2961.1449	2993.0219	3021.9433	3028.7702	3032.7868	3045.5627	3087.583	3093.072	3096.547	3100.0928	3131.4657	3146.1908	3173.7653	3830.7599
CC1CC2C1C2(C)CO	C[C@H]1C[C@H]2[C@@H]1[C@]2(C)CO	
InChI=1S/C8H14O/c1-5-3-6-7(5)8(6,2)4-9/h5-7,9H,3-4H2,1-2H3	InChI=1S/C8H14O/c1-5-3-6-7(5)8(6,2)4-9/h5-7,9H,3-4H2,1-2H3/t5-,6-,7+,8+/m0/s1
