17
gdb 117031	3.31487	0.81199	0.72271	2.0177	70.8	-0.2459	-0.1125	0.1334	1595.8399	0.131154	-458.99015	-458.979804	-458.97886	-459.027299	34.338	
C	-0.3865859559	 1.482964748	-0.3838834981	-0.387919
C	-0.1398766609	-0.010453031	-0.1588132223	-0.171678
C	 0.6270635235	-0.6569681037	-1.3121250709	-0.299323
C	 0.859696497	-2.1360715275	-1.1365905535	 0.302712
O	 0.4405001534	-2.8114832092	-0.2272604666	-0.279377
C	 1.7869672609	-2.8218318453	-2.1563658048	 0.222971
O	 2.8161891987	-2.3166705182	-2.5360279568	-0.262157
C	 1.3939556521	-4.2124523681	-2.6742970608	 0.091041
O	 0.2595523253	-4.6029635161	-2.704978664	-0.202324
H	 0.5556658277	 2.0315485433	-0.4914580386	 0.117901
H	-0.9761605763	 1.6578311935	-1.2907241668	 0.117056
H	-0.9325543336	 1.9209294186	 0.4567903787	 0.120587
H	 0.4197343864	-0.1648885855	 0.7702446607	 0.115859
H	-1.0910324773	-0.5363187473	-0.0237807915	 0.119708
H	 0.0952897637	-0.5251024671	-2.2677020167	 0.13364
H	 1.6070176253	-0.1881486793	-1.4740801744	 0.147402
H	 2.2533855802	-4.7716238651	-3.1013577637	 0.113901
35.0535	67.0227	90.586	104.5191	115.498	170.533	244.2829	252.5955	312.5003	347.2745	463.8405	511.6367	581.7026	648.5407	753.2258	792.7033	878.7828	896.0613	971.9877	1031.1705	1050.2666	1101.8802	1131.4899	1230.3748	1246.1377	1320.2678	1330.3544	1371.0185	1397.8619	1417.041	1443.2124	1487.6672	1501.5195	1507.7377	1793.3455	1799.2071	1831.8844	2920.1771	3003.1183	3031.4009	3046.3502	3049.3475	3077.6217	3102.7752	3108.2874
CCCC(=O)C(=O)C=O	CCCC(=O)C(=O)C=O	
InChI=1S/C6H8O3/c1-2-3-5(8)6(9)4-7/h4H,2-3H2,1H3	InChI=1S/C6H8O3/c1-2-3-5(8)6(9)4-7/h4H,2-3H2,1H3
