23
gdb 101757	5.44599	0.49286	0.46956	1.5022	92.31	-0.2375	0.0652	0.3026	2411.1731	0.202396	-388.278227	-388.266324	-388.26538	-388.317817	41.008	
C	 0.0145723505	 1.6003117255	 0.0658970612	-0.380539
C	-0.0688999573	 0.0766656587	-0.0516631473	-0.192875
C	 0.7254045425	-0.4828248235	-1.2385918536	 0.137296
O	 2.1027154652	-0.107536853	-1.1697981454	-0.428919
C	 0.568508546	-2.0011747708	-1.3783386674	-0.19199
C	 1.3141620979	-2.5652410294	-2.6038450526	-0.35901
C	 1.2240071015	-4.0169654277	-2.7108542158	 0.026638
C	 1.1357496137	-5.2164632243	-2.7738620543	 0.103009
C	 1.0365168758	-6.6666673739	-2.8637194229	-0.496933
H	 1.0564965354	 1.925113935	 0.1265102007	 0.126972
H	-0.4326970181	 2.0865528965	-0.808130274	 0.114312
H	-0.5130365593	 1.9595203257	 0.9544610586	 0.108879
H	 0.3059973802	-0.392231957	 0.8704155702	 0.085082
H	-1.1152696067	-0.2390492282	-0.1473392518	 0.097484
H	 0.3669838448	-0.0028684321	-2.1598931497	 0.08437
H	 2.4656098348	-0.4891723189	-0.3618295469	 0.276588
H	 0.9446311358	-2.4900591113	-0.4691328608	 0.094549
H	-0.4954755622	-2.2548362324	-1.446904199	 0.1055
H	 0.9105982963	-2.1007005469	-3.5140445537	 0.121189
H	 2.3626938333	-2.2509561968	-2.5490863704	 0.135628
H	 0.5985749273	-6.9789292611	-3.8185135222	 0.144816
H	 2.0208354845	-7.1414323903	-2.782087891	 0.144347
H	 0.4072238581	-7.0746261639	-2.0646069019	 0.143606
14.6567	42.9058	65.3596	97.2195	126.6619	171.3143	213.4081	221.8317	272.6432	285.4449	315.5666	367.104	385.3284	456.6429	487.2055	556.1849	757.6542	766.6596	790.1494	876.9252	944.7309	997.3632	1007.098	1050.6033	1053.7293	1056.3012	1082.3657	1111.1974	1141.9852	1168.5449	1172.5345	1261.9843	1265.7658	1299.1172	1330.492	1361.1075	1379.7084	1391.3149	1406.3792	1415.6913	1421.313	1472.153	1479.6803	1480.1445	1481.0802	1491.9268	1495.7043	1509.2328	2372.9469	2998.1825	3010.0955	3014.7522	3023.2909	3027.217	3037.1632	3048.7898	3056.4138	3077.3381	3082.099	3082.5842	3101.6513	3121.9104	3787.1421
CCC(O)CCC#CC	CC[C@@H](O)CCC#CC	
InChI=1S/C8H14O/c1-3-5-6-7-8(9)4-2/h8-9H,4,6-7H2,1-2H3	InChI=1S/C8H14O/c1-3-5-6-7-8(9)4-2/h8-9H,4,6-7H2,1-2H3/t8-/m1/s1
