19
gdb 82331	2.5715	1.7442	1.28778	1.8613	73.75	-0.2524	0.075	0.3274	1022.6019	0.160241	-423.002185	-422.994453	-422.993509	-423.034407	31.012	
O	 0.506805347	 0.6975884364	-0.7652678601	-0.433896
C	 0.1460727567	-0.4191401977	 0.0248898701	 0.0392
C	 0.5377585319	-0.2644492872	 1.4842475135	 0.001973
O	-0.2878672245	 0.7104120766	 2.1478565578	-0.267706
C	-0.5705052828	-0.6837507069	 2.3449128445	 0.046747
C	-1.712709866	-1.2041270837	 1.494337794	-0.329519
C	-1.37393606	-0.7127209146	 0.0837316382	 0.325447
C	-2.3303922651	 0.1783759692	-0.6678793805	-0.298955
C	-2.0979461332	-1.2384032792	-1.1250318539	-0.324926
H	 0.1500326233	 1.4721039077	-0.3126730698	 0.289837
H	 0.6860369134	-1.2680728113	-0.4124797873	 0.08938
H	 1.5820018488	-0.2790483379	 1.784773928	 0.099322
H	-0.4181877845	-1.0457751358	 3.3584607792	 0.096515
H	-1.7221688357	-2.3007025822	 1.5509049965	 0.105723
H	-2.688507217	-0.8502646234	 1.8428628224	 0.111555
H	-3.2737885493	 0.4217670946	-0.1906379146	 0.109232
H	-1.908655805	 0.9702072602	-1.2759621254	 0.116826
H	-1.521507363	-1.3842453652	-2.0334754426	 0.116597
H	-2.885088505	-1.9701728198	-0.97250292	 0.106649
64.1405	184.9288	250.1715	285.871	362.9418	367.0887	433.6494	457.0712	535.5647	620.2176	661.3308	785.8452	790.8728	811.7765	874.481	879.8316	896.2104	928.1959	964.8202	985.8643	1003.4409	1053.7782	1062.0719	1065.2108	1090.019	1094.2771	1117.4276	1193.9261	1199.8453	1251.8184	1261.4663	1285.2618	1294.1834	1297.4469	1337.3535	1369.1091	1436.0299	1440.4917	1459.5705	1483.2492	1500.6451	3023.0909	3037.5048	3072.8932	3120.4918	3132.858	3145.0776	3158.4188	3201.8541	3224.2092	3783.6829
OC1C2OC2CC11CC1	O[C@H]1[C@H]2O[C@H]2CC21CC2	
InChI=1S/C7H10O2/c8-6-5-4(9-5)3-7(6)1-2-7/h4-6,8H,1-3H2	InChI=1S/C7H10O2/c8-6-5-4(9-5)3-7(6)1-2-7/h4-6,8H,1-3H2/t4-,5-,6-/m0/s1
