19
gdb 32217	2.6287	1.47371	1.02133	2.8597	86.87	-0.2075	-0.0096	0.1979	1196.3251	0.161523	-382.139574	-382.131055	-382.130111	-382.172626	32.801	
C	-0.0077495148	 1.5383754773	 0.1006880759	-0.378626
C	-0.0518093569	 0.0049403483	-0.0393718963	-0.286788
C	 0.7054900023	-0.4990250132	-1.2464899125	 0.280696
N	-0.0069897959	-0.7026001739	-2.3565538418	-0.31368
C	 0.6066314162	-1.141636598	-3.4576336291	-0.033362
C	 1.9709607419	-1.4024770883	-3.5035451968	-0.115213
C	 2.7249353991	-1.1884997315	-2.3581338577	-0.147813
C	 2.1001590429	-0.7251259002	-1.197833056	 0.236973
N	 2.8233891973	-0.5575177418	-0.0134621369	-0.596002
H	 1.0173983653	 1.9143112454	 0.1983836494	 0.104402
H	-0.4456388026	 2.0117504174	-0.7828290702	 0.135174
H	-0.5689561526	 1.8684148727	 0.9804243479	 0.115371
H	 0.335993668	-0.4664168787	 0.8723219021	 0.101096
H	-1.0911931993	-0.3139660506	-0.1505674099	 0.120976
H	-0.0203676351	-1.2934183899	-4.3322332348	 0.097841
H	 2.4355486899	-1.7615284118	-4.4153914218	 0.094191
H	 3.7949403552	-1.3788256026	-2.3541244738	 0.08705
H	 3.8211502833	-0.4713435071	-0.1451903477	 0.244963
H	 2.4760361556	 0.1576536264	 0.60707741	 0.252751
79.9967	118.9905	206.1951	221.1715	283.5045	334.6975	346.0078	436.1541	484.949	532.7132	581.0376	598.5154	629.5964	732.274	787.3618	799.7377	831.3341	871.1479	929.7485	970.5789	976.1828	1040.4936	1070.2661	1075.9646	1104.9172	1165.0498	1224.7168	1269.238	1286.334	1329.7429	1333.5231	1356.7598	1405.0855	1482.5973	1488.5002	1492.4235	1498.6703	1509.4021	1612.2739	1629.4483	1659.3159	3030.0105	3031.1497	3085.9639	3105.349	3116.3916	3156.6068	3160.5927	3194.851	3567.0661	3665.7721
CCC1=NC=CC=C1N	CCc1ncccc1N	
InChI=1S/C7H10N2/c1-2-7-6(8)4-3-5-9-7/h3-5H,2,8H2,1H3	InChI=1S/C7H10N2/c1-2-7-6(8)4-3-5-9-7/h3-5H,2,8H2,1H3
