19
gdb 77671	2.29302	1.60157	1.34685	1.7552	71.	-0.2359	0.0424	0.2783	1049.207	0.158362	-460.142253	-460.133312	-460.132368	-460.175318	34.113	
C	-0.0458896108	 1.5635427536	 0.0572655665	-0.477501
C	 0.0497189931	 0.0604556135	 0.0129640641	 0.183173
C	 0.496833761	-0.6166564894	-1.27416077	-0.135623
O	 0.9555916194	-1.9215195235	-0.9112518071	-0.254794
C	 1.4935314317	-1.855285313	 0.4007117015	-0.150974
C	 0.6728873983	-0.7900169045	 1.1033888197	 0.265256
O	 1.1648244936	-0.1816846809	 2.2635704895	-0.475742
C	-0.8245285815	-0.8121480895	 0.9093215438	 0.036312
O	-1.5965571399	-0.202996908	 1.8986720101	-0.446366
H	 0.9331225	 2.0323318224	-0.088272137	 0.119939
H	-0.7155247957	 1.9293480079	-0.7291841099	 0.121989
H	-0.4506200804	 1.9023283844	 1.0124883876	 0.127599
H	-0.3042450854	-0.7518693922	-2.0088242683	 0.110958
H	 1.3037675043	-0.0303403476	-1.7441505657	 0.092461
H	 1.4124094997	-2.8579160003	 0.8369152369	 0.103114
H	 2.5548064345	-1.5542547848	 0.4038848402	 0.096854
H	 1.2506759781	-0.8602831188	 2.9441441664	 0.294335
H	-1.3052199261	-1.69208924	 0.4880440058	 0.105407
H	-0.9785806439	 0.1184748808	 2.5690516958	 0.283605
108.6691	170.0186	196.4532	214.5607	255.7314	268.7633	294.2841	321.3492	400.9101	476.3261	500.4093	530.2168	618.3332	692.0003	702.9127	757.4348	863.0854	945.3026	961.6805	1007.6846	1038.5104	1065.6933	1098.8781	1117.7592	1149.4262	1184.4521	1205.458	1225.9377	1238.2797	1270.9092	1288.2623	1320.9376	1359.4386	1372.0109	1404.9206	1418.1747	1471.2806	1488.9735	1500.7352	1511.0298	1523.4943	2963.8328	2970.1425	3034.4833	3052.891	3065.7682	3090.3364	3132.0879	3134.6308	3748.261	3779.9776
CC12COCC1(O)C2O	C[C@@]12COC[C@]1(O)[C@H]2O	
InChI=1S/C6H10O3/c1-5-2-9-3-6(5,8)4(5)7/h4,7-8H,2-3H2,1H3	InChI=1S/C6H10O3/c1-5-2-9-3-6(5,8)4(5)7/h4,7-8H,2-3H2,1H3/t4-,5-,6-/m0/s1
