15
gdb 124680	3.92529	1.03692	1.00227	3.6627	66.75	-0.2845	-0.062	0.2224	1190.9276	0.111813	-450.111603	-450.10331	-450.102365	-450.146096	28.441	
C	-0.2654588268	 1.5010322214	 0.0183196475	-0.39982
C	 0.030349878	 0.0051691248	-0.0519623665	-0.058987
C	-1.2135923403	-0.8654611504	 0.1713759939	 0.144111
O	-2.2275273065	-0.4552956994	 0.6644211391	-0.219174
N	 0.6836403941	-0.3965178142	-1.2924996657	 0.013909
C	 0.28428707	-0.3066568355	-2.5765229327	 0.060857
N	 1.2089868144	-0.8260227712	-3.3530551505	-0.217511
N	 2.1947787494	-1.2449828219	-2.5145483612	-0.088521
N	 1.8966551088	-0.9989740714	-1.2847367129	-0.117724
H	 0.6581376638	 2.0772443329	-0.0656978551	 0.144491
H	-0.9497574224	 1.8074879346	-0.7772718414	 0.137963
H	-0.7472496544	 1.7258652763	 0.971320866	 0.15755
H	 0.7453157768	-0.2791841506	 0.7305771431	 0.156213
H	-1.0912851912	-1.9224283318	-0.1501128016	 0.113882
H	-0.6474305837	 0.1305737063	-2.8965335521	 0.172762
34.4615	69.172	122.4085	196.1778	239.8532	254.5519	392.1826	408.8094	575.9436	687.6237	724.1021	737.1019	853.0229	866.7511	929.6155	983.7369	1018.7033	1072.9774	1097.0608	1119.0613	1132.8892	1180.3218	1209.5061	1309.0922	1315.825	1347.2632	1403.9426	1418.3565	1458.7236	1487.7649	1491.6871	1505.9376	1843.8107	2909.7623	3048.6602	3061.1981	3135.8248	3152.5416	3283.8802
CC(C=O)N1C=NN=N1	C[C@@H](C=O)n1cnnn1	
InChI=1S/C4H6N4O/c1-4(2-9)8-3-5-6-7-8/h2-4H,1H3	InChI=1S/C4H6N4O/c1-4(2-9)8-3-5-6-7-8/h2-4H,1H3/t4-/m0/s1
