15
gdb 45346	2.54929	1.88886	1.18374	6.3238	66.41	-0.2617	-0.0106	0.251	988.2176	0.115065	-454.002652	-453.995509	-453.994565	-454.034639	26.863	
O	-0.1098446969	-0.0335410709	 0.1587733494	-0.293775
C	-0.1280514065	 1.149923184	 0.0395223103	 0.399017
C	-1.2035452899	 2.2476799229	-0.1307058638	-0.399462
C	-0.0321870458	 3.2570256725	-0.0155941446	 0.036649
C	 0.2378397743	 4.028092985	 1.2946184029	-0.200677
N	 1.5865098066	 3.5636570436	 1.6130786494	-0.338054
C	 1.8843836454	 2.3198363317	 1.0789958209	 0.421647
O	 2.7591694039	 1.5681492491	 1.4105289458	-0.354701
N	 0.9176193113	 2.1235194562	 0.0447642936	-0.171149
H	-1.7336251086	 2.2303200692	-1.0847287972	 0.145457
H	-1.9281864134	 2.2674688557	 0.6864484254	 0.143181
H	 0.1235262453	 3.8876570384	-0.8936720716	 0.106931
H	 0.2115966397	 5.1108875269	 1.1489461806	 0.127896
H	-0.4852497206	 3.7687213891	 2.0818180962	 0.114427
H	 2.0362770252	 3.8012634567	 2.4833550628	 0.262613
91.7436	138.85	167.3379	312.6515	448.6401	469.7862	515.2471	526.0664	595.3518	693.873	738.6667	752.0306	783.9739	856.0477	930.4339	1008.3224	1038.6915	1044.1425	1072.1103	1118.1149	1144.7929	1171.8356	1213.9653	1218.1932	1235.5342	1275.8203	1343.2786	1373.5642	1434.608	1451.8377	1527.6081	1855.3767	1929.9018	2994.7205	3076.5143	3082.3708	3093.7299	3140.3348	3641.7411
O=C1CC2CNC(=O)N12	O=C1C[C@H]2CNC(=O)N12	
InChI=1S/C5H6N2O2/c8-4-1-3-2-6-5(9)7(3)4/h3H,1-2H2,(H,6,9)	InChI=1S/C5H6N2O2/c8-4-1-3-2-6-5(9)7(3)4/h3H,1-2H2,(H,6,9)/t3-/m0/s1
