16
gdb 97474	7.25539	0.45202	0.42776	4.3207	97.96	-0.2426	-0.0476	0.195	2476.7902	0.122086	-400.741544	-400.730894	-400.72995	-400.780112	35.137	
C	-0.0436004858	 1.559429747	 0.0552527555	-0.368854
C	 0.0097718315	 0.0209160196	-0.0118780465	-0.346764
C	 0.6854949007	-0.4787457224	-1.1988212453	 0.300068
C	 1.2513741357	-0.8775434821	-2.1930885317	-0.23128
C	 1.8847041481	-1.3250225857	-3.306582368	-0.244242
C	 2.4492654011	-1.7335601018	-4.2989163429	 0.319207
C	 3.1398079727	-2.1354260863	-5.5138990567	 0.205124
N	 3.2426559374	-3.4873159532	-5.6688144234	-0.520845
O	 3.5821240499	-1.3318020585	-6.3126676093	-0.32858
H	 0.9637481356	 1.9832027478	 0.0633335905	 0.136897
H	-0.5765766392	 1.9677373147	-0.8070820761	 0.136898
H	-0.5608331584	 1.8770700835	 0.9649280368	 0.122056
H	 0.5168194726	-0.3722622693	 0.8790653207	 0.142422
H	-1.0089391971	-0.3875714373	 0.0168918924	 0.142425
H	 2.8670148465	-4.127860041	-4.9919950135	 0.267934
H	 3.7089797084	-3.8404371649	-6.4881635723	 0.267534
23.3383	43.6392	52.1405	72.9348	122.818	183.3005	236.606	254.0679	363.2928	382.1074	474.8817	532.5509	550.131	600.889	604.1692	641.4291	775.5131	783.7007	833.2533	981.9962	1078.5303	1086.9165	1099.573	1220.2964	1281.3038	1335.314	1374.8303	1411.2665	1465.5465	1494.6759	1504.5928	1607.2075	1766.3758	2262.8626	2366.7845	3019.0289	3047.6403	3049.5072	3124.8718	3130.6399	3603.0572	3746.0374
CCC#CC#CC(N)=O	CCC#CC#CC(=O)N	
InChI=1S/C7H7NO/c1-2-3-4-5-6-7(8)9/h2H2,1H3,(H2,8,9)	InChI=1S/C7H7NO/c1-2-3-4-5-6-7(8)9/h2H2,1H3,(H2,8,9)
