20
gdb 92736	2.89528	1.31324	0.93809	3.1081	82.81	-0.212	0.0025	0.2144	1277.8496	0.17144	-403.218148	-403.209075	-403.208131	-403.251717	34.412	
C	-0.0598825187	 1.5654424552	 0.0152285702	-0.391735
C	 0.0738009666	 0.0432604877	 0.0030869193	-0.1134
C	 0.7054642055	-0.5024872558	-1.2915286742	-0.26527
C	 0.9804105052	-1.9788948434	-1.193119917	-0.201345
C	 1.2777398486	-2.5347161047	-0.0146240153	 0.391471
C	 1.6147980615	-3.9792068907	 0.2050592155	-0.4899
N	 1.3021432041	-1.7404047814	 1.1461120902	-0.398113
C	 0.8125729156	-0.4554519174	 1.2477407854	 0.416975
O	 0.9250165109	 0.1830378868	 2.2753931662	-0.371627
H	 0.9190507071	 2.0418538789	-0.1016452359	 0.12021
H	-0.7014784025	 1.9001570399	-0.8056129796	 0.105703
H	-0.4831782147	 1.9088661947	 0.9604785931	 0.13813
H	-0.92959323	-0.4038084594	 0.0869495391	 0.10477
H	 0.039693373	-0.2848869559	-2.1335073285	 0.107381
H	 1.6394345894	 0.0449447797	-1.4992906737	 0.110377
H	 0.9657844077	-2.5935207321	-2.0849488985	 0.087416
H	 2.617214198	-4.0897493918	 0.6383611041	 0.130959
H	 0.90898966	-4.4518905373	 0.8988527521	 0.134052
H	 1.5926277445	-4.5277525349	-0.7380431204	 0.137666
H	 1.7094524482	-2.108595408	 1.993450178	 0.246281
86.0698	122.6047	181.9619	197.3641	258.7103	271.3272	305.7784	342.5134	414.3737	514.251	531.4158	550.94	589.7215	681.7963	696.3746	754.0255	781.3862	894.2851	904.7634	995.972	1015.8381	1060.9019	1070.7799	1081.8022	1115.4904	1147.5259	1186.787	1218.1805	1271.7449	1302.9764	1338.6878	1350.6682	1390.5015	1409.5978	1415.8259	1464.4529	1477.0488	1482.0286	1491.5933	1496.941	1498.7967	1745.1392	1793.0039	2972.6053	2990.5592	3020.8604	3042.7702	3061.0115	3069.4832	3106.3384	3134.8529	3139.8005	3199.8721	3613.2162
CC1CC=C(C)NC1=O	C[C@H]1CC=C(C)NC1=O	
InChI=1S/C7H11NO/c1-5-3-4-6(2)8-7(5)9/h4-5H,3H2,1-2H3,(H,8,9)	InChI=1S/C7H11NO/c1-5-3-4-6(2)8-7(5)9/h4-5H,3H2,1-2H3,(H,8,9)/t5-/m0/s1
