18
gdb 10024	3.14881	1.08858	0.84419	0.7162	82.67	-0.2459	0.0415	0.2874	1395.3948	0.150261	-310.615214	-310.605091	-310.604147	-310.651675	34.84	
C	-0.1053626364	 1.5354422468	-0.0500418179	-0.393217
C	-0.0644174167	 0.0089890575	 0.0133304519	-0.163405
C	 0.7265935131	-0.533228328	 1.2398694802	-0.339832
C	 0.1159691559	-0.110764501	 2.5064535597	 0.353693
C	-0.3951201333	 0.2507784249	 3.5319857842	-0.47649
C	 0.8650456455	-1.9924311933	 1.1769387129	 0.05819
C	 0.9703080556	-3.1884209703	 1.0968519774	 0.103563
C	 1.1005655985	-4.6360880553	 1.0137784119	-0.499156
H	 0.9034179111	 1.9572082359	-0.1242171622	 0.113856
H	-0.6708537924	 1.8700590693	-0.924720324	 0.114346
H	-0.5792721323	 1.9545366363	 0.8420827915	 0.133954
H	-1.0782088863	-0.4020764906	 0.052214076	 0.11548
H	 0.4109368297	-0.3990470387	-0.8846300845	 0.107563
H	 1.7340334324	-0.0914370599	 1.1946666797	 0.128544
H	-0.8395409522	 0.5595462003	 4.4455583536	 0.196692
H	 0.6758870213	-5.1225743133	 1.8987573823	 0.150823
H	 0.5800125357	-5.0334454385	 0.135462177	 0.147605
H	 2.1511465909	-4.9383105719	 0.9414077403	 0.147789
18.1544	82.2836	91.3129	123.3062	167.2931	240.7722	263.6059	277.145	338.7455	378.7383	464.9561	532.8856	547.6125	626.2406	639.3376	753.3725	812.1894	878.6204	950.2979	1046.8699	1053.4601	1053.5711	1101.2613	1107.8334	1178.2338	1263.6578	1293.7288	1337.4149	1362.7579	1411.729	1414.6852	1478.4319	1478.5993	1486.2892	1496.6473	1507.0961	2237.2646	2376.5026	2983.9191	3027.0287	3034.887	3048.0952	3085.2819	3087.5924	3088.7063	3105.0612	3118.8973	3504.6136
CCC(C#C)C#CC	CC[C@@H](C#C)C#CC	
InChI=1S/C8H10/c1-4-7-8(5-2)6-3/h2,8H,6H2,1,3H3	InChI=1S/C8H10/c1-4-7-8(5-2)6-3/h2,8H,6H2,1,3H3/t8-/m1/s1
