19
gdb 104286	2.10758	1.35781	1.09271	1.9094	71.84	-0.2493	-0.0371	0.2122	1205.7124	0.155815	-460.149076	-460.139284	-460.13834	-460.184147	35.045	
C	 0.2406890267	 1.5453954527	 0.2567053411	-0.393648
C	 0.065449165	 0.037090206	 0.0575314659	-0.249132
C	 0.7112814395	-0.4792156742	-1.2274090205	 0.329601
O	 0.242135399	 0.1859537231	-2.372604078	-0.465826
C	 2.252964544	-0.5701867688	-1.2176418894	-0.097145
O	 2.2190163311	-2.0091877852	-1.0968510389	-0.291071
C	 0.8073143839	-2.046418057	-1.3517766589	-0.004389
C	 0.0491755249	-2.8994929378	-0.3666935415	 0.116185
O	-1.1507942484	-3.018861564	-0.38729647	-0.253275
H	 1.2985937685	 1.8170864318	 0.3366672871	 0.121885
H	-0.1796492518	 2.1051412454	-0.5828071621	 0.125682
H	-0.2573820386	 1.8748902234	 1.1726217885	 0.120313
H	 0.4948642296	-0.5075725929	 0.9077922282	 0.109899
H	-1.000532596	-0.2264826964	 0.043014086	 0.11663
H	-0.7207401651	 0.216865938	-2.3347049954	 0.28774
H	 2.6942167388	-0.2451450683	-2.1665232619	 0.116842
H	 2.7795287109	-0.1022698523	-0.3792056299	 0.108861
H	 0.5687492187	-2.3652622146	-2.3759610993	 0.10815
H	 0.6880950592	-3.3921949289	 0.400190579	 0.092697
65.4298	82.3712	128.3491	156.3996	193.3201	208.9515	280.0567	314.6854	353.366	399.8832	460.0769	479.988	543.9622	676.9433	787.71	806.405	895.1222	951.5351	984.1145	1003.8641	1013.2438	1044.4294	1058.5491	1104.6258	1119.417	1149.076	1160.8021	1190.3956	1254.2675	1293.6693	1320.5258	1332.0675	1370.9108	1394.1045	1412.6644	1414.7129	1483.5307	1497.0632	1507.2697	1514.5727	1817.13	2887.6073	3014.8543	3020.7175	3031.8433	3043.1497	3055.8677	3085.0128	3108.9248	3123.8361	3797.6164
CCC1(O)COC1C=O	CC[C@@]1(O)CO[C@H]1C=O	
InChI=1S/C6H10O3/c1-2-6(8)4-9-5(6)3-7/h3,5,8H,2,4H2,1H3	InChI=1S/C6H10O3/c1-2-6(8)4-9-5(6)3-7/h3,5,8H,2,4H2,1H3/t5-,6+/m0/s1
