21
gdb 64759	2.93627	1.14772	1.05158	0.7289	89.41	-0.2375	0.0245	0.2619	1262.1523	0.181421	-349.94009	-349.930777	-349.929833	-349.974063	35.923	
C	 0.0221117283	 1.5696117746	-0.0308999971	-0.438654
C	 0.0155679098	 0.0344544768	 0.005338208	 0.260635
C	-1.4568468041	-0.4866638519	 0.0340368422	-0.389208
C	-2.2057094329	-0.1009898715	 1.2241834434	 0.310539
C	-2.8103106263	 0.2258037203	 2.2111310315	-0.452719
C	 0.7737986028	-0.5887942636	-1.2074834567	-0.257816
C	 1.5957708872	-1.7788308419	-0.6503658391	-0.258856
C	 1.6333552284	-1.4971505063	 0.8326546368	-0.079128
C	 0.7921773666	-0.5272960242	 1.1825185321	-0.079609
H	 1.0475989818	 1.9508486953	-0.0103383998	 0.113029
H	-0.459321797	 1.9416774215	-0.9428768533	 0.108838
H	-0.5162701781	 1.9867305386	 0.8253705421	 0.127821
H	-1.9790485415	-0.115104579	-0.8580099704	 0.123942
H	-1.4453353974	-1.5808149796	-0.0444996481	 0.12754
H	-3.352992822	 0.5073587894	 3.0791090543	 0.192551
H	 0.0944454737	-0.8816026796	-2.0138020362	 0.092704
H	 1.4546684218	 0.1610404061	-1.6221096845	 0.099376
H	 1.1166156328	-2.7474633791	-0.8510275466	 0.105198
H	 2.5940638583	-1.8391812117	-1.0987674479	 0.103494
H	 2.2583048149	-2.0593220758	 1.518500954	 0.091332
H	 0.6168629731	-0.1771750881	 2.1936399354	 0.09899
65.1981	95.3198	139.7378	237.0536	253.3259	304.0831	341.2175	356.0741	370.5354	441.0609	526.3755	613.6335	628.3255	637.2745	716.7477	767.7713	798.623	844.6642	888.6914	915.1856	927.8845	958.9864	974.2452	977.8362	1004.4285	1027.8193	1108.5178	1121.7735	1148.9185	1196.5183	1212.9337	1242.7098	1277.3533	1312.3815	1322.7835	1331.8464	1383.5027	1408.4973	1464.0445	1481.9512	1494.7548	1497.634	1503.4562	1688.3801	2232.7138	3008.0906	3012.2769	3027.8372	3044.8532	3051.3179	3055.3779	3090.5093	3095.7972	3112.3519	3180.3511	3207.0308	3505.9397
CC1(CC#C)CCC=C1	C[C@@]1(CC#C)CCC=C1	
InChI=1S/C9H12/c1-3-6-9(2)7-4-5-8-9/h1,4,7H,5-6,8H2,2H3	InChI=1S/C9H12/c1-3-6-9(2)7-4-5-8-9/h1,4,7H,5-6,8H2,2H3/t9-/m0/s1
