17
gdb 81838	2.48842	1.62983	1.25867	4.3137	68.9	-0.2494	-0.0387	0.2107	1037.8423	0.133448	-458.93373	-458.925148	-458.924204	-458.966821	31.947	
C	-0.2252763393	 1.400288463	 0.2798791054	-0.503333
C	 0.141208805	-0.030605736	 0.0576748831	 0.411111
O	-0.6280776295	-1.0538889782	 0.6826169741	-0.270736
C	 0.791748348	-1.0460338639	 0.9082856479	-0.091524
C	 1.4576230525	-1.7268477397	-0.2991831497	 0.133669
O	 1.2590560238	-3.0824318666	-0.5171510992	-0.428796
C	 0.7337920269	-0.6705819186	-1.2412055573	-0.259854
C	-0.298766061	-1.1769843887	-2.2024439537	 0.162813
O	-0.8669646127	-2.2397580739	-2.0872380557	-0.261122
H	 0.5917324001	 2.0623919312	-0.0235276883	 0.129557
H	-1.1149528952	 1.6726349144	-0.2983626331	 0.137745
H	-0.4434082833	 1.5714854983	 1.3372342624	 0.144004
H	 1.120418469	-0.9975888309	 1.9406832741	 0.109511
H	 2.536836661	-1.5416123732	-0.2976398412	 0.097892
H	 0.3306200201	-3.189473633	-0.7759493551	 0.304252
H	 1.4323309703	 0.0029893845	-1.7457704115	 0.092545
H	-0.5537837258	-0.4970287287	-3.0447504222	 0.092267
97.8347	131.8379	191.2833	197.5669	236.0948	247.0211	336.5482	408.6843	461.65	521.5474	561.0849	654.639	702.8126	767.348	825.2021	846.6863	876.1304	940.7321	989.7281	1004.3745	1044.2479	1049.6395	1110.1598	1146.8904	1161.5662	1181.4649	1238.8329	1272.1832	1320.3307	1346.746	1406.1063	1425.368	1456.8957	1470.4809	1483.0348	1494.4666	1794.5209	2887.2342	3037.4057	3059.9355	3078.6662	3101.3651	3124.1935	3181.45	3704.7554
CC12OC1C(O)C2C=O	C[C@]12O[C@H]1[C@@H](O)[C@H]2C=O	
InChI=1S/C6H8O3/c1-6-3(2-7)4(8)5(6)9-6/h2-5,8H,1H3	InChI=1S/C6H8O3/c1-6-3(2-7)4(8)5(6)9-6/h2-5,8H,1H3/t3-,4+,5+,6-/m1/s1
