18
gdb 106510	3.33235	1.43965	1.24266	2.4249	71.14	-0.2506	0.0069	0.2576	1033.2645	0.149798	-439.07797	-439.07063	-439.069686	-439.109627	29.463	
O	 0.0298197364	 1.4026382148	-0.1288897827	-0.42327
C	 0.03985549	 0.0042905553	 0.0725143501	-0.142658
C	-1.3611917136	-0.5636883964	-0.0122515107	 0.303218
C	-2.1230660421	-0.6551886385	-1.3724054368	-0.267547
C	-2.9090156849	-1.8015938036	-0.6934434326	 0.104224
C	-1.6378029027	-2.0905442264	 0.1410085796	-0.289106
O	-3.921426075	-1.2373009988	 0.1736010073	-0.235572
C	-3.4300039729	-0.2399758923	 0.9409128165	 0.105454
N	-2.2279471118	 0.1650181369	 0.935273234	-0.308075
H	-0.6551537712	 1.737144883	 0.4660369961	 0.291227
H	 0.6748135921	-0.4320684378	-0.7063842187	 0.096974
H	 0.4743557946	-0.2621402082	 1.0509518286	 0.086412
H	-2.6777216982	 0.2223215603	-1.7075144419	 0.116106
H	-1.4862399629	-1.0372351799	-2.1731008768	 0.110368
H	-3.4046126588	-2.5799804131	-1.2708865821	 0.092649
H	-0.9272121671	-2.6965211673	-0.4256139368	 0.111005
H	-1.765612917	-2.4890491002	 1.1492969409	 0.112901
H	-4.193853575	 0.1921792223	 1.5821001459	 0.135689
106.9685	165.9468	277.2642	335.9645	398.8925	414.7531	451.9024	487.846	510.528	617.0884	694.297	766.3383	842.3446	849.8589	869.1951	930.6739	936.9293	955.4921	983.323	992.6488	1044.9574	1076.219	1091.5007	1112.1316	1173.6227	1179.4437	1181.2916	1235.2266	1251.9481	1275.6771	1313.1692	1350.9352	1376.7808	1390.3119	1445.4331	1464.1595	1491.474	1501.1791	1698.1734	2962.9262	3066.4868	3067.762	3076.1455	3132.1141	3133.432	3140.5808	3178.4552	3754.0851
OCC12CC(C1)OC=N2	OC[C@@]12C[C@@H](C1)O[CH][N]2	
InChI=1S/C6H9NO2/c8-3-6-1-5(2-6)9-4-7-6/h4-5,8H,1-3H2	InChI=1S/C6H9NO2/c8-3-6-1-5(2-6)9-4-7-6/h4-5,8H,1-3H2/t5-,6+
