17
gdb 42859	2.46203	1.7926	1.55333	2.712	78.61	-0.2092	-0.0475	0.1617	943.4691	0.138274	-384.701605	-384.69455	-384.693605	-384.73294	28.209	
O	 0.0017927213	 0.0287705001	 0.0537208299	-0.309421
C	-0.0148513198	 1.2231654483	 0.007829602	 0.426098
C	-1.135560308	 2.2778326984	 0.0819887083	-0.17857
C	-0.0330656261	 3.2208585171	 0.6766820236	-0.249577
C	 1.0786572197	 2.3075881575	 0.0534094844	-0.178571
C	 1.4957915814	 2.7376778973	-1.3376451135	-0.088509
C	 0.6637700628	 3.0505406348	-2.3418789318	-0.072077
C	-0.8027222655	 3.030819765	-2.322955844	-0.072076
C	-1.599849006	 2.696060753	-1.2976976312	-0.08851
H	-1.9802789849	 2.0230616987	 0.7236076175	 0.090725
H	-0.0513516742	 4.2562039416	 0.3378147386	 0.118698
H	-0.0183824666	 3.1752592958	 1.7669084794	 0.116415
H	 1.9461881252	 2.0758228771	 0.6729318488	 0.090726
H	 2.5651618123	 2.7989366723	-1.5142488474	 0.102912
H	 1.1102675472	 3.354680609	-3.2846167153	 0.094413
H	-1.2814072746	 3.3225070209	-3.2537592284	 0.094413
H	-2.6746790941	 2.728477423	-1.4466393909	 0.102912
125.1029	147.2478	270.352	337.0003	414.2294	431.3583	485.1345	608.2148	655.4476	684.8144	770.5751	790.2494	801.6341	835.0337	850.737	919.7734	936.001	945.1459	991.1139	997.5227	1040.2761	1049.9481	1079.2064	1113.9378	1149.1779	1219.0428	1220.8788	1249.2711	1258.0358	1300.3557	1333.1533	1400.2201	1438.9051	1477.4628	1662.2179	1697.5487	1893.0129	3080.2119	3101.8435	3103.689	3150.2882	3152.266	3163.0567	3178.9982	3185.5314
O=C1C2CC1C=CC=C2	O=C1[C@H]2C[C@@H]1C=CC=C2	
InChI=1S/C8H8O/c9-8-6-3-1-2-4-7(8)5-6/h1-4,6-7H,5H2	InChI=1S/C8H8O/c9-8-6-3-1-2-4-7(8)5-6/h1-4,6-7H,5H2/t6-,7+
