21
gdb 115939	3.47636	1.07259	0.90437	1.7923	77.85	-0.257	0.0746	0.3316	1317.1692	0.184042	-424.222668	-424.214109	-424.213164	-424.255891	33.056	
O	 0.0542409916	 1.4086962339	-0.0724244308	-0.424813
C	 0.0449842508	-0.0114535829	-0.0471815712	-0.096425
C	-1.4052535251	-0.483901299	-0.0035743244	 0.042503
C	-2.18481003	-0.0748665211	-1.2619779584	-0.203237
C	-3.6764477243	-0.4009152727	-1.114466239	-0.253065
C	-3.903910476	-1.8390588626	-0.7068343625	 0.072227
O	-3.16182397	-2.8253688454	-1.4313654642	-0.257994
C	-2.8346335218	-2.6109561383	-0.0503049158	 0.034131
C	-1.4700201348	-2.0054783007	 0.231100835	-0.245188
H	 0.9637911949	 1.7037966194	-0.1706181061	 0.287063
H	 0.5380931031	-0.4297002134	-0.9406676316	 0.085854
H	 0.5853644015	-0.3942068762	 0.8343761865	 0.081089
H	-1.8743169494	 0.0167019607	 0.8557780146	 0.077878
H	-2.0487093773	 0.994183315	-1.4422350224	 0.112282
H	-1.7815021639	-0.6095891174	-2.1303135315	 0.104955
H	-4.130949031	 0.2462762599	-0.3518479318	 0.101359
H	-4.210306393	-0.2006258424	-2.0514162762	 0.103622
H	-4.9398595491	-2.1206839182	-0.5100318873	 0.082174
H	-3.1221136702	-3.4440447269	 0.5920989887	 0.086616
H	-0.7410464736	-2.517209552	-0.4121706385	 0.110592
H	-1.1843200624	-2.2338286896	 1.2645592569	 0.098376
82.0553	132.1011	187.2561	230.1883	256.2872	326.5063	340.8541	391.1336	435.8414	497.2341	551.1429	669.5133	778.4795	800.1709	818.8073	884.1227	906.8004	941.7309	961.0059	1010.7173	1044.5786	1059.2013	1069.423	1087.6174	1095.5794	1141.1784	1173.0486	1195.2725	1224.238	1248.3721	1272.4694	1293.0214	1296.5358	1320.8828	1344.0329	1373.7886	1375.6525	1390.8502	1406.5489	1456.5537	1464.6843	1476.3814	1486.7012	1496.7685	1519.4213	2954.8415	2981.1687	3005.8536	3016.802	3017.6307	3040.2035	3058.4446	3061.0043	3089.4427	3103.5236	3105.7627	3835.7163
OCC1CCC2OC2C1	OC[C@H]1CC[C@H]2O[C@H]2C1	
InChI=1S/C7H12O2/c8-4-5-1-2-6-7(3-5)9-6/h5-8H,1-4H2	InChI=1S/C7H12O2/c8-4-5-1-2-6-7(3-5)9-6/h5-8H,1-4H2/t5-,6+,7-/m0/s1
