19
gdb 61178	3.27126	0.88477	0.80713	4.0013	82.4	-0.2356	0.0124	0.2481	1463.1358	0.156308	-382.028568	-382.018185	-382.017241	-382.064071	37.181	
C	-0.0896807104	 1.5784199649	 0.2042512159	-0.404633
C	 0.0102720166	 0.0551315114	-0.0502756978	-0.10822
C	-1.3369185325	-0.5437784051	-0.0002029977	 0.290482
N	-2.4030732727	-0.9855373544	 0.0519547647	-0.325363
N	 0.682947991	-0.3707605093	-1.2777691325	-0.057196
C	 0.0710326923	 0.0993437694	-2.5149578281	-0.349522
C	 2.1292399381	-0.1567658831	-1.2307580151	-0.32571
C	 2.8398461447	-0.9398027881	-2.2396557502	 0.303234
C	 3.4416040124	-1.5671503073	-3.0685608056	-0.41227
H	 0.9083608715	 2.0245148043	 0.2202458875	 0.129779
H	-0.6827731867	 2.0723342716	-0.5685532876	 0.142757
H	-0.5646057603	 1.7680613647	 1.1703858849	 0.141272
H	 0.5716849762	-0.3895124395	 0.7816999726	 0.129429
H	 0.1861373126	 1.1844168775	-2.6819763232	 0.099872
H	 0.5348993546	-0.4216639361	-3.3554971121	 0.14545
H	-0.9949886642	-0.141516605	-2.5101885984	 0.146839
H	 2.4078580971	 0.907354817	-1.3548585017	 0.117123
H	 2.4855785371	-0.4551589806	-0.2366859117	 0.134362
H	 3.9711062226	-2.1319204022	-3.7956556041	 0.202315
59.906	79.2013	123.0924	185.5522	206.1451	227.4048	246.9186	259.2593	339.1204	353.8439	378.6249	428.3327	469.1086	575.003	616.8672	648.9572	671.0298	792.8859	851.3829	953.3298	970.9853	998.4341	1055.8213	1076.3599	1120.079	1156.0034	1199.2045	1228.1595	1316.2815	1326.7385	1366.0266	1400.4936	1410.6069	1461.1681	1479.4711	1487.6256	1491.7675	1499.6119	1517.3922	2243.2173	2361.2997	2917.0021	2957.5186	3027.1838	3038.4569	3052.0901	3087.3232	3125.6262	3131.7715	3136.8092	3504.831
CC(C#N)N(C)CC#C	C[C@@H](C#N)N(C)CC#C	
InChI=1S/C7H10N2/c1-4-5-9(3)7(2)6-8/h1,7H,5H2,2-3H3	InChI=1S/C7H10N2/c1-4-5-9(3)7(2)6-8/h1,7H,5H2,2-3H3/t7-/m0/s1
