19
gdb 89940	2.62794	1.39856	1.10212	3.7215	81.54	-0.2273	0.0179	0.2452	1160.6362	0.159794	-382.046619	-382.038152	-382.037208	-382.079747	31.935	
C	-0.0895460525	 1.5169243477	 0.1770027749	-0.328963
N	 0.0028553138	 0.073945804	 0.1683788552	-0.077698
C	-1.2138343467	-0.7019456651	 0.4729623494	-0.221289
C	-0.3736727632	-1.6661774549	 1.3463204381	 0.178106
C	 0.5517949232	-2.6588344513	 0.5589447841	-0.281725
C	 1.745154081	-1.6639122075	 0.6869365253	-0.209956
C	 0.7800651388	-0.5941820507	 1.2345000057	-0.027118
C	-0.9323927964	-2.1270782459	 2.5900442894	 0.193171
N	-1.3754082418	-2.4973833298	 3.5931548387	-0.348058
H	 0.9031621734	 1.9524442052	 0.0241290266	 0.126523
H	-0.7292620687	 1.8489244347	-0.6474232309	 0.127251
H	-0.5054526889	 1.9258709303	 1.1168537331	 0.09876
H	-1.944825648	-0.1490201747	 1.0821381579	 0.107964
H	-1.722943167	-1.1330482953	-0.3966724762	 0.112078
H	 0.695184052	-3.6202373876	 1.0531162828	 0.127469
H	 0.2031805804	-2.833548154	-0.4607359424	 0.119713
H	 2.4721732296	-1.9898522868	 1.4358874711	 0.111111
H	 2.2651714603	-1.3926326034	-0.2332934069	 0.111327
H	 1.0844636109	 0.041472115	 2.0717712442	 0.081332
76.2427	144.3929	187.6191	198.9629	243.5289	296.1713	344.0762	397.7878	500.516	550.3769	567.1766	656.0335	715.7239	796.0133	876.3632	913.9373	932.6034	952.8579	984.4945	1008.9668	1053.5095	1083.6827	1106.0959	1158.3351	1160.9791	1175.6632	1213.6847	1234.2115	1236.5703	1267.4317	1277.408	1284.433	1332.8826	1353.5244	1454.0231	1465.6036	1483.0173	1487.2547	1500.1853	1513.9942	2344.6412	2931.9212	2986.4302	3055.9525	3057.4893	3060.4038	3068.9867	3080.6415	3102.2796	3123.7391	3142.7122
CN1CC2(CCC12)C#N	CN1C[C@]2(CC[C@@H]12)C#N	
InChI=1S/C7H10N2/c1-9-5-7(4-8)3-2-6(7)9/h6H,2-3,5H2,1H3	InChI=1S/C7H10N2/c1-9-5-7(4-8)3-2-6(7)9/h6H,2-3,5H2,1H3/t6-,7+/m1/s1
