25
gdb 104198	2.32452	1.23639	1.20873	1.324	88.32	-0.2491	0.0704	0.3196	1278.4962	0.226542	-389.494868	-389.484165	-389.483221	-389.529381	41.589	
C	 0.294048024	 1.5970641986	 0.2284203589	-0.418018
C	 0.3360562225	 0.0653866859	 0.1597478973	-0.209938
C	 0.5781447281	-0.4839865113	-1.2535489205	 0.382677
O	-0.4247107326	-0.0277494556	-2.1466134952	-0.485993
C	 2.0587276288	-0.3300133906	-1.7206507964	-0.292264
C	 2.3000224285	-1.8130720932	-1.339787865	-0.255703
C	 0.7574680511	-2.0499127945	-1.3301229415	 0.287372
C	 0.2013765734	-2.9021545631	-0.1906344435	-0.457846
C	 0.2762964157	-2.6069030555	-2.6756087681	-0.419848
H	 1.2121756276	 2.0495172996	-0.1624763285	 0.118813
H	-0.5527521623	 2.0021365837	-0.3365852737	 0.113056
H	 0.1756426353	 1.9354007164	 1.2619042231	 0.119224
H	 1.1237120015	-0.3015859873	 0.8279692928	 0.095948
H	-0.611233356	-0.3371322875	 0.5360950389	 0.102599
H	-0.3718879245	 0.9321409748	-2.1928920764	 0.275478
H	 2.1109533457	-0.1637205605	-2.7991896275	 0.103602
H	 2.670084447	 0.4242379828	-1.2178579973	 0.088337
H	 2.8785506389	-2.4184648421	-2.0422426915	 0.093748
H	 2.7436363105	-1.9205605645	-0.3455178051	 0.093438
H	 0.5478670819	-2.5676314196	 0.7912419627	 0.106834
H	-0.8946841039	-2.8945230308	-0.1830381077	 0.11617
H	 0.5197175548	-3.9439622958	-0.3123648153	 0.108832
H	 0.5936448813	-3.6510277693	-2.7771462261	 0.099481
H	-0.8139965879	-2.5688667371	-2.7500762752	 0.120852
H	 0.6794342706	-2.0450411738	-3.5216379591	 0.113148
101.8214	129.9925	180.3233	205.7141	218.7693	235.3772	258.7854	285.2145	316.6268	329.8809	350.7031	369.5454	414.4438	461.3855	528.6029	602.8842	691.4581	750.713	791.6351	866.8835	886.967	924.0329	944.4461	957.3614	968.2918	992.9347	1010.3831	1027.3065	1044.565	1092.9519	1177.909	1184.5747	1211.6885	1218.4182	1238.4647	1243.4057	1273.079	1296.3993	1319.7053	1329.4601	1380.7061	1400.4674	1408.0155	1419.8844	1474.1563	1476.1125	1484.9701	1489.0577	1499.5609	1500.2914	1503.505	1509.3046	1512.6136	3024.5529	3029.8662	3032.7873	3034.5998	3050.4382	3060.2897	3068.6906	3085.062	3096.3847	3097.3854	3103.542	3104.7016	3105.454	3116.4078	3122.5441	3816.1615
CCC1(O)CCC1(C)C	CC[C@@]1(O)CCC1(C)C	
InChI=1S/C8H16O/c1-4-8(9)6-5-7(8,2)3/h9H,4-6H2,1-3H3	InChI=1S/C8H16O/c1-4-8(9)6-5-7(8,2)3/h9H,4-6H2,1-3H3/t8-/m1/s1
