19
gdb 103508	3.14506	1.36494	1.23601	2.3813	75.07	-0.2492	-0.0095	0.2397	1080.1396	0.160089	-419.187013	-419.178731	-419.177786	-419.219484	32.239	
C	-0.1317936751	 1.605114408	 0.009341169	-0.419099
C	-0.0156030341	 0.079168366	 0.0540729949	 0.241041
C	-1.4147572901	-0.5729709119	-0.0193292793	-0.07129
O	-2.0742319768	-0.2644533414	-1.2268187255	-0.425464
N	 0.7413626123	-0.4181097609	-1.127312688	-0.244869
C	 1.6695682064	-1.175497668	-0.7014272824	 0.022367
N	 1.7933253003	-1.4076380873	 0.7006769642	-0.124655
C	 2.2023104945	-0.1562112552	 1.4008250706	-0.259287
C	 0.7662278942	-0.4843271328	 1.2478648262	-0.0701
H	 0.8499626804	 2.0766756478	-0.0790424441	 0.112715
H	-0.7420161226	 1.9038912131	-0.8451729899	 0.140737
H	-0.6120252241	 1.974885828	 0.9212234536	 0.115397
H	-1.3035945258	-1.6612420302	 0.1154811007	 0.091082
H	-2.0439442134	-0.1966144609	 0.795635487	 0.104342
H	-1.4392074137	-0.4536140456	-1.9299396464	 0.293386
H	 2.3695977088	-1.6845769787	-1.3586026378	 0.129462
H	 2.6923442698	-0.3187816989	 2.3554536185	 0.130177
H	 2.6280345883	 0.6344077388	 0.7898435864	 0.131155
H	 0.2146401407	-0.8523827197	 2.1081716923	 0.102904
120.1862	166.5528	183.6011	213.5814	283.8965	338.5322	380.2339	408.1819	458.6538	482.4427	613.0521	673.5662	735.2497	799.7504	832.3655	860.0417	913.5664	936.4401	957.0728	975.3746	1026.026	1044.2453	1080.3028	1083.819	1112.7615	1149.8652	1162.9634	1188.5804	1221.3763	1255.8397	1263.8319	1321.8503	1372.2063	1381.852	1409.0285	1436.6386	1485.2535	1493.0805	1503.6394	1507.1562	1671.5492	2971.7564	3045.471	3061.6261	3114.8929	3119.689	3139.8331	3152.0488	3180.9642	3211.3185	3769.1432
CC1(CO)N=CN2CC12	C[C@@]1(CO)N=CN2C[C@@H]12	
InChI=1S/C6H10N2O/c1-6(3-9)5-2-8(5)4-7-6/h4-5,9H,2-3H2,1H3	InChI=1S/C6H10N2O/c1-6(3-9)5-2-8(5)4-7-6/h4-5,9H,2-3H2,1H3/t5-,6-,8?/m0/s1
