18
gdb 127666	3.13676	1.34414	1.02261	3.2867	78.98	-0.2362	0.0152	0.2514	1179.8096	0.149894	-398.148783	-398.14045	-398.139506	-398.183089	29.908	
C	-0.2435026309	 1.4225510651	-0.0211201492	-0.333334
N	-0.0270756139	-0.0093655156	 0.0292494074	-0.030855
N	-0.034705172	-0.7431948158	-1.1193880733	-0.257607
C	 0.1912178378	-1.9645826248	-0.6697937322	 0.021328
N	 0.3428622025	-2.0706793473	 0.6753089249	-0.338728
C	 0.1997888611	-0.818045627	 1.0909653834	 0.402185
C	 0.2730372502	-0.359773497	 2.4859738754	-0.139024
C	-0.2412741439	-1.2758134204	 3.5827717495	-0.252651
C	 1.2320747933	-1.0584979215	 3.4339575996	-0.252664
H	 0.62155776	 1.9651120304	 0.3716176231	 0.144152
H	-0.3882186026	 1.6877176126	-1.0674159236	 0.167747
H	-1.1333695922	 1.7060879442	 0.5486938751	 0.144149
H	 0.2486124973	-2.8106366559	-1.3386861626	 0.12087
H	 0.1306113103	 0.7048495825	 2.6313454755	 0.087339
H	-0.756628825	-0.8138772445	 4.4173293313	 0.115161
H	-0.6427326179	-2.227540871	 3.2558742983	 0.143375
H	 1.8165948521	-1.8648118352	 3.0073157601	 0.143393
H	 1.7469843339	-0.444794659	 4.1644981875	 0.115165
45.0307	50.2817	165.8454	172.1457	213.6906	291.5682	408.1618	484.6201	628.6882	676.7987	744.8417	754.9641	802.5337	823.4326	905.0475	911.3553	920.9265	995.4862	1021.1051	1068.0267	1092.9614	1093.8111	1122.7307	1151.8619	1159.2255	1207.315	1219.6808	1232.9175	1307.5767	1313.4023	1382.7911	1416.1013	1456.9271	1457.1406	1488.2286	1489.637	1505.0815	1539.6166	1565.7324	3045.075	3106.4941	3140.6377	3143.0786	3168.855	3175.2732	3229.6056	3243.6141	3255.9523
CN1N=CN=C1C1CC1	Cn1ncnc1C1CC1	
InChI=1S/C6H9N3/c1-9-6(5-2-3-5)7-4-8-9/h4-5H,2-3H2,1H3	InChI=1S/C6H9N3/c1-9-6(5-2-3-5)7-4-8-9/h4-5H,2-3H2,1H3
