19
gdb 100378	2.28919	1.09129	0.91055	3.0953	78.33	-0.2466	-0.0254	0.2213	1358.0445	0.154107	-422.999933	-422.989228	-422.988283	-423.035843	38.34	
C	-0.0990454064	 1.6717417921	 0.0379899535	-0.395332
C	 0.0353383795	 0.151152234	-0.0381829939	-0.180747
C	 0.7618462276	-0.4777928505	 1.1703246812	 0.121837
O	-0.0282015861	-0.1586286986	 2.3236824602	-0.44989
C	 0.8545806462	-2.0204028544	 1.0109849028	-0.297134
C	-0.5010319526	-2.6937696088	 0.9209016946	 0.145773
O	-0.7665359724	-3.5698252202	 0.1374775518	-0.24673
C	 2.1192203456	 0.0642411128	 1.3198440011	 0.312441
C	 3.2382782154	 0.474379332	 1.478973237	-0.456068
H	 0.8825053591	 2.1546586737	 0.047151387	 0.127001
H	-0.6540582427	 2.0488238031	-0.8257198325	 0.113825
H	-0.6314709332	 1.9655087222	 0.9454467575	 0.134924
H	-0.9592087681	-0.3077723295	-0.090598794	 0.115132
H	 0.5699536466	-0.1451632054	-0.9469428819	 0.111934
H	 0.5312108839	-0.2506759702	 3.1023367828	 0.288213
H	 1.450922006	-2.2943064317	 0.1369800784	 0.131085
H	 1.3615772854	-2.421315883	 1.8997153008	 0.121317
H	-1.245554486	-2.330895879	 1.6599794259	 0.098088
H	 4.2236430224	 0.8493772913	 1.6106658777	 0.204332
61.4711	93.9825	108.0372	142.5896	162.5439	224.3582	227.3065	278.1257	282.1687	355.8234	403.3891	447.374	461.5883	571.0785	612.2167	638.544	673.1492	694.6053	787.9414	827.4583	924.873	970.0525	1000.1885	1045.8051	1066.3367	1108.6153	1140.6388	1164.9503	1223.5419	1290.4304	1315.0785	1369.3596	1381.4198	1411.103	1418.0014	1449.8135	1470.4676	1494.8066	1510.1363	1827.1228	2228.71	2918.9615	3023.0975	3037.6203	3048.5494	3080.5687	3109.7538	3115.7064	3132.8012	3497.9523	3815.1546
CCC(O)(CC=O)C#C	CC[C@@](O)(CC=O)C#C	
InChI=1S/C7H10O2/c1-3-7(9,4-2)5-6-8/h1,6,9H,4-5H2,2H3	InChI=1S/C7H10O2/c1-3-7(9,4-2)5-6-8/h1,6,9H,4-5H2,2H3/t7-/m1/s1
