18
gdb 12809	3.50136	2.00705	1.56487	1.2552	72.5	-0.2236	0.0213	0.2449	864.6115	0.155162	-347.80439	-347.797274	-347.79633	-347.835113	28.913	
O	-0.0799139732	 1.3862651665	 0.2072866835	-0.475341
C	 0.0125977933	-0.0005252119	 0.0127541448	 0.37559
C	-0.4961840317	-0.5654462773	-1.3065191751	-0.350577
C	-1.2947168006	-0.7434067791	-0.0338166143	-0.05682
C	-1.3886639114	-2.0661903721	 0.7032559891	-0.220649
C	-0.063894138	-2.8565488393	 0.7186434479	-0.27361
C	 1.1227280604	-1.9755358478	 1.0161427922	-0.072264
C	 1.1442520417	-0.6806979482	 0.6950550623	-0.1105
H	 0.6040953161	 1.8051312842	-0.3267668766	 0.279311
H	-0.8760231506	 0.1537010394	-2.0246128454	 0.109774
H	 0.0276855836	-1.4121037273	-1.7371088645	 0.113612
H	-2.1682354002	-0.1039506832	 0.0478525306	 0.096668
H	-1.6808557698	-1.8523706754	 1.7390249861	 0.106729
H	-2.1830313423	-2.6875660358	 0.2743774767	 0.097964
H	-0.1303758315	-3.6644403438	 1.455766598	 0.102005
H	 0.0804752215	-3.3582020241	-0.248905018	 0.111699
H	 1.9863537765	-2.430253983	 1.4931489276	 0.086372
H	 2.008614416	-0.0617482718	 0.923091675	 0.080036
165.911	218.893	282.3359	314.7777	366.1088	392.6716	458.1645	505.3547	571.9793	675.1546	719.0726	729.7461	789.9928	878.0352	909.9772	918.3314	940.7363	958.7536	982.2991	998.7435	1043.0682	1073.2978	1103.8141	1118.2715	1182.1772	1212.4114	1224.0239	1268.5182	1270.9567	1333.166	1357.5898	1373.6172	1409.4486	1423.0784	1477.1627	1483.6163	1498.09	1707.9718	3003.1144	3024.4854	3056.7191	3064.4941	3127.7634	3149.0557	3159.51	3173.3135	3219.1778	3793.3988
OC12CC1CCC=C2	O[C@]12C[C@H]1CCC=C2	
InChI=1S/C7H10O/c8-7-4-2-1-3-6(7)5-7/h2,4,6,8H,1,3,5H2	InChI=1S/C7H10O/c8-7-4-2-1-3-6(7)5-7/h2,4,6,8H,1,3,5H2/t6-,7-/m1/s1
