18
gdb 114926	2.99949	1.07859	0.86487	5.2549	79.36	-0.2438	-0.0455	0.1983	1348.3698	0.14881	-398.157839	-398.149067	-398.148123	-398.191728	32.078	
C	 0.0145291402	 1.5544670212	 0.0856640941	-0.395732
C	-0.038166911	 0.0239274506	 0.087053975	-0.182426
C	-1.4491453233	-0.5580075818	-0.0743140009	 0.0138
C	-1.4806095794	-2.1154764005	-0.0236766801	-0.192096
N	-1.9346418634	-2.4849254984	 1.3289266892	-0.290899
C	-2.3716757812	-1.3978346517	 1.8427761877	 0.28576
N	-2.3414675612	-0.2516203752	 1.0627328052	-0.353745
C	-2.929004344	-1.3242823443	 3.1676003021	 0.255991
N	-3.3693868844	-1.2197784538	 4.2307691436	-0.316926
H	 1.0460541191	 1.9097977334	 0.1614307183	 0.12843
H	-0.4143641761	 1.9655827437	-0.8347293151	 0.123951
H	-0.5337813074	 1.9875708248	 0.9301303861	 0.113022
H	 0.5711330302	-0.3612272792	-0.7401849833	 0.109344
H	 0.4055460875	-0.3716914471	 1.0096574438	 0.112828
H	-1.8961681812	-0.1783514471	-0.9989850463	 0.089649
H	-2.1889561996	-2.5286924913	-0.7519959598	 0.125648
H	-0.5026707757	-2.5615409038	-0.2294440041	 0.120533
H	-2.2626831791	 0.6434162905	 1.5242585743	 0.252866
68.064	116.8021	150.9814	180.0698	229.1048	241.78	368.9789	399.6481	462.0964	529.0636	564.25	583.1781	715.2294	752.6664	810.0784	824.2672	942.6063	958.7611	985.8992	1003.9003	1024.4369	1066.4814	1123.6314	1143.1137	1224.3672	1240.734	1278.3095	1295.8497	1328.8504	1349.4577	1397.4374	1415.8626	1445.3509	1479.713	1487.3364	1500.942	1505.8605	1672.0383	2366.1051	3022.9143	3030.2334	3031.5441	3046.8942	3064.7474	3080.1788	3094.8755	3110.6352	3604.507
CCC1CN=C(N1)C#N	CC[C@H]1C[N][C](N1)C#N	
InChI=1S/C6H9N3/c1-2-5-4-8-6(3-7)9-5/h5H,2,4H2,1H3,(H,8,9)	InChI=1S/C6H9N3/c1-2-5-4-8-6(3-7)9-5/h5H,2,4H2,1H3,(H,8,9)/t5-/m0/s1
