21
gdb 64266	2.59761	1.57213	1.50639	1.7439	77.22	-0.2327	0.0658	0.2985	1023.1054	0.183462	-424.212664	-424.204553	-424.203609	-424.244512	33.428	
C	-0.5288485814	 1.4869058945	 0.073239491	-0.449676
C	 0.0485625031	 0.0692299359	 0.0062723716	 0.356019
O	-1.0196611233	-0.8818444332	-0.0435506809	-0.467633
C	 0.9885470806	-0.0631428119	-1.2248348357	-0.105007
O	 2.0257547628	-1.023901724	-1.0776709431	-0.276805
C	 2.4933180946	-1.1545578828	 0.260557111	 0.131707
C	 1.3716696745	-1.7444692576	 1.1489039541	-0.236736
C	 0.8599737923	-0.2797475644	 1.2678388467	-0.035277
C	 2.3406628103	 0.1648066668	 1.0672330159	-0.269029
H	 0.2489044563	 2.2320918714	 0.2657119718	 0.121276
H	-1.018938138	 1.7560781562	-0.8710705518	 0.106011
H	-1.2732843407	 1.5430152785	 0.8721325694	 0.125908
H	-1.5863350644	-0.6530450341	-0.7876533149	 0.275154
H	 0.4041152504	-0.3624740091	-2.1018956365	 0.094249
H	 1.4286987791	 0.9206488683	-1.4463738355	 0.086721
H	 3.4649899407	-1.648269107	 0.200778795	 0.071971
H	 0.7103896595	-2.478543063	 0.6906102837	 0.118875
H	 1.7559581596	-2.1133001115	 2.103649152	 0.090108
H	 0.3282750743	 0.0223357813	 2.1730655014	 0.061522
H	 2.9004830725	 0.1109710244	 2.0036264009	 0.103461
H	 2.560821277	 1.1146876912	 0.5735572438	 0.097181
142.0442	219.9555	255.7982	280.8521	311.61	347.6597	403.2536	420.8698	456.2762	476.842	497.8858	587.8513	728.1147	807.2441	841.7714	870.971	898.7662	905.1234	932.063	944.0513	977.0274	991.2109	1039.1777	1069.8122	1075.9188	1086.5771	1125.212	1136.5296	1176.3038	1189.8883	1236.0738	1241.5107	1264.8668	1275.9054	1286.2319	1332.59	1366.8289	1375.7258	1400.01	1425.4499	1469.772	1490.1902	1491.3664	1497.1116	1512.7492	2986.7416	3024.6017	3059.3754	3063.0955	3066.3737	3080.6449	3092.6461	3095.4515	3117.7348	3120.8936	3150.7371	3809.2455
CC1(O)COC2CC1C2	C[C@@]1(O)CO[C@@H]2C[C@H]1C2	
InChI=1S/C7H12O2/c1-7(8)4-9-6-2-5(7)3-6/h5-6,8H,2-4H2,1H3	InChI=1S/C7H12O2/c1-7(8)4-9-6-2-5(7)3-6/h5-6,8H,2-4H2,1H3/t5-,6+,7-/m1/s1
