15
gdb 98149	2.31887	1.25504	0.90605	1.8699	73.32	-0.264	-0.0024	0.2616	1282.2587	0.108085	-420.574647	-420.564658	-420.563714	-420.610737	34.392	
C	 0.1633090012	 1.3656468911	 0.1611450918	-0.242912
O	 0.2965384357	-0.0583604278	 0.0326358853	-0.230358
C	 0.6276964133	-0.492950524	-1.19273547	 0.468766
O	 0.8493098842	 0.2082079666	-2.1385190131	-0.337154
C	 0.6640770726	-2.0427393796	-1.1857551187	-0.485514
C	-0.7112176294	-2.5518273649	-1.2249714991	 0.348887
C	-1.8407363367	-2.9561231966	-1.2563038716	-0.459911
C	 1.4834175083	-2.5688801986	-2.2759432731	 0.360046
C	 2.1688924699	-3.0208348486	-3.1501248317	-0.425121
H	 1.1056731107	 1.8610749232	-0.0840954505	 0.146651
H	-0.6173145126	 1.7373327632	-0.5068525112	 0.147805
H	-0.1053210831	 1.5435965336	 1.2019516315	 0.139501
H	 1.1082919877	-2.3339429795	-0.224528999	 0.159167
H	-2.8376867453	-3.3209338022	-1.288354806	 0.206679
H	 2.7701618135	-3.4102970058	-3.9341467444	 0.203469
26.696	99.0829	117.2556	126.0127	140.3044	202.1587	271.2211	331.0291	369.3206	411.8522	441.939	558.4829	631.8656	645.8009	655.3151	663.4119	689.7627	786.4781	885.4783	945.7875	1020.4274	1068.8721	1179.0099	1186.5171	1215.876	1277.017	1310.2245	1472.3544	1482.3531	1496.0683	1847.5418	2245.0015	2255.8861	3023.5161	3056.1283	3133.2721	3166.0197	3503.5609	3504.8973
COC(=O)C(C#C)C#C	COC(=O)C(C#C)C#C	
InChI=1S/C7H6O2/c1-4-6(5-2)7(8)9-3/h1-2,6H,3H3	InChI=1S/C7H6O2/c1-4-6(5-2)7(8)9-3/h1-2,6H,3H3
