15
gdb 27000	3.30721	1.2891	0.96033	1.623	72.79	-0.199	0.0086	0.2076	1159.8671	0.112796	-416.802612	-416.79431	-416.793366	-416.835955	30.766	
N	-0.0806454162	 1.2827940096	-0.559163219	-0.601915
C	-0.0552505196	-0.0493555528	-0.1761352086	 0.199571
C	-1.0707772109	-0.9429525273	-0.0037487236	 0.276981
C	-2.5554285277	-0.9332895117	-0.1805952092	-0.475514
C	-2.9946328973	-0.0183724721	-1.2332261135	 0.301562
C	-3.3530730731	 0.7436211129	-2.0911727282	-0.447291
O	-0.5028817868	-2.1136641774	 0.4705416834	-0.183911
C	 0.8105255226	-1.8458803184	 0.5428394718	 0.067894
N	 1.1466767003	-0.6517199271	 0.1762948802	-0.301884
H	 0.7980144938	 1.5739755063	-0.9656717731	 0.252428
H	-0.8697670769	 1.5192835024	-1.1465079441	 0.253395
H	-2.8833687011	-1.9513645812	-0.4270612876	 0.156075
H	-3.0707987726	-0.6725972632	 0.7566747808	 0.150066
H	-3.6906116189	 1.399436534	-2.8554650349	 0.204748
H	 1.4537377745	-2.6386057239	 0.8914809956	 0.147794
44.5584	120.2504	211.2397	258.7539	306.1283	325.474	332.5019	434.4556	454.4966	616.7099	627.4715	650.7109	666.7302	717.0252	741.8831	776.2684	829.1237	937.9656	953.3505	969.1619	1045.1097	1132.5548	1176.304	1231.4328	1268.9667	1320.2562	1343.3996	1429.1703	1466.4269	1558.0473	1632.7826	1704.3155	2237.9167	2984.7741	3041.0316	3274.0799	3502.1803	3542.2537	3646.3376
NC1=C(CC#C)OC=N1	Nc1c(CC#C)ocn1	
InChI=1S/C6H6N2O/c1-2-3-5-6(7)8-4-9-5/h1,4H,3,7H2	InChI=1S/C6H6N2O/c1-2-3-5-6(7)8-4-9-5/h1,4H,3,7H2
