17
gdb 69070	2.58676	1.66347	1.22642	3.2769	78.5	-0.252	-0.007	0.245	1037.8655	0.136676	-380.87546	-380.867485	-380.866541	-380.907635	30.832	
C	-0.0479039873	 1.5643252215	 0.002968161	-0.496208
C	 0.0837677061	 0.0648383513	-0.0163283875	 0.237174
N	-0.7421581341	-0.7745367922	 0.8857055602	-0.388006
C	 0.7352387436	-0.760067818	 1.0697309193	 0.154839
C	 1.4495696732	-1.9468855292	 0.4208063702	-0.32581
C	 1.1269188779	-1.7658619565	-1.0469665024	-0.080731
C	 0.4109670113	-0.6670705059	-1.2834245783	-0.092477
C	 1.2730670586	-0.1535299313	 2.2517918594	 0.20598
N	 1.6995869289	 0.3340370824	 3.2114376918	-0.353527
H	 0.8025714518	 2.0359345017	-0.498865505	 0.139322
H	-0.9602540615	 1.8750083313	-0.5178597585	 0.134245
H	-0.0904773181	 1.9469879182	 1.0267822928	 0.140116
H	-1.1565972637	-0.1813411109	 1.6054431407	 0.239691
H	 2.5284787236	-1.9140516076	 0.6132064603	 0.130236
H	 1.0759837649	-2.898310576	 0.8152722287	 0.137066
H	 1.4390557292	-2.4854540739	-1.7946174477	 0.109731
H	 0.0648509454	-0.3263857448	-2.2518302549	 0.108361
133.3095	147.2546	190.363	239.8993	283.2052	357.2465	424.6082	488.2545	505.3709	569.4926	596.4522	654.6952	719.0844	749.2566	780.2174	881.1737	932.3082	953.2677	954.5874	993.1314	1046.9124	1051.4818	1089.9357	1110.9222	1150.5112	1192.0711	1260.9231	1298.9839	1333.8298	1374.9712	1393.6438	1421.8954	1463.2941	1483.7525	1498.1777	1675.3938	2343.3	3035.6474	3038.875	3077.6742	3101.7776	3116.4456	3195.9162	3219.5901	3464.6783
CC12NC1(CC=C2)C#N	C[C@]12N[C@]1(CC=C2)C#N	
InChI=1S/C7H8N2/c1-6-3-2-4-7(6,5-8)9-6/h2-3,9H,4H2,1H3	InChI=1S/C7H8N2/c1-6-3-2-4-7(6,5-8)9-6/h2-3,9H,4H2,1H3/t6-,7-/m1/s1
