16
gdb 18491	5.91091	1.20622	1.12325	3.4877	68.02	-0.2498	0.03	0.2798	1043.7215	0.131873	-342.749129	-342.741958	-342.741014	-342.781081	26.571	
N	-0.007818499	-1.1331486879	-0.2467766137	-0.303483
C	-0.0375620103	 0.0042064646	-0.0441799371	 0.258602
C	-0.0400516424	 1.4454985061	 0.2011456509	-0.364124
C	 1.3604550524	 2.0602743688	 0.0480876493	 0.00852
C	 2.0365660995	 2.1438898439	-1.3480826339	-0.179814
N	 2.2846861147	 3.6246176002	-1.202586678	-0.11826
C	 0.948926552	 4.233274	-1.1122814366	-0.238182
C	 1.4914089209	 3.5806624911	 0.0969104899	-0.059451
H	-0.7465696699	 1.9138314665	-0.4924242726	 0.150242
H	-0.4216354631	 1.6283447912	 1.2127374182	 0.15518
H	 2.0342736955	 1.5885949282	 0.766712518	 0.108104
H	 2.9803320938	 1.6021630422	-1.4168566918	 0.126841
H	 1.4146281754	 1.888915908	-2.2130740831	 0.112814
H	 0.9740307105	 5.3182719855	-1.1383308009	 0.129234
H	 0.1259249254	 3.789709713	-1.6698368256	 0.111373
H	 1.7989326947	 4.1489048685	 0.9691246869	 0.102403
62.1328	120.0224	197.7155	301.3941	392.5712	414.5868	502.9778	519.1335	712.8084	756.3616	785.0473	852.1761	888.3616	936.3887	957.9737	993.0986	1012.3478	1063.0002	1080.8527	1108.5707	1121.7411	1132.2895	1196.5026	1218.4367	1241.962	1259.7173	1297.3249	1320.4788	1375.528	1385.7637	1464.0502	1492.7988	1511.4181	2361.2753	3043.3678	3048.9964	3076.8711	3093.4693	3101.482	3128.3165	3160.1106	3196.2294
N#CCC1CN2CC12	N#CC[C@H]1CN2C[C@@H]12	
InChI=1S/C6H8N2/c7-2-1-5-3-8-4-6(5)8/h5-6H,1,3-4H2	InChI=1S/C6H8N2/c7-2-1-5-3-8-4-6(5)8/h5-6H,1,3-4H2/t5-,6-,8?/m0/s1
