20
gdb 82053	2.79449	1.49322	1.26459	2.0871	78.51	-0.2127	0.0757	0.2884	1078.9262	0.170789	-403.072478	-403.064238	-403.063294	-403.105307	31.788	
C	-0.2190696546	 1.4747363711	-0.1809702146	-0.336341
N	 0.0974049376	 0.0627414879	-0.0678164845	-0.125897
C	 1.1520372354	-0.5005515483	-0.9047481434	 0.001315
C	 2.536283749	-0.0833679256	-0.4785910852	-0.306287
C	 1.8030403226	-1.1512448503	 0.2992959875	-0.158219
C	 0.7250231	-0.4945068811	 1.1579674993	 0.293807
C	 1.0806626856	 0.3316676164	 2.4164752109	-0.132157
O	 0.3587071166	-0.581841222	 3.2655693529	-0.276028
C	-0.1411463891	-1.3182768313	 2.1298695246	-0.128213
H	 0.6420238934	 2.1517294396	-0.0472119116	 0.09734
H	-0.63953219	 1.661789378	-1.1746865781	 0.123229
H	-0.9820522397	 1.7442897825	 0.5563301643	 0.12541
H	 0.9271998737	-0.9026381349	-1.8866923252	 0.095767
H	 3.3459936922	-0.445396404	-1.1049464345	 0.114792
H	 2.7155935086	 0.8943808856	-0.0383775891	 0.110727
H	 2.1719582399	-2.1613522185	 0.4194053974	 0.098185
H	 2.1470851776	 0.3837128894	 2.6684830594	 0.102833
H	 0.6551764206	 1.3435949918	 2.4479026415	 0.097796
H	-1.2189638094	-1.1770811022	 1.9784532528	 0.101588
H	 0.0808148201	-2.3903573342	 2.1999036357	 0.100355
77.5974	133.0285	208.3497	232.705	244.4378	273.5321	391.1926	462.4219	518.1839	542.3273	682.4567	777.5572	804.3291	854.5719	893.2613	930.1677	945.2239	963.1049	979.7207	992.0661	1033.1027	1041.1298	1068.5795	1074.4461	1104.4582	1140.4274	1149.8292	1157.7813	1166.4552	1174.1666	1223.8894	1241.5709	1260.1674	1300.9127	1318.0578	1347.887	1381.4013	1449.0184	1478.092	1492.243	1500.6039	1505.4723	1527.4456	2956.3244	3002.3685	3014.7089	3052.1471	3058.8693	3061.0186	3100.5958	3112.3324	3165.342	3195.6521	3204.7702
CN1C2CC2C11COC1	CN1[C@H]2C[C@H]2C21COC2	
InChI=1S/C7H11NO/c1-8-6-2-5(6)7(8)3-9-4-7/h5-6H,2-4H2,1H3	InChI=1S/C7H11NO/c1-8-6-2-5(6)7(8)3-9-4-7/h5-6H,2-4H2,1H3/t5-,6+/m1/s1
