18
gdb 7636	4.75404	1.16454	0.98714	3.1673	68.65	-0.2411	-0.0187	0.2224	1165.0833	0.151324	-384.950518	-384.941831	-384.940886	-384.984278	31.871	
C	 0.0886620602	 1.4926488679	-0.0969880121	-0.407179
C	-0.0241982841	-0.0265070272	 0.034297614	 0.122948
O	 0.734314	-0.5122134422	 1.1386146165	-0.429342
C	-1.471666483	-0.5051812505	 0.1141309912	 0.013719
C	-2.3234988244	-0.4318776995	-1.1947866865	-0.370096
C	-2.6841135233	-1.9128258933	-0.9785125739	 0.403217
O	-3.4884935152	-2.6464636178	-1.4739008434	-0.288358
C	-1.6822740355	-2.0501007863	 0.1765714195	-0.360422
H	 1.1389206439	 1.7915769831	-0.1476622813	 0.128201
H	-0.4205040591	 1.8568031584	-0.9949309338	 0.12268
H	-0.3678175158	 1.989881963	 0.7683760095	 0.107532
H	 0.4454807144	-0.4972854583	-0.8402204157	 0.085369
H	 0.4012681883	-0.0834350837	 1.9350207879	 0.276748
H	-1.9777831299	 0.0010121423	 0.9444379372	 0.068944
H	-3.1657517915	 0.263642494	-1.2269296537	 0.129295
H	-1.7211238434	-0.2870468412	-2.0995264837	 0.129335
H	-0.7887869809	-2.6169521114	-0.1073052473	 0.13957
H	-2.0783620607	-2.4810110975	 1.0993702856	 0.12784
39.9412	88.719	165.7392	240.4951	283.8532	297.3782	339.8846	406.0526	419.5801	480.5375	508.5565	659.4227	676.783	751.7215	879.4235	919.5632	935.6418	976.5789	1004.3793	1020.4438	1078.3163	1093.7076	1122.7121	1145.3066	1191.1391	1202.227	1239.7336	1259.0409	1283.1698	1327.1674	1391.9946	1403.1653	1418.1928	1426.2687	1445.9334	1491.3016	1494.6746	1894.6994	3015.69	3025.0738	3040.8547	3044.4598	3057.2235	3094.9894	3110.6184	3113.4777	3121.0009	3796.6694
CC(O)C1CC(=O)C1	C[C@@H](O)C1CC(=O)C1	
InChI=1S/C6H10O2/c1-4(7)5-2-6(8)3-5/h4-5,7H,2-3H2,1H3	InChI=1S/C6H10O2/c1-4(7)5-2-6(8)3-5/h4-5,7H,2-3H2,1H3/t4-/m1/s1
