17
gdb 85640	2.3626	1.4322	1.02864	2.2456	74.7	-0.2447	-0.032	0.2127	1183.5084	0.133695	-421.814966	-421.806156	-421.805211	-421.848791	32.657	
C	 0.0239633271	 1.5745317597	 0.0637407991	-0.406638
C	 0.074513084	 0.068676379	-0.1021397261	 0.134706
C	 0.9228802694	-0.4521825576	-1.2684603331	-0.357605
C	 1.4684990009	-1.7787323136	-0.7454406997	 0.390952
O	 2.0754391347	-2.6198859503	-1.3432045045	-0.291408
C	 1.0973885978	-1.8187171378	 0.7677156936	-0.194394
O	 0.7014468399	-0.4915163547	 1.0686325473	-0.254059
C	 0.042560111	-2.8047568801	 1.0048318513	 0.347289
C	-0.8424425962	-3.6006722868	 1.1719121102	-0.461055
H	 1.0351249404	 1.9843844733	 0.148553685	 0.12566
H	-0.4709469113	 2.0366628669	-0.7956705045	 0.122391
H	-0.5326017665	 1.8388813593	 0.9668518512	 0.134196
H	-0.9464615506	-0.3349103777	-0.1819423572	 0.088408
H	 0.3832958631	-0.5958183984	-2.2069513152	 0.140248
H	 1.7723747159	 0.2136489576	-1.4643229941	 0.139579
H	 1.9861105617	-2.0576261849	 1.3609650599	 0.135381
H	-1.6147733615	-4.3119003438	 1.3334308367	 0.206348
68.2196	95.0695	132.2651	223.6712	243.7628	287.5103	380.1284	421.8179	465.6391	521.8006	559.7262	611.7423	631.0322	678.0978	690.4336	817.0591	836.4017	896.1177	916.1989	967.5231	1041.1356	1076.4723	1087.917	1145.9312	1158.1116	1207.1832	1237.8817	1257.1702	1327.3571	1362.9005	1392.7217	1416.0724	1447.0688	1483.6193	1498.1034	1870.9476	2230.1593	2988.5133	3042.5145	3046.072	3062.7883	3116.2335	3119.2622	3123.5606	3501.5206
CC1CC(=O)C(O1)C#C	C[C@H]1CC(=O)[C@@H](O1)C#C	
InChI=1S/C7H8O2/c1-3-7-6(8)4-5(2)9-7/h1,5,7H,4H2,2H3	InChI=1S/C7H8O2/c1-3-7-6(8)4-5(2)9-7/h1,5,7H,4H2,2H3/t5-,7-/m0/s1
