14
gdb 130931	6.62786	0.8189	0.73961	1.8278	64.44	-0.2335	-0.0364	0.1971	1409.1757	0.101116	-470.055158	-470.046908	-470.045964	-470.089385	28.806	
O	-0.1277683594	-0.0295894315	 0.2100880091	-0.234006
C	-0.014858312	 1.1435942861	-0.0194966362	 0.185641
C	 1.3346653923	 1.8304485884	-0.2073691023	-0.413224
C	 1.3125599923	 2.8508081293	-1.2951996354	 0.402364
N	 0.398324746	 2.9164140185	-2.2150367681	-0.256781
N	 0.7768687023	 3.9794952645	-3.0011497305	-0.295758
C	 1.9378738417	 4.6018163991	-2.5907832309	 0.464113
O	 2.5273588417	 5.5480882464	-3.0594992665	-0.413401
N	 2.2608608651	 3.8329561128	-1.4605205649	-0.411082
H	-0.890461707	 1.8207789888	-0.0791013837	 0.105904
H	 1.5839812319	 2.3191671226	 0.7466634256	 0.144781
H	 2.0949336463	 1.0613593774	-0.3804375407	 0.156337
H	 0.2215165973	 4.2445955162	-3.7952721097	 0.285692
H	 3.0789584516	 4.0018200215	-0.9010873158	 0.27942
37.9975	63.769	155.8347	183.9507	279.2114	337.14	423.6332	458.1542	505.7123	525.8004	674.0783	689.9753	754.7827	768.1136	820.8022	995.7498	1019.9429	1030.2438	1052.1787	1109.5802	1201.8235	1211.9229	1264.447	1317.9567	1389.3246	1423.8612	1443.2084	1485.976	1643.7798	1842.0221	1864.9498	2937.0721	3010.8499	3078.3301	3684.9029	3697.7865
O=CCC1=NNC(=O)N1	O=CCc1n[nH]c(=O)[nH]1	
InChI=1S/C4H5N3O2/c8-2-1-3-5-4(9)7-6-3/h2H,1H2,(H2,5,6,7,9)	InChI=1S/C4H5N3O2/c8-2-1-3-5-4(9)7-6-3/h2H,1H2,(H2,5,6,7,9)
