15
gdb 125124	2.33165	1.89495	1.05389	5.2948	74.66	-0.217	-0.0526	0.1643	1062.7887	0.112385	-450.104688	-450.09621	-450.095266	-450.137771	31.007	
C	-0.0475280467	 1.5428256337	 0.0329164196	-0.485387
C	-0.050003565	 0.0470684721	 0.0339707165	 0.112938
C	-1.1649967025	-0.7079046843	-0.0128502624	 0.395949
O	-2.4266711857	-0.2067529999	-0.0026419491	-0.41826
N	-1.0595490276	-2.0848283402	-0.0440054897	-0.33111
N	 0.1200903727	-2.7598475549	 0.0306516173	-0.043906
N	 1.1919154013	-2.1070980869	 0.0725128756	-0.255349
C	 1.2184117937	-0.6729823541	 0.0770613936	 0.316642
N	 2.3389516216	-0.0548057775	 0.1125376256	-0.516046
H	 0.5879862202	 1.9125950954	-0.7781422084	 0.148494
H	-1.055609719	 1.9455633766	-0.0730987396	 0.126116
H	 0.3963538071	 1.9213708681	 0.9599784212	 0.147878
H	-2.9729021889	-0.6666864983	-0.6519453428	 0.307802
H	-1.8641129978	-2.6731495968	 0.1071568198	 0.273176
H	 3.0943977266	-0.7430356729	 0.1265892326	 0.221063
82.0028	144.8249	182.7288	204.1562	264.9676	280.1394	346.191	399.2285	498.4945	526.1989	551.6325	565.1702	634.3813	677.663	777.6264	897.8572	901.3415	927.9697	1028.2529	1061.8689	1078.7763	1150.0414	1220.5868	1264.8179	1299.3233	1363.9285	1409.4842	1455.9002	1472.5516	1481.5775	1592.8869	1683.8123	1739.2514	3042.5568	3092.9609	3145.5779	3463.5911	3638.1255	3783.0256
CC1=C(O)NN=NC1=N	Cc1c(O)[nH]nnc1[NH]	
InChI=1S/C4H6N4O/c1-2-3(5)6-8-7-4(2)9/h1H3,(H3,5,6,7,9)	InChI=1S/C4H11N4O/c1-2-3(5)6-8-7-4(2)9/h2-9H,1H3
