21
gdb 38842	2.54002	1.91499	1.65675	1.4391	79.63	-0.2243	0.0745	0.2988	945.1956	0.186757	-387.089393	-387.082541	-387.081597	-387.120241	29.514	
C	 0.0288189339	 1.5346062401	-0.286188503	-0.328837
C	 1.30752257	 0.7746959518	-0.0385014354	 0.117812
O	 2.0336076528	 0.9477630526	 1.1476084153	-0.28184
C	 1.5637642992	 0.2692004373	 2.3230272278	 0.133307
C	 0.414577655	 1.0477308331	 3.0075998578	-0.222737
C	-0.889573364	 0.4541729513	 2.3983019511	-0.224357
C	-0.4025772926	-0.5667950645	 1.341785918	-0.022481
C	 0.9094217241	-1.0748364223	 1.9781505596	-0.234893
C	-0.0071552076	 0.0421596728	-0.0107276724	-0.062048
H	-0.3046682874	 2.2171874607	 0.4865271241	 0.116847
H	-0.1799056611	 1.869482847	-1.2967683564	 0.106281
H	 1.9805511011	 0.6230136208	-0.877423474	 0.090297
H	 2.4474214645	 0.1833470627	 2.9596394898	 0.072914
H	 0.448304497	 0.8933950087	 4.0905692415	 0.096105
H	 0.5314655327	 2.1191425095	 2.8285449416	 0.108529
H	-1.4639573114	-0.0718612019	 3.1671861131	 0.094427
H	-1.5521893116	 1.2108687813	 1.9730776632	 0.102479
H	-1.141807097	-1.35516431	 1.1825314848	 0.061193
H	 1.5171967376	-1.6868971137	 1.3067208221	 0.099715
H	 0.7203529738	-1.6408189027	 2.8970587664	 0.092543
H	-0.2182767189	-0.5956595945	-0.863978305	 0.084745
124.7506	264.6408	316.2024	399.2668	431.9819	442.3076	483.228	603.6296	709.3764	737.4423	758.964	807.9221	811.1322	837.3887	870.3951	889.9283	917.5142	950.4295	960.9372	988.5011	998.0695	1026.5803	1050.2236	1060.4352	1076.3067	1121.6747	1128.5216	1166.6113	1170.9493	1182.173	1219.6041	1234.9203	1252.3864	1265.4542	1305.0682	1332.9916	1344.2029	1351.2539	1368.4543	1381.3132	1410.484	1475.1116	1483.3702	1484.5556	1508.4529	3044.2501	3047.8538	3058.427	3075.2592	3085.3756	3096.2027	3103.3038	3113.2863	3135.6424	3137.9838	3149.2838	3225.0012
C1C2OC3CCC(C3)C12	C1[C@H]2O[C@H]3CC[C@H](C3)[C@@H]12	
InChI=1S/C8H12O/c1-2-6-3-5(1)7-4-8(7)9-6/h5-8H,1-4H2	InChI=1S/C8H12O/c1-2-6-3-5(1)7-4-8(7)9-6/h5-8H,1-4H2/t5-,6+,7-,8-/m1/s1
