17
gdb 17649	3.03518	1.77441	1.30821	5.0164	63.81	-0.2499	0.0172	0.2671	956.5696	0.142986	-401.016951	-401.008908	-401.007964	-401.050098	29.711	
N	 0.1988206215	 1.0735527138	 0.0764080362	-0.538518
H	-0.054575594	 0.1609287703	-0.284196115	 0.247395
H	 1.1675415634	 1.0176042746	 0.3790307508	 0.247348
H	-0.1325384574	 2.7810269845	-0.5068788377	 0.306947
C	-0.6574635822	 1.4558389424	 1.2227104051	-0.15742
C	-0.1199146895	 0.9392577519	 2.5482591567	 0.009811
C	 0.8543021681	 1.7263193361	 3.3973036687	-0.276434
C	-0.5380912141	 1.444052474	 3.9041856513	-0.269927
C	-0.8967451089	 2.9865288223	 1.162082214	 0.430533
O	-0.5177720262	 3.5320967001	 0.003882216	-0.365159
O	-1.4088499635	 3.6239721527	 2.0460082979	-0.341221
H	-1.6474652195	 1.0156423126	 1.0445123038	 0.122534
H	 0.0708927459	-0.1305561143	 2.4957783858	 0.080109
H	 1.692441503	 1.1975207057	 3.8375349084	 0.108561
H	 1.0694963277	 2.7501271923	 3.1113249932	 0.131668
H	-1.224194926	 2.2791490883	 3.9327945499	 0.158106
H	-0.6590640181	 0.7062697628	 4.6899256849	 0.105667
41.977	86.4614	202.3689	246.4098	292.4852	335.6519	395.1311	474.8505	542.0521	566.9179	737.1151	783.127	799.7687	837.1226	856.4841	898.4347	929.7219	940.7723	1014.4182	1062.4217	1072.6948	1097.5104	1145.1234	1147.5253	1186.9829	1204.7482	1217.9555	1247.0791	1307.705	1371.5794	1408.6983	1439.7184	1460.61	1501.5753	1651.7932	1855.178	3029.283	3122.4565	3135.1337	3146.6106	3219.5691	3255.4895	3405.5423	3500.7142	3588.8369
[NH3+]C(C1CC1)C([O-])=O	N[C@@H](C1CC1)C(=O)O	
InChI=1S/C5H9NO2/c6-4(5(7)8)3-1-2-3/h3-4H,1-2,6H2,(H,7,8)	InChI=1S/C5H9NO2/c6-4(5(7)8)3-1-2-3/h3-4H,1-2,6H2,(H,7,8)/t4-/m0/s1
