23
gdb 102806	2.13408	1.02157	0.77083	3.2883	82.68	-0.2457	-0.0165	0.2292	1545.7912	0.20222	-425.440942	-425.42967	-425.428726	-425.478271	40.211	
C	 1.017035877	-1.0164110108	-1.0109925725	-0.381986
C	 0.1531015493	-0.176726904	-0.0606631657	-0.204335
C	-1.3669769396	-0.4568640544	-0.1050583591	-0.007168
C	-2.0012519708	-0.0258922656	-1.4464452218	-0.281941
C	-2.0091879276	 1.4713921646	-1.6190657743	 0.157605
O	-1.5350354947	 2.072882489	-2.5489470645	-0.246787
C	-1.7535140108	-1.9193666482	 0.2197982994	 0.128354
C	-1.1831014458	-2.4247524813	 1.5455878238	-0.419678
O	-3.1723964204	-2.0816503387	 0.1965112914	-0.429134
H	 2.0686924951	-0.7291397878	-0.9184182132	 0.118991
H	 0.9503091446	-2.0867275481	-0.7908421039	 0.11863
H	 0.7323803095	-0.8728733994	-2.0573952768	 0.130741
H	 0.509468947	-0.3142336633	 0.9661333303	 0.099881
H	 0.3109814678	 0.8846780646	-0.2883675028	 0.110029
H	-1.8263504101	 0.1596393933	 0.6858638913	 0.059696
H	-1.4959995959	-0.477849153	-2.3044533684	 0.116389
H	-3.0436486691	-0.3693799394	-1.4443393521	 0.134118
H	-2.5098509881	 2.0201206032	-0.7837615467	 0.063112
H	-1.4010898674	-2.5676187499	-0.5910277156	 0.09432
H	-1.470143325	-1.7624569706	 2.37276171	 0.107653
H	-1.5768930255	-3.4228562083	 1.7548178944	 0.128154
H	-0.0916631827	-2.4832450815	 1.5299859528	 0.127218
H	-3.530371797	-1.6273262802	 0.9678645941	 0.276138
42.3576	57.0053	88.0458	108.8451	190.43	201.902	240.9991	259.7067	288.7099	309.0116	331.6382	397.9342	444.9325	469.537	511.5412	580.4328	764.1019	776.7228	854.3759	883.8584	931.7369	980.971	998.4603	1014.0817	1041.8434	1083.9088	1092.7192	1116.5252	1168.3451	1173.0478	1208.1178	1229.905	1289.6995	1314.5629	1332.9711	1353.4128	1382.3384	1395.5848	1403.9984	1415.611	1425.6954	1430.716	1471.3067	1485.613	1491.7841	1498.5778	1506.4671	1510.182	1831.9352	2830.5216	2961.706	3024.279	3032.0209	3037.2934	3040.6886	3048.4085	3063.8579	3100.4324	3104.9544	3106.0822	3115.0395	3125.3382	3791.4254
CCC(CC=O)C(C)O	CC[C@@H](CC=O)[C@@H](C)O	
InChI=1S/C7H14O2/c1-3-7(4-5-8)6(2)9/h5-7,9H,3-4H2,1-2H3	InChI=1S/C7H14O2/c1-3-7(4-5-8)6(2)9/h5-7,9H,3-4H2,1-2H3/t6-,7+/m1/s1
