16
gdb 49671	2.67521	1.36584	1.20049	4.0019	71.41	-0.2543	-0.0336	0.2207	1073.2678	0.125292	-437.8977	-437.890127	-437.889183	-437.930176	28.373	
N	-0.1065676121	 1.2254015101	 0.318543855	-0.538739
C	-0.0290055312	 0.0077001025	 0.0026768821	 0.414188
O	 1.1303065822	-0.6384460368	-0.3599139562	-0.246304
C	 0.8444030025	-1.9149948242	-0.956182862	-0.114935
C	-0.6125597863	-2.2135666461	-0.6453384026	-0.097339
C	-1.0443817878	-2.2178488486	 0.8094005336	-0.128818
C	-0.0960415919	-2.326906562	 1.9512690895	 0.150202
O	-0.3374876885	-2.9800995756	 2.9370474171	-0.265131
C	-1.1661274987	-0.9533709536	-0.0533625754	-0.135364
H	 0.803453818	 1.6803657671	 0.2308907568	 0.229061
H	 0.9986831062	-1.8441409827	-2.0392320322	 0.127338
H	 1.5513415149	-2.6444029692	-0.5506282524	 0.132003
H	-1.1728271951	-2.8259311252	-1.3405280787	 0.119452
H	-1.9869797422	-2.7180827855	 1.0056297633	 0.122529
H	 0.8571031477	-1.7691293601	 1.8506779288	 0.099081
H	-2.1542714376	-0.5593105602	-0.2435171865	 0.132776
83.7138	145.4102	173.8393	219.0923	332.2796	408.8519	429.3696	497.4671	623.1082	708.5273	754.6387	787.928	839.7734	857.661	897.225	957.0153	976.0261	986.5976	1000.2536	1055.6224	1072.5374	1090.486	1114.2535	1127.9598	1203.6974	1227.8935	1267.5057	1330.0204	1339.0192	1360.2555	1417.2075	1456.8029	1521.8166	1783.5095	1813.0176	2930.1548	3038.4225	3089.4422	3175.8157	3196.7907	3225.1802	3480.4701
N=C1OCC2C(C=O)C12	[NH][C]1OC[C@H]2[C@@H](C=O)[C@@H]12	
InChI=1S/C6H7NO2/c7-6-5-3(1-8)4(5)2-9-6/h1,3-5,7H,2H2	InChI=1S/C6H7NO2/c7-6-5-3(1-8)4(5)2-9-6/h1,3-5,7H,2H2/t3-,4+,5-/m1/s1
