17
gdb 55938	4.26393	0.94319	0.86457	1.9441	69.63	-0.2402	0.0554	0.2957	1331.2272	0.136452	-455.141897	-455.133496	-455.132552	-455.175965	31.391	
N	-0.11479578	 1.3717178031	 0.0871670652	-0.567862
C	 0.0561976486	-0.0042030877	-0.0130602951	 0.45487
O	 1.1537048234	-0.5296433113	-0.0518798159	-0.394879
N	-1.125723278	-0.7115259277	-0.0402517399	-0.342753
C	-1.1385051192	-2.1445586591	 0.0455280791	 0.037246
C	-1.5158949444	-2.8421512284	 1.4180066965	-0.277543
C	-2.7241579035	-3.4527893322	 0.7062309596	 0.033942
O	-3.5015800214	-2.3584310467	 0.1937088654	-0.260177
C	-2.3744422577	-2.8130780579	-0.5723383038	-0.004488
H	 0.7305233665	 1.8789077938	-0.1268720749	 0.260069
H	-0.9467976723	 1.7724741636	-0.3198097385	 0.247402
H	-1.9818593137	-0.2523174925	 0.2313708998	 0.246003
H	-0.1894829115	-2.5124728877	-0.3425039793	 0.124594
H	-0.7647557617	-3.5721694528	 1.7274510594	 0.117845
H	-1.7529470078	-2.1772406885	 2.251721049	 0.109718
H	-3.2483771244	-4.3804365637	 0.8995185861	 0.110628
H	-2.5608320928	-3.1030558043	-1.6001033827	 0.105386
39.6663	93.8213	105.6435	230.5092	348.9447	371.917	397.5499	466.9264	517.5635	552.6027	609.8387	634.6499	743.5187	776.3328	837.2368	849.6322	884.3411	910.1144	933.0153	995.3134	1008.1029	1023.6329	1070.8242	1098.0901	1128.2762	1195.3801	1218.0171	1232.397	1243.3518	1280.1254	1295.7775	1381.4232	1384.9449	1471.0478	1533.3448	1627.6432	1800.0331	3070.0276	3127.1088	3140.3661	3182.5829	3203.6701	3573.022	3619.2338	3687.8722
NC(=O)NC1CC2OC12	NC(=O)N[C@H]1C[C@H]2O[C@@H]12	
InChI=1S/C5H8N2O2/c6-5(8)7-2-1-3-4(2)9-3/h2-4H,1H2,(H3,6,7,8)	InChI=1S/C5H8N2O2/c6-5(8)7-2-1-3-4(2)9-3/h2-4H,1H2,(H3,6,7,8)/t2-,3+,4-/m0/s1
