14
gdb 25446	6.68371	0.89479	0.78914	1.6102	83.63	-0.2283	-0.0501	0.1783	1342.2387	0.100945	-399.575378	-399.567638	-399.566694	-399.607739	28.941	
O	-0.0902391773	-0.0476849293	-0.0016385844	-0.285195
C	-0.034222436	 1.1524871678	 0.0076784665	 0.185727
N	 1.1558247755	 1.8773899947	 0.000617472	-0.043885
C	 2.4349447614	 1.3308923983	-0.0185832142	-0.048302
C	 3.3271057529	 2.35669848	-0.0198659228	-0.287942
C	 2.5805909407	 3.596707121	-0.0007263486	 0.135806
C	 1.2499635302	 3.2586895936	 0.0116309484	-0.199489
C	 3.1202412615	 4.9034016258	 0.0043887443	 0.254491
C	 3.6005179395	 6.0077910419	 0.0084545408	-0.441838
H	-0.915791883	 1.8174853899	 0.0239790334	 0.104387
H	 2.5540062294	 0.2611968917	-0.0291917662	 0.16146
H	 4.4023800878	 2.2740105714	-0.0328046834	 0.123111
H	 0.3675786184	 3.876933857	 0.0271077953	 0.149469
H	 4.018301309	 6.9837956865	 0.0121326289	 0.192199
91.1256	131.1443	202.3864	247.4333	275.9285	447.2839	462.5556	537.3377	567.2772	613.9955	635.1102	654.9005	660.1013	719.7355	803.0289	806.5563	868.6298	977.31	1001.3922	1030.2426	1094.0511	1183.4814	1243.5236	1328.9267	1345.3294	1413.9756	1446.4347	1532.0849	1602.2457	1828.1646	2233.9105	2985.1191	3262.916	3273.8807	3297.9387	3504.0749
O=CN1C=CC(=C1)C#C	O=Cn1ccc(c1)C#C	
InChI=1S/C7H5NO/c1-2-7-3-4-8(5-7)6-9/h1,3-6H	InChI=1S/C7H5NO/c1-2-7-3-4-8(5-7)6-9/h1,3-6H
