19
gdb 82902	3.15484	1.86151	1.59911	0.0669	73.06	-0.2329	0.0887	0.3215	909.2652	0.16267	-423.016722	-423.010249	-423.009305	-423.047235	27.622	
C	-0.1281044239	 1.5633322829	-0.0082868145	-0.429372
C	 0.039830885	 0.0484662374	 0.0162063124	 0.061303
C	 1.1043619357	-0.5262180987	-0.945215594	 0.02144
O	 2.2563981397	 0.1981381671	-0.4849186297	-0.264607
C	 2.3263530796	-0.4277201972	 0.8089178431	 0.038211
C	 2.7164464806	-1.8425723831	 0.3474652464	-0.197226
C	 1.344294201	-2.0007061074	-0.3305659129	 0.038043
O	 0.5264771455	-1.9956672513	 0.8531148188	-0.266693
C	 0.7719175193	-0.6229682434	 1.2023453842	 0.020936
H	 0.830166482	 2.0777919785	 0.0754146127	 0.134376
H	-0.6035654745	 1.8840039335	-0.9418984392	 0.114386
H	-0.7729021353	 1.8893186695	 0.8148919179	 0.111065
H	-0.9293378509	-0.4466055057	-0.0820132667	 0.08172
H	 0.9830757698	-0.4284361689	-2.0223849213	 0.078668
H	 2.9676349041	 0.1330791027	 1.4850152307	 0.083388
H	 3.5885632245	-1.7964304441	-0.305622221	 0.105852
H	 2.838955663	-2.598358468	 1.1239549878	 0.106389
H	 1.1299866445	-2.8649718145	-0.9551835227	 0.082751
H	 0.4663268803	-0.4129353693	 2.225551928	 0.079369
183.1349	219.6655	275.1797	418.0342	512.9982	572.2808	596.6073	623.3157	683.9963	755.2912	814.4662	819.3371	863.2489	906.0959	913.981	925.3929	927.6681	963.6736	970.7227	984.1497	1024.1152	1034.7836	1060.0903	1082.8008	1128.3557	1137.4966	1144.2631	1200.549	1235.8545	1244.97	1255.1573	1264.9809	1274.4177	1289.1681	1319.5218	1339.3834	1378.9138	1406.2607	1472.855	1494.4182	1507.618	3036.3015	3080.4152	3086.1097	3091.6242	3140.5351	3141.566	3143.0587	3150.1702	3151.9098	3157.1055
CC1C2OC3CC2OC13	C[C@H]1[C@H]2O[C@@H]3C[C@H]2O[C@H]13	
InChI=1S/C7H10O2/c1-3-6-4-2-5(9-6)7(3)8-4/h3-7H,2H2,1H3	InChI=1S/C7H10O2/c1-3-6-4-2-5(9-6)7(3)8-4/h3-7H,2H2,1H3/t4-,5-,6-,7-/m1/s1
