16
gdb 45662	3.08402	1.79519	1.42917	2.6684	75.64	-0.2337	-0.0415	0.1921	912.5936	0.125644	-400.674258	-400.667614	-400.66667	-400.705223	26.94	
O	-0.0671769713	-0.0502708123	 0.0506254543	-0.299449
C	-0.0899180863	 1.1525308846	 0.0500696594	 0.3706
C	-1.4041448541	 1.9939204017	-0.0370555481	-0.350469
C	-1.2171744565	 2.8689268878	 1.1705248653	-0.137695
C	-0.0747046462	 3.5644118101	 1.2205529147	 0.123591
C	 1.0225909362	 3.3623453199	 2.2402023105	-0.18787
N	 1.9132565213	 2.8732546345	 1.1026690302	-0.153571
C	 0.9671752809	 3.4740710239	 0.1159727211	-0.12967
C	 1.1727757886	 2.0165018257	 0.048379125	-0.092324
H	-1.4175233862	 2.5370383893	-0.98755873	 0.13292
H	-2.2711865848	 1.3362196064	 0.0139226464	 0.129696
H	-1.7295967487	 2.5928101776	 2.0883780609	 0.11239
H	 1.5168416461	 4.2620886295	 2.6186504991	 0.12753
H	 0.840491108	 2.6564142696	 3.0550652731	 0.120487
H	 1.2643728919	 4.2192096046	-0.6138150541	 0.107208
H	 1.940143501	 1.5996696171	-0.5983479977	 0.126628
92.6869	247.0801	347.8117	407.5107	422.6696	477.0837	519.7407	583.3747	648.4885	720.5384	763.5602	787.0389	836.2282	872.0067	904.7782	912.5379	959.9092	990.4996	1025.6136	1042.2605	1063.6255	1074.9775	1123.145	1137.5918	1187.3662	1221.6677	1241.8129	1258.718	1280.031	1337.288	1345.9793	1467.4648	1496.5624	1679.2697	1819.527	3050.6922	3056.5671	3110.9451	3144.3583	3155.1495	3165.5151	3171.5579
O=C1CC=C2CN3C2C13	O=C1C[CH][C]2CN3[C@H]2[C@H]13	
InChI=1S/C7H7NO/c9-5-2-1-4-3-8-6(4)7(5)8/h1,6-7H,2-3H2	InChI=1S/C7H7NO/c9-5-2-1-4-3-8-6(4)7(5)8/h1,6-7H,2-3H2/t6-,7+,8?/m1/s1
