17
gdb 33883	3.35961	1.58946	1.36484	5.1709	76.37	-0.247	0.0234	0.2704	961.7652	0.13905	-380.813051	-380.806415	-380.805471	-380.843927	27.386	
N	 0.0960272664	-1.0687775495	 0.0601185693	-0.351121
C	 0.0369891356	 0.0866753182	 0.0393953781	 0.248793
C	-0.0164117869	 1.5181288601	 0.0038709777	 0.200103
C	 0.4028276455	 2.2562667813	-1.2533765392	-0.362338
C	 1.2347174298	 2.4134353418	-0.0121650585	-0.079198
C	 0.7827057045	 3.3969049643	 1.0856376086	-0.063478
C	-0.706685141	 3.6294788189	 0.7648871844	-0.192513
N	-0.893524453	 2.1483601509	 1.0399405346	-0.171367
C	 0.1841860487	 2.3762344857	 2.1095836904	-0.177632
H	 0.826685535	 1.611702576	-2.016575341	 0.143331
H	-0.2012145773	 3.0578117599	-1.6580651905	 0.134396
H	 2.2356000296	 2.0016058366	 0.0248924574	 0.119657
H	 1.4715387824	 4.1982929628	 1.3569860339	 0.078855
H	-1.2274256586	 4.1912253479	 1.5414714158	 0.121886
H	-1.0312841881	 3.9907964391	-0.2096119723	 0.111982
H	 0.763718471	 1.4870286164	 2.3666851324	 0.124141
H	-0.2569926237	 2.8252344496	 3.002006779	 0.114503
136.0743	166.4145	346.4131	422.2891	489.0221	533.041	544.8245	594.0364	619.2532	709.2127	779.6727	810.7166	824.5712	860.2724	884.0107	906.5912	945.9658	986.279	1010.7803	1020.4691	1038.7829	1059.4722	1085.8455	1098.838	1105.131	1186.0763	1190.5621	1211.3638	1233.4841	1264.0533	1293.3758	1297.2927	1357.962	1478.5609	1512.1714	1554.1098	2350.9561	3070.068	3092.6729	3107.6109	3137.7072	3142.5447	3151.953	3194.9279	3230.5845
N#CC12CC1C1CN2C1	N#C[C@]12C[C@H]1[C@H]1CN2C1	
InChI=1S/C7H8N2/c8-4-7-1-6(7)5-2-9(7)3-5/h5-6H,1-3H2	InChI=1S/C7H8N2/c8-4-7-1-6(7)5-2-9(7)3-5/h5-6H,1-3H2/t6-,7+/m0/s1
