19
gdb 82232	2.47021	2.00517	1.49627	2.2253	72.87	-0.2571	0.0775	0.3346	937.3717	0.162095	-423.000666	-422.993704	-422.99276	-423.031625	29.205	
O	 0.0898688341	 1.4095332769	-0.003811442	-0.44556
C	 0.0047942302	-0.0058069343	-0.0208112272	 0.127342
C	 0.7961654875	-0.6162920233	 1.1334094232	-0.00709
O	 0.4379047005	-0.1232516033	 2.4374754628	-0.265239
C	 0.0504542788	-1.4586499313	 2.0797479588	 0.05306
C	-1.4147622558	-1.7076653209	 1.7389277418	-0.053228
C	-2.1059171624	-0.3650891987	 1.3828289315	-0.230971
C	-1.4520589904	-0.5105254347	-0.0200984652	-0.043139
C	-1.4828002129	-2.0502435732	 0.2174153729	-0.239007
H	-0.0471258715	 1.6798630591	 0.9122739481	 0.292732
H	 0.4749080643	-0.3209921003	-0.9607972521	 0.085987
H	 1.8678089151	-0.742828897	 0.9914383187	 0.098352
H	 0.5741058541	-2.2349829334	 2.6349744693	 0.095004
H	-1.8955086238	-2.3757374693	 2.4559668829	 0.064476
H	-3.190221795	-0.4876790619	 1.3253551798	 0.096945
H	-1.8674443541	 0.5075236516	 1.9909471797	 0.104973
H	-1.9827309933	-0.1009425288	-0.8818617676	 0.070433
H	-0.6763896704	-2.657917554	-0.205753276	 0.092218
H	-2.446721025	-2.4828921033	-0.0618011594	 0.102709
147.8255	231.8275	323.0041	378.8375	401.5917	409.0923	456.3614	527.8591	598.3008	693.3084	755.9488	806.6444	822.7083	852.1961	902.5626	908.7803	919.1121	955.1266	976.4256	1003.9232	1066.3848	1069.993	1090.5512	1101.0739	1114.1371	1134.5209	1144.6671	1152.851	1246.0781	1255.775	1263.6769	1279.4834	1283.6253	1319.6196	1341.8562	1361.0784	1373.9995	1431.6461	1447.6815	1478.3587	1508.9198	3034.6688	3046.8786	3069.5674	3087.0633	3090.3258	3107.8453	3122.2464	3133.4717	3135.1267	3786.9312
OC1C2OC2C2CC1C2	O[C@H]1[C@H]2O[C@H]2[C@H]2C[C@@H]1C2	
InChI=1S/C7H10O2/c8-5-3-1-4(2-3)6-7(5)9-6/h3-8H,1-2H2	InChI=1S/C7H10O2/c8-5-3-1-4(2-3)6-7(5)9-6/h3-8H,1-2H2/t3-,4+,5-,6+,7-/m1/s1
