21
gdb 13809	3.68509	1.13068	0.99949	2.1737	75.01	-0.2466	0.0723	0.3189	1259.1067	0.188005	-366.23928	-366.229763	-366.228819	-366.273878	34.722	
C	 0.6918904265	 0.9862423232	-0.0233876361	-0.391451
C	 0.0658422469	-0.1094464043	 0.8512455918	 0.032846
C	-0.1673912041	 0.377287946	 2.2880610991	-0.390639
C	-1.2328447046	-0.5873297301	 0.2287387009	-0.002431
N	-1.1466496704	-1.525936951	-0.9031572	-0.359529
C	-1.8054400496	-1.9564708747	 0.3502379913	-0.046055
C	-1.1368779941	-3.1269834828	 1.0346767256	-0.065473
O	-1.2581638961	-4.3025927195	 0.250677567	-0.423576
H	 1.6526110622	 1.3158019946	 0.3851333266	 0.110389
H	 0.8596079991	 0.6202620382	-1.0405729936	 0.125093
H	 0.0377073069	 1.864894253	-0.08174499	 0.107022
H	 0.7623008506	-0.9547486338	 0.8735555438	 0.081268
H	-0.5804515451	-0.4160167281	 2.9193636063	 0.115642
H	 0.7681457197	 0.7186681769	 2.7424	 0.114079
H	-0.8703107265	 1.2188879153	 2.3088597607	 0.111627
H	-1.9760254191	 0.2077156342	 0.1382021005	 0.07688
H	-1.8390741309	-1.3016614787	-1.611736608	 0.232418
H	-2.8919631389	-2.0281702302	 0.3263458997	 0.087099
H	-0.0827152306	-2.8996090342	 1.2447094726	 0.090465
H	-1.6281066849	-3.3395861228	 1.9902238893	 0.105983
H	-0.902917667	-4.071520761	-0.6162456374	 0.288342
56.853	65.6285	144.4348	187.528	221.1476	247.584	282.1646	335.3323	361.3915	443.6007	451.6648	509.506	592.9908	783.1709	814.9786	887.4156	923.4606	931.0455	960.1007	970.8099	991.395	1000.9422	1068.2796	1079.5794	1134.5798	1160.7654	1185.5525	1192.4222	1250.5548	1271.4438	1278.8361	1320.148	1344.5613	1366.6012	1396.0012	1403.5101	1418.3395	1442.8012	1478.269	1488.4761	1491.3572	1497.9625	1503.6877	1513.1424	3006.8301	3024.3694	3027.9431	3046.6105	3072.5408	3080.8399	3088.9937	3097.045	3103.8712	3110.8736	3118.4647	3510.3468	3786.0215
CC(C)C1NC1CO	CC(C)[C@H]1N[C@H]1CO	
InChI=1S/C6H13NO/c1-4(2)6-5(3-8)7-6/h4-8H,3H2,1-2H3	InChI=1S/C6H13NO/c1-4(2)6-5(3-8)7-6/h4-8H,3H2,1-2H3/t5-,6+/m0/s1
