25
gdb 103597	2.65182	1.12796	0.9594	1.3074	89.09	-0.2503	0.0711	0.3214	1399.8286	0.226228	-389.497368	-389.486663	-389.485719	-389.532229	41.523	
C	-0.0657386939	 1.633333657	 0.0413352183	-0.393435
C	-0.1478594144	 0.1113216093	-0.1191837073	-0.228375
C	 0.682508062	-0.473670973	-1.2750456499	 0.371427
C	 0.2719943678	 0.0925354044	-2.6322718942	-0.463418
C	 2.2211706569	-0.4648244179	-0.9848695519	-0.292135
C	 2.1646956453	-1.9667860729	-0.6078024718	 0.417256
C	 3.2175903207	-2.8910310933	-1.2018872254	-0.44737
O	 2.1660919158	-2.0531204737	 0.8164275858	-0.473093
C	 0.7264758623	-2.0362567703	-1.2059695012	-0.326333
H	 0.9708421265	 1.9695260348	 0.1545237418	 0.116159
H	-0.4940209616	 2.1612141829	-0.8163243212	 0.113721
H	-0.6136636301	 1.9573235371	 0.9317740334	 0.110785
H	 0.1812479554	-0.3678346256	 0.8090476271	 0.112177
H	-1.1971163123	-0.1821931494	-0.2653791178	 0.083328
H	 0.4567805358	 1.1700296892	-2.6963888924	 0.115298
H	 0.8339999778	-0.3844284354	-3.4426786162	 0.103262
H	-0.7949354563	-0.0746941594	-2.8242580711	 0.108664
H	 2.820991598	-0.2800212433	-1.8803386626	 0.087532
H	 2.5732369414	 0.1853507716	-0.1807318999	 0.10594
H	 4.2046425936	-2.6584434298	-0.7894542619	 0.122822
H	 2.9910784156	-3.9400805137	-0.9706322458	 0.102399
H	 3.2634134907	-2.7955315015	-2.2912500644	 0.111532
H	 1.9306668805	-2.9571209325	 1.0540433565	 0.271497
H	-0.0228233073	-2.5162646835	-0.5685761478	 0.084776
H	 0.7012094498	-2.5055696209	-2.1943575	 0.085583
70.5458	115.4163	165.906	219.9253	231.2208	247.7612	283.6938	305.9004	310.6405	322.0224	342.8593	401.2865	428.0889	449.9027	491.3569	595.909	713.3258	791.0474	825.4423	837.9263	895.7293	903.5008	922.5119	932.8505	964.5502	1002.123	1020.6379	1034.7716	1055.037	1098.1453	1117.1111	1143.8663	1193.865	1234.3206	1238.9633	1256.7265	1283.6107	1303.4556	1344.1861	1370.8853	1371.816	1406.5081	1408.9983	1413.6435	1456.9994	1477.8514	1485.3277	1489.7926	1492.1074	1494.7073	1498.7892	1504.9649	1511.0781	3007.6091	3018.4896	3019.7892	3033.6417	3038.5475	3057.0804	3069.2493	3084.0491	3085.0986	3090.7559	3095.0777	3097.7202	3106.7286	3109.3281	3115.9802	3793.7143
CCC1(C)CC(C)(O)C1	CC[C@@]1(C)C[C@@](C)(O)C1	
InChI=1S/C8H16O/c1-4-7(2)5-8(3,9)6-7/h9H,4-6H2,1-3H3	InChI=1S/C8H16O/c1-4-7(2)5-8(3,9)6-7/h9H,4-6H2,1-3H3/t7-,8+
