21
gdb 120686	2.42838	0.79806	0.63862	1.0512	89.96	-0.2294	0.0546	0.284	1815.1864	0.179917	-387.043732	-387.032858	-387.031914	-387.082253	37.174	
C	 0.174168925	 1.3361836937	-0.2298291055	-0.224042
O	 0.3011667478	-0.0629202368	-0.1715673366	-0.232441
C	 0.4229762864	-0.5433507995	 1.1529713927	-0.078367
C	 0.5035840303	-2.0444049161	 1.1108222755	-0.015749
C	 1.8136558031	-2.7262606532	 0.8491287174	-0.280788
C	 1.1897398331	-2.8135098679	 2.2346543631	-0.202512
C	 1.7871817627	-2.1432334315	 3.3554068127	 0.093374
C	 2.282286279	-1.6014607412	 4.3118650098	 0.049468
C	 2.8856482467	-0.949895875	 5.4657905102	-0.498231
H	 1.0524705104	 1.8468077658	 0.1975402679	 0.101254
H	 0.083397049	 1.6143885195	-1.2828265034	 0.124603
H	-0.7194927269	 1.6907751059	 0.3092771963	 0.100871
H	 1.3199185067	-0.1271767921	 1.6385314905	 0.093823
H	-0.4449986829	-0.2227281879	 1.7550911478	 0.085997
H	-0.3817745872	-2.521756592	 0.7014273609	 0.095326
H	 1.8251060679	-3.6256784256	 0.244142772	 0.116064
H	 2.6922763019	-2.0992763839	 0.748250413	 0.124913
H	 0.7279192859	-3.7664260534	 2.4783145359	 0.108127
H	 2.992877267	-1.6490488969	 6.302781517	 0.147763
H	 3.8839558401	-0.5635220327	 5.2310099331	 0.145798
H	 2.2787256839	-0.1074366792	 5.8166004196	 0.144748
15.8783	59.4105	72.2014	90.8572	132.7816	168.5147	231.0859	255.6482	294.5278	344.7289	393.3772	448.2527	512.634	581.4494	699.8575	818.7329	862.6938	912.2281	937.5852	998.6784	1004.821	1051.0266	1053.8425	1065.4279	1084.5758	1125.7549	1152.4563	1175.3421	1181.634	1196.9218	1227.0409	1246.5477	1272.3267	1368.0553	1397.2414	1415.7852	1442.4646	1477.847	1479.9791	1481.9575	1484.7002	1487.8734	1504.7487	1525.7949	2365.4187	2950.5032	2965.6399	2994.854	3005.1439	3022.8896	3081.07	3083.6692	3110.3385	3136.4213	3139.1613	3155.0736	3229.0201
COCC1CC1C#CC	COC[C@H]1C[C@H]1C#CC	
InChI=1S/C8H12O/c1-3-4-7-5-8(7)6-9-2/h7-8H,5-6H2,1-2H3	InChI=1S/C8H12O/c1-3-4-7-5-8(7)6-9-2/h7-8H,5-6H2,1-2H3/t7-,8-/m1/s1
