19
gdb 65736	3.4199	1.03945	1.0047	4.2149	77.1	-0.2557	0.0037	0.2594	1259.2981	0.158266	-423.064989	-423.05626	-423.055316	-423.098493	32.806	
C	 0.2016714493	 1.3901109814	-0.0140688887	-0.428219
C	-0.0760006326	-0.1136097333	-0.0451824396	 0.388206
C	 0.6875562657	-0.8203517472	-1.2064475524	-0.310567
C	 1.8836394305	-1.4283157366	-0.5164081645	-0.061963
C	 1.7533129584	-1.4180159848	 0.8086450958	-0.063649
C	 0.4512613388	-0.7981667191	 1.2438399083	-0.302788
O	-1.509959821	-0.3435035332	-0.0757578109	-0.235588
C	-2.1977869938	-0.0311792045	-1.1852836627	 0.160087
O	-3.3839864677	-0.1656582656	-1.2654083948	-0.282395
H	 1.2747929322	 1.5622842486	 0.1132672934	 0.133111
H	-0.1107608953	 1.8793384527	-0.9418805193	 0.119266
H	-0.3285109526	 1.8569109692	 0.8207863539	 0.133832
H	 0.0624189952	-1.5997935483	-1.661959154	 0.124239
H	 0.960070864	-0.1240366957	-2.0080008349	 0.107993
H	 2.718610395	-1.8473240421	-1.0660988244	 0.099837
H	 2.4680697897	-1.8260712441	 1.5139200662	 0.100411
H	 0.5611358575	-0.0839779348	 2.0675239024	 0.108005
H	-0.2663507472	-1.5573007788	 1.5779255817	 0.131231
H	-1.566817886	 0.3496385061	-2.0092890756	 0.07895
81.1869	115.2375	162.9182	180.0738	281.8066	325.6707	348.8646	391.5403	398.8962	460.9068	506.3707	692.2213	726.6409	772.2415	797.6508	919.4027	938.6639	957.2335	970.4856	980.2442	990.4047	1000.7714	1049.4336	1100.3257	1130.309	1153.7998	1166.4101	1184.1562	1228.609	1276.6536	1301.1184	1344.6971	1370.5589	1406.4314	1438.1331	1476.6787	1483.2351	1493.9164	1498.4658	1691.2784	1856.1897	2966.6476	3019.3817	3034.0391	3040.0531	3057.0178	3067.9961	3112.434	3121.655	3188.6606	3213.1836
CC1(CC=CC1)OC=O	C[C@]1(CC=CC1)OC=O	
InChI=1S/C7H10O2/c1-7(9-6-8)4-2-3-5-7/h2-3,6H,4-5H2,1H3	InChI=1S/C7H10O2/c1-7(9-6-8)4-2-3-5-7/h2-3,6H,4-5H2,1H3
