18
gdb 12789	2.99838	1.87258	1.44582	2.465	67.55	-0.2347	0.065	0.2997	920.7484	0.153198	-384.898905	-384.890802	-384.889858	-384.931207	30.824	
O	 0.2259265912	 0.381607885	 1.0024117044	-0.428137
C	-0.1492533614	 0.3238328005	-0.3738360695	-0.108236
C	-1.4899675004	-0.381317391	-0.4155217015	-0.03733
C	-2.0791847666	-0.9300197248	-1.7596617072	-0.269305
C	-2.1933066669	-2.3233458951	-1.1195881206	-0.109068
C	-0.8093150897	-2.7904350417	-0.7196251313	-0.342582
C	-1.542775219	-1.8032004726	 0.1502267775	 0.425096
O	-1.882182942	-2.0796198995	 1.4611695114	-0.468897
H	 1.1006072749	 0.7761426462	 1.0645469485	 0.28922
H	-0.2232198964	 1.3325411226	-0.8099741836	 0.08697
H	 0.5965970802	-0.2351739341	-0.9595854021	 0.086244
H	-2.2344658744	 0.2325759027	 0.1003798417	 0.08733
H	-3.0363495918	-0.4727396686	-2.016857478	 0.106354
H	-1.4186020253	-0.8746437741	-2.6324942897	 0.092705
H	-3.0185867731	-3.0127155372	-1.2454806931	 0.091594
H	-0.7758276342	-3.7860089262	-0.2892311837	 0.114157
H	 0.0606023528	-2.5261381128	-1.3185440867	 0.094632
H	-1.1670882381	-1.7287706393	 2.0063339434	 0.289253
95.2319	111.967	203.9156	263.7458	307.4132	335.8415	381.5118	399.8781	460.4118	513.5297	660.5992	683.3732	805.8672	850.1231	897.8462	932.4639	957.2393	998.7467	1017.4571	1020.0237	1055.1319	1074.0353	1095.2296	1124.0423	1157.6026	1201.8779	1219.5931	1241.8754	1244.6547	1267.3486	1288.08	1323.7933	1376.5642	1418.6512	1453.1672	1482.2334	1509.252	1522.1426	2972.9223	3001.9263	3038.8237	3066.9006	3096.063	3110.3078	3190.9106	3202.7193	3782.9745	3830.1646
OCC1CC2CC12O	OC[C@H]1C[C@H]2C[C@@]12O	
InChI=1S/C6H10O2/c7-3-5-1-4-2-6(4,5)8/h4-5,7-8H,1-3H2	InChI=1S/C6H10O2/c7-3-5-1-4-2-6(4,5)8/h4-5,7-8H,1-3H2/t4-,5+,6-/m0/s1
