18
gdb 16571	3.00823	2.54166	2.12906	0.7044	65.89	-0.2319	0.0826	0.3145	749.9238	0.157844	-384.952365	-384.946194	-384.94525	-384.982406	25.184	
C	-0.031148528	 1.5743561958	-0.0207083292	-0.216695
C	 1.4717263795	 1.9648425343	-0.0336527395	-0.216681
C	 2.1814050621	 0.5921985198	 0.0164229286	 0.076662
C	 2.3841613682	 0.1025216891	 1.4526308602	-0.081803
O	 1.1580486807	 0.1572043044	 2.1729786689	-0.257741
C	 0.1022718739	-0.490415906	 1.472142737	-0.081806
C	 0.0179851689	 0.0300681654	 0.0349306169	 0.076669
O	 1.2526609916	-0.2987106249	-0.6166310505	-0.272197
H	-0.5646240857	 1.9980152707	 0.8330971716	 0.107853
H	-0.5343980342	 1.9038339074	-0.9323738328	 0.103228
H	 1.7361858699	 2.4936592634	-0.9520035444	 0.103231
H	 1.7452059643	 2.5982945374	 0.8131144952	 0.107847
H	 3.119305111	 0.553077897	-0.5442183877	 0.077127
H	 2.7719175815	-0.928148541	 1.4263344597	 0.09386
H	 3.092755398	 0.732663413	 1.9996181179	 0.104728
H	 0.2649146228	-1.5795804561	 1.4477643033	 0.093861
H	-0.8145765253	-0.2826421004	 2.0330329851	 0.104729
H	-0.7910989093	-0.4629538292	-0.5107933903	 0.077128
150.7035	259.4578	342.7019	378.8262	453.7253	506.4751	603.5943	787.5821	792.3492	814.0592	820.1773	862.7002	892.2458	928.1439	934.1172	1001.2987	1003.3197	1033.4895	1058.1891	1095.5137	1104.4269	1150.4289	1171.9627	1231.4251	1249.244	1252.1214	1294.1969	1303.3418	1322.3036	1340.9893	1357.1955	1376.0197	1379.3395	1413.6465	1477.2509	1485.0672	1494.2649	1503.7945	2981.7815	2987.6426	3064.0284	3070.8296	3075.4005	3078.0355	3081.8115	3087.4436	3106.8901	3126.0332
C1CC2COCC1O2	C1C[C@H]2COC[C@@H]1O2	
InChI=1S/C6H10O2/c1-2-6-4-7-3-5(1)8-6/h5-6H,1-4H2	InChI=1S/C6H10O2/c1-2-6-4-7-3-5(1)8-6/h5-6H,1-4H2/t5-,6+
