20
gdb 116850	4.83401	0.51913	0.47431	4.1967	89.59	-0.2471	-0.0115	0.2357	2345.4163	0.168743	-403.161678	-403.150403	-403.149459	-403.201422	37.642	
C	-0.0880761594	 1.561230684	-0.0007456213	-0.382449
C	-0.0681189833	 0.0317714173	-0.0163417899	-0.158785
C	 0.7923377701	-0.528933594	-1.1671198525	-0.345604
C	 0.8326342092	-1.9841243864	-1.2105593853	 0.102299
C	 0.8579166938	-3.18974525	-1.2356754388	 0.013043
C	 0.9324318955	-4.6401426053	-1.3251078072	 0.252689
O	 1.5760585866	-5.2168893061	-2.1849342771	-0.361543
N	 0.2129043281	-5.2798900897	-0.3544786866	-0.308835
C	 0.1479113394	-6.7234112212	-0.2567281837	-0.338181
H	 0.9207191402	 1.9706384233	 0.1220637467	 0.119202
H	-0.4971944423	 1.9629096233	-0.934362739	 0.119202
H	-0.7028194487	 1.9386481273	 0.8215881588	 0.117636
H	 0.3200276519	-0.3504790927	 0.9343939856	 0.109892
H	-1.0874536298	-0.3581512976	-0.1142652241	 0.109893
H	 0.4129891449	-0.1523930028	-2.1267209019	 0.137248
H	 1.8176910345	-0.1447385396	-1.0801280329	 0.137248
H	-0.2854700158	-4.7117959705	 0.3103312482	 0.25111
H	-0.8812183971	-7.0849819539	-0.3627849734	 0.12623
H	 0.7535255064	-7.1312196744	-1.0666780232	 0.173476
H	 0.5465268259	-7.0772231409	 0.7008754778	 0.12623
9.4371	54.3354	65.8132	74.2051	109.9666	158.5489	199.8238	241.648	296.9591	305.567	385.7158	408.5229	481.2556	570.4677	583.2189	741.4154	762.0308	825.1337	869.5535	890.0763	996.3084	1044.8374	1109.284	1119.4265	1139.7263	1151.8287	1171.9179	1257.9046	1258.4494	1304.5262	1321.3858	1381.0748	1414.1751	1438.2523	1465.6117	1489.934	1491.9197	1499.008	1499.1312	1508.5948	1555.5052	1755.4006	2346.5734	3013.0975	3025.226	3031.3233	3040.4595	3040.683	3073.9397	3076.0649	3101.663	3108.1396	3154.6468	3650.0022
CCCC#CC(=O)NC	CCCC#CC(=O)NC	
InChI=1S/C7H11NO/c1-3-4-5-6-7(9)8-2/h3-4H2,1-2H3,(H,8,9)	InChI=1S/C7H11NO/c1-3-4-5-6-7(9)8-2/h3-4H2,1-2H3,(H,8,9)
