19
gdb 57061	2.6929	1.23366	0.91868	1.2825	77.59	-0.2432	0.025	0.2682	1285.0346	0.156568	-422.963584	-422.953694	-422.95275	-422.999003	35.66	
C	-0.2972886295	 1.5115294489	-0.1145309409	-0.408134
C	 0.0108938006	 0.0202419264	-0.0719393636	-0.053031
C	 1.3363910257	-0.4428738572	-0.719902899	-0.0758
O	 1.8393743741	-0.9370947336	 0.5409735182	-0.288
C	 0.614962318	-0.6015794858	 1.2186978386	 0.127479
C	 0.8459936997	 0.3033954825	 2.439341008	-0.084639
O	-0.4092869739	 0.7182916185	 2.9777856025	-0.420455
C	 1.6765825696	-0.3689938812	 3.4377321266	 0.289996
C	 2.3058261855	-0.9592753319	 4.2747203647	-0.42102
H	 0.5788722717	 2.1153799115	 0.1440959883	 0.118639
H	-0.6075798183	 1.8042925483	-1.123137998	 0.111028
H	-1.0991984979	 1.768327324	 0.5820638642	 0.140705
H	-0.8563422765	-0.5441481088	-0.4232141349	 0.082009
H	 1.2517668288	-1.2426065963	-1.4657486344	 0.100889
H	 1.9698643656	 0.3563753556	-1.1255116223	 0.101066
H	 0.0887782747	-1.5045034027	 1.5626779095	 0.069438
H	 1.3464454713	 1.2207099545	 2.1124835374	 0.120059
H	-0.7456884431	-0.0060654543	 3.5170077508	 0.288871
H	 2.8820825437	-1.4669572084	 5.0084585443	 0.200899
42.9941	72.5147	112.4545	186.423	220.4529	242.6689	249.6121	286.5431	355.1011	390.1666	497.1661	507.5823	586.9375	632.4216	674.6837	750.5033	876.6397	891.1183	919.598	924.2502	1006.2104	1027.7883	1052.7925	1064.9013	1121.5359	1144.6885	1158.9393	1188.215	1239.0131	1258.6366	1279.3802	1299.7578	1349.3698	1378.1765	1386.8244	1411.523	1417.8388	1495.9387	1502.9941	1526.9174	2233.8183	2987.5711	3011.82	3036.034	3051.6757	3064.2468	3073.8301	3100.1377	3123.7781	3503.4057	3807.9211
CC1COC1C(O)C#C	C[C@H]1CO[C@H]1[C@@H](O)C#C	
InChI=1S/C7H10O2/c1-3-6(8)7-5(2)4-9-7/h1,5-8H,4H2,2H3	InChI=1S/C7H10O2/c1-3-6(8)7-5(2)4-9-7/h1,5-8H,4H2,2H3/t5-,6-,7+/m0/s1
