22
gdb 110825	3.26978	1.09012	0.98538	2.1222	81.85	-0.2324	0.0689	0.3013	1309.517	0.193371	-404.295486	-404.285954	-404.28501	-404.32946	36.63	
C	-0.3795977536	 1.5773944046	 0.0097641021	-0.46188
C	-0.0820583628	 0.0788107664	 0.0476621784	 0.322336
C	-1.3938388792	-0.7123112604	 0.1202373967	-0.432841
C	 0.8781369621	-0.5461246912	-1.0079032969	-0.229961
N	 1.7098275742	-1.2314950312	 0.0513702069	-0.163781
C	 2.3385250942	-0.1744072552	 0.8851985663	-0.021319
C	 3.0333369586	 1.0461548572	 0.328623278	-0.101063
O	 4.3396772459	 0.7140066419	-0.1211622962	-0.420426
C	 0.9040635278	-0.4575977154	 1.0974690161	-0.096429
H	 0.5225536063	 2.1905096805	-0.0414842686	 0.120549
H	-0.9998103521	 1.8238216138	-0.8599530438	 0.115877
H	-0.9355463391	 1.8810615643	 0.9042390956	 0.117189
H	-2.016512916	-0.510603785	-0.7583291179	 0.113732
H	-1.2044022303	-1.7891909446	 0.1639571677	 0.127084
H	-1.9702184142	-0.433523111	 1.0098552839	 0.112905
H	 0.4067647788	-1.2984859295	-1.6439765592	 0.109006
H	 1.4333409158	 0.1465941287	-1.6480402709	 0.097606
H	 2.9709286072	-0.6544756797	 1.6324777898	 0.104898
H	 2.4576624332	 1.5338056423	-0.46623308	 0.092228
H	 3.1675895999	 1.7834454516	 1.1276989744	 0.115851
H	 4.2535371872	-0.0379310097	-0.7173304268	 0.290438
H	 0.5758350763	-0.9419100884	 2.0150245546	 0.088001
69.8571	132.7356	183.3521	197.4029	238.583	268.2094	294.5243	340.4055	372.4189	375.8831	435.0682	517.1204	593.9491	629.5193	719.3399	767.4588	859.9321	869.8905	922.8716	936.6075	960.1689	979.5179	1000.9373	1024.9474	1052.6508	1072.5442	1078.8191	1121.334	1175.0902	1213.1293	1224.9581	1239.3864	1265.0093	1268.4992	1293.6568	1346.7089	1371.9553	1400.86	1414.2925	1423.4498	1460.004	1483.8956	1487.9269	1493.5217	1503.7597	1509.7716	1524.8329	3023.6327	3027.6105	3030.9649	3051.7119	3071.3837	3086.1828	3092.372	3103.1211	3107.4723	3110.0239	3121.9636	3129.7686	3807.0568
CC1(C)CN2C(CO)C12	CC1(C)CN2[C@@H](CO)[C@@H]12	
InChI=1S/C7H13NO/c1-7(2)4-8-5(3-9)6(7)8/h5-6,9H,3-4H2,1-2H3	InChI=1S/C7H13NO/c1-7(2)4-8-5(3-9)6(7)8/h5-6,9H,3-4H2,1-2H3/t5-,6-,8?/m0/s1
