17
gdb 47898	2.74053	1.48561	1.05885	1.5778	71.76	-0.2468	-0.0685	0.1783	1105.0045	0.13694	-458.955046	-458.947085	-458.946141	-458.9883	29.607	
O	-0.0718712299	 0.6236161133	-1.3368318821	-0.304377
C	-0.0336948557	 1.3416935088	-0.3563622437	 0.308452
C	-1.402395195	 1.8095390516	 0.1780756005	-0.183989
O	-1.499076581	 2.483323249	 1.412047614	-0.235765
C	-0.8203460536	 3.7102462387	 1.5185580895	 0.020611
O	 0.1268484114	 3.6643651137	 2.5497132937	-0.23763
C	 0.8828134484	 2.453083118	 2.5864202965	-0.128938
C	 1.7057637131	 2.2324046047	 1.3406090848	-0.074031
C	 1.2980355242	 1.7788867694	 0.1479058148	-0.129733
H	-1.8360584933	 2.4080178956	-0.6380887447	 0.132883
H	-2.0213830546	 0.9132381994	 0.2701498318	 0.149254
H	-0.3558793496	 3.9690438546	 0.5537401764	 0.088419
H	-1.5254386285	 4.4968806035	 1.808722085	 0.11969
H	 1.5397500144	 2.5626475696	 3.451180194	 0.117909
H	 0.2151363844	 1.6050554629	 2.7646552237	 0.123932
H	 2.7616551517	 2.480269329	 1.4271811402	 0.114069
H	 2.0456338936	 1.6431215282	-0.6305996444	 0.119244
37.1669	140.4828	220.538	258.6826	280.8392	355.9408	396.6861	475.1211	500.3366	567.0131	631.0774	647.0729	764.2479	808.963	927.6624	955.7142	989.2791	1005.7356	1034.0906	1059.2603	1104.162	1142.5397	1190.8185	1211.7682	1281.8271	1295.1879	1311.4307	1317.8969	1374.263	1394.3739	1420.7744	1446.873	1464.4521	1505.8585	1525.6258	1690.8248	1750.5303	2973.1378	2996.0094	3060.6255	3066.2471	3102.7408	3115.2237	3144.4726	3166.136
O=C1COCOCC=C1	O=C1COCOCC=C1	
InChI=1S/C6H8O3/c7-6-2-1-3-8-5-9-4-6/h1-2H,3-5H2/b2-1-	InChI=1S/C6H8O3/c7-6-2-1-3-8-5-9-4-6/h1-2H,3-5H2/b2-1-
