16
gdb 8763	4.14374	1.25754	1.14965	1.9726	67.45	-0.2618	-0.0459	0.2159	1057.4889	0.12677	-383.713244	-383.704239	-383.703295	-383.746867	32.204	
C	 0.069100305	 1.5808468557	 0.0125851604	-0.395386
C	-0.0081479792	 0.0431850743	 0.0642918248	-0.195896
C	 0.7613051616	-0.4951767868	 1.1823815142	 0.332011
C	 1.3959652934	-0.9330292942	 2.1039285969	-0.449632
C	-1.4857885841	-0.4511188695	 0.1354888884	 0.05418
O	-2.1749110968	 0.1118528595	 1.2119583714	-0.425593
C	-2.2056292475	-0.1564367771	-1.1666381984	 0.129792
O	-3.2361944432	 0.4709627822	-1.1965772057	-0.258142
H	 1.109934352	 1.9093867668	-0.0223874435	 0.130255
H	-0.4454058847	 1.9674047177	-0.8734389977	 0.118401
H	-0.403400624	 2.0049597711	 0.9001273576	 0.151008
H	 0.4153392443	-0.3671623066	-0.8644772907	 0.105913
H	 1.9549688443	-1.32018931	 2.9194900887	 0.197934
H	-1.4549396304	-1.5515508356	 0.2269519451	 0.107402
H	-2.9543373806	 0.5439879316	 0.8278998023	 0.296869
H	-1.7387831	-0.5581689291	-2.0897639037	 0.100883
66.2195	100.7607	155.4503	200.1666	229.15	268.3439	300.3052	336.0996	417.7205	463.7306	527.9562	621.5163	643.4125	652.064	731.3121	807.5789	862.6159	946.0363	985.2237	1010.6176	1108.3684	1124.4184	1175.281	1255.0655	1288.2938	1332.8904	1352.8108	1401.3071	1409.037	1437.7773	1489.2569	1503.2888	1813.9652	2239.2802	2922.1565	2955.479	2999.0048	3046.7134	3120.5104	3148.3705	3504.5473	3691.5804
CC(C#C)C(O)C=O	C[C@@H](C#C)[C@@H](O)C=O	
InChI=1S/C6H8O2/c1-3-5(2)6(8)4-7/h1,4-6,8H,2H3	InChI=1S/C6H8O2/c1-3-5(2)6(8)4-7/h1,4-6,8H,2H3/t5-,6-/m0/s1
