15
gdb 16654	3.47779	2.2001	1.52536	3.0495	60.46	-0.2558	-0.0192	0.2366	810.2469	0.12007	-399.800857	-399.794123	-399.793179	-399.831761	25.806	
O	 0.3169972754	 1.1948567089	 0.6256052066	-0.439153
C	 0.0107731725	-0.0658294297	 0.1069021397	 0.0742
C	-1.4900230613	-0.3435901203	-0.1328251793	-0.281001
C	-1.4581103127	-1.3370674952	-1.3028575071	-0.026772
C	-1.3260961527	-0.8247737226	-2.6927067448	-0.242608
N	-0.1296055286	-1.2774531571	-1.9565546235	-0.11677
C	 0.5900229038	-0.254728144	-1.3006147821	 0.337415
O	 1.4842794874	 0.4087520782	-1.7589812772	-0.334782
H	 1.045576491	 1.5309722811	 0.0812646199	 0.294713
H	 0.4215873077	-0.8677447203	 0.7448733366	 0.102518
H	-1.9850036822	-0.7629719733	 0.7438854302	 0.122235
H	-1.9966256818	 0.5908964091	-0.3930877103	 0.12584
H	-1.8499247253	-2.3371917521	-1.1469587616	 0.109522
H	-1.5953666096	-1.4499738772	-3.5386083371	 0.136461
H	-1.4334849837	 0.2438471246	-2.8615273601	 0.138183
96.0199	203.6336	281.2339	373.5482	380.2695	415.7506	507.635	565.5005	673.5631	703.5485	797.7294	821.2673	860.6916	931.337	971.2541	998.5893	1063.5883	1092.5564	1121.5534	1132.494	1163.1516	1167.7219	1191.3459	1249.2294	1288.5951	1297.3613	1365.7874	1385.8832	1421.9208	1494.0994	1512.711	1841.9524	2953.9708	3064.9415	3112.782	3125.5435	3162.199	3203.6537	3710.0591
OC1CC2CN2C1=O	O[C@H]1C[C@H]2CN2C1=O	
InChI=1S/C5H7NO2/c7-4-1-3-2-6(3)5(4)8/h3-4,7H,1-2H2	InChI=1S/C5H7NO2/c7-4-1-3-2-6(3)5(4)8/h3-4,7H,1-2H2/t3-,4-,6?/m0/s1
