15
gdb 69192	2.03892	1.71498	1.15721	3.6818	72.68	-0.239	-0.0197	0.2194	1067.8207	0.109912	-420.572747	-420.564356	-420.563412	-420.605708	31.677	
O	-0.0749447687	 1.4026612453	 0.0713287379	-0.456354
C	-0.0137326487	 0.0305271074	 0.0281107799	 0.411846
C	-0.3097826193	-0.7835229012	-1.1746490429	-0.348051
C	-1.2293741641	-0.9176902388	 0.0538341017	-0.250135
C	-0.5461126333	-1.7565167328	 1.0815710954	 0.432616
O	-0.8614550622	-2.686512449	 1.7602808915	-0.303248
C	 0.7298613732	-0.8229062382	 1.0906619942	-0.385079
C	 2.032784048	-1.3690873159	 0.7874977947	 0.310146
C	 3.1025555472	-1.8393166389	 0.5017009878	-0.449075
H	 0.6437239164	 1.7594807339	-0.4628669897	 0.298711
H	-0.7883222054	-0.2461312769	-1.9871597021	 0.132982
H	 0.3351915863	-1.6018577351	-1.4786105814	 0.140868
H	-2.2888474284	-0.7106070848	-0.025291022	 0.124835
H	 0.7250128456	-0.2937167613	 2.0510959006	 0.138994
H	 4.0497171435	-2.2570947237	 0.2650467845	 0.200944
95.0238	115.4465	155.7377	244.4303	296.9101	355.9728	383.9358	410.7795	519.4823	547.5838	576.9998	612.5549	643.3308	653.2245	741.3083	793.7805	832.2365	929.176	961.5656	984.9805	1024.0631	1057.4435	1078.4868	1108.5892	1114.8798	1205.7241	1248.1265	1298.2195	1318.9872	1413.7853	1495.0597	1897.4595	2230.1365	3050.3544	3126.382	3205.8907	3218.7092	3502.0554	3796.8186
OC12CC1C(=O)C2C#C	O[C@]12C[C@H]1C(=O)[C@H]2C#C	
InChI=1S/C7H6O2/c1-2-4-6(8)5-3-7(4,5)9/h1,4-5,9H,3H2	InChI=1S/C7H6O2/c1-2-4-6(8)5-3-7(4,5)9/h1,4-5,9H,3H2/t4-,5+,7+/m1/s1
