15
gdb 9324	4.07159	1.07194	0.88262	3.9498	66.69	-0.2548	-0.0212	0.2336	1249.2938	0.117021	-399.784802	-399.775809	-399.774865	-399.819495	31.095	
O	 0.1337704328	 1.232507128	-0.4299554668	-0.424116
C	-0.138679651	-0.0957355116	 0.0026745589	-0.079828
C	-1.6317703769	-0.170837328	 0.2859447065	-0.153126
N	-2.3960829423	 0.1683948061	-0.8982111802	-0.317031
C	-3.3957882519	-0.617252007	-1.3845924559	 0.290723
O	-3.7728251969	-1.6532034351	-0.8646335471	-0.36456
C	-3.9924484581	-0.0983734585	-2.6112408278	 0.21809
C	-4.5068879509	 0.301283649	-3.6217192247	-0.406646
H	 1.0423860932	 1.274419398	-0.7408382911	 0.294545
H	 0.1275078134	-0.8291743104	-0.7723114689	 0.102659
H	 0.4190228882	-0.3438153094	 0.9182275412	 0.097395
H	-1.9227309225	-1.1789957334	 0.5869726194	 0.149678
H	-1.8757254104	 0.5173049899	 1.1058148612	 0.120183
H	-2.1210715516	 0.9938495725	-1.4070306134	 0.264053
H	-4.970754125	 0.64363121	-4.5144079814	 0.207982
37.7331	78.3508	109.6005	170.6256	258.3292	261.6775	285.0067	341.8782	495.8268	537.9529	546.1873	598.102	655.5941	674.8153	766.2746	830.6519	913.1136	965.8931	1081.3683	1104.4194	1121.2269	1211.962	1243.3284	1262.5214	1308.9626	1391.2261	1453.3718	1486.9697	1515.2986	1532.04	1755.2806	2226.8877	2985.9685	3015.653	3035.6884	3128.5297	3497.2063	3641.7006	3839.0305
OCCNC(=O)C#C	OCCNC(=O)C#C	
InChI=1S/C5H7NO2/c1-2-5(8)6-3-4-7/h1,7H,3-4H2,(H,6,8)	InChI=1S/C5H7NO2/c1-2-5(8)6-3-4-7/h1,7H,3-4H2,(H,6,8)
