16
gdb 50474	4.28106	1.04315	0.88878	2.6387	66.13	-0.2354	-0.0503	0.1851	1237.2299	0.124468	-475.049328	-475.041066	-475.040122	-475.083016	29.513	
O	-0.0683715009	-0.0023480376	-0.066934848	-0.236701
C	 0.0216644767	 1.1891091211	-0.2113724392	 0.150163
C	 1.3338254158	 1.941797413	-0.094373445	-0.09443
C	 1.3416628263	 2.6673555129	 1.263902375	-0.075413
O	 2.5798343744	 3.3435142388	 1.5087600102	-0.225134
C	 3.761883869	 2.8123362572	 1.1021752779	 0.39629
O	 4.7873451106	 3.3048824591	 1.4807258882	-0.316554
C	 3.7334803463	 1.6701350856	 0.0852093347	-0.306631
N	 2.456790454	 1.0398077661	-0.218161559	-0.293941
H	-0.8720178164	 1.8230258501	-0.3964978369	 0.097486
H	 1.3720344686	 2.6995213627	-0.8915993279	 0.109668
H	 0.5688730294	 3.4391518535	 1.3299367367	 0.129641
H	 1.1725706407	 1.9369575807	 2.0661285824	 0.123816
H	 4.1620840001	 2.1061766227	-0.829184841	 0.150267
H	 4.4519629907	 0.9193823105	 0.4211881683	 0.152464
H	 2.2853763947	 0.2091991935	 0.3364537637	 0.239008
62.5477	105.1022	119.2121	183.2086	249.5218	337.681	413.97	456.1354	516.3324	548.0566	668.2227	713.3205	763.5663	775.338	875.4593	926.5207	939.8444	1023.8869	1092.9081	1097.5779	1115.3831	1197.6213	1214.091	1257.8333	1271.5308	1310.9102	1357.2688	1373.0894	1417.1838	1424.4724	1457.8378	1488.9511	1508.5405	1828.6137	1852.4683	2904.4134	3002.5797	3009.0885	3022.9407	3087.5857	3112.1266	3552.1734
O=CC1COC(=O)CN1	O=C[C@H]1COC(=O)CN1	
InChI=1S/C5H7NO3/c7-2-4-3-9-5(8)1-6-4/h2,4,6H,1,3H2	InChI=1S/C5H7NO3/c7-2-4-3-9-5(8)1-6-4/h2,4,6H,1,3H2/t4-/m0/s1
