16
gdb 125939	4.57641	1.26368	1.03096	3.3484	70.95	-0.2263	-0.0094	0.2169	1120.1216	0.125643	-437.873669	-437.866487	-437.865543	-437.905583	27.744	
C	 0.1753250814	 1.5399744683	 0.0649813224	-0.401226
C	 0.0609488393	 0.0315863195	-0.0160563323	 0.116317
C	 0.7573111913	-0.6244949672	-1.2584392745	-0.387754
C	 1.4101698803	-1.8072950421	-0.6130836822	 0.316561
N	 2.0465806565	-2.8865757746	-0.9717603932	-0.234838
O	 2.4003598054	-3.4931256198	 0.2389838649	-0.182242
C	 1.9534196097	-2.7444311491	 1.2905082201	-0.082378
C	 1.3196823722	-1.6612938387	 0.7864014078	 0.226034
O	 0.6738383002	-0.5460763707	 1.1908409328	-0.294127
H	 1.2254268607	 1.8473133756	 0.0570291239	 0.131758
H	-0.3295234905	 2.0017655394	-0.789370641	 0.126302
H	-0.2889869362	 1.912781278	 0.9816051499	 0.136726
H	-0.9927389801	-0.2725760402	 0.0062804801	 0.101367
H	 0.0341069472	-0.8799011534	-2.0358989434	 0.140376
H	 1.5000533539	 0.0509564968	-1.6981110407	 0.135924
H	 2.1729166387	-3.1284552318	 2.2716125553	 0.151201
61.7638	228.9266	242.7737	294.6114	335.651	439.026	488.0215	579.9888	588.1443	691.2048	725.3127	771.8579	780.9277	822.1322	892.1577	901.146	926.13	960.3106	1054.0075	1081.4355	1100.8303	1132.1268	1191.0285	1211.2069	1272.9851	1278.6134	1354.9964	1379.3076	1411.3532	1453.3033	1482.5307	1484.0748	1497.311	1576.074	1699.1326	3028.8467	3042.8632	3046.7987	3108.8316	3117.4049	3126.1808	3289.5994
CC1CC2=NOC=C2O1	C[C@H]1Cc2nocc2O1	
InChI=1S/C6H7NO2/c1-4-2-5-6(9-4)3-8-7-5/h3-4H,2H2,1H3	InChI=1S/C6H7NO2/c1-4-2-5-6(9-4)3-8-7-5/h3-4H,2H2,1H3/t4-/m0/s1
