19
gdb 128461	3.63158	1.08179	0.8723	3.6361	78.21	-0.2298	0.0287	0.2586	1339.6047	0.160108	-419.221374	-419.212297	-419.211353	-419.256138	32.73	
C	-0.9107781277	 1.5562771758	 0.2900038295	-0.238279
O	-0.589670985	 0.2158824478	 0.5903757234	-0.261176
C	-1.2258858699	-0.7507275861	-0.2418382825	 0.006092
C	-0.5439048032	-0.8762617412	-1.6080813195	-0.396143
C	-1.2032747982	-2.0456603899	 0.5217405409	 0.385063
C	-1.4953617563	-3.3522757762	 0.1736707269	-0.326812
C	-1.3067935727	-4.087101442	 1.363316184	-0.003518
N	-0.9236174219	-3.3106820736	 2.3739933073	-0.237259
N	-0.8767082932	-2.0785815814	 1.8351349935	-0.233891
H	-0.4248499934	 2.177663487	 1.0458881493	 0.132554
H	-0.5460617831	 1.8637344522	-0.6997437625	 0.114564
H	-1.996826144	 1.730756073	 0.3298065047	 0.11131
H	-2.2748324883	-0.4435345722	-0.3958892286	 0.087216
H	-0.5972894065	 0.0644626904	-2.1631522911	 0.116828
H	 0.5053055576	-1.1540658361	-1.4788367096	 0.134992
H	-1.0365371238	-1.646488746	-2.2081979029	 0.127737
H	-1.8050513152	-3.7189211153	-0.7914909901	 0.097349
H	-1.4319667293	-5.1483989949	 1.5215090753	 0.107614
H	-0.5797611458	-1.2858094012	 2.3785471119	 0.275758
40.8545	71.0503	161.9205	166.5719	206.0225	249.1632	322.1296	375.663	429.6079	472.8879	583.9337	662.882	705.5487	746.3534	800.335	858.4055	891.3996	940.4626	1000.9485	1048.0413	1065.1092	1082.9975	1112.1555	1129.5697	1158.4457	1183.8945	1218.9492	1242.0741	1291.5854	1345.7014	1358.5627	1373.0264	1403.1011	1437.5644	1477.8312	1482.9254	1490.9391	1499.3916	1502.7212	1511.9303	1596.5201	2947.6439	2985.6443	3038.8734	3048.6945	3117.2224	3119.6407	3131.0215	3242.004	3267.45	3682.0381
COC(C)C1=CC=NN1	CO[C@@H](C)c1ccn[nH]1	
InChI=1S/C6H10N2O/c1-5(9-2)6-3-4-7-8-6/h3-5H,1-2H3,(H,7,8)	InChI=1S/C6H10N2O/c1-5(9-2)6-3-4-7-8-6/h3-5H,1-2H3,(H,7,8)/t5-/m0/s1
