16
gdb 7885	3.69577	1.65531	1.20829	2.8844	67.32	-0.2482	-0.0267	0.2214	983.6654	0.12926	-383.772508	-383.76462	-383.763676	-383.80477	29.151	
C	 0.0163511384	 1.4918056033	 0.0524734738	-0.487278
C	 0.0118373875	-0.0017894382	-0.0037043933	 0.31144
C	 0.0564406004	-0.768129487	-1.1004185295	-0.191843
C	-0.0339548359	-2.2377611497	-0.790962752	 0.024641
O	 0.8920214066	-3.0495760087	-1.4757841132	-0.441819
C	 0.2200216994	-2.2395860875	 0.7266731011	 0.35942
O	 0.6740910758	-3.1847621828	 1.3186071972	-0.314884
C	-0.0538982193	-0.8362933251	 1.2610495436	-0.413445
H	 0.8544370274	 1.8594659936	 0.6579404538	 0.13222
H	 0.0955282395	 1.930054228	-0.9458442244	 0.130543
H	-0.8983602507	 1.8744126877	 0.5230048863	 0.130227
H	 0.1070219575	-0.3966291716	-2.1174418245	 0.105395
H	-1.0639801204	-2.60498234	-0.9681116519	 0.091511
H	 1.159783216	-3.7320822311	-0.8440876826	 0.292377
H	 0.6746311815	-0.5536996289	 2.0297331484	 0.134866
H	-1.0432402735	-0.799858492	 1.7400541371	 0.136626
77.3655	146.8985	194.0214	249.621	289.089	352.7042	401.5055	435.7078	500.631	564.8707	599.4125	706.4763	776.2453	837.9126	876.4929	959.1925	997.8044	1038.763	1046.6473	1098.7098	1131.6243	1159.9521	1189.5529	1225.7813	1277.0889	1332.8851	1349.4181	1408.3309	1418.389	1449.1012	1477.1508	1486.0348	1708.4534	1850.2209	2905.6798	3011.3538	3019.3657	3064.4986	3066.2427	3114.8967	3201.1446	3741.2343
CC1=CC(O)C(=O)C1	CC1=C[C@@H](O)C(=O)C1	
InChI=1S/C6H8O2/c1-4-2-5(7)6(8)3-4/h2,5,7H,3H2,1H3	InChI=1S/C6H8O2/c1-4-2-5(7)6(8)3-4/h2,5,7H,3H2,1H3/t5-/m1/s1
