22
gdb 11469	3.9018	1.22703	1.12138	1.314	77.8	-0.2591	0.0746	0.3338	1181.5371	0.201302	-350.226564	-350.217802	-350.216858	-350.260391	33.264	
C	 0.0162469099	 1.5253687262	 0.1472063511	-0.384899
C	 0.0023041396	 0.0022289293	-0.0150743109	-0.190869
C	 0.7323170371	-0.5001800687	-1.2652761178	 0.069112
C	 2.2482505665	-0.1990708491	-1.2999295726	-0.201424
C	 2.8026388822	-1.2661404262	-2.2535566178	-0.236201
C	 2.0544217727	-2.5386701836	-1.8221628495	 0.130602
O	 2.614870718	-3.0899951062	-0.6285114381	-0.441297
C	 0.6386895454	-2.0434996188	-1.4608011397	-0.233218
H	 1.0360714536	 1.9096611853	 0.252433034	 0.117022
H	-0.4351105372	 2.0196225872	-0.7209262427	 0.110166
H	-0.5461028448	 1.8342182253	 1.0340735548	 0.109589
H	 0.453193856	-0.4684007299	 0.8691358831	 0.099255
H	-1.0380836801	-0.3471201592	-0.0472514011	 0.09066
H	 0.2764135283	-0.0144912385	-2.1395246459	 0.060659
H	 2.4773045885	 0.8225432072	-1.6142277834	 0.089296
H	 2.6783382946	-0.3483559548	-0.3024805631	 0.103539
H	 2.5426136788	-1.0224753518	-3.2919627669	 0.092387
H	 3.8911214131	-1.3850014411	-2.209197882	 0.080083
H	 2.0378051946	-3.3011952936	-2.6137165578	 0.053842
H	 3.5293685219	-3.3257946899	-0.8157296395	 0.276932
H	 0.3192009274	-2.5500162656	-0.5456630966	 0.111939
H	-0.0804168563	-2.3018160235	-2.2431859475	 0.092823
30.826	114.6068	190.5924	206.7196	244.5773	323.2527	363.5206	393.0473	426.3923	438.9471	570.6604	700.6105	776.6491	805.2713	845.036	864.1854	917.5491	944.7514	953.783	990.52	1018.2955	1029.536	1041.5535	1068.7826	1100.3032	1153.9625	1196.438	1203.7304	1222.0987	1253.8271	1291.6297	1304.493	1318.6205	1325.434	1340.5085	1365.2966	1373.6176	1390.6871	1412.0567	1420.667	1477.5397	1482.368	1487.6886	1496.2826	1500.9438	1507.9775	2991.8097	2995.3377	3012.8812	3025.624	3029.4366	3039.1361	3045.7548	3058.5866	3069.792	3094.854	3096.1745	3102.3426	3103.2974	3810.707
CCC1CCC(O)C1	CC[C@H]1CC[C@@H](O)C1	
InChI=1S/C7H14O/c1-2-6-3-4-7(8)5-6/h6-8H,2-5H2,1H3	InChI=1S/C7H14O/c1-2-6-3-4-7(8)5-6/h6-8H,2-5H2,1H3/t6-,7+/m0/s1
