22
gdb 60967	3.77585	0.85135	0.78938	3.9729	84.24	-0.2344	0.0288	0.2633	1544.5485	0.193683	-404.364327	-404.354363	-404.353419	-404.399943	36.113	
C	-0.1542741233	 1.5301780249	-0.0215342147	-0.392596
C	-0.0294273669	 0.0108302872	 0.0567751055	 0.029455
C	 1.0635832209	-0.5986553404	-0.8740309824	-0.25892
C	 2.016148587	-0.6699421068	 0.3554710958	 0.068683
C	 0.7775028031	-0.5109129023	 1.2852696366	-0.258902
N	 2.9466367702	-1.7733104758	 0.5236849916	-0.056107
C	 4.3616133653	-1.4791632631	 0.6989269259	-0.356131
C	 2.5345383884	-3.0718217221	 0.5215512716	 0.150074
O	 3.2505177783	-4.0449448369	 0.6556688742	-0.349392
H	 0.8185519938	 2.0237434802	 0.0873134784	 0.113984
H	-0.5753695838	 1.8410370111	-0.9836239618	 0.11795
H	-0.8077511541	 1.9123390628	 0.7699775064	 0.117949
H	-1.0180170647	-0.4414718367	-0.0558047628	 0.075148
H	 0.7874336447	-1.5922976711	-1.2346182033	 0.109861
H	 1.3964640522	 0.0014149901	-1.7256030041	 0.099885
H	 2.618686563	 0.2393467883	 0.3983068031	 0.090403
H	 0.8837933632	 0.1585154208	 2.1435423404	 0.099883
H	 0.4066321314	-1.4755713473	 1.6395387863	 0.109857
H	 4.5270624627	-0.8683613149	 1.5940356107	 0.124573
H	 4.8883869488	-2.4268766076	 0.8077543427	 0.168994
H	 4.7605942013	-0.9410530373	-0.1687988852	 0.124577
H	 1.4416808186	-3.1623052233	 0.3805235251	 0.070771
45.2908	80.3462	101.7954	136.877	216.2901	239.4521	293.4734	332.201	352.6401	356.8136	411.5488	457.8757	564.2749	762.4164	803.2533	816.8269	885.3098	892.5742	926.1278	960.6285	969.2321	1032.769	1040.6244	1061.3436	1114.8095	1135.4213	1147.4059	1158.0387	1217.0153	1232.0978	1263.5833	1270.1697	1274.107	1279.1053	1342.6558	1370.6108	1412.8615	1431.3087	1447.2855	1473.2264	1474.9329	1496.4903	1496.771	1501.7312	1502.2775	1520.6563	1788.2933	2956.3481	3021.7762	3026.0943	3056.6834	3057.5322	3065.6809	3073.7551	3082.1098	3094.357	3097.2557	3114.4884	3120.9885	3159.0095
CC1CC(C1)N(C)C=O	C[C@H]1C[C@@H](C1)N(C)C=O	
InChI=1S/C7H13NO/c1-6-3-7(4-6)8(2)5-9/h5-7H,3-4H2,1-2H3	InChI=1S/C7H13NO/c1-6-3-7(4-6)8(2)5-9/h5-7H,3-4H2,1-2H3/t6-,7-
