18
gdb 36922	5.19245	0.83281	0.78215	2.1041	72.78	-0.2504	0.0189	0.2693	1447.6599	0.148595	-439.072525	-439.064291	-439.063347	-439.106817	29.495	
C	-0.0670480771	 1.5101911097	 0.3014344688	-0.237898
C	-0.1307221717	 0.0025928743	 0.2981548195	 0.101537
C	-1.3102133916	-0.7258528555	-0.181572431	-0.183045
O	-0.1403837808	-0.6184219103	-0.994122935	-0.2402
C	 1.3499054991	 2.0281763573	 0.0209480259	 0.020293
C	 1.4540563955	 3.5763474238	-0.0522904879	-0.128805
O	 2.457901955	 3.9146108027	 0.9364884281	-0.220246
C	 2.7997307252	 2.7384087221	 1.5122106746	 0.123797
N	 2.2787339534	 1.6567375898	 1.1110781541	-0.274942
H	-0.7514818308	 1.8974042507	-0.4627669053	 0.102827
H	-0.4015058448	 1.892126474	 1.2747569057	 0.105054
H	 0.5224525034	-0.4883914417	 1.0182626475	 0.115791
H	-1.5260545654	-1.7226509928	 0.200732251	 0.114975
H	-2.1780579682	-0.1696631784	-0.5356692163	 0.108711
H	 1.7035643362	 1.5638384061	-0.906570705	 0.1092
H	 1.7904208893	 3.9509008393	-1.0217032241	 0.12459
H	 0.5226050281	 4.0822445188	 0.223081817	 0.115569
H	 3.530928635	 2.8289466002	 2.3081749923	 0.142793
54.2897	70.2891	95.3711	148.5119	296.477	329.8858	404.7008	462.7857	589.8778	723.8814	791.6572	823.9812	872.0095	881.438	916.3193	958.8914	965.6118	966.9229	1000.6795	1046.7675	1088.8053	1121.6826	1131.673	1143.6696	1158.9231	1174.5298	1216.5274	1250.3556	1289.7173	1303.195	1316.3969	1328.2684	1374.2343	1384.5515	1445.3708	1464.0646	1516.8309	1532.0343	1708.8567	3021.9849	3041.3679	3046.3499	3072.9	3079.0775	3105.0374	3129.9184	3164.8548	3214.2916
C(C1CO1)C1COC=N1	C([C@H]1CO1)[C@H]1COC=N1	
InChI=1S/C6H9NO2/c1(6-3-9-6)5-2-8-4-7-5/h4-6H,1-3H2	InChI=1S/C6H9NO2/c1(6-3-9-6)5-2-8-4-7-5/h4-6H,1-3H2/t5-,6-/m0/s1
