23
gdb 101943	1.77548	1.43271	0.89407	1.7663	85.44	-0.2563	0.0819	0.3382	1396.7009	0.204739	-388.255952	-388.246012	-388.245068	-388.291539	36.642	
C	-1.3817697679	-2.1280667884	-0.6520277791	-0.382215
C	-0.4243354719	-1.0121243621	-0.2144947088	-0.19226
C	 0.7580026854	-0.7245879689	-1.1685930701	-0.037523
C	 1.7127290975	-1.9006749607	-1.2976100125	 0.030287
C	 3.1532237746	-1.6659319571	-1.673217733	-0.265166
C	 2.801978129	-2.1101944609	-0.2745330978	-0.282683
C	 0.2882974374	-0.2596365303	-2.5345770884	 0.102605
C	-0.0283598387	 1.1469189193	-2.8130225239	-0.188204
O	 1.1919564102	 0.5655732172	-3.2766050968	-0.240652
H	-1.8670052869	-1.9005204794	-1.6066830324	 0.117056
H	-0.8673143635	-3.0880522068	-0.7592440739	 0.120966
H	-2.1739071121	-2.2644017042	 0.0906938881	 0.11465
H	-0.9955203385	-0.0849541632	-0.0805850873	 0.092282
H	-0.0083675977	-1.2627533885	 0.7685618885	 0.100568
H	 1.3248250914	 0.1139102848	-0.7414744359	 0.070677
H	 1.2647517527	-2.8045904468	-1.7025487202	 0.080004
H	 3.63647016	-2.3776673458	-2.3332654701	 0.108671
H	 3.468070166	-0.6392218587	-1.8213119373	 0.124558
H	 2.8913336943	-1.3822115435	 0.5259200674	 0.108009
H	 3.0456455053	-3.1242349755	 0.0228065314	 0.10832
H	-0.2056291589	-1.0144718288	-3.1486834204	 0.089473
H	-0.7500986712	 1.4035903237	-3.5874475064	 0.111367
H	 0.0798205033	 1.8866246844	-2.0199744911	 0.10921
59.3523	72.5886	93.0656	154.1589	192.7503	199.2594	271.647	297.5518	363.0315	427.6525	449.8378	565.1893	759.7387	768.8646	825.9354	831.6641	855.9732	869.7069	890.7564	943.0243	952.7475	977.4065	1026.9097	1045.6664	1060.0662	1075.9992	1082.59	1110.2316	1136.3708	1154.2526	1168.9394	1189.7138	1198.8836	1199.6813	1227.2604	1281.4638	1294.6884	1297.7794	1315.8368	1374.2465	1415.1699	1419.3319	1453.4286	1472.591	1483.4667	1503.9723	1505.5921	1507.5724	1528.985	3011.1562	3026.8281	3038.1379	3058.3282	3077.6563	3094.0888	3103.8787	3108.0917	3127.3638	3134.3429	3140.8595	3162.7699	3207.0136	3226.7536
CCC(C1CC1)C1CO1	CC[C@@H](C1CC1)[C@H]1CO1	
InChI=1S/C8H14O/c1-2-7(6-3-4-6)8-5-9-8/h6-8H,2-5H2,1H3	InChI=1S/C8H14O/c1-2-7(6-3-4-6)8-5-9-8/h6-8H,2-5H2,1H3/t7-,8+/m0/s1
