21
gdb 61527	3.25023	0.88479	0.87017	1.1835	84.94	-0.2557	0.0326	0.2883	1461.3112	0.179387	-387.040617	-387.030262	-387.029318	-387.076474	38.586	
C	 0.2376202287	 1.4131455131	-0.0586502192	-0.47419
C	 0.1009425162	-0.0981425661	-0.0358783288	 0.410106
C	-1.2398365065	-0.6462888337	-0.4991364866	-0.287657
C	-1.6293380054	-0.2529524636	-1.9424345089	-0.070437
O	-0.6299096535	-0.596721386	-2.8971973798	-0.411249
C	-2.9335891565	-0.822667394	-2.2976627466	 0.299759
C	-3.9826974206	-1.3385913224	-2.5788803867	-0.438574
C	 1.3363932136	-0.9175453068	-0.3138414213	-0.278528
C	 0.7835554625	-0.8457883203	 1.0889244692	-0.328267
H	 1.1933606322	 1.7240810852	 0.3740756546	 0.112797
H	 0.2002902692	 1.806659728	-1.0802760735	 0.128795
H	-0.5603198157	 1.8953591585	 0.5193319832	 0.111256
H	-1.238376721	-1.7413542205	-0.4298128368	 0.093732
H	-2.0398888312	-0.296994124	 0.167097677	 0.108106
H	-1.698273638	 0.8393237753	-2.0034285831	 0.120912
H	-0.6298565902	-1.5564323319	-2.984257156	 0.28336
H	-4.916003141	-1.7739301321	-2.8387491136	 0.197829
H	 1.2248302316	-1.8471885348	-0.8605580038	 0.098298
H	 2.2592004796	-0.3901264363	-0.5306362491	 0.109577
H	 1.3285302484	-0.2673853451	 1.8276180129	 0.108011
H	 0.2937751274	-1.7262512524	 1.492461887	 0.106363
27.0982	90.5767	118.4027	182.3804	217.7724	240.4059	286.4065	309.8006	339.0758	368.1142	379.8798	471.1513	544.5763	570.7858	630.2664	671.7918	732.041	779.1783	837.3636	870.7657	929.033	945.4154	949.6041	956.8568	1031.9477	1046.5199	1074.2837	1076.7205	1089.2594	1126.4771	1181.5989	1185.4277	1273.6623	1306.4435	1326.7347	1346.7273	1387.1327	1418.7655	1422.3065	1467.5399	1474.1658	1493.3694	1501.8281	1511.386	2230.5427	3016.1912	3022.8485	3042.5468	3063.4285	3084.1453	3100.0551	3125.7364	3133.9678	3203.5177	3218.8867	3503.0138	3806.0897
CC1(CC(O)C#C)CC1	CC1(C[C@@H](O)C#C)CC1	
InChI=1S/C8H12O/c1-3-7(9)6-8(2)4-5-8/h1,7,9H,4-6H2,2H3	InChI=1S/C8H12O/c1-3-7(9)6-8(2)4-5-8/h1,7,9H,4-6H2,2H3/t7-/m0/s1
