18
gdb 15339	3.81591	1.02094	0.87271	2.0192	78.16	-0.2438	0.0302	0.274	1376.0343	0.151158	-347.766353	-347.756844	-347.7559	-347.802403	32.474	
C	 0.1882611717	 1.5375429932	 0.0751442388	-0.376042
C	-0.3692898497	 0.1714970943	-0.3426201082	-0.220043
C	 0.517833443	-0.514208745	-1.3509111315	 0.093513
O	 1.7548729763	-1.0446783838	-0.8754509096	-0.248853
C	 0.7659370823	-1.9741972444	-1.3613472162	-0.169917
C	 0.1682418812	-2.8768938866	-0.4151711583	 0.089481
C	-0.3306018921	-3.665544708	 0.3469231211	 0.10104
C	-0.9266389131	-4.6132572868	 1.2761233696	-0.501251
H	 1.1818410285	 1.4260347228	 0.5191526581	 0.135022
H	 0.2779964276	 2.2120280524	-0.7835912804	 0.113666
H	-0.4627400124	 2.0186214496	 0.810875238	 0.113787
H	-0.4798492419	-0.4782457528	 0.5306284021	 0.116331
H	-1.3675090943	 0.2896998673	-0.7838691926	 0.100044
H	 0.6052175591	-0.005192397	-2.3147136049	 0.087537
H	 1.0321510871	-2.4258822701	-2.3174949768	 0.107895
H	-2.0074858186	-4.4586116053	 1.3664897241	 0.150601
H	-0.7633883848	-5.6459023813	 0.9490772372	 0.152191
H	-0.4913143599	-4.5088533785	 2.2759852797	 0.154996
21.1895	66.4204	85.6721	129.9693	200.0218	222.281	274.6189	328.986	392.8912	451.5983	526.2656	582.9284	734.7359	765.931	833.3556	881.3348	933.6386	1009.9671	1049.3552	1051.4995	1055.9431	1092.9223	1132.5121	1177.9283	1192.7016	1287.4891	1289.5054	1342.1451	1393.9715	1408.311	1413.5868	1463.4007	1475.6136	1476.3365	1477.5296	1498.7785	1508.7302	2368.4432	3027.8702	3029.1883	3035.3887	3067.7141	3086.564	3088.952	3091.2439	3101.4336	3107.1625	3116.7935
CCC1OC1C#CC	CC[C@H]1O[C@H]1C#CC	
InChI=1S/C7H10O/c1-3-5-7-6(4-2)8-7/h6-7H,4H2,1-2H3	InChI=1S/C7H10O/c1-3-5-7-6(4-2)8-7/h6-7H,4H2,1-2H3/t6-,7+/m1/s1
