19
gdb 27531	5.17853	0.93412	0.8488	3.118	84.06	-0.1987	0.0347	0.2334	1409.0423	0.160464	-382.108212	-382.099479	-382.098534	-382.143293	32.226	
C	 0.3738757719	 1.4729614606	 0.0450533762	-0.498902
C	 0.0842369773	 0.0102078946	-0.0143590192	 0.338852
N	 0.1122961712	-0.7392948987	-1.0966213062	-0.352923
C	-0.2171321499	-2.019743508	-0.695453317	 0.291271
C	-0.4475814213	-2.0354417342	 0.6583402947	-0.213015
N	-0.2519763897	-0.7340710764	 1.0785965536	-0.274531
C	-0.2760022668	-3.1173080041	-1.6826450295	-0.091284
C	 0.1543389133	-4.5256888827	-1.3247196694	-0.263316
C	-1.2990215004	-4.2294598067	-1.5674050385	-0.263359
H	 1.2244991087	 1.6969369161	 0.6994717334	 0.128955
H	 0.6141776476	 1.8195540167	-0.9607267828	 0.15746
H	-0.4851449927	 2.0471324998	 0.4116624842	 0.128968
H	-0.7231107766	-2.8167253684	 1.3470166887	 0.120404
H	-0.3423745599	-0.4000057278	 2.0232162673	 0.258772
H	-0.0396821378	-2.779552221	-2.6852927148	 0.092885
H	 0.697543624	-5.0986549368	-2.0684319507	 0.111261
H	 0.4798546835	-4.6974333946	-0.3040754935	 0.108628
H	-1.9664898404	-4.1988721969	-0.7125798364	 0.108618
H	-1.757854582	-4.5981821913	-2.4784386601	 0.111258
16.1013	73.4312	152.6733	158.4273	253.3838	299.5373	412.4217	431.5383	510.4015	611.9254	663.4259	704.9119	706.2469	737.2902	791.1738	818.7439	909.9195	914.9583	971.1376	993.8634	1044.5617	1057.2507	1061.4442	1071.5218	1080.6188	1115.4632	1137.8637	1202.5257	1213.9728	1240.6082	1260.5705	1362.5655	1411.0679	1420.0911	1441.3598	1467.6075	1483.9566	1501.3336	1502.1869	1574.528	1604.1352	3027.9936	3076.0928	3127.0889	3131.4839	3148.282	3176.0261	3206.3491	3223.4852	3268.5368	3663.4793
CC1=NC(=CN1)C1CC1	Cc1nc(c[nH]1)C1CC1	
InChI=1S/C7H10N2/c1-5-8-4-7(9-5)6-2-3-6/h4,6H,2-3H2,1H3,(H,8,9)	InChI=1S/C7H10N2/c1-5-8-4-7(9-5)6-2-3-6/h4,6H,2-3H2,1H3,(H,8,9)
