19
gdb 110018	2.37801	1.4461	1.03442	2.2732	70.75	-0.2547	-0.0377	0.2171	1179.2658	0.158702	-460.182364	-460.173502	-460.172558	-460.215998	33.172	
C	 0.4463235972	 1.350223716	-0.5033449432	-0.401881
C	-0.0936266994	 0.0869552583	 0.1674117179	 0.07892
O	-0.1646296024	-1.0058796312	-0.7731341626	-0.263461
C	 1.0617981617	-1.7065878718	-0.7667015461	-0.180046
C	 1.7041825964	-1.4162790476	 0.5864287631	 0.368898
O	 2.7663742088	-1.8347429717	 0.9824821824	-0.328642
C	 0.76876528	-0.4630203351	 1.3208355869	-0.135573
C	 1.5281154426	 0.5062587282	 2.2382196185	-0.083929
O	 2.1917779564	-0.1851114742	 3.2727097525	-0.425017
H	 1.4823445576	 1.226971921	-0.8370233901	 0.120774
H	-0.1655466944	 1.5869006798	-1.3776428027	 0.132232
H	 0.4125658824	 2.2031976939	 0.1817739181	 0.126661
H	-1.1235807952	 0.2621214499	 0.490049781	 0.095865
H	 0.8763751883	-2.778256231	-0.8983039572	 0.142018
H	 1.7441906929	-1.3835638286	-1.5688750199	 0.126944
H	 0.1337847228	-1.0956625637	 1.9572499732	 0.125479
H	 2.2281487037	 1.1113235942	 1.6415315109	 0.093133
H	 0.8263662087	 1.1982272655	 2.7164080018	 0.110784
H	 2.7731959219	-0.8247381018	 2.8382875854	 0.296842
74.3758	147.6765	155.9541	186.043	241.9361	255.1161	338.979	425.253	426.7614	465.1052	551.9773	582.8174	634.9921	725.3881	736.1353	833.4601	900.4876	939.5255	1011.8486	1027.2079	1052.439	1081.7128	1093.7216	1117.8661	1140.0825	1173.1997	1207.9055	1226.9082	1265.0798	1295.859	1326.265	1362.9031	1382.9779	1393.7183	1411.0632	1456.874	1478.4165	1491.0339	1495.6837	1513.5665	1829.8297	2983.9598	2986.2731	3019.7056	3037.5158	3065.0587	3067.921	3070.8306	3107.4377	3122.1231	3742.9375
CC1OCC(=O)C1CO	C[C@H]1OCC(=O)[C@H]1CO	
InChI=1S/C6H10O3/c1-4-5(2-7)6(8)3-9-4/h4-5,7H,2-3H2,1H3	InChI=1S/C6H10O3/c1-4-5(2-7)6(8)3-9-4/h4-5,7H,2-3H2,1H3/t4-,5+/m1/s1
