20
gdb 97156	3.35878	1.26402	1.09505	2.9405	81.48	-0.2395	0.0312	0.2707	1186.2636	0.172213	-403.152246	-403.143761	-403.142816	-403.185783	32.034	
C	 0.1519929318	 1.398091859	 0.0435207236	-0.315359
N	 0.0414740072	-0.0414824605	-0.1435839344	-0.302323
C	-1.0677318625	-0.5969877197	 0.0994697947	 0.393017
C	-1.2576809759	-2.0834366796	-0.0984439983	-0.311221
C	-2.1687397284	-2.7140489575	 0.9400134844	-0.027957
C	-2.2145173922	-2.1744828885	 2.3512673077	-0.297216
C	-3.3266369796	-1.8634934236	 1.3807238124	-0.035978
C	-3.4084120013	-0.4974038146	 0.7364665198	-0.098955
O	-2.1310671672	 0.1261554136	 0.5715980905	-0.258824
H	 1.1025876445	 1.7389540386	-0.3745450918	 0.112631
H	-0.6647777846	 1.9521192265	-0.4367523561	 0.114703
H	 0.1354805198	 1.6649070776	 1.1087368104	 0.117037
H	-1.693003364	-2.2511300785	-1.0943761965	 0.119446
H	-0.2623483588	-2.5323881208	-0.1116031204	 0.135482
H	-2.3347274407	-3.7791354564	 0.8133285099	 0.089165
H	-2.4287893138	-2.8737886024	 3.1513810828	 0.113094
H	-1.5308796034	-1.378507311	 2.6256800416	 0.133567
H	-4.2932776306	-2.3313883963	 1.5412833687	 0.090766
H	-3.9063551155	-0.5726266271	-0.2414764476	 0.108062
H	-3.9840330049	 0.2041653315	 1.3480481686	 0.120865
57.7174	88.5023	184.005	217.1582	247.5077	323.9954	339.1488	425.5579	519.1232	569.1364	627.5356	731.936	767.8966	770.9798	831.0868	843.114	927.1863	985.9722	1006.2489	1053.5212	1054.6795	1072.2943	1085.0931	1102.0516	1111.188	1128.1064	1130.3907	1179.1377	1210.6256	1222.6618	1241.6519	1286.4757	1337.0244	1369.2632	1410.7085	1426.3352	1439.0566	1476.5508	1484.9558	1498.4063	1502.4036	1514.101	1766.2733	2997.135	3004.8522	3008.112	3055.6426	3075.8301	3101.5332	3107.0562	3140.0234	3150.5512	3160.1825	3225.1717
CN=C1CC2CC2CO1	CN=C1C[C@H]2C[C@H]2CO1	
InChI=1S/C7H11NO/c1-8-7-3-5-2-6(5)4-9-7/h5-6H,2-4H2,1H3	InChI=1S/C7H11NO/c1-8-7-3-5-2-6(5)4-9-7/h5-6H,2-4H2,1H3/t5-,6+/m1/s1
