15
gdb 57837	3.08855	1.14343	0.89824	5.7821	70.87	-0.2721	-0.111	0.1611	1262.9872	0.110124	-453.976578	-453.966631	-453.965686	-454.01283	32.767	
C	 0.1149051786	 1.2264503124	-0.328187024	-0.351368
N	-0.1158494568	-0.2012597814	-0.1408977354	-0.120031
C	 0.9909883806	-1.072522782	-0.5112996162	-0.345578
C	-1.3153420092	-0.5968255804	 0.3391954969	 0.379745
O	-2.2523571191	 0.1400294444	 0.6100191346	-0.357904
C	-1.5650718884	-2.0776564014	 0.6592950568	 0.19184
O	-0.7700718949	-2.8589926048	 1.1150428708	-0.267317
C	-2.9819512415	-2.4507824648	 0.4919218806	 0.267644
N	-4.0548048649	-2.8455741195	 0.3187783568	-0.301157
H	 0.9563406905	 1.5559776397	 0.2920811589	 0.138585
H	 0.3543390186	 1.4341213656	-1.377058433	 0.136763
H	-0.7847723308	 1.7678249807	-0.042122076	 0.179479
H	 1.8512445844	-0.8951991302	 0.1448632934	 0.141875
H	 0.7138330928	-2.1192733235	-0.4347225356	 0.172339
H	 1.29527815	-0.8536006748	-1.5411361887	 0.135083
32.3306	72.2912	96.386	129.5898	154.5676	217.6348	260.6488	285.5605	337.0833	381.374	407.7006	458.7437	591.3558	643.0786	743.15	811.1728	910.6531	1061.3119	1082.5054	1128.3934	1179.581	1222.6814	1277.6104	1437.9605	1442.119	1475.622	1481.2998	1498.0828	1501.6171	1545.2372	1741.2307	1787.394	2340.83	3027.0659	3032.7684	3078.3583	3084.6704	3176.4931	3202.7734
CN(C)C(=O)C(=O)C#N	CN(C)C(=O)C(=O)C#N	
InChI=1S/C5H6N2O2/c1-7(2)5(9)4(8)3-6/h1-2H3	InChI=1S/C5H6N2O2/c1-7(2)5(9)4(8)3-6/h1-2H3
