18
gdb 110157	1.91218	1.48209	0.9621	3.3672	80.2	-0.248	0.0237	0.2717	1264.4663	0.145951	-401.940704	-401.931255	-401.930311	-401.975805	33.9	
C	 0.2105492072	 1.4720252994	-0.1871051126	-0.379695
C	-0.0863209185	 0.013103205	 0.1695611228	-0.162029
N	 0.6327191207	-0.449000461	 1.3354373443	-0.057711
C	 2.0607128607	-0.7464730517	 1.5544522885	-0.168448
C	 1.6538267048	-1.2476641448	 2.9825558665	-0.395201
C	 0.2113414167	-0.8793224372	 2.5712616853	 0.413668
O	-0.8783188917	-0.9244059869	 3.0779867748	-0.370312
C	 2.6350402923	-1.7263079666	 0.6445202816	 0.340098
C	 3.1014407804	-2.5264052491	-0.1218899398	-0.457273
H	 1.272188427	 1.6173433057	-0.4115841059	 0.12251
H	-0.3602989977	 1.7687807304	-1.072237677	 0.123376
H	-0.0600811501	 2.1376205295	 0.6375412854	 0.131179
H	-1.1473723169	-0.1203430745	 0.4014926497	 0.142629
H	 0.1514818436	-0.6415544828	-0.678998725	 0.120161
H	 2.6838685178	 0.1556171776	 1.5743888708	 0.111226
H	 1.815628137	-2.3124879588	 3.1514117533	 0.14387
H	 2.062063058	-0.6678494615	 3.8115762232	 0.135682
H	 3.5166005986	-3.2386548226	-0.7917737757	 0.206269
53.8014	75.1359	99.0957	152.4594	204.3556	247.6695	282.3888	349.9138	463.5136	508.4898	559.73	581.4003	632.6025	663.0497	688.2379	766.7372	788.0058	835.9707	955.8778	996.8287	1003.3821	1054.6144	1078.9629	1103.4262	1124.1562	1185.7845	1224.3372	1251.4667	1329.7354	1361.1091	1389.8706	1411.0252	1415.3651	1461.5041	1479.137	1493.6762	1503.4563	1880.5823	2235.7555	3024.3744	3030.3511	3040.327	3089.6766	3094.2818	3112.7312	3121.4184	3157.7607	3501.3675
CCN1C(CC1=O)C#C	CCN1[C@@H](CC1=O)C#C	
InChI=1S/C7H9NO/c1-3-6-5-7(9)8(6)4-2/h1,6H,4-5H2,2H3	InChI=1S/C7H9NO/c1-3-6-5-7(9)8(6)4-2/h1,6H,4-5H2,2H3/t6-/m1/s1
