23
gdb 61803	3.05749	0.90262	0.80871	2.7992	86.51	-0.2462	-0.0189	0.2273	1514.1454	0.203053	-388.293213	-388.282775	-388.281831	-388.329213	38.542	
C	-0.6249014327	 1.3729286447	 0.1349412567	-0.420469
C	-0.0073322373	-0.0274650374	 0.0106064673	-0.058629
C	 0.9199701091	-0.0887107271	-1.2304027941	-0.267999
C	 0.1476772027	-0.0050563859	-2.5252330653	 0.157919
O	 0.3153248755	 0.8179193771	-3.388381002	-0.242992
C	 0.7297052727	-0.5311941961	 1.2622769133	 0.376418
C	 0.8954707327	-2.0416509765	 1.3085484943	-0.464337
C	 1.8502012614	 0.2944135661	 1.8516289448	-0.297139
C	 0.5474375849	 0.1495932672	 2.6004494098	-0.319274
H	 0.1282886748	 2.1286222238	 0.3841400945	 0.12372
H	-1.0799722048	 1.6774129692	-0.812613661	 0.128793
H	-1.4040952544	 1.401608704	 0.9005602226	 0.121869
H	-0.8342237079	-0.7319147157	-0.1664707222	 0.074185
H	 1.6637491754	 0.713238109	-1.2084843779	 0.117721
H	 1.4538307471	-1.0481850004	-1.2421824344	 0.114605
H	-0.6335637275	-0.7959942108	-2.6369749359	 0.067405
H	 1.4528178057	-2.4251844715	 0.4462755222	 0.115133
H	 1.4396296201	-2.3490381095	 2.2065378801	 0.115722
H	-0.0794983457	-2.5433667376	 1.322506477	 0.116016
H	 2.7262693201	-0.2252355252	 2.2252903081	 0.109472
H	 2.0695759731	 1.2622352094	 1.4128734321	 0.111954
H	-0.0894833182	 1.0223349175	 2.6726684537	 0.112716
H	 0.5288644732	-0.4808423544	 3.4832932363	 0.107193
51.5865	64.0679	78.9558	187.4721	216.2419	237.9601	272.8365	290.9563	336.86	345.0901	406.4434	440.2609	479.7412	546.449	694.8236	782.9767	789.4545	872.6323	878.3171	920.9048	943.3669	949.4965	962.8687	1012.0829	1033.8163	1061.1568	1083.2964	1093.2181	1115.7619	1132.2044	1152.2753	1189.4016	1225.6313	1266.003	1284.8089	1342.2547	1360.4361	1383.8871	1416.0582	1418.8491	1428.4632	1460.9412	1468.535	1492.7346	1496.7106	1500.3708	1507.8246	1512.5291	1832.9173	2836.6489	2986.5063	3022.3458	3029.4161	3037.5652	3080.6335	3098.0798	3100.0877	3101.7742	3117.3307	3127.1582	3138.6756	3205.5629	3226.4218
CC(CC=O)C1(C)CC1	C[C@@H](CC=O)C1(C)CC1	
InChI=1S/C8H14O/c1-7(3-6-9)8(2)4-5-8/h6-7H,3-5H2,1-2H3	InChI=1S/C8H14O/c1-7(3-6-9)8(2)4-5-8/h6-7H,3-5H2,1-2H3/t7-/m0/s1
