17
gdb 109190	3.5883	1.01581	0.88412	3.3014	74.62	-0.2693	-0.004	0.2653	1334.1685	0.136418	-418.043332	-418.034573	-418.033628	-418.077951	30.881	
C	 0.3829274189	 0.7439016069	 0.6547919235	-0.383708
C	-0.381995734	 0.2833900158	-0.5969974352	-0.27543
C	 0.5219890734	-0.1941684777	-1.6847790248	 0.416784
N	 0.6522625375	 0.2969475109	-2.8461126167	-0.295549
C	 1.6529242827	-0.5006694655	-3.5518458774	-0.206109
C	 2.0710054975	-1.6020647746	-2.5175288135	-0.049476
O	 1.2932298036	-1.2843419034	-1.3501346726	-0.252796
C	 1.7727034482	-2.9686488905	-2.9560656378	 0.273935
N	 1.5528219142	-4.0380979426	-3.3335678024	-0.310769
H	 0.9877516015	-0.0681166626	 1.0658101183	 0.138976
H	 1.0468375222	 1.5817161577	 0.4217704212	 0.1296
H	-0.3195437669	 1.0723224714	 1.4251414328	 0.125917
H	-1.0583220463	-0.5378614308	-0.3317541495	 0.133016
H	-0.985479112	 1.0940200483	-1.009903136	 0.138485
H	 1.2309514097	-0.9330421371	-4.4629793065	 0.144198
H	 2.5067532404	 0.1198995677	-3.8394254183	 0.131519
H	 3.1300111796	-1.5450222239	-2.249732555	 0.141408
50.5244	57.136	157.5064	165.3465	215.375	255.8575	315.7156	386.8829	503.1873	558.7313	621.1124	711.0588	760.5707	796.091	833.0563	921.9565	973.5299	996.4177	1005.7516	1032.2803	1058.6736	1086.7705	1118.6445	1205.8937	1232.4411	1282.8157	1306.3787	1328.1486	1358.5023	1380.8707	1413.1458	1473.6425	1497.8946	1500.8232	1508.8874	1752.7308	2362.1176	3046.0457	3049.7658	3057.2798	3070.1401	3100.8168	3112.5777	3122.0697	3135.4049
CCC1=NCC(O1)C#N	CCC1=NC[C@@H](O1)C#N	
InChI=1S/C6H8N2O/c1-2-6-8-4-5(3-7)9-6/h5H,2,4H2,1H3	InChI=1S/C6H8N2O/c1-2-6-8-4-5(3-7)9-6/h5H,2,4H2,1H3/t5-/m0/s1
