17
gdb 128391	3.61009	1.27296	1.12338	5.114	74.48	-0.2415	0.0083	0.2498	1109.9088	0.13849	-414.131657	-414.12389	-414.122946	-414.16434	28.664	
C	 0.4684401391	 0.632553087	 0.3373804681	-0.330036
N	-0.641218331	 0.4887701799	-0.5997871875	-0.268339
C	-1.572734926	-0.5715348738	-0.3376137771	-0.148304
C	-1.0292068261	-2.0531743896	-0.4977926906	-0.182913
N	-1.4862826609	-2.2541498124	 0.8911592344	 0.101776
N	-1.6838830325	-3.0972004322	 1.9114252724	-0.180577
N	-2.2774103777	-2.3624851985	 2.8287111757	-0.18268
C	-2.4700263198	-1.0798664593	 2.385838068	-0.227149
C	-1.9505129323	-1.0144380173	 1.1093079822	 0.287298
H	 1.0681886308	 1.4973336891	 0.0430079719	 0.127908
H	 0.1547415513	 0.7591501721	 1.3850607148	 0.118364
H	 1.1193022736	-0.2464600682	 0.2896978307	 0.131394
H	-1.1367514077	 1.3665573633	-0.6938577834	 0.231031
H	-2.4585873108	-0.4085719338	-0.9559091125	 0.112032
H	-1.5502570346	-2.6766007359	-1.2266557698	 0.14467
H	 0.0510480678	-2.1414902602	-0.6217941081	 0.144411
H	-2.9472630531	-0.3433780001	 3.0098263009	 0.121113
91.2126	114.9786	160.2276	212.0249	281.2602	307.0314	487.7677	525.2485	661.6089	697.1246	700.1235	751.6175	775.9404	835.3274	873.7756	976.2792	1004.5639	1017.8725	1073.3597	1108.9843	1134.0971	1150.5819	1177.5474	1186.3729	1204.3485	1229.0934	1252.1113	1283.6812	1328.4986	1395.1271	1460.8426	1472.5415	1487.3886	1497.6711	1504.7982	1517.1315	1522.3499	2988.184	3073.6135	3082.6609	3087.2798	3117.4883	3145.8445	3281.0389	3553.5998
CNC1CN2N=NC=C12	CN[C@H]1Cn2nncc12	
InChI=1S/C5H8N4/c1-6-4-3-9-5(4)2-7-8-9/h2,4,6H,3H2,1H3	InChI=1S/C5H8N4/c1-6-4-3-9-5(4)2-7-8-9/h2,4,6H,3H2,1H3/t4-/m0/s1
