14
gdb 132620	3.20083	1.36649	0.9586	2.7788	69.16	-0.2009	-0.0147	0.1862	1111.1177	0.102236	-478.044963	-478.037577	-478.036633	-478.07657	29.004	
N	-0.0462890742	 1.4389496659	-0.1338688727	-0.598451
C	-0.0497331089	 0.0447165649	-0.0493024099	 0.197248
C	-1.2048843017	-0.7276584868	 0.0236286776	-0.135852
C	-1.1276088517	-2.1214177199	 0.0409998244	-0.277465
C	 0.1343490238	-2.6821217449	-0.0165790038	 0.313547
F	 0.2708331614	-4.0083000572	-0.0022819618	-0.079257
N	 1.2560266494	-1.9877489187	-0.0821968204	-0.411773
C	 1.1628260367	-0.6700382857	-0.0976008501	 0.400673
O	 2.3083969794	 0.0535727217	-0.1577706807	-0.433204
H	 0.8359263263	 1.8518212312	 0.1343713016	 0.261226
H	-0.8234999135	 1.8868262784	 0.3304039767	 0.246949
H	-2.1730589477	-0.2381691603	 0.0640148125	 0.102386
H	-2.0088283463	-2.7462809999	 0.0979147199	 0.111068
H	 3.0343550071	-0.5841728488	-0.1705917435	 0.302906
139.4223	249.2021	287.1842	303.9504	348.8345	377.1847	447.1863	487.193	515.8725	543.7404	592.8453	649.4606	674.0587	747.6869	775.5932	810.2708	834.3813	938.209	1008.686	1076.8579	1144.0937	1198.8973	1295.1572	1298.9495	1359.2299	1401.2917	1483.5182	1529.0649	1636.148	1652.0879	1667.6601	3178.5038	3223.208	3558.1195	3659.0443	3783.4867
NC1=CC=C(F)N=C1O	Nc1ccc(F)nc1O	
InChI=1S/C5H5FN2O/c6-4-2-1-3(7)5(9)8-4/h1-2H,7H2,(H,8,9)	InChI=1S/C5H5FN2O/c6-4-2-1-3(7)5(9)8-4/h1-2H,7H2,(H,8,9)
