19
gdb 39300	2.64689	2.04987	1.82079	1.876	72.89	-0.2361	0.0807	0.3168	866.9861	0.163754	-423.015991	-423.009761	-423.008817	-423.046236	26.731	
C	 0.0359159996	 1.5010759353	 0.1934313662	-0.266598
C	 1.5725476939	 1.3636790067	 0.0235606492	 0.109841
O	 2.21596641	 1.0465373176	 1.2479013012	-0.272853
C	 1.4251872311	 0.1820429128	 2.0673731091	-0.097637
C	 0.6120678975	-0.7989337481	 1.2122997272	 0.084531
O	 1.4657705246	-1.7801589436	 0.6263986282	-0.271398
C	 2.1129650885	-1.1834429682	-0.5058974962	-0.100804
C	 1.2981549909	 0.0661044932	-0.8215909739	-0.051904
C	-0.0098546073	-0.037117617	 0.0136672025	-0.060027
H	-0.3456657746	 1.9530867206	 1.1120978991	 0.102564
H	-0.4077246259	 2.0114068657	-0.6650791252	 0.104162
H	 2.1427894225	 2.1779862427	-0.4265339767	 0.077988
H	 2.1180827596	-0.3630723329	 2.7132726801	 0.117051
H	 0.7500829797	 0.7711326836	 2.705684957	 0.091892
H	-0.1136022911	-1.3313815721	 1.8336494416	 0.081125
H	 3.156216843	-0.9428018442	-0.2650946987	 0.107001
H	 2.0987509126	-1.9090390722	-1.3266542814	 0.100289
H	 1.1672219502	 0.2773277092	-1.8836944788	 0.075012
H	-0.8981352948	-0.5223599691	-0.3932866404	 0.069768
195.776	269.7508	375.0771	408.3441	441.6587	527.5201	588.1159	683.873	730.698	769.8083	830.7567	834.9174	876.9447	908.7187	934.7509	949.6675	957.0371	1003.41	1021.0078	1039.3247	1060.6832	1072.7141	1098.4611	1109.0223	1127.5114	1185.0694	1195.1972	1237.3076	1244.2752	1261.0481	1266.5803	1300.539	1305.287	1325.1492	1342.8624	1363.5841	1387.4243	1402.4656	1486.7371	1512.4785	1513.4556	2994.0026	3021.5297	3063.1293	3063.8914	3075.5126	3094.7687	3097.3626	3098.3168	3109.7943	3116.4015
C1C2OCC3OCC2C13	C1[C@H]2OC[C@@H]3OC[C@H]2[C@H]13	
InChI=1S/C7H10O2/c1-4-5-2-8-7(4)3-9-6(1)5/h4-7H,1-3H2	InChI=1S/C7H10O2/c1-4-5-2-8-7(4)3-9-6(1)5/h4-7H,1-3H2/t4-,5-,6+,7-/m0/s1
