17
gdb 81256	3.08896	1.52705	1.41541	1.4245	67.87	-0.2573	0.0498	0.3071	965.4176	0.136805	-458.853533	-458.846481	-458.845537	-458.884995	28.304	
O	 0.0272766382	 1.4406352708	-0.0958298564	-0.450574
C	 0.1230849706	 0.0606567302	-0.0282300965	 0.155
C	 0.0127295289	-0.6214281859	 1.3494253126	-0.061523
O	-1.4391996784	-0.1724929539	 1.3810149581	-0.398008
C	-1.202562472	-0.7718897049	 0.0373806787	 0.342435
C	-2.0006631805	-1.3466685771	-1.0966219452	-0.193799
O	-1.1176849328	-2.4033488569	-1.5328715141	-0.289317
C	-0.0684470206	-2.7151994639	-0.562422042	-0.11781
C	-0.4779572197	-1.9421434444	 0.6814537942	-0.044746
H	-0.6791097875	 1.6757247216	 0.5239116966	 0.289176
H	 0.9095382166	-0.2669285493	-0.7074109014	 0.101491
H	 0.5648410535	-0.4658663826	 2.2768172395	 0.103222
H	-2.9666253614	-1.7495934305	-0.7639448922	 0.113885
H	-2.1584374125	-0.6682376657	-1.9401171967	 0.121521
H	-0.0707743571	-3.7977487696	-0.4082434163	 0.113326
H	 0.8998438445	-2.4307059321	-0.9874752529	 0.113068
H	-1.1253463198	-2.5065447059	 1.3540028137	 0.102653
95.1646	226.3403	239.3564	332.7342	362.0158	466.01	533.7156	589.4448	642.6061	658.0948	727.5947	741.4322	828.036	854.8577	881.7724	904.2789	937.6687	985.322	1019.6259	1032.0169	1061.1374	1105.7656	1138.5136	1149.4997	1166.8466	1191.0394	1195.7621	1206.7774	1249.0811	1293.431	1313.94	1346.225	1363.9824	1384.1209	1467.0165	1515.2629	1527.573	3014.6914	3041.7745	3083.3556	3084.453	3108.6341	3119.3644	3129.656	3734.3957
OC1C2OC11COCC21	O[C@H]1[C@H]2O[C@]31COC[C@@H]23	
InChI=1S/C6H8O3/c7-5-4-3-1-8-2-6(3,5)9-4/h3-5,7H,1-2H2	InChI=1S/C6H8O3/c7-5-4-3-1-8-2-6(3,5)9-4/h3-5,7H,1-2H2/t3-,4-,5-,6+/m0/s1
