16
gdb 91227	2.11485	1.65503	1.58236	2.6616	64.98	-0.2445	0.011	0.2555	964.7165	0.123533	-475.017731	-475.009349	-475.008404	-475.050657	31.48	
O	 0.137908987	 1.4178049489	 0.0992741456	-0.422499
C	 0.0492333493	 0.0170305107	 0.0847896416	 0.089236
C	 0.2597592581	-0.6286001283	 1.4791082514	-0.251767
C	-1.1302226143	-1.304528734	 1.3819974587	-0.067258
N	-2.2375165642	-0.4650358265	 1.849297191	-0.323955
C	-2.4733730654	 0.1753177397	 0.6466844453	 0.346363
O	-3.2594152192	 1.0169996414	 0.3031410263	-0.363408
C	-1.3598718843	-0.6395752859	-0.0465695956	 0.215001
O	-1.5859396853	-1.2461352316	-1.2685745673	-0.473439
H	-0.1760278563	 1.7543270538	-0.747324139	 0.295531
H	 0.7005145076	-0.4329852934	-0.6783502114	 0.088262
H	 1.0981726935	-1.3266896005	 1.5120754098	 0.113226
H	 0.3589783484	 0.0965197883	 2.2890175489	 0.114222
H	-1.2358180672	-2.3694815929	 1.5855431042	 0.092629
H	-2.4148053842	-0.1115549353	 2.7802371966	 0.250127
H	-2.5315912535	-1.3989001942	-1.3737086459	 0.297731
81.0903	119.5872	197.1091	247.5547	285.1646	319.6776	365.6218	400.1978	441.4117	523.7749	543.9674	626.6796	718.2454	760.2504	781.3061	847.8592	914.87	959.3629	993.0659	1007.9128	1059.7743	1093.9231	1116.9615	1159.3344	1203.8997	1218.2575	1260.0678	1276.4752	1323.6052	1344.1485	1357.5238	1376.3569	1417.081	1467.3537	1884.6593	3000.4592	3076.965	3119.783	3136.4418	3583.8591	3804.9024	3808.3545
OC1CC2NC(=O)C12O	O[C@H]1C[C@H]2NC(=O)[C@@]12O	
InChI=1S/C5H7NO3/c7-3-1-2-5(3,9)4(8)6-2/h2-3,7,9H,1H2,(H,6,8)	InChI=1S/C5H7NO3/c7-3-1-2-5(3,9)4(8)6-2/h2-3,7,9H,1H2,(H,6,8)/t2-,3+,5+/m1/s1
