21
gdb 92321	2.2218	1.68132	1.04781	1.1702	87.38	-0.2119	0.0246	0.2366	1193.1913	0.18283	-387.081119	-387.072286	-387.071342	-387.114353	34.076	
C	-0.166110586	 1.4396561338	-0.1118070969	-0.496541
C	-0.055197671	-0.0432730282	 0.0426477169	 0.155911
C	-1.0213017971	-0.9363480498	 0.2461049633	 0.194612
C	-2.4624957772	-1.2187232569	-0.0754798472	 0.037539
O	-3.1131766485	-0.2422232762	-0.8514012511	-0.429825
C	-1.9229014875	-2.5395611965	-0.7607926124	-0.285807
C	-0.5970892087	-2.3689013708	 0.061393484	-0.039123
C	 0.8223225185	-2.2413882881	-0.5334483141	-0.23557
C	 1.2665040421	-0.8025548724	-0.1140184199	-0.285584
H	 0.3594331854	 1.9655495924	 0.6965560471	 0.119604
H	 0.2938482507	 1.7757119079	-1.0500803564	 0.118494
H	-1.2109636129	 1.757860835	-0.1071888873	 0.139054
H	-3.0527471035	-1.4758738716	 0.8177173547	 0.0725
H	-4.0496853574	-0.4588663552	-0.8900153196	 0.283878
H	-2.5056662479	-3.4537042969	-0.6153348957	 0.088481
H	-1.7650316859	-2.3569892467	-1.8268913447	 0.108235
H	-0.6194766309	-2.9783727472	 0.9728943511	 0.066625
H	 1.5158297963	-3.0164165242	-0.1934312897	 0.090333
H	 0.7767693718	-2.299531257	-1.6268554345	 0.099974
H	 1.9131559349	-0.3329389605	-0.8650902	 0.096925
H	 1.8448736949	-0.815377061	 0.8212385225	 0.100284
112.9553	129.0936	165.75	180.6703	242.3237	284.3766	331.174	388.4503	427.9476	502.7585	584.4187	635.3883	665.9205	702.1204	803.5825	833.1141	919.2832	928.9346	939.8735	952.296	999.0572	1030.4928	1064.5	1097.5848	1104.5747	1110.6152	1148.088	1171.4533	1195.5627	1209.6534	1219.7796	1250.0422	1257.0155	1287.6126	1302.1207	1329.7924	1343.4424	1410.8477	1436.0532	1470.4096	1480.5281	1484.5081	1487.8313	1496.758	1772.7399	2974.8801	3000.9502	3012.8742	3024.2377	3036.0145	3049.7578	3051.9038	3055.1875	3088.8659	3119.6429	3124.5578	3822.8835
CC1=C2C(O)CC2CC1	C[C]1[C]2[C@@H](O)C[C@H]2CC1	
InChI=1S/C8H12O/c1-5-2-3-6-4-7(9)8(5)6/h6-7,9H,2-4H2,1H3	InChI=1S/C8H12O/c1-5-2-3-6-4-7(9)8(5)6/h6-7,9H,2-4H2,1H3/t6-,7+/m1/s1
