17
gdb 32008	2.94305	1.33139	0.9714	4.4218	80.93	-0.2272	-0.0618	0.1655	1214.2561	0.136869	-418.047683	-418.039404	-418.03846	-418.08145	30.301	
C	 0.1996519808	 1.5524934534	-0.0873609496	-0.381216
C	-0.0679896923	 0.0467638307	 0.0851562755	-0.281189
C	 0.5768771794	-0.5184682959	 1.3111396291	 0.421092
C	-0.0507601897	-1.0793728951	 2.370781114	-0.270893
C	 0.7842241845	-1.5528264232	 3.4322251959	 0.030447
N	 2.0762640757	-1.4658549567	 3.4393196999	-0.308857
C	 2.7052406949	-0.8733653884	 2.3528825083	 0.421096
N	 3.9476771878	-0.6900735334	 2.2027483283	-0.525197
O	 1.9138542684	-0.4175971308	 1.282866745	-0.233776
H	 1.2727878817	 1.7502290704	-0.1353625709	 0.152812
H	-0.2607283618	 1.9130685571	-1.0108560053	 0.124646
H	-0.2174570471	 2.1228670019	 0.7479034807	 0.126711
H	-1.1419728602	-0.1529381951	 0.1346951963	 0.118042
H	 0.3274351349	-0.4925648795	-0.7845427838	 0.136713
H	-1.1269755783	-1.1680534664	 2.4050929539	 0.11246
H	 0.32296838	-2.0224291309	 4.3015165901	 0.123089
H	 4.4210101213	-1.058399978	 3.0260834926	 0.23402
52.6373	88.4461	125.9986	199.9796	269.8893	341.9753	438.1233	494.6384	527.3224	571.5935	683.5576	749.9821	768.8814	790.782	809.2788	863.0411	869.1264	971.2412	984.4549	1004.0151	1024.4332	1084.8847	1095.8906	1107.2931	1212.0132	1257.411	1282.8783	1352.8079	1399.3862	1413.7762	1418.7939	1473.9564	1496.2399	1508.4191	1597.8959	1688.909	1734.2377	3037.5494	3049.4294	3094.6069	3120.8674	3127.946	3137.6041	3236.5173	3519.7533
CCC1=CC=NC(=N)O1	CC[C@@H]1C=CN=C([NH])O1	
InChI=1S/C6H8N2O/c1-2-5-3-4-8-6(7)9-5/h3-4,7H,2H2,1H3	InChI=1S/C6H9N2O/c1-2-5-3-4-8-6(7)9-5/h3-5,7H,2H2,1H3/t5-/m1/s1
