18
gdb 7381	3.06372	1.34765	1.02404	2.8389	65.56	-0.262	-0.0238	0.2382	1165.5603	0.150539	-422.084537	-422.07494	-422.073996	-422.119492	33.132	
C	 0.7461086225	 1.2263800566	 0.0043564159	-0.231179
O	 0.8912161997	-0.1599330101	-0.2117111019	-0.232545
C	-0.0761274731	-0.6820765268	-1.0943976437	-0.086167
C	 0.1067745402	-2.2051790885	-1.2421978568	 0.014383
O	-1.0307244924	-2.7263566309	-1.8734520306	-0.434582
C	 1.3564939395	-2.5658635702	-2.0593563854	 0.366347
C	 2.7154394178	-2.3023163211	-1.4685748654	-0.480739
O	 1.1971149949	-3.0677440438	-3.1538937835	-0.323425
H	 0.8583720135	 1.7981453582	-0.9295851128	 0.11076
H	-0.2363708956	 1.4655374174	 0.4386376772	 0.113217
H	 1.5276197679	 1.5314043526	 0.7039889042	 0.13076
H	-1.0930567798	-0.5172328673	-0.7081602506	 0.113292
H	-0.0166960632	-0.1998803094	-2.0845425018	 0.097007
H	 0.2174489951	-2.6246356414	-0.2302128528	 0.095627
H	-0.7040567003	-3.0757492843	-2.7203551415	 0.293269
H	 2.7651275076	-1.2834632841	-1.0765504852	 0.166033
H	 2.8688260726	-2.9719648172	-0.6135864761	 0.148145
H	 3.4902382831	-2.4847422095	-2.2140736692	 0.139799
54.4973	85.4441	109.3297	156.4189	180.8414	234.3974	256.2765	306.5995	366.8656	417.8944	462.2189	510.409	622.7775	634.6216	766.6194	959.5935	989.4858	998.7167	1047.2307	1103.4435	1133.8454	1163.5666	1183.2943	1208.1701	1231.3527	1234.0446	1297.8768	1325.5601	1389.437	1405.0822	1446.6702	1467.8233	1470.3442	1481.8987	1486.0149	1503.0198	1526.2287	1791.8842	2965.3296	2980.7542	2993.3183	3016.8526	3027.9448	3042.5097	3112.8428	3119.2581	3161.3452	3649.0655
COCC(O)C(C)=O	COC[C@@H](O)C(=O)C	
InChI=1S/C5H10O3/c1-4(6)5(7)3-8-2/h5,7H,3H2,1-2H3	InChI=1S/C5H10O3/c1-4(6)5(7)3-8-2/h5,7H,3H2,1-2H3/t5-/m1/s1
