14
gdb 128558	1.87215	1.02283	0.69655	1.9927	67.9	-0.2512	-0.0247	0.2265	1534.3188	0.094068	-470.060025	-470.048345	-470.047401	-470.102123	34.828	
C	-0.0217061601	 1.3879025675	 0.0743077813	-0.237122
O	-0.2126819735	-0.0267331664	-0.0289666072	-0.242899
C	 0.6821186684	-0.6668501028	-0.8170490071	 0.491534
C	 0.3858834922	-2.1038032726	-0.8484840717	-0.433668
C	 1.1613876617	-2.9258419923	-1.5316329636	 0.465086
N	 1.9378206229	-3.6935628949	-2.0558464893	-0.490372
N	 1.8603152302	-1.24804493	-4.4839772157	-0.013625
N	 1.9663445848	-0.1724259145	-4.6794166969	 0.01194
O	 1.5819445689	-0.1083497408	-1.4021019745	-0.396484
H	 0.9574414624	 1.6163416418	 0.5031374908	 0.14123
H	-0.0909709037	 1.8613561656	-0.9084998085	 0.139902
H	-0.8171262522	 1.7468019153	 0.7278021322	 0.131396
H	-0.4783830768	-2.4893363541	-0.3239335725	 0.145153
H	 1.8271764048	-3.9065035817	-3.0456524574	 0.28793
13.6304	28.8803	45.5227	50.5286	74.7073	84.7615	114.5139	127.5123	186.4589	290.544	402.7463	478.442	504.	545.4409	743.9243	789.7629	856.6534	943.4516	946.6619	1028.2555	1128.3911	1179.5966	1203.7141	1218.2816	1425.2449	1476.5521	1480.4395	1499.2876	1781.5939	2149.5661	2434.7715	3049.7954	3123.2258	3155.911	3216.6082	3511.863
COC1=CC(=N)N=NO1	COC(=O)[CH][C][NH].N#N	
InChI=1S/C4H5N3O2/c1-8-4-2-3(5)6-7-9-4/h2,5H,1H3	InChI=1S/C4H5NO2.N2/c1-7-4(6)2-3-5;1-2/h2,5H,1H3;
