14
gdb 61380	2.66187	0.96093	0.85517	3.0692	62.72	-0.2711	-0.1143	0.1568	1340.7198	0.097327	-473.839064	-473.829573	-473.828629	-473.875017	31.881	
O	 0.507419545	 1.7999654141	 0.600100585	-0.410218
C	 0.0241827147	 0.6487332625	-0.0612481994	 0.007941
C	 0.4467817568	 0.6034628192	-1.539101969	-0.35157
C	-0.3470863997	-0.3969785248	-2.3510466044	 0.296834
O	-1.3405219407	-0.9603008493	-1.9565258782	-0.268557
C	 0.1477753996	-0.681892125	-3.775604296	 0.096922
O	 1.1318796023	-0.1712059794	-4.2399093613	-0.211306
C	 0.4389738441	-0.5836698332	 0.6402263136	 0.253976
N	 0.8166393055	-1.527420471	 1.1892245707	-0.312522
H	 1.4670319779	 1.7363222742	 0.6709332671	 0.298377
H	-1.0668482018	 0.7083260604	-0.0120116467	 0.161477
H	 0.2833882871	 1.5998843213	-1.9693426149	 0.163377
H	 1.5165298374	 0.3990393432	-1.6556393973	 0.153893
H	-0.4944997581	-1.4020250221	-4.3225161792	 0.121376
28.7158	69.6347	128.611	134.0871	179.9655	238.1231	257.2134	330.474	371.3689	464.8611	506.3018	551.9956	597.7895	649.18	793.8072	833.7649	921.0829	1025.5356	1065.4128	1089.659	1149.7167	1183.2155	1264.2974	1338.2839	1361.6492	1375.5579	1415.6082	1439.9406	1805.7878	1824.6256	2358.4828	2942.5286	3044.7682	3082.1324	3096.0597	3801.5019
OC(CC(=O)C=O)C#N	O[C@@H](CC(=O)C=O)C#N	
InChI=1S/C5H5NO3/c6-2-4(8)1-5(9)3-7/h3-4,8H,1H2	InChI=1S/C5H5NO3/c6-2-4(8)1-5(9)3-7/h3-4,8H,1H2/t4-/m0/s1
