13
gdb 42798	2.59755	1.74794	1.46687	3.5462	58.63	-0.271	-0.0597	0.2113	897.2564	0.089445	-493.713646	-493.706848	-493.705904	-493.74518	25.329	
O	-0.0071430813	-0.0050358977	 0.0567500807	-0.278581
C	-0.0218652672	 1.1817108176	 0.0550413741	 0.432919
C	-1.0667244223	 2.3116259841	-0.0124748415	-0.068996
C	-1.2679531024	 2.9061101935	 1.3758281771	-0.076921
O	-0.0036658804	 3.1552832981	 2.025687259	-0.242778
C	 1.1710185103	 2.8835168542	 1.3956707837	 0.465288
O	 2.2200044045	 3.0489906608	 1.9421355566	-0.312354
C	 0.9924866467	 2.3452910825	-0.0254202355	-0.197347
O	-0.0528338262	 3.1203308901	-0.6736208376	-0.277888
H	-1.9924598971	 2.1973650996	-0.5797700822	 0.127807
H	-1.7848948417	 3.8675183476	 1.3006769971	 0.144729
H	-1.845506399	 2.2330912755	 2.0176891045	 0.143144
H	 1.9302993162	 2.2865237341	-0.5743665962	 0.140979
121.3394	135.033	197.9813	379.167	420.5538	481.1553	520.5898	529.5301	659.1177	726.3573	791.9286	821.4128	890.5161	914.7299	935.34	998.9614	1046.9856	1075.9821	1090.4399	1138.9216	1204.918	1210.3651	1241.7492	1283.8419	1304.1032	1411.5098	1498.28	1870.4209	1938.2645	3051.4136	3102.8771	3112.456	3155.7929
O=C1C2COC(=O)C1O2	O=C1[C@H]2COC(=O)[C@@H]1O2	
InChI=1S/C5H4O4/c6-3-2-1-8-5(7)4(3)9-2/h2,4H,1H2	InChI=1S/C5H4O4/c6-3-2-1-8-5(7)4(3)9-2/h2,4H,1H2/t2-,4-/m1/s1
