15
gdb 34702	5.18897	1.33325	1.31918	3.3817	71.48	-0.2512	0.0216	0.2728	950.8314	0.114945	-379.590819	-379.58466	-379.583716	-379.621414	24.793	
N	-0.1092509968	-1.1317928833	-0.1375915342	-0.32566
C	-0.0665270023	 0.0223917842	-0.0781557077	 0.269476
C	-0.0021323081	 1.4716618612	 0.0106261829	-0.18155
C	-0.0896207821	 2.0124549349	 1.4755028537	-0.065166
C	 0.2294289288	 3.5110719424	 1.3511937102	-0.065292
C	 1.6408919839	 3.3650753276	 1.7791621864	-0.055027
C	 1.4727036757	 1.8300920144	 1.6479354174	-0.080399
C	 1.4510876939	 2.0139891776	 0.1024852788	 0.005712
N	 1.3286839263	 3.5111001134	 0.3205970337	-0.152666
H	-0.6553468414	 1.932454376	-0.7355526222	 0.129936
H	-0.8351082179	 1.6635658906	 2.1850166753	 0.101034
H	-0.4371929208	 4.3631535733	 1.3732146004	 0.108854
H	 2.318192333	 4.0207708816	 2.3108781376	 0.108758
H	 1.9410982349	 1.0242988479	 2.2036692073	 0.100152
H	 2.230617623	 1.7302374481	-0.6008249494	 0.10184
128.1144	158.0015	368.7905	487.3098	508.5078	550.311	745.0389	756.1451	792.4801	801.5089	840.2483	864.0333	894.3797	915.0134	930.3125	940.7175	955.6727	994.9052	1020.5149	1037.2617	1054.8527	1074.611	1149.2483	1156.9355	1182.5733	1190.1832	1221.751	1232.0878	1255.436	1274.6977	1309.3813	1347.0118	2352.7895	3080.196	3147.7827	3158.8421	3173.9127	3194.9691	3208.3702
N#CC1C2C3C4C2C1N34	N#C[C@H]1[C@@H]2[C@H]3[C@H]4[C@@H]2[C@@H]1N34	
InChI=1S/C7H6N2/c8-1-2-3-4-5(2)9-6(3)7(4)9/h2-7H	InChI=1S/C7H6N2/c8-1-2-3-4-5(2)9-6(3)7(4)9/h2-7H/t2-,3-,4-,5+,6-,7+,9?/m0/s1
