21
gdb 106802	2.41026	1.49836	1.08656	2.0741	77.89	-0.2545	0.0799	0.3345	1185.4841	0.182285	-424.233791	-424.224681	-424.223737	-424.267501	34.94	
C	-0.1859807291	 1.4530818524	 0.0362577222	-0.487848
C	 0.1635853157	-0.0103069347	 0.0313942651	 0.355929
C	 0.2914648068	-0.745205264	-1.2970390212	-0.277183
C	 0.8218196836	-2.145994178	-0.9169999915	-0.218209
C	 1.6331937914	-1.9329356276	 0.3804967518	-0.274107
C	 0.9767463976	-0.7272547208	 1.0343519732	 0.320871
C	 1.5498986544	-0.1474929723	 2.3003628172	-0.154731
O	 1.391858884	-1.0487374755	 3.3868350143	-0.418414
O	-0.4705213377	-0.8305082777	 1.0370823962	-0.35053
H	 0.5517399829	 2.0289180832	-0.532744858	 0.122553
H	-1.1635499556	 1.6086545735	-0.4333953841	 0.12836
H	-0.2353543835	 1.8525699801	 1.0512149637	 0.129999
H	-0.6592868655	-0.7845891184	-1.8388898981	 0.104651
H	 1.0052663467	-0.203222905	-1.9305979661	 0.099906
H	-0.0202985449	-2.8107917094	-0.7146793708	 0.11858
H	 1.4160255413	-2.5993107623	-1.7138681145	 0.096521
H	 1.6338012397	-2.8073261955	 1.0368665166	 0.115139
H	 2.6806031965	-1.6864006329	 0.1639119886	 0.098747
H	 2.6280356532	 0.0122847739	 2.1905197802	 0.108174
H	 1.085329173	 0.8237371901	 2.5201523209	 0.088934
H	 0.4479333194	-1.2369998091	 3.4463771142	 0.292658
62.6324	142.4731	180.3726	203.552	228.5962	285.5145	322.5756	350.5456	425.2017	461.8645	504.2329	565.8289	639.6004	680.2004	740.7183	817.979	870.0741	897.8805	916.8945	935.4513	959.7356	1016.0409	1026.4187	1043.7096	1088.31	1129.7497	1165.4731	1176.3911	1212.0812	1244.0824	1255.0221	1261.2292	1325.4995	1340.2747	1352.651	1372.359	1413.9802	1426.009	1458.1673	1478.3065	1480.9769	1491.5091	1492.0156	1499.4416	1510.3969	3006.1444	3028.6585	3031.3881	3037.8632	3070.2742	3073.6398	3078.6762	3094.1122	3096.3764	3119.8341	3128.9876	3795.7956
CC12CCCC1(CO)O2	C[C@@]12CCC[C@]1(CO)O2	
InChI=1S/C7H12O2/c1-6-3-2-4-7(6,5-8)9-6/h8H,2-5H2,1H3	InChI=1S/C7H12O2/c1-6-3-2-4-7(6,5-8)9-6/h8H,2-5H2,1H3/t6-,7-/m1/s1
