15
gdb 131681	2.25088	1.5026	0.90615	2.3719	76.29	-0.2284	-0.0042	0.2243	1205.564	0.112761	-416.787955	-416.779369	-416.778425	-416.82216	31.048	
O	-0.0229627552	 1.4500893448	 0.0088740649	-0.421315
C	 0.0302948361	 0.031368445	 0.0018391207	-0.218966
C	-1.3695951239	-0.487494688	 0.0116118924	 0.127953
C	-2.5347769877	 0.2426340055	 0.0230355801	-0.099088
N	-3.5496791286	-0.6599315776	 0.0284644207	-0.19857
N	-3.1389645804	-1.9339081551	 0.0213008431	-0.295518
C	-1.8006956952	-1.8437208445	 0.0111973905	 0.139618
C	-0.9707236944	-2.9925164701	 0.0013600911	 0.280716
C	-0.2169510726	-3.9312179241	-0.007425221	-0.449229
H	 0.8789025093	 1.7824769682	 0.003025013	 0.292135
H	 0.5611350992	-0.3456922009	-0.8874964522	 0.109048
H	 0.5764846571	-0.3540151511	 0.8781936245	 0.109069
H	-2.7016288021	 1.3064587705	 0.0275824299	 0.154613
H	-4.5379950131	-0.472504886	 0.0369736853	 0.278326
H	 0.4324252013	-4.7708275967	-0.0155824329	 0.191208
31.115	112.6524	170.4139	219.5644	220.7937	271.4858	395.002	471.2892	530.1155	567.4989	569.4984	601.5699	662.6548	665.799	739.8258	744.1404	801.5928	958.7215	1048.9965	1067.3956	1080.5697	1141.2268	1220.8814	1241.3269	1242.8948	1318.4088	1376.5983	1438.6677	1468.5545	1505.169	1516.8202	1607.4075	2236.1135	2964.3968	2981.6357	3284.9933	3506.4446	3673.7802	3840.4512
OCC1=CNN=C1C#C	OCc1c[nH]nc1C#C	
InChI=1S/C6H6N2O/c1-2-6-5(4-9)3-7-8-6/h1,3,9H,4H2,(H,7,8)	InChI=1S/C6H6N2O/c1-2-6-5(4-9)3-7-8-6/h1,3,9H,4H2,(H,7,8)
