16
gdb 41602	4.33987	1.32485	1.19373	2.1395	68.4	-0.2303	0.0172	0.2475	1024.954	0.125489	-437.838626	-437.831672	-437.830727	-437.870391	26.671	
C	-0.0646417995	 1.4011438457	-0.072020256	-0.094255
O	 1.3904170314	 1.4880782319	-0.1250802526	-0.283709
C	 1.4962497102	 0.0794928937	 0.0778087285	 0.00873
C	-0.0142340124	-0.1171065905	 0.0365369723	-0.22088
C	 0.8687530377	-0.6450165877	-1.0680591716	 0.399992
C	 0.9153060305	-0.2675136503	-2.5495454719	-0.260618
N	 1.1945195015	-1.5452940584	-3.2327647891	-0.261958
C	 1.232916363	-2.4233895268	-2.3225383564	 0.106438
O	 1.0364597508	-2.0668572307	-1.0248097655	-0.261344
H	-0.4416213363	 1.8926157579	 0.8310561398	 0.120358
H	-0.5399775595	 1.8378859204	-0.9579038315	 0.114256
H	 2.2828711615	-0.3090757064	 0.7141698613	 0.118292
H	-0.6631083861	-0.7589548263	 0.6163055883	 0.114961
H	-0.0311365315	 0.1465736407	-2.9172829383	 0.119197
H	 1.6992094861	 0.465250389	-2.7630151405	 0.137785
H	 1.4096300824	-3.4827833022	-2.4684109366	 0.142754
73.8954	172.1354	192.5792	327.5507	424.0441	451.0684	526.9991	564.3249	758.1587	781.4782	830.967	890.4019	919.4785	938.6081	951.1758	962.0815	976.5147	1001.7881	1016.6493	1062.3737	1075.7104	1093.8217	1126.4171	1137.3207	1156.4744	1206.5041	1231.7947	1245.8759	1305.609	1334.3202	1340.6405	1441.7478	1499.4434	1516.1884	1708.1559	3028.7926	3033.0487	3079.0613	3080.284	3184.511	3212.7485	3222.5043
C1OC2C1C21CN=CO1	C1O[C@H]2[C@@H]1[C@]12CN=CO1	
InChI=1S/C6H7NO2/c1-4-5(8-1)6(4)2-7-3-9-6/h3-5H,1-2H2	InChI=1S/C6H7NO2/c1-4-5(8-1)6(4)2-7-3-9-6/h3-5H,1-2H2/t4-,5+,6+/m1/s1
