18
gdb 15914	3.36593	1.86289	1.50903	0.7567	78.09	-0.2426	0.0418	0.2843	906.9539	0.153751	-310.612958	-310.605308	-310.604364	-310.646507	29.396	
C	-0.0257353019	-1.2123906348	-0.277922332	-0.424099
C	-0.0148092396	-0.018970916	-0.1171036154	 0.182544
C	 0.0078500003	 1.4059297474	 0.0741717585	 0.21619
C	-0.5088552313	 2.3045036763	-1.0961328362	-0.281104
C	 0.8003707798	 3.1453724455	-1.0494404451	-0.218559
C	 1.3386860308	 2.2792088602	 0.1162350913	-0.066327
C	 0.9596492073	 2.7814206248	 1.5308277132	-0.217815
C	-0.3578511733	 1.9531361441	 1.4929667182	-0.281271
H	-0.0382236822	-2.264387718	-0.4195312915	 0.184742
H	-0.6374552613	 1.7499870422	-2.0271683744	 0.114512
H	-1.4390302483	 2.8369108552	-0.8792663146	 0.099104
H	 1.3931904394	 3.0639933436	-1.9633501281	 0.105736
H	 0.6810101621	 4.207518962	-0.8167325965	 0.097233
H	 2.3262348487	 1.8349565951	-0.0080968149	 0.072518
H	 1.6494905244	 2.4478939048	 2.3094778532	 0.105705
H	 0.8449923996	 3.8655034418	 1.6212728234	 0.097078
H	-1.2910972986	 2.5219222089	 1.5279400204	 0.099172
H	-0.4033688161	 1.1684513265	 2.2498850704	 0.114641
9.4509	150.6526	169.0523	311.7156	351.8855	490.4271	516.653	562.1989	607.3233	608.0467	627.6005	741.9444	753.1677	836.9953	862.6286	894.5383	920.2863	940.277	966.7658	1022.3859	1040.2118	1056.4038	1131.7656	1146.9476	1177.3979	1227.3181	1233.7133	1243.8541	1256.6847	1265.4083	1283.7943	1314.6194	1316.3887	1471.2823	1482.3229	1485.3264	1500.7517	2223.5605	3052.2715	3053.656	3059.8548	3062.6729	3096.2138	3098.9027	3111.2816	3122.2024	3127.0287	3503.1344
C#CC12CCC1CC2	C#C[C@]12CC[C@H]1CC2	
InChI=1S/C8H10/c1-2-8-5-3-7(8)4-6-8/h1,7H,3-6H2	InChI=1S/C8H10/c1-2-8-5-3-7(8)4-6-8/h1,7H,3-6H2/t7-,8+
