23
gdb 108511	2.53442	1.47154	1.20683	0.9659	84.6	-0.2387	0.083	0.3216	1168.7477	0.20712	-388.291457	-388.282764	-388.28182	-388.324588	34.265	
C	-0.0112529685	 1.4058218184	 0.3278446701	-0.257435
O	-0.0061204774	 0.0067622773	 0.146491888	-0.295618
C	-1.2767677987	-0.5584754415	-0.0953262913	 0.456419
C	-2.243817895	-0.5843445247	 1.130240093	-0.283958
C	-2.3166630779	-2.1344594783	 1.030571533	-0.232988
C	-1.2517455819	-2.1227442503	-0.1062220235	-0.044536
C	-1.733202656	-2.5626778597	-1.49239218	-0.224186
C	-2.6273170617	-1.3963856066	-1.9626746694	-0.218998
C	-1.8992165406	-0.1401008202	-1.4454297004	-0.273873
H	 1.0141056584	 1.7025294326	 0.5625516824	 0.123446
H	-0.3330424063	 1.9429180634	-0.5762604457	 0.105085
H	-0.6635404738	 1.7114476541	 1.1596614822	 0.104154
H	-1.750778612	-0.2366948766	 2.041133229	 0.104548
H	-3.1890905299	-0.0462281778	 1.0153380512	 0.089682
H	-2.0205703376	-2.6700455989	 1.9348462292	 0.099504
H	-3.2913393832	-2.517671997	 0.7155539818	 0.095997
H	-0.2903835861	-2.5484587722	 0.1845981041	 0.070884
H	-0.8761884929	-2.668932431	-2.1685635619	 0.098811
H	-2.2576633633	-3.5238464375	-1.4771770212	 0.092245
H	-2.7769580643	-1.3806020776	-3.0459419765	 0.095968
H	-3.6217969711	-1.4730401751	-1.5069001091	 0.100698
H	-2.5552002682	 0.733017395	-1.373964624	 0.090247
H	-1.0746652321	 0.113891034	-2.1222444209	 0.103903
86.14	128.5941	190.9735	202.8451	234.6464	316.3888	359.7259	400.1031	441.0893	564.6557	589.8512	624.6369	740.2283	804.4602	827.3181	854.3511	879.0095	911.983	943.5708	948.7	974.768	993.0341	1020.6603	1061.1512	1066.1153	1128.7898	1153.6101	1166.7427	1183.7542	1200.8131	1210.7484	1217.4384	1233.9308	1245.6111	1264.0533	1274.0824	1287.7393	1317.1343	1334.1095	1343.2308	1359.4152	1465.9976	1476.3519	1482.8249	1488.2686	1489.4981	1493.9642	1510.1686	1512.591	2983.8365	3029.5311	3030.7011	3035.0364	3037.2698	3050.9785	3060.6886	3076.6119	3082.1008	3093.1131	3094.5471	3104.4575	3110.274	3120.1088
COC12CCC1CCC2	CO[C@]12CC[C@H]1CCC2	
InChI=1S/C8H14O/c1-9-8-5-2-3-7(8)4-6-8/h7H,2-6H2,1H3	InChI=1S/C8H14O/c1-9-8-5-2-3-7(8)4-6-8/h7H,2-6H2,1H3/t7-,8-/m1/s1
