16
gdb 19747	4.86115	2.02656	2.02639	1.5207	62.85	-0.2204	0.0872	0.3076	725.1953	0.133801	-383.709223	-383.703762	-383.702818	-383.738495	22.776	
C	-0.003419181	 1.4954738059	-0.019807045	-0.100096
O	 1.4134487137	 1.7862633572	-0.0350995046	-0.282082
C	 1.9822818642	 0.4883010959	 0.0068192454	 0.101732
C	 1.1615602949	-0.4075925787	-0.9800636333	-0.095518
C	 1.5400216438	-1.8223598642	-0.5671220304	-0.100092
O	 1.5254767498	-1.6959457507	 0.873749566	-0.282087
C	 1.1689162014	-0.3348223162	 1.047693634	 0.101734
C	 0.0193895692	-0.0251131714	 0.0314173801	-0.095516
H	-0.4707054717	 1.9560649549	 0.8592161036	 0.105499
H	-0.4779210584	 1.9005900955	-0.9220709447	 0.104853
H	 3.0702776714	 0.5386500752	 0.0060796134	 0.087912
H	 1.0943898692	-0.1690419266	-2.0414123146	 0.0777
H	 0.8163240015	-2.5838954464	-0.8828448031	 0.104854
H	 2.5382432657	-2.1250486038	-0.9063988194	 0.105497
H	 1.11975005	-0.0761138956	 2.1045370218	 0.087912
H	-0.926800474	-0.565142021	 0.0625372807	 0.077699
293.4246	322.8687	371.6114	374.6912	603.175	680.9883	689.6403	773.6346	906.7698	909.4396	947.4656	948.3003	953.4329	973.8976	982.6924	1016.1439	1022.5346	1026.3888	1071.1872	1092.2972	1129.3092	1158.4828	1182.8037	1194.7885	1237.2288	1241.0056	1249.8045	1273.3708	1278.7126	1326.9585	1366.6705	1400.323	1530.4905	1530.993	3017.6653	3018.5562	3054.5126	3054.5398	3121.2134	3126.0247	3133.588	3144.1533
C1OC2C3COC2C13	C1O[C@@H]2[C@H]3CO[C@@H]2[C@@H]13	
InChI=1S/C6H8O2/c1-3-4-2-8-5(3)6(4)7-1/h3-6H,1-2H2	InChI=1S/C6H8O2/c1-3-4-2-8-5(3)6(4)7-1/h3-6H,1-2H2/t3-,4-,5+,6+/m0/s1
