16
gdb 61128	5.71607	0.59669	0.55265	4.8437	90.89	-0.2782	-0.0419	0.2362	1881.5861	0.12197	-363.573084	-363.563325	-363.56238	-363.608406	34.406	
C	-0.0376795358	 1.5910985087	-0.0351536158	-0.3902
C	-0.0326011924	 0.0502128116	 0.0100542016	-0.196194
C	 0.7556434043	-0.5001333264	 1.2392533712	-0.350728
C	 2.1638524807	-0.1305344404	 1.2072334218	 0.298032
C	 3.3244053232	 0.1776775303	 1.156861172	-0.433309
C	-1.3887374776	-0.4815038303	 0.014913151	 0.102773
C	-2.5146371929	-0.9209555837	 0.0371553233	 0.049709
C	-3.7871278863	-1.4149732178	 0.0570822527	 0.20298
N	-4.8699465239	-1.8357471385	 0.0750721295	-0.336001
H	 0.9911023723	 1.9579150526	-0.0524029926	 0.144634
H	-0.5570980426	 1.9511457203	-0.9260836942	 0.136072
H	-0.5412002882	 2.0012424682	 0.8451508911	 0.133683
H	 0.4695751148	-0.3222901514	-0.8922776011	 0.136949
H	 0.2863634894	-0.1235695612	 2.1561124972	 0.147233
H	 0.6590221466	-1.5911081518	 1.2652842107	 0.149758
H	 4.3527606684	 0.4418512299	 1.1282158815	 0.204609
56.5683	66.4408	122.8648	158.6599	223.5618	234.9129	266.6424	328.7216	350.325	445.5672	511.0674	513.4267	580.6942	591.0314	628.2921	661.5033	725.4809	850.6353	896.3978	978.5675	1017.3429	1089.1748	1100.0957	1182.0637	1242.4716	1292.3226	1325.7212	1362.424	1409.2228	1470.5941	1496.4529	1498.2944	2239.701	2263.1803	2399.1645	3025.6966	3037.9201	3050.8372	3075.0104	3126.866	3138.3663	3504.1902
CC(CC#C)C#CC#N	C[C@@H](CC#C)C#CC#N	
InChI=1S/C8H7N/c1-3-5-8(2)6-4-7-9/h1,8H,5H2,2H3	InChI=1S/C8H7N/c1-3-5-8(2)6-4-7-9/h1,8H,5H2,2H3/t8-/m0/s1
