18
gdb 39735	3.78653	1.57152	1.37523	1.013	83.03	-0.2088	-0.0474	0.1615	975.7727	0.147898	-364.663656	-364.656764	-364.65582	-364.694508	28.835	
C	-0.24533584	 1.3489606258	-0.3293229336	-0.341058
C	 1.1787272859	 0.9451947377	 0.0332757512	-0.339507
C	 0.0988788185	-0.0829741429	-0.1102513532	 0.355636
C	-0.2614921217	-1.0802419512	 1.0397716087	-0.113036
C	 0.1737512965	-2.2349115871	 0.2310306894	-0.080268
N	-1.1639586063	-2.2953084606	 0.7818920333	-0.132029
C	-2.0556952381	-2.3375445626	-0.4117132818	-0.175514
C	-1.3087555542	-1.5045704138	-1.447065844	-0.094391
C	-0.0501731456	-1.316626114	-0.9988433528	-0.095635
H	-0.8347989949	 1.8582860464	 0.4268025703	 0.116993
H	-0.4351307327	 1.6848191464	-1.343659787	 0.118794
H	 1.9380807612	 0.998134144	-0.7391690064	 0.122193
H	 1.534112065	 1.1871362536	 1.0303715191	 0.114714
H	-0.080236623	-0.890706506	 2.0928943201	 0.105545
H	 0.937028912	-2.9852373916	 0.3994646657	 0.092756
H	-2.2378395169	-3.3965150988	-0.6363715771	 0.119447
H	-3.0265512513	-1.8676749105	-0.2154407907	 0.120072
H	-1.8396566941	-0.7565064948	-2.0289156511	 0.105288
149.2492	234.2933	245.737	339.281	402.383	467.93	559.4504	635.0351	715.1972	758.5737	770.5718	795.1633	803.1207	818.4349	883.4599	889.2246	907.1108	917.0538	941.3133	980.7987	985.8198	1007.6932	1048.9755	1052.7762	1073.3592	1081.0537	1172.4892	1181.9629	1191.0895	1194.7268	1208.7822	1273.9333	1283.1673	1315.0482	1367.3698	1455.3314	1471.0419	1497.6153	1567.5755	3019.2454	3066.7236	3123.4078	3127.2043	3166.4705	3167.0043	3184.9932	3203.108	3218.3237
C1CC11C2C3N2CC=C13	C1CC21[C@@H]1[C@H]3N1C[CH][C]23	
InChI=1S/C8H9N/c1-4-9-6-5(1)8(2-3-8)7(6)9/h1,6-7H,2-4H2	InChI=1S/C8H9N/c1-4-9-6-5(1)8(2-3-8)7(6)9/h1,6-7H,2-4H2/t6-,7-,9?/m0/s1
