21
gdb 92650	2.46724	1.65991	1.38037	0.2896	77.85	-0.2284	0.0751	0.3035	1051.2831	0.184454	-424.211571	-424.203569	-424.202624	-424.2438	31.808	
C	-0.4547194631	 1.453322978	-0.1431979707	-0.4045
C	-0.0818659339	-0.0237623337	-0.0569456821	-0.030723
C	 1.092332157	-0.4673205935	-0.989393956	-0.260351
C	 2.0516754978	-0.4662996051	 0.2190510379	 0.075004
O	 2.7449452872	 0.7708572656	 0.2884817167	-0.264721
C	 3.0344493917	 1.097633978	 1.6405352063	-0.088781
C	 1.7413805744	 1.3556494625	 2.4000787581	-0.075047
O	 0.8680280615	 0.2313236117	 2.3665352967	-0.272912
C	 0.8134606397	-0.4763570407	 1.1497657678	 0.128873
H	 0.4333224496	 2.0881216147	-0.1900213507	 0.12802
H	-1.0479600597	 1.6430575876	-1.0444595146	 0.109929
H	-1.0531489998	 1.7575437832	 0.721948319	 0.119943
H	-0.9887313905	-0.6283801432	-0.1535498944	 0.068137
H	 0.9579357351	-1.4652367332	-1.4133279696	 0.101078
H	 1.3718352255	 0.2262354706	-1.7853549979	 0.112075
H	 2.7646726273	-1.2973942135	 0.323071966	 0.060846
H	 3.604883039	 0.2847212075	 2.1189997537	 0.093385
H	 3.656179164	 1.997814028	 1.6273548449	 0.10929
H	 1.9478548198	 1.5473630453	 3.4584073256	 0.105328
H	 1.2489650809	 2.2437544055	 1.9808335076	 0.101035
H	 0.5526522765	-1.5044833353	 1.4209533354	 0.084092
106.0079	173.2733	204.6453	264.3887	298.7583	362.3641	377.6756	436.0823	481.6277	536.5274	655.0939	753.5448	783.2488	826.2781	861.0122	883.5144	908.7324	934.3189	956.6208	1013.1521	1033.2623	1086.8977	1094.124	1101.3867	1129.9084	1169.2578	1187.4641	1190.4805	1217.6177	1259.6231	1271.8456	1290.9187	1294.0587	1315.3967	1357.0826	1374.3837	1380.196	1405.0504	1409.6106	1422.6303	1473.4528	1487.986	1495.5029	1496.6577	1514.2635	2975.2417	2988.9895	3010.9461	3033.0893	3045.4137	3058.1611	3071.911	3074.7658	3087.9695	3095.0702	3121.8842	3126.7355
CC1CC2OCCOC12	C[C@H]1C[C@H]2OCCO[C@@H]12	
InChI=1S/C7H12O2/c1-5-4-6-7(5)9-3-2-8-6/h5-7H,2-4H2,1H3	InChI=1S/C7H12O2/c1-5-4-6-7(5)9-3-2-8-6/h5-7H,2-4H2,1H3/t5-,6+,7-/m0/s1
