17
gdb 78442	3.08969	1.56551	1.32494	4.7182	72.73	-0.2397	-0.001	0.2387	1001.9685	0.136636	-417.938472	-417.931248	-417.930303	-417.969861	28.903	
C	-0.1773915054	 1.3409043759	-0.060148847	-0.327377
N	 0.0398902849	-0.0986150929	 0.0272624006	-0.091295
C	 1.4260651648	-0.5503195406	-0.184407958	-0.033434
C	 0.8284568801	-0.5574356327	 1.1839680878	-0.033434
C	 0.720575912	-2.0776009814	 1.4357786562	-0.175845
N	 2.0003271233	-2.6443843938	 0.8702087393	-0.315953
C	 1.5432598047	-2.0678058945	-0.4479426245	-0.175845
C	 0.1530750858	-2.5512115327	 0.0639368479	 0.497406
O	-0.7634604139	-3.1842727541	-0.339637167	-0.310622
H	 0.6697711466	 1.9402763159	 0.3129910117	 0.101381
H	-0.3566936754	 1.6113714741	-1.1049096869	 0.133929
H	-1.066696838	 1.6029128414	 0.5206388973	 0.133929
H	 2.1787455607	 0.1585891589	-0.5135961534	 0.098759
H	 1.0958403741	 0.1456945071	 1.9659899556	 0.098759
H	 0.3835931351	-2.4458172747	 2.4025087124	 0.090606
H	 2.8227779644	-2.158943148	 1.2319250809	 0.218431
H	 2.0247661863	-2.426279678	-1.3553322428	 0.090606
140.1685	204.8687	242.7625	273.5618	346.161	416.2807	481.5741	504.1686	609.5046	704.5059	761.4129	796.8191	829.4586	857.2297	867.4037	870.4916	912.0382	957.9219	1015.2088	1022.481	1049.6418	1056.5026	1099.9532	1118.4823	1147.0649	1158.3488	1213.4469	1216.4394	1245.3425	1272.6194	1273.3509	1319.2442	1373.5986	1452.6921	1492.3453	1495.0775	1950.4235	2963.9963	3074.9833	3113.648	3146.8358	3148.6699	3162.9831	3172.7845	3443.7791
CN1C2C1C1NC2C1=O	CN1[C@H]2[C@@H]1[C@@H]1N[C@H]2C1=O	
InChI=1S/C6H8N2O/c1-8-4-2-6(9)3(7-2)5(4)8/h2-5,7H,1H3	InChI=1S/C6H8N2O/c1-8-4-2-6(9)3(7-2)5(4)8/h2-5,7H,1H3/t2-,3+,4-,5+,8?
