19
gdb 92488	2.59023	1.66978	1.6362	0.864	69.31	-0.2483	0.0724	0.3207	944.0345	0.162317	-460.16498	-460.157691	-460.156747	-460.196624	29.432	
O	 0.0856401387	 1.4076415615	-0.0794628198	-0.449532
C	 0.0742385423	-0.0066300621	-0.02169063	 0.154081
C	 0.7774961809	-0.5714870037	 1.2492705993	-0.254163
C	-0.2640067956	-1.3435598449	 2.0693279888	 0.080541
C	-1.4609363684	-0.4464132265	 2.3872975711	-0.085491
O	-2.0002516252	 0.0817513701	 1.1616358396	-0.298283
C	-1.3735957072	-0.5184929609	 0.0177216885	 0.033841
C	-1.4192089582	-2.0394225211	 0.1330324797	-0.086972
O	-0.7256619508	-2.4642336648	 1.3106767653	-0.279852
H	-0.6304886527	 1.6983530747	 0.501210725	 0.284153
H	 0.574731965	-0.3539216509	-0.9311670593	 0.08692
H	 1.5960927974	-1.2472262184	 0.9873025021	 0.108837
H	 1.1976795507	 0.2626282693	 1.8194996697	 0.107966
H	 0.1594224263	-1.7555299878	 2.9887086524	 0.083219
H	-2.2377592684	-1.026244018	 2.9012006991	 0.110383
H	-1.1694940284	 0.3933429524	 3.0307024142	 0.103239
H	-1.9362929704	-0.1707094729	-0.8518834274	 0.088455
H	-2.4621781335	-2.3778369807	 0.1860480185	 0.108681
H	-0.9530990624	-2.5040998953	-0.7469996069	 0.103978
81.8812	216.9717	298.4752	309.0049	387.1943	427.7008	443.9775	471.1074	536.9765	657.1129	688.1077	803.4113	836.1018	853.1761	881.0837	904.5068	938.2447	965.2384	1003.8936	1047.2502	1055.8634	1092.1349	1106.7668	1129.7879	1143.506	1193.68	1233.6279	1235.4787	1263.2321	1286.0613	1330.8329	1337.0669	1345.0667	1358.5703	1368.0038	1403.5156	1404.8368	1442.1341	1473.2624	1511.0424	1516.2777	3003.3751	3014.5471	3039.939	3052.0864	3055.818	3061.283	3084.9164	3091.5551	3106.4991	3756.6962
OC1CC2COC1CO2	O[C@H]1C[C@H]2CO[C@@H]1CO2	
InChI=1S/C6H10O3/c7-5-1-4-2-9-6(5)3-8-4/h4-7H,1-3H2	InChI=1S/C6H10O3/c7-5-1-4-2-9-6(5)3-8-4/h4-7H,1-3H2/t4-,5-,6+/m0/s1
