18
gdb 100241	2.84288	1.07261	0.95197	2.1175	72.36	-0.2712	-0.0517	0.2195	1269.5095	0.145093	-439.107907	-439.097997	-439.097053	-439.142827	35.341	
C	 0.0660963474	 1.5403152201	-0.0420226291	-0.429213
C	 0.0258055236	 0.0002065044	 0.0297878085	 0.099489
C	 0.7038841974	-0.5126278659	 1.321400511	-0.084771
O	 2.0348831533	-0.0762154097	 1.4517850808	-0.424756
C	-1.4406349338	-0.5175092759	 0.0110352271	-0.381018
C	-2.2069119737	-0.0984136749	-1.1607991802	 0.271147
N	-2.7996192572	 0.2401097324	-2.0934641755	-0.309678
C	 0.7596647858	-0.536407191	-1.1953810427	 0.150321
O	 1.8368027193	-1.0828542838	-1.1622153389	-0.268545
H	 1.0884024353	 1.8863397727	 0.1203184808	 0.153579
H	-0.293453927	 1.9126355593	-1.0058174516	 0.142925
H	-0.5687744641	 1.9669778735	 0.7417189112	 0.128807
H	 0.1571976041	-0.1250875578	 2.1890329761	 0.109846
H	 0.6327435846	-1.6116419603	 1.3499690185	 0.096179
H	 2.5202130708	-0.4985397752	 0.7304573833	 0.298881
H	-1.4610478077	-1.6124650875	 0.0669162926	 0.160898
H	-1.9526371428	-0.1461650658	 0.9064903095	 0.163121
H	 0.2397876047	-0.3741514247	-2.1637311413	 0.12279
70.0986	93.8904	129.1554	165.716	224.4401	228.4487	279.1412	320.8222	345.7921	349.8109	391.4511	432.7135	511.235	582.5919	668.7966	793.3069	871.2079	898.6348	940.664	959.0593	984.2368	1026.5936	1100.3664	1136.8533	1172.8939	1209.9343	1224.8036	1308.793	1342.4273	1390.7111	1407.0657	1431.6845	1447.5569	1463.0608	1488.5134	1500.4674	1503.7011	1808.4551	2359.537	2914.6231	2978.7341	3037.7964	3041.1302	3059.3437	3077.6189	3108.8963	3143.1238	3762.673
CC(CO)(CC#N)C=O	C[C@@](CO)(CC#N)C=O	
InChI=1S/C6H9NO2/c1-6(4-8,5-9)2-3-7/h4,9H,2,5H2,1H3	InChI=1S/C6H9NO2/c1-6(4-8,5-9)2-3-7/h4,9H,2,5H2,1H3/t6-/m1/s1
