17
gdb 103353	2.92311	1.41815	1.11728	3.6942	64.38	-0.2446	0.0446	0.2892	1083.0092	0.134737	-496.014565	-496.006399	-496.005455	-496.047005	32.122	
O	-0.1337923288	 1.4652487872	-0.1561259758	-0.441205
C	 0.0010362544	 0.049342959	 0.0057601815	-0.169449
C	-1.4188666805	-0.4909303061	 0.0133455917	 0.452421
O	-2.1910359067	 0.228969208	 0.9483529946	-0.504473
C	-2.0607607971	-0.8797560798	-1.3666897929	-0.08884
O	-1.1274376971	-2.0223051076	-1.4021362238	-0.304407
C	-1.6331747119	-2.0262376541	-0.014514685	-0.083478
C	-3.0680131628	-1.8245956823	-0.6254542242	 0.164195
O	-4.1629779758	-1.3802371601	 0.0892950868	-0.436386
H	 0.7076559668	 1.8814147455	 0.0490086403	 0.299774
H	 0.5764854463	-0.4033320901	-0.8061611244	 0.127556
H	 0.482036863	-0.1865063619	 0.9660841651	 0.099183
H	-1.8895477854	 1.1466055376	 0.878641044	 0.297204
H	-2.1724139106	-0.2903043719	-2.2772179518	 0.094931
H	-1.2467119494	-2.7895208763	 0.6626813558	 0.091282
H	-3.3636756093	-2.6731191488	-1.2443112749	 0.103804
H	-3.8682279151	-0.6256925883	 0.6199491931	 0.297884
106.3528	156.7652	233.5758	255.5804	324.0441	338.7268	401.8798	426.9236	475.7578	519.8582	585.8481	606.1572	661.736	700.4148	787.038	857.2313	862.0871	887.2444	915.6755	1012.6582	1042.8124	1083.786	1100.1191	1131.9508	1133.7777	1165.6885	1190.2863	1205.699	1238.279	1251.0789	1266.1146	1278.3842	1344.5046	1415.2764	1449.4098	1473.2359	1515.8931	3001.6525	3093.3552	3108.7087	3114.0936	3123.9046	3717.206	3734.5796	3847.359
OCC1(O)C2OC1C2O	OC[C@@]1(O)[C@H]2O[C@@H]1[C@H]2O	
InChI=1S/C5H8O4/c6-1-5(8)3-2(7)4(5)9-3/h2-4,6-8H,1H2	InChI=1S/C5H8O4/c6-1-5(8)3-2(7)4(5)9-3/h2-4,6-8H,1H2/t2-,3-,4+,5+
