17
gdb 51979	4.57244	0.65471	0.59895	2.3491	72.98	-0.2576	-0.0373	0.2203	1763.6957	0.134568	-455.184045	-455.17436	-455.173416	-455.220677	32.715	
N	 0.1534197614	 1.2220594224	-1.3221233409	-0.488619
C	-0.070656522	 0.2318687867	-0.5642936749	 0.364567
C	-1.4336887533	-0.4247763089	-0.531908886	-0.284745
C	-2.2576177094	 0.0041026451	 0.7038226329	-0.27092
C	-3.6590700209	-0.5642768678	 0.6499360197	 0.156068
O	-4.1376624859	-1.287094143	 1.4842396706	-0.230949
N	 0.8523771323	-0.3568881324	 0.335388176	-0.335128
C	 2.1472403621	 0.0419502818	 0.5646858395	 0.167202
O	 2.7046466057	 0.972861611	 0.0299694697	-0.293862
H	 1.1080761049	 1.5635741997	-1.2048362266	 0.254741
H	-1.9491689369	-0.122397862	-1.4458354505	 0.145404
H	-1.3326514985	-1.517579779	-0.5482025203	 0.116426
H	-1.7930471699	-0.3126019059	 1.6420261913	 0.116238
H	-2.3305851629	 1.0997356483	 0.7041713162	 0.143434
H	-4.2388624789	-0.2655265109	-0.2542594661	 0.082493
H	 0.5372094242	-1.159814784	 0.8594132237	 0.25954
H	 2.641394018	-0.6026025911	 1.3166911059	 0.09811
46.7497	53.9267	67.8271	82.3449	191.5771	244.0099	259.7681	272.7489	400.3033	489.9559	522.7643	587.635	673.6582	773.1773	794.4748	861.3491	919.4002	972.7892	997.8232	1026.1617	1043.3409	1082.71	1119.5206	1186.4811	1199.3972	1266.544	1297.2063	1346.9866	1370.4785	1426.631	1439.8768	1464.4819	1488.8759	1509.5313	1736.4024	1815.4264	1837.4994	2865.5601	2952.4658	3026.6695	3036.7159	3097.3831	3120.6164	3485.9558	3613.5021
N=C(CCC=O)NC=O	N=C(CCC=O)NC=O	
InChI=1S/C5H8N2O2/c6-5(7-4-9)2-1-3-8/h3-4H,1-2H2,(H2,6,7,9)	InChI=1S/C5H8N2O2/c6-5(7-4-9)2-1-3-8/h3-4H,1-2H2,(H2,6,7,9)
