17
gdb 111740	3.27791	1.15919	1.00852	5.2479	71.92	-0.2454	-0.0327	0.2127	1209.9158	0.1335	-458.903614	-458.894884	-458.89394	-458.937502	31.086	
C	 0.2503201296	 1.12167665	 0.3372509916	-0.238375
O	-0.3838388638	 0.039870254	-0.3247913223	-0.231017
C	 0.4104324292	-0.5341878182	-1.2973840404	 0.056592
C	 1.4700935438	-1.5514261278	-0.9922890657	-0.246594
C	 0.9645902419	-2.4982524801	 0.0957613856	-0.091382
O	-0.2756931506	-2.7542218494	-0.6099826958	-0.293407
C	 0.1444848495	-1.9623607315	-1.7002452133	 0.331179
C	-0.1043837359	-2.3810000126	-3.0900254184	 0.069767
O	-0.6972142736	-3.3773322531	-3.4163222792	-0.257981
H	 1.1838685864	 0.8066480869	 0.823866051	 0.114051
H	 0.4787419999	 1.9417384603	-0.3592371501	 0.112962
H	-0.4479629148	 1.4824170388	 1.0947357092	 0.139392
H	 0.6657070678	 0.1187842388	-2.1367164252	 0.101996
H	 2.475459232	-1.5170542226	-1.3914669602	 0.115935
H	 1.5533375108	-3.4166637671	 0.1780724121	 0.123302
H	 0.7923060016	-2.0654599017	 1.0859622268	 0.121271
H	 0.3161456864	-1.6687388646	-3.8376623958	 0.072309
75.7563	99.4447	169.7424	172.8234	230.8436	247.707	260.3809	332.8554	424.4782	567.8046	638.3137	742.8283	777.9553	821.6793	904.2605	961.0927	975.4951	992.4229	1015.8669	1042.4585	1048.455	1116.5704	1136.2024	1168.6461	1179.8951	1200.3124	1238.8654	1278.973	1314.4486	1353.2165	1410.8182	1447.0612	1486.0304	1489.0967	1507.0884	1510.2615	1817.6488	2860.5611	2989.204	3042.9773	3046.6116	3072.6777	3099.6697	3130.6602	3199.6156
COC1C2COC12C=O	CO[C@H]1[C@H]2CO[C@@]12C=O	
InChI=1S/C6H8O3/c1-8-5-4-2-9-6(4,5)3-7/h3-5H,2H2,1H3	InChI=1S/C6H8O3/c1-8-5-4-2-9-6(4,5)3-7/h3-5H,2H2,1H3/t4-,5+,6-/m1/s1
