14
gdb 132868	3.18412	1.33937	0.94336	1.3638	70.89	-0.191	-0.0259	0.1651	1119.8259	0.102372	-478.039748	-478.032352	-478.031408	-478.071374	29.151	
N	 0.0115714418	 1.3816993055	 0.139405925	-0.575129
C	-0.067182865	 0.0172010879	 0.0521300469	 0.214564
C	-1.2169376024	-0.7288844238	 0.0300644275	-0.318663
C	-1.1380648624	-2.1434591367	-0.0061960316	 0.244573
F	-2.2798151251	-2.8424379429	-0.0207401079	-0.083443
C	 0.0521183139	-2.7868278104	-0.0238438515	-0.138552
N	 1.1981555015	-2.017153305	-0.0115501267	-0.371149
C	 1.2495573757	-0.6399059206	 0.0155552552	 0.416206
O	 2.3097196208	-0.0185025909	 0.000064836	-0.423497
H	 0.9345390028	 1.7398306326	-0.0675126006	 0.270924
H	-0.7688142818	 1.9328165135	-0.1765576814	 0.254373
H	-2.1966703568	-0.2635620637	 0.046911885	 0.106243
H	 0.161286731	-3.8604141535	-0.048097156	 0.138386
H	 2.101762676	-2.4671827219	-0.04149705	 0.265164
138.3409	213.9402	305.4503	359.2054	367.7378	396.7127	438.4188	466.7883	506.2623	541.5976	588.6006	610.6275	675.4641	719.6862	769.6816	794.5481	814.4377	866.8735	997.3774	1096.3607	1148.2626	1217.1691	1273.2144	1331.6515	1370.1017	1458.9468	1484.3238	1588.5477	1640.1469	1691.7329	1753.0533	3188.0782	3248.9924	3558.7293	3619.1907	3696.0181
NC1=CC(F)=CNC1=O	Nc1cc(F)c[nH]c1=O	
InChI=1S/C5H5FN2O/c6-3-1-4(7)5(9)8-2-3/h1-2H,7H2,(H,8,9)	InChI=1S/C5H5FN2O/c6-3-1-4(7)5(9)8-2-3/h1-2H,7H2,(H,8,9)
