24
gdb 118756	3.2541	0.83384	0.76654	1.9459	86.91	-0.2061	0.0685	0.2746	1649.2678	0.215094	-405.527089	-405.516353	-405.515409	-405.563057	39.519	
C	-0.0036774752	 1.6173687129	 0.0546569209	-0.380714
C	 0.0034743811	 0.0862346918	 0.0815884293	-0.185963
C	-1.3939175345	-0.5218914709	-0.0932747109	-0.224134
C	-1.4157222515	-2.0477434269	-0.0383045773	 0.401381
O	-0.6541618152	-2.6243405016	-1.0873077616	-0.488611
C	-1.173594832	-2.7259165254	 1.3459748325	-0.221241
N	-2.3259003792	-3.6070406941	 1.0924346848	-0.061088
C	-3.2247285063	-3.9009519523	 2.1820594916	-0.318945
C	-2.7991225133	-2.7408564987	-0.0032333164	-0.201969
H	 1.0052399588	 2.0240050766	 0.1748320741	 0.112512
H	-0.4045163061	 1.9926209795	-0.8932148772	 0.118215
H	-0.6256614116	 2.0236709418	 0.8598257947	 0.115782
H	 0.6630028568	-0.280289603	-0.7158537285	 0.092027
H	 0.438042033	-0.2597711311	 1.0293700137	 0.099449
H	-2.0608302433	-0.128607113	 0.6840386423	 0.09038
H	-1.811977436	-0.2076829753	-1.0586946245	 0.101389
H	 0.2749865373	-2.433628059	-0.9229163667	 0.277521
H	-0.2184742111	-3.2474912199	 1.483313467	 0.091913
H	-1.3244083963	-2.0284708495	 2.1874814608	 0.0753
H	-3.6363361384	-2.9941910223	 2.6694471269	 0.082409
H	-4.0671217033	-4.4996712596	 1.8189053512	 0.120113
H	-2.7042655702	-4.4873455546	 2.9471746264	 0.118421
H	-3.6055922534	-2.0500777952	 0.2929580667	 0.076436
H	-3.0880326002	-3.2689691403	-0.9174652	 0.109418
59.2388	80.5441	97.0587	163.3953	222.0875	239.7348	247.9381	292.9525	305.9535	318.283	339.2884	369.2137	431.2408	485.9826	665.1454	745.5865	766.3634	871.6869	898.5339	921.0054	941.5706	956.1242	989.7425	1010.1105	1047.7498	1052.99	1115.3389	1122.9676	1132.8323	1164.4529	1190.5373	1228.3088	1239.5514	1271.4455	1290.7564	1297.8684	1307.6582	1336.2484	1338.2302	1370.9326	1405.3658	1411.0045	1451.1	1474.2948	1483.9176	1488.8652	1492.7716	1497.8512	1498.4195	1508.548	1515.8754	2904.472	2953.3465	2969.0715	3009.1081	3019.9805	3031.0926	3037.3351	3039.4655	3051.3563	3064.5519	3070.5716	3094.2939	3098.5455	3103.0997	3814.4731
CCCC1(O)CN(C)C1	CCCC1(O)CN(C)C1	
InChI=1S/C7H15NO/c1-3-4-7(9)5-8(2)6-7/h9H,3-6H2,1-2H3	InChI=1S/C7H15NO/c1-3-4-7(9)5-8(2)6-7/h9H,3-6H2,1-2H3
