17
gdb 108846	2.45113	1.3136	0.9044	3.6949	72.02	-0.2662	-0.034	0.2321	1270.1539	0.135089	-459.014317	-459.005445	-459.004501	-459.048279	31.977	
C	-0.0539229987	 1.5562103214	-0.0648669186	-0.39339
C	 0.0245404527	 0.033778933	 0.016242018	 0.070519
O	 0.7959634228	-0.4736905509	-1.0859395722	-0.238735
C	 1.8405321932	-1.2239142296	-0.6190669013	 0.389615
O	 2.6359765653	-1.7624679679	-1.3395119457	-0.355588
C	 1.776145407	-1.2232986011	 0.8646757149	 0.149371
C	 2.7853268688	-1.9512200085	 1.6829148137	-0.175549
O	 2.4781791054	-1.7747367155	 3.0529014925	-0.421048
C	 0.7221592785	-0.4988080329	 1.2365184025	-0.204974
H	 0.9448740595	 1.9943678755	 0.0113244455	 0.133114
H	-0.5010963525	 1.8606733012	-1.0143460015	 0.138611
H	-0.6708966195	 1.9450061331	 0.7510598788	 0.124405
H	-0.9852785837	-0.3907583481	-0.0726028796	 0.111458
H	 2.7799058868	-3.0137390581	 1.3897901401	 0.119646
H	 3.7886081482	-1.5707823336	 1.4306029447	 0.11939
H	 3.1320678375	-2.2533332036	 3.5700089544	 0.295124
H	 0.3934622588	-0.2993448546	 2.2471683839	 0.13803
74.6968	128.7697	144.6801	171.4967	236.9093	243.1446	318.8986	356.44	368.1824	500.2614	591.1552	629.0741	719.0331	774.2727	822.646	880.0524	891.4825	959.9682	1035.6161	1042.9259	1057.5047	1104.0718	1116.3331	1142.2424	1202.9548	1231.3677	1242.0659	1320.571	1337.7993	1360.3843	1404.2767	1469.3395	1485.9048	1495.4507	1501.9745	1725.0083	1857.368	2971.7271	2989.7349	3013.7551	3045.6676	3121.8344	3131.966	3237.855	3840.4702
CC1OC(=O)C(CO)=C1	C[C@H]1OC(=O)C(=C1)CO	
InChI=1S/C6H8O3/c1-4-2-5(3-7)6(8)9-4/h2,4,7H,3H2,1H3	InChI=1S/C6H8O3/c1-4-2-5(3-7)6(8)9-4/h2,4,7H,3H2,1H3/t4-/m1/s1
