18
gdb 89105	4.5841	0.67842	0.63593	3.6248	73.56	-0.2429	0.0267	0.2696	1716.2302	0.145855	-439.06319	-439.053642	-439.052698	-439.09884	33.839	
O	-0.5680016251	 1.2161753155	-0.6558920906	-0.427038
C	-0.2402443212	-0.066200582	-0.2159715157	 0.122794
C	-0.222578755	-0.3884133375	 1.262313366	-0.365254
C	-1.32779901	-0.9199820214	 0.3882498077	 0.069844
O	-2.5729358339	-0.2928521346	 0.5483815574	-0.265809
C	-3.4248477161	-0.4880570401	-0.5705454102	-0.068649
C	-4.7514222915	 0.2033222973	-0.2356570022	-0.342501
C	-5.7367577633	 0.0381219923	-1.2992606569	 0.250243
N	-6.5053216802	-0.1037570848	-2.1499473742	-0.297483
H	-1.37175966	 1.4716135055	-0.1861375659	 0.286286
H	 0.5011692321	-0.5198705259	-0.8643838864	 0.112888
H	 0.5090325974	-1.0880844635	 1.6509180151	 0.12294
H	-0.4908679832	 0.4155897777	 1.9403520307	 0.127547
H	-1.3869990004	-1.9872781904	 0.1774447856	 0.095376
H	-2.9817911521	-0.0630794804	-1.4802209987	 0.132725
H	-3.5929740337	-1.5606222914	-0.7431468791	 0.120461
H	-5.1490543506	-0.2110200188	 0.696612737	 0.166214
H	-4.579287043	 1.2714650526	-0.0654846997	 0.159414
45.0387	70.9216	99.4978	125.1707	205.5797	235.663	349.755	360.3087	390.3573	399.7285	465.571	560.8756	660.0502	769.9166	791.3598	798.2926	868.4141	958.0142	993.1765	1036.9036	1059.4418	1079.3182	1091.3535	1095.2606	1115.4535	1129.7803	1171.5734	1226.1761	1229.7915	1301.2975	1306.3338	1328.6037	1361.6556	1432.0554	1433.0889	1470.7994	1482.8713	1524.5178	2368.0571	3004.6876	3050.8923	3055.428	3099.3102	3106.6498	3133.0807	3177.0559	3224.2956	3779.648
OC1CC1OCCC#N	O[C@H]1C[C@H]1OCCC#N	
InChI=1S/C6H9NO2/c7-2-1-3-9-6-4-5(6)8/h5-6,8H,1,3-4H2	InChI=1S/C6H9NO2/c7-2-1-3-9-6-4-5(6)8/h5-6,8H,1,3-4H2/t5-,6+/m0/s1
