23
gdb 60172	2.88193	0.97805	0.89376	0.5602	83.28	-0.2293	0.0794	0.3088	1455.8175	0.201705	-425.411362	-425.400512	-425.399568	-425.447111	40.579	
C	 0.2195989999	 1.4204826627	-0.5262731903	-0.397254
C	 0.0570904393	-0.0253824311	-0.0534937413	 0.150937
C	-1.4033026263	-0.452640334	 0.0239595369	-0.392341
O	 0.6980330765	-0.9660211095	-0.9207684182	-0.260934
C	 2.0871563032	-0.8899540203	-0.9413828863	 0.105485
C	 2.8119245441	-1.836193779	-1.8615986409	-0.393194
C	 2.8276161582	-0.339732723	-2.1310706069	 0.356159
C	 2.0832845677	 0.2034931649	-3.3266701888	-0.450106
O	 3.9931324115	 0.3650582413	-1.7820926048	-0.467289
H	 1.2738808674	 1.7026990534	-0.5914149787	 0.134749
H	-0.2380015691	 1.5566083137	-1.5113648406	 0.11859
H	-0.2690798106	 2.1026617582	 0.1770349611	 0.111697
H	 0.5128955518	-0.1195609627	 0.9466938784	 0.068541
H	-1.8746994984	-0.3739198518	-0.9610250545	 0.12084
H	-1.4805807893	-1.490250168	 0.3587916388	 0.122223
H	-1.9544511805	 0.183814374	 0.7224126739	 0.11239
H	 2.551596933	-0.698907922	 0.026590806	 0.09282
H	 3.7183158891	-2.301128725	-1.4900577137	 0.111383
H	 2.1990625903	-2.455088873	-2.5085044061	 0.118974
H	 1.1151239584	-0.2900728805	-3.4370831884	 0.131292
H	 1.9131487719	 1.2785645584	-3.2113523625	 0.122068
H	 2.65595192	 0.0476821393	-4.2492256864	 0.103818
H	 4.652750482	 0.203539254	-2.4665467666	 0.279151
46.1629	93.4388	123.2699	214.3833	219.459	228.1304	263.5117	279.6351	302.7032	318.809	368.4476	402.7352	445.2085	462.4969	492.0445	551.5239	717.9056	794.2289	848.5512	897.4476	908.999	928.6826	946.0161	961.897	983.5037	1033.3427	1058.3209	1093.0855	1120.4114	1147.3264	1173.7453	1190.797	1208.6572	1241.6777	1296.1403	1343.2777	1369.0257	1380.1999	1399.1116	1410.4641	1412.6801	1419.5213	1475.991	1480.5804	1487.3071	1488.8228	1496.1738	1509.7684	1512.8284	2958.6842	3026.631	3036.8639	3042.8908	3090.5213	3099.9968	3106.5568	3115.1318	3119.9338	3123.8644	3128.84	3132.3092	3225.808	3781.7752
CC(C)OC1CC1(C)O	CC(C)O[C@H]1C[C@]1(C)O	
InChI=1S/C7H14O2/c1-5(2)9-6-4-7(6,3)8/h5-6,8H,4H2,1-3H3	InChI=1S/C7H14O2/c1-5(2)9-6-4-7(6,3)8/h5-6,8H,4H2,1-3H3/t6-,7-/m0/s1
