21
gdb 93139	2.23937	1.81125	1.32964	1.5151	82.73	-0.2444	0.0172	0.2616	1056.7608	0.184949	-387.083325	-387.07526	-387.074316	-387.115357	32.83	
O	 0.240581501	 1.4260250478	 0.1180448874	-0.440305
C	 0.0368585645	 0.0232862624	-0.0336437765	 0.087143
C	 0.7128125088	-0.7615672479	 1.1000753253	-0.274988
C	 0.2696179359	-0.4103204523	 2.5035927109	-0.060968
C	-0.822953109	 0.2280609227	 2.9383916083	-0.058142
C	-1.9731380628	 0.8108275365	 2.1425320571	-0.29188
C	-2.4140939404	 0.002668081	 0.9294372845	-0.00185
C	-2.5114523586	 0.6375699874	-0.4403769685	-0.321411
C	-1.430834946	-0.3670829537	-0.1500754736	-0.001217
H	 0.3620419256	 1.6015649756	 1.0574106581	 0.287341
H	 0.5306320255	-0.2423160068	-0.9779126693	 0.079539
H	 0.5581526532	-1.8363790046	 0.9264846272	 0.113161
H	 1.7986201079	-0.6085198505	 1.0374303649	 0.106211
H	 0.9762496809	-0.7310278828	 3.2679862738	 0.086757
H	-0.8929424119	 0.382783668	 4.0140954574	 0.086358
H	-2.8293459095	 0.9360686868	 2.8152426683	 0.101215
H	-1.7109143171	 1.8295054106	 1.8274472976	 0.115991
H	-3.1566919359	-0.7570384786	 1.1578970852	 0.079986
H	-3.3276729318	 0.3516494436	-1.0947708219	 0.103936
H	-2.1951035186	 1.6712931944	-0.5252407009	 0.126546
H	-1.5564037416	-1.3566327396	-0.5841133553	 0.076577
130.7623	169.5119	221.1174	285.487	324.7837	354.3371	383.6255	435.3205	440.8231	526.3074	661.499	704.3566	730.7625	815.8592	824.3244	843.0921	869.4573	903.1421	926.5418	951.5818	994.1632	1013.5907	1046.7463	1063.6487	1067.4462	1075.9947	1128.9898	1139.1723	1158.7331	1209.0701	1233.4929	1257.8579	1260.471	1296.2818	1350.2796	1368.9463	1383.0327	1397.6201	1412.2599	1421.57	1436.8343	1466.3362	1475.8205	1495.7075	1715.6253	3002.1992	3016.4607	3017.0292	3035.2207	3050.8434	3119.731	3125.0835	3133.4375	3140.4858	3145.2862	3224.629	3800.5893
OC1CC=CCC2CC12	O[C@H]1CC=CC[C@H]2C[C@@H]12	
InChI=1S/C8H12O/c9-8-4-2-1-3-6-5-7(6)8/h1-2,6-9H,3-5H2	InChI=1S/C8H12O/c9-8-4-2-1-3-6-5-7(6)8/h1-2,6-9H,3-5H2/t6-,7+,8-/m0/s1
