19
gdb 78246	2.1602	1.62411	1.2448	2.3514	70.69	-0.2455	0.0673	0.3129	1075.9383	0.159157	-460.141627	-460.132846	-460.131902	-460.174767	33.876	
O	-0.1871988068	 1.5830610461	 0.0352282796	-0.418742
C	-0.069403812	 0.1847990278	 0.040715207	 0.055786
C	-0.4291147325	-0.6670747418	 1.2324540476	-0.100384
C	-1.3037717197	-0.6584841976	-0.0175169752	-0.076051
C	-2.6395327362	-0.0289478267	 0.3375490634	 0.14022
O	-3.5671253228	-1.1064266244	 0.4210166059	-0.440237
C	-2.4068637978	 0.6811020458	 1.6930623239	-0.294268
C	-1.2173696184	-0.0418954071	 2.3699377853	 0.140105
O	-1.6158193256	-1.1204629625	 3.2088271771	-0.438843
H	 0.5530563008	 1.9429953215	 0.5350391842	 0.28908
H	 0.7669568955	-0.1845521984	-0.5528932044	 0.09242
H	 0.2094483789	-1.5034877491	 1.4924529568	 0.092104
H	-1.3381616563	-1.489480836	-0.7119174981	 0.095733
H	-2.965522015	 0.6913015638	-0.4269429808	 0.069568
H	-4.4292012143	-0.7347673682	 0.6317244619	 0.277364
H	-2.1553196658	 1.7291289224	 1.5204612972	 0.113201
H	-3.3039085822	 0.6390974107	 2.3207812695	 0.075063
H	-0.6085354403	 0.6725017328	 2.947566301	 0.050914
H	-2.1556469994	-0.7571958892	 3.9177556279	 0.276966
98.6359	119.049	220.0356	223.2421	281.6832	295.0689	330.1862	364.5208	381.9728	416.1296	554.5869	632.0197	726.0269	733.4138	772.7508	808.8222	828.3733	943.5882	950.7258	982.7828	1014.2037	1036.719	1055.6148	1069.0516	1090.5023	1120.7517	1134.0417	1208.5686	1221.5322	1222.2815	1238.4884	1285.3986	1294.4314	1314.4536	1350.8697	1356.0728	1380.9988	1425.3571	1437.7744	1451.344	1464.9234	2960.384	2991.6403	3047.4365	3097.576	3117.8587	3177.2467	3187.3949	3806.2045	3818.4078	3820.5195
OC1C2C1C(O)CC2O	O[C@H]1[C@@H]2[C@H]1[C@@H](O)C[C@H]2O	
InChI=1S/C6H10O3/c7-2-1-3(8)5-4(2)6(5)9/h2-9H,1H2	InChI=1S/C6H10O3/c7-2-1-3(8)5-4(2)6(5)9/h2-9H,1H2/t2-,3+,4+,5-,6+
