17
gdb 23491	3.32701	1.47195	1.26906	1.2144	75.26	-0.2299	0.0119	0.2418	1012.559	0.137668	-417.925783	-417.918631	-417.917686	-417.957355	28.477	
O	-0.1500513453	 1.3266804215	-0.0147204706	-0.399553
N	 0.0238707079	-0.0760828519	 0.013447039	-0.291168
C	-1.0956688704	-0.6674012494	-0.0360688647	 0.462487
C	-1.4236301755	-2.1145906873	 0.0759064001	-0.143756
C	-2.8517237652	-1.7396961512	 0.4035652699	-0.060241
C	-2.5693341123	-0.2589855673	-0.0157769736	-0.158067
C	-3.1068225103	-0.1758700254	-1.4507775575	-0.223443
C	-2.7761630012	-1.5914485976	-1.990885033	-0.163575
N	-2.5607712038	-2.4669879714	-0.8101423543	-0.099287
H	 0.7579897098	 1.6407209923	 0.0516411005	 0.30575
H	-0.7882946748	-2.9153739811	 0.4329391189	 0.106764
H	-3.5217784952	-2.1205395925	 1.1638480193	 0.105637
H	-2.82981152	 0.5610893594	 0.6511394058	 0.097321
H	-4.1861977863	 0.0107907163	-1.4463241575	 0.104571
H	-2.6248624147	 0.617708426	-2.0268010633	 0.122914
H	-3.597597466	-2.013233334	-2.5760162884	 0.113138
H	-1.8786682566	-1.5994362862	-2.6155244906	 0.120507
103.4751	173.117	246.1756	288.8653	385.2495	459.888	483.5284	597.1228	683.1006	703.8246	751.3859	774.6315	829.504	853.3691	861.2948	915.1171	932.6035	946.7423	968.5281	1011.2707	1020.5431	1036.4379	1075.5132	1155.8	1166.3219	1196.8255	1209.497	1227.3992	1254.8844	1268.0921	1305.307	1330.2968	1352.5472	1409.9318	1487.3926	1506.3645	1782.4356	3046.1984	3062.3973	3098.9944	3115.7538	3138.6186	3191.3495	3202.1032	3819.2952
ON=C1C2C3C1CCN23	ON=C1[C@H]2[C@H]3[C@@H]1CCN23	
InChI=1S/C6H8N2O/c9-7-4-3-1-2-8-5(3)6(4)8/h3,5-6,9H,1-2H2	InChI=1S/C6H8N2O/c9-7-4-3-1-2-8-5(3)6(4)8/h3,5-6,9H,1-2H2/t3-,5-,6+,8?/m1/s1
