17
gdb 83395	2.73197	1.37095	1.17341	2.6693	69.7	-0.2413	-0.0274	0.2139	1103.6648	0.13362	-458.932946	-458.924171	-458.923227	-458.966774	32.149	
C	 0.0690843763	 1.1384063389	 0.8261366537	-0.48379
C	-0.0570560676	 0.0582595388	-0.2243231354	 0.291019
O	 0.7960587342	-0.1768396103	-1.0542902486	-0.318605
C	-1.308461623	-0.7386074687	-0.207636271	 0.265604
O	-2.3021094611	-0.5627167567	 0.8158375065	-0.342945
C	-2.4724159156	-2.0110701791	 0.9230953671	-0.116521
C	-1.544068309	-2.2614165035	-0.2572195112	-0.206402
C	-1.9657587227	-1.3798139845	-1.4019220182	 0.0945
O	-3.2909473713	-1.1031831819	-1.7045172641	-0.430251
H	 1.0196461769	 1.6581745915	 0.7039070065	 0.141443
H	-0.7632375097	 1.8461528201	 0.7425334443	 0.149407
H	-0.0008115357	 0.7003829085	 1.8272730005	 0.148159
H	-2.0828333803	-2.3656648637	 1.8815222857	 0.124603
H	-3.5188089057	-2.310217439	 0.8046744233	 0.122995
H	-0.8076479315	-3.048702434	-0.3452664167	 0.122335
H	-1.3293229886	-1.4432335107	-2.2783781832	 0.139436
H	-3.6346811455	-0.5669225858	-0.9766347592	 0.299012
58.4231	120.4578	151.1805	169.2956	221.3488	279.822	336.5254	424.326	481.4218	503.4565	579.2692	598.1502	695.7358	793.1042	801.9644	872.9319	938.3786	963.3947	968.9362	986.4107	1022.753	1053.4883	1090.3257	1097.6998	1140.8799	1167.033	1182.2445	1280.7585	1307.9354	1337.6915	1370.6815	1387.7472	1448.3923	1455.8279	1467.1047	1512.7787	1787.6265	3041.9962	3045.9101	3100.5241	3102.7729	3158.5861	3184.7138	3211.1333	3751.1134
CC(=O)C12OCC1C2O	CC(=O)[C@]12OC[C@H]1[C@H]2O	
InChI=1S/C6H8O3/c1-3(7)6-4(2-9-6)5(6)8/h4-5,8H,2H2,1H3	InChI=1S/C6H8O3/c1-3(7)6-4(2-9-6)5(6)8/h4-5,8H,2H2,1H3/t4-,5+,6-/m0/s1
