17
gdb 73733	2.02536	1.76827	0.96074	4.0427	86.72	-0.2373	-0.0488	0.1886	1196.7767	0.134194	-384.713681	-384.704718	-384.703774	-384.747563	32.867	
C	-0.0045581439	 1.4914715713	 0.0960649605	-0.510442
C	 0.013248985	 0.0046340971	 0.0030776249	 0.215904
C	-0.0004789781	-0.7342091915	-1.1312302219	-0.010885
C	-0.0345087887	-0.2542219934	-2.4613838479	 0.235498
C	-0.0633754661	 0.1329809194	-3.6014056698	-0.424789
C	 0.0257241596	-2.1922297982	-0.8011328981	 0.305515
O	 0.0215130907	-3.1120599251	-1.5801880999	-0.3145
C	 0.0593786151	-2.3038665122	 0.7292962194	-0.333025
C	 0.0503814341	-0.8556901403	 1.2446042175	-0.304519
H	 0.8806212899	 1.8543029934	 0.6338497532	 0.139479
H	-0.0317189887	 1.9566142017	-0.8910650412	 0.148282
H	-0.8753816675	 1.8309622794	 0.6712210011	 0.139457
H	-0.0888473164	 0.4652786518	-4.6096294652	 0.193927
H	-0.8035337852	-2.8859430024	 1.0649099159	 0.137464
H	 0.9514279815	-2.8616973665	 1.0279078226	 0.137481
H	 0.9345608899	-0.6148657218	 1.8484741301	 0.122565
H	-0.8145833314	-0.6385540727	 1.8842391388	 0.122589
78.0522	124.0082	130.9021	139.9872	198.4999	285.9941	410.9687	411.6293	500.1695	520.4735	546.7093	589.8075	635.4858	641.0636	660.2726	690.6012	827.5006	914.41	967.5214	1001.3832	1024.324	1058.5879	1066.3563	1159.0856	1191.3568	1232.0383	1267.5079	1296.7741	1346.2218	1407.9759	1452.3889	1472.6288	1479.6521	1479.9849	1668.14	1822.3706	2227.9258	3019.837	3025.9806	3048.046	3068.5939	3068.6941	3108.8539	3133.8725	3501.8089
CC1=C(C#C)C(=O)CC1	CC1=C(C#C)C(=O)CC1	
InChI=1S/C8H8O/c1-3-7-6(2)4-5-8(7)9/h1H,4-5H2,2H3	InChI=1S/C8H8O/c1-3-7-6(2)4-5-8(7)9/h1H,4-5H2,2H3
