12
gdb 24886	3.74045	1.33948	0.98628	2.6273	74.92	-0.2613	-0.099	0.1623	1091.0372	0.077918	-431.656013	-431.648737	-431.647793	-431.688307	26.431	
N	-0.1900578843	 1.2821750081	 0.0089220696	-0.514757
C	 0.005519824	 0.0385706415	 0.0011814858	 0.43197
O	-1.1671753771	-0.7493922242	 0.0030981582	-0.206751
C	-1.0483780825	-2.0825812899	-0.0054150048	 0.269178
N	 0.0664655579	-2.734577621	-0.0149371668	-0.32765
C	 1.1872928309	-1.9245549895	-0.0162752672	 0.064264
N	 1.2187137108	-0.6356047681	-0.0091433307	-0.280517
C	-2.3036330131	-2.7553881643	-0.001922952	 0.254236
C	-3.3630751716	-3.3219416265	 0.0010236047	-0.299087
H	 0.7144430546	 1.7510335239	 0.0065408279	 0.243471
H	 2.1357122072	-2.4570308089	-0.0242725777	 0.142076
H	-4.2983599668	-3.8278828012	 0.003542663	 0.223568
83.4655	122.135	146.4136	305.4169	424.5479	437.5953	504.7934	562.4218	574.8636	680.3977	697.7157	741.1218	779.6427	785.984	875.1097	884.5966	967.5655	1010.879	1016.3736	1202.0425	1233.0042	1328.1773	1420.3641	1568.2714	1656.9197	1759.336	2248.22	3167.9876	3494.3304	3522.2397
N=C1OC(=NC=N1)C#C	[NH]C1=NC=N[C@H](O1)C#C	
InChI=1S/C5H3N3O/c1-2-4-7-3-8-5(6)9-4/h1,3,6H	InChI=1S/C5H4N3O/c1-2-4-7-3-8-5(6)9-4/h1,3-4,6H/t4-/m1/s1
