16
gdb 46725	3.17976	1.68823	1.25928	3.8783	68.47	-0.2368	0.0163	0.2532	962.1822	0.127036	-437.857381	-437.850789	-437.849845	-437.888452	26.364	
O	-0.0494066014	-0.0861781904	 0.0254755834	-0.373665
C	-0.0463968193	 1.1298863279	 0.0188820548	 0.382644
N	-1.1863150592	 1.8809679754	 0.0630464688	-0.334211
C	-1.2038638194	 3.3331238662	 0.0561892838	-0.202056
C	 0.2099121555	 3.8845025849	-0.0064183669	-0.01766
C	 1.2574806474	 3.2192218152	-0.9402533426	 0.033672
O	 2.3309950892	 3.7759275199	-0.0954385066	-0.308949
C	 1.3327886028	 3.2285872217	 0.84268147	 0.033674
C	 1.2234174699	 1.952605881	-0.0390785186	-0.113737
H	-2.0537785628	 1.3674006131	 0.1024509344	 0.250261
H	-1.7772160348	 3.7056388356	-0.8042592302	 0.119768
H	-1.7027797683	 3.7148643833	 0.95798148	 0.119768
H	 0.2386618068	 4.975003559	-0.013359912	 0.094733
H	 1.3721674444	 3.2846134036	-2.0224372091	 0.104931
H	 1.5382922378	 3.3052755872	 1.9105945471	 0.104931
H	 2.1121096815	 1.3257755464	-0.0733186763	 0.105895
112.3668	186.2572	317.8624	390.5827	463.9418	496.1877	545.7559	591.0832	708.7163	727.7243	741.6167	832.5538	876.5992	896.3461	907.0978	956.747	983.8193	1001.7531	1029.3497	1061.1055	1113.6807	1149.9361	1150.3899	1190.105	1198.4276	1253.4961	1255.2583	1272.0274	1273.594	1336.4343	1367.7753	1405.3289	1483.9468	1529.2009	1801.3834	2999.8358	3023.6423	3111.2314	3117.711	3124.3252	3153.8709	3623.2826
O=C1NCC2C3OC2C13	O=C1NC[C@@H]2[C@H]3O[C@@H]2[C@@H]13	
InChI=1S/C6H7NO2/c8-6-3-4-2(1-7-6)5(3)9-4/h2-5H,1H2,(H,7,8)	InChI=1S/C6H7NO2/c8-6-3-4-2(1-7-6)5(3)9-4/h2-5H,1H2,(H,7,8)/t2-,3+,4-,5+
