18
gdb 105552	1.91439	1.54531	1.29062	3.4368	78.82	-0.2423	0.0217	0.2641	1121.1235	0.145932	-401.940272	-401.930796	-401.929852	-401.974435	34.737	
C	 0.0525326364	 1.5508587896	 0.1435501033	-0.392462
C	-0.0156082759	 0.0378928034	-0.0797461041	-0.237411
C	-1.4557347061	-0.5142985676	-0.0655386634	-0.035424
C	-1.5618185065	-2.0787934071	 0.0606003003	-0.209711
N	-2.1322287182	-1.8726365945	 1.3912520462	-0.323353
C	-2.0960084071	-0.5057007846	 1.3764009492	 0.412103
O	-2.4024158798	 0.3382609956	 2.1721221113	-0.358351
C	-2.2976188598	 0.0611274885	-1.0961513164	 0.31516
C	-2.9961400217	 0.533066907	-1.9537592022	-0.468484
H	 1.093073581	 1.8879895354	 0.1624519173	 0.110281
H	-0.4648980641	 2.0861172277	-0.6575376688	 0.131059
H	-0.4193687537	 1.8242950659	 1.0907867488	 0.150137
H	 0.446911035	-0.2277986143	-1.0376543606	 0.107229
H	 0.5506098847	-0.4820862257	 0.7029899074	 0.103021
H	-2.2422673304	-2.5472884525	-0.6546080765	 0.126194
H	-0.5965323875	-2.5949788436	 0.0583907114	 0.115649
H	-2.4253731944	-2.5196751251	 2.107837997	 0.255241
H	-3.616773192	 0.957316832	-2.7038491203	 0.199121
95.4682	108.7879	125.2694	163.4239	191.1583	244.4817	273.45	362.3214	398.6072	448.7246	529.7029	564.8752	619.0894	641.6668	668.7863	739.216	773.7666	798.5569	908.1822	916.6642	997.3146	1011.695	1046.2576	1116.0127	1153.7269	1165.6258	1187.4378	1234.1622	1286.8632	1322.1601	1360.8956	1393.4747	1415.031	1485.2482	1496.9392	1512.2964	1524.7335	1895.3533	2231.8661	3023.5994	3046.1069	3046.8272	3063.3282	3104.1763	3116.5469	3130.2528	3501.4496	3615.1411
CCC1(CNC1=O)C#C	CC[C@]1(CNC1=O)C#C	
InChI=1S/C7H9NO/c1-3-7(4-2)5-8-6(7)9/h1H,4-5H2,2H3,(H,8,9)	InChI=1S/C7H9NO/c1-3-7(4-2)5-8-6(7)9/h1H,4-5H2,2H3,(H,8,9)/t7-/m0/s1
