19
gdb 86663	1.98208	1.69596	1.12771	3.2797	78.95	-0.2295	-0.0291	0.2004	1160.3113	0.1568	-423.046833	-423.037494	-423.036549	-423.081171	33.779	
C	 0.3573718663	 1.4221957727	-0.3425281932	-0.387598
C	-0.0135199063	-0.0124070123	 0.0368324741	 0.079199
O	 0.3295589822	-0.9175967921	-1.0277869129	-0.259997
C	 1.3460599774	-1.7971524771	-0.6170684688	-0.066729
C	 2.6717420518	-1.5245148077	-1.3367243078	 0.149842
O	 2.9374086187	-0.5084769465	-1.9184723703	-0.233801
C	 1.5039806592	-1.58266658	 0.8832088186	 0.291927
C	 2.4037640779	-2.4185516449	 1.7355214153	-0.500607
C	 0.7267545874	-0.5590017372	 1.2263434575	-0.201364
H	 1.4268512949	 1.4877590363	-0.5560708387	 0.138497
H	-0.193487729	 1.7270594886	-1.2365968432	 0.12621
H	 0.1060363449	 2.1124447929	 0.4700245001	 0.106092
H	-1.1027504133	-0.0745411274	 0.1836599581	 0.084875
H	 1.0615982416	-2.8388732667	-0.8503637121	 0.092714
H	 3.4035225078	-2.3643109709	-1.2635693734	 0.071718
H	 3.4531836518	-2.3300713028	 1.428975343	 0.136818
H	 2.3365474873	-2.1234694875	 2.7854957753	 0.13482
H	 2.1436374844	-3.4819226149	 1.6628161814	 0.132993
H	 0.621855445	-0.1482493826	 2.223409217	 0.104391
76.3035	94.2688	134.865	178.3772	216.2463	226.8835	268.7912	315.9829	363.091	453.4244	526.151	580.0806	711.2889	776.8842	784.0251	847.1802	859.0346	924.9548	939.4009	1010.1363	1015.0535	1033.3478	1077.7684	1097.8703	1113.5474	1150.4981	1204.2875	1255.7822	1296.4053	1340.5583	1350.1674	1368.257	1400.3832	1413.4836	1419.9233	1480.591	1481.9979	1489.317	1497.2031	1729.4368	1844.0142	2843.5274	2947.3728	2983.2673	3022.8309	3039.3359	3069.8776	3112.407	3118.1765	3134.976	3208.2709
CC1OC(C=O)C(C)=C1	C[C@H]1O[C@@H](C=O)C(=C1)C	
InChI=1S/C7H10O2/c1-5-3-6(2)9-7(5)4-8/h3-4,6-7H,1-2H3	InChI=1S/C7H10O2/c1-5-3-6(2)9-7(5)4-8/h3-4,6-7H,1-2H3/t6-,7+/m1/s1
