23
gdb 115474	3.25262	0.87451	0.76599	1.1777	90.08	-0.2331	0.0245	0.2576	1615.2217	0.205225	-388.303013	-388.292933	-388.291989	-388.338837	36.618	
C	 0.2914093693	 1.496531243	-0.3798936296	-0.373044
C	-0.1714696051	 0.1141087445	 0.1144878218	-0.28661
C	 0.6227495538	-0.4012002714	 1.2797970008	 0.344669
C	 0.1744359168	-0.6255134369	 2.5170399463	-0.215815
C	 1.2399957933	-1.1821976685	 3.4343206653	 0.115921
C	 2.5357009835	-1.0003511223	 2.6158211864	-0.246865
C	 2.084987123	-0.7867993228	 1.1532808779	-0.310431
O	 1.3842262068	-0.4956268964	 4.6731834653	-0.243395
C	 0.4005284532	-0.8188753798	 5.6251571797	-0.235158
H	 1.333781814	 1.4773159299	-0.712447284	 0.119912
H	-0.3200807459	 1.8300292995	-1.2238708906	 0.113276
H	 0.2084187614	 2.2424192717	 0.4165845359	 0.122792
H	-1.2306650042	 0.1632580961	 0.3907219735	 0.100737
H	-0.0993439135	-0.5998461961	-0.7183158339	 0.101088
H	-0.8504100983	-0.4707592161	 2.8379569308	 0.083459
H	 1.0422967215	-2.2468994225	 3.6552958034	 0.059578
H	 3.0244886648	-0.0999639264	 2.9988812473	 0.12023
H	 3.2328101159	-1.8324757471	 2.737133446	 0.096324
H	 2.1803144332	-1.7075854464	 0.5602791819	 0.103746
H	 2.683494393	-0.0302514505	 0.6333323233	 0.10358
H	 0.3768840313	-1.9003353469	 5.8370089513	 0.099892
H	 0.6526650008	-0.2867102985	 6.5462539157	 0.123511
H	-0.6091994585	-0.5117355762	 5.3124130954	 0.102604
47.9654	82.1936	105.4266	127.7751	184.2284	212.9482	258.5434	265.7815	358.523	426.4835	459.5809	541.2775	589.6314	656.2656	787.5349	840.8436	864.0021	885.8878	899.9431	958.5212	971.1149	997.2688	1039.4395	1065.9143	1073.9777	1104.8121	1137.394	1166.9385	1180.9235	1190.9037	1229.5863	1248.4904	1264.8291	1299.0334	1303.748	1325.0056	1354.4717	1360.0351	1389.2136	1407.5243	1477.9673	1480.3309	1482.0009	1490.0517	1497.1313	1499.4553	1508.4718	1510.3579	1714.5518	2927.1424	2967.7349	3004.9025	3008.9465	3012.7677	3037.7007	3051.0427	3059.5926	3066.8692	3105.8821	3108.2758	3111.6394	3112.6227	3183.7265
CCC1=CC(CC1)OC	CCC1=C[C@@H](CC1)OC	
InChI=1S/C8H14O/c1-3-7-4-5-8(6-7)9-2/h6,8H,3-5H2,1-2H3	InChI=1S/C8H14O/c1-3-7-4-5-8(6-7)9-2/h6,8H,3-5H2,1-2H3/t8-/m1/s1
