19
gdb 95437	2.55764	1.37597	0.95388	3.9357	81.2	-0.1971	-0.0041	0.193	1234.0837	0.160755	-419.255961	-419.246911	-419.245967	-419.289855	34.003	
C	-0.1058983997	 1.599246399	-0.0860853789	-0.395065
C	 0.0401118578	 0.0722700931	-0.0213383389	-0.12229
C	 0.9035094558	-0.4741410314	-1.2008773236	-0.172604
N	 1.7158210065	-1.5433454052	-0.5974437281	-0.301706
C	 1.7204242723	-1.3542796824	 0.7645047715	-0.065186
C	 0.7856598266	-0.4808821615	 1.1928516407	 0.164917
C	 0.5277648292	-0.2765857232	 2.6235218139	 0.288346
N	-0.620663364	 0.4321405787	 2.9399648175	-0.544271
O	 1.278532861	-0.6762712268	 3.5022334645	-0.381874
H	 0.8766683656	 2.0791095904	-0.0312996699	 0.120978
H	-0.5834423669	 1.9039687836	-1.0241040197	 0.11045
H	-0.7058708916	 1.9885208783	 0.7399833951	 0.121113
H	-0.9655604299	-0.3736762593	-0.0808449653	 0.075148
H	 0.3015203545	-0.8577724023	-2.0291662155	 0.112306
H	 1.5459346457	 0.3281790099	-1.5921001087	 0.103047
H	 2.5790353868	-1.8005433449	-1.0523799744	 0.244383
H	 2.3884085172	-1.925469237	 1.3956475398	 0.144345
H	-1.3897972222	 0.4382499312	 2.2890995908	 0.24708
H	-0.8736059549	 0.3927280898	 3.9160751092	 0.250884
77.1087	86.3486	173.5017	189.5126	220.0903	319.979	384.0198	396.1003	425.3457	496.9119	501.6792	528.5818	580.6685	635.2188	729.9254	774.9625	826.4947	899.9251	942.0167	961.7863	988.412	1047.6672	1083.0323	1101.6372	1123.9989	1155.758	1180.5062	1230.255	1279.589	1317.982	1332.8439	1356.0525	1390.1237	1412.4451	1465.3498	1492.1922	1501.5192	1518.807	1616.7172	1659.2605	1755.836	2962.5227	2994.3495	3032.9345	3079.5012	3099.3039	3119.9085	3234.7421	3573.9283	3607.4581	3698.5532
CC1CNC=C1C(N)=O	C[C@H]1CNC=C1C(=O)N	
InChI=1S/C6H10N2O/c1-4-2-8-3-5(4)6(7)9/h3-4,8H,2H2,1H3,(H2,7,9)	InChI=1S/C6H10N2O/c1-4-2-8-3-5(4)6(7)9/h3-4,8H,2H2,1H3,(H2,7,9)/t4-/m0/s1
