15
gdb 48026	3.74718	0.80655	0.78984	2.0944	71.91	-0.2732	-0.0717	0.2016	1461.1634	0.111592	-457.725215	-457.716367	-457.715423	-457.762504	28.942	
O	-0.5583731771	 1.0539255263	-0.7928635747	-0.225721
C	 0.2339852447	 1.0986176531	 0.11937849	 0.027906
C	 1.4302732848	 1.9041177139	 0.1166051972	-0.004646
C	 2.4390510878	 2.5677785213	 0.1437201406	 0.157811
C	 3.6676115898	 3.3959471236	 0.1404273157	-0.02438
O	 4.5013312033	 3.0585600241	-0.9389986428	-0.226618
C	 4.0299456703	 3.8214306464	-2.0532746181	-0.109986
C	 3.2506974041	 4.9963083116	-1.4081664725	-0.108847
O	 3.3564156914	 4.7590208019	-0.001389617	-0.227467
H	 0.0888932107	 0.5061744586	 1.0449203916	 0.106069
H	 4.2287965309	 3.2611923489	 1.0695233283	 0.131175
H	 4.9032585129	 4.1410492695	-2.6258277921	 0.128095
H	 3.3823148666	 3.2120536365	-2.6934665139	 0.12448
H	 3.693202951	 5.9741081256	-1.6106523348	 0.127851
H	 2.2008782286	 5.0039905087	-1.7216518573	 0.124278
9.43	53.2992	62.8983	107.6932	161.6163	287.4917	300.0988	408.1215	571.5043	656.8552	734.539	786.7703	837.5742	888.1754	944.9965	956.7628	979.4152	1021.0732	1054.995	1102.7766	1125.9198	1161.0826	1235.9665	1238.8927	1308.2174	1360.2831	1371.9327	1383.7461	1421.8291	1515.6921	1528.5919	1768.5142	2325.4123	2927.9417	3038.1184	3048.1068	3080.9257	3098.2567	3117.6231
O=CC#CC1OCCO1	O=CC#CC1OCCO1	
InChI=1S/C6H6O3/c7-3-1-2-6-8-4-5-9-6/h3,6H,4-5H2	InChI=1S/C6H6O3/c7-3-1-2-6-8-4-5-9-6/h3,6H,4-5H2
