19
gdb 45144	2.71688	1.58062	1.18748	2.8215	79.74	-0.2329	-0.0168	0.2161	1080.4124	0.159167	-385.869081	-385.861262	-385.860318	-385.901727	30.833	
O	 0.410214772	 0.1712995965	-0.678054387	-0.309879
C	 0.2088231681	 1.2458042193	-0.1895229934	 0.428024
C	-0.9964340241	 1.8793357417	 0.5372725571	-0.360937
C	-0.1930552417	 3.2066261293	 0.6530975898	-0.020301
C	 0.6450849274	 3.3519201627	 1.9504317513	-0.315388
C	 1.7937298949	 2.5879695071	 1.2716608427	 0.378343
C	 3.2658283088	 2.8255168525	 1.4409004995	-0.331282
C	 2.6595430947	 1.5061727658	 1.8535805723	-0.319228
C	 1.0363624283	 2.5284795232	-0.0748306556	-0.2516
H	-1.8673785214	 1.9432488815	-0.1237152751	 0.13253
H	-1.3082432432	 1.3964578162	 1.4683885256	 0.125063
H	-0.681492387	 4.0978952292	 0.2633363161	 0.077616
H	 0.9018098622	 4.3905142833	 2.1799448741	 0.105003
H	 0.2133741552	 2.896310492	 2.8475771847	 0.099326
H	 3.8847815539	 2.8492754605	 0.5496677632	 0.117398
H	 3.5778037857	 3.5143147794	 2.2201974179	 0.113348
H	 2.5621290164	 1.2970551317	 2.9142176468	 0.114008
H	 2.8589125119	 0.633239422	 1.2407377284	 0.132514
H	 1.5466452778	 2.9066343763	-0.9621393684	 0.085442
63.2546	98.4193	233.7962	298.703	342.6878	380.9662	443.9895	481.9103	544.0499	654.5921	765.0001	780.6883	794.6214	819.4302	867.8446	882.8837	902.1664	927.8858	940.2978	991.9133	1024.5392	1051.5341	1054.7906	1069.1167	1077.9998	1107.8606	1130.5724	1164.1099	1189.0495	1203.2373	1212.6119	1226.9754	1252.2746	1271.0508	1305.7722	1367.33	1432.557	1463.8851	1488.0896	1498.4392	1882.297	3040.6246	3049.8395	3088.1111	3099.623	3102.9991	3121.3872	3127.2452	3127.9963	3201.5633	3217.5894
O=C1CC2CC3(CC3)C12	O=C1C[C@H]2CC3(CC3)[C@@H]12	
InChI=1S/C8H10O/c9-6-3-5-4-8(1-2-8)7(5)6/h5,7H,1-4H2	InChI=1S/C8H10O/c9-6-3-5-4-8(1-2-8)7(5)6/h5,7H,1-4H2/t5-,7+/m0/s1
