22
gdb 32581	3.07162	1.04945	0.84965	1.728	91.76	-0.1919	0.0532	0.2451	1471.6865	0.19345	-367.265837	-367.255582	-367.254638	-367.301522	37.153	
C	 0.0169174034	 1.5394637546	 0.0048612805	-0.366505
C	-0.0055781692	 0.007628665	 0.0046972911	-0.153129
N	-1.3451562844	-0.5515864735	 0.0138020098	 0.021285
C	-2.099345191	-0.807196809	 1.133628247	-0.193454
C	-3.3501916132	-1.2311552156	 0.7440028422	 0.181836
C	-4.4780243756	-1.6371708456	 1.6435122045	-0.500725
C	-3.3614417967	-1.2274889929	-0.6882557929	 0.181886
C	-4.5032318722	-1.6291046904	-1.5719903302	-0.500728
C	-2.1168671824	-0.8014587499	-1.095332789	-0.193487
H	 1.0487659862	 1.9054422743	-0.0019153838	 0.115635
H	-0.4948740164	 1.9355471061	-0.8769448167	 0.128831
H	-0.4831658543	 1.9350946541	 0.8935562283	 0.128857
H	 0.5149431583	-0.3779115475	-0.8782622053	 0.115951
H	 0.5266966992	-0.378246691	 0.8804443458	 0.11596
H	-1.6813402441	-0.6718751721	 2.1199718316	 0.106406
H	-5.3691698516	-1.0154042497	 1.4904029821	 0.118911
H	-4.7872420406	-2.6759733835	 1.4715894963	 0.119048
H	-4.1946292319	-1.5498442821	 2.6967147459	 0.114535
H	-5.3924776833	-1.0094665119	-1.4003950511	 0.118909
H	-4.2370492847	-1.5346067344	-2.6290573851	 0.114535
H	-4.8084366159	-2.6693962711	-1.4018481525	 0.119057
H	-1.7144284695	-0.6611251938	-2.0874335883	 0.106385
45.9495	91.7173	112.8189	130.752	200.3607	224.9067	240.669	262.6263	291.8894	389.1482	458.1883	589.09	611.3123	634.8416	644.0751	696.4452	751.833	771.2445	794.8183	946.6082	1000.4787	1014.7579	1041.8926	1048.582	1073.1585	1099.4097	1117.1973	1175.3646	1187.1471	1245.025	1282.2557	1387.2323	1396.0051	1402.9821	1411.197	1412.1	1433.4228	1438.7371	1478.4018	1485.0964	1485.9684	1488.7793	1490.1068	1506.3898	1507.2872	1572.9096	1619.3931	3013.4855	3014.7739	3040.1262	3043.691	3056.2648	3057.3429	3082.0775	3098.2891	3099.6494	3113.3789	3123.2656	3239.07	3242.9071
CCN1C=C(C)C(C)=C1	CCn1cc(C)c(C)c1	
InChI=1S/C8H13N/c1-4-9-5-7(2)8(3)6-9/h5-6H,4H2,1-3H3	InChI=1S/C8H13N/c1-4-9-5-7(2)8(3)6-9/h5-6H,4H2,1-3H3
