21
gdb 77092	3.13601	1.10125	0.91812	0.7328	90.22	-0.2504	0.0512	0.3016	1340.0196	0.180986	-349.902969	-349.893666	-349.892722	-349.936851	36.049	
C	-0.6273566056	 0.9812723051	-0.0681091903	-0.419889
C	-0.0360062484	-0.3982382047	 0.1651711461	-0.0354
C	 1.2552523506	-0.7949524109	-0.6379155272	-0.173332
C	 1.8055666351	-1.4792938994	 0.6589400925	-0.317001
C	 0.7495788987	-0.7051737789	 1.4535441202	 0.361783
C	 1.0449283873	 0.2703645028	 2.55787619	-0.319151
C	 0.2309267142	-0.9767196768	 2.8296360109	-0.338733
C	 1.1074622375	-1.586379564	-1.8403238464	 0.31027
C	 0.9639439354	-2.2581712446	-2.8282600236	-0.454485
H	 0.1271581622	 1.7644059138	 0.0621252027	 0.115786
H	-1.0291402357	 1.0638950496	-1.0835749657	 0.124312
H	-1.4478330341	 1.1866370589	 0.629048204	 0.115631
H	-0.8000036616	-1.1676764703	 0.0056212044	 0.082891
H	 1.8365708936	 0.108925184	-0.8519010252	 0.097701
H	 1.6226041013	-2.5574983346	 0.6489933831	 0.110891
H	 2.856899421	-1.297028471	 0.8948636731	 0.104649
H	 2.0591066808	 0.3142305238	 2.9427910447	 0.109957
H	 0.5276491873	 1.2244744405	 2.5606849871	 0.112233
H	-0.8336250055	-0.8581147292	 3.00860919	 0.109944
H	 0.6906228698	-1.7758996615	 3.4028941214	 0.110989
H	 0.844080966	-2.8479622627	-3.7027686219	 0.190955
60.1276	128.6298	186.5262	199.0406	233.1636	256.6176	329.2057	340.1985	440.0687	488.2847	524.761	555.407	615.3261	623.3159	699.5859	776.8158	798.3349	856.733	889.7826	913.8203	925.0896	975.2548	1005.227	1048.1361	1056.6403	1070.5803	1076.9936	1093.0774	1136.9963	1156.6388	1188.3803	1228.9225	1238.5047	1252.3926	1260.354	1341.2435	1367.0274	1395.9044	1407.1661	1464.4488	1489.1322	1493.9441	1496.8768	1506.921	2230.8087	3025.9136	3034.9769	3046.6221	3055.7517	3091.433	3100.6343	3110.2929	3118.6252	3124.0691	3196.0145	3211.4903	3505.2591
CC1C(CC11CC1)C#C	C[C@H]1[C@@H](CC21CC2)C#C	
InChI=1S/C9H12/c1-3-8-6-9(4-5-9)7(8)2/h1,7-8H,4-6H2,2H3	InChI=1S/C9H12/c1-3-8-6-9(4-5-9)7(8)2/h1,7-8H,4-6H2,2H3/t7-,8+/m0/s1
