20
gdb 81785	2.12238	1.83618	1.21512	3.204	78.88	-0.229	0.0704	0.2994	1090.9423	0.170465	-403.090719	-403.081916	-403.080972	-403.123648	34.258	
C	-0.0085538062	 1.5447774773	 0.0439533082	-0.511294
C	 0.0463178831	 0.0450949464	 0.0047119986	 0.287297
C	-0.8662838628	-0.8594704271	 0.7870660382	-0.34807
C	 0.6223596964	-0.9582645846	 1.0196126972	-0.149616
C	 1.3049174082	-1.7421485083	-0.1090612903	 0.080478
O	 1.1132301073	-3.1309296273	-0.2170346956	-0.432538
C	 0.6449366603	-0.7820985968	-1.1256896587	 0.25822
C	 0.0984830781	-1.0608321158	-2.4701115682	-0.318598
N	 1.3553196462	-0.2911699977	-2.2990911567	-0.38119
H	 0.9601438002	 1.988655681	-0.212512553	 0.124908
H	-0.7542759121	 1.9391991166	-0.6577431962	 0.120843
H	-0.2829862471	 1.9007171221	 1.0419327413	 0.125034
H	-1.4222494979	-0.3883654641	 1.5923498528	 0.113384
H	-1.4200234409	-1.6523400663	 0.2866869236	 0.097717
H	 1.0532948679	-0.7617873993	 1.9943247632	 0.088679
H	 2.3872165396	-1.5877538541	-0.1116492283	 0.104158
H	 0.172328196	-3.3097718907	-0.1151425896	 0.279447
H	 0.2313874131	-2.0452617112	-2.9106522914	 0.124785
H	-0.7993822916	-0.5330582045	-2.7833986922	 0.107896
H	 1.1684601923	 0.7012150944	-2.4320561228	 0.228461
106.8192	183.5068	200.4778	210.4255	225.1639	259.0101	294.6723	366.4724	447.5564	487.7906	572.1003	592.6483	651.9433	744.4207	814.9718	882.4751	901.7827	905.7609	940.4072	968.7814	975.2526	986.149	1018.6916	1059.9087	1069.1385	1082.408	1105.4809	1118.6183	1125.848	1199.9951	1241.0298	1258.2379	1277.9304	1282.1272	1294.0487	1388.1443	1413.5261	1424.1003	1436.9772	1487.8168	1497.4575	1499.9848	1509.6788	3019.5055	3076.2432	3085.1395	3093.6933	3099.9321	3101.1532	3177.3709	3187.98	3189.1399	3478.8222	3806.7521
CC12CC1C(O)C21CN1	C[C@]12C[C@H]1[C@@H](O)[C@]12CN1	
InChI=1S/C7H11NO/c1-6-2-4(6)5(9)7(6)3-8-7/h4-5,8-9H,2-3H2,1H3	InChI=1S/C7H11NO/c1-6-2-4(6)5(9)7(6)3-8-7/h4-5,8-9H,2-3H2,1H3/t4-,5+,6-,7-/m0/s1
