23
gdb 88952	2.85038	1.07964	0.99954	2.5714	81.92	-0.2517	0.0719	0.3236	1350.7749	0.203146	-425.422082	-425.411739	-425.410795	-425.457045	39.478	
C	 0.8104040943	 1.1345993155	-0.2632947189	-0.431867
C	-0.0399111239	-0.0283889972	 0.1759297891	 0.081946
O	 0.6558384479	-1.2004147637	 0.6308927855	-0.270149
C	-0.1582287415	-0.4677241588	 1.579832272	 0.036664
C	 0.5283959054	 0.2238372045	 2.7498070632	-0.267438
C	 1.8088314593	-0.4837882304	 3.2669097476	 0.360722
C	 2.3959180335	 0.3089261972	 4.4364582756	-0.395128
C	 1.5200639605	-1.933475346	 3.6909435042	-0.41885
O	 2.807718454	-0.4583709346	 2.2471889041	-0.473267
H	 1.6764686142	 1.2522978089	 0.3916614349	 0.147783
H	 1.1725399309	 0.97346253	-1.2837726632	 0.129942
H	 0.2267134735	 2.0617519572	-0.2577515903	 0.123227
H	-0.8766184553	-0.2646346607	-0.4836377325	 0.09371
H	-1.0620557529	-1.0196157515	 1.8376377465	 0.098041
H	 0.8075199827	 1.2470196759	 2.4803308574	 0.108072
H	-0.1999211822	 0.2993858314	 3.5650656177	 0.098644
H	 1.7039911361	 0.337351754	 5.283624323	 0.105382
H	 3.3302887453	-0.1547205122	 4.7651107282	 0.120876
H	 2.617436989	 1.335157717	 4.1291252432	 0.114563
H	 1.1412796799	-2.5220036118	 2.8501564146	 0.12723
H	 2.442434301	-2.4038274648	 4.0433068253	 0.119784
H	 0.7811947053	-1.9747588384	 4.4989858998	 0.102862
H	 2.4166329429	-0.8954580716	 1.4770251431	 0.28725
54.1618	93.2813	193.5665	199.3921	212.6353	240.7169	274.187	300.3358	349.0533	374.0702	399.3772	437.937	451.6574	528.7266	585.5306	611.9024	752.6178	773.9902	813.7613	878.7715	920.4781	934.0299	936.8471	981.0547	1007.6785	1016.8253	1059.7184	1086.4125	1158.1572	1169.8851	1185.4827	1190.516	1238.6971	1292.3904	1306.988	1330.1411	1389.1443	1392.0947	1412.6143	1419.9086	1433.9054	1458.9162	1472.8053	1483.8657	1490.6256	1497.9922	1502.3395	1508.3905	1512.9632	3032.4651	3037.5089	3038.9407	3045.2997	3081.9684	3093.1626	3101.8009	3103.5863	3111.2918	3115.6176	3116.0435	3119.693	3134.8527	3722.0549
CC1OC1CC(C)(C)O	C[C@H]1O[C@H]1CC(C)(C)O	
InChI=1S/C7H14O2/c1-5-6(9-5)4-7(2,3)8/h5-6,8H,4H2,1-3H3	InChI=1S/C7H14O2/c1-5-6(9-5)4-7(2,3)8/h5-6,8H,4H2,1-3H3/t5-,6+/m1/s1
