19
gdb 30813	2.26589	1.38523	0.91204	1.6744	80.41	-0.1935	0.0368	0.2304	1315.9599	0.15933	-419.264849	-419.255368	-419.254424	-419.299248	34.706	
C	-0.3841061386	 1.5988876974	-0.225791902	-0.368903
C	 0.0637993215	 0.1418735657	-0.0108492389	-0.299742
C	 0.8800963328	-0.4043452294	-1.1260088056	 0.258099
C	 2.1485864317	-0.8501765438	-1.2857417034	 0.166912
C	 3.2543173708	-0.9546353884	-0.2906729364	-0.494956
N	 2.3429828615	-1.2542052713	-2.6147474563	-0.384786
C	 1.2005001826	-1.0229370832	-3.1778147216	 0.43408
N	 0.8651074259	-1.1713509024	-4.5024797023	-0.58981
O	 0.2500816999	-0.5130104032	-2.3683585129	-0.223419
H	 0.4805968822	 2.2628956461	-0.3180974912	 0.121183
H	-0.9766228645	 1.6907890114	-1.1403561084	 0.128854
H	-0.9960073636	 1.9448235065	 0.6130105997	 0.11069
H	 0.6560545737	 0.0655366524	 0.9067847292	 0.11415
H	-0.8234659393	-0.4877653616	 0.1427579577	 0.111394
H	 3.6030816944	-1.9895664434	-0.2032763389	 0.133609
H	 4.115217596	-0.3519759846	-0.6005669694	 0.134917
H	 2.938066663	-0.6150247569	 0.6988758371	 0.118437
H	 1.4943003568	-1.7891409257	-4.9937130974	 0.268298
H	-0.1090192868	-1.3794407254	-4.6678139391	 0.260992
63.0019	125.0914	144.3803	196.6559	208.1732	262.1052	277.2525	305.8655	326.1726	423.5072	507.5968	603.987	621.084	637.9016	686.8956	758.422	778.009	815.1129	966.7443	986.2841	1002.5455	1041.9867	1064.5751	1083.2477	1141.2227	1153.4024	1230.1242	1293.4447	1319.2865	1367.4796	1405.2332	1416.6929	1444.2549	1471.2061	1473.9314	1492.4094	1495.8733	1507.6538	1605.1771	1680.0176	1703.8236	3012.1915	3033.3673	3039.9315	3075.4083	3085.5539	3111.3333	3118.5955	3120.5945	3572.5402	3680.5888
CCC1=C(C)N=C(N)O1	CCc1c(C)nc(N)o1	
InChI=1S/C6H10N2O/c1-3-5-4(2)8-6(7)9-5/h3H2,1-2H3,(H2,7,8)	InChI=1S/C6H10N2O/c1-3-5-4(2)8-6(7)9-5/h3H2,1-2H3,(H2,7,8)
