24
gdb 88596	2.55562	1.13727	0.95233	1.2966	91.07	-0.213	0.082	0.295	1400.5467	0.215661	-368.375212	-368.364753	-368.363809	-368.410856	38.918	
C	-2.0793945133	 1.7173237539	 3.6157654997	-0.401285
C	-2.1460431096	 0.233539456	 3.3332782149	-0.008986
C	-1.6614072299	-0.3225118162	 2.0148331462	-0.31173
C	-0.8979069291	-0.6230720036	 3.2828849471	 0.057801
N	 0.3688907731	 0.0317075505	 3.4367510252	-0.107055
C	 1.2206769433	-0.2309904126	 4.601753585	-0.001847
C	 0.8280895328	-1.1640170437	 5.7269276935	-0.414046
C	 1.6235047701	-0.7013846877	 3.2357698588	-0.002187
C	 1.6730229883	-2.1592926507	 2.8318551064	-0.412868
H	-1.1466861263	 2.1404196134	 3.2369832575	 0.132824
H	-2.9171949469	 2.2429524337	 3.1441366974	 0.108389
H	-2.1244757055	 1.9187894285	 4.6922898894	 0.107336
H	-3.014164383	-0.2665792155	 3.7560161511	 0.077335
H	-2.216259297	-1.1226580589	 1.5370031406	 0.103007
H	-1.190447876	 0.3767589147	 1.3320976972	 0.114699
H	-1.0089061477	-1.6334861232	 3.6747105879	 0.067015
H	 1.7069208372	 0.6746806121	 4.9665661771	 0.08263
H	 0.4280713664	-2.1192667068	 5.3829070056	 0.119084
H	 1.701621088	-1.3775237714	 6.3523042842	 0.119582
H	 0.0708020036	-0.6980365815	 6.3671846574	 0.125304
H	 2.3720811008	-0.1014439797	 2.7164355135	 0.081999
H	 0.993643192	-2.793352126	 3.4043688647	 0.117639
H	 1.4171443803	-2.2717081851	 1.7726657955	 0.126739
H	 2.6872239583	-2.5493695104	 2.970003934	 0.11862
40.4936	113.2878	141.075	159.1748	176.3388	201.6088	210.123	272.2778	299.4913	383.0357	433.5087	498.2083	507.7067	598.9108	719.1162	772.845	777.4052	809.471	852.8289	899.0699	940.0628	959.6846	1002.4625	1026.6231	1047.041	1055.6415	1071.319	1102.8899	1122.0022	1127.1228	1147.643	1168.2298	1193.9207	1200.0902	1203.4353	1236.1228	1346.6339	1380.5568	1384.2131	1406.9287	1413.6535	1418.7001	1423.0484	1440.6782	1484.1305	1486.1142	1487.643	1497.2049	1500.0017	1504.6568	1511.4009	3029.3027	3035.9082	3038.6598	3079.9529	3083.1782	3087.3366	3091.8888	3093.4093	3094.4147	3121.9608	3125.1032	3131.0852	3137.4082	3139.52	3219.197
CC1CC1N1C(C)C1C	C[C@H]1C[C@H]1N1[C@@H](C)[C@H]1C	
InChI=1S/C8H15N/c1-5-4-8(5)9-6(2)7(9)3/h5-8H,4H2,1-3H3	InChI=1S/C8H15N/c1-5-4-8(5)9-6(2)7(9)3/h5-8H,4H2,1-3H3/t5-,6-,7+,8+,9?/m0/s1
