17
gdb 65878	3.05779	1.11876	1.08519	1.6096	68.67	-0.2499	-0.0477	0.2021	1168.7359	0.134058	-459.005173	-458.996658	-458.995714	-459.038733	31.888	
O	 0.3405323247	 1.4978145671	 0.1950868672	-0.479921
C	 0.0482170553	 0.152622181	-0.063613984	 0.306449
C	-1.4847499651	-0.0729514994	-0.2726494956	-0.28328
C	-1.6212344416	-1.3074276851	-1.171521567	-0.331674
C	-0.3035115269	-1.3910141184	-1.9540445168	 0.406205
O	-0.0705413781	-2.153242648	-2.8540631637	-0.306143
C	 0.6657892448	-0.3506247261	-1.3912069909	-0.386447
C	 0.540495507	-0.6958819232	 1.0950244663	 0.125349
O	 1.0682011959	-0.2092189457	 2.0653359865	-0.272149
H	 0.7739605618	 1.5161185372	 1.0634573415	 0.293792
H	-2.0245775052	-0.1519438557	 0.6746949891	 0.117239
H	-1.8489334	 0.826019912	-0.7785179651	 0.134053
H	-1.7236316882	-2.235860623	-0.5956401265	 0.13722
H	-2.471665569	-1.2744420947	-1.8571353021	 0.141608
H	 0.6974960254	 0.5050724943	-2.0765775647	 0.158065
H	 1.682702325	-0.7446115065	-1.319179689	 0.136691
H	 0.3881249343	-1.7916122758	 1.0088282747	 0.102942
56.8766	108.8814	144.5026	272.0008	290.4258	349.9233	371.1148	449.1281	460.816	484.0812	518.8863	584.2099	691.067	726.4987	803.3465	827.6449	873.9843	944.9669	961.3797	998.1346	1017.856	1104.6461	1127.5239	1155.7094	1169.4182	1230.9464	1247.5399	1265.1454	1298.7294	1334.0008	1391.9439	1440.2423	1443.9674	1454.4405	1497.3829	1812.9416	1851.1311	2923.9149	3041.8503	3050.0799	3062.1481	3100.059	3107.917	3111.7305	3685.5185
OC1(CCC(=O)C1)C=O	O[C@]1(CCC(=O)C1)C=O	
InChI=1S/C6H8O3/c7-4-6(9)2-1-5(8)3-6/h4,9H,1-3H2	InChI=1S/C6H8O3/c7-4-6(9)2-1-5(8)3-6/h4,9H,1-3H2/t6-/m0/s1
