19
gdb 97557	2.81272	0.60823	0.52108	1.5053	90.33	-0.2401	0.0304	0.2706	2130.4312	0.155318	-385.828368	-385.816741	-385.815797	-385.869185	38.397	
C	 0.078250121	 1.4814035182	 0.0953897533	-0.496936
C	 0.057199698	 0.0270679022	 0.0294616762	 0.039147
C	 0.049727196	-1.1748170866	-0.0291044026	 0.113978
C	 0.0107585815	-2.6413322545	-0.0866276222	-0.327029
C	-1.4380239714	-3.1722324941	 0.0546223287	-0.375037
C	 0.6488651004	-3.1505782936	-1.3068514141	 0.117699
C	 1.1601251055	-3.5935864754	-2.3015954536	 0.072915
C	 1.7753509235	-4.1011189072	-3.5211449429	-0.215565
O	 2.5673371549	-5.2446305505	-3.219209778	-0.409527
H	 0.6608997608	 1.8331040037	 0.9539820009	 0.147713
H	 0.525607703	 1.9122928078	-0.8071295897	 0.149281
H	-0.933351661	 1.891087681	 0.191365112	 0.147023
H	 0.5864427035	-3.0279206997	 0.7675537007	 0.134869
H	-2.0535969243	-2.8176688945	-0.7752124555	 0.132573
H	-1.4380090409	-4.2651462499	 0.0494192596	 0.125744
H	-1.8756633474	-2.8173885907	 0.9912000317	 0.122982
H	 0.9845248091	-4.3467072987	-4.2489487574	 0.114534
H	 2.3857804453	-3.3023087093	-3.9734065339	 0.116895
H	 2.9603624025	-5.5455568281	-4.0448448034	 0.28874
9.9915	17.554	55.8934	103.6609	135.9321	145.5213	224.3377	228.1085	260.6948	286.7335	308.2461	377.4467	465.6292	481.9073	557.0207	557.5013	725.8266	773.0565	954.5384	1028.2491	1035.7813	1051.5888	1053.1043	1065.0213	1072.8958	1139.7872	1192.7907	1246.0497	1257.3637	1301.24	1325.9517	1401.8016	1414.7453	1459.5375	1478.5991	1478.8507	1488.9505	1496.7538	1504.0494	2372.639	2378.3207	2960.9802	2978.7877	2992.6437	3026.5249	3048.5816	3086.9899	3087.7057	3128.9745	3134.3041	3817.5881	9.9825	17.5454	55.8933	103.6606	135.932	145.5211	224.3374	228.1043	260.6946	286.7328	308.2449	377.4449	465.6282	481.9069	557.0202	557.501	725.8263	773.0564	954.5383	1028.249	1035.7811	1051.5886	1053.1041	1065.0211	1072.8958	1139.787	1192.7905	1246.0497	1257.3637	1301.2399	1325.9517	1401.8016	1414.7455	1459.5376	1478.5993	1478.8508	1488.9506	1496.7538	1504.0493	2372.6388	2378.3204	2960.9801	2978.7877	2992.6437	3026.525	3048.5816	3086.9899	3087.7058	3128.9745	3134.3041	3817.5874
CC#CC(C)C#CCO	CC#C[C@@H](C)C#CCO	
InChI=1S/C8H10O/c1-3-5-8(2)6-4-7-9/h8-9H,7H2,1-2H3	InChI=1S/C8H10O/c1-3-5-8(2)6-4-7-9/h8-9H,7H2,1-2H3/t8-/m1/s1
