16
gdb 6348	3.75416	1.30346	1.02877	3.0943	63.35	-0.2405	0.0118	0.2523	1123.6545	0.129968	-417.132543	-417.123317	-417.122373	-417.167535	31.434	
C	-0.6001703783	 1.3607736374	 0.3700323391	-0.33234
N	-0.9017326096	-0.05530782	 0.4125557911	-0.296339
C	-0.7889971642	-0.8525454704	-0.6749714932	 0.3941
O	-0.3873448639	-0.4947562502	-1.7687342935	-0.379658
C	-1.1524237553	-2.3315364761	-0.4297280133	-0.416439
C	-2.3556030534	-2.5771098303	 0.4717946507	 0.41406
N	-3.2824134676	-3.4397971979	-0.0172042402	-0.509663
O	-2.4775153723	-2.05153975	 1.5697573802	-0.376273
H	 0.1196624631	 1.6312031552	 1.1500614088	 0.123927
H	-0.169965736	 1.5814349318	-0.6075270095	 0.164164
H	-1.5026439035	 1.9683303319	 0.5063839797	 0.125143
H	-1.3391731875	-0.4659437849	 1.2300170655	 0.26938
H	-1.2618442682	-2.7913187118	-1.4127966307	 0.125592
H	-0.2909929552	-2.8006776931	 0.0611873878	 0.158926
H	-3.2091358631	-3.8493282213	-0.9311897484	 0.26874
H	-4.097140565	-3.6346444504	 0.5421224259	 0.26668
51.1319	70.1573	76.4807	142.7559	205.5389	229.5715	299.3627	374.5646	402.6078	507.2955	575.3121	601.8294	672.4717	718.6139	761.1097	862.0688	909.9272	959.0853	1077.3317	1109.3471	1152.2967	1183.5987	1191.5281	1262.4453	1287.7816	1391.7171	1439.1464	1456.2058	1498.9414	1501.5758	1594.9544	1620.1361	1764.4659	1790.7307	3025.9803	3049.7287	3077.3668	3127.2345	3151.7625	3527.6202	3604.3024	3743.3059
CNC(=O)CC(N)=O	CNC(=O)CC(=O)N	
InChI=1S/C4H8N2O2/c1-6-4(8)2-3(5)7/h2H2,1H3,(H2,5,7)(H,6,8)	InChI=1S/C4H8N2O2/c1-6-4(8)2-3(5)7/h2H2,1H3,(H2,5,7)(H,6,8)
