16
gdb 105443	2.30699	1.54596	1.20562	0.2424	70.6	-0.2594	0.009	0.2684	1066.3748	0.123304	-437.853299	-437.844753	-437.843809	-437.886758	31.552	
O	 0.0355693748	 1.3629707336	 0.0904495399	-0.412675
C	-0.0547553478	-0.0380431706	 0.0611936981	-0.086599
C	-1.4983807891	-0.5389923435	-0.1160246514	 0.1155
C	-1.6224290565	-2.0844036175	 0.0989291343	-0.23174
N	-2.3492580888	-2.2438517617	 1.3646935913	-0.255273
C	-2.6372874793	-1.0762426588	 1.7550657321	 0.119215
O	-2.2575302991	 0.0026058376	 1.0240569599	-0.258873
C	-2.104022457	-0.067503367	-1.3521306387	 0.335155
C	-2.5867104665	 0.2750989845	-2.3972247436	-0.455014
H	-0.5693148768	 1.6688129376	 0.7763559795	 0.294032
H	 0.5503060389	-0.3854962744	-0.7820101546	 0.124959
H	 0.3415955697	-0.4990120971	 0.9806926014	 0.097496
H	-2.1704095198	-2.5660576406	-0.7145934066	 0.136004
H	-0.6362204275	-2.5569088332	 0.1666848687	 0.124453
H	-3.1877658775	-0.8304754149	 2.6565312579	 0.147134
H	-3.0130089777	 0.5932581061	-3.3168115382	 0.206227
68.9507	110.5238	164.8518	173.0464	240.3101	368.9388	404.6062	427.8348	489.1406	510.5992	546.5771	626.8289	675.0824	686.6842	771.3194	869.2384	904.3593	935.8822	967.8639	983.3251	1038.0145	1085.9197	1128.1528	1141.281	1166.3773	1225.5225	1280.996	1318.3727	1334.8294	1387.9359	1423.9918	1491.7838	1496.0089	1714.6224	2241.5429	2974.9603	3046.5539	3087.1953	3097.6841	3216.3701	3499.7773	3800.2503
OCC1(CN=CO1)C#C	OC[C@]1(CN=CO1)C#C	
InChI=1S/C6H7NO2/c1-2-6(4-8)3-7-5-9-6/h1,5,8H,3-4H2	InChI=1S/C6H7NO2/c1-2-6(4-8)3-7-5-9-6/h1,5,8H,3-4H2/t6-/m1/s1
