18
gdb 7732	3.24665	1.76247	1.19533	4.0592	76.57	-0.2305	-0.0411	0.1894	1014.615	0.154718	-347.858383	-347.850723	-347.849779	-347.890267	29.096	
C	-0.0259243819	 1.5189314502	 0.0356493904	-0.476492
C	-0.0232481454	 0.0188035498	-0.0176884173	 0.325255
C	-0.0798746693	-0.6568469371	-1.1788697704	-0.246557
C	-0.019452899	-2.1277189316	-1.2728623206	 0.380709
O	-0.0999321286	-2.7044164313	-2.3406647401	-0.338527
C	 0.1945289261	-2.8796003107	 0.0366477642	-0.305318
C	-0.4353799027	-2.1496413831	 1.2271327896	-0.224397
C	 0.0615559356	-0.7016903984	 1.3075159318	-0.286696
H	 0.8568743992	 1.8881795301	 0.5733720444	 0.13386
H	-0.0344484411	 1.9643368057	-0.9616600285	 0.132216
H	-0.899110373	 1.8863541615	 0.589653307	 0.134524
H	-0.1534960674	-0.1351047525	-2.1292321624	 0.094187
H	-0.1902260565	-3.8953293841	-0.0841227063	 0.120437
H	 1.281046331	-2.9654056534	 0.1858247748	 0.119317
H	-1.5262311192	-2.1448071199	 1.1110363197	 0.110245
H	-0.219141329	-2.6774689019	 2.1615646964	 0.1016
H	 1.1084336835	-0.6788288141	 1.6491305749	 0.118338
H	-0.5027674622	-0.1424079292	 2.0637323525	 0.1073
104.8836	150.6485	197.0637	243.8819	307.0599	419.8226	435.2554	483.1002	501.9711	556.5224	655.208	761.7341	821.2005	858.7655	904.1224	924.5947	971.2792	1029.4941	1035.4155	1061.4439	1084.1308	1155.1009	1161.5684	1209.0355	1259.2152	1272.8255	1333.4467	1348.1375	1374.5931	1392.11	1408.2371	1459.2697	1471.7367	1478.368	1481.6674	1496.2637	1690.4464	1772.0875	2992.0879	3010.5698	3019.2426	3031.0517	3049.4949	3067.0174	3077.8553	3101.6764	3123.2092	3169.3656
CC1=CC(=O)CCC1	CC1=CC(=O)CCC1	
InChI=1S/C7H10O/c1-6-3-2-4-7(8)5-6/h5H,2-4H2,1H3	InChI=1S/C7H10O/c1-6-3-2-4-7(8)5-6/h5H,2-4H2,1H3
