19
gdb 18723	3.09041	2.22689	1.49781	2.4812	71.22	-0.2402	0.0709	0.311	891.0342	0.167716	-365.047162	-365.03991	-365.038966	-365.078355	28.622	
C	 0.0086456121	 1.5216832246	-0.0112228018	-0.403416
C	 0.0449989484	-0.0001587449	 0.0156480163	 0.14154
O	 0.6586858705	-0.4252373641	-1.1927036327	-0.254907
C	 0.8422099661	-1.8270252012	-1.2564610176	-0.072028
C	 1.9232880637	-2.3001324558	-0.278710799	-0.208622
C	 1.69869275	-1.6935173831	 1.0991494698	-0.038703
N	 2.2188101737	-0.3244938167	 1.2907314414	-0.323553
C	 0.7666559326	-0.5406265725	 1.2408892454	-0.047921
H	 1.0292285204	 1.9122491809	 0.0043770601	 0.140439
H	-0.4907312855	 1.8719493614	-0.9183901981	 0.120232
H	-0.5321877894	 1.9101895696	 0.8575841278	 0.105298
H	-0.9871047431	-0.3975222515	 0.0480229487	 0.057399
H	-0.110248986	-2.3411839736	-1.0398647174	 0.080834
H	 1.1178582816	-2.0560868503	-2.2900509361	 0.103746
H	 1.9058265762	-3.39426645	-0.2200526394	 0.092151
H	 2.9107982839	-2.0018844117	-0.6446099597	 0.117696
H	 1.7795582239	-2.3732437541	 1.9440767026	 0.082335
H	 2.5192168421	-0.1951328189	 2.2530301612	 0.2281
H	 0.2015097588	-0.451252058	 2.1673947283	 0.07938
110.5142	214.5302	235.2514	295.0323	330.2862	392.9388	451.9745	483.5359	616.7493	691.4229	762.7088	790.7109	852.1348	896.6232	915.3296	917.7617	945.01	1010.3585	1039.1283	1086.3252	1106.9332	1114.4441	1136.0592	1160.8518	1173.6371	1219.2893	1258.3348	1260.3971	1297.0858	1348.3612	1365.328	1368.7749	1397.2278	1403.2996	1423.6437	1456.9139	1470.3559	1483.7445	1498.2684	1502.8718	2924.0348	2956.416	3040.3094	3044.1572	3079.3862	3090.6869	3114.3008	3117.3741	3131.4242	3132.6924	3503.7697
CC1OCCC2NC12	C[C@H]1OCC[C@H]2N[C@@H]12	
InChI=1S/C6H11NO/c1-4-6-5(7-6)2-3-8-4/h4-7H,2-3H2,1H3	InChI=1S/C6H11NO/c1-4-6-5(7-6)2-3-8-4/h4-7H,2-3H2,1H3/t4-,5-,6+/m1/s1
