12
gdb 23778	3.36981	2.2748	1.35805	2.8977	61.14	-0.2281	-0.0327	0.1954	807.0856	0.085184	-422.640315	-422.634236	-422.633292	-422.67058	23.19	
F	 0.0575020291	 0.0681683453	 0.1846667816	-0.073778
C	 0.0170413278	 1.3959573141	 0.0493596873	 0.12637
C	-1.1678954623	 2.0182920892	-0.025963853	-0.048217
O	-1.2785353038	 3.3650393622	-0.1638921489	-0.197567
C	-0.1255485327	 4.0808233932	-0.2248170705	 0.065405
C	 1.0985876678	 3.5395341315	-0.1573243192	-0.184306
C	 1.2953061294	 2.1021184216	-0.0093095687	 0.207906
N	 2.4617525652	 1.5683119693	 0.0568468108	-0.544598
H	-2.1246799599	 1.5165132726	 0.0152380646	 0.152842
H	-0.3324144312	 5.1370718579	-0.3342222095	 0.145347
H	 1.9744481278	 4.1735904115	-0.2127780386	 0.130746
H	 2.3728980229	 0.5552056217	 0.1588533541	 0.219849
139.6287	308.1532	308.9481	404.0431	442.3103	507.6729	537.5564	595.8181	731.1848	753.0038	842.8967	876.434	878.3491	903.0712	964.3889	988.1846	1098.0319	1171.2828	1265.0036	1293.6232	1328.898	1403.263	1459.1452	1644.1366	1668.6815	1726.9924	3216.7499	3236.1886	3239.8599	3457.9408
FC1=COC=CC1=N	FC1=COCC=C1[NH]	
InChI=1S/C5H4FNO/c6-4-3-8-2-1-5(4)7/h1-3,7H	InChI=1S/C5H5FNO/c6-4-3-8-2-1-5(4)7/h1,3,7H,2H2
