21
gdb 118301	6.05108	0.52397	0.49995	4.2842	78.09	-0.2457	-0.0157	0.23	2164.6551	0.179086	-461.360427	-461.349461	-461.348517	-461.398004	37.487	
C	-0.3037614486	 1.3546873055	-0.0922704088	-0.230614
O	-0.107025793	-0.0411008293	-0.0733010606	-0.250292
C	 0.7597783856	-0.5041915245	-1.0912519607	-0.082697
C	 0.7449545072	-2.0281391919	-1.0163931601	 0.119881
O	-0.5871966712	-2.4998524542	-1.1366688436	-0.443324
C	 1.5735517078	-2.6690798048	-2.1263110379	-0.205346
C	 1.5801714067	-4.2045039613	-2.0319644874	-0.275808
C	 2.2328063542	-4.8406085418	-3.2344627027	 0.156324
O	 3.1508857768	-5.6190431225	-3.1979172193	-0.240541
H	 0.6398680352	 1.8981866981	 0.0666562712	 0.111241
H	-0.7392426314	 1.6903456148	-1.0458580216	 0.111009
H	-0.9930705987	 1.5987148442	 0.7193770364	 0.132143
H	 0.4001062461	-0.1736575327	-2.0797578769	 0.092599
H	 1.7794482868	-0.1118592284	-0.9466690438	 0.09116
H	 1.1631530795	-2.3189138144	-0.037324386	 0.074543
H	-1.1170279218	-1.9409139091	-0.5550381454	 0.292079
H	 1.1558540642	-2.3613350678	-3.0935139574	 0.108528
H	 2.5998199682	-2.2864502811	-2.0769895705	 0.108508
H	 2.0902650493	-4.5518180661	-1.1286790898	 0.11715
H	 0.5372272553	-4.5450954922	-1.9930989838	 0.145559
H	 1.7899142918	-4.5270452605	-4.2105586411	 0.067894
47.4455	62.2379	81.0413	101.1072	129.7697	139.6621	228.9589	236.7744	282.855	347.7841	388.4971	444.7012	480.5714	532.6964	576.9423	768.4225	840.4884	900.5637	966.8725	996.4379	1016.4353	1054.8836	1077.2313	1130.0102	1147.3952	1166.6293	1182.5619	1200.5823	1222.3222	1254.9426	1268.9272	1294.0791	1319.4353	1351.6031	1388.8989	1410.7097	1431.3814	1453.0491	1464.0542	1478.1623	1483.0064	1486.7759	1499.222	1520.9292	1836.1063	2842.8187	2955.8574	2961.6777	2981.0947	3004.1829	3025.2389	3028.0609	3036.8172	3069.9186	3104.3454	3118.799	3787.5255
COCC(O)CCC=O	COC[C@@H](O)CCC=O	
InChI=1S/C6H12O3/c1-9-5-6(8)3-2-4-7/h4,6,8H,2-3,5H2,1H3	InChI=1S/C6H12O3/c1-9-5-6(8)3-2-4-7/h4,6,8H,2-3,5H2,1H3/t6-/m0/s1
