13
gdb 80228	2.36746	1.58941	1.20598	4.9618	60.83	-0.2686	-0.0468	0.2217	1008.6234	0.087042	-493.688637	-493.680826	-493.679882	-493.721371	28.154	
O	-0.0199779342	 1.382222998	-0.046648949	-0.400847
C	-0.0611435409	 0.0150999346	 0.0074906929	 0.096343
C	-0.4608666715	-0.7472302474	 1.190726913	-0.020474
O	-1.4383780513	 0.0158673496	 1.9293518724	-0.285484
C	-2.3798261839	-0.1239998462	 0.881259942	 0.433386
O	-3.5043510423	 0.2336461066	 0.8942263435	-0.289279
C	-1.4105106544	-0.8255457059	-0.0255174806	-0.041593
C	-1.6525376931	-1.8712875916	-1.0313148152	 0.063838
O	-2.7405810037	-2.1918951846	-1.4361314414	-0.243744
H	-0.4358882396	 1.7283285009	 0.7553061652	 0.313847
H	 0.6861214853	-0.4384201419	-0.6389585351	 0.14654
H	 0.0527275951	-1.5421510421	 1.7153100061	 0.149754
H	-0.7218660255	-2.3542742598	-1.4089851637	 0.077713
90.2198	132.7244	159.7827	223.4128	264.8709	397.2488	424.7492	462.7841	479.4392	628.4068	692.5221	750.7691	779.5079	807.7874	857.5287	923.5959	996.0851	1022.1486	1045.625	1062.5589	1116.6584	1218.6437	1298.9134	1311.6488	1380.9962	1434.7478	1469.125	1810.3564	1970.2849	2862.1404	3160.9217	3211.7229	3759.2518
OC1C2OC(=O)C12C=O	O[C@H]1[C@H]2OC(=O)[C@@]12C=O	
InChI=1S/C5H4O4/c6-1-5-2(7)3(5)9-4(5)8/h1-3,7H	InChI=1S/C5H4O4/c6-1-5-2(7)3(5)9-4(5)8/h1-3,7H/t2-,3+,5-/m0/s1
