23
gdb 36896	4.6574	0.81379	0.78244	0.2626	89.55	-0.2467	0.0919	0.3386	1569.0782	0.206962	-351.111796	-351.103151	-351.102207	-351.145723	33.913	
C	-0.2363756942	 1.5757680431	-0.043137299	-0.236928
C	-0.2595988894	 0.0698813368	-0.2130999148	 0.043253
C	-0.1656104611	-0.8355904441	 0.9903826178	-0.255461
C	-1.4586617645	-0.7349480209	 0.2164291232	-0.279068
C	 1.1790281876	 2.146276906	 0.0363832047	 0.040108
C	 2.0983208099	 2.1285733095	-1.2390122537	-0.252211
C	 2.3073439686	 3.6404141866	-1.0882278284	-0.036175
C	 0.9869678333	 4.3505085159	-1.1663642409	-0.274011
C	 1.3690044656	 3.6697582513	 0.1206038361	-0.072183
H	-0.7827552868	 2.0467628781	-0.8707602927	 0.09212
H	-0.7816882399	 1.842526005	 0.8730225082	 0.087248
H	 0.2482768103	-0.2858510113	-1.1067245993	 0.081415
H	 0.4119186752	-1.7502752408	 0.91314379	 0.107691
H	-0.127629405	-0.370478895	 1.9705897303	 0.107136
H	-2.2843027974	-0.2031750751	 0.6785989091	 0.107927
H	-1.7624833074	-1.5804217915	-0.3911259908	 0.107763
H	 1.7087838496	 1.6606205485	 0.8624544972	 0.072663
H	 3.0056590814	 1.5384418728	-1.0942384443	 0.100377
H	 1.6258332334	 1.8123914492	-2.1763879499	 0.089511
H	 3.2462713567	 4.1612620316	-1.2313801358	 0.0812
H	 1.0376800479	 5.4345662829	-1.1399510116	 0.10716
H	 0.1892738712	 3.96359692	-1.7963418597	 0.103026
H	 1.4653089452	 4.2311669513	 1.0430298242	 0.077438
61.1739	82.8861	124.8343	182.5281	303.117	314.1028	399.3249	433.6646	496.6229	671.2792	775.5538	777.7858	795.2281	808.4203	820.8747	844.5245	860.7114	924.9165	945.1483	957.4636	969.0136	983.452	1008.8818	1032.47	1055.1549	1063.7749	1076.0137	1077.7182	1085.0329	1121.3339	1133.5496	1139.9039	1183.444	1197.9557	1209.7103	1226.7776	1241.1826	1261.2234	1272.8438	1295.8509	1316.7631	1369.333	1386.758	1415.1497	1468.1085	1479.162	1484.1607	1501.8769	1506.9723	3006.7696	3034.2165	3036.8295	3054.6162	3103.9737	3108.4584	3125.856	3128.6848	3132.798	3168.3616	3181.3648	3198.0262	3203.2877	3218.6619
C(C1CC1)C1CC2CC12	C(C1CC1)[C@H]1C[C@H]2C[C@@H]12	
InChI=1S/C9H14/c1-2-6(1)3-7-4-8-5-9(7)8/h6-9H,1-5H2	InChI=1S/C9H14/c1-2-6(1)3-7-4-8-5-9(7)8/h6-9H,1-5H2/t7-,8-,9-/m0/s1
