16
gdb 23360	2.95565	1.63242	1.26288	1.9316	71.81	-0.2322	0.0157	0.2479	994.5234	0.122493	-437.770152	-437.762346	-437.761402	-437.802128	30.461	
C	-0.0922271095	 1.5555667081	 0.0699599773	-0.510728
C	 0.0806273005	 0.072751902	 0.0594715424	 0.303172
O	-1.1673937112	-0.6992680527	 0.1385061102	-0.320375
C	-0.4031893685	-1.7344066266	 0.7500964017	 0.100752
C	 0.9262601002	-1.8771610046	-0.0202183039	-0.223903
C	 0.7319459023	-0.8799271448	 1.1535366652	-0.191248
C	 0.8857330592	-0.7403061604	-0.9691736627	 0.476722
N	 1.4904991795	-0.5509476838	-2.0637813496	-0.30283
O	 1.2802899273	 0.7638950807	-2.546648225	-0.403476
H	 0.8780877307	 2.0521187523	-0.0057887681	 0.138484
H	-0.6952685417	 1.8619707871	-0.7886133719	 0.151638
H	-0.5934346105	 1.8733087977	 0.988567253	 0.126686
H	-0.911003273	-2.5598969575	 1.2312011477	 0.120314
H	 1.5184137579	-2.7801397958	-0.0494958409	 0.110908
H	 1.3126805714	-0.7161057992	 2.0498092635	 0.118136
H	 1.7888737453	 0.7557565075	-3.3639618989	 0.305746
122.5398	179.2477	201.0507	284.1937	297.2272	319.1473	387.2134	476.9257	551.3507	648.037	698.7173	738.9913	761.7771	778.8583	792.5802	823.6723	849.1728	927.1045	952.4394	967.6102	1002.993	1030.8888	1058.3749	1112.3038	1121.2044	1146.0723	1186.8116	1268.4874	1339.2404	1361.8837	1409.4551	1424.5175	1471.6453	1481.9943	1796.8453	3050.4082	3126.5924	3134.1474	3205.9755	3220.6949	3234.7835	3825.1795
CC12OC3C(C13)C2=NO	C[C@]12O[C@H]3[C@H]([C@@H]13)C2=NO	
InChI=1S/C6H7NO2/c1-6-3-2(4(3)9-6)5(6)7-8/h2-4,8H,1H3	InChI=1S/C6H7NO2/c1-6-3-2(4(3)9-6)5(6)7-8/h2-4,8H,1H3/t2-,3+,4-,6-/m0/s1
