20
gdb 78587	2.63179	1.60371	1.23401	1.3153	78.39	-0.2365	0.0691	0.3056	1090.6469	0.170438	-403.088384	-403.079689	-403.078745	-403.121148	33.75	
C	-0.070567265	 1.5780685992	-0.0247792642	-0.442971
C	 0.0795733164	 0.0653524564	-0.1532817272	 0.084721
C	 0.7651895906	-0.6541609615	-1.3355109754	-0.215732
C	 2.2271224814	-0.1280876435	-1.3600674135	 0.173188
O	 2.5515441039	 1.1906507202	-1.7111761092	-0.445154
C	 2.350943513	-0.6938556485	 0.053311383	-0.185801
N	 1.0282313949	-0.6144729044	 0.79412696	-0.201486
C	 1.2651093935	-1.6698128986	-0.2249417465	 0.375535
C	 1.1230946029	-3.1395626574	-0.020995952	-0.532622
H	 0.8782328298	 2.0731911365	 0.2084091124	 0.116768
H	-0.4830780662	 2.0187430602	-0.937960516	 0.128183
H	-0.7457426077	 1.8196660715	 0.8016861948	 0.129237
H	-0.8967500243	-0.4009415265	 0.0190050695	 0.084524
H	 0.241681358	-0.8762753841	-2.2643463394	 0.069806
H	 2.8185946934	-0.7570657279	-2.0324962153	 0.096195
H	 2.107698898	 1.7934230202	-1.1097616809	 0.279168
H	 3.2316274872	-0.8113001146	 0.6716790284	 0.096507
H	 0.0701590192	-3.4422952456	-0.0100754078	 0.126463
H	 1.6254043161	-3.7001602985	-0.8167592557	 0.126159
H	 1.567628305	-3.429046313	 0.9359732849	 0.13731
138.2279	149.7651	201.0276	211.3759	228.8141	285.0821	291.904	347.8337	416.4822	547.8552	585.4996	660.131	707.6092	714.881	785.7538	839.5113	888.474	900.7294	934.1682	985.3216	1008.0582	1031.5315	1053.1373	1081.1016	1106.7403	1108.1984	1123.1775	1152.6544	1165.8503	1207.8721	1233.5834	1262.897	1293.5749	1319.1232	1390.9571	1401.6333	1409.798	1441.306	1458.5404	1481.451	1482.4761	1492.8274	1516.5927	3029.7153	3032.521	3041.3573	3070.8725	3090.8837	3096.1862	3110.0088	3110.8755	3127.2423	3202.3594	3857.9391
CC1C2C(O)C3N1C23C	C[C@H]1[C@H]2[C@@H](O)[C@H]3N1[C@@]23C	
InChI=1S/C7H11NO/c1-3-4-5(9)6-7(4,2)8(3)6/h3-6,9H,1-2H3	InChI=1S/C7H11NO/c1-3-4-5(9)6-7(4,2)8(3)6/h3-6,9H,1-2H3/t3-,4-,5+,6+,7-,8?/m0/s1
