15
gdb 127802	3.25194	1.30244	0.93553	6.6777	71.11	-0.2354	-0.022	0.2134	1171.9139	0.113503	-450.143832	-450.135564	-450.13462	-450.177462	28.998	
C	-0.017894558	 1.4114738964	 0.0508582467	-0.354799
N	-0.0086411684	-0.0331129855	 0.0334011292	-0.037518
N	-0.0308876638	-0.7067841727	-1.1509522488	-0.15013
N	-0.0161198753	-1.973805716	-0.8761797743	-0.17821
C	 0.0154786522	-2.1571029082	 0.4718090283	-0.144154
C	 0.0206719601	-0.91233338	 1.0662818628	 0.444276
N	 0.0477956376	-0.4889572313	 2.3898324593	-0.429256
C	 0.0767714249	-1.3340328348	 3.4752031377	 0.150202
O	 0.0821654118	-2.538824825	 3.4126878403	-0.284341
H	 0.8854915237	 1.8084680085	 0.5266225853	 0.144516
H	-0.0444896588	 1.7400085933	-0.9879955868	 0.183357
H	-0.9032063409	 1.7964107799	 0.568632659	 0.144517
H	 0.032357974	-3.1252338964	 0.9368912565	 0.156015
H	 0.0467237005	 0.5022863236	 2.5754911128	 0.260796
H	 0.0947265703	-0.7642987617	 4.4228129117	 0.094727
52.5384	132.5201	164.9722	187.6326	218.645	247.051	371.6507	435.8936	493.3013	619.0091	682.3797	714.3106	715.76	844.4808	887.3629	975.0266	1011.1309	1012.497	1123.0097	1146.1121	1149.5544	1204.5574	1263.7281	1308.1599	1357.5678	1428.5376	1432.2353	1465.8048	1486.3129	1507.0214	1564.7121	1611.0574	1816.4539	2965.3128	3030.4904	3090.6387	3161.1813	3318.7058	3624.7361
CN1N=NC=C1NC=O	Cn1nncc1NC=O	
InChI=1S/C4H6N4O/c1-8-4(5-3-9)2-6-7-8/h2-3H,1H3,(H,5,9)	InChI=1S/C4H6N4O/c1-8-4(5-3-9)2-6-7-8/h2-3H,1H3,(H,5,9)
