18
gdb 66469	3.45732	1.60064	1.47746	0.5245	74.48	-0.2154	0.0678	0.2832	953.9069	0.147703	-401.856053	-401.848756	-401.847812	-401.88717	30.084	
C	-0.0183391872	 1.4283221861	 0.0106025994	-0.513346
C	 0.0200061945	-0.0641548298	 0.0263990636	 0.378651
C	 0.4968394282	-1.0735111478	-0.9807592506	-0.166621
C	 1.2203137081	-0.9464198682	 0.356290956	-0.164827
C	 0.4659722457	-2.1297243899	 1.0036791095	 0.369099
O	 1.253982145	-3.1907100256	 1.4133902575	-0.477357
C	-0.6908029405	-1.4888102265	 1.8014492732	-0.251451
N	-1.1498260222	-0.8935681559	 0.4953081855	-0.190009
C	-0.4681981479	-2.0435622855	-0.2694491016	-0.095267
H	 0.9059245361	 1.833986679	-0.4135256155	 0.12148
H	-0.8609074309	 1.7904474096	-0.5870226143	 0.130503
H	-0.1261001205	 1.829342747	 1.0252198608	 0.122662
H	 0.8409315576	-0.9648464401	-2.0000365121	 0.09316
H	 2.2148481897	-0.5831414656	 0.5771200572	 0.090583
H	 0.6771847655	-3.8954590143	 1.7273802375	 0.283361
H	-1.4332183716	-2.2160707414	 2.1501655803	 0.094277
H	-0.4657007767	-0.7703042203	 2.5959196073	 0.102064
H	-1.0870739229	-2.8357103309	-0.6882087039	 0.073038
193.5464	196.9815	240.0632	299.4081	362.1111	371.3998	450.1009	549.0181	582.2189	659.8442	744.9647	770.8373	815.902	836.1905	863.8588	876.8802	889.6019	917.9198	922.407	969.7956	986.8435	1025.4802	1075.5799	1083.381	1102.2033	1111.5833	1162.3223	1169.4436	1175.6741	1212.9133	1228.9676	1258.9422	1316.5765	1393.2964	1402.0475	1445.147	1476.6668	1495.0447	1498.1178	3027.4611	3033.5154	3090.9468	3094.9142	3106.4392	3124.6413	3203.3074	3214.6551	3804.9147
CC12C3C1C1(O)CN2C31	C[C@@]12[C@H]3[C@@H]1[C@@]1(O)CN2[C@@H]31	
InChI=1S/C7H9NO/c1-6-3-4(6)7(9)2-8(6)5(3)7/h3-5,9H,2H2,1H3	InChI=1S/C7H9NO/c1-6-3-4(6)7(9)2-8(6)5(3)7/h3-5,9H,2H2,1H3/t3-,4-,5-,6+,7-/m0/s1
