23
gdb 117668	3.10856	0.85535	0.80964	0.1664	81.78	-0.2555	0.0718	0.3272	1546.1377	0.203218	-425.40551	-425.394682	-425.393738	-425.441601	40.178	
C	 0.1462664268	 1.6150649541	 0.2013123474	-0.425369
C	 0.0277415482	 0.0955945464	 0.0516476997	 0.332405
O	 0.6502140031	-0.4343695474	 1.2361168827	-0.462479
C	-1.4483566371	-0.3561064214	-0.0061711278	-0.18613
C	-2.2910211661	 0.0341387358	 1.202278621	-0.095767
O	-3.5422409092	-0.6327469736	 1.0762444832	-0.425858
C	 0.7436477369	-0.4557071755	-1.1812593616	-0.010248
C	 1.0165160375	 0.3419562062	-2.4331031973	-0.272135
C	 2.1565575928	-0.0775289822	-1.5406382445	-0.283974
H	 1.1868913846	 1.940707121	 0.1269501408	 0.120369
H	-0.4424361943	 2.1375617948	-0.5568731359	 0.117122
H	-0.2160130413	 1.9150351177	 1.1871148255	 0.128606
H	 0.7734773193	-1.3803330688	 1.1026920005	 0.274038
H	-1.914408156	 0.0291540222	-0.9205179236	 0.104019
H	-1.4751767739	-1.4511432881	-0.0824910246	 0.091666
H	-1.7639126191	-0.2641677787	 2.1191857223	 0.099514
H	-2.4333711045	 1.1248995869	 1.2391876312	 0.082744
H	-4.0764761706	-0.4074986677	 1.8432788846	 0.283299
H	 0.4931275229	-1.5007224022	-1.359473947	 0.074236
H	 0.8932197196	-0.1525892723	-3.3903052244	 0.110265
H	 0.7483921998	 1.3921934534	-2.4421503866	 0.11413
H	 2.6479366121	 0.687143409	-0.9501685658	 0.120536
H	 2.8215585884	-0.8630023097	-1.8825823598	 0.109011
45.1006	89.8994	104.7083	144.6543	238.9541	248.878	268.6159	280.7622	286.9376	322.8808	361.5203	366.7878	435.9207	488.1143	582.5397	738.8098	786.8456	795.9764	833.1462	869.666	934.696	945.7718	963.5586	990.5307	1027.0479	1057.8629	1064.0514	1079.1902	1089.3967	1144.0281	1152.2939	1170.808	1191.5367	1201.0759	1234.3877	1241.1773	1249.3793	1311.8911	1341.226	1380.542	1394.3338	1430.4428	1457.5896	1466.0015	1480.8624	1494.5001	1500.8003	1512.5284	1533.9249	2981.1842	3021.1436	3023.7804	3053.7058	3072.5384	3107.7923	3124.6194	3130.5218	3137.1811	3140.8011	3213.3431	3227.5656	3806.6218	3829.5664
CC(O)(CCO)C1CC1	C[C@@](O)(CCO)C1CC1	
InChI=1S/C7H14O2/c1-7(9,4-5-8)6-2-3-6/h6,8-9H,2-5H2,1H3	InChI=1S/C7H14O2/c1-7(9,4-5-8)6-2-3-6/h6,8-9H,2-5H2,1H3/t7-/m1/s1
