21
gdb 54516	2.99476	1.32077	1.07396	2.8856	82.87	-0.2373	-0.0068	0.2305	1198.669	0.18333	-387.124623	-387.116005	-387.115061	-387.158046	33.43	
C	 0.148653956	 1.3694005935	-0.3404201186	-0.491669
C	-0.074020106	 0.0380033024	 0.3558904857	 0.290415
O	 0.7378005199	-0.3951682491	 1.1502154898	-0.324107
C	-1.3151532533	-0.7255893171	 0.0241683893	 0.255685
C	-1.8082369801	-1.6927708257	 1.0943800308	-0.320155
C	-1.1963284833	-2.2510814433	-0.1442831728	-0.038939
C	-2.1121247164	-2.6639696356	-1.2842726568	-0.218986
C	-3.123432294	-1.5024745061	-1.4226868769	-0.23213
C	-2.3515374322	-0.2350252163	-0.9830833475	-0.301573
H	 1.0539439155	 1.8330731944	 0.052401945	 0.138982
H	 0.2557985325	 1.2237204527	-1.4214948587	 0.139359
H	-0.7078187274	 2.0363685729	-0.194533892	 0.136547
H	-1.198868113	-1.7194180405	 1.9898540302	 0.137252
H	-2.8783503165	-1.7721522454	 1.2545808377	 0.109716
H	-0.2114978737	-2.6957013264	-0.0575182366	 0.10311
H	-1.5204615236	-2.7711339527	-2.2010749424	 0.10231
H	-2.6079597242	-3.6245943171	-1.107396782	 0.103078
H	-3.52349084	-1.4137233497	-2.4358480521	 0.10104
H	-3.9802188291	-1.6686770045	-0.7627249308	 0.109057
H	-3.0216490606	 0.5306527516	-0.5763995711	 0.100365
H	-1.8435948305	 0.2112567919	-1.8456140701	 0.100642
49.7921	152.6668	171.8895	212.1953	249.1908	316.085	380.0303	403.8598	466.1516	587.3993	605.441	624.6943	673.1193	796.6793	818.1254	879.6006	888.7126	911.1572	933.4283	951.2332	985.4542	1004.2419	1029.2252	1051.5469	1071.9061	1088.5696	1112.	1161.8237	1181.9343	1205.3738	1257.2972	1270.9346	1297.2129	1327.5202	1341.4686	1345.6597	1377.3618	1400.4832	1462.4664	1467.6537	1476.6459	1491.7544	1497.052	1517.0991	1775.537	3031.9643	3034.3052	3037.8154	3054.4769	3069.9889	3073.8139	3097.0616	3103.3203	3134.6337	3153.2305	3181.2344	3231.0136
CC(=O)C12CC1CCC2	CC(=O)[C@]12C[C@H]1CCC2	
InChI=1S/C8H12O/c1-6(9)8-4-2-3-7(8)5-8/h7H,2-5H2,1H3	InChI=1S/C8H12O/c1-6(9)8-4-2-3-7(8)5-8/h7H,2-5H2,1H3/t7-,8+/m1/s1
