16
gdb 48499	4.04337	1.47988	1.36799	2.3201	73.08	-0.2353	-0.03	0.2053	947.4547	0.125159	-400.665801	-400.65916	-400.658216	-400.697027	26.087	
O	 0.1380661654	-0.0267664032	 0.1197060088	-0.278342
C	 0.0849849735	 1.1782541157	 0.0056613693	 0.012199
C	 1.2575054818	 2.0519360356	-0.0494285409	 0.256292
C	 2.5793250916	 1.6284787439	-0.7769956711	-0.121577
C	 2.5801952615	 1.8774653599	 0.6803308391	-0.055224
N	 2.8846275767	 3.3461250146	 0.4471196531	-0.182617
C	 3.1388514687	 3.03235853	-1.0473835804	-0.00998
C	 1.9964858861	 3.9800888303	-1.4480652381	-0.247083
C	 1.4432605755	 3.5750200139	-0.0724014125	-0.093446
H	-0.8934302317	 1.7084995403	-0.0477544759	 0.070628
H	 2.6316317543	 0.7003415816	-1.3297296101	 0.120172
H	 2.8240056776	 1.284572356	 1.551923545	 0.120283
H	 4.1551349138	 3.1288871894	-1.4283066413	 0.091805
H	 2.3308818417	 5.0205934737	-1.4541426949	 0.121052
H	 1.4091184205	 3.7555141129	-2.3411171168	 0.10803
H	 0.7755172131	 4.2064537954	 0.5133670167	 0.08781
102.1922	159.5282	205.0188	374.6802	464.0585	545.0752	687.1038	711.3967	772.0753	782.6778	804.5488	873.3371	894.0285	914.6695	919.9403	932.64	952.5675	995.2598	1008.1319	1016.5014	1053.6978	1070.4896	1094.2372	1142.1659	1157.5259	1190.7617	1206.61	1234.2978	1251.7842	1296.6162	1306.2561	1390.7757	1438.0363	1474.1442	1787.8895	2866.5382	3066.4533	3119.4987	3122.8283	3130.1722	3203.0753	3219.2008
O=CC12C3C1N1C3CC21	O=C[C@]12[C@@H]3[C@H]1N1[C@@H]3C[C@@H]21	
InChI=1S/C7H7NO/c9-2-7-4-1-3-5(7)6(7)8(3)4/h2-6H,1H2	InChI=1S/C7H7NO/c9-2-7-4-1-3-5(7)6(7)8(3)4/h2-6H,1H2/t3-,4+,5+,6-,7+/m1/s1
