16
gdb 81324	4.00612	1.13749	1.0522	1.5498	81.35	-0.2217	-0.0345	0.1872	1147.872	0.125214	-400.670422	-400.663047	-400.662102	-400.702096	29.774	
O	 0.166877287	 1.3162599041	-0.1946884168	-0.440104
C	 0.0683680901	-0.0560682815	-0.0625995341	 0.213952
C	 0.0555266594	-0.6355046324	 1.4227949395	-0.105458
N	-1.3621515142	-0.130477499	 1.4449847161	-0.332212
C	-1.3945574262	-0.6615938624	 0.0448666171	-0.177197
C	-1.0472905669	-2.1547166019	 0.1913037237	 0.24223
C	-0.0716852908	-2.1191458068	 1.1257961599	-0.214658
C	-1.58742716	-3.211207092	-0.560204645	 0.124629
C	-2.0890200341	-4.08706418	-1.2204686139	-0.382399
H	-0.4570728445	 1.6849718054	 0.4478314513	 0.290377
H	 0.7501398636	-0.5267347707	-0.771059445	 0.099261
H	 0.7394390807	-0.2868756656	 2.1956349556	 0.078821
H	-1.9608586816	-0.6558539105	 2.0840323786	 0.212022
H	-2.2142902927	-0.3667747751	-0.6088303056	 0.08231
H	 0.5409024233	-2.9240661626	 1.5045954484	 0.119211
H	-2.5176488431	-4.8680985691	-1.7978788797	 0.189215
113.2816	149.3928	285.4718	334.2282	412.9127	467.2467	503.5127	550.9565	578.7413	598.1653	620.1847	638.3451	643.0296	782.8218	797.7046	851.9785	895.2035	904.2076	938.3689	949.0445	1027.9238	1074.9454	1099.3974	1150.7131	1168.3364	1197.5694	1208.2264	1237.1804	1264.9539	1288.6354	1311.6962	1318.5654	1441.9729	1617.9254	2218.8457	3126.864	3131.9714	3137.0563	3243.7842	3442.0615	3502.6737	3736.3827
OC1C2NC1C(=C2)C#C	O[C@H]1[C@H]2N[C@@H]1C(=C2)C#C	
InChI=1S/C7H7NO/c1-2-4-3-5-7(9)6(4)8-5/h1,3,5-9H	InChI=1S/C7H7NO/c1-2-4-3-5-7(9)6(4)8-5/h1,3,5-9H/t5-,6+,7-/m0/s1
