21
gdb 97762	6.4227	0.54031	0.5351	2.11	90.06	-0.2434	0.0344	0.2778	2122.1073	0.181318	-387.049605	-387.039342	-387.038397	-387.087133	36.502	
C	-0.1720477607	 1.5179294904	-0.0556064293	-0.392788
C	 0.011289636	 0.0033933427	-0.0978126776	 0.023304
C	 1.2844863435	-0.4680100376	-0.860031611	-0.232353
C	 2.0120928459	-0.6514774032	 0.5127803112	-0.144882
C	 0.6089377407	-0.6071360071	 1.2037977098	-0.231148
C	 2.8538023569	-1.8124165399	 0.7132791139	 0.008682
C	 3.5259997826	-2.7997705537	 0.8832694111	 0.095999
C	 4.3931684742	-3.9622045355	 1.0662306911	-0.191573
O	 5.689043419	-3.6355188487	 1.5535140737	-0.403757
H	 0.741047527	 2.025089894	 0.277599879	 0.114267
H	-0.4259456428	 1.9120630879	-1.0457100559	 0.114864
H	-0.9756195949	 1.7985227084	 0.6340178153	 0.115342
H	-0.9173413602	-0.4664674169	-0.4334668024	 0.069631
H	 1.1401890726	-1.4279151084	-1.3608549041	 0.107907
H	 1.7374321816	 0.2346783697	-1.5645044576	 0.099027
H	 2.5775481698	 0.2533031934	 0.7597208772	 0.101175
H	 0.5330622156	-0.0140097234	 2.1188636454	 0.100832
H	 0.2359958336	-1.6141972676	 1.402828466	 0.109007
H	 3.9620594714	-4.6443340643	 1.8079168866	 0.136849
H	 4.4543643015	-4.5241230548	 0.1198460492	 0.114013
H	 6.0314396965	-2.9275784755	 0.9980469084	 0.285602
12.1635	54.5996	87.6605	122.8697	190.0841	242.1569	254.2756	311.6227	344.6657	362.1706	488.9946	510.18	521.0595	620.847	786.5037	821.2565	846.0852	901.9512	909.8155	950.8379	952.547	991.3469	1029.9718	1043.7784	1067.5679	1133.5233	1137.4439	1186.1444	1214.8376	1228.7292	1235.8478	1247.3899	1274.7997	1274.8985	1350.7598	1355.7306	1373.367	1412.0467	1419.5828	1473.4003	1493.7245	1493.9973	1497.0491	1500.2008	2350.8434	2968.6856	3023.1673	3044.2045	3053.8603	3056.188	3058.2667	3065.6782	3091.3569	3093.8294	3117.0145	3120.9176	3817.0193
CC1CC(C1)C#CCO	C[C@H]1C[C@@H](C1)C#CCO	
InChI=1S/C8H12O/c1-7-5-8(6-7)3-2-4-9/h7-9H,4-6H2,1H3	InChI=1S/C8H12O/c1-7-5-8(6-7)3-2-4-9/h7-9H,4-6H2,1H3/t7-,8-
