19
gdb 92006	2.35115	1.59903	1.06028	3.6176	76.76	-0.2125	-0.0191	0.1934	1145.6312	0.159384	-419.181004	-419.172446	-419.171502	-419.214786	31.664	
C	-0.3058652911	 1.4818509681	-0.0619895851	-0.325442
N	-0.1952846924	 0.0441208487	 0.0592313086	-0.072769
C	-1.464412912	-0.683998324	 0.1062360738	-0.153057
C	-1.1038261959	-2.0162752971	 0.7248431898	-0.050032
N	 0.0747796952	-2.653648239	 0.1060830394	-0.327097
C	 0.2293863703	-1.8690514914	 1.3528554694	-0.07786
C	 0.6979615151	-0.4401100803	 1.1086658987	-0.048662
C	 2.1428001067	-0.3971547247	 0.6258193307	 0.162113
O	 3.0680300605	 0.0053329193	 1.2831531007	-0.255287
H	 0.6880971564	 1.9289081055	-0.1631475024	 0.130257
H	-0.8776730159	 1.7348755989	-0.9607352427	 0.123228
H	-0.8045475208	 1.95688866	 0.8044580483	 0.095009
H	-2.2174161058	-0.1884717659	 0.7478486369	 0.082306
H	-1.8880188873	-0.7708870825	-0.9018213009	 0.111584
H	-1.8809224566	-2.6335903512	 1.1615123843	 0.096654
H	 0.0785308365	-3.6428731467	 0.3445806377	 0.235122
H	 0.5135418414	-2.3654545995	 2.273137206	 0.103892
H	 0.6337974339	 0.1236872357	 2.0558624486	 0.070732
H	 2.2655795517	-0.787200794	-0.4062683119	 0.099311
49.7152	98.9451	171.0825	219.6576	242.2115	300.6503	365.5325	388.6451	459.1184	475.7265	649.4722	675.956	802.0617	861.4779	868.6859	910.0981	934.2842	982.8959	1009.207	1046.7001	1074.8011	1094.884	1098.9819	1134.4647	1147.0427	1170.5647	1195.4552	1226.8913	1261.2712	1272.5441	1296.9104	1311.7019	1356.607	1393.8909	1398.8749	1426.2062	1464.2622	1487.1663	1504.6868	1514.9208	1828.6761	2922.4294	2922.9278	2928.4062	2953.1126	3040.9481	3059.0089	3102.8083	3174.5477	3187.5855	3496.9748
CN1CC2NC2C1C=O	CN1C[C@H]2N[C@H]2[C@H]1C=O	
InChI=1S/C6H10N2O/c1-8-2-4-6(7-4)5(8)3-9/h3-7H,2H2,1H3	InChI=1S/C6H10N2O/c1-8-2-4-6(7-4)5(8)3-9/h3-7H,2H2,1H3/t4-,5-,6-/m1/s1
