17
gdb 84463	4.23984	1.19085	1.04238	1.8786	81.08	-0.2473	-0.0129	0.2345	1166.195	0.134518	-384.64465	-384.636476	-384.635532	-384.677051	31.816	
C	-0.0318553959	 1.6016479718	 0.0720921257	-0.395338
C	 0.0170617604	 0.0681333379	-0.0149042577	-0.070959
C	 0.8026173505	-0.4522448879	-1.2070650684	-0.077487
C	 1.7741357935	-1.2979911428	-0.8615275434	-0.178074
C	 1.8210227849	-1.4523312851	 0.6297872952	 0.250268
O	 2.1086689545	-0.1912647672	 1.3059261181	-0.290375
C	 0.7458829435	-0.5812699737	 1.1625581304	-0.045438
C	 2.306353459	-2.6467705591	 1.2538703898	 0.207139
C	 2.7247880285	-3.6636181598	 1.7395463962	-0.379829
H	 0.9783790928	 2.0025080546	 0.1866130038	 0.141245
H	-0.476061347	 2.03031655	-0.8314165828	 0.116149
H	-0.6319466035	 1.9257335377	 0.9279850608	 0.119007
H	-1.0117730477	-0.3174990562	-0.0501345623	 0.089615
H	 0.5990350735	-0.1134386958	-2.2172584836	 0.105259
H	 2.4674119545	-1.8008687717	-1.5227658455	 0.110906
H	 0.223732081	-0.800937602	 2.0901820241	 0.104622
H	 3.0908519272	-4.5576769706	 2.1802554594	 0.19329
112.2911	135.0035	194.9192	231.5979	263.5509	399.9133	407.1141	495.8922	522.6892	581.2924	607.3925	616.459	665.1556	709.6506	746.9916	806.8507	848.8597	868.618	926.7515	958.6774	970.7528	1026.1905	1041.7086	1100.5942	1122.868	1140.0673	1202.7252	1277.5554	1312.2226	1320.9834	1350.1051	1396.8235	1422.4839	1496.1245	1504.0711	1663.3318	2243.4472	3008.2118	3040.8722	3107.4422	3127.9905	3149.9208	3189.1053	3228.002	3503.3957
CC1C=CC2(OC12)C#C	C[C@H]1C=C[C@]2(O[C@@H]12)C#C	
InChI=1S/C8H8O/c1-3-8-5-4-6(2)7(8)9-8/h1,4-7H,2H3	InChI=1S/C8H8O/c1-3-8-5-4-6(2)7(8)9-8/h1,4-7H,2H3/t6-,7-,8+/m0/s1
