18
gdb 94307	3.22638	1.1992	1.03397	5.0891	73.19	-0.2443	0.0412	0.2855	1180.7088	0.147217	-439.096062	-439.087542	-439.086598	-439.129396	32.418	
O	 0.2728765735	 0.9508377261	-0.7119825683	-0.427871
C	 0.0939143749	-0.1736606563	 0.109033505	 0.083233
C	-0.0593191935	-0.0059100165	 1.6478981798	-0.264469
C	-1.189013125	-1.0715051296	 1.5968517156	-0.298236
C	-1.3266509348	-0.777970288	 0.082305858	 0.387273
C	-2.4979394009	 0.1092931908	-0.4343938655	-0.463369
C	-2.7931072268	-1.0542635338	-1.4116072437	 0.43616
O	-3.5921571046	-1.2836401724	-2.2775289243	-0.361065
N	-1.7406510353	-1.7768441184	-0.894220691	-0.401922
H	 1.1995339414	 1.2084560047	-0.6924963949	 0.289111
H	 0.8320043737	-0.9587106136	-0.1175380071	 0.067825
H	 0.8110094496	-0.2106656233	 2.2740035544	 0.099165
H	-0.449546324	 0.9883199846	 1.8803806654	 0.116665
H	-0.8082618119	-2.0811232666	 1.777847429	 0.105546
H	-2.0734531132	-0.9138050266	 2.2170162226	 0.111156
H	-3.2924771759	 0.3065878092	 0.2875344314	 0.124915
H	-2.1881946422	 1.0328396116	-0.9234835285	 0.153599
H	-1.356635935	-2.6761274719	-1.1465628481	 0.242284
60.8055	115.7269	213.6227	224.4644	266.714	321.1307	369.0828	433.0135	465.8473	512.9522	558.3635	570.7183	682.9833	779.3672	797.6698	873.8408	886.1521	933.4943	956.6592	976.9021	1054.4743	1074.6462	1100.2311	1144.9767	1155.6761	1165.4297	1192.1296	1207.258	1231.4755	1240.2815	1260.1936	1287.4669	1322.896	1390.0287	1430.1981	1455.1662	1479.5819	1498.31	1899.4311	2981.3711	3060.4741	3069.1402	3090.5134	3114.7118	3130.3307	3157.517	3601.4382	3825.9788
OC1CCC11CC(=O)N1	O[C@H]1CC[C@]21CC(=O)N2	
InChI=1S/C6H9NO2/c8-4-1-2-6(4)3-5(9)7-6/h4,8H,1-3H2,(H,7,9)	InChI=1S/C6H9NO2/c8-4-1-2-6(4)3-5(9)7-6/h4,8H,1-3H2,(H,7,9)/t4-,6+/m0/s1
