19
gdb 115905	3.32419	1.39898	1.2458	1.7206	71.09	-0.2369	0.0844	0.3213	1076.0123	0.160211	-460.133178	-460.125271	-460.124327	-460.165742	30.155	
C	-0.0164333037	 1.3990667963	 0.0587831908	-0.241359
O	-0.006907892	-0.0142341702	 0.1458577054	-0.239475
C	-1.2566864843	-0.5985829713	-0.0528370762	 0.25341
O	-1.7732037061	-0.3806706934	-1.3593802125	-0.290642
C	-1.439517278	-1.3769490797	-2.3336193451	-0.086231
C	-1.3168161374	-2.7392678097	-1.6669149797	 0.076933
C	-2.2801887632	-2.8483979886	-0.4639157783	-0.253122
C	-1.1224730716	-2.0972973234	 0.2220394833	 0.025685
O	-0.1906596988	-2.6499654671	-0.7451673954	-0.28689
H	 1.0057068929	 1.7359107826	 0.24334596	 0.12752
H	-0.3398044599	 1.7387389686	-0.9316085329	 0.125682
H	-0.6813072824	 1.8420419705	 0.8164773917	 0.102791
H	-2.0049210284	-0.1409922123	 0.6160829701	 0.069369
H	-2.2440687197	-1.3566654579	-3.0771371062	 0.105427
H	-0.4894053168	-1.1365036685	-2.8288130632	 0.113358
H	-1.2209902593	-3.5626480434	-2.3797447285	 0.082099
H	-3.2555841283	-2.3635394253	-0.5275517136	 0.112865
H	-2.3693885727	-3.8737707312	-0.1049655064	 0.113957
H	-0.8386397902	-2.306720516	 1.2551649769	 0.088622
101.4887	124.1066	175.572	198.4321	324.5632	369.1659	390.0481	448.5367	551.5179	606.2792	713.1821	842.4731	849.3658	870.8348	908.8346	914.587	962.2426	985.4512	995.1337	1039.0725	1069.1741	1085.9848	1104.8708	1133.5958	1166.6511	1181.0672	1205.7339	1223.531	1250.5041	1255.0858	1309.6736	1333.4642	1352.3139	1369.7803	1396.5823	1409.4803	1477.3848	1481.6176	1484.2149	1494.0725	1513.5018	2967.2813	2988.0022	3017.881	3066.3709	3071.7283	3078.2051	3086.4166	3101.3557	3127.1711	3150.7875
COC1OCC2CC1O2	CO[C@H]1OC[C@@H]2C[C@H]1O2	
InChI=1S/C6H10O3/c1-7-6-5-2-4(9-5)3-8-6/h4-6H,2-3H2,1H3	InChI=1S/C6H10O3/c1-7-6-5-2-4(9-5)3-8-6/h4-6H,2-3H2,1H3/t4-,5+,6-/m0/s1
