19
gdb 68505	2.49367	1.83098	1.4422	2.6552	78.66	-0.2288	0.0057	0.2345	985.7586	0.160362	-385.875757	-385.868193	-385.867249	-385.907392	30.671	
C	 0.0040285691	 1.553681976	 0.0064280835	-0.503004
C	 0.0245674121	 0.0464219115	-0.0331162284	 0.205288
C	 0.4069440245	-0.7760602943	-1.3075102144	-0.301304
C	-0.3390175758	-1.9600378187	-0.6229449691	-0.163496
C	 0.4271665767	-2.1880222316	 0.6876441689	-0.037734
C	 1.8348417327	-1.6787550805	 0.8531110503	-0.321002
C	 0.6928563365	-0.7322080784	 1.1157505783	-0.074285
C	-1.2813280222	-0.8187847704	-0.1206112273	 0.411035
O	-2.4504254726	-0.6386235164	 0.0216967507	-0.322846
H	 1.0146964514	 1.9689288485	-0.0686054874	 0.121245
H	-0.5948964656	 1.9613967934	-0.814086722	 0.123058
H	-0.4338152238	 1.9105328115	 0.9447760456	 0.128021
H	-0.1222317961	-0.4164206219	-2.192734978	 0.113821
H	 1.4637570709	-0.9013037407	-1.5394076318	 0.108905
H	-0.6999830047	-2.8221539976	-1.178816444	 0.082143
H	 0.0381888778	-2.9211485254	 1.3837287461	 0.100747
H	 2.3360025463	-2.0343948075	 1.7479000839	 0.117367
H	 2.5076192688	-1.5556071814	 0.0130532528	 0.115896
H	 0.500291104	-0.393723326	 2.1273344523	 0.096146
133.6846	182.3102	203.539	281.8685	295.1666	445.8453	493.4958	506.9889	568.83	660.834	707.112	750.6585	781.5261	814.0555	835.479	840.7584	892.5238	915.045	980.057	992.9407	1007.2349	1026.5168	1057.0527	1067.4042	1085.1016	1102.9294	1135.3828	1172.0537	1190.7291	1192.8168	1208.9872	1259.0125	1270.9417	1335.8343	1379.9438	1415.1021	1478.4455	1489.8268	1491.1675	1525.3143	1899.8643	3031.6068	3081.631	3097.5083	3102.9372	3133.9343	3145.5834	3148.2352	3174.7528	3186.2822	3214.0976
CC12CC(C3CC13)C2=O	C[C@@]12C[C@@H]([C@H]3C[C@@H]13)C2=O	
InChI=1S/C8H10O/c1-8-3-5(7(8)9)4-2-6(4)8/h4-6H,2-3H2,1H3	InChI=1S/C8H10O/c1-8-3-5(7(8)9)4-2-6(4)8/h4-6H,2-3H2,1H3/t4-,5+,6-,8-/m1/s1
