21
gdb 105917	3.15391	1.55687	1.34634	0.1897	84.92	-0.2323	0.0894	0.3217	1053.0816	0.183859	-349.888586	-349.881074	-349.88013	-349.92051	30.815	
C	-0.2458466599	 1.4796728667	-0.0509747094	-0.374495
C	 0.168272606	 0.0019964324	-0.0159824174	-0.318687
C	 0.8368342434	-0.4597753345	-1.2783510433	 0.399176
C	 0.0851258175	-0.8610696951	-2.5542349826	-0.115472
C	 0.978578271	-1.857968986	-1.8428274267	-0.184801
C	 2.1414492203	-1.3060472392	-2.7180941281	-0.047311
C	 1.1359888557	-0.5033369807	-3.6316766187	-0.054203
C	 1.7990229162	 0.826947468	-3.1976026155	-0.249708
C	 2.1641592104	 0.0467154423	-1.910137579	-0.114223
H	 0.6211455551	 2.1282545467	-0.2156120178	 0.119264
H	-0.9597676963	 1.6696970683	-0.8590436867	 0.116557
H	-0.7124948389	 1.7816195628	 0.8918342863	 0.108952
H	 0.8390911874	-0.1665470223	 0.8375108966	 0.09601
H	-0.7144603563	-0.6247685566	 0.1676070336	 0.095857
H	-0.9955254437	-0.8414343646	-2.6200599401	 0.077943
H	 0.7608979246	-2.8258999161	-1.4098940698	 0.080309
H	 3.0239323913	-1.8302403351	-3.0763358126	 0.064477
H	 0.9290247771	-0.7515398487	-4.6722847989	 0.060573
H	 2.6871933257	 1.0485250756	-3.7991002111	 0.092691
H	 1.1750274555	 1.7225215627	-3.1129458582	 0.089942
H	 2.9753014281	 0.3441378835	-1.2449543005	 0.057149
85.7709	137.0122	204.1006	309.6399	349.1789	417.7827	527.534	619.6694	735.6799	742.133	764.9107	800.318	808.1473	832.9437	855.4652	868.7991	891.1488	924.2814	928.8201	963.6278	983.549	990.5134	996.6156	1032.645	1050.8318	1078.2938	1087.5626	1110.3514	1150.6221	1167.5139	1175.7549	1200.9267	1205.4826	1240.8481	1263.9556	1273.2216	1277.0969	1323.2002	1353.8168	1407.2893	1428.3524	1480.2958	1486.8897	1497.4806	1507.0502	3008.6063	3032.8226	3037.3111	3039.6356	3092.6858	3101.284	3104.8255	3108.7413	3115.7792	3144.8404	3184.61	3196.6747
CCC12C3C1C1C3CC21	CC[C@]12[C@@H]3[C@H]1[C@H]1[C@@H]3C[C@@H]21	
InChI=1S/C9H12/c1-2-9-5-3-4-6(5)8(9)7(4)9/h4-8H,2-3H2,1H3	InChI=1S/C9H12/c1-2-9-5-3-4-6(5)8(9)7(4)9/h4-8H,2-3H2,1H3/t4-,5+,6-,7-,8+,9-/m0/s1
