19
gdb 112358	2.66455	1.2252	0.96465	1.6877	75.54	-0.2399	-0.0418	0.1982	1262.1782	0.15757	-423.08371	-423.074585	-423.073641	-423.118606	33.368	
C	-0.0165099206	 1.6014991099	 0.0656849187	-0.388077
C	-0.0531888491	 0.0748189916	-0.0247494453	-0.18312
C	 0.753104615	-0.5081552138	-1.2131033831	-0.105888
C	 0.8004849269	-2.0471743982	-1.1856921712	-0.348993
C	-0.3655383859	-2.517809601	-2.0606176846	 0.391366
O	-0.9308883645	-3.5755147788	-1.971712213	-0.300431
C	-0.68748807	-1.4054785855	-3.0549061277	-0.432492
C	 0.0452146429	-0.1671026677	-2.5360396872	 0.393367
O	 0.054100933	 0.9119682707	-3.071003648	-0.31197
H	 1.0082256784	 1.9583691902	 0.2151181365	 0.117934
H	-0.3963794349	 2.0668671656	-0.8468617141	 0.14703
H	-0.6194596507	 1.9510806895	 0.9091581775	 0.114698
H	 0.3544604652	-0.3626084217	 0.894637221	 0.10814
H	-1.0933001311	-0.2747712604	-0.0860670804	 0.104593
H	 1.7478965435	-0.0527649719	-1.2162320475	 0.101767
H	 1.7233747684	-2.4193212455	-1.6502227884	 0.134138
H	 0.7390308474	-2.4886706222	-0.188267801	 0.131434
H	-0.3056955565	-1.6685791043	-4.0492376401	 0.164782
H	-1.7627165175	-1.2408893366	-3.1689189721	 0.161721
48.5928	54.9551	108.9	187.0082	243.1664	288.9157	367.4788	390.4345	419.9924	518.0616	548.1376	580.5172	670.4605	733.5975	749.2282	809.8366	833.6139	877.8985	952.3958	1011.5772	1023.1491	1041.1842	1095.8503	1135.4139	1165.6401	1171.8968	1212.5839	1225.8026	1253.6555	1271.9675	1307.3969	1340.5875	1368.9592	1398.1868	1419.4405	1453.8496	1488.3736	1496.7959	1508.5525	1826.9437	1863.8585	3012.3105	3030.8565	3040.4329	3049.1254	3050.4421	3071.392	3103.7175	3104.8082	3107.5252	3129.8628
CCC1CC(=O)CC1=O	CC[C@H]1CC(=O)CC1=O	
InChI=1S/C7H10O2/c1-2-5-3-6(8)4-7(5)9/h5H,2-4H2,1H3	InChI=1S/C7H10O2/c1-2-5-3-6(8)4-7(5)9/h5H,2-4H2,1H3/t5-/m0/s1
