15
gdb 33868	4.37088	1.29657	1.15797	5.2934	69.4	-0.2618	0.0014	0.2632	1029.8114	0.114074	-416.772378	-416.765465	-416.764521	-416.803666	27.101	
N	-0.0007946397	-1.1400176552	 0.0371162547	-0.333013
C	 0.0350820704	 0.015058498	 0.0062721025	 0.231971
C	 0.0567468994	 1.4571537984	-0.068592012	 0.262676
C	-0.9713539709	 2.1853579679	-0.9398455854	-0.301416
C	-0.2750931605	 3.4718047801	-1.3882876212	-0.046191
N	 0.0562176298	 4.4088005436	-0.305224715	-0.310795
C	 1.1059373945	 3.5116969187	-0.8269500039	-0.084226
C	 1.3045839732	 2.2637105394	 0.0060073639	-0.007219
O	 0.4369665334	 2.1413826942	 1.1276012443	-0.248013
H	-1.2163957262	 1.5652578873	-1.8074486492	 0.129075
H	-1.8926080091	 2.3778184799	-0.3834112734	 0.143926
H	-0.5025513148	 3.8666277014	-2.3732025233	 0.101881
H	 0.1918794743	 5.3388258457	-0.6954244745	 0.239142
H	 1.9517754945	 3.9155085674	-1.371031553	 0.099911
H	 2.2874540818	 1.814484533	 0.1125785256	 0.122292
132.5792	153.1401	281.177	302.0719	408.2816	459.3317	549.3238	589.3352	617.3821	703.4749	724.815	801.8874	846.2512	865.0119	897.2273	907.6975	962.6102	979.8364	1004.1571	1054.9521	1077.8249	1145.7474	1165.8248	1184.6187	1212.9362	1226.5839	1281.5817	1322.6146	1368.7434	1405.5141	1428.2255	1464.2805	2357.3583	3064.5511	3113.4105	3162.0486	3165.5671	3186.8732	3497.8128
N#CC12CC3NC3C1O2	N#C[C@]12C[C@H]3N[C@H]3[C@H]1O2	
InChI=1S/C6H6N2O/c7-2-6-1-3-4(8-3)5(6)9-6/h3-5,8H,1H2	InChI=1S/C6H6N2O/c7-2-6-1-3-4(8-3)5(6)9-6/h3-5,8H,1H2/t3-,4-,5-,6-/m1/s1
