20
gdb 40015	3.53207	1.38173	1.15579	1.1676	86.1	-0.214	0.0156	0.2296	1116.364	0.173023	-365.977938	-365.970397	-365.969453	-366.009812	30.809	
C	 0.0658544313	 1.5464950368	 0.0155037998	-0.314093
C	 1.3518625977	 0.7708339849	-0.0201911801	-0.297144
C	 0.0188719877	 0.0356497357	-0.0164544218	 0.34662
C	-0.4431651851	-0.6699084277	 1.2489275025	-0.244696
N	-0.2121551391	-2.1290385254	 1.2289131052	-0.10231
C	-1.394757878	-2.9681214393	 1.0222963146	-0.246689
C	-0.3915765164	-2.7923762943	-0.0675912353	-0.052489
C	-0.6462105993	-1.9658392453	-1.2723243617	-0.089621
C	-0.4064555973	-0.6533020789	-1.2606188358	-0.146266
H	-0.2119012376	 2.037942221	 0.9427137771	 0.112552
H	-0.2402314779	 2.0805075939	-0.8783516987	 0.112618
H	 1.9276774504	 0.7696753677	-0.939006912	 0.115004
H	 1.9504260004	 0.7207945553	 0.8831726946	 0.119812
H	 0.0804640019	-0.2604309178	 2.1210527664	 0.098369
H	-1.5123845691	-0.4548362329	 1.3885099255	 0.096201
H	-1.4273405599	-3.8910480254	 1.5961867247	 0.109876
H	-2.3541088311	-2.4680342189	 0.8996232241	 0.107521
H	 0.3076958207	-3.6136718519	-0.2312844805	 0.09562
H	-0.9521272322	-2.475651966	-2.1817665334	 0.090698
H	-0.5167992271	-0.0569671517	-2.1631678952	 0.088417
81.8809	170.0087	278.3118	306.9895	343.7573	431.2513	433.2958	507.0405	571.8498	667.4326	742.199	758.0725	782.1604	810.3529	831.2716	917.5784	941.0653	945.8307	951.0895	975.041	991.7191	1023.0048	1052.4927	1058.4617	1075.8605	1083.1906	1105.9285	1114.1028	1164.5194	1188.2418	1191.0604	1243.7626	1306.463	1315.412	1330.5215	1356.5438	1405.4558	1437.1664	1466.8145	1491.0568	1499.4147	1512.544	1702.0917	2991.9914	3041.366	3087.3158	3089.0789	3123.162	3132.6557	3147.1326	3170.9844	3176.8516	3203.3061	3222.131
C1CC11CN2CC2C=C1	C1CC21CN1C[C@H]1C=C2	
InChI=1S/C8H11N/c1-2-8(3-4-8)6-9-5-7(1)9/h1-2,7H,3-6H2	InChI=1S/C8H11N/c1-2-8(3-4-8)6-9-5-7(1)9/h1-2,7H,3-6H2/t7-,9?/m1/s1
