22
gdb 102377	1.67993	1.47594	1.04603	3.2348	81.85	-0.2807	0.0315	0.3122	1301.1872	0.192327	-404.370186	-404.359235	-404.358291	-404.405986	39.629	
C	-0.1774814505	 1.5566470465	 0.1479250749	-0.414462
C	 0.0652303677	 0.0458496773	 0.0774753353	-0.187358
C	 0.7366816287	-0.4563440958	-1.2339497397	 0.057247
C	-0.010657972	-0.0349139985	-2.5261729207	-0.20863
C	-1.4677846797	-0.4956267351	-2.617165002	-0.406097
C	 2.2126118988	 0.034385045	-1.3233372383	-0.084112
O	 2.9989520574	-0.34866409	-0.2179210199	-0.419916
C	 0.8001716212	-1.926422006	-1.1700894447	 0.268377
N	 0.9000806833	-3.0774598913	-1.1097196194	-0.358451
H	 0.7506443002	 2.1286302878	 0.0571393194	 0.128741
H	-0.8668063659	 1.9047006954	-0.6272057642	 0.122498
H	-0.6193392543	 1.8106432202	 1.1158993953	 0.125652
H	 0.7135542448	-0.2567626299	 0.9045536659	 0.128209
H	-0.8827092548	-0.4840731031	 0.2117505615	 0.113953
H	 0.04262172	 1.0568009558	-2.6003539869	 0.10932
H	 0.5463530992	-0.4284978144	-3.3841572659	 0.113387
H	-1.5449826479	-1.5838274827	-2.5297019339	 0.142199
H	-2.0886030598	-0.0498964178	-1.8345061968	 0.124807
H	-1.895654876	-0.2066091905	-3.5814108677	 0.122169
H	 2.6452764057	-0.3150522682	-2.2720254198	 0.104106
H	 2.2175612937	 1.127741129	-1.3402034077	 0.119842
H	 3.0951453099	-1.3081864535	-0.2382017848	 0.29852
77.9841	98.6776	119.8914	137.1718	162.7317	217.4271	226.9089	259.0452	292.8932	309.1441	387.6232	391.888	432.8643	453.0144	568.7607	627.6455	694.509	767.7067	789.9744	875.2298	937.5439	968.4512	1005.6624	1040.4218	1049.1774	1078.3441	1102.5089	1165.0001	1178.2947	1191.8873	1249.0185	1319.2543	1320.0153	1367.4894	1377.8229	1402.3931	1412.1954	1416.3932	1421.4821	1477.9653	1485.5197	1499.2079	1501.3885	1503.4983	1509.7542	1512.067	2340.9559	3000.47	3037.418	3042.6305	3044.7658	3058.584	3072.8693	3092.7279	3095.5445	3111.7941	3112.606	3115.2327	3119.3694	3793.0873
CCC(CC)(CO)C#N	CCC(CC)(CO)C#N	
InChI=1S/C7H13NO/c1-3-7(4-2,5-8)6-9/h9H,3-4,6H2,1-2H3	InChI=1S/C7H13NO/c1-3-7(4-2,5-8)6-9/h9H,3-4,6H2,1-2H3
