18
gdb 47157	2.45066	1.87841	1.13357	2.9771	79.79	-0.2466	0.0007	0.2473	1065.2779	0.149471	-401.948455	-401.940862	-401.939917	-401.980828	29.447	
N	-0.0690752347	 1.325526612	-0.1749263908	-0.52057
C	 0.03324572	 0.0871496237	 0.0691721831	 0.381145
O	 1.2309018429	-0.4883875952	 0.3820122841	-0.259341
C	 1.3338079021	-1.8846488588	 0.7438593587	-0.112136
C	 0.1311381376	-2.4047917651	 1.4925869237	-0.284476
C	-1.0358893978	-1.926681547	 1.0941563747	 0.363214
C	-2.4781262543	-1.7807115111	 1.5261826187	-0.333471
C	-2.4980355338	-0.4229705416	 0.7378150965	-0.225064
C	-1.1548317023	-0.8360680943	 0.0576683187	-0.16077
H	 0.8445396075	 1.7772386437	-0.0959291943	 0.21633
H	 1.5187349565	-2.4615640632	-0.1738488928	 0.12062
H	 2.2391783301	-1.9447468104	 1.3535541749	 0.126273
H	 0.2750880025	-3.0842472262	 2.3258987578	 0.101911
H	-3.1361340224	-2.5301966748	 1.0728275049	 0.118008
H	-2.6791932953	-1.7509340355	 2.6000018826	 0.118649
H	-3.3474184498	-0.2502375683	 0.0761567974	 0.109205
H	-2.3631592221	 0.444935188	 1.3841405853	 0.130836
H	-1.3088815867	-1.2213588561	-0.9584803232	 0.109637
72.6601	123.8464	225.3116	242.2485	336.6867	454.2382	486.0415	502.7849	587.5596	688.4475	717.895	737.331	799.0406	838.493	892.5469	904.6691	920.5165	954.5334	987.9184	1022.8216	1054.6605	1064.9607	1096.3921	1115.941	1152.7621	1195.5255	1206.7715	1237.2408	1254.7001	1258.0416	1276.3521	1320.1955	1334.3907	1417.9649	1469.9501	1491.6836	1502.6727	1746.5206	1776.0156	2998.6519	3023.718	3045.4431	3089.0161	3090.0309	3099.772	3149.5343	3185.176	3460.6448
N=C1OCC=C2CCC12	[NH][C]1OCC=C2CC[C@@H]12	
InChI=1S/C7H9NO/c8-7-6-2-1-5(6)3-4-9-7/h3,6,8H,1-2,4H2	InChI=1S/C7H9NO/c8-7-6-2-1-5(6)3-4-9-7/h3,6,8H,1-2,4H2/t6-/m1/s1
