17
gdb 72683	2.35224	1.50316	1.45396	2.5344	75.17	-0.2388	0.0146	0.2534	1023.7069	0.133826	-421.755152	-421.746658	-421.745713	-421.788176	32.568	
O	 0.1561015964	 1.4029769229	-0.0805547867	-0.457511
C	 0.0435443673	 0.0256378256	-0.014315469	 0.292213
C	 0.6599679936	-0.8665480685	-1.1185198167	-0.296927
C	-0.6261264385	-1.7491730288	-1.1436347315	-0.277409
C	-1.2934125442	-0.8386169871	-0.0726414516	 0.190581
O	-1.0393570078	-1.3278775962	 1.2657515973	-0.321634
C	 0.1534628212	-0.5216389759	 1.4121296085	-0.112217
C	-2.6171456345	-0.325586518	-0.2900669537	 0.24086
C	-3.7059600735	 0.1377297133	-0.5082564138	-0.40571
H	 0.0245238007	 1.6852621442	-0.9920906456	 0.286261
H	 0.8037540966	-0.3129105419	-2.0519395277	 0.099638
H	 1.6029691353	-1.358745826	-0.8668741641	 0.110528
H	-1.1428636388	-1.7519386151	-2.104854921	 0.114184
H	-0.5089243123	-2.7747812783	-0.790951184	 0.121087
H	 1.0392398603	-1.1235769292	 1.6458925654	 0.102172
H	 0.0219425756	 0.2588332513	 2.1700832318	 0.118707
H	-4.6740057976	 0.5369587678	-0.6855228376	 0.195178
75.0757	110.0136	176.8312	249.2616	313.6031	348.1042	371.1472	392.7588	511.6076	547.8062	588.2569	606.4258	660.1573	667.9712	697.1266	746.3832	895.9373	913.3201	938.4711	957.0333	1004.0073	1039.9845	1069.8727	1104.6784	1120.258	1156.8441	1205.5424	1227.8408	1239.8051	1280.1644	1303.7018	1337.9779	1408.9415	1463.2136	1484.422	1516.2376	2228.5369	3024.2973	3049.1818	3077.1498	3079.9743	3101.1482	3142.0122	3500.4421	3809.4173
OC12CCC1(OC2)C#C	O[C@]12CC[C@]1(OC2)C#C	
InChI=1S/C7H8O2/c1-2-7-4-3-6(7,8)5-9-7/h1,8H,3-5H2	InChI=1S/C7H8O2/c1-2-7-4-3-6(7,8)5-9-7/h1,8H,3-5H2/t6-,7+/m0/s1
