21
gdb 86673	2.45934	1.28046	0.99195	3.0062	83.57	-0.2434	-0.0231	0.2203	1271.4539	0.181183	-387.079429	-387.07018	-387.069236	-387.114112	34.693	
C	 0.1724442034	 1.6029214602	-0.0446634325	-0.41158
C	 0.047898494	 0.0901605221	 0.0513888708	-0.033757
C	 0.9440812571	-0.7789868751	-0.8777456675	-0.264779
C	 1.2865172208	-1.7220377026	 0.3196827833	-0.146525
C	 2.7440061396	-2.031419296	 0.5186050932	 0.157866
O	 3.1974296422	-3.1152750226	 0.7863604258	-0.256534
C	 0.6718290117	-0.6492190199	 1.2505572189	 0.335389
C	 1.3481204815	-0.0186001791	 2.4408716136	-0.327744
C	 0.1018321459	-0.8523063861	 2.6198697672	-0.319932
H	 1.2158023655	 1.9213852889	 0.0543297317	 0.115692
H	-0.1985726933	 1.9627709936	-1.0105878897	 0.117924
H	-0.4078218659	 2.1060971897	 0.7372625429	 0.116204
H	-1.0041581608	-0.1997406571	-0.0575376162	 0.075806
H	 0.471793725	-1.2500865886	-1.7415506932	 0.109991
H	 1.8272577555	-0.2276832373	-1.2192655866	 0.103639
H	 0.7194663397	-2.656358759	 0.3187550904	 0.088622
H	 3.4115283199	-1.1439493636	 0.4034623066	 0.067285
H	 2.2900410556	-0.4326216811	 2.7856732519	 0.121663
H	 1.2680559407	 1.0566807638	 2.5619019269	 0.116213
H	-0.825578338	-0.3407317906	 2.8596950743	 0.113475
H	 0.2027333299	-1.8315462192	 3.0771992783	 0.121082
47.0247	55.3914	196.819	217.8676	227.2265	246.4524	314.0283	375.0847	412.8691	433.1436	503.2144	550.4767	705.1921	777.4116	827.6179	866.0451	888.7775	904.9727	924.1675	945.9932	975.208	1026.6452	1052.0331	1066.4181	1083.821	1091.8181	1121.1617	1158.0089	1180.2805	1191.2772	1220.2664	1243.8041	1265.091	1284.3577	1309.981	1352.1865	1380.1638	1410.6082	1429.0795	1465.0841	1481.6029	1493.7869	1498.7552	1504.7335	1824.9332	2844.7811	3025.3694	3028.086	3046.1451	3080.8572	3090.602	3098.3411	3117.1402	3121.0431	3130.0279	3200.5983	3216.4182
CC1CC(C=O)C11CC1	C[C@H]1C[C@@H](C=O)C21CC2	
InChI=1S/C8H12O/c1-6-4-7(5-9)8(6)2-3-8/h5-7H,2-4H2,1H3	InChI=1S/C8H12O/c1-6-4-7(5-9)8(6)2-3-8/h5-7H,2-4H2,1H3/t6-,7-/m0/s1
