16
gdb 84972	2.93051	1.46661	1.02402	5.1833	75.52	-0.2577	-0.0842	0.1736	1130.239	0.12457	-437.920227	-437.912148	-437.911204	-437.95373	29.827	
C	-0.0261417035	 1.4752385828	-0.1022783813	-0.393732
C	-0.11035837	-0.0357891582	 0.1386831096	 0.076995
O	 0.1378197427	-0.6703981093	-1.1152302053	-0.255254
C	 0.8883371758	-1.792419739	-1.2463983906	 0.288532
N	 0.8700028864	-2.4004579871	-2.3540522846	-0.469277
C	 1.7632445115	-2.2369575653	-0.0795320191	 0.279185
O	 2.4942999067	-3.1973888375	-0.214431121	-0.32387
C	 1.6569122796	-1.4725166884	 1.1630096215	-0.163857
C	 0.7740888845	-0.4743329975	 1.2587305258	-0.069411
H	 0.9969799957	 1.7643171341	-0.3569326303	 0.137937
H	-0.6838494863	 1.7472915032	-0.9304028631	 0.147281
H	-0.3384110428	 2.0237859691	 0.7909653258	 0.123929
H	-1.1485171546	-0.2791208079	 0.4208753291	 0.119147
H	 1.5229557435	-3.1845344158	-2.2832322115	 0.246785
H	 2.2899940558	-1.7795132674	 1.9885844283	 0.127294
H	 0.647659405	 0.0739661442	 2.1893244668	 0.128317
39.7637	82.6348	225.1021	247.6596	322.4446	368.6306	410.7132	459.3425	493.5928	549.2439	575.7998	686.4174	743.5073	806.1257	863.0943	876.5157	932.7251	956.8998	1015.7015	1035.0941	1089.9371	1130.5526	1138.2572	1205.0187	1245.1263	1328.9977	1342.0366	1400.9934	1410.2045	1417.5361	1485.259	1497.1056	1692.3434	1718.5717	1777.5192	2965.6505	3049.8913	3127.2898	3140.0865	3161.9823	3198.4439	3466.1447
CC1OC(=N)C(=O)C=C1	C[C@H]1O[C]([NH])C(=O)C=C1	
InChI=1S/C6H7NO2/c1-4-2-3-5(8)6(7)9-4/h2-4,7H,1H3	InChI=1S/C6H7NO2/c1-4-2-3-5(8)6(7)9-4/h2-4,7H,1H3/t4-/m1/s1
