18
gdb 31527	3.20226	1.09293	0.85267	1.6426	76.3	-0.1858	0.0405	0.2263	1363.5145	0.148616	-435.311318	-435.301861	-435.300917	-435.346464	34.374	
C	 0.0342941799	 1.5515542145	 0.100977239	-0.363919
C	 0.0722902499	 0.0220657759	-0.0260940463	-0.2934
C	 0.7857886596	-0.4391175318	-1.2587784579	 0.347096
N	 0.5668550987	 0.0046607797	-2.489799529	-0.385822
C	 1.4173710188	-0.696896159	-3.2899739535	 0.293122
O	 1.4673712948	-0.4971642148	-4.6296624237	-0.446405
C	 2.1777024524	-1.5879436355	-2.5734303925	 0.1349
N	 3.1816211818	-2.5286854502	-2.8750042345	-0.619615
N	 1.7455875666	-1.3949009257	-1.2612995175	-0.30135
H	 1.0434980484	 1.9631460027	 0.1985246291	 0.117955
H	-0.4209932054	 1.9914938922	-0.7893156696	 0.143791
H	-0.5468033738	 1.8540041642	 0.9772801572	 0.107939
H	 0.5551579589	-0.4210874402	 0.8530594978	 0.095033
H	-0.9560356866	-0.3629966249	-0.0379570333	 0.122037
H	 0.8140190638	 0.1865275303	-4.8199860475	 0.296852
H	 3.9915430891	-2.0922305609	-3.3038631153	 0.245804
H	 2.8509268197	-3.2394380324	-3.5197407017	 0.245955
H	 2.1075433634	-1.9013184142	-0.4700811407	 0.260027
22.3632	128.0521	138.7523	199.0137	239.6946	263.9233	280.9492	332.0673	368.7622	398.6309	530.1833	540.1321	619.8824	668.6423	697.427	740.1858	785.3474	793.9926	842.0476	971.0266	1051.4634	1076.4546	1090.781	1150.6549	1207.7578	1216.1668	1262.2179	1290.3683	1339.8846	1376.0586	1406.8163	1457.8045	1468.8705	1487.385	1495.8181	1506.9682	1554.6632	1661.5884	1695.6728	3016.764	3043.2475	3056.051	3111.6728	3131.6037	3495.7304	3554.8024	3660.1747	3806.5389
CCC1=NC(O)=C(N)N1	CCc1nc(O)c(N)[nH]1	
InChI=1S/C5H9N3O/c1-2-3-7-4(6)5(9)8-3/h9H,2,6H2,1H3,(H,7,8)	InChI=1S/C5H9N3O/c1-2-3-7-4(6)5(9)8-3/h9H,2,6H2,1H3,(H,7,8)
