17
gdb 52259	4.26969	0.93589	0.81241	2.0998	70.89	-0.256	0.0097	0.2657	1371.3758	0.136737	-455.148715	-455.140225	-455.139281	-455.183426	29.652	
N	-0.4943948118	 1.1119631777	 0.1080158212	-0.439003
C	-0.6362797582	-0.0939996428	 0.4457256901	 0.137023
O	-0.4929209296	-1.0681911573	-0.4814483392	-0.18364
C	-0.7707019901	-2.3999762188	-0.0794697125	-0.105091
C	-2.2304649071	-2.7779717396	-0.2878173989	 0.085006
C	-2.5477457609	-4.2551607284	 0.0731420581	-0.206122
N	-3.4794581505	-4.1808397423	 1.2115044647	-0.254626
C	-3.6760510462	-2.9475768298	 1.4150177102	 0.120047
O	-3.0611366172	-2.0219997241	 0.6360567294	-0.231219
H	-0.6089832087	 1.71478652	 0.9200031032	 0.230158
H	-0.8606083518	-0.4760162408	 1.4492278202	 0.090416
H	-0.1422156531	-3.0445711019	-0.7021091536	 0.129875
H	-0.4930424769	-2.563117077	 0.9711458332	 0.117015
H	-2.5384159054	-2.4996875227	-1.2989198677	 0.115459
H	-3.0131842964	-4.7983848829	-0.7546080227	 0.128637
H	-1.6493849247	-4.8133299741	 0.3631186313	 0.118856
H	-4.3182200914	-2.5291807352	 2.1819693728	 0.147208
53.4614	68.4951	89.3261	128.5142	219.6168	353.6713	356.1623	431.9195	533.711	644.3326	746.1322	815.3974	829.4764	881.5229	919.5973	962.6382	969.6408	981.0316	1034.9979	1041.7336	1061.9169	1117.2346	1125.5001	1153.2061	1212.1184	1256.1585	1300.2629	1320.4902	1324.5294	1337.1134	1382.8968	1406.8542	1424.6915	1486.1286	1502.6026	1712.479	1747.5147	3015.4125	3035.4033	3044.6214	3072.293	3085.209	3095.0885	3219.5487	3520.0826
N=COCC1CN=CO1	[NH][CH]OC[C@H]1CN=CO1	
InChI=1S/C5H8N2O2/c6-3-8-2-5-1-7-4-9-5/h3-6H,1-2H2	InChI=1S/C5H8N2O2/c6-3-8-2-5-1-7-4-9-5/h3-6H,1-2H2/t5-/m1/s1
