16
gdb 31192	2.06597	1.60425	0.95369	4.0404	78.33	-0.2418	-0.0246	0.2172	1204.4814	0.125078	-400.806644	-400.798335	-400.797391	-400.840328	30.038	
C	-0.0054424405	 1.5939383106	 0.2140812952	-0.377251
C	-0.0373171215	 0.0898111974	-0.1116894187	-0.307188
C	-1.4142004624	-0.4693368957	-0.172522726	 0.294297
C	-2.1552291202	-1.0276248155	-1.1851075553	 0.066309
C	-3.4363898997	-1.3724798326	-0.620554874	-0.288732
C	-3.3741807981	-0.9993802795	 0.6772850971	-0.007561
O	-2.1551503788	-0.4511847285	 0.9598772843	-0.17505
C	-1.7215178904	-1.2175638555	-2.5193756704	 0.196527
N	-1.3647043075	-1.3719776966	-3.6107636905	-0.351461
H	 1.0277192458	 1.9478376717	 0.2664254591	 0.124466
H	-0.5269419952	 2.171668933	-0.5543724756	 0.131942
H	-0.4852113428	 1.7949024116	 1.1756947301	 0.134008
H	 0.4420387317	-0.1012390934	-1.0762234169	 0.141352
H	 0.537454138	-0.4596866952	 0.6445402921	 0.129801
H	-4.2650702437	-1.833054103	-1.1327134665	 0.138241
H	-4.0666627847	-1.047528919	 1.5005145361	 0.150301
49.8818	131.9979	152.2454	178.1193	215.2281	327.5088	379.3736	521.0843	541.8119	590.7079	634.6932	679.1319	728.4065	759.964	793.1199	838.8168	909.5078	972.6195	1029.4639	1065.4142	1083.1528	1139.1013	1168.9736	1248.1437	1275.5217	1311.4452	1352.6286	1405.5121	1430.4989	1474.6773	1496.7762	1506.253	1554.5622	1623.0733	2345.2976	3032.241	3047.0761	3092.4482	3121.8843	3127.0295	3271.4953	3296.2112
CCC1=C(C=CO1)C#N	CCc1c(cco1)C#N	
InChI=1S/C7H7NO/c1-2-7-6(5-8)3-4-9-7/h3-4H,2H2,1H3	InChI=1S/C7H7NO/c1-2-7-6(5-8)3-4-9-7/h3-4H,2H2,1H3
