19
gdb 68252	2.36734	1.49972	1.43439	1.607	82.02	-0.2506	0.0503	0.301	1055.2563	0.157188	-385.805939	-385.797021	-385.796077	-385.838838	35.052	
C	-0.156611514	 1.5354609444	 0.015346885	-0.484802
C	-0.001236243	 0.0090278785	 0.0251069666	 0.152722
C	-1.3165364871	-0.5868375714	-0.187484591	 0.253007
C	-2.4283961509	-1.0061166751	-0.3759266498	-0.449041
C	 1.2059941648	-0.6765166056	-0.7335330217	-0.082635
C	 2.1665140466	-0.12405171	 0.3560437365	-0.317646
C	 0.9115040071	-0.6733436798	 1.108378312	 0.374851
O	 0.6144019756	-0.6092923468	 2.4537078663	-0.471548
C	 1.0030589609	-1.9231124547	 0.1762052475	-0.307385
H	 0.7859634282	 2.0671903779	 0.148070222	 0.118218
H	-0.6003401398	 1.8585483656	-0.9309152494	 0.126752
H	-0.833512641	 1.8405666426	 0.818394612	 0.138313
H	-3.4048142505	-1.3918066019	-0.5350661569	 0.186461
H	 1.3624305044	-0.6748327257	-1.8096167782	 0.086723
H	 3.0870332776	-0.6963446731	 0.4970572662	 0.088618
H	 2.3665879326	 0.9454693522	 0.3847707837	 0.099198
H	 1.259509307	-1.1356004978	 2.938371537	 0.285113
H	 0.0928633696	-2.5037413554	 0.0316574095	 0.119519
H	 1.8829560718	-2.5578155938	 0.3091488227	 0.083561
119.93	154.6956	173.1132	192.276	215.868	335.0161	361.6081	380.8743	502.7931	517.3053	539.9108	600.7693	618.0229	635.1511	665.7135	677.6898	749.3068	816.4451	906.2372	931.6229	944.4786	957.6752	1005.1327	1043.5626	1054.6771	1109.8417	1119.127	1129.982	1166.9581	1196.1793	1199.3882	1220.3162	1238.4128	1294.6075	1364.7087	1409.0853	1484.7425	1488.3357	1506.5347	1545.2118	2224.511	3051.0662	3064.1576	3073.1306	3113.9863	3133.5595	3146.4359	3151.2511	3154.144	3502.3033	3809.5535
CC1(C#C)C2CC1(O)C2	C[C@@]1(C#C)[C@H]2C[C@]1(O)C2	
InChI=1S/C8H10O/c1-3-7(2)6-4-8(7,9)5-6/h1,6,9H,4-5H2,2H3	InChI=1S/C8H10O/c1-3-7(2)6-4-8(7,9)5-6/h1,6,9H,4-5H2,2H3/t6-,7-,8-/m1/s1
