17
gdb 97509	2.5354	0.93693	0.72335	3.2778	80.1	-0.2579	-0.057	0.2009	1567.0429	0.13325	-421.79108	-421.781325	-421.780381	-421.827996	33.134	
C	-0.6430194614	 1.4089871083	-0.8894294932	-0.368202
C	-0.2531941554	-0.037748447	-0.5367685589	-0.325541
C	 0.8651386259	-0.5444067256	-1.3185446352	 0.076897
C	 1.7988303823	-0.9476225171	-1.9699772633	 0.045938
C	 2.9151196173	-1.472580908	-2.7231082682	 0.206167
O	 3.3955743307	-2.5686529998	-2.5187790028	-0.29151
C	 3.4700673338	-0.5903647884	-3.8084184404	-0.00533
C	 2.5686168796	 0.1411574993	-4.722310137	-0.186292
O	 3.2707656747	 0.8176805385	-3.6923356677	-0.216812
H	 0.1971814349	 2.0883732621	-0.7258935036	 0.140049
H	-0.941740194	 1.486909743	-1.9380291724	 0.131211
H	-1.4803706875	 1.7359823061	-0.2667284463	 0.122135
H	 0.0049635868	-0.1084353382	 0.5277430711	 0.14702
H	-1.1131537869	-0.7051013786	-0.6789559389	 0.14407
H	 4.4462922308	-0.9098727983	-4.167884373	 0.121078
H	 2.9072806912	 0.3363858847	-5.7385095236	 0.130058
H	 1.4921593571	 0.0654444289	-4.5813190267	 0.129064
22.8516	57.3897	73.1402	128.5722	171.7383	226.1407	263.2276	282.1997	409.598	437.578	500.9851	613.1398	648.1926	751.3247	779.669	872.1694	880.4665	923.1755	965.6297	1060.8653	1085.7204	1097.9698	1099.6316	1155.1979	1165.0443	1252.565	1278.2732	1282.2178	1347.6863	1385.2209	1412.5309	1461.7404	1495.6475	1503.4796	1513.6656	1754.4929	2331.4986	3024.3056	3049.6359	3052.7432	3090.1039	3124.2766	3130.3469	3143.0606	3184.6816
CCC#CC(=O)C1CO1	CCC#CC(=O)[C@H]1CO1	
InChI=1S/C7H8O2/c1-2-3-4-6(8)7-5-9-7/h7H,2,5H2,1H3	InChI=1S/C7H8O2/c1-2-3-4-6(8)7-5-9-7/h7H,2,5H2,1H3/t7-/m1/s1
