21
gdb 89820	2.95836	1.20793	0.9508	2.2513	86.75	-0.2304	0.0163	0.2466	1306.6212	0.181632	-387.097075	-387.08798	-387.087036	-387.130974	34.748	
C	 0.1341211463	 1.5991657312	-0.0562702001	-0.401445
C	 0.0185841812	 0.0724192649	 0.0450067152	-0.076767
C	 0.5972401629	-0.6764223548	-1.1862352854	-0.333127
C	 1.3923254467	-1.8498005981	-0.6115540576	 0.442801
C	 1.4460205437	-3.1941175555	-1.2093451859	-0.25089
O	 2.5531547146	-2.3000998843	-1.3322903909	-0.284675
C	 1.5056648262	-1.5887658717	 0.843386262	-0.269186
C	 0.7678604297	-0.541421936	 1.222216529	 0.326223
C	 0.6062258359	-0.0191866068	 2.6154207591	-0.49423
H	 1.1828666418	 1.9068598517	-0.1337477737	 0.119466
H	-0.3901646314	 1.9677197949	-0.9439814322	 0.116743
H	-0.3020304902	 2.0975128739	 0.8152900075	 0.113925
H	-1.0487397776	-0.1721013808	 0.1563041768	 0.079412
H	-0.1753980566	-0.9901481774	-1.8927926395	 0.102406
H	 1.2935436157	-0.0294810743	-1.730790488	 0.118765
H	 1.6147158103	-4.0668409929	-0.5777180306	 0.106592
H	 0.8970823515	-3.3930535237	-2.1303146132	 0.107309
H	 2.1090043073	-2.2107212364	 1.4954359283	 0.094028
H	 1.1627321562	-0.6227707675	 3.3370436325	 0.12536
H	 0.9558307841	 1.0168226808	 2.6996336614	 0.132113
H	-0.4498333581	-0.0158426873	 2.9155001152	 0.125178
50.1245	131.1291	179.2677	228.054	257.8542	261.07	327.6951	334.7848	434.8276	465.8726	484.6187	554.7284	604.6301	757.7807	798.2575	833.1803	868.3918	910.532	918.1685	929.88	978.83	1010.8418	1028.7997	1067.9994	1110.8413	1120.5223	1130.7325	1148.9798	1182.0193	1207.1641	1251.054	1276.7436	1301.3796	1330.1783	1350.7095	1406.0766	1411.7165	1421.3255	1478.0409	1485.2197	1486.5246	1498.4903	1502.206	1527.2752	1713.3321	2983.3231	3018.6943	3029.5975	3049.2423	3066.0411	3066.3138	3096.0674	3099.9319	3102.7175	3113.4845	3150.5368	3193.5584
CC1CC2(CO2)C=C1C	C[C@H]1C[C@]2(CO2)C=C1C	
InChI=1S/C8H12O/c1-6-3-8(5-9-8)4-7(6)2/h3,7H,4-5H2,1-2H3	InChI=1S/C8H12O/c1-6-3-8(5-9-8)4-7(6)2/h3,7H,4-5H2,1-2H3/t7-,8-/m0/s1
