18
gdb 89364	2.68886	1.53771	1.25939	4.4839	72.34	-0.2143	-0.0112	0.2031	1052.7233	0.14699	-439.056363	-439.048082	-439.047138	-439.08875	32.043	
C	 0.0558133321	 1.4479002895	-0.0897860283	-0.324819
N	-0.0145013903	 0.0104293401	 0.1037890068	-0.064875
C	-1.3804298523	-0.5262251896	 0.3484593729	-0.238607
C	-1.1331687326	-1.3765040784	 1.6226638533	 0.268953
O	-2.1477208736	-2.1692045176	 2.1139518972	-0.470956
C	-0.2677216556	-0.3635496942	 2.4780059405	-0.321397
C	 0.7219595533	-0.5053639873	 1.2784044753	-0.138664
C	 0.2421831886	-1.977590353	 1.2687808732	 0.43286
O	 0.7296614394	-3.0635089746	 1.2175441783	-0.315858
H	 1.09523554	 1.7407818478	-0.268258865	 0.125802
H	-0.5248244699	 1.71893063	-0.9773674222	 0.126398
H	-0.3271537168	 2.0432423411	 0.7593090315	 0.092981
H	-2.1123312013	 0.2712082341	 0.5472427841	 0.089094
H	-1.7425905941	-1.1314590331	-0.4897999683	 0.121933
H	-2.964390487	-1.6587712262	 2.1410576842	 0.288425
H	-0.7056206256	 0.6227284535	 2.6453569497	 0.10717
H	 0.0960322074	-0.7994904202	 3.41010144	 0.126798
H	 1.7696166783	-0.2210966619	 1.3209167268	 0.094762
139.3415	170.3872	215.4548	227.8049	256.2881	280.2996	367.9427	419.2874	450.4621	521.3242	548.6868	680.9952	705.6836	782.1903	793.2404	833.8052	874.1121	955.5984	988.9662	1007.0962	1047.3121	1080.5989	1090.0247	1134.1795	1148.7056	1162.0154	1185.7067	1209.1746	1214.8758	1283.1206	1309.2185	1329.1885	1406.2603	1455.2982	1478.8675	1490.5061	1501.7689	1522.0953	1918.3329	2938.8636	2985.7761	3058.8476	3061.9649	3073.369	3104.6327	3142.4703	3166.7726	3802.0967
CN1CC2(O)CC1C2=O	CN1C[C@]2(O)C[C@H]1C2=O	
InChI=1S/C6H9NO2/c1-7-3-6(9)2-4(7)5(6)8/h4,9H,2-3H2,1H3	InChI=1S/C6H9NO2/c1-7-3-6(9)2-4(7)5(6)8/h4,9H,2-3H2,1H3/t4-,6+/m0/s1
