23
gdb 113797	2.93271	1.14048	0.94431	1.2571	86.67	-0.2411	0.0848	0.3259	1363.7555	0.204242	-388.251568	-388.241639	-388.240695	-388.286482	37.453	
C	 0.5281221749	 1.3720209976	-0.08633777	-0.233835
O	-0.132846003	 0.2344650579	-0.6039696	-0.234922
C	 0.746562719	-0.6904588155	-1.1629871664	 0.10882
C	 1.4659217946	-1.6902327241	-0.2889681163	-0.336902
C	 0.3631936716	-2.1382806068	-1.2392050024	-0.113576
C	-0.9144229044	-2.7676347404	-0.7476183979	 0.356122
C	-0.8268651158	-4.2846380311	-0.7064047293	-0.450543
C	-1.7834306538	-2.1136299848	 0.3013748747	-0.309837
C	-2.2461575852	-2.1642387991	-1.1367907554	-0.29755
H	 1.2274111367	 1.1027575835	 0.7177553341	 0.111414
H	 1.0897522783	 1.9012996577	-0.8710666186	 0.107022
H	-0.2401760558	 2.0393022022	 0.310803926	 0.127553
H	 1.2988200543	-0.290372917	-2.0162268591	 0.08267
H	 2.5005315263	-1.9415594323	-0.496588711	 0.106693
H	 1.1986697818	-1.6765669223	 0.7628405415	 0.120174
H	 0.7197882062	-2.615609625	-2.1509149381	 0.082718
H	-0.0367300792	-4.6170768577	-0.0230382789	 0.114292
H	-1.7705034064	-4.7235483395	-0.3675544733	 0.10896
H	-0.6043135801	-4.6982775472	-1.6976250846	 0.108985
H	-2.2661520119	-2.7720124006	 1.0166998984	 0.096448
H	-1.4918662229	-1.1487170678	 0.691313303	 0.126182
H	-2.2337013951	-1.2299335203	-1.6860154844	 0.119707
H	-3.0561900501	-2.8365765074	-1.4011712721	 0.099407
49.9621	97.0795	141.6412	193.6438	211.7689	239.8594	269.1434	299.1828	342.5106	373.7038	429.6232	511.057	618.4763	670.2491	777.3188	796.7201	841.86	871.3672	879.6183	931.7364	951.6303	995.9092	1012.673	1043.6989	1052.6309	1064.1439	1086.7205	1089.0225	1110.525	1135.8638	1141.3009	1176.3262	1184.9489	1194.2581	1224.1797	1259.4209	1278.8729	1355.4148	1394.5422	1415.5132	1420.3243	1459.3885	1472.5803	1485.2766	1492.0039	1494.4578	1497.1734	1506.682	1511.2862	2983.9911	3018.971	3037.0321	3070.1798	3077.7196	3098.8174	3110.5827	3119.8894	3128.1176	3129.5158	3139.1037	3217.8604	3219.0888	3247.6267
COC1CC1C1(C)CC1	CO[C@H]1C[C@H]1C1(C)CC1	
InChI=1S/C8H14O/c1-8(3-4-8)6-5-7(6)9-2/h6-7H,3-5H2,1-2H3	InChI=1S/C8H14O/c1-8(3-4-8)6-5-7(6)9-2/h6-7H,3-5H2,1-2H3/t6-,7+/m1/s1
