21
gdb 74269	2.57599	1.41926	1.19483	1.759	84.28	-0.234	0.0104	0.2444	1172.9689	0.180983	-387.093479	-387.084342	-387.083398	-387.126591	35.483	
C	-0.060256772	 1.5271485237	 0.0888148135	-0.500463
C	-0.0245353876	 0.0342798316	 0.0060009663	 0.307978
C	 0.0467297444	-0.7364735407	-1.0849756664	-0.211437
C	 0.0469464614	-2.2308405473	-0.7886993504	 0.223294
C	-1.2451974727	-2.8933201082	-1.2993274227	-0.425154
C	 1.2866476182	-2.9315593913	-1.3715113238	-0.421962
C	 0.0583680113	-2.2344624907	 0.7473204234	 0.017176
O	 1.2002589798	-1.6233169069	 1.3474306478	-0.26713
C	-0.0173005163	-0.8457103953	 1.2206313501	-0.072016
H	 0.8082611451	 1.9148254596	 0.635695798	 0.135152
H	-0.069344062	 1.9831627254	-0.9047154706	 0.124934
H	-0.9504784224	 1.8746548684	 0.6283931464	 0.125516
H	 0.1307199573	-0.3638900884	-2.1020767313	 0.088756
H	-1.319199616	-2.8128440677	-2.3887681151	 0.115569
H	-1.2659207695	-3.9585919156	-1.0403482244	 0.111714
H	-2.1311288491	-2.4177839571	-0.8668822395	 0.11654
H	 2.1976420019	-2.5104555875	-0.9402427929	 0.135931
H	 1.2657628474	-4.005721285	-1.1569736357	 0.110316
H	 1.3278843775	-2.8102745853	-2.4592814858	 0.108676
H	-0.3597937327	-3.0796106256	 1.290739854	 0.08585
H	-0.4642548139	-0.540798856	 2.1631738991	 0.09076
118.3729	175.8837	193.2688	223.1237	231.0602	255.9809	288.3042	318.0776	377.8365	429.1338	502.7253	569.8722	605.2777	623.9426	825.5498	837.9694	865.0334	870.242	912.4165	918.969	947.9466	954.2423	1010.2333	1026.1458	1044.9037	1066.0645	1102.8364	1161.0569	1179.1009	1231.8363	1261.5368	1265.8364	1279.11	1357.7222	1391.6713	1404.9584	1414.7658	1422.9564	1479.6362	1485.0978	1486.6317	1489.142	1500.5155	1509.715	1703.7972	3018.8893	3023.9844	3032.2019	3065.9787	3090.8703	3095.3733	3104.3987	3112.1483	3126.574	3128.9966	3152.8129	3169.4725
CC1=CC(C)(C)C2OC12	CC1=CC(C)(C)[C@H]2O[C@@H]12	
InChI=1S/C8H12O/c1-5-4-8(2,3)7-6(5)9-7/h4,6-7H,1-3H3	InChI=1S/C8H12O/c1-5-4-8(2,3)7-6(5)9-7/h4,6-7H,1-3H3/t6-,7-/m0/s1
