20
gdb 14981	4.10605	1.36668	1.09194	1.478	76.33	-0.233	0.0344	0.2675	1108.5736	0.178691	-349.020239	-349.012185	-349.01124	-349.052548	30.791	
O	-0.0248032881	 1.4351421944	 0.0797641336	-0.425244
C	 0.0300008745	 0.0178011875	-0.0100619995	-0.097022
C	-1.394532432	-0.5240125224	 0.0223575804	 0.036751
C	-1.4204281421	-2.0511323209	-0.1371470658	-0.20863
C	-2.8605187253	-2.5748974803	-0.2385881556	-0.259736
C	-3.7656538298	-1.9398445328	 0.7852892895	-0.039697
C	-3.4337097953	-0.8536548802	 1.4820046429	-0.064087
C	-2.1335052525	-0.1132171829	 1.3073106544	-0.232599
H	 0.8754841467	 1.7709795866	 0.1067465326	 0.286061
H	 0.5247134409	-0.3002119229	-0.9424045487	 0.081248
H	 0.6045783246	-0.4107725878	 0.828904847	 0.080079
H	-1.9290617009	-0.0813453896	-0.830060421	 0.081135
H	-0.8455094622	-2.3563753165	-1.0195213449	 0.087367
H	-0.9302910781	-2.5095007372	 0.7326526071	 0.09575
H	-3.2590446011	-2.3894254404	-1.2475447391	 0.105607
H	-2.8718287599	-3.6659711617	-0.119614236	 0.098915
H	-4.7330773281	-2.4103485149	 0.9460406249	 0.079064
H	-4.126318226	-0.4572121158	 2.2213680141	 0.079417
H	-1.4851504661	-0.2935798871	 2.1799664786	 0.096923
H	-2.3098197192	 0.9674028949	 1.3000077154	 0.118698
104.1053	136.3153	192.4257	218.3159	261.9482	372.752	391.9431	428.1717	497.0395	514.4441	671.549	740.1469	815.0214	877.6773	899.3861	935.539	958.9523	983.3714	1005.6143	1048.7741	1072.0226	1087.9016	1097.9359	1122.9136	1160.2017	1196.5735	1222.5905	1256.5041	1270.0687	1289.2416	1324.0048	1331.1961	1367.5733	1381.347	1397.7298	1418.4339	1458.2141	1475.0106	1479.6863	1495.3723	1520.5853	1726.188	2952.2013	2979.8765	2980.3403	2994.3391	3008.2198	3018.7474	3037.0358	3058.6748	3069.0597	3137.321	3161.6274	3834.1273
OCC1CCC=CC1	OC[C@H]1CCC=CC1	
InChI=1S/C7H12O/c8-6-7-4-2-1-3-5-7/h1-2,7-8H,3-6H2	InChI=1S/C7H12O/c8-6-7-4-2-1-3-5-7/h1-2,7-8H,3-6H2/t7-/m1/s1
