13
gdb 11764	4.93778	1.81947	1.64237	4.6716	62.28	-0.2632	-0.0272	0.236	774.7228	0.096316	-361.417912	-361.411901	-361.410957	-361.447904	23.658	
N	 0.0653453054	-1.1591182866	-0.0164482633	-0.330499
C	 0.0429311609	-0.0043587485	-0.0010648619	 0.170344
C	-0.0275797695	 1.4416394798	 0.0312054422	 0.289211
C	-0.3334241092	 2.2674765015	 1.3268554274	-0.248102
C	 0.4312638064	 3.2822205325	 0.4261070545	-0.002388
O	 1.2506298632	 2.1527797554	-0.0426492738	-0.301164
C	-0.5492459613	 3.4604288707	-0.7489086723	-0.078821
C	-0.8731244977	 2.1977731525	-1.0241320317	-0.11704
H	-1.3765456855	 2.4602078854	 1.5790764917	 0.118131
H	 0.2542426754	 1.9276790824	 2.1813488418	 0.132114
H	 1.0028314411	 4.124353968	 0.8080738106	 0.101806
H	-0.8718513785	 4.386377178	-1.2000583349	 0.128489
H	-1.5265069106	 1.7536293788	-1.7585878003	 0.137918
162.6657	175.0159	449.9861	496.636	525.3409	531.3698	563.28	621.0336	710.1597	754.7069	830.7719	863.6996	886.561	907.4857	938.2916	973.3708	989.8924	1051.0505	1060.3871	1116.3518	1207.6429	1231.7403	1251.177	1282.3179	1305.7693	1485.3653	1616.7757	2367.1717	3080.8897	3159.3835	3163.0469	3245.4338	3273.2761
N#CC12CC(O1)C=C2	N#C[C@@]12C[C@@H](O1)C=C2	
InChI=1S/C6H5NO/c7-4-6-2-1-5(3-6)8-6/h1-2,5H,3H2	InChI=1S/C6H5NO/c7-4-6-2-1-5(3-6)8-6/h1-2,5H,3H2/t5-,6+/m0/s1
