18
gdb 72448	2.51584	2.19744	1.5783	2.4064	69.94	-0.238	0.0756	0.3136	899.1186	0.149508	-439.061174	-439.054252	-439.053307	-439.092029	28.698	
C	 0.0416091914	 1.4747786288	 0.0219504669	-0.488264
C	-0.0324726502	-0.0255869618	 0.0251219009	 0.516091
O	 0.6446594428	-0.5875768544	-1.1184518947	-0.310987
C	 1.0454231753	-1.9026962567	-0.6969329332	-0.0874
C	 0.4625371284	-1.9682498519	 0.7376805938	 0.006937
O	 0.6386317883	-0.6045067999	 1.1283521222	-0.261714
C	-1.056374756	-2.0745799113	 0.5567454212	-0.050301
N	-1.8182166022	-1.13854656	 1.4090359305	-0.340299
C	-1.4035130129	-0.7272201669	 0.0517171848	-0.119686
H	 1.0844993123	 1.7971623858	 0.0571436495	 0.136224
H	-0.419073185	 1.8682847089	-0.8876106645	 0.128364
H	-0.4903953088	 1.8704808158	 0.8902603998	 0.14163
H	 0.6286822061	-2.6616457056	-1.368665465	 0.099812
H	 2.1385999544	-1.9741423884	-0.6989671399	 0.107924
H	 0.9537715543	-2.6370931795	 1.4423564038	 0.093249
H	-1.5077703328	-2.9845190499	 0.1787221195	 0.097357
H	-2.7987461868	-1.410806734	 1.370687897	 0.232954
H	-2.1246279486	-0.547619259	-0.7363122427	 0.098109
192.7255	219.5259	287.1148	295.5956	369.604	415.0648	510.8237	614.8931	658.1507	679.4298	802.5134	806.3758	837.6885	870.4799	875.6681	887.6948	904.5606	923.3247	951.4959	1009.2978	1026.8868	1046.7295	1079.872	1099.6975	1135.6174	1146.1802	1184.7292	1193.9621	1238.8078	1268.5625	1284.1994	1332.4344	1346.3024	1359.8813	1406.2218	1434.5253	1481.5239	1486.5972	1516.6841	3030.4388	3057.6063	3075.2122	3135.4083	3139.0572	3141.7375	3179.9014	3194.2913	3491.1727
CC12OCC(O1)C1NC21	C[C@@]12OC[C@@H](O1)[C@H]1N[C@@H]21	
InChI=1S/C6H9NO2/c1-6-5-4(7-5)3(9-6)2-8-6/h3-5,7H,2H2,1H3	InChI=1S/C6H9NO2/c1-6-5-4(7-5)3(9-6)2-8-6/h3-5,7H,2H2,1H3/t3-,4-,5-,6-/m1/s1
