17
gdb 85013	2.41444	1.53302	1.01905	3.7302	68.95	-0.2459	-0.0537	0.1922	1149.9078	0.133927	-459.006896	-458.998053	-458.997109	-459.040843	32.423	
C	-0.2930259305	 1.5391008283	-0.1160314189	-0.398941
C	 0.0585742901	 0.062221814	 0.0514400019	-0.104897
C	 0.613143725	-0.6426555754	-1.2198146362	-0.347762
C	 1.8439342813	-1.4164715405	-0.7620019284	 0.351211
O	 2.7521735291	-1.8337140154	-1.4365014825	-0.3182
C	 1.8454984047	-1.4894624546	 0.758563472	-0.032891
O	 3.0830255491	-1.7402283333	 1.3247502772	-0.421167
C	 1.1470894461	-0.1689910578	 1.1203674823	 0.345443
O	 1.4167842866	 0.5622701513	 2.0310134699	-0.289537
H	 0.5678537017	 2.1045224144	-0.4869162667	 0.128644
H	-1.1173663863	 1.6672067519	-0.823290136	 0.119488
H	-0.5838168717	 1.9710541256	 0.8441400177	 0.144566
H	-0.8312028766	-0.47834605	 0.4018768112	 0.113895
H	-0.1097096526	-1.3223168615	-1.6822229125	 0.144354
H	 0.9167427251	 0.0685655878	-1.9949085409	 0.147151
H	 1.1009674053	-2.2718894653	 1.0211262568	 0.119633
H	 3.6621765235	-1.9958823796	 0.5902411731	 0.29901
54.353	88.3735	191.5949	222.591	254.3404	276.7332	335.0531	368.1973	431.7924	484.8569	557.43	571.5152	611.9489	670.5256	789.2569	865.351	898.7662	906.3069	982.1711	1009.4977	1071.4541	1123.5718	1146.7228	1165.5521	1195.2551	1239.6357	1262.4191	1293.1096	1340.8247	1366.295	1394.015	1412.7031	1449.5707	1493.5249	1495.4205	1827.5226	1877.8105	2886.8377	3017.9324	3044.4666	3057.098	3098.6811	3112.7208	3132.5979	3710.9292
CC1CC(=O)C(O)C1=O	C[C@H]1CC(=O)[C@@H](O)C1=O	
InChI=1S/C6H8O3/c1-3-2-4(7)6(9)5(3)8/h3,6,9H,2H2,1H3	InChI=1S/C6H8O3/c1-3-2-4(7)6(9)5(3)8/h3,6,9H,2H2,1H3/t3-,6+/m0/s1
