15
gdb 21051	3.95041	1.76166	1.23112	2.9791	64.6	-0.1994	0.0426	0.242	936.8626	0.12022	-396.000048	-395.992147	-395.991203	-396.032083	28.988	
C	 0.0600704109	 1.375263256	-0.0730369075	-0.331818
N	 0.0679717489	-0.062878729	 0.0186732832	 0.000826
N	-0.0154471555	-0.8271400789	-1.1177983852	-0.39348
C	 0.0242359518	-2.0699810278	-0.6686212029	 0.451525
O	-0.0214331572	-3.1248457697	-1.5108982798	-0.433564
C	 0.1065069832	-2.1529615774	 0.7361314945	-0.419383
C	 0.1238929618	-0.8268024712	 1.1372014393	 0.403608
N	 0.2607095087	-0.2440660568	 2.4018423633	-0.60862
H	 0.6079594695	 1.7903943892	 0.7766048117	 0.145229
H	 0.5572000254	 1.6646834246	-1.0002100895	 0.153933
H	-0.9579826945	 1.7858298462	-0.0805687268	 0.127555
H	-0.0779423555	-2.7627603053	-2.4041959282	 0.299203
H	 0.1359737742	-3.0340881714	 1.3542554469	 0.097949
H	 0.3276105411	-0.9479936113	 3.1248226466	 0.255607
H	-0.490999723	 0.3951529829	 2.6344173843	 0.251431
109.7549	144.6667	204.8701	219.9588	288.8253	321.8955	385.1072	422.4748	535.2463	615.5034	637.4233	667.6847	702.1895	735.2828	787.4249	839.4746	1016.6854	1068.1369	1107.9218	1150.0673	1182.9638	1225.4828	1273.1159	1322.8379	1438.8943	1474.5347	1492.9026	1509.5273	1563.5117	1582.1481	1605.6022	1661.2064	3017.6825	3098.6933	3145.7059	3273.8742	3525.3876	3624.0192	3791.9313
CN1N=C(O)C=C1N	Cn1nc(O)cc1N	
InChI=1S/C4H7N3O/c1-7-3(5)2-4(8)6-7/h2H,5H2,1H3,(H,6,8)	InChI=1S/C4H7N3O/c1-7-3(5)2-4(8)6-7/h2H,5H2,1H3,(H,6,8)
