15
gdb 19955	4.04209	1.60863	1.36215	2.1161	61.53	-0.2487	-0.0393	0.2094	909.2892	0.118634	-399.757983	-399.750742	-399.749798	-399.790098	26.094	
O	-0.1826846193	 0.0092326384	 0.0551238757	-0.265021
C	-0.0393686149	 1.1909108036	 0.074402834	 0.350155
C	-0.9328190213	 2.4172422518	 0.2968313848	-0.195393
O	 0.2245807081	 3.270764453	 0.1383688547	-0.293193
C	 1.1358835923	 2.1712618575	-0.1155837593	-0.030586
C	 2.2820510544	 2.0986215726	 0.8653201401	-0.008872
C	 2.9490153759	 3.3452724994	 1.308820359	-0.238951
N	 2.1028965465	 2.5730173285	 2.2408356534	-0.316978
H	-1.6925702144	 2.5852459233	-0.4761686351	 0.140724
H	-1.3933590403	 2.4993938074	 1.2887980539	 0.140048
H	 1.5124590218	 2.1845993887	-1.1488848146	 0.11697
H	 2.8647845838	 1.1845562851	 0.7713423856	 0.112756
H	 4.0109535406	 3.3405260081	 1.5357767406	 0.123939
H	 2.5589767765	 4.2847314418	 0.9278349909	 0.128327
H	 1.2021825904	 3.0455870208	 2.3019826163	 0.236075
77.1076	116.7205	139.2226	251.7538	325.0776	424.9582	551.1509	593.6175	720.2662	740.1877	846.6397	849.6457	918.6464	946.4865	993.0285	1001.7642	1021.3397	1077.4894	1083.302	1125.1703	1142.3902	1143.3513	1182.8964	1230.0363	1280.6384	1289.5748	1308.0228	1329.149	1404.3526	1479.2446	1506.7632	1929.9239	3005.359	3025.5833	3075.3348	3115.8804	3135.4932	3205.475	3481.1983
O=C1COC1C1CN1	O=C1CO[C@H]1[C@H]1CN1	
InChI=1S/C5H7NO2/c7-4-2-8-5(4)3-1-6-3/h3,5-6H,1-2H2	InChI=1S/C5H7NO2/c7-4-2-8-5(4)3-1-6-3/h3,5-6H,1-2H2/t3-,5+/m1/s1
