18
gdb 88129	2.54909	1.50038	1.11102	1.1567	73.74	-0.2466	-0.0349	0.2117	1126.3672	0.147739	-439.083592	-439.075211	-439.074267	-439.116671	31.202	
C	-0.127707884	 1.5091671948	-0.0903230826	-0.40157
C	-0.0252244101	 0.0132340094	 0.0582124743	-0.034529
N	 1.2842326656	-0.6000940137	-0.1562533017	-0.375574
C	 0.7172819942	-0.629156255	 1.1935431021	 0.216507
C	 1.3602644549	 0.0548381098	 2.3825202542	-0.179408
O	 0.6883455365	-0.4956963783	 3.5216605596	-0.254838
C	 0.3428882635	-1.8411678003	 3.2434144564	-0.183405
C	 0.1936273716	-1.9272320089	 1.7279052733	 0.305906
O	-0.2110952514	-2.8551395036	 1.0700918732	-0.331758
H	 0.7958879975	 1.9996842406	 0.2267406018	 0.131465
H	-0.3016538685	 1.7717386994	-1.1390348819	 0.131283
H	-0.960280216	 1.9058550634	 0.4997956183	 0.126772
H	-0.8870990059	-0.5555343062	-0.2887905914	 0.108168
H	 1.1665734341	-1.5289055815	-0.5645257647	 0.245318
H	 2.4394225958	-0.1613197024	 2.4144154829	 0.108354
H	 1.2211094486	 1.1374006615	 2.412838423	 0.121705
H	 1.1260582569	-2.5483854551	 3.566122695	 0.123429
H	-0.5836152633	-2.0970962041	 3.7654653583	 0.142175
95.6413	146.0451	162.1946	192.8508	222.9786	278.8369	372.0688	450.9316	482.4779	558.6576	588.9329	655.4389	742.0447	788.1612	856.3123	943.7402	970.7066	989.5887	1032.2447	1044.057	1079.3244	1088.9137	1106.6009	1127.5819	1168.2953	1202.7871	1240.489	1255.1762	1272.6754	1317.8827	1354.1211	1389.955	1407.7792	1461.8641	1476.1812	1487.7214	1498.9736	1515.724	1835.053	2967.1137	2988.8318	3039.2292	3089.0187	3103.1996	3105.7091	3114.8523	3132.243	3448.8982
CC1NC11COCC1=O	C[C@H]1N[C@]21COCC2=O	
InChI=1S/C6H9NO2/c1-4-6(7-4)3-9-2-5(6)8/h4,7H,2-3H2,1H3	InChI=1S/C6H9NO2/c1-4-6(7-4)3-9-2-5(6)8/h4,7H,2-3H2,1H3/t4-,6+/m1/s1
