22
gdb 71886	2.75187	1.67654	1.2814	1.6149	85.56	-0.2015	0.0791	0.2806	1087.806	0.194818	-367.164445	-367.156259	-367.155315	-367.196363	33.483	
C	 0.0165976681	 1.5658056182	 0.0766659965	-0.501275
C	-0.0450381788	 0.057917668	 0.0019247898	 0.349294
C	 0.3368496713	-0.6522393172	-1.3166727967	-0.217236
N	-0.7799355256	-1.6477415491	-1.190791537	-0.144067
C	-0.4044700675	-2.7130259735	-0.2017134205	-0.217236
C	-0.7152163506	-1.8050993905	 1.0098833712	 0.349294
C	-1.4071852433	-2.3921460509	 2.2180499457	-0.501275
C	 0.4224469508	-0.7675961393	 1.2354359945	-0.331
C	-1.3431104241	-0.8215624878	-0.0382061068	-0.100644
H	 1.0570268101	 1.9144343566	 0.0857931301	 0.117041
H	-0.4801936341	 2.0292581198	-0.7831201557	 0.116104
H	-0.4638008644	 1.942678666	 0.9866062314	 0.112733
H	 0.1632581181	-0.0192393937	-2.1945724099	 0.09894
H	 1.3393097702	-1.0900986519	-1.3960372161	 0.091604
H	-1.1069946935	-3.5504053942	-0.2840866871	 0.09894
H	 0.615347588	-3.1026339355	-0.3071810852	 0.091604
H	-0.7299928685	-3.0532702807	 2.7734268149	 0.117041
H	-1.7417102914	-1.6099030389	 2.9086988484	 0.112732
H	-2.2833926007	-2.9832910608	 1.9288607896	 0.116105
H	 1.4549684243	-1.1346845476	 1.2434522175	 0.087185
H	 0.2463348511	-0.2045632114	 2.1589992103	 0.09364
H	-2.3756288496	-0.4717698857	-0.0781902149	 0.060476
186.8263	207.9374	211.2743	224.8012	268.401	337.5178	383.8378	384.6403	454.6949	545.9473	574.7967	674.1839	761.3867	816.2949	841.6081	848.4444	902.5619	916.428	940.6612	955.0566	962.216	977.8621	1000.893	1037.7278	1056.7451	1098.6605	1162.0596	1168.9743	1188.8187	1198.6623	1212.8161	1219.8652	1250.5553	1262.6494	1269.2357	1274.8044	1348.9489	1361.2344	1411.9196	1414.7601	1479.8679	1488.4507	1491.9685	1492.9385	1493.9322	1496.6749	1511.5351	3013.7087	3015.9461	3018.0375	3019.2518	3027.9686	3064.3256	3067.1577	3076.5549	3079.3975	3080.3191	3089.6283	3090.6112	3100.2807
CC12CN3CC(C)(C1)C23	C[C@@]12CN3C[C@@](C)(C1)[C@@H]23	
InChI=1S/C8H13N/c1-7-3-8(2)5-9(4-7)6(7)8/h6H,3-5H2,1-2H3	InChI=1S/C8H13N/c1-7-3-8(2)5-9(4-7)6(7)8/h6H,3-5H2,1-2H3/t6-,7+,8-
