14
gdb 28180	5.27422	1.29956	1.04855	0.435	70.04	-0.2002	0.0196	0.2198	1063.6022	0.103053	-436.706223	-436.699271	-436.698327	-436.73757	26.929	
N	-0.0001169422	 1.3542451568	 0.0159685091	-0.592843
C	-0.1132088678	-0.0289953292	 0.0141687431	 0.299806
C	-1.2015956823	-0.8460512382	 0.0896131974	-0.3902
C	-0.7084849167	-2.1984944125	 0.0425051208	 0.223568
C	 0.6421932895	-2.0484428249	-0.057563113	 0.406116
O	 1.3377170436	-3.186124333	-0.1181020412	-0.211867
C	 0.3486411672	-4.1656178473	-0.0513953912	-0.019099
C	-0.898191704	-3.6263008291	 0.046123324	-0.350131
O	 1.0842586954	-0.7935349347	-0.0812518703	-0.237774
H	 0.5364361154	 1.7056727133	 0.8028781539	 0.24891
H	 0.4126181285	 1.7179548223	-0.8372537747	 0.248911
H	-2.2162913309	-0.4898462672	 0.168348753	 0.117874
H	 0.71901512	-5.175361778	-0.0867440096	 0.139187
H	-1.8165048858	-4.1886457682	 0.1107493489	 0.117542
121.6547	144.6065	295.1514	315.433	355.8682	523.9477	573.7402	590.0443	606.4755	674.755	748.45	749.1085	766.2374	818.9254	822.7233	829.7755	866.9647	938.5789	1019.3153	1126.4786	1144.4159	1182.7709	1210.3894	1211.7697	1297.9273	1439.1314	1513.4199	1546.9887	1596.21	1649.8734	1679.4762	3256.5571	3265.5707	3298.6588	3494.2036	3559.3178
NC1=CC2=C(OC=C2)O1	Nc1cc2c(occ2)o1	
InChI=1S/C6H5NO2/c7-5-3-4-1-2-8-6(4)9-5/h1-3H,7H2	InChI=1S/C6H5NO2/c7-5-3-4-1-2-8-6(4)9-5/h1-3H,7H2
