16
gdb 43439	2.839	1.53308	1.08803	1.9733	72.01	-0.2584	-0.0401	0.2183	1083.8224	0.123717	-437.912003	-437.904192	-437.903248	-437.944838	29.6	
N	-0.0195203991	 1.1935676983	 0.4498755639	-0.529422
C	-0.0184193813	 0.0152091739	 0.0060087704	 0.387528
C	-1.2352037684	-0.8564797334	-0.1969319635	-0.435194
C	-0.6732707915	-2.1601941332	-0.745774666	 0.342216
O	-1.2715802838	-3.1573746439	-1.0598764646	-0.321754
C	 0.8060987652	-1.9682425639	-0.8259735023	 0.302466
C	 1.7611883343	-3.0982295287	-0.5424466059	-0.30808
C	 1.6167609494	-2.5704053549	-1.9438615696	-0.308074
O	 1.1179319932	-0.6670562662	-0.3680375917	-0.272066
H	 0.9309631401	 1.5653297511	 0.4919508149	 0.226567
H	-1.7747608908	-1.0225517928	 0.739797798	 0.173138
H	-1.9434867529	-0.4057721444	-0.8979030916	 0.173147
H	 2.6564596476	-2.8342640474	 0.0084860142	 0.13942
H	 1.316274344	-4.0572597992	-0.3012265405	 0.145341
H	 1.0723061019	-3.1656532177	-2.6685158204	 0.145344
H	 2.4147832421	-1.9510257676	-2.3366018052	 0.139422
70.5225	86.0235	220.1408	227.983	357.5049	407.0451	480.901	495.5409	574.6598	595.4081	601.7198	728.8311	774.0602	851.7459	852.5161	893.0688	919.6102	952.3214	975.6852	985.2126	1059.467	1066.4476	1083.3573	1122.8897	1141.5913	1201.6294	1235.8983	1269.113	1328.6847	1352.7792	1419.8556	1440.3025	1474.5755	1786.8988	1850.91	3074.2273	3113.3082	3140.4885	3140.706	3231.6294	3244.9998	3475.0682
N=C1CC(=O)C2(CC2)O1	[NH][C]1CC(=O)C2(CC2)O1	
InChI=1S/C6H7NO2/c7-5-3-4(8)6(9-5)1-2-6/h7H,1-3H2	InChI=1S/C6H7NO2/c7-5-3-4(8)6(9-5)1-2-6/h7H,1-3H2
