16
gdb 28581	4.02974	1.10303	0.92374	1.8171	73.6	-0.2331	-0.0072	0.2259	1250.7566	0.124366	-437.901812	-437.89376	-437.892815	-437.935228	28.838	
C	 0.2252212556	 1.3894598822	 0.1706838964	-0.490694
C	 0.0536381428	-0.0713471844	-0.0346288651	 0.384217
N	-0.3997878257	-0.694439152	-1.0772888789	-0.298771
C	-0.359137603	-2.0367192241	-0.7259597958	-0.20738
C	 0.1295637668	-2.1614107275	 0.5326731653	 0.349834
O	 0.4024990728	-0.8969568477	 0.9884638912	-0.207836
C	 0.4019810815	-3.3050823315	 1.4052475065	-0.056151
C	 1.3225112868	-3.2366202675	 2.5517861767	-0.179211
O	-0.0878418413	-3.2472380273	 2.7562057202	-0.230178
H	 1.2696208956	 1.6379658547	 0.3857726727	 0.14601
H	-0.0875784663	 1.9116670538	-0.7335375645	 0.159281
H	-0.3777332103	 1.7406337092	 1.0144410748	 0.150336
H	-0.6832982049	-2.8124383376	-1.401737575	 0.126365
H	 0.2535808547	-4.2661525887	 0.9150509887	 0.107407
H	 1.8532858724	-4.1356640293	 2.862999716	 0.119312
H	 1.8189982624	-2.2943293022	 2.7743813706	 0.127459
72.617	107.4937	133.4549	151.0549	258.0072	337.7574	433.5319	451.2542	629.89	689.5937	701.7304	731.1903	826.3048	861.9167	901.4819	964.6609	982.4064	1010.2376	1040.4662	1066.4363	1095.0536	1157.4287	1161.7899	1165.5001	1237.7784	1250.4689	1283.7006	1362.7768	1409.7845	1418.871	1475.4505	1480.5977	1517.9722	1613.0361	1648.886	3045.0431	3086.1663	3099.6343	3127.5657	3159.5416	3179.6161	3262.3456
CC1=NC=C(O1)C1CO1	Cc1ncc(o1)[C@H]1CO1	
InChI=1S/C6H7NO2/c1-4-7-2-5(9-4)6-3-8-6/h2,6H,3H2,1H3	InChI=1S/C6H7NO2/c1-4-7-2-5(9-4)6-3-8-6/h2,6H,3H2,1H3/t6-/m1/s1
