18
gdb 115702	2.33947	1.2783	1.00038	3.832	67.51	-0.2486	0.0144	0.263	1214.614	0.148268	-476.228234	-476.21931	-476.218365	-476.262678	32.137	
O	-0.099777403	 1.4776910448	-0.1416423741	-0.430337
C	-0.0633931918	 0.1183691787	 0.2655894995	-0.109194
C	-1.4523781095	-0.4461011233	 0.0243734672	 0.015395
C	-1.848922836	-0.6254346803	-1.4640495858	-0.170308
N	-1.6981314765	-2.1030300608	-1.3255741841	-0.342957
H	-2.4729460874	-2.6558144935	-1.6750977422	 0.234319
H	-0.0684504053	-3.0669873604	-1.0667782965	 0.302134
C	-1.6037691277	-1.997781539	 0.1528912709	-0.158017
C	-0.4142069614	-2.767435293	 0.7287357973	 0.432069
O	 0.3633452214	-3.3141914872	-0.2166406776	-0.36983
O	-0.1864062275	-2.8469931743	 1.9068689058	-0.34837
H	 0.7679188135	 1.8620341521	 0.0134269002	 0.291423
H	 0.6803452471	-0.4535019764	-0.3118743441	 0.097696
H	 0.1952275741	 0.0144044756	 1.3292380662	 0.118182
H	-2.1730127874	 0.1198916083	 0.6158370355	 0.098144
H	-2.873314101	-0.3057739995	-1.6806983254	 0.109361
H	-1.1756418816	-0.1791486975	-2.2009777052	 0.124215
H	-2.5011138101	-2.2867676943	 0.7081081824	 0.106076
59.8544	114.194	117.2617	130.5862	239.9988	259.2153	300.5412	381.7444	453.6418	492.2282	612.0797	690.528	768.866	824.5014	845.4352	887.8447	917.1304	954.7104	983.8103	1016.9852	1028.1537	1080.5773	1096.7857	1132.8422	1161.4726	1187.3468	1228.3783	1244.1393	1273.7901	1279.5068	1304.4844	1340.5481	1365.6871	1378.2314	1437.3351	1466.2435	1517.0044	1529.5488	1865.9568	2977.7772	3020.4765	3043.4776	3065.0276	3093.3698	3108.5186	3436.6923	3535.2481	3832.3988
OCC1C[NH2+]C1C([O-])=O	OC[C@H]1CN[C@H]1C(=O)O	
InChI=1S/C5H9NO3/c7-2-3-1-6-4(3)5(8)9/h3-4,6-7H,1-2H2,(H,8,9)	InChI=1S/C5H9NO3/c7-2-3-1-6-4(3)5(8)9/h3-4,6-7H,1-2H2,(H,8,9)/t3-,4-/m1/s1
