19
gdb 35864	2.10409	1.71024	1.18136	2.8076	78.71	-0.2567	0.0253	0.2821	1102.563	0.161548	-382.075087	-382.066894	-382.06595	-382.108852	31.171	
N	 0.0829443041	-1.2404759163	 0.4672166621	-0.337148
C	 0.0599490472	-0.1014453649	 0.268628261	 0.28506
C	 0.0371455071	 1.3421411777	 0.0177584972	-0.244838
C	-0.677739292	 2.1008770536	 1.1653864137	-0.219494
C	 0.4286758752	 2.2726493175	 2.2174426928	-0.216926
C	 1.6828690236	 2.6136771987	 1.3874198298	-0.265639
C	 1.465814939	 1.9437198561	 0.0227123783	 0.351719
C	 2.5466727052	 1.3469874082	-0.7956420966	-0.288749
N	 1.9722350243	 2.6556459336	-1.1589314103	-0.359085
H	-0.4560570667	 1.5009049699	-0.9471073479	 0.115823
H	-0.9956664184	 3.076898001	 0.782967651	 0.113098
H	-1.5615615525	 1.5755817234	 1.5325263695	 0.121527
H	 0.1891298242	 3.0382929747	 2.9590665147	 0.107231
H	 0.570812263	 1.3287480226	 2.7551284186	 0.124061
H	 1.7692082384	 3.6932757433	 1.2302595596	 0.120726
H	 2.6058617305	 2.2795581043	 1.8680126219	 0.111635
H	 3.5717271325	 1.3807163921	-0.4365637036	 0.124655
H	 2.3104228664	 0.4789758755	-1.4063455623	 0.126529
H	 1.3387618489	 2.5492962091	-1.9482070095	 0.229813
24.4705	141.7515	146.8758	264.0444	307.337	352.5491	403.6929	462.7747	517.5945	548.2519	628.3331	783.797	824.28	845.5912	849.037	906.4526	921.2814	931.9727	958.0351	975.2173	1002.035	1033.0711	1079.665	1098.9825	1134.2932	1163.972	1174.831	1222.6408	1257.9001	1264.1466	1293.2491	1309.6081	1320.0066	1342.8781	1354.908	1394.4031	1486.4377	1490.1468	1506.0514	1514.8838	2350.0329	3045.86	3051.2441	3056.8315	3058.7407	3097.7261	3105.4736	3109.608	3118.6713	3191.165	3488.6098
N#CC1CCCC11CN1	N#C[C@H]1CCC[C@]21CN2	
InChI=1S/C7H10N2/c8-4-6-2-1-3-7(6)5-9-7/h6,9H,1-3,5H2	InChI=1S/C7H10N2/c8-4-6-2-1-3-7(6)5-9-7/h6,9H,1-3,5H2/t6-,7-/m1/s1
