21
gdb 95782	2.23089	1.61215	1.00156	2.6137	79.01	-0.2287	-0.0192	0.2095	1228.5491	0.182026	-424.262427	-424.253159	-424.252215	-424.296367	34.822	
C	-0.0264923654	 1.5880712969	-0.0383428412	-0.399164
C	 0.1051126559	 0.0670203454	 0.0055285657	-0.089864
C	 0.7526927497	-0.5311723294	-1.2612317711	-0.207299
C	 0.9791772908	-2.0315008512	-1.0985252665	-0.082579
O	 1.7870700817	-2.3053127203	 0.0322942477	-0.25556
C	 1.1811972779	-1.9225502111	 1.264976186	 0.032159
C	 2.1171797982	-2.3112167713	 2.3945113272	-0.398345
C	 0.8531404394	-0.4171510149	 1.2483064956	 0.377193
O	 1.1500872382	 0.3144612543	 2.1635388541	-0.310173
H	 0.957029565	 2.0601373223	-0.1248524084	 0.126105
H	-0.6313051202	 1.8961993525	-0.8967012447	 0.10799
H	-0.4911757162	 1.9680863113	 0.8738134328	 0.132186
H	-0.8992094707	-0.3804558601	 0.0925528568	 0.095795
H	 0.1212633192	-0.333062094	-2.1355112619	 0.100605
H	 1.7191392862	-0.0443619192	-1.4405241875	 0.113707
H	 0.01193518	-2.5574891993	-1.0120947248	 0.085286
H	 1.510790433	-2.4474494546	-1.9592572226	 0.11124
H	 0.2171237921	-2.4574117553	 1.3727460919	 0.076836
H	 3.0709661686	-1.7879053475	 2.2924743473	 0.132966
H	 1.6815328457	-2.038096671	 3.3573677704	 0.131821
H	 2.2999143109	-3.3880997035	 2.3708563632	 0.119095
65.6999	128.7825	179.5469	190.4509	232.7112	285.249	309.2406	336.5733	376.9872	412.3848	437.6886	568.3858	577.4477	672.1436	781.3088	854.0834	856.9483	908.8252	977.2401	987.0398	999.5423	1026.9447	1091.5838	1105.3987	1131.05	1155.9747	1172.4924	1191.1797	1218.9624	1279.5109	1318.9222	1338.9447	1351.3874	1366.4144	1384.4777	1407.2946	1408.5615	1412.5222	1478.7008	1481.2674	1490.0979	1491.65	1495.3163	1499.28	1813.5178	2911.8558	2953.0881	2974.1268	3028.0626	3044.5859	3059.0265	3072.6536	3085.8618	3111.0511	3130.8748	3134.6773	3144.4532
CC1CCOC(C)C1=O	C[C@H]1CCO[C@@H](C)C1=O	
InChI=1S/C7H12O2/c1-5-3-4-9-6(2)7(5)8/h5-6H,3-4H2,1-2H3	InChI=1S/C7H12O2/c1-5-3-4-9-6(2)7(5)8/h5-6H,3-4H2,1-2H3/t5-,6-/m0/s1
