19
gdb 70106	2.38951	1.62068	1.23064	0.7578	85.82	-0.2302	0.0143	0.2445	1090.5128	0.158606	-348.720785	-348.712358	-348.711414	-348.753395	33.354	
C	-0.0881066289	 1.4741916698	-0.0167633471	-0.48779
C	 0.0385655216	-0.0281705835	 0.036431124	 0.353378
C	-0.7681246201	-0.8172282593	 1.0325449923	-0.323018
C	 0.7464972774	-0.7694945078	 1.1601012906	-0.128752
C	 1.4589854528	-1.9078477585	 0.5149995592	-0.078636
C	 1.2557470963	-1.9404340494	-0.8019481611	-0.092918
C	 0.4165620393	-0.7568948585	-1.2763412689	-0.277137
C	-0.7309352706	-1.1385797085	-2.0958885593	 0.346626
C	-1.6770991123	-1.4545564208	-2.7673409873	-0.489391
H	 0.8278375345	 1.9396969094	-0.3993981703	 0.115762
H	-0.9143713027	 1.7740969958	-0.6719288139	 0.128234
H	-0.2845666317	 1.890077282	 0.9762700458	 0.11508
H	-1.3489703525	-0.2408122891	 1.7460420222	 0.107349
H	-1.221246261	-1.7544337958	 0.7273804142	 0.120885
H	 1.1892202062	-0.2466881812	 2.0014296035	 0.086056
H	 2.0377753743	-2.633939708	 1.0750090609	 0.100076
H	 1.6037700205	-2.7007252989	-1.4901202617	 0.105648
H	 1.0479061222	-0.0855322474	-1.880066633	 0.105182
H	-2.5122083253	-1.7324590802	-3.3611018603	 0.193367
96.3703	131.3967	207.4771	232.4423	295.4202	351.6532	360.7073	471.06	508.3839	529.378	606.6922	619.7957	630.4427	730.9641	749.8178	784.9877	848.1874	868.5549	917.6642	953.9566	969.8702	1000.1104	1013.1143	1048.3237	1054.4455	1069.5786	1078.2866	1119.6842	1148.5408	1213.5634	1272.602	1277.4043	1310.8691	1361.3556	1400.0752	1421.3819	1480.7532	1488.984	1501.7932	1671.9037	2232.6537	2972.7767	3022.1513	3081.7975	3100.1963	3122.9736	3163.2642	3189.5637	3213.3186	3218.9993	3504.1882
CC12CC1C=CC2C#C	C[C@]12C[C@H]1C=C[C@H]2C#C	
InChI=1S/C9H10/c1-3-7-4-5-8-6-9(7,8)2/h1,4-5,7-8H,6H2,2H3	InChI=1S/C9H10/c1-3-7-4-5-8-6-9(7,8)2/h1,4-5,7-8H,6H2,2H3/t7-,8-,9-/m1/s1
