21
gdb 73091	2.4194	1.70793	1.32503	1.3437	83.37	-0.2339	0.0283	0.2623	1061.9502	0.184398	-387.100665	-387.092681	-387.091736	-387.132596	32.77	
O	-0.045295351	 1.3813978897	 0.1376341308	-0.489858
C	 0.0315112591	-0.0251935596	-0.0061990093	 0.410721
C	 0.2145998584	-0.58973979	-1.4461367171	-0.294067
C	-0.9524544444	-1.5778605362	-1.1709166778	-0.245928
C	-1.3706848533	-0.6821291607	 0.0427279126	-0.040683
C	-1.7868964605	-1.2897553578	 1.3427242751	-0.074958
C	-1.0230858249	-1.2315021439	 2.4348966098	-0.059552
C	 0.3438952398	-0.5907827227	 2.4378097005	-0.253999
C	 0.9701816256	-0.6399374647	 1.0360697819	-0.262483
H	 0.8517811719	 1.7337370479	 0.1245781947	 0.270478
H	-0.0610205698	 0.169997403	-2.1819433245	 0.104072
H	 1.1895091556	-1.0099628391	-1.7086140689	 0.088787
H	-1.6893596988	-1.7123803868	-1.9647581627	 0.099751
H	-0.602447315	-2.5613149779	-0.8472277633	 0.10339
H	-2.1081816201	 0.0559153732	-0.2927837595	 0.089803
H	-2.7598077139	-1.7756233746	 1.3806647604	 0.081216
H	-1.3799271296	-1.6557270045	 3.3700748939	 0.082922
H	 0.2683103972	 0.4544830683	 2.7683493138	 0.116387
H	 0.9948929374	-1.0940169109	 3.1615341753	 0.09466
H	 1.1722653781	-1.6847275068	 0.7731221989	 0.101189
H	 1.9370515682	-0.1182649061	 1.0133040054	 0.078151
129.3367	175.5426	235.5879	286.3049	325.0406	343.2981	420.3928	469.3083	496.117	517.2922	614.665	708.6939	718.9659	745.6604	809.4243	855.8298	881.2466	932.2166	943.7784	982.1674	997.1942	1008.1848	1020.5911	1039.8698	1078.9178	1088.2176	1131.2569	1150.5275	1186.7947	1200.5473	1232.982	1243.5501	1257.2431	1264.1479	1289.8226	1332.9335	1353.8181	1380.0535	1394.1593	1417.7939	1472.4642	1478.7853	1482.4644	1499.6589	1711.1466	3008.8156	3015.7851	3042.9119	3053.9526	3054.7951	3065.1589	3068.2518	3107.5237	3125.4295	3138.3021	3164.4642	3792.0542
OC12CCC1C=CCC2	O[C@]12CC[C@H]1C=CCC2	
InChI=1S/C8H12O/c9-8-5-2-1-3-7(8)4-6-8/h1,3,7,9H,2,4-6H2	InChI=1S/C8H12O/c9-8-5-2-1-3-7(8)4-6-8/h1,3,7,9H,2,4-6H2/t7-,8-/m1/s1
