17
gdb 40856	5.10824	1.27467	1.18407	2.6229	71.19	-0.2263	0.0769	0.3032	1045.1493	0.135959	-421.705831	-421.698993	-421.698049	-421.737444	27.081	
C	-0.055065289	 1.404006384	-0.3484647991	-0.07473
C	 1.4092714003	 1.5992008473	 0.0907644555	-0.376972
C	 1.2525999177	 0.2038915903	 0.7196192416	 0.497077
O	-0.1102577776	 0.1011369736	 0.2718497063	-0.329505
C	 2.1824081392	-0.998400814	 0.5138186132	-0.20127
C	 3.0265121202	-0.6173744108	 1.772112516	 0.09396
O	 2.9359471083	-1.9360054786	 2.3874803413	-0.333499
C	 1.6242265274	-1.7041896427	 1.7938613629	 0.100098
C	 1.5779304037	-0.1853730851	 2.1670518804	-0.201264
H	-0.7822139251	 2.096129885	 0.0917509113	 0.10572
H	-0.2261714911	 1.3481714849	-1.4297464717	 0.105724
H	 2.1388186282	 1.6655704286	-0.7188049406	 0.115227
H	 1.584236149	 2.4117988884	 0.7986603511	 0.115225
H	 2.5357399321	-1.4745024313	-0.40006921	 0.08638
H	 3.9623586644	-0.0655350038	 1.8429030843	 0.100682
H	 0.8558218366	-2.4680837189	 1.8885725114	 0.110766
H	 1.2522572956	 0.251793723	 3.1102005462	 0.086381
71.5622	144.9026	241.4951	344.0259	442.6547	548.0934	574.4191	745.3794	786.2275	798.293	799.8016	826.8159	867.4779	877.5672	900.4122	910.829	961.963	970.5499	1020.1909	1032.979	1069.8663	1099.8502	1105.7145	1111.3914	1149.6823	1157.1635	1164.2708	1175.5529	1191.3297	1204.99	1236.3164	1255.3313	1328.1115	1349.7082	1365.4403	1486.2328	1532.8088	3023.4388	3063.6012	3073.4808	3123.9874	3126.9918	3128.8286	3136.4937	3152.7983
C1CC2(O1)C1C3OC1C23	C1C[C@@]2(O1)[C@H]1[C@@H]3O[C@H]1[C@H]23	
InChI=1S/C7H8O2/c1-2-8-7(1)3-5-4(7)6(3)9-5/h3-6H,1-2H2	InChI=1S/C7H8O2/c1-2-8-7(1)3-5-4(7)6(3)9-5/h3-6H,1-2H2/t3-,4+,5-,6+,7-
