16
gdb 6076	5.33604	0.92084	0.83379	2.1282	62.23	-0.245	0.0286	0.2736	1324.5324	0.129416	-417.134409	-417.125051	-417.124107	-417.169924	32.361	
N	 0.0037032991	 1.3138705605	-0.1563598429	-0.523813
C	 0.0364363956	-0.0044385921	 0.2026312436	 0.40946
O	 1.0185908096	-0.5140136582	 0.7087701405	-0.360091
C	-1.2523706239	-0.7703932455	-0.0813640752	-0.312579
C	-1.0347526279	-2.2794621815	-0.0907396118	-0.31257
C	-2.317916225	-3.0482808814	 0.2105120759	 0.409421
N	-2.2921610561	-4.3630852567	-0.1618039585	-0.523814
O	-3.2901753661	-2.5437424641	 0.7402362917	-0.360063
H	 0.7705348367	 1.8974889744	 0.1366757294	 0.25947
H	-0.8521314219	 1.7600081207	-0.4381170122	 0.258533
H	-1.9796477566	-0.5356083131	 0.7053149942	 0.157916
H	-1.6991847891	-0.4236367179	-1.0195000542	 0.111107
H	-0.6060530421	-2.6171058104	-1.0405784842	 0.111122
H	-0.2925333727	-2.5217467403	 0.6795437985	 0.157911
H	-1.4416614453	-4.8064420808	-0.4634590633	 0.258526
H	-3.0530910942	-4.9496023938	 0.1407180385	 0.259464
38.5797	51.2651	68.9372	157.7714	258.6842	262.9979	271.2687	352.4217	477.7402	506.4005	514.4567	594.7413	629.6004	636.0781	664.4567	796.7942	848.1785	900.8645	1026.2804	1075.6605	1093.0508	1110.3897	1172.4303	1228.2268	1295.7779	1303.3821	1391.6359	1413.3948	1466.1811	1473.2002	1618.4156	1620.1544	1792.3921	1796.6519	3039.5298	3045.0099	3071.2767	3088.827	3596.491	3596.691	3730.2049	3730.3903
NC(=O)CCC(N)=O	NC(=O)CCC(=O)N	
InChI=1S/C4H8N2O2/c5-3(7)1-2-4(6)8/h1-2H2,(H2,5,7)(H2,6,8)	InChI=1S/C4H8N2O2/c5-3(7)1-2-4(6)8/h1-2H2,(H2,5,7)(H2,6,8)
