19
gdb 96132	2.20648	1.78425	1.22839	2.4678	71.06	-0.2392	0.0661	0.3053	1055.8517	0.159188	-460.141969	-460.133563	-460.132619	-460.174465	33.239	
O	-0.0832747396	 1.4471745641	 0.0358514315	-0.45104
C	 0.0013452239	 0.0232421584	 0.041944881	 0.048274
C	 0.8174865386	-0.5384182031	 1.2115123642	-0.267732
C	 0.571822912	-2.0443119295	 1.3236748905	-0.068671
O	-0.7773924744	-2.3233429983	 1.6651944548	-0.257195
C	-1.7359383603	-1.7331507297	 0.8347075017	 0.046423
C	-2.3073032024	-0.3923774628	 1.2457764369	-0.356219
C	-1.412506102	-0.5087784471	 0.029540835	 0.381575
O	-2.0348325864	-0.4402712462	-1.2244949897	-0.476878
H	 0.79784792	 1.7987281393	-0.1283114559	 0.281958
H	 0.4572800483	-0.3276007981	-0.8977416827	 0.075418
H	 1.8846041736	-0.3401130451	 1.0536987632	 0.091558
H	 0.5247363563	-0.0451829179	 2.1448153031	 0.116444
H	 0.8434341248	-2.5409342051	 0.3774975562	 0.093877
H	 1.1753221117	-2.4871270016	 2.1205729964	 0.111142
H	-2.4073386595	-2.4528434981	 0.3736458047	 0.107445
H	-3.3580561433	-0.2080746847	 1.0536227781	 0.113963
H	-1.9075382727	 0.0564459844	 2.147898637	 0.12157
H	-2.1445858386	 0.4977354712	-1.4227061262	 0.28809
101.7979	193.9489	239.4285	248.3739	286.6741	345.9677	366.6781	395.443	431.7033	470.7619	508.9046	539.3097	667.8231	693.984	795.9578	892.8238	915.7541	922.9875	940.778	993.1935	1016.3047	1041.197	1046.3237	1086.7418	1104.071	1133.8418	1171.3609	1184.324	1234.9911	1260.3305	1275.6977	1299.7441	1335.724	1346.8619	1382.0856	1400.2576	1416.1895	1443.3196	1477.3686	1491.6791	1504.6824	2970.2117	2976.1688	3033.9606	3083.7643	3092.1822	3137.8854	3144.9722	3233.7869	3783.5755	3813.7478
OC1CCOC2CC12O	O[C@H]1CCO[C@H]2C[C@@]12O	
InChI=1S/C6H10O3/c7-4-1-2-9-5-3-6(4,5)8/h4-5,7-8H,1-3H2	InChI=1S/C6H10O3/c7-4-1-2-9-5-3-6(4,5)8/h4-5,7-8H,1-3H2/t4-,5-,6+/m0/s1
