16
gdb 45068	2.45738	1.76472	1.16968	2.0976	73.9	-0.2327	-0.0326	0.2	1034.4605	0.123454	-400.705789	-400.697941	-400.696997	-400.738469	30.053	
O	 0.0090836545	 0.0202702316	-0.3823952864	-0.286086
C	-0.0265446796	 1.1628193527	-0.0273166997	 0.37872
C	-1.2697954604	 1.964176518	 0.3741359752	-0.351364
C	-0.7248089863	 3.2389967726	 0.9746954968	-0.021696
C	 0.227544456	 3.108993688	 2.1051199845	-0.244538
N	 0.7454612315	 3.3563035266	 0.7522200739	-0.095529
C	 1.1996754952	 2.1303340476	 0.0680847042	-0.290166
C	 2.3627613785	 1.5104675171	 0.6786919797	 0.369505
C	 3.3105551271	 0.9859898869	 1.1973303439	-0.449565
H	-1.8625150523	 2.1564303473	-0.528367866	 0.142036
H	-1.8926841426	 1.3708620167	 1.0491455571	 0.146281
H	-1.2846625692	 4.1592808309	 0.8416116357	 0.103269
H	 0.3683659462	 3.9319911873	 2.7986997177	 0.127045
H	 0.3772240079	 2.1226020246	 2.5411431169	 0.127052
H	 1.4403039861	 2.4080487843	-0.9689568337	 0.1413
H	 4.1547707573	 0.5236532478	 1.6462069902	 0.203736
59.0652	132.5301	159.5558	308.5111	376.3908	383.1533	454.3164	498.8967	568.3731	624.3693	632.8569	659.6279	665.9999	759.2203	786.697	836.0648	906.1283	938.8967	976.8638	1040.848	1062.8013	1094.0475	1114.6737	1128.0178	1164.4589	1173.2335	1247.8049	1273.2106	1283.3998	1317.3816	1389.2163	1451.5795	1511.9917	1864.385	2243.4172	2999.8197	3046.5342	3098.3166	3102.6828	3156.7484	3194.2003	3503.5685
O=C1CC2CN2C1C#C	O=C1C[C@H]2CN2[C@H]1C#C	
InChI=1S/C7H7NO/c1-2-6-7(9)3-5-4-8(5)6/h1,5-6H,3-4H2	InChI=1S/C7H7NO/c1-2-6-7(9)3-5-4-8(5)6/h1,5-6H,3-4H2/t5-,6-,8?/m0/s1
