19
gdb 91983	2.38406	1.67645	1.10206	2.2239	82.13	-0.2074	0.0499	0.2572	1125.7811	0.159315	-381.99894	-381.990462	-381.989518	-382.031802	32.743	
C	-0.0526939205	 1.4411042092	 0.036769599	-0.323249
N	-0.074682023	-0.0006597898	 0.118176755	-0.047788
C	-1.3948959209	-0.6213456748	 0.0534520778	-0.157394
C	-1.1746771198	-2.0137712309	 0.6066479926	-0.055994
N	 0.0126143933	-2.6879765372	 0.0394218445	-0.317019
C	 0.1099694145	-2.0005635161	 1.3388137493	-0.063526
C	 0.6691652515	-0.5833748657	 1.242172333	-0.156536
C	 2.117158818	-0.5004917153	 1.053246493	 0.353609
C	 3.31089207	-0.4238367849	 0.9388693325	-0.443778
H	 0.9834076677	 1.791786526	 0.0210707296	 0.132743
H	-0.5336282852	 1.765850104	-0.8916464967	 0.119385
H	-0.572641955	 1.9370511011	 0.8805956717	 0.085022
H	-2.1460362519	-0.1077252489	 0.6855967581	 0.076021
H	-1.7639951607	-0.61130415	-0.9794104696	 0.10944
H	-2.0250099573	-2.6013636525	 0.9344074146	 0.09165
H	-0.0644350482	-3.6883551016	 0.209582139	 0.23162
H	 0.2891083253	-2.567715175	 2.2447729407	 0.096942
H	 0.4241040123	-0.0835817651	 2.2030261571	 0.076518
H	 4.3644792799	-0.3672728625	 0.8194451187	 0.192333
97.0198	138.8683	158.3343	237.0396	308.5403	317.4193	336.6713	396.4249	490.9787	528.7411	616.0559	654.1279	659.2428	675.233	811.0811	862.5882	870.5344	879.8779	960.6222	983.196	1015.5443	1047.7421	1072.7321	1096.9072	1134.4303	1146.0853	1168.7701	1195.0555	1233.0259	1263.2781	1271.7767	1310.4076	1348.465	1366.9194	1391.0449	1432.1469	1458.4093	1488.1852	1503.2256	1512.1778	2238.5524	2870.2592	2905.0315	2913.0076	3040.136	3061.1113	3108.4945	3172.148	3184.6593	3495.2066	3503.5536
CN1CC2NC2C1C#C	CN1C[C@H]2N[C@H]2[C@H]1C#C	
InChI=1S/C7H10N2/c1-3-6-7-5(8-7)4-9(6)2/h1,5-8H,4H2,2H3	InChI=1S/C7H10N2/c1-3-6-7-5(8-7)4-9(6)2/h1,5-8H,4H2,2H3/t5-,6-,7-/m1/s1
