20
gdb 122601	4.26735	0.70496	0.63036	1.8552	78.13	-0.2422	-0.0267	0.2155	1791.2686	0.168922	-440.267448	-440.257566	-440.256622	-440.303727	34.59	
C	 0.0188241873	 1.5738597529	-0.2280654366	-0.385086
C	-0.0715430021	 0.0627615635	-0.1013087063	-0.028004
O	 0.6472364938	-0.5227237195	-1.1696867876	-0.252056
C	 0.6245169701	-1.9322714152	-1.14982895	-0.049098
C	 1.4763687152	-2.4370587348	-2.2971628544	-0.103007
N	 2.9494136734	-2.4400074429	-2.0836023675	-0.320807
C	 3.1021878505	-3.8339844769	-2.5761103323	-0.282967
C	 1.5713614662	-3.9579114219	-2.5243603334	 0.377624
O	 0.7825343446	-4.8515037565	-2.5875179154	-0.285178
H	 1.0620119066	 1.8999522759	-0.1884900841	 0.127178
H	-0.408519051	 1.9058857775	-1.178535532	 0.125658
H	-0.5279277952	 2.0578598789	 0.5866340872	 0.11572
H	 0.3454889136	-0.2713238663	 0.8635097767	 0.089475
H	-1.1242646408	-0.2666419248	-0.1273353604	 0.08678
H	 1.0228015673	-2.3193272407	-0.1986819559	 0.094486
H	-0.4037651978	-2.3143556019	-1.2694520798	 0.098833
H	 1.1541888161	-1.9321331901	-3.2212464797	 0.103441
H	 3.4487497147	-1.7452298619	-2.6247284869	 0.229482
H	 3.4852405033	-3.9460522792	-3.600834753	 0.123046
H	 3.6703455641	-4.498051306	-1.9155763789	 0.134482
41.8696	71.4442	91.0184	128.632	140.0052	201.68	247.8894	311.8331	385.9142	431.8756	508.1631	565.723	651.6423	757.8931	816.594	819.8156	887.0155	925.5159	988.5361	1004.5059	1044.0064	1060.7364	1086.4297	1101.2381	1138.6684	1156.478	1170.345	1190.1794	1212.2615	1259.3939	1275.2896	1295.6766	1346.8385	1368.6896	1388.5389	1406.6283	1447.5055	1476.3568	1483.5508	1498.4469	1503.3521	1533.6875	1913.2337	2953.03	2964.8143	2981.7156	2987.7945	3004.0571	3007.9425	3045.0232	3068.0976	3119.7073	3121.5689	3559.511
CCOCC1NCC1=O	CCOC[C@H]1NCC1=O	
InChI=1S/C6H11NO2/c1-2-9-4-5-6(8)3-7-5/h5,7H,2-4H2,1H3	InChI=1S/C6H11NO2/c1-2-9-4-5-6(8)3-7-5/h5,7H,2-4H2,1H3/t5-/m1/s1
