17
gdb 8116	3.12334	1.96716	1.50998	1.8375	64.81	-0.1971	0.0624	0.2595	880.8602	0.140739	-400.931166	-400.923043	-400.922099	-400.963	30.802	
C	-0.2524591804	 1.4952746367	 0.040107565	-0.327305
N	 0.1105565027	 0.088382857	 0.0220178704	-0.064036
C	 1.1869804823	-0.3795234024	-0.8898871258	-0.237618
C	 1.8557947782	-1.1029684029	 0.2871704811	 0.320447
O	 2.3106440786	-2.4064390246	 0.2378903924	-0.458287
C	 2.2244727713	-0.1309671587	 1.3573586025	 0.013425
O	 2.7800989694	 1.1100042776	 1.0228236311	-0.421518
C	 0.7603463665	-0.5093288743	 1.1795892382	-0.13657
H	 0.6023999998	 2.1803389111	 0.1496808263	 0.099343
H	-0.7753206717	 1.7463954504	-0.8893716338	 0.118833
H	-0.9494563404	 1.6724317822	 0.8664189854	 0.1155
H	 0.8105918	-1.0649322616	-1.6562150385	 0.108694
H	 1.7849888108	 0.4134725116	-1.3541782816	 0.105833
H	 3.2599205294	-2.3888923249	 0.0730060501	 0.289237
H	 2.6766488656	-0.6257783059	 2.220372036	 0.090209
H	 2.5115873233	 1.7476098909	 1.6925136255	 0.288277
H	 0.1770613147	-0.9463057822	 1.9848725255	 0.095535
157.4197	193.4891	208.0463	224.6188	274.3351	298.5761	352.2016	355.8066	407.1039	517.5903	597.8881	662.6191	695.2733	831.7519	878.6015	928.8045	963.6797	982.4868	1045.0307	1060.2995	1113.0725	1133.7598	1161.403	1206.1535	1225.2444	1235.7503	1272.7214	1285.9381	1296.109	1338.6071	1367.2419	1444.9006	1477.2277	1482.6418	1507.1714	1514.6439	2984.2863	3026.5706	3059.1657	3079.2888	3080.7575	3092.3062	3152.2907	3795.4997	3808.9962
CN1CC2(O)C(O)C12	CN1C[C@@]2(O)[C@@H](O)[C@@H]12	
InChI=1S/C5H9NO2/c1-6-2-5(8)3(6)4(5)7/h3-4,7-8H,2H2,1H3	InChI=1S/C5H9NO2/c1-6-2-5(8)3(6)4(5)7/h3-4,7-8H,2H2,1H3/t3-,4+,5+/m1/s1
