18
gdb 56992	2.92256	1.25765	0.98728	0.7064	77.12	-0.2351	0.0273	0.2624	1207.0741	0.146387	-401.851179	-401.842399	-401.841455	-401.884903	33.168	
O	 0.6582223532	-0.4141801695	-1.1687569286	-0.416378
C	-0.1271629372	-0.0235283902	-0.0430876155	-0.077626
C	-1.4713647029	-0.6016408237	-0.0802639825	 0.309807
C	-2.5510097269	-1.1287352314	-0.1171249577	-0.444182
C	 0.6062964021	-0.3970167952	 1.2528848528	 0.058282
C	 1.9857801549	 0.2500253822	 1.5437290933	-0.286592
C	 1.3682672291	 0.7295556873	 2.8565481954	-0.006846
C	 0.1723342965	 1.5495216609	 2.6055656214	-0.240086
N	 0.0209268366	 0.0791220091	 2.5605041598	-0.145413
H	 0.5744363846	-1.3699315779	-1.2611950512	 0.28754
H	-0.2024043333	 1.066014624	-0.1262826667	 0.114419
H	-3.513874604	-1.5762507943	-0.1459962441	 0.201978
H	 0.6567412521	-1.4890160794	 1.3031704615	 0.085456
H	 2.782713434	-0.4847726713	 1.6633390528	 0.112011
H	 2.3286576739	 1.0304588234	 0.858350361	 0.112348
H	 1.8264570352	 0.6469447495	 3.8364074841	 0.097152
H	-0.3375382461	 1.9809933103	 3.461116802	 0.124571
H	 0.1004675484	 2.1435528162	 1.6978394321	 0.113557
53.5248	118.2185	168.062	205.2328	244.1964	290.003	364.4528	408.2938	449.1041	530.8012	588.621	633.5816	674.6358	731.6783	760.6772	788.5181	842.1363	927.497	959.0934	973.4322	1003.1828	1053.3453	1065.2929	1081.5373	1103.9323	1115.1556	1129.2622	1173.8941	1224.7285	1254.8721	1265.0449	1283.512	1298.3766	1364.6141	1391.372	1418.777	1488.9415	1506.9637	2233.7215	3047.4661	3062.1265	3063.7221	3112.8	3125.5933	3167.8892	3200.4586	3503.2456	3805.0133
OC(C#C)C1CC2CN12	O[C@@H](C#C)[C@H]1C[C@H]2CN12	
InChI=1S/C7H9NO/c1-2-7(9)6-3-5-4-8(5)6/h1,5-7,9H,3-4H2	InChI=1S/C7H9NO/c1-2-7(9)6-3-5-4-8(5)6/h1,5-7,9H,3-4H2/t5-,6+,7-,8?/m0/s1
