20
gdb 58407	2.08556	1.15454	0.78752	1.822	78.9	-0.256	-0.0433	0.2126	1465.5223	0.166959	-440.293813	-440.283014	-440.28207	-440.331276	37.085	
C	-0.0805006736	 1.5371183807	 0.116052704	-0.400985
C	-0.0698931465	 0.0036841518	 0.0520337756	 0.000505
C	 0.5821890948	-0.5997902949	 1.303591731	-0.400116
C	-1.5021504331	-0.5415395146	-0.1429613271	 0.026744
O	-2.0838820541	 0.1137214076	-1.2724245912	-0.195925
C	-3.4297447451	 0.2434178894	-1.2934067634	 0.123152
N	-3.9956808343	 0.727628508	-2.3098686784	-0.436986
C	-1.4876248175	-2.0418187255	-0.4215992206	 0.137234
O	-1.5342289743	-2.8919593322	 0.4277915666	-0.238722
H	 0.9414562186	 1.9137981221	 0.2212822096	 0.118206
H	-0.5187286444	 1.9729826485	-0.7831583175	 0.144733
H	-0.6545467077	 1.8859480899	 0.982772598	 0.112641
H	 0.510758084	-0.2978508675	-0.8307456713	 0.092793
H	 0.0464205477	-0.2916592131	 2.2086782997	 0.119746
H	 0.5966152409	-1.6917714746	 1.2838954178	 0.139487
H	 1.6133902648	-0.2459478767	 1.3919321712	 0.12008
H	-2.0930507008	-0.3540800374	 0.7638738051	 0.103409
H	-3.9160668172	-0.0936332009	-0.3677264665	 0.096743
H	-5.00109718	 0.7763722546	-2.1592675029	 0.233964
H	-1.4165088022	-2.2843582751	-1.5057196097	 0.103297
32.3314	58.8113	80.0645	92.4649	167.3339	209.725	223.2537	251.2422	309.3464	348.4528	379.2567	434.6695	457.242	487.7028	688.3196	821.481	828.8915	925.1034	936.6265	966.3376	979.4701	1013.8397	1042.4883	1063.4448	1123.9848	1148.0752	1172.8794	1193.4679	1264.0686	1283.0967	1328.7459	1344.2059	1374.4778	1399.604	1405.584	1424.7985	1426.9306	1488.2561	1490.407	1502.7017	1513.8742	1746.3033	1834.8174	2891.1643	3010.3451	3021.4281	3030.8274	3034.1913	3040.9452	3098.6379	3105.8838	3128.9836	3138.6344	3521.1026
CC(C)C(OC=N)C=O	CC(C)[C@@H](O[CH][NH])C=O	
InChI=1S/C6H11NO2/c1-5(2)6(3-8)9-4-7/h3-7H,1-2H3	InChI=1S/C6H11NO2/c1-5(2)6(3-8)9-4-7/h3-7H,1-2H3/t6-/m0/s1
