17
gdb 30742	3.05491	1.22747	0.92496	2.0482	72.6	-0.171	0.05	0.221	1244.4708	0.135727	-455.150437	-455.140873	-455.139929	-455.185029	34.762	
C	 0.3861632743	 1.1466333722	 0.4061615046	-0.324794
N	-0.3892833476	 0.1990799116	-0.4078515434	-0.389978
C	 0.3543628691	-0.6096515724	-1.278634238	 0.266364
C	 0.6013058223	-1.9665113182	-1.2676139049	 0.045312
O	 0.2561715737	-2.8677887874	-0.2754322522	-0.462241
C	 1.3765217942	-2.2805020965	-2.4227292137	 0.258207
O	 1.8363390175	-3.5234055313	-2.7443724895	-0.457561
C	 1.5842820967	-1.1169104703	-3.1168865758	-0.195028
N	 0.9616961448	-0.1019943293	-2.3975383802	-0.299365
H	 1.1481842052	 0.6635648926	 1.0358410977	 0.116541
H	 0.8930414548	 1.862701646	-0.2464348633	 0.123926
H	-0.3004016412	 1.7080732358	 1.0458492906	 0.120434
H	-0.9357605244	-0.4034307746	 0.1962790252	 0.233497
H	-0.5355902834	-3.3429700734	-0.5525262379	 0.296304
H	 1.7198801017	-4.0703304098	-1.9583287195	 0.292181
H	 2.1336909076	-0.918259746	-4.0201498929	 0.117277
H	 0.7889135746	 0.8236046609	-2.7466768967	 0.258923
40.2323	127.6535	164.4649	217.052	236.0732	250.6921	269.7622	293.101	351.6953	422.8602	447.6449	561.4075	565.7351	612.6613	675.0437	713.6114	722.475	765.627	806.5732	997.057	1075.8693	1097.1336	1150.9902	1159.0111	1188.1217	1222.142	1265.4096	1328.4179	1349.0243	1445.2744	1452.1379	1481.3052	1491.62	1514.3179	1535.2038	1618.4653	1680.2269	2991.7313	3082.2689	3117.4218	3285.0131	3552.4246	3690.7101	3769.5877	3791.9839
CNC1=C(O)C(O)=CN1	CNc1c(O)c(O)c[nH]1	
InChI=1S/C5H8N2O2/c1-6-5-4(9)3(8)2-7-5/h2,6-9H,1H3	InChI=1S/C5H8N2O2/c1-6-5-4(9)3(8)2-7-5/h2,6-9H,1H3
