15
gdb 27693	2.96316	1.26495	0.89144	4.3848	79.09	-0.2135	-0.0148	0.1987	1236.8414	0.113166	-416.869903	-416.861223	-416.860279	-416.903699	31.32	
C	-0.0469769626	 1.4998564912	 0.0894431356	-0.508353
C	-0.0051026583	 0.0131047837	-0.0377822074	 0.332163
C	-0.0384077963	-0.7850051038	-1.1696171759	-0.309745
C	 0.0279059586	-2.1286476873	-0.7426989835	 0.290574
O	 0.0190898537	-3.1930273578	-1.5716984272	-0.430973
C	 0.101004342	-2.132700046	 0.6481875438	 0.081604
N	 0.0783406149	-0.7996837573	 1.0509089545	-0.378454
C	 0.1823560015	-3.2264774336	 1.5198107356	 0.16862
N	 0.2489340663	-4.1623505819	 2.2064690987	-0.373235
H	 0.8507520416	 1.8910319024	 0.5824015016	 0.14008
H	-0.1112879729	 1.9575308122	-0.8994028172	 0.147957
H	-0.9144409596	 1.833837088	 0.6707434189	 0.140194
H	-0.1032816745	-0.4434170667	-2.1901104558	 0.114636
H	 0.07284909	-4.0035650587	-1.0509696827	 0.311553
H	 0.1200753955	-0.4968573844	 2.0086330208	 0.27338
55.0453	122.6094	127.9998	210.2924	275.0098	319.3842	372.366	412.2694	421.0533	521.403	533.8333	577.1294	649.1603	650.358	698.9283	795.9345	805.5855	1003.8945	1019.1528	1059.6546	1125.0082	1187.6173	1245.4088	1266.4779	1364.1426	1415.9183	1454.0003	1480.2043	1504.9794	1533.0539	1554.1228	1623.2579	2308.9111	3028.2751	3077.6303	3134.2955	3264.7122	3680.2647	3794.9557
CC1=CC(O)=C(N1)C#N	Cc1cc(O)c([nH]1)C#N	
InChI=1S/C6H6N2O/c1-4-2-6(9)5(3-7)8-4/h2,8-9H,1H3	InChI=1S/C6H6N2O/c1-4-2-6(9)5(3-7)8-4/h2,8-9H,1H3
