17
gdb 12194	4.01119	1.43786	1.22217	4.7646	68.59	-0.2754	0.0311	0.3065	996.4142	0.14183	-363.868517	-363.86019	-363.859245	-363.901215	30.459	
C	-0.1454579963	 1.5153930757	-0.0323195878	-0.392031
C	-0.0364601657	-0.0051252907	-0.0459474845	-0.037978
C	 1.1433544791	-0.5624211166	-0.8907295226	 0.135037
O	 1.5798932886	 0.3037811893	-1.9054324655	-0.423047
C	 1.9954432149	-0.6962983139	 0.4001650811	-0.280529
C	 0.6657344965	-0.634943724	 1.2149667511	-0.151468
C	 0.6578318921	 0.1092555147	 2.4611252691	 0.27913
N	 0.6550332561	 0.7145005207	 3.4467864418	-0.334993
H	 0.8059341972	 1.9948854623	 0.21304057	 0.131497
H	-0.4523523866	 1.8772519944	-1.0166960555	 0.131625
H	-0.8850270944	 1.8383804859	 0.7059768963	 0.130044
H	-1.0107548574	-0.4457429919	-0.2715711593	 0.084667
H	 0.8927550483	-1.5541575508	-1.2938701277	 0.073313
H	 2.282183273	-0.1289735393	-2.4007655656	 0.28893
H	 2.6181046539	-1.5831625067	 0.5318655376	 0.110586
H	 2.5974846661	 0.2008055601	 0.557222176	 0.132783
H	 0.2804768945	-1.6401221892	 1.4068113656	 0.122436
76.6871	139.3178	202.7219	223.6943	231.4804	254.6817	352.2038	395.3301	484.8399	551.7233	578.6771	653.8537	764.3123	808.9611	908.8474	909.9135	989.4457	1020.751	1043.4257	1090.3857	1115.6209	1126.0987	1175.1282	1209.0509	1239.922	1252.0701	1279.2165	1320.0581	1340.8898	1367.6931	1412.8534	1435.3801	1485.022	1491.8815	1495.7477	2351.3161	2993.6743	3049.8071	3067.2883	3076.1002	3078.5837	3121.2096	3127.0811	3139.0533	3823.9834
CC1C(O)CC1C#N	C[C@H]1[C@@H](O)C[C@H]1C#N	
InChI=1S/C6H9NO/c1-4-5(3-7)2-6(4)8/h4-6,8H,2H2,1H3	InChI=1S/C6H9NO/c1-4-5(3-7)2-6(4)8/h4-6,8H,2H2,1H3/t4-,5+,6+/m1/s1
