15
gdb 56121	4.02572	0.79823	0.66906	7.2641	73.66	-0.2515	-0.0434	0.2081	1555.3355	0.110371	-453.950171	-453.940755	-453.939811	-453.985249	33.537	
O	-0.1632222081	-0.0591587816	-0.0278251795	-0.358818
C	-0.052942099	 1.2716187298	 0.0086297006	 0.417598
O	 0.9967318102	 1.8556169833	 0.0144352304	-0.342244
C	-1.4060522496	 2.0009571542	 0.0434111212	-0.329338
N	-2.4888648672	 1.0410264623	 0.0156200608	-0.316638
C	-3.7022238342	 1.4554506612	 0.0515308061	 0.228884
N	-4.1073533603	 2.7641773685	 0.1447262171	-0.554283
H	-5.0760093768	 2.9772401111	-0.0237710704	 0.273221
H	-3.4459068199	 3.4964216699	-0.0542776017	 0.274084
C	-4.7736274119	 0.4962665778	 0.0344857521	 0.272479
C	-5.6914813617	-0.2789906069	 0.0153199084	-0.368519
H	-1.4172037461	 2.6268259298	 0.9483581145	 0.142566
H	-1.4207197835	 2.6891271738	-0.8164456382	 0.134098
H	-1.1293166378	-0.2396296532	-0.0252724169	 0.311477
H	-6.4875956441	-0.9829705699	 0.0001775055	 0.215431
57.4812	70.8691	100.5501	178.8273	209.619	289.0926	318.1444	354.833	417.4963	461.0897	547.5975	579.4782	600.6895	648.6287	656.52	677.7983	727.4343	808.2699	858.0891	904.6729	991.2282	1036.4239	1148.3525	1217.9607	1231.6311	1336.0815	1362.522	1435.4457	1450.1679	1635.7325	1708.3589	1876.5271	2243.7427	2980.5633	3018.7641	3478.5532	3497.4845	3605.2726	3725.3871
[O-]C(=O)CNC(=[NH2+])C#C	OC(=O)CN=C(N)C#C	
InChI=1S/C5H6N2O2/c1-2-4(6)7-3-5(8)9/h1H,3H2,(H2,6,7)(H,8,9)	InChI=1S/C5H6N2O2/c1-2-4(6)7-3-5(8)9/h1H,3H2,(H2,6,7)(H,8,9)
