15
gdb 12297	3.15057	2.29181	1.37578	5.4396	64.11	-0.2341	-0.028	0.2061	856.5523	0.122893	-396.028474	-396.0216	-396.020656	-396.059601	26.057	
N	-0.0743998381	 1.2672052457	-0.2124287679	-0.508703
C	-0.028089006	 0.0098484855	-0.0218690851	 0.265553
N	-1.1732783786	-0.7550336396	 0.0820928993	-0.331414
C	-1.1299587108	-2.0336475256	 0.7694664479	-0.166586
C	 0.0054737316	-2.861711965	 0.1811023153	-0.148715
N	 1.2356570865	-2.0857011811	 0.2312257992	-0.335915
C	 1.3049071983	-0.7364544769	 0.0484607656	 0.37093
O	 2.3564864015	-0.131973259	-0.0404644301	-0.369015
H	 0.8862228747	 1.6021472735	-0.3122486849	 0.240344
H	-2.0100951612	-0.1984458095	 0.1916557095	 0.249518
H	-0.9793180867	-1.9250552871	 1.8555894203	 0.113363
H	-2.0796083214	-2.5521594967	 0.6126996309	 0.121452
H	 0.1406915797	-3.7774246015	 0.7640018339	 0.121317
H	-0.2424974108	-3.1478364092	-0.850690026	 0.123494
H	 2.1241714913	-2.5639488133	 0.185650482	 0.254376
107.1351	141.3043	299.448	356.2338	407.8662	445.1472	500.5559	552.3961	611.0063	626.8052	719.1457	723.1331	806.142	908.4586	922.1688	989.5084	1034.9566	1106.3759	1123.5646	1195.5004	1257.9713	1263.167	1306.6883	1381.4402	1396.0689	1448.1216	1460.1798	1484.0105	1510.2907	1515.3367	1726.2771	1794.9724	2974.3022	3008.8076	3085.397	3091.5969	3466.7088	3589.6749	3605.9363
N=C1NCCNC1=O	[NH][C]1NCCNC1=O	
InChI=1S/C4H7N3O/c5-3-4(8)7-2-1-6-3/h1-2H2,(H2,5,6)(H,7,8)	InChI=1S/C4H7N3O/c5-3-4(8)7-2-1-6-3/h1-2H2,(H2,5,6)(H,7,8)
