14
gdb 80213	2.29473	1.60361	1.23563	5.0429	69.8	-0.2613	-0.0103	0.251	1019.7907	0.101355	-432.836285	-432.828431	-432.827487	-432.868696	29.307	
O	-0.0768745036	 1.3869877581	 0.2833598259	-0.404761
C	-0.0669640686	 0.0140369782	 0.1314720971	 0.059825
C	-0.4995719604	-0.8356057085	 1.2678280484	-0.089412
N	-1.6050811575	-0.2416981089	 2.0194173596	-0.339072
C	-2.4181309308	-0.1396213896	 0.8546782761	 0.334268
N	-3.5674619161	 0.2929522074	 0.5924987325	-0.526235
C	-1.3756182774	-0.8029728169	-0.0146065177	 0.040784
C	-1.5644114705	-1.7707143017	-1.0383398842	 0.211758
N	-1.6985477601	-2.5513546652	-1.8820750817	-0.343369
H	-0.3023178966	 1.794342782	-0.5607221922	 0.308308
H	 0.7403878318	-0.3984543234	-0.4749431497	 0.126562
H	 0.0631803683	-1.6685617246	 1.6692119677	 0.140224
H	-1.4184308263	 0.6016843295	 2.553101559	 0.251679
H	-4.0161007321	 0.7018022833	 1.4139933691	 0.229442
121.6056	138.2375	155.2711	246.2142	296.2965	387.1774	393.5777	496.152	530.1904	586.8141	628.3272	660.7787	737.2966	773.9461	829.7653	873.6019	922.5408	949.218	1009.8321	1056.2777	1081.7085	1126.033	1205.3099	1242.1186	1258.8615	1321.416	1344.4751	1354.3363	1469.8948	1812.6884	2352.0653	3110.9437	3207.5556	3472.7736	3531.1746	3805.3891
OC1C2NC(=N)C12C#N	O[C@H]1[C@H]2N[C]([NH])[C@@]12C#N	
InChI=1S/C5H5N3O/c6-1-5-2(3(5)9)8-4(5)7/h2-3,9H,(H2,7,8)	InChI=1S/C5H5N3O/c6-1-5-2(3(5)9)8-4(5)7/h2-3,9H,(H2,7,8)/t2-,3+,5-/m1/s1
