14
gdb 12769	3.48862	1.82172	1.59517	3.2973	58.44	-0.2439	-0.0333	0.2106	823.9071	0.1048	-419.622606	-419.615285	-419.614341	-419.654274	26.892	
O	-0.055637335	 1.4259438964	-0.0112218869	-0.446967
C	-0.0491911194	 0.0530613554	-0.0008173205	 0.281916
C	-0.3503605363	-0.8362970623	-1.1883161626	-0.367359
C	-1.1813490449	-0.937337567	 0.0638124294	 0.057605
O	-0.5247356893	-1.7465196432	 1.0433867708	-0.27656
C	 0.568171841	-0.8138238554	 1.1313748405	-0.01419
C	 1.9363866429	-1.3700007862	 0.8431559021	 0.138102
O	 2.160958402	-2.4451791284	 0.3507285476	-0.244422
H	 0.5527321361	 1.7342818413	-0.6919234585	 0.297012
H	-0.8363846731	-0.3074991794	-2.0032133085	 0.123347
H	 0.3058608995	-1.6545501578	-1.4700047702	 0.145885
H	-2.2569168835	-0.8308548834	 0.1235226093	 0.121182
H	 0.5584581285	-0.2772605019	 2.0893376	 0.108756
H	 2.7568048514	-0.651641238	 1.0823614276	 0.075693
88.7984	149.695	219.7667	272.5864	326.9109	356.8462	442.0641	464.5799	620.4628	720.0423	753.6532	842.5954	882.2621	902.3134	940.7333	994.0273	1014.8704	1044.3972	1073.4202	1086.8464	1121.2209	1183.5513	1210.2827	1256.5808	1325.3352	1349.9147	1409.4631	1419.2857	1485.0105	1829.8839	2847.6969	3032.0782	3119.023	3202.2702	3216.7831	3796.4268
OC12CC1OC2C=O	O[C@]12C[C@H]1O[C@H]2C=O	
InChI=1S/C5H6O3/c6-2-4-5(7)1-3(5)8-4/h2-4,7H,1H2	InChI=1S/C5H6O3/c6-2-4-5(7)1-3(5)8-4/h2-4,7H,1H2/t3-,4+,5-/m1/s1
