25
gdb 117985	2.6614	0.89635	0.80798	0.386	85.9	-0.2478	0.0692	0.317	1600.7719	0.224825	-426.624584	-426.612737	-426.611793	-426.661265	43.423	
C	 0.0451156149	 1.370044252	-0.118803031	-0.227346
O	 0.0212519454	-0.0352682256	-0.0980547345	-0.236529
C	-1.2806821778	-0.5604937474	 0.0874132354	-0.073749
C	-1.1738603631	-2.0880535866	 0.1332324691	 0.003135
C	-0.4100234047	-2.5335939629	 1.3889270978	-0.418685
C	-2.5532781229	-2.7763734128	-0.076397444	 0.335102
C	-2.4069971607	-4.3050694411	-0.1109434838	-0.427991
C	-3.5994569759	-2.3694703711	 0.9665672793	-0.399107
O	-3.1058121793	-2.338608343	-1.3290246187	-0.459837
H	 1.082446757	 1.6796443519	-0.2705044569	 0.123255
H	-0.570619906	 1.7786672695	-0.9361325196	 0.102347
H	-0.3186513252	 1.8010946563	 0.8280322347	 0.101094
H	-1.7091785165	-0.1708179215	 1.0267890178	 0.07917
H	-1.9418600605	-0.2520105456	-0.7346488717	 0.100285
H	-0.5645482444	-2.3673909002	-0.7399891902	 0.066762
H	-0.987441292	-2.3415126503	 2.3001956017	 0.112078
H	-0.1592550683	-3.597140632	 1.3656330372	 0.111793
H	 0.521983914	-1.9680801663	 1.4618062939	 0.134056
H	-2.1365437655	-4.7172037549	 0.8649654583	 0.119599
H	-3.3556672847	-4.7515306644	-0.4218130185	 0.120523
H	-1.6342044928	-4.6091726446	-0.8275530264	 0.102242
H	-3.794632646	-1.2949761088	 0.9282877757	 0.123817
H	-4.5411799037	-2.8862276792	 0.7617850717	 0.119864
H	-3.276658472	-2.6311071523	 1.9774510689	 0.11515
H	-2.5051581593	-2.6216310191	-2.0274694461	 0.272973
65.1461	87.5569	100.1146	155.2747	206.8462	224.6254	234.9463	257.549	275.3103	293.5146	311.87	314.9298	352.6491	375.471	422.1698	482.5469	521.9261	537.5505	745.8783	874.0885	920.8912	927.5864	934.6749	959.9229	987.3766	999.3297	1055.2868	1119.8924	1134.8179	1156.0517	1169.1428	1192.3308	1210.4855	1220.9793	1240.1339	1278.245	1309.7485	1353.9657	1377.1691	1397.7375	1402.6463	1420.6505	1422.4042	1478.1465	1480.3486	1484.937	1487.2724	1495.0334	1501.4926	1505.1868	1508.0351	1513.6052	1533.9964	2952.2458	2967.6108	2987.9667	3008.0302	3023.4419	3027.7992	3039.2629	3051.2475	3097.9347	3106.7233	3108.4317	3118.3357	3122.2986	3127.166	3130.3411	3798.408
COCC(C)C(C)(C)O	COC[C@@H](C)C(C)(C)O	
InChI=1S/C7H16O2/c1-6(5-9-4)7(2,3)8/h6,8H,5H2,1-4H3	InChI=1S/C7H16O2/c1-6(5-9-4)7(2,3)8/h6,8H,5H2,1-4H3/t6-/m1/s1
