23
gdb 117714	3.40455	0.68175	0.64811	1.3938	78.48	-0.2567	0.0618	0.3185	1807.3354	0.202243	-462.550909	-462.539187	-462.538243	-462.588201	41.959	
C	 0.0739884611	 1.6738320922	 0.1304517899	-0.402951
C	 0.0069644091	 0.1468606963	 0.0116651977	 0.310115
O	 0.6811079965	-0.3451380312	 1.1821192998	-0.459082
C	-1.4490784957	-0.363829445	-0.0080539077	-0.191053
C	-2.2783211438	-0.0131824081	 1.2228827516	-0.092688
O	-3.4831075887	-0.7662823163	 1.1440054355	-0.424569
C	 0.7218679143	-0.3620262134	-1.2576750605	-0.191048
C	 2.2024796852	-0.0100229567	-1.3560093265	-0.092675
O	 2.7400152595	-0.7612734223	-2.4383965236	-0.424562
H	 1.1115474987	 2.0135351807	 0.1686368363	 0.123583
H	-0.4173045534	 2.1510427069	-0.7226688312	 0.114289
H	-0.4148858064	 2.0121825184	 1.0469187505	 0.123586
H	 0.6609247855	-1.3082014189	 1.1463407031	 0.277083
H	-1.9584502502	 0.0027655428	-0.9067029305	 0.102997
H	-1.434664907	-1.4590423461	-0.0902755586	 0.09588
H	-1.7060529241	-0.2590794841	 2.1286650277	 0.096937
H	-2.494813118	 1.065272437	 1.2498359146	 0.085014
H	-4.018656447	-0.5511360934	 1.9130532914	 0.284171
H	 0.6444756622	-1.457276833	-1.2875058391	 0.095875
H	 0.2004656811	 0.0049162587	-2.1492590655	 0.102993
H	 2.3336382179	 1.0687639495	-1.5282690661	 0.085005
H	 2.6985117951	-0.2567366193	-0.4065452461	 0.09693
H	 3.6737898981	-0.5451229747	-2.5150673926	 0.284171
68.7524	73.2724	86.004	116.8876	121.5138	226.3827	252.6661	273.1609	273.1811	312.6793	333.341	341.3804	358.1419	376.2659	424.9388	483.5997	646.1738	789.6803	790.2886	803.9667	925.4561	951.2299	980.8321	997.9374	1049.2223	1064.9146	1067.1901	1082.8186	1130.0582	1167.1007	1197.4484	1223.6088	1238.3122	1253.4753	1258.464	1305.9313	1312.4008	1349.0154	1353.2425	1388.7191	1423.6944	1454.0194	1459.7016	1474.7359	1490.0909	1492.6251	1510.3873	1534.2305	1534.8633	2981.7445	2982.9043	3015.993	3018.4692	3019.4872	3026.1642	3051.7492	3066.6826	3076.9943	3124.8522	3128.6515	3796.7032	3829.9524	3829.9855
CC(O)(CCO)CCO	CC(O)(CCO)CCO	
InChI=1S/C6H14O3/c1-6(9,2-4-7)3-5-8/h7-9H,2-5H2,1H3	InChI=1S/C6H14O3/c1-6(9,2-4-7)3-5-8/h7-9H,2-5H2,1H3
