19
gdb 54474	3.0827	1.40804	1.11855	2.6904	80.93	-0.2353	-0.0116	0.2238	1125.4317	0.159268	-385.91493	-385.906723	-385.905779	-385.947866	31.907	
C	 0.4102975304	 1.3714877193	 0.0722178136	-0.495084
C	-0.2732002968	 0.0234836667	-0.0788168275	 0.299927
O	-0.9453730941	-0.4385671695	 0.8220453602	-0.325234
C	-0.0854439837	-0.7235229644	-1.3603350779	 0.233612
C	-1.1644769965	-1.7396114678	-1.6952903394	-0.305997
C	 0.175387591	-2.2483508722	-1.2630151835	-0.086363
C	 1.1437757981	-2.5394018507	-2.3558179892	-0.074326
C	 1.4356533768	-1.4506369384	-3.0704421724	-0.080128
C	 0.7672512598	-0.2060737654	-2.5235630064	-0.369836
H	 1.4998455709	 1.2559241867	 0.0452557351	 0.142655
H	 0.1401932338	 2.0455764041	-0.7477494765	 0.137536
H	 0.1189233537	 1.8117222465	 1.0261479849	 0.140509
H	-1.9705134183	-1.7939358026	-0.9726685045	 0.138861
H	-1.4394532572	-1.851952726	-2.7389100086	 0.113073
H	 0.2593105114	-2.7144783912	-0.2878643424	 0.108871
H	 1.5236737979	-3.5370230676	-2.543866675	 0.100954
H	 2.0675545433	-1.4270944937	-3.9509007085	 0.097775
H	 0.1632355798	 0.3050287095	-3.2847861615	 0.113999
H	 1.5161160197	 0.5231453366	-2.1900330606	 0.109196
53.1279	156.1619	187.5416	220.5866	323.5423	347.5402	391.2559	473.3172	494.5655	590.6919	617.6851	714.1843	745.3386	747.8309	838.4277	869.2604	926.6281	936.4171	957.4696	972.5246	978.7129	1013.74	1042.9289	1056.7943	1077.9244	1089.3609	1129.3574	1160.2075	1190.3867	1256.5344	1278.506	1321.9463	1355.6798	1377.6487	1392.246	1454.5645	1464.8917	1472.6391	1486.3093	1671.3733	1775.4404	3019.5446	3036.2682	3046.9758	3097.7349	3129.7585	3153.8484	3180.4225	3189.5929	3213.1253	3231.9726
CC(=O)C12CC1C=CC2	CC(=O)[C@]12C[C@H]1C=CC2	
InChI=1S/C8H10O/c1-6(9)8-4-2-3-7(8)5-8/h2-3,7H,4-5H2,1H3	InChI=1S/C8H10O/c1-6(9)8-4-2-3-7(8)5-8/h2-3,7H,4-5H2,1H3/t7-,8+/m1/s1
