19
gdb 77954	2.67441	1.4039	1.03963	3.3071	82.43	-0.2371	0.0171	0.2542	1186.3151	0.158815	-382.002494	-381.993831	-381.992887	-382.035473	32.936	
C	-0.4341853481	 1.4848745727	-0.1849253857	-0.468776
C	 0.0116156199	 0.0360206146	-0.1000756327	 0.068569
C	 1.3383439214	-0.5260441644	-0.7027947883	-0.067801
C	 2.1613910152	 0.084882473	 0.4887772019	-0.130665
C	 2.4890441538	 1.4938472418	 0.6141630858	 0.253388
N	 2.8169164666	 2.5975552991	 0.7318489238	-0.33853
C	 0.8548302458	-0.5710373482	 1.0659838949	-0.067779
N	 1.0570044378	-1.7545915783	 0.1400910752	-0.092277
C	 2.1132904827	-2.7245308429	 0.4041652039	-0.341172
H	-0.8044252538	 1.6935092964	-1.194501992	 0.124708
H	-1.2685643645	 1.6501780904	 0.5052542253	 0.124712
H	 0.3386266087	 2.2161954674	 0.0447515092	 0.16208
H	-0.8142104072	-0.6366979615	-0.3429529304	 0.093602
H	 1.6478685122	-0.595324181	-1.7468966406	 0.094704
H	 3.0698743459	-0.4711476952	 0.7229823522	 0.122933
H	 0.5914494414	-0.6936491155	 2.1178171336	 0.0947
H	 1.776587519	-3.382225254	 1.2115811589	 0.131987
H	 2.2423584459	-3.3388959177	-0.4923548849	 0.131987
H	 3.1034232774	-2.3320472269	 0.6847981598	 0.10363
134.7106	164.7904	164.8051	183.4212	212.7056	266.603	344.0859	372.2303	469.423	531.0426	549.5372	582.4372	714.5647	744.9712	807.6304	835.7812	891.8802	893.6468	1018.3436	1033.7666	1052.9468	1057.4851	1079.4258	1122.9482	1131.5507	1160.8011	1169.7824	1204.1839	1204.457	1232.4493	1257.7437	1274.6957	1359.4399	1417.6496	1425.6197	1451.1453	1496.6277	1498.5309	1501.068	1503.3319	2339.7709	2972.6855	3042.1188	3067.8609	3083.4429	3094.4384	3102.5258	3104.1941	3106.199	3112.0658	3167.9792
CC1C2C(C#N)C1N2C	C[C@H]1[C@H]2[C@@H](C#N)[C@@H]1N2C	
InChI=1S/C7H10N2/c1-4-6-5(3-8)7(4)9(6)2/h4-7H,1-2H3	InChI=1S/C7H10N2/c1-4-6-5(3-8)7(4)9(6)2/h4-7H,1-2H3/t4-,5+,6-,7+
