18
gdb 38614	2.59658	2.35612	1.65975	0.5323	73.37	-0.2327	0.0772	0.3099	859.4021	0.150782	-401.886304	-401.880056	-401.879112	-401.91648	26.847	
C	 0.0012379704	 1.4359158988	 0.009641788	-0.396116
C	 1.3657182596	 0.7364846309	 0.0616997422	-0.094575
C	 2.217474652	 0.2567919613	-1.1065012727	-0.183584
N	 1.5088561175	-0.8902879289	-1.7269298033	-0.113124
C	 0.9028043407	-1.9704669507	-0.8809339098	-0.057535
C	 0.801132811	-1.9927211228	 0.6616276128	-0.122222
O	-0.1588839334	-0.9740245683	 1.0228819737	-0.291235
C	 0.0766237604	-0.0437084467	-0.0001918175	 0.407594
C	 0.1080015668	-0.8051894121	-1.3204164668	-0.133344
H	-0.2813788049	 1.950157329	 0.9222248641	 0.130035
H	-0.3441618266	 1.9184047628	-0.9009538789	 0.120758
H	 1.8396860687	 0.7943084912	 1.0355239355	 0.098447
H	 2.3545024153	 0.9979806802	-1.9030156041	 0.110407
H	 3.214005225	-0.0433753056	-0.7661733326	 0.108982
H	 0.8873957168	-2.9247021769	-1.3955922376	 0.105821
H	 0.4168916452	-2.9578457945	 1.0021679913	 0.116949
H	 1.7601161948	-1.795691295	 1.1587313523	 0.103466
H	-0.6912520092	-0.7807213227	-2.0538690566	 0.089276
218.2224	256.9164	349.0554	433.7242	439.9162	541.7809	615.6942	690.09	710.3491	728.4557	806.2442	825.3891	837.4268	875.6356	899.1968	941.3975	954.8318	969.6301	988.386	1032.2048	1039.6529	1073.1396	1087.6532	1104.7529	1121.5981	1124.5271	1200.3585	1232.1781	1246.7122	1254.6262	1289.3393	1314.5179	1328.4825	1339.0037	1374.8095	1401.2499	1477.557	1496.5195	1503.8684	3018.1587	3031.5773	3077.0073	3097.8829	3118.591	3160.7916	3169.7229	3176.8964	3209.7198
C1C2CN3C4COC12C34	C1[C@@H]2CN3[C@H]4CO[C@@]12[C@@H]34	
InChI=1S/C7H9NO/c1-4-2-8-5-3-9-7(1,4)6(5)8/h4-6H,1-3H2	InChI=1S/C7H9NO/c1-4-2-8-5-3-9-7(1,4)6(5)8/h4-6H,1-3H2/t4-,5+,6+,7+,8?/m1/s1
