14
gdb 44170	5.58232	1.0537	0.96242	4.3481	69.24	-0.2593	-0.019	0.2403	1156.3429	0.101767	-432.83043	-432.823011	-432.822067	-432.862687	27.504	
N	 0.1527285407	 1.072709462	 0.640416287	-0.535138
C	 0.0822872077	-0.0488344505	 0.0732014591	 0.390623
N	 0.9813583332	-1.0071097273	-0.4289652104	-0.333971
C	-0.043006926	-1.9721693082	-0.790127553	-0.051604
C	-0.601883034	-2.8313254257	 0.3894294488	-0.046227
O	-1.5243484228	-1.7880277944	 0.7627279908	-0.278977
C	-1.1036077077	-0.9326299058	-0.3294383797	 0.023527
C	-1.2910045324	-4.0569303662	-0.0169140531	 0.288804
N	-1.8099405269	-5.0266637822	-0.3712091362	-0.307901
H	 1.1156826957	 1.3555096763	 0.8302762025	 0.219575
H	 1.9244787536	-1.1983242041	-0.1185919232	 0.249046
H	 0.0362506143	-2.4344078896	-1.7720689985	 0.125987
H	 0.1182904056	-3.0586486539	 1.1835568291	 0.132699
H	-1.932857751	-0.5284806402	-0.9066619731	 0.123557
77.4305	133.4695	182.6598	282.959	358.9096	428.8893	448.083	481.3943	552.2517	689.474	737.3059	813.406	847.2848	867.5519	937.5447	953.0049	982.3572	1015.0273	1030.9702	1044.7137	1074.2884	1161.3728	1198.8012	1222.4636	1261.734	1287.3975	1323.7906	1353.2928	1369.8558	1808.2828	2357.4785	3050.3445	3136.612	3149.1246	3465.2433	3585.981
N=C1NC2C(OC12)C#N	[NH][C]1N[C@H]2[C@@H](O[C@@H]12)C#N	
InChI=1S/C5H5N3O/c6-1-2-3-4(9-2)5(7)8-3/h2-4H,(H2,7,8)	InChI=1S/C5H5N3O/c6-1-2-3-4(9-2)5(7)8-3/h2-4H,(H2,7,8)/t2-,3-,4+/m0/s1
