20
gdb 82768	2.74949	1.94674	1.53798	2.0216	77.69	-0.205	0.0906	0.2956	944.2852	0.174137	-403.115866	-403.108987	-403.108043	-403.146712	28.9	
C	-0.0937337741	 1.4677825115	 0.0238247284	-0.330874
N	 0.0838854473	 0.0270896288	-0.0146829566	-0.052419
C	 0.9294509022	-0.4939754135	-1.1016680197	-0.053221
C	 2.3836926031	-0.1045431175	-0.6997217578	-0.270837
C	 2.1077092598	-1.0760639557	 0.4672784367	-0.074238
C	 1.2679683846	-1.9242601011	-0.522964265	 0.150408
O	 0.2529807598	-2.6162069943	 0.1605187487	-0.278363
C	 0.0480012262	-1.9026100495	 1.3949269436	-0.060761
C	 0.7896776564	-0.5866427646	 1.1511054275	-0.048655
H	 0.8319208826	 2.0566160859	 0.1476717716	 0.093672
H	-0.5734558958	 1.7927614341	-0.9056743223	 0.120046
H	-0.7642741771	 1.7269473531	 0.8498489694	 0.118613
H	 0.5192638796	-0.326017612	-2.0979346159	 0.067798
H	 3.1357780564	-0.5000693218	-1.387177252	 0.102037
H	 2.5988053323	 0.9421980586	-0.4813104327	 0.101403
H	 2.8846810926	-1.4975556233	 1.1043365969	 0.06875
H	 1.7917775456	-2.5892145696	-1.2087494234	 0.084734
H	-1.0230759075	-1.74623255	 1.5463129092	 0.109178
H	 0.4596279391	-2.4815797955	 2.2355253782	 0.083427
H	 0.8764184268	 0.0774904263	 2.0120285753	 0.069303
176.8638	214.5661	285.2319	330.5346	386.8415	417.3716	521.5388	611.5223	687.6975	729.8153	780.9357	799.025	846.8047	879.4994	901.7726	933.4824	946.6041	968.7717	996.215	1017.0102	1037.5363	1052.1257	1081.9933	1106.7919	1113.2382	1153.4526	1161.3758	1191.1948	1206.2975	1213.8676	1227.7999	1241.2473	1254.0946	1280.5506	1290.1796	1330.4202	1353.4821	1391.84	1455.6496	1482.5913	1503.3077	1505.0134	1515.0226	2947.9869	2989.0247	3055.0094	3072.0041	3093.0681	3095.4348	3108.2574	3113.396	3119.6439	3129.534	3132.8742
CN1C2CC3C2OCC13	CN1[C@H]2C[C@@H]3[C@H]2OC[C@H]13	
InChI=1S/C7H11NO/c1-8-5-2-4-6(8)3-9-7(4)5/h4-7H,2-3H2,1H3	InChI=1S/C7H11NO/c1-8-5-2-4-6(8)3-9-7(4)5/h4-7H,2-3H2,1H3/t4-,5-,6-,7+/m0/s1
