14
gdb 56085	7.50509	0.54178	0.50711	2.2162	81.29	-0.251	-0.0293	0.2217	2009.4885	0.098434	-436.669444	-436.659835	-436.658891	-436.705714	33.299	
N	-0.1090333805	 1.3027729729	-0.0958521077	-0.564205
C	 0.0642741138	-0.0455763948	-0.0091907961	 0.515972
O	 1.124453494	-0.6200526866	 0.0720828916	-0.39045
O	-1.1449493203	-0.668645238	-0.0592774536	-0.256544
C	-1.0586339867	-2.1029520774	-0.0267484474	-0.257902
C	-2.4020459895	-2.6506195137	-0.0049272283	 0.33791
C	-3.5037084794	-3.148508464	 0.0144846677	-0.179908
C	-4.7459401406	-3.7026652866	 0.0359465764	 0.294948
C	-5.8476762206	-4.1959462826	 0.0552290168	-0.553959
H	 0.6895340063	 1.8744925215	 0.1169207914	 0.272321
H	-1.027425788	 1.6910047598	 0.0333403242	 0.270219
H	-0.5051440971	-2.457369392	-0.9042243139	 0.15699
H	-0.4899500309	-2.4169248599	 0.8557547459	 0.159034
H	-6.8171677006	-4.6285591188	 0.071641633	 0.195575
16.4308	64.1336	134.9462	155.4224	195.5847	259.7952	299.8638	346.0899	393.0111	499.2411	528.491	542.5815	567.7071	593.6705	616.2177	638.5071	773.9323	782.584	939.259	1007.9792	1076.4584	1114.9039	1189.6309	1244.0014	1336.0395	1417.5973	1486.7217	1611.6856	1835.7678	2186.0223	2370.526	3036.8245	3070.405	3505.0943	3619.5796	3751.0367
NC(=O)OCC#CC#C	NC(=O)OCC#CC#C	
InChI=1S/C6H5NO2/c1-2-3-4-5-9-6(7)8/h1H,5H2,(H2,7,8)	InChI=1S/C6H5NO2/c1-2-3-4-5-9-6(7)8/h1H,5H2,(H2,7,8)
