17
gdb 72782	2.56457	1.83255	1.33195	3.6272	75.49	-0.2099	-0.0155	0.1944	980.3187	0.137363	-417.997179	-417.989342	-417.988398	-418.029186	30.409	
C	-0.1227299334	 1.5691971857	-0.3121187456	-0.419283
C	-0.0103320994	 0.0928628674	 0.0323605493	 0.16713
N	 1.1483811577	-0.5553081794	-0.7352194591	-0.360086
C	 1.9650879487	-0.6356769579	 0.5422137614	-0.228477
C	 0.6735363778	-0.3952625126	 1.29103956	 0.029687
C	-0.1624377935	-1.1974627172	 1.9670183666	-0.096238
N	-1.4346298697	-1.1646485307	 1.3669006301	-0.31444
C	-1.4169099146	-0.5422069905	 0.1216490317	 0.35039
O	-2.3586653856	-0.4267515065	-0.6272448767	-0.365646
H	 0.8646458363	 2.0372039384	-0.3185210417	 0.120115
H	-0.5704640584	 1.6728454608	-1.3046558681	 0.142351
H	-0.7587112404	 2.0937137071	 0.4075697792	 0.12205
H	 0.8793418413	-1.499789068	-1.0051832785	 0.232032
H	 2.47991019	-1.5848835027	 0.7131519855	 0.112501
H	 2.6939963102	 0.1792249302	 0.5658914489	 0.121768
H	 0.0495889427	-1.939638851	 2.7254075925	 0.12446
H	-2.2787255597	-1.5578134729	 1.7513803346	 0.261685
111.6656	211.126	215.7167	227.2587	297.8142	301.8125	396.057	508.9533	550.089	596.7516	641.1001	710.0836	748.6765	799.6904	813.1224	829.0479	892.8534	918.0108	929.2291	997.9553	1056.6497	1092.1756	1118.0336	1136.5232	1163.7874	1228.8117	1248.3	1287.2397	1343.0205	1358.0219	1389.2597	1405.9861	1479.7446	1485.5661	1511.863	1673.9362	1825.6785	3043.0067	3052.4583	3101.5072	3117.4987	3127.9369	3216.7285	3485.5121	3648.972
CC12NCC1=CNC2=O	C[C@@]12NC[C]1[CH]NC2=O	
InChI=1S/C6H8N2O/c1-6-4(3-8-6)2-7-5(6)9/h2,8H,3H2,1H3,(H,7,9)	InChI=1S/C6H8N2O/c1-6-4(3-8-6)2-7-5(6)9/h2,8H,3H2,1H3,(H,7,9)/t6-/m1/s1
