18
gdb 65748	2.8554	1.21159	1.10429	1.4074	73.14	-0.2495	-0.0346	0.2149	1166.1407	0.14586	-439.122137	-439.11289	-439.111946	-439.156463	33.555	
C	 0.2840084937	 1.594329613	 0.7711468444	-0.439478
C	 0.0992972828	 0.0939357369	 0.5013316658	 0.239646
C	 0.29494762	-0.2846057323	-1.0077111557	-0.255996
C	 1.7583197962	-0.7447341524	-0.7107517077	-0.346337
C	 1.3740805609	-0.7328575357	 0.7706088795	 0.361601
O	 1.751217817	-1.3089096228	 1.7511979693	-0.31125
N	-1.0450236773	-0.4544579118	 1.2007988299	-0.341155
C	-2.3313419052	-0.1577725134	 0.884974895	 0.152303
O	-2.6703408629	 0.5752033723	-0.0218297541	-0.333494
H	 1.1739283206	 1.9811325767	 0.2651956749	 0.117601
H	-0.5912696342	 2.1309197235	 0.3986931883	 0.162676
H	 0.3890627183	 1.7782096782	 1.8441006889	 0.1277
H	-0.348288195	-1.1147679173	-1.3003274149	 0.126108
H	 0.1711217366	 0.5367227373	-1.7124184339	 0.122727
H	 2.0955453302	-1.7065979591	-1.1023098329	 0.136406
H	 2.5096778005	 0.0132472627	-0.9523964048	 0.139138
H	-0.8507500649	-1.0603425114	 1.9851667042	 0.2591
H	-3.0516621672	-0.6740657346	 1.5504680138	 0.082705
60.5425	96.997	138.6064	194.0534	227.464	243.4347	268.2681	334.3629	415.8775	480.7731	536.2691	550.2246	647.9323	719.6961	740.6518	824.5402	903.0835	905.275	935.0664	975.0564	1032.3556	1047.8584	1082.7758	1130.8544	1166.4089	1181.9401	1214.0675	1225.976	1257.3546	1289.83	1395.0522	1425.5604	1443.6778	1476.4007	1483.9017	1501.1385	1513.3978	1793.6181	1882.0028	2936.1259	3043.0879	3065.8192	3097.3616	3115.1466	3123.7668	3137.8203	3159.1969	3604.5633
CC1(CCC1=O)NC=O	C[C@]1(CCC1=O)NC=O	
InChI=1S/C6H9NO2/c1-6(7-4-8)3-2-5(6)9/h4H,2-3H2,1H3,(H,7,8)	InChI=1S/C6H9NO2/c1-6(7-4-8)3-2-5(6)9/h4H,2-3H2,1H3,(H,7,8)/t6-/m1/s1
