19
gdb 88563	3.30775	1.30992	1.15259	2.4076	75.45	-0.2352	0.0663	0.3015	1121.5063	0.159067	-422.95958	-422.951459	-422.950514	-422.992524	31.771	
O	-0.1354913877	 1.4279298301	 0.240078224	-0.428423
C	-0.0566356175	 0.0542273753	 0.0125425886	 0.133483
C	-0.376704896	-0.8495719337	 1.1607658282	-0.311579
C	-1.3411008747	-0.7530852662	-0.0084636167	-0.210316
C	-2.5907004919	 0.0328421531	 0.0938513189	 0.504811
C	-3.3609514249	 0.4340865241	 1.3118971407	-0.322656
C	-4.0768619002	-0.2615009147	 0.1696547573	-0.209214
C	-4.2126455669	 0.7195958286	-0.9855834716	-0.088753
O	-2.791392948	 1.0246425962	-0.9442158269	-0.339344
H	-0.7551115994	 1.7943292921	-0.4036098496	 0.302521
H	 0.7307146851	-0.2533281444	-0.6749793388	 0.086424
H	 0.1880275441	-1.767064035	 1.2810382977	 0.112855
H	-0.6715662838	-0.361202688	 2.0824617042	 0.125746
H	-1.366731228	-1.5872431137	-0.7039192346	 0.092222
H	-3.2016960165	-0.1868241659	 2.187529838	 0.118626
H	-3.5365001327	 1.4874308663	 1.5149461808	 0.114632
H	-4.6044774606	-1.1990171729	 0.2804200797	 0.102927
H	-4.4745845245	 0.2522650382	-1.941481622	 0.110098
H	-4.8342457759	 1.6085243406	-0.8253624181	 0.105941
55.6897	124.1719	183.9246	260.0995	342.6855	385.0528	417.4131	446.8628	464.7833	541.3354	700.7501	751.5854	805.9438	833.726	852.5733	880.7924	932.9988	950.7354	968.3982	989.6408	998.9296	1018.7753	1028.1954	1066.8749	1075.7264	1092.1424	1127.7918	1130.7171	1144.7726	1171.1395	1179.7264	1228.934	1270.5533	1334.8047	1348.5412	1363.9891	1414.4979	1431.5133	1475.9434	1492.4788	1520.0559	3024.2048	3072.8103	3102.9589	3114.0325	3139.1226	3143.7078	3203.1139	3212.3138	3232.7494	3772.1412
OC1CC1C12CC1CO2	O[C@H]1C[C@H]1[C@]12C[C@H]1CO2	
InChI=1S/C7H10O2/c8-6-1-5(6)7-2-4(7)3-9-7/h4-6,8H,1-3H2	InChI=1S/C7H10O2/c8-6-1-5(6)7-2-4(7)3-9-7/h4-6,8H,1-3H2/t4-,5+,6-,7-/m0/s1
