15
gdb 123934	3.57488	1.66116	1.17392	5.0478	66.77	-0.2035	0.0115	0.215	977.0225	0.116935	-450.109038	-450.102427	-450.101483	-450.139996	26.097	
C	-0.0077714802	 1.4221846044	 0.0554147987	-0.189712
C	 1.4411650221	 1.9474038283	-0.0012392507	-0.097134
O	 2.2221966653	 1.480764737	 1.1226836501	-0.275907
C	 1.9625043275	 0.1785382939	 1.3321481121	 0.412295
C	 0.9324841879	-0.5819986396	 0.832887676	 0.243798
N	-0.1094461561	-0.0401796074	 0.0633687183	-0.396422
N	 1.0750026653	-1.8539381978	 1.2848669624	-0.272719
N	 2.1407446561	-1.9231690676	 2.0373386574	-0.133836
N	 2.6879784546	-0.6758354914	 2.0818360641	-0.308204
H	-0.4769560471	 1.8097390339	 0.9681261377	 0.132459
H	-0.5642277399	 1.8215713868	-0.7964014608	 0.119758
H	 1.9324176182	 1.6187825472	-0.925946384	 0.116256
H	 1.46938164	 3.0372632474	 0.0537756318	 0.127341
H	-0.1693334897	-0.4417028875	-0.8648103723	 0.240652
H	 3.514255806	-0.5048320876	 2.6307990692	 0.281376
122.172	240.695	339.0225	361.7485	427.5772	468.512	501.6831	535.44	649.2111	695.3254	720.8022	730.8337	774.6096	872.711	938.8547	1007.0668	1020.0112	1044.6216	1054.6875	1127.1262	1226.5064	1245.7299	1279.1076	1288.1392	1344.9289	1377.6845	1386.2301	1399.6232	1451.4071	1476.1559	1490.6983	1561.9266	1669.0901	3026.3099	3039.0398	3105.4856	3121.1722	3538.7097	3668.04
C1COC2=C(N1)N=NN2	C1COc2c(N1)nn[nH]2	
InChI=1S/C4H6N4O/c1-2-9-4-3(5-1)6-8-7-4/h1-2H2,(H2,5,6,7,8)	InChI=1S/C4H6N4O/c1-2-9-4-3(5-1)6-8-7-4/h1-2H2,(H2,5,6,7,8)
