18
gdb 26290	3.64081	1.2849	0.96238	2.3714	85.59	-0.2054	-0.0315	0.1739	1211.5337	0.149331	-398.173595	-398.164974	-398.164029	-398.207535	30.892	
C	 0.0128500153	 1.4239152237	 0.0094851745	-0.335889
N	 0.0011411227	-0.0221535078	-0.0916968442	-0.131326
C	 1.2644251888	-0.7143434036	 0.1088959221	-0.342658
C	-1.1856168605	-0.7089034602	-0.0243200062	 0.419661
N	-1.1397376434	-2.0498742401	-0.0012100287	-0.335534
C	-2.3018311229	-2.7000952416	 0.018445061	-0.010213
C	-3.5260961897	-2.0474868002	 0.0266528121	-0.048415
N	-3.5875950333	-0.7096971794	 0.0291873052	-0.230503
C	-2.4424650564	-0.0469348288	 0.0091767218	-0.098832
H	 1.02724794	 1.7792871604	-0.1810367037	 0.130241
H	-0.6443562836	 1.8795088875	-0.7384495685	 0.138911
H	-0.2939697247	 1.7871807845	 1.0021667263	 0.12459
H	 1.5934410073	-0.6789045147	 1.1583624578	 0.117111
H	 1.1505021131	-1.7573044994	-0.1790929585	 0.167237
H	 2.0372433038	-0.247528488	-0.5096973744	 0.120251
H	-2.248157778	-3.7866771681	 0.0335865851	 0.107948
H	-4.4638512242	-2.5935454498	 0.0438247878	 0.105182
H	-2.510278124	 1.0352979557	 0.0261381603	 0.102237
60.577	91.2394	129.7175	156.803	231.6809	274.9985	391.605	437.725	489.6389	547.3788	562.0256	636.7741	781.873	798.0084	852.0667	920.1719	975.5134	977.8328	1009.7925	1087.0584	1089.463	1132.284	1166.0743	1187.5292	1215.2367	1256.77	1281.6929	1352.8118	1400.1161	1437.2284	1452.2493	1478.7426	1490.7049	1495.715	1505.7005	1518.9798	1551.0653	1571.7177	1619.6194	2987.3715	2994.8494	3066.9928	3074.623	3125.555	3147.2506	3172.1068	3179.3829	3184.3419
CN(C)C1=NC=CN=C1	CN(C)c1nccnc1	
InChI=1S/C6H9N3/c1-9(2)6-5-7-3-4-8-6/h3-5H,1-2H3	InChI=1S/C6H9N3/c1-9(2)6-5-7-3-4-8-6/h3-5H,1-2H3
