16
gdb 13124	4.55594	1.13556	0.96391	1.0625	62.99	-0.2621	-0.0367	0.2254	1192.1944	0.127945	-420.851956	-420.843555	-420.842611	-420.885805	28.706	
C	 0.073516775	 1.3789826812	 0.1393642755	-0.229668
O	-0.0417035595	-0.0172826743	-0.0126993545	-0.231421
C	 0.7308631177	-0.5161789061	-1.076681325	-0.063841
C	 0.4957196627	-2.0086276178	-1.190124786	 0.000092
O	-0.7292822034	-2.3898220897	-1.8637345034	-0.285744
C	-0.056709422	-3.1597191198	-2.8802189547	-0.187572
C	 1.2911492411	-2.7594499347	-2.2708834894	 0.324733
O	 2.4439383894	-2.9196976607	-2.5287108504	-0.267905
H	 1.1121594805	 1.6826699434	 0.3450677352	 0.106701
H	-0.2708904429	 1.9163451232	-0.7578640322	 0.109131
H	-0.5538710973	 1.6658004093	 0.9862035871	 0.132852
H	 0.463753638	-0.0255168116	-2.0270050183	 0.096537
H	 1.8082305822	-0.347814315	-0.9017981099	 0.105289
H	 0.5650200482	-2.4637475694	-0.1922871926	 0.120118
H	-0.2878200834	-4.2319436175	-2.8340759725	 0.134646
H	-0.2446043563	-2.7912774304	-3.8966499088	 0.136054
66.1615	95.2324	116.4925	131.7105	232.3544	271.2626	343.7084	393.3209	523.6016	554.1745	693.1615	824.9327	872.7944	944.2953	1010.2339	1015.4458	1068.7641	1085.1014	1116.4536	1137.414	1165.6828	1184.2237	1217.8367	1242.1853	1261.951	1292.2023	1340.1577	1417.4939	1476.16	1481.5402	1486.2116	1495.5389	1518.615	1922.7541	2952.3873	2974.1647	2991.0977	3014.7708	3019.3703	3026.814	3063.1935	3120.3102
COCC1OCC1=O	COC[C@H]1OCC1=O	
InChI=1S/C5H8O3/c1-7-3-5-4(6)2-8-5/h5H,2-3H2,1H3	InChI=1S/C5H8O3/c1-7-3-5-4(6)2-8-5/h5H,2-3H2,1H3/t5-/m1/s1
