16
gdb 7076	6.55607	0.88539	0.84234	2.142	66.75	-0.2535	-0.0419	0.2116	1302.3826	0.128057	-379.918912	-379.909973	-379.909029	-379.953253	30.374	
C	-0.1424693289	 1.5810179005	-0.0025843923	-0.345564
N	-0.0489967166	 0.1242455255	 0.0617647473	-0.076059
C	 0.6622415296	-0.3254149682	 1.2473719447	-0.234928
C	 2.1519839027	-0.024247834	 1.1396971791	 0.150203
O	 2.8661456505	 0.1880071259	 2.0821280226	-0.230403
C	-1.3471521635	-0.5225519025	-0.0794846807	-0.278824
C	-1.934397812	-0.2859681571	-1.4044536304	 0.277322
N	-2.4098462342	-0.097243242	-2.439837006	-0.301262
H	 0.8603727812	 2.0151419392	 0.0378583034	 0.138823
H	-0.6022055819	 1.8817042505	-0.9470176906	 0.155881
H	-0.7331609349	 2.0061679735	 0.8289174926	 0.108799
H	 0.2809798079	 0.091292596	 2.1959419599	 0.115622
H	 0.580703711	-1.4193973034	 1.3168045197	 0.132567
H	 2.5334662097	-0.0482218549	 0.0942574906	 0.096668
H	-1.2220324011	-1.6036712952	 0.0447081851	 0.156116
H	-2.0840002896	-0.1960748337	 0.6792500051	 0.135039
52.901	78.0551	117.4275	157.7652	237.2346	251.6446	335.5991	358.7117	391.8965	413.7758	476.75	621.1678	761.5615	872.4378	947.2018	1002.2054	1047.8689	1067.311	1076.3804	1152.6191	1182.6895	1216.6742	1284.338	1309.4563	1346.6751	1391.4527	1407.2874	1455.0398	1466.7948	1482.0618	1494.7861	1503.5428	1843.5372	2367.6313	2889.6328	2926.4638	2949.4381	2960.6169	3034.7001	3067.7792	3081.7003	3127.5752
CN(CC=O)CC#N	CN(CC=O)CC#N	
InChI=1S/C5H8N2O/c1-7(3-2-6)4-5-8/h5H,3-4H2,1H3	InChI=1S/C5H8N2O/c1-7(3-2-6)4-5-8/h5H,3-4H2,1H3
