19
gdb 86460	1.76764	1.6236	0.89873	0.5267	72.04	-0.2416	-0.0208	0.2208	1265.164	0.159015	-460.193055	-460.184177	-460.183233	-460.22655	33.874	
O	-0.1088794198	 1.4310863088	-0.0278932754	-0.431169
C	-0.0050954436	 0.0164682523	 0.0089894803	 0.09766
C	-1.4264442961	-0.5349858711	 0.0871252161	-0.185202
C	-1.4426975284	-2.0614167984	 0.1007225912	 0.097658
O	-2.8029308644	-2.4628583638	 0.144053809	-0.431168
C	-0.7229864208	-2.6334927397	-1.1376318978	-0.318014
C	 0.6750212884	-2.0500321788	-1.2971322894	 0.363405
O	 1.658084251	-2.7367285324	-1.4453982182	-0.301192
C	 0.7328245785	-0.5293373737	-1.2304986749	-0.318015
H	 0.7812790689	 1.7976683638	-0.0345957186	 0.284194
H	 0.5480388277	-0.2985740961	 0.9099437063	 0.077249
H	-1.9214954017	-0.1528909564	 0.9839290069	 0.118418
H	-1.9990165856	-0.1769984962	-0.7770908587	 0.114177
H	-0.9155806549	-2.4141126881	 1.0033198926	 0.077249
H	-2.8311954753	-3.4237472023	 0.1960422534	 0.284195
H	-0.644494257	-3.7236271473	-1.0952805177	 0.109127
H	-1.3201093251	-2.3635960363	-2.0191726617	 0.126151
H	 0.2332206899	-0.1185304853	-2.1182777817	 0.126151
H	 1.7811107985	-0.217787029	-1.250006032	 0.109127
95.3829	122.8883	161.9346	278.8479	285.8822	297.9089	338.5613	382.5857	392.5854	459.7458	486.0306	496.0333	546.8072	629.3382	835.7741	853.8297	894.3013	898.3237	921.993	1035.5867	1061.4914	1066.4698	1071.2586	1116.826	1122.7063	1196.7646	1218.4833	1235.2059	1253.6535	1285.8031	1289.3676	1299.6081	1325.0705	1378.371	1383.6036	1438.3965	1443.9663	1465.2703	1471.2579	1499.1863	1817.4699	2952.9428	2961.5641	3024.0852	3029.5984	3046.6316	3096.4573	3097.9885	3104.1812	3815.7296	3815.836
OC1CC(O)CC(=O)C1	O[C@H]1C[C@@H](O)CC(=O)C1	
InChI=1S/C6H10O3/c7-4-1-5(8)3-6(9)2-4/h4-5,7-8H,1-3H2	InChI=1S/C6H10O3/c7-4-1-5(8)3-6(9)2-4/h4-5,7-8H,1-3H2/t4-,5+
