15
gdb 28738	3.48753	1.21026	0.90162	0.9957	74.69	-0.1821	0.0062	0.1883	1223.6522	0.114407	-450.151329	-450.142906	-450.141962	-450.18553	30.203	
N	-0.3226802245	 0.6998845241	 1.249744564	-0.599294
C	-0.2265478586	-0.1848074433	 0.1862129783	 0.335816
C	-0.5245625772	-0.1715409529	-1.135564776	-0.190146
N	-0.2925103607	-1.4462054037	-1.6667227625	-0.356732
C	 0.1270285965	-2.1296193871	-0.6543739944	 0.515376
N	 0.4759018812	-3.4632440361	-0.6902080023	-0.391238
C	 1.0931524668	-4.2482968867	 0.2612044796	 0.074605
N	 1.4410173319	-3.8387260382	 1.4135136986	-0.439213
O	 0.1930431535	-1.4506438537	 0.5147578368	-0.170541
H	 0.4463909831	 0.6048056202	 1.9029703693	 0.262748
H	-0.4042452245	 1.6591561704	 0.940760297	 0.25719
H	-0.8804219244	 0.6429671836	-1.7441265812	 0.109023
H	 0.3144012791	-3.8720956854	-1.5964398382	 0.272289
H	 1.2299410285	-5.2658233133	-0.1240480237	 0.09475
H	 1.8660332294	-4.6027269278	 1.9341800845	 0.225367
26.8957	132.6539	155.8368	163.7266	264.7423	315.0616	355.4231	447.56	516.8713	595.2499	651.2793	695.842	725.539	756.7164	777.8357	798.9352	825.7008	985.3201	1008.0744	1041.9404	1104.1178	1112.949	1152.7062	1231.155	1282.4469	1356.344	1415.7576	1458.4813	1492.9561	1621.9456	1665.4921	1694.9323	1732.6395	3046.2886	3272.5642	3512.7622	3532.1881	3635.8827	3656.2174
NC1=CN=C(NC=N)O1	Nc1cnc(NC=N)o1	
InChI=1S/C4H6N4O/c5-2-8-4-7-1-3(6)9-4/h1-2H,6H2,(H2,5,7,8)	InChI=1S/C4H6N4O/c5-2-8-4-7-1-3(6)9-4/h1-2H,6H2,(H2,5,7,8)
