13
gdb 127188	4.37856	1.1297	0.90311	1.2838	63.11	-0.2769	-0.0817	0.1952	1170.228	0.088608	-486.026738	-486.018933	-486.017989	-486.059832	26.948	
C	-0.0078815153	 1.4705991322	-0.0188648812	-0.353561
N	-0.0051379773	 0.0071583429	-0.0085024302	-0.195867
C	-0.0152714124	-0.6868869424	 1.2013542184	 0.15914
O	-0.0264347973	-0.1402116993	 2.2746603631	-0.305297
C	 0.0074276536	-0.6522432791	-1.2093812032	 0.571831
N	 0.0169641426	-0.0617871321	-2.3762723201	-0.201881
O	 0.0273581799	-1.1050553192	-3.2590513051	-0.138615
N	 0.0236324323	-2.2908726951	-2.5629020081	 0.059264
N	 0.0116237164	-2.0327517566	-1.3310504883	-0.230849
H	 0.8851462519	 1.8453508986	-0.5254988163	 0.156666
H	-0.8916342101	 1.8418139495	-0.5439987877	 0.156703
H	-0.0192761041	 1.7952748827	 1.0198098984	 0.178734
H	-0.0118605501	-1.776511782	 1.0582509103	 0.14373
69.5249	133.2557	144.3126	190.6896	292.7644	316.4489	385.2905	468.448	485.2683	654.6275	776.6238	776.9947	811.7782	940.398	980.9754	1039.2847	1065.1005	1091.1502	1161.4096	1175.6963	1310.6362	1362.5739	1432.7153	1441.6821	1493.692	1505.8671	1520.9434	1636.0065	1815.3528	3051.4278	3057.8076	3123.3131	3182.4934
CN(C=O)C1=NON=N1	CN(C=O)c1nonn1	
InChI=1S/C3H4N4O2/c1-7(2-8)3-4-6-9-5-3/h2H,1H3	InChI=1S/C3H4N4O2/c1-7(2-8)3-4-6-9-5-3/h2H,1H3
