20
gdb 99371	7.7438	0.51711	0.49058	1.9213	79.26	-0.2552	-0.0198	0.2354	2209.9197	0.167541	-440.306509	-440.295452	-440.294508	-440.345692	36.454	
C	-0.0838106036	 1.4816082732	 0.1499148203	-0.376078
C	 0.0403114034	-0.0272499655	-0.0462337087	-0.276759
C	 0.7619693576	-0.4178537416	-1.3275593807	 0.371763
O	 1.1912812777	 0.4061881912	-2.1051087572	-0.30008
C	 0.9201493339	-1.9090858371	-1.587858334	-0.313739
C	 1.6529145567	-2.1970573752	-2.8876246178	-0.074022
O	 1.7372099733	-3.6184257083	-3.0172635107	-0.187733
C	 2.3682836112	-4.0759662847	-4.1148222215	 0.128316
N	 2.4829149518	-5.3184351041	-4.3058249997	-0.439647
H	 0.9014978161	 1.9531805462	 0.1828055897	 0.132579
H	-0.6344907174	 1.9385588037	-0.6760790402	 0.132517
H	-0.6076431183	 1.7069041749	 1.082769662	 0.112916
H	 0.5723744826	-0.4957041725	 0.7934376512	 0.124612
H	-0.9467075273	-0.5101788211	-0.0574310568	 0.124569
H	 1.4516233138	-2.3696746695	-0.7455937931	 0.138422
H	-0.0701276085	-2.3815450982	-1.6009375693	 0.138552
H	 1.1116598446	-1.7649442056	-3.7372370486	 0.123863
H	 2.654617068	-1.7522758989	-2.87013877	 0.123701
H	 2.7420966532	-3.2780105048	-4.7719654644	 0.087357
H	 2.9829964011	-5.4897718319	-5.1756519404	 0.228892
25.5473	38.2862	62.4541	70.8882	89.3576	133.1061	188.8776	217.5408	271.9154	317.8127	470.7507	472.2013	603.7837	668.5658	716.1108	816.2086	825.2236	838.7631	986.9252	989.798	1001.9859	1023.4618	1045.7623	1109.454	1124.253	1130.5841	1151.8322	1213.2003	1283.0053	1292.8448	1312.8357	1327.5194	1378.1565	1409.6132	1414.4777	1433.4107	1448.33	1464.1286	1492.0509	1497.9103	1513.1602	1749.8501	1800.101	3015.9063	3017.6155	3032.4966	3039.7583	3043.5958	3053.0286	3062.0758	3083.9738	3124.8245	3128.6467	3518.0913
CCC(=O)CCOC=N	CCC(=O)CCO[CH][NH]	
InChI=1S/C6H11NO2/c1-2-6(8)3-4-9-5-7/h5,7H,2-4H2,1H3	InChI=1S/C6H11NO2/c1-2-6(8)3-4-9-5-7/h5,7H,2-4H2,1H3
