16
gdb 48759	3.11787	1.28256	1.04119	2.4088	69.81	-0.2572	-0.0397	0.2176	1123.9966	0.12386	-437.903601	-437.895824	-437.89488	-437.936338	29.201	
O	-0.5133854113	 0.5399085601	 0.5280964662	-0.263149
C	 0.3206742561	 0.8502732009	-0.2858888857	 0.116487
C	 1.3195571852	 1.9312360546	-0.0793927712	 0.206506
C	 1.4752467905	 2.5735072736	 1.2793858515	-0.415223
C	 1.975526644	 3.998755916	 1.007033455	 0.377339
O	 2.4214309374	 4.753046134	 1.828099875	-0.291073
C	 1.8208318924	 4.3091099257	-0.494171996	-0.348231
C	 1.5400708384	 2.9790251363	-1.1577622764	-0.061816
N	 2.4853200169	 1.8877992426	-0.984309759	-0.361194
H	 0.4007166493	 0.3543373618	-1.2773187117	 0.090449
H	 0.5062702709	 2.6097354012	 1.7917749304	 0.161924
H	 2.1650566264	 2.0477126492	 1.9467940891	 0.142804
H	 0.9817431827	 5.0038094169	-0.6250683857	 0.146205
H	 2.7146510394	 4.8147445082	-0.8733971087	 0.144362
H	 0.9807922311	 2.9554310266	-2.0881026299	 0.113031
H	 3.3314733308	 2.1828583522	-0.499976613	 0.241581
74.3775	111.0331	194.6545	238.5379	352.8296	400.1433	465.3476	473.7521	496.8592	610.26	648.6553	757.1571	774.5377	801.207	835.7554	899.5101	965.8079	1016.754	1031.9947	1055.4691	1101.3271	1121.6208	1142.0672	1182.7265	1205.5306	1253.124	1275.4543	1313.841	1348.8947	1397.2589	1424.7258	1446.2462	1454.5838	1817.2097	1854.0265	2908.04	3042.7056	3051.3571	3088.6594	3093.3446	3159.0271	3481.6469
O=CC12CC(=O)CC1N2	O=C[C@]12CC(=O)C[C@H]1N2	
InChI=1S/C6H7NO2/c8-3-6-2-4(9)1-5(6)7-6/h3,5,7H,1-2H2	InChI=1S/C6H7NO2/c8-3-6-2-4(9)1-5(6)7-6/h3,5,7H,1-2H2/t5-,6-/m1/s1
