19
gdb 70172	3.45646	1.29538	1.08693	3.8305	83.05	-0.2337	-0.0485	0.1852	1151.6328	0.159973	-385.922789	-385.914705	-385.913761	-385.955242	31.788	
C	 0.139035136	 1.5458642294	-0.0590677971	-0.4793
C	-0.0257388815	 0.0410290517	 0.02535413	 0.301499
C	-0.9093857446	-0.5344190991	 1.1344442424	-0.31626
C	 0.5791231165	-0.7233476588	 1.1915805181	-0.083351
C	 1.2268677471	-2.0708556419	 0.9453941988	-0.337729
C	 0.7845209833	-2.8010871335	-0.3243014535	 0.351959
O	 0.9188483781	-4.0049027335	-0.4313451788	-0.338241
C	 0.2614306119	-1.9724078865	-1.4244211935	-0.177758
C	-0.0690955939	-0.6814330184	-1.2649046711	-0.090371
H	 1.0871954176	 1.8184532664	-0.5355935787	 0.124739
H	-0.6708332558	 1.9992986108	-0.6425056738	 0.121771
H	 0.1243890601	 1.9982879602	 0.9366888845	 0.119861
H	-1.3612309033	 0.1708175424	 1.8245347122	 0.11563
H	-1.5343788123	-1.3831549353	 0.8779087773	 0.125586
H	 1.0953289854	-0.1081511293	 1.9235121371	 0.091516
H	 2.3134405156	-1.9395586058	 0.8460642852	 0.130968
H	 1.080528824	-2.7506545568	 1.7907715918	 0.130846
H	 0.1505541489	-2.474445464	-2.3800343662	 0.10627
H	-0.425866123	-0.1116822882	-2.1218807147	 0.102366
75.1419	183.5953	220.6831	246.4436	313.0056	354.9022	392.1979	450.3273	468.1735	562.8593	616.7063	675.9612	719.2121	767.7838	811.876	859.1486	888.4714	932.4909	946.7453	969.1861	1013.1138	1044.1213	1059.7461	1092.5222	1114.6406	1126.9141	1176.5233	1219.5633	1247.0624	1250.6182	1325.4875	1332.8091	1412.5568	1419.4822	1423.2176	1454.3414	1485.3674	1490.3264	1501.2286	1673.1797	1768.6116	3020.8264	3026.048	3080.219	3087.0343	3105.9834	3126.9125	3136.8731	3141.0329	3190.8463	3217.8809
CC12CC1CC(=O)C=C2	C[C@]12C[C@H]1CC(=O)C=C2	
InChI=1S/C8H10O/c1-8-3-2-7(9)4-6(8)5-8/h2-3,6H,4-5H2,1H3	InChI=1S/C8H10O/c1-8-3-2-7(9)4-6(8)5-8/h2-3,6H,4-5H2,1H3/t6-,8+/m1/s1
