19
gdb 57063	2.21842	1.3336	1.15359	3.5	75.02	-0.2528	0.019	0.2719	1178.0066	0.159184	-419.191135	-419.181578	-419.180634	-419.226323	34.211	
C	-0.5475793179	 1.3712575967	-0.1595689604	-0.428764
C	 0.0695042282	-0.0107349073	-0.0662783229	 0.146321
O	 1.3056070733	-0.1258829192	-0.8100667327	-0.286757
C	 1.9892552353	-0.7213601172	 0.3069459429	-0.092394
C	 0.7670655471	-0.513852376	 1.2303564231	-0.058392
C	 0.9196171396	 0.4171771661	 2.4434917791	-0.141629
N	 1.4619224988	-0.3480992103	 3.5742162167	-0.501608
C	 1.7263741734	 1.6248026357	 2.1577311237	 0.271481
N	 2.3944717794	 2.5560421494	 2.0009674925	-0.33936
H	 0.1388531411	 2.1512196695	 0.176433662	 0.15156
H	-0.8074521369	 1.5774287898	-1.2025554063	 0.134316
H	-1.4696518119	 1.4231718245	 0.4303538064	 0.114883
H	-0.6568168966	-0.7540192847	-0.4269163558	 0.078029
H	 2.2505376044	-1.7707798911	 0.1214445819	 0.102867
H	 2.8986245364	-0.1665240633	 0.569244334	 0.118007
H	 0.3387147265	-1.4363510876	 1.6259064468	 0.104989
H	-0.0804123156	 0.7610820965	 2.7349738151	 0.135898
H	 2.4020568059	-0.6657819009	 3.3512144109	 0.243601
H	 1.5543704594	 0.2542961593	 4.3874345929	 0.246951
39.8589	67.809	142.1756	174.9901	230.3938	240.4414	251.9422	311.9868	369.5096	405.2709	474.5956	597.4764	626.6232	751.5202	779.4761	864.185	880.5461	913.098	940.3006	1002.604	1020.7918	1055.1289	1095.7583	1110.7491	1135.8753	1167.7656	1173.7302	1194.8718	1269.8305	1290.905	1318.969	1357.1084	1379.2274	1386.7017	1396.1768	1412.8856	1484.9572	1501.8305	1524.4484	1664.6859	2340.6728	2986.7421	3012.9431	3038.5336	3041.3796	3054.6473	3098.8204	3105.1425	3136.157	3486.7305	3564.9457
CC1OCC1C(N)C#N	C[C@H]1OC[C@H]1[C@@H](N)C#N	
InChI=1S/C6H10N2O/c1-4-5(3-9-4)6(8)2-7/h4-6H,3,8H2,1H3	InChI=1S/C6H10N2O/c1-4-5(3-9-4)6(8)2-7/h4-6H,3,8H2,1H3/t4-,5-,6+/m1/s1
