21
gdb 76684	3.31092	0.87276	0.81886	2.3188	79.47	-0.248	0.0684	0.3164	1501.8445	0.180859	-424.18374	-424.173885	-424.17294	-424.219423	35.827	
C	 0.0277741894	 1.5888672657	-0.2843968077	-0.416071
C	-0.0035519156	 0.1127543937	 0.0503869795	-0.076772
C	 1.2616648333	-0.721771225	 0.0183166546	 0.072067
O	 2.5000065987	-0.0924795381	-0.1730103687	-0.419024
C	 0.5851732775	-0.4513538414	 1.334861191	-0.036668
C	 1.2526432753	 0.4145426673	 2.3869749131	-0.253375
C	 2.2093369501	-0.393486179	 3.2329954582	 0.108506
C	 2.3722064562	-0.1663983217	 4.6730734853	-0.18242
O	 1.6200520981	-1.2817384032	 4.1916233607	-0.242364
H	 1.0100937451	 2.0261987344	-0.0923916812	 0.126673
H	-0.2023592799	 1.7481333341	-1.3440982376	 0.110907
H	-0.7119144609	 2.1482626965	 0.2982706157	 0.120073
H	-0.8978563274	-0.3984112851	-0.2981651592	 0.082667
H	 1.2048931927	-1.7302994263	-0.3905720242	 0.083434
H	 2.5835045919	 0.1284311803	-1.1065381588	 0.289752
H	 0.0505425536	-1.2952199727	 1.7622475039	 0.099678
H	 1.8109617059	 1.2296490899	 1.9187843183	 0.113825
H	 0.4918255895	 0.862178796	 3.0373995598	 0.097168
H	 3.0467636694	-0.8298316728	 2.686955431	 0.103138
H	 3.3146699684	-0.4116780657	 5.1613190213	 0.110517
H	 1.7891783386	 0.6140142729	 5.1617504652	 0.108288
40.5183	74.7739	113.81	158.7415	178.7201	235.5547	254.2446	306.6081	382.193	406.6965	491.1933	561.436	604.9796	761.5254	788.574	794.0069	859.8118	883.6928	925.9059	961.5426	978.0836	1008.6804	1063.3652	1091.2516	1109.4123	1124.5745	1153.2645	1157.3154	1158.6616	1179.723	1181.407	1249.8194	1257.4803	1291.8278	1293.797	1313.1231	1380.3152	1391.4804	1416.9321	1443.5339	1457.0739	1468.5699	1500.0972	1506.309	1530.7582	3031.1471	3037.6404	3076.8969	3085.1163	3094.9078	3095.5814	3110.0942	3118.2186	3132.4508	3148.8591	3161.7245	3803.9828
CC1C(O)C1CC1CO1	C[C@H]1[C@@H](O)[C@H]1C[C@H]1CO1	
InChI=1S/C7H12O2/c1-4-6(7(4)8)2-5-3-9-5/h4-8H,2-3H2,1H3	InChI=1S/C7H12O2/c1-4-6(7(4)8)2-5-3-9-5/h4-8H,2-3H2,1H3/t4-,5+,6+,7-/m1/s1
