18
gdb 46209	2.99051	1.54349	1.22171	2.3924	77.07	-0.2282	-0.0229	0.2053	1052.7062	0.1482	-401.905692	-401.897933	-401.896988	-401.938144	29.946	
O	 0.0463331653	 0.0400708036	-0.3788842582	-0.316525
C	 0.0356595739	 1.2096650386	-0.1181695901	 0.31882
C	-1.0224861362	 2.2147355102	 0.38104657	-0.282628
N	 0.0430598401	 3.2670354321	 0.4335850783	-0.398005
C	 1.0430124726	 2.3259561411	-0.1179725173	 0.255577
C	 2.4850452148	 2.3547939455	 0.3327367284	-0.104012
C	 3.2206200811	 1.1011439913	-0.1559480883	-0.233839
C	 2.8411132904	 1.4780852609	-1.6290860521	-0.232857
C	 2.1139595139	 2.722206357	-1.1017542559	-0.143284
H	-1.8283403434	 2.393934047	-0.3398011996	 0.127795
H	-1.4617396673	 1.9870465879	 1.3573718579	 0.136811
H	-0.1577065992	 4.0254296854	-0.2112292493	 0.223313
H	 2.7472123416	 2.9973566535	 1.1647330858	 0.100411
H	 4.2971369127	 1.1499911498	 0.0199568104	 0.10743
H	 2.8405425178	 0.1469520872	 0.2157855762	 0.123191
H	 3.7165098835	 1.7321026778	-2.2304579969	 0.107514
H	 2.2287036803	 0.7578254367	-2.1761775323	 0.120768
H	 2.063668118	 3.6957979245	-1.5783844568	 0.089522
92.8801	117.6629	148.8656	276.9629	314.9066	367.5362	445.3857	535.0988	625.5762	692.3482	722.02	774.5305	817.6788	855.7623	860.0193	914.763	943.3634	961.4663	976.7797	991.9346	1017.8279	1039.7549	1060.4142	1086.5868	1089.16	1144.9817	1180.1005	1222.2782	1234.8761	1241.5291	1262.7468	1283.9295	1293.7482	1356.0289	1400.5334	1470.7687	1476.9526	1498.6843	1885.369	3038.8284	3066.4024	3072.3774	3090.157	3112.7054	3129.241	3161.8755	3189.4927	3509.2705
O=C1CNC11C2CCC12	O=C1CN[C@]21[C@H]1CC[C@@H]21	
InChI=1S/C7H9NO/c9-6-3-8-7(6)4-1-2-5(4)7/h4-5,8H,1-3H2	InChI=1S/C7H9NO/c9-6-3-8-7(6)4-1-2-5(4)7/h4-5,8H,1-3H2/t4-,5+,7+
