23
gdb 60007	3.62572	0.71813	0.7019	4.1034	87.68	-0.2353	0.0227	0.258	1733.4644	0.203667	-384.476441	-384.465373	-384.464429	-384.513286	39.527	
C	 0.782962737	-0.4126007654	-1.2790032244	-0.3757
C	 0.0298989704	 0.0391018454	-0.0224233475	 0.010256
C	-0.047629188	 1.568942449	 0.0690163101	-0.388491
C	-1.3888341586	-0.5525696468	 0.0267454453	-0.123249
N	-1.4252392221	-2.017114325	 0.0110330512	-0.064265
C	-0.9763622718	-2.6133484124	 1.2647030575	-0.342655
C	-2.7432868973	-2.5050312278	-0.3701163522	-0.276633
C	-2.7377717309	-3.9440739674	-0.6650708529	 0.272177
N	-2.7491464768	-5.0766843386	-0.8913952962	-0.308767
H	 1.813804954	-0.0445490835	-1.2722428348	 0.109617
H	 0.8015015054	-1.5022271775	-1.3554399566	 0.13041
H	 0.2977253083	-0.0232917985	-2.1826493107	 0.107788
H	 0.583728977	-0.3137447526	 0.857358776	 0.078734
H	-0.5941994598	 1.9873173721	-0.78480083	 0.113486
H	-0.5558547648	 1.8941475108	 0.9830571547	 0.11184
H	 0.9536169256	 2.0105058805	 0.0672976046	 0.11621
H	-1.9244703444	-0.1496638449	 0.9090118232	 0.077509
H	-1.9334827282	-0.1981528632	-0.8577866058	 0.096037
H	-1.6046845944	-2.3153260728	 2.1253908461	 0.096622
H	-0.9980522087	-3.7030939831	 1.1836079483	 0.148149
H	 0.0526792763	-2.3164179017	 1.4741076161	 0.132664
H	-3.5188943642	-2.3236899896	 0.400546233	 0.125766
H	-3.069981264	-1.9809002871	-1.2745938749	 0.152495
41.2176	54.8902	122.8452	130.2893	208.8051	215.5721	229.9124	245.3537	290.4906	357.3474	370.6074	394.6364	402.3953	439.0936	446.361	611.7597	825.74	860.927	908.9565	929.303	941.5358	969.343	974.7341	1005.6819	1056.3422	1122.2914	1134.1854	1163.1939	1196.4884	1201.5695	1243.1729	1297.6323	1320.4149	1339.7618	1369.7945	1377.7335	1398.4689	1411.3562	1430.3915	1463.8637	1471.0596	1486.8707	1488.1471	1495.4806	1500.4471	1502.3769	1503.7131	1512.748	2365.3483	2905.2864	2912.3086	2933.2841	3016.0078	3024.7406	3029.1084	3040.2863	3069.7696	3089.2139	3089.9834	3095.2884	3104.1891	3125.2796	3134.0551
CC(C)CN(C)CC#N	CC(C)CN(C)CC#N	
InChI=1S/C7H14N2/c1-7(2)6-9(3)5-4-8/h7H,5-6H2,1-3H3	InChI=1S/C7H14N2/c1-7(2)6-9(3)5-4-8/h7H,5-6H2,1-3H3
