15
gdb 32047	3.83314	1.21812	0.92979	3.8132	71.83	-0.2343	-0.0325	0.2018	1192.27	0.114712	-454.022071	-454.014357	-454.013413	-454.054579	28.291	
C	 0.0501812585	 1.3980254781	 0.0067119832	-0.234357
O	-0.0388359739	-0.0340896624	 0.0037493032	-0.257922
C	-1.2656931374	-0.5540101718	 0.0116461708	 0.556351
N	-2.3381854782	 0.177816889	 0.0216242463	-0.397431
C	-3.5198036977	-0.5192320369	 0.0286560982	 0.010648
C	-3.6326118476	-1.8734484564	 0.0259623068	-0.242712
C	-2.4449109293	-2.7005208654	 0.0149518049	 0.415529
O	-2.3611941871	-3.9118733039	 0.0110276001	-0.383362
N	-1.2654802602	-1.9092373405	 0.0081036382	-0.414312
H	 1.1176552257	 1.617279247	-0.0012209135	 0.139815
H	-0.4372261772	 1.814461924	-0.8773971254	 0.149211
H	-0.4230353595	 1.8098878259	 0.9006280676	 0.149186
H	-4.410247942	 0.103487718	 0.0369420573	 0.120823
H	-4.5927268932	-2.3712080846	 0.0318272504	 0.117993
H	-0.3848879208	-2.4074063901	 0.0001422019	 0.270541
100.1887	147.6584	188.0502	227.5478	228.2782	393.9062	429.4054	508.626	536.6293	642.1298	680.9853	739.9752	781.304	785.3687	848.4441	921.255	998.7797	1010.6391	1069.9927	1104.148	1180.9511	1201.6553	1211.5669	1296.5343	1320.7719	1432.8561	1457.9846	1478.6098	1497.1514	1513.1844	1601.6013	1647.9674	1807.3131	3058.4814	3138.4021	3165.0885	3169.2049	3232.2277	3598.0137
COC1=NC=CC(=O)N1	COc1nccc(=O)[nH]1	
InChI=1S/C5H6N2O2/c1-9-5-6-3-2-4(8)7-5/h2-3H,1H3,(H,6,7,8)	InChI=1S/C5H6N2O2/c1-9-5-6-3-2-4(8)7-5/h2-3H,1H3,(H,6,7,8)
