17
gdb 51441	3.2232	1.08365	0.88743	4.5956	73.5	-0.2468	-0.0249	0.2219	1282.7805	0.134401	-421.821887	-421.81344	-421.812495	-421.856148	30.485	
O	-0.6988608783	 0.624260219	 0.6420400265	-0.241019
C	 0.1387300137	 0.8846757218	-0.1831279585	 0.151847
C	 1.2794554552	 1.86123758	 0.0452970922	-0.306643
C	 1.3802779885	 2.8949606313	-1.0812508954	-0.133049
C	 2.5656568199	 3.8779370668	-1.1468744621	-0.070391
C	 3.8358206294	 3.1569489778	-1.4196182753	-0.283359
C	 2.9011023714	 3.4357866254	-2.5939222421	-0.166046
C	 1.7600265464	 2.4665275909	-2.5325854708	 0.404721
O	 1.2330006182	 1.7375809023	-3.3253679094	-0.317721
H	 0.1275622206	 0.4143944001	-1.1896818515	 0.107978
H	 1.1342659344	 2.3413223917	 1.0180017907	 0.125474
H	 2.2059636901	 1.2726640347	 0.0956013809	 0.120519
H	 0.4341477165	 3.4453881227	-1.1633934947	 0.118589
H	 2.5375239087	 4.8946327321	-0.7783157418	 0.110697
H	 4.7378923369	 3.7598184227	-1.4303316942	 0.133753
H	 3.9944370211	 2.1393650074	-1.0757101539	 0.127165
H	 3.2285757872	 4.0073942233	-3.4526915405	 0.117486
56.2245	67.8288	119.3547	170.616	226.6477	311.7477	429.2127	476.507	519.5322	609.7389	701.2587	747.9018	786.4959	824.645	864.0985	913.7378	936.9156	956.1848	1004.0321	1036.0185	1069.2235	1075.9956	1088.0835	1109.9905	1133.8061	1160.7322	1188.3029	1230.5553	1285.835	1289.0508	1337.6369	1358.6446	1432.235	1462.3679	1496.1766	1831.687	1876.7528	2914.3637	3020.9004	3037.3288	3090.7651	3125.0852	3201.321	3204.4009	3215.457
O=CCC1C2CC2C1=O	O=CC[C@H]1[C@H]2C[C@H]2C1=O	
InChI=1S/C7H8O2/c8-2-1-4-5-3-6(5)7(4)9/h2,4-6H,1,3H2	InChI=1S/C7H8O2/c8-2-1-4-5-3-6(5)7(4)9/h2,4-6H,1,3H2/t4-,5+,6+/m0/s1
