14
gdb 24919	5.19956	1.3491	1.07222	3.441	71.05	-0.1757	0.0377	0.2134	1036.525	0.103698	-432.893389	-432.886311	-432.885367	-432.924739	27.61	
N	-0.0247475615	 1.2792589529	 0.0114335274	-0.589916
C	-0.0147707446	 0.0164957603	-0.0213748703	 0.436782
N	-1.1232488196	-0.820019563	-0.0504921461	-0.461253
C	-0.6844281601	-2.1506890535	 0.0653614821	 0.275671
C	 0.6703438768	-2.0734865505	 0.0570089605	 0.362475
N	 1.2219292019	-3.3100729008	-0.0396660003	-0.38851
C	 0.1636705915	-4.214045046	-0.0486303217	-0.076087
C	-1.0365017382	-3.523448477	-0.0080104062	-0.304086
O	 1.1411171369	-0.7950843982	-0.0319244702	-0.261043
H	 0.9187892705	 1.6546763581	 0.0302941209	 0.22835
H	-2.019056163	-0.4513473249	 0.2172777952	 0.271811
H	 2.1977796985	-3.5450759522	-0.0087652869	 0.27511
H	 0.3578189887	-5.2730894561	-0.0306149251	 0.125474
H	-2.0173801476	-3.9703456792	-0.0109732893	 0.105221
101.3024	193.813	310.4523	332.3894	360.1378	391.3576	552.3715	591.8435	603.312	626.4197	695.925	708.1669	738.1887	763.298	790.9055	839.8693	878.8353	948.1323	1042.0372	1065.2034	1095.9265	1150.731	1256.2378	1306.9114	1325.7329	1373.8407	1481.1592	1499.2273	1577.3795	1645.8443	1795.0632	3260.8845	3284.0124	3552.2939	3683.7622	3695.23
N=C1NC2=C(NC=C2)O1	[NH][C@@H]1Nc2c([nH]cc2)O1	
InChI=1S/C5H5N3O/c6-5-8-3-1-2-7-4(3)9-5/h1-2,7H,(H2,6,8)	InChI=1S/C5H6N3O/c6-5-8-3-1-2-7-4(3)9-5/h1-2,5-8H/t5-/m1/s1
