20
gdb 99996	2.12813	1.37568	1.04569	4.0383	75.36	-0.2682	0.0146	0.2828	1235.3386	0.166916	-440.286013	-440.27506	-440.274116	-440.321933	39.125	
C	 0.1452901834	 1.3407087246	-0.0281341773	-0.246792
O	-0.0640633699	-0.0554320749	 0.0089368891	-0.27663
C	-1.408237106	-0.5294599221	 0.0066310566	 0.341047
C	-2.1462860004	-0.1589528309	 1.2990111129	-0.436034
C	-2.1885411511	-0.0765903106	-1.2342360292	-0.454522
C	-1.1912289639	-2.0743440049	-0.0100899668	-0.026944
O	-2.3942938033	-2.8138762843	 0.0678257332	-0.416911
C	-0.3944294472	-2.487761903	-1.1811825901	 0.270603
N	 0.1656649257	-2.8474387161	-2.1256862393	-0.333007
H	 1.2267886722	 1.487470098	 0.0165065821	 0.137556
H	-0.2279339485	 1.7967264961	-0.9543601424	 0.114646
H	-0.3115013933	 1.8562030522	 0.8274251331	 0.110492
H	-2.4023036734	 0.9036365215	 1.3200231636	 0.118004
H	-3.0713934493	-0.7338419559	 1.379926438	 0.139203
H	-1.5203054791	-0.3818256269	 2.1683027767	 0.124318
H	-1.6369581812	-0.3085089873	-2.149605218	 0.147324
H	-3.1626715158	-0.5744215675	-1.2706885011	 0.11699
H	-2.3841848791	 0.9981450194	-1.208478831	 0.126937
H	-0.6190666623	-2.32325952	 0.8893294409	 0.14334
H	-2.7998656477	-2.8346931073	-0.8057804508	 0.300379
56.2056	72.7747	134.6684	175.7542	204.2771	227.5974	245.2102	257.3155	300.5174	320.8403	329.9534	367.2811	404.8553	442.5628	481.9561	602.8308	622.4776	756.7132	844.2513	925.0114	926.8652	1003.3314	1011.1385	1076.657	1121.8062	1177.2134	1181.0408	1202.2549	1219.621	1267.9875	1278.4597	1333.4425	1390.4849	1409.8864	1411.6937	1475.3356	1482.8411	1483.5146	1498.9847	1501.6782	1513.1972	1516.2325	2356.582	3001.5992	3043.1863	3048.8536	3057.1478	3072.876	3113.3375	3117.7769	3120.5162	3128.4678	3135.4037	3815.374
COC(C)(C)C(O)C#N	COC(C)(C)[C@@H](O)C#N	
InChI=1S/C6H11NO2/c1-6(2,9-3)5(8)4-7/h5,8H,1-3H3	InChI=1S/C6H11NO2/c1-6(2,9-3)5(8)4-7/h5,8H,1-3H3/t5-/m0/s1
