13
gdb 131106	3.46932	1.21324	0.92758	2.6371	64.64	-0.288	-0.0505	0.2375	1160.2218	0.087592	-452.652512	-452.644499	-452.643555	-452.686126	28.667	
O	 0.2423922159	 1.5292357799	-0.0691353931	-0.406063
C	 0.148575436	 0.1086277825	-0.0206995524	-0.181257
C	 0.6203940671	-0.5295733308	-1.2486930634	 0.323469
C	 1.0214667819	-1.0073571659	-2.2743581049	-0.42752
C	 0.8459981559	-0.4108734258	 1.2178865594	 0.323225
N	 1.4987324353	-1.5381394062	 1.2883361129	-0.14594
O	 1.9489427466	-1.6268179077	 2.5751215702	-0.147112
N	 1.5759328792	-0.5368449365	 3.3117002626	-0.062592
C	 0.897453265	 0.2184179923	 2.4954145535	-0.097469
H	 1.1273834949	 1.7517063177	-0.3818211928	 0.295758
H	-0.9255191548	-0.0890792397	 0.0928629011	 0.150423
H	 1.3724685376	-1.4452504386	-3.1765868914	 0.212464
H	 0.4810442593	 1.1619846789	 2.8090059085	 0.162615
35.101	117.6832	171.3593	210.0898	289.0117	346.3572	415.1784	466.823	576.2855	646.7642	651.1049	671.0253	688.652	813.9098	886.8513	910.5179	931.5399	945.3645	1026.1223	1056.5814	1081.2159	1184.9793	1259.2578	1303.283	1405.7277	1427.057	1464.926	1608.423	2246.0242	3028.1936	3282.92	3501.5584	3798.3978
OC(C#C)C1=NON=C1	O[C@@H](C#C)c1nonc1	
InChI=1S/C5H4N2O2/c1-2-5(8)4-3-6-9-7-4/h1,3,5,8H	InChI=1S/C5H4N2O2/c1-2-5(8)4-3-6-9-7-4/h1,3,5,8H/t5-/m0/s1
