13
gdb 18955	6.93377	1.51275	1.46397	2.5306	59.15	-0.246	0.0078	0.2539	826.0529	0.094727	-398.493182	-398.487158	-398.486214	-398.523575	22.783	
O	 0.0502911725	 0.0154255962	-0.4199634132	-0.309107
C	 0.0185807603	 1.18541553	-0.1115585599	 0.131902
N	 1.0556442482	 1.8692767157	 0.4705993261	-0.084838
C	 2.4970398653	 1.6175003421	 0.2190232771	-0.069392
C	 2.6007443407	 2.7230719149	-0.8946840243	 0.088573
O	 3.7064899551	 3.4155786265	-0.2594291176	-0.315909
C	 2.8922925679	 2.9850491736	 0.8639026816	 0.087391
C	 1.5321860536	 3.2371075914	 0.1372994684	-0.087834
H	-0.8923986638	 1.8133327759	-0.1926081128	 0.077597
H	 2.9666488214	 0.6403584771	 0.288169073	 0.128566
H	 2.5691129577	 2.6470095422	-1.9812489432	 0.119197
H	 3.2047020541	 3.2242067294	 1.8786596913	 0.118179
H	 0.899426787	 4.1227496049	 0.1194712834	 0.115676
98.0311	188.3938	277.1069	463.2324	545.1615	627.2576	735.5996	760.6892	773.8468	798.2574	818.546	889.3675	929.6305	972.5199	1023.1755	1033.5318	1056.9214	1100.5844	1142.1458	1151.3038	1153.9242	1172.3565	1181.5301	1235.9987	1333.7975	1378.43	1420.1912	1794.671	2925.5378	3129.0878	3140.678	3151.9075	3177.049
O=CN1C2C3OC2C13	O=CN1[C@H]2[C@@H]3O[C@H]2[C@H]13	
InChI=1S/C5H5NO2/c7-1-6-2-4-3(6)5(2)8-4/h1-5H	InChI=1S/C5H5NO2/c7-1-6-2-4-3(6)5(2)8-4/h1-5H/t2-,3+,4-,5+
