23
gdb 101357	3.03764	1.02536	0.8595	1.5263	85.25	-0.2501	0.0798	0.3299	1425.233	0.20548	-388.257459	-388.247834	-388.24689	-388.292024	36.553	
C	-0.1307522191	 1.5053688229	-0.0114265017	-0.396737
C	 0.0118033226	-0.019557176	-0.1049629204	 0.015965
C	 0.7986658145	-0.4259610891	-1.3509928672	-0.077097
O	 0.0922957928	 0.0256700333	-2.4993657593	-0.425074
C	 0.6668486686	-0.5988786903	 1.1514714926	 0.027464
C	-0.096771139	-0.5204444678	 2.5219399644	-0.266677
C	 0.0703549391	-2.0363045076	 2.6841896668	-0.043223
C	-0.5844791816	-2.7512282532	 1.5383292405	-0.275984
C	 0.7684757947	-2.1257333586	 1.3260115633	-0.067557
H	 0.8501440438	 1.9811734222	 0.1130094258	 0.103103
H	-0.585471154	 1.90530386	-0.9203203261	 0.131543
H	-0.7510724044	 1.7951302695	 0.842428561	 0.109714
H	-0.9920404474	-0.4518595629	-0.2136214711	 0.07767
H	 1.8085204259	 0.0175370281	-1.3081100288	 0.076745
H	 0.9189256015	-1.5201067677	-1.3697995377	 0.088329
H	 0.6015730856	-0.2134133235	-3.2787530815	 0.284643
H	 1.6595863292	-0.1482848835	 1.2703282053	 0.066592
H	 0.4403241369	 0.0670145576	 3.2694426846	 0.100731
H	-1.1325000019	-0.1646968597	 2.4807443262	 0.093465
H	 0.3192913311	-2.5439882351	 3.608034925	 0.082592
H	-0.5801226193	-3.8349224005	 1.6001742192	 0.107815
H	-1.4758016514	-2.3408113446	 1.0697098248	 0.107166
H	 1.6247914817	-2.7284566636	 1.0460309043	 0.078814
69.3875	96.2614	148.6484	166.9599	228.0794	247.159	265.2609	344.0498	366.8441	396.5144	456.8473	550.5571	688.3804	781.734	798.5609	816.6607	885.4434	923.1932	933.6824	953.0844	954.8694	998.9655	1008.0104	1028.6982	1047.0626	1066.5612	1081.372	1085.6811	1108.0261	1142.7793	1163.639	1177.159	1210.3966	1244.6096	1248.5319	1267.0882	1269.4606	1300.8594	1310.1198	1359.0847	1368.3882	1393.3082	1402.772	1457.8645	1482.718	1493.774	1499.014	1505.0577	1520.1563	2951.7101	2993.6731	3016.665	3025.9552	3035.29	3039.7782	3092.8035	3105.2315	3109.0385	3127.8081	3169.0497	3182.019	3199.2151	3833.8296
CC(CO)C1CC2CC12	C[C@@H](CO)[C@H]1C[C@H]2C[C@@H]12	
InChI=1S/C8H14O/c1-5(4-9)7-2-6-3-8(6)7/h5-9H,2-4H2,1H3	InChI=1S/C8H14O/c1-5(4-9)7-2-6-3-8(6)7/h5-9H,2-4H2,1H3/t5-,6-,7+,8+/m0/s1
