19
gdb 65532	2.82262	1.55131	1.31024	1.1584	80.22	-0.2426	0.05	0.2926	1039.3077	0.159156	-385.838973	-385.83095	-385.830005	-385.870971	32.426	
C	-0.0199950171	 1.5099579247	 0.0180081858	-0.456806
C	 0.0033240396	-0.0271698262	-0.0003989791	 0.145726
C	 1.0007170817	-0.607128314	-1.0813820503	-0.275609
C	 1.9870331254	-1.2834026478	-0.1105313412	 0.081682
C	 1.0784675037	-2.058826035	 0.8682567887	-0.241528
C	 0.7694372163	-0.59812746	 1.2445411096	 0.049934
O	 2.1488736385	-0.2571462961	 0.9243633937	-0.300109
C	-1.3463907398	-0.5658220025	-0.1100296711	 0.276955
C	-2.4653542112	-1.0021735523	-0.1817309054	-0.464741
H	 0.9935155963	 1.8847252406	 0.1793309058	 0.134853
H	-0.396784105	 1.903113511	-0.9305244023	 0.122092
H	-0.6685750046	 1.8802522734	 0.8178319024	 0.119935
H	 0.5226983795	-1.3075080751	-1.7689649095	 0.113026
H	 1.4776174269	 0.1895734241	-1.6563255415	 0.111161
H	 2.9265366133	-1.6738634247	-0.5009833443	 0.082157
H	 0.2775354069	-2.6881142939	 0.4763232131	 0.11206
H	 1.6528474544	-2.5635342295	 1.6451477873	 0.112437
H	 0.4361863086	-0.2723285008	 2.2297521934	 0.085629
H	-3.4527571633	-1.3868315058	-0.2495028951	 0.191147
136.7327	152.0407	221.2219	252.1366	291.2739	407.7422	432.8662	499.6164	522.615	560.2854	607.8579	624.4313	630.8286	753.2026	816.0537	837.928	879.7961	900.3371	924.6485	943.4935	958.6123	975.3348	1030.3692	1043.2797	1068.9092	1116.4145	1158.0284	1166.9697	1208.4414	1231.0965	1250.5547	1259.2933	1283.4229	1317.1025	1326.7515	1399.4859	1480.0147	1492.57	1494.1715	1500.7122	2228.0417	3041.3873	3073.6302	3082.2551	3111.755	3124.6864	3128.0033	3128.5873	3131.1885	3154.2856	3501.1115
CC1(CC2CC1O2)C#C	C[C@]1(C[C@@H]2C[C@H]1O2)C#C	
InChI=1S/C8H10O/c1-3-8(2)5-6-4-7(8)9-6/h1,6-7H,4-5H2,2H3	InChI=1S/C8H10O/c1-3-8(2)5-6-4-7(8)9-6/h1,6-7H,4-5H2,2H3/t6-,7+,8+/m0/s1
