16
gdb 123464	5.21457	0.94452	0.83496	1.89	70.15	-0.2588	-0.002	0.2568	1322.4853	0.126522	-434.046639	-434.038965	-434.038021	-434.080227	27.628	
C	 0.1117570028	 1.3177885704	 0.647743676	-0.348306
C	-0.0761587277	-0.0687786626	 0.0687308462	 0.097794
C	-1.3819013924	-0.5449718246	-0.400342099	-0.181104
O	-0.3765853355	-0.1299492068	-1.3287829185	-0.233371
C	 1.4222766628	 1.9260792226	 0.2506870454	 0.305146
N	 2.2929833162	 2.3937198625	 1.1498667223	-0.271946
N	 3.2961905784	 2.8365570588	 0.4020858616	-0.072421
N	 3.1667476668	 2.6996578318	-0.9101432703	-0.192009
C	 1.9737225949	 2.118384608	-1.032271355	-0.1197
H	-0.7161892729	 1.9503792956	 0.3062929683	 0.120158
H	 0.062136256	 1.2729940968	 1.7405270615	 0.12651
H	 0.6546758041	-0.8107524275	 0.3933664871	 0.102108
H	-1.6047902913	-1.6106922187	-0.398632414	 0.118316
H	-2.2488344882	 0.1105205342	-0.3261877299	 0.11565
H	 4.115564261	 3.2544614172	 0.8118131184	 0.292022
H	 1.5685624949	 1.8607589122	-1.9971301101	 0.141153
43.1662	74.0052	126.897	298.8427	314.5488	360.2422	460.7909	516.2366	693.3624	724.6096	764.2264	795.37	863.8278	898.9368	937.2278	956.5704	997.423	1028.9417	1094.6977	1101.2363	1156.2361	1161.1728	1169.2987	1201.986	1223.3573	1257.3695	1293.2956	1313.744	1369.9852	1416.805	1443.1363	1463.4215	1477.7534	1529.0463	1567.6605	3037.1641	3084.1376	3087.7972	3107.8759	3171.6036	3280.9154	3671.9183
C(C1CO1)C1=NNN=C1	C([C@H]1CO1)c1n[nH]nc1	
InChI=1S/C5H7N3O/c1(5-3-9-5)4-2-6-8-7-4/h2,5H,1,3H2,(H,6,7,8)	InChI=1S/C5H7N3O/c1(5-3-9-5)4-2-6-8-7-4/h2,5H,1,3H2,(H,6,7,8)/t5-/m0/s1
