19
gdb 94281	2.9308	1.6386	1.25347	2.2673	75.79	-0.238	0.0607	0.2987	1034.7687	0.159828	-422.950328	-422.942589	-422.941645	-422.982604	30.496	
O	 0.105508448	 1.2458691172	-0.3691870056	-0.425086
C	 0.1022966416	-0.0902118622	 0.0750326123	-0.071028
C	-0.0120366271	-0.3573521898	 1.5925280752	-0.114168
O	-1.2172198207	-1.1233934702	 1.3958289037	-0.343085
C	-1.2786715262	-0.7611602128	 0.0056444988	 0.548761
C	-2.5558765818	-0.1041152415	-0.5759131173	-0.109781
C	-2.0262802233	-0.5534213543	-1.9693018248	-0.22779
C	-1.7891760675	-1.7791049536	-1.0364375295	-0.135743
C	-3.2131185299	-1.5147337289	-0.4541234399	-0.239115
H	 1.0090731811	 1.5756304569	-0.3451664455	 0.289403
H	 0.8928826856	-0.6789399976	-0.4084079808	 0.079676
H	 0.7788384936	-0.9524805433	 2.0625365795	 0.098797
H	-0.1896954484	 0.5566728432	 2.1732590069	 0.10177
H	-2.9847301735	 0.8603119489	-0.3069696981	 0.07802
H	-2.7878747483	-0.6945415067	-2.7396946189	 0.091899
H	-1.1503238704	-0.0303730196	-2.3567672884	 0.105965
H	-1.3412898852	-2.7395850212	-1.2954785407	 0.068261
H	-3.4076111964	-1.8819221388	 0.5538861516	 0.115821
H	-4.0493991913	-1.7107693957	-1.1305332685	 0.087424
76.9748	163.4246	204.3185	246.4851	310.4082	382.4677	460.8429	478.715	584.6216	610.1545	761.5017	794.7124	806.241	887.4423	899.0545	902.8957	952.5274	988.1846	1016.1127	1019.8371	1038.309	1050.9538	1083.2007	1088.9771	1114.636	1121.213	1145.6541	1172.9974	1185.7915	1194.8993	1204.7138	1208.8735	1245.8516	1252.6794	1291.2824	1330.4695	1333.6675	1444.8681	1496.2499	1513.9536	1533.6572	3013.0053	3016.6594	3061.7498	3065.8322	3071.8382	3103.698	3125.262	3134.8653	3141.4143	3822.2996
OC1COC11C2CC1C2	O[C@H]1CO[C@]21[C@H]1C[C@@H]2C1	
InChI=1S/C7H10O2/c8-6-3-9-7(6)4-1-5(7)2-4/h4-6,8H,1-3H2	InChI=1S/C7H10O2/c8-6-3-9-7(6)4-1-5(7)2-4/h4-6,8H,1-3H2/t4-,5+,6-,7-/m0/s1
