12
gdb 131023	5.29304	0.98265	0.82878	1.8463	67.58	-0.2779	-0.1006	0.1773	1250.6421	0.07775	-468.822203	-468.814869	-468.813925	-468.854746	25.217	
O	-0.06912952	-0.0358174616	-0.0019547246	-0.224657
C	 0.0009743891	 1.152411159	 0.0078281751	 0.214363
N	 1.2342921023	 1.8697455799	-0.0000955675	 0.081137
N	 2.4464799145	 1.2876395171	-0.0193291345	-0.187546
C	 3.269379092	 2.3192994907	-0.019693906	-0.086371
C	 2.5142130174	 3.5238070387	-0.0002484193	 0.210827
C	 3.0096634129	 4.9158660638	 0.0063704168	 0.093248
O	 2.3089444486	 5.8950535279	 0.0232621236	-0.239412
N	 1.2235953172	 3.201911082	 0.0118638908	-0.252836
H	-0.8334610027	 1.8695221818	 0.0238409433	 0.145788
H	 4.339542762	 2.1776834744	-0.033357331	 0.155701
H	 4.1187032169	 4.9885713163	-0.0059031968	 0.089758
94.5751	131.4046	148.2787	252.9815	267.262	314.3435	475.1919	531.3002	686.9795	699.1091	808.3253	817.6537	911.1992	984.7309	1032.5277	1034.6723	1058.7629	1195.5631	1259.5326	1305.255	1373.2526	1408.262	1432.5929	1461.2662	1548.8828	1817.4017	1867.0813	2901.0731	3045.9144	3262.8765
O=CN1N=CC(C=O)=N1	O=Cn1ncc(C=O)n1	
InChI=1S/C4H3N3O2/c8-2-4-1-5-7(3-9)6-4/h1-3H	InChI=1S/C4H3N3O2/c8-2-4-1-5-7(3-9)6-4/h1-3H
