27
gdb 123249	9.39296	0.36503	0.3576	0.9069	95.69	-0.2475	0.0894	0.3369	3161.5593	0.249794	-390.701529	-390.689295	-390.688351	-390.740641	42.34	
C	 0.0009996775	 1.5921582489	 0.0106613674	-0.378938
C	-0.0042843827	 0.0610775487	 0.0025317809	-0.164065
C	-1.4149420201	-0.53740633	 0.0127757958	-0.157862
C	-1.4291999684	-2.0696965314	 0.00471054	-0.181044
C	-2.8423850012	-2.6606869561	 0.0149960281	-0.198135
C	-2.8469011578	-4.1832496467	 0.0068644921	-0.049496
O	-4.1833562118	-4.6357365196	 0.0171769226	-0.2434
C	-4.2977691424	-6.0423945248	 0.0107000168	-0.026076
C	-5.771777134	-6.410870926	 0.0227246127	-0.383993
H	 1.0207503099	 1.9898065634	 0.0030526639	 0.109881
H	-0.5197387175	 1.9942026112	-0.8656507261	 0.113035
H	-0.5028767012	 1.9847624324	 0.9009986973	 0.113035
H	 0.5364003775	-0.303035485	-0.8813073978	 0.093018
H	 0.5531078584	-0.3124064646	 0.8719648706	 0.093018
H	-1.9570901754	-0.1738280844	 0.8968848869	 0.092069
H	-1.9738020622	-0.1644455378	-0.8569009776	 0.092068
H	-0.8864386543	-2.4317482189	-0.8797572224	 0.092412
H	-0.8697372575	-2.4411395997	 0.8747596811	 0.092413
H	-3.3891702976	-2.3148554848	 0.9008200295	 0.102868
H	-3.4059062612	-2.3054144329	-0.8564875676	 0.102868
H	-2.3200238062	-4.5637744276	-0.8864109065	 0.079864
H	-2.3031225714	-4.5732878004	 0.88579344	 0.079864
H	-3.8018613877	-6.4615993738	-0.882147943	 0.081835
H	-3.7850277779	-6.4711255349	 0.8894043392	 0.081835
H	-5.8939954253	-7.4981811946	 0.0180528265	 0.112215
H	-6.260097755	-6.009866471	 0.9155124146	 0.125354
H	-6.2769292144	-6.0003608698	-0.856271645	 0.125353
42.068	61.0958	64.7159	97.3299	115.8165	154.2662	163.5763	164.9346	245.0718	246.3658	248.6688	301.2624	411.8198	481.268	510.1614	735.1816	754.7521	810.2644	822.0405	895.762	898.551	904.5234	1005.2234	1009.7219	1043.3283	1046.9011	1066.4423	1074.0414	1125.2253	1156.1301	1172.5843	1180.2956	1206.1311	1234.8113	1259.5494	1283.7568	1295.247	1312.249	1324.6266	1331.954	1335.7672	1379.2639	1393.6669	1403.0063	1409.9725	1414.2789	1454.3261	1483.7883	1485.134	1486.9797	1494.6058	1499.3306	1499.6671	1504.9021	1514.0284	1520.1362	1539.9126	2935.6152	2951.2306	2962.3379	2969.2329	3001.5941	3005.7127	3016.5132	3023.1696	3028.7623	3031.138	3035.5509	3044.1036	3055.8897	3075.6168	3095.1079	3100.2527	3118.2083	3120.253
CCCCCCOCC	CCCCCCOCC	
InChI=1S/C8H18O/c1-3-5-6-7-8-9-4-2/h3-8H2,1-2H3	InChI=1S/C8H18O/c1-3-5-6-7-8-9-4-2/h3-8H2,1-2H3
