17
gdb 97483	9.11485	0.43565	0.42853	2.1411	101.25	-0.2327	-0.0209	0.2118	2529.7523	0.133854	-384.622583	-384.612758	-384.611813	-384.660314	33.555	
C	 0.3783822147	 1.3784912569	-0.3874821863	-0.367389
C	-0.3053179428	 0.1494887605	 0.2424328463	-0.344891
C	 0.3671846207	-0.3293143282	 1.4405520172	 0.286613
C	 0.9400043269	-0.7151701423	 2.435760651	-0.228355
C	 1.5832911087	-1.147591977	 3.5510980689	-0.162941
C	 2.1564960872	-1.5425483367	 4.5428291798	 0.331082
C	 2.8287030058	-1.9665105349	 5.7360651954	-0.182984
C	 2.8990933867	-3.390887348	 6.1265661979	-0.158456
O	 4.0365661468	-2.7349639529	 5.5860543203	-0.209348
H	 1.4075751527	 1.1463180171	-0.6728808904	 0.134723
H	-0.1662875935	 1.6952227597	-1.2815294441	 0.119535
H	 0.4023733313	 2.2133728628	 0.3175389455	 0.133581
H	-1.3473791842	 0.3925357358	 0.4885646762	 0.13865
H	-0.3519240791	-0.6644382645	-0.4929298984	 0.139209
H	 2.8798093529	-1.2243260657	 6.5324192867	 0.121549
H	 2.9545765083	-3.6443760127	 7.1846107331	 0.12142
H	 2.433932947	-4.13506809	 5.4831774209	 0.128003
8.681	60.0892	67.4242	134.9668	163.6043	238.5923	253.8575	344.7311	401.7904	474.2262	517.4038	548.2062	577.8678	635.2043	783.0934	810.4463	835.7915	923.2217	978.273	1040.5648	1079.1192	1090.6333	1100.3145	1154.3771	1162.1027	1254.2672	1282.0395	1294.7706	1348.2367	1407.502	1412.988	1467.8838	1494.473	1504.8517	1517.7996	2273.3861	2375.6522	3017.1536	3045.4083	3047.3858	3084.9396	3111.2715	3122.182	3128.5264	3179.929
CCC#CC#CC1CO1	CCC#CC#C[C@H]1CO1	
InChI=1S/C8H8O/c1-2-3-4-5-6-8-7-9-8/h8H,2,7H2,1H3	InChI=1S/C8H8O/c1-2-3-4-5-6-8-7-9-8/h8H,2,7H2,1H3/t8-/m0/s1
