16
gdb 17369	4.3115	1.62649	1.43745	4.5362	64.58	-0.2273	0.0346	0.2619	886.3409	0.132362	-379.908898	-379.901737	-379.900793	-379.940766	27.416	
N	 0.6623882738	 0.2588796527	-0.8275890422	-0.522335
C	-0.022567779	 0.0497502789	 0.3289143041	 0.371122
O	 0.1839182404	 0.6719196326	 1.3559327344	-0.376526
C	-1.1153110573	-1.0148015212	 0.2464620337	-0.077825
C	-2.3140807233	-0.8269463673	-0.7676105075	-0.247907
C	-1.9826967748	-2.2010930319	-1.3566158031	-0.039657
N	-0.593998115	-2.1122319178	-1.8708750871	-0.338872
C	-0.8340625559	-2.3720964555	-0.4270315079	-0.067053
H	 1.4270643178	 0.9132607521	-0.8114108616	 0.250017
H	 0.5153689945	-0.3583791658	-1.6160724219	 0.269661
H	-1.4908389061	-1.1500866235	 1.2604261646	 0.103632
H	-3.2752817741	-0.7918120955	-0.2527327523	 0.117229
H	-2.2378552408	 0.0101179102	-1.4645727469	 0.118114
H	-2.6664040568	-2.9347309289	-1.7648841877	 0.101325
H	-0.3658996534	-3.0058591188	-2.3033490594	 0.236211
H	-0.42946919	-3.2611018103	 0.0407337209	 0.102865
41.5552	200.164	215.6599	324.507	391.3394	412.4991	474.7804	594.9327	670.1692	698.8296	757.1531	792.2272	815.5968	843.0594	918.373	953.806	976.5065	995.0365	1016.4925	1052.5	1094.8222	1114.5384	1140.7027	1164.2713	1208.9538	1254.1521	1279.7892	1319.9329	1332.0411	1357.9391	1386.5466	1476.9142	1611.7793	1790.2299	3077.0496	3118.3932	3138.8253	3187.0313	3200.7808	3487.572	3515.641	3697.0235
NC(=O)C1CC2NC12	NC(=O)[C@H]1C[C@H]2N[C@@H]12	
InChI=1S/C5H8N2O/c6-5(8)2-1-3-4(2)7-3/h2-4,7H,1H2,(H2,6,8)	InChI=1S/C5H8N2O/c6-5(8)2-1-3-4(2)7-3/h2-4,7H,1H2,(H2,6,8)/t2-,3+,4-/m0/s1
