19
gdb 47528	2.56983	1.75874	1.28725	4.4866	74.74	-0.2535	0.0088	0.2623	1019.6908	0.162452	-423.052192	-423.044904	-423.04396	-423.083897	29.152	
O	-0.0033588805	-0.0077608306	-0.3208518428	-0.318784
C	-0.0131230313	 1.146647911	 0.0133061558	 0.385434
O	-1.2189079732	 1.7378010794	 0.2513594978	-0.231938
C	-1.3832605497	 2.868613463	 1.1202487588	-0.070595
C	-0.7248150518	 4.1761346019	 0.6794812423	-0.226246
C	 0.7822281176	 4.0824729559	 0.4079152404	-0.000135
C	 1.1021000876	 3.2585942187	-0.8694564335	-0.229055
C	 1.2495790906	 1.989919762	 0.0311289746	-0.115996
C	 1.4876124251	 2.9640922105	 1.2266836722	-0.258879
H	-2.466259228	 3.0055648756	 1.1691454114	 0.123477
H	-1.0502950971	 2.5905409074	 2.1264579536	 0.115735
H	-1.2308741071	 4.5641752297	-0.2128298123	 0.112007
H	-0.915126829	 4.8955521876	 1.4865671644	 0.105721
H	 1.2290447832	 5.0785151585	 0.4576247042	 0.071717
H	 0.346465246	 3.2321802725	-1.6584647665	 0.112343
H	 2.0652414264	 3.5339743848	-1.3054182032	 0.10841
H	 2.0638398585	 1.306921217	-0.2061371666	 0.100575
H	 2.5588447377	 3.1581713807	 1.3212065003	 0.110114
H	 1.1029034547	 2.7006340544	 2.2139598991	 0.106093
91.2854	196.5282	267.0896	320.8525	356.2972	376.7138	440.0943	515.2758	631.85	701.5942	753.3129	790.9188	806.1971	836.5269	890.6705	929.9667	930.9472	962.2732	988.3547	1059.0644	1061.2011	1085.041	1101.1593	1124.6989	1162.8133	1177.1604	1237.6704	1238.8652	1263.0386	1278.5029	1297.8135	1313.3885	1343.3044	1358.8886	1390.8745	1426.6304	1473.1503	1481.3303	1501.3459	1522.8767	1830.1293	3022.1474	3040.2556	3060.826	3065.6129	3065.8642	3076.8931	3100.8434	3115.1467	3118.2909	3126.4893
O=C1OCCC2CC1C2	O=C1OCC[C@@H]2C[C@H]1C2	
InChI=1S/C7H10O2/c8-7-6-3-5(4-6)1-2-9-7/h5-6H,1-4H2	InChI=1S/C7H10O2/c8-7-6-3-5(4-6)1-2-9-7/h5-6H,1-4H2/t5-,6+
