21
gdb 76443	2.76589	0.98582	0.90624	1.991	79.82	-0.2412	-0.0238	0.2174	1406.3542	0.178417	-424.224429	-424.213544	-424.2126	-424.26104	38.444	
C	-0.1024360733	 0.9537605316	-1.9480203648	-0.430986
C	-0.0128120992	-0.2136527963	-0.9882418472	-0.07568
C	 1.3046940993	-0.6786785642	-0.3807006271	-0.071208
C	 2.6276955968	-0.0087790899	-0.6823824625	-0.408987
C	 0.2656772439	-0.0086293349	 0.4880461698	 0.343794
O	 0.5905001031	 1.2863490416	 0.9325277841	-0.464381
C	-0.4812091842	-0.8330191745	 1.5314824726	-0.324156
C	-1.8760178174	-0.3071698567	 1.7854115745	 0.157474
O	-2.8843616866	-0.9619587907	 1.7135254896	-0.23899
H	 0.549765583	 1.7788179041	-1.6530173204	 0.125258
H	 0.1836540841	 0.6507323802	-2.960622448	 0.125734
H	-1.1275511659	 1.3386096162	-2.0015171341	 0.117976
H	-0.7179724464	-1.0120398982	-1.2086152142	 0.092302
H	 1.3802606316	-1.7550190521	-0.2454933498	 0.084809
H	 2.5513160224	 1.0781090198	-0.629530282	 0.133059
H	 3.3858646191	-0.3174475389	 0.0450242117	 0.119342
H	 2.9911341543	-0.2847881902	-1.6781195406	 0.114991
H	-0.1292971727	 1.8824513412	 0.7012268105	 0.289514
H	-0.55725408	-1.8809342892	 1.230020913	 0.118097
H	 0.0817886175	-0.7781304502	 2.4738932834	 0.126412
H	-1.9197169593	 0.7758599313	 2.0489774916	 0.065628
44.8505	66.9761	122.4464	133.4133	143.7659	207.3688	217.5914	259.2146	271.2516	297.921	367.0559	439.2102	514.3254	549.6616	586.9113	686.1248	783.8724	811.6587	847.7546	943.4491	982.002	1011.9519	1033.6251	1045.7581	1075.5182	1100.0705	1140.9622	1145.2931	1181.0293	1206.6106	1232.6402	1291.9498	1295.184	1342.4793	1372.5258	1412.5764	1420.3539	1428.2649	1447.3678	1455.2164	1488.8065	1494.9512	1505.6519	1515.3238	1832.6431	2852.8515	3018.6589	3032.333	3038.6	3087.1791	3092.6278	3105.7937	3116.8761	3128.0165	3134.9311	3146.7705	3807.8447
CC1C(C)C1(O)CC=O	C[C@H]1[C@@H](C)[C@]1(O)CC=O	
InChI=1S/C7H12O2/c1-5-6(2)7(5,9)3-4-8/h4-6,9H,3H2,1-2H3	InChI=1S/C7H12O2/c1-5-6(2)7(5,9)3-4-8/h4-6,9H,3H2,1-2H3/t5-,6+,7-
