16
gdb 116660	2.82722	0.93485	0.74378	5.8449	74.7	-0.2384	-0.0362	0.2021	1487.2949	0.121499	-434.07982	-434.069419	-434.068475	-434.11717	33.832	
C	-0.6849277394	 1.0195983088	 0.0038196588	-0.312584
N	 0.694876167	 0.5762418684	 0.0397066916	-0.289188
C	 1.2949578246	-0.0218259973	-1.0128249506	 0.115041
N	 0.6608878009	-0.2723112592	-2.0976733029	-0.288509
C	 1.3446838308	-0.9106659749	-3.2029025503	-0.178456
C	 1.1274911906	-0.0423240213	-4.4621148409	 0.166157
O	 1.9304403838	 0.1181323913	-5.3356111204	-0.22029
C	 2.7693940414	-1.2244495431	-3.0073640656	 0.279681
N	 3.8760824481	-1.4528485317	-2.7657710721	-0.331348
H	-0.8393908685	 1.7793510251	-0.7707764655	 0.14008
H	-1.3521346366	 0.1803692304	-0.215939307	 0.146644
H	-0.9475144384	 1.4402530869	 0.975838392	 0.12814
H	 1.2596083211	 0.7964467178	 0.8399500187	 0.260015
H	 2.3473474946	-0.2722814671	-0.8417340104	 0.126817
H	 0.8316543052	-1.861767105	-3.4294176067	 0.150093
H	 0.1193952748	 0.420762021	-4.4640175487	 0.107708
34.4105	59.6448	73.2029	121.7976	142.2816	155.1095	203.194	215.4343	338.801	373.1776	426.6095	448.1873	583.5484	647.3568	745.3639	801.4602	971.1758	1000.5209	1022.7118	1036.0583	1081.1515	1160.8162	1192.7094	1255.2168	1286.2339	1299.1853	1393.3099	1422.4314	1457.7299	1473.5605	1509.4605	1548.4592	1735.0588	1849.5437	2352.9268	2931.3609	2959.5599	3033.9003	3072.0723	3089.7803	3139.5533	3687.93
CNC=NC(C=O)C#N	CNC=N[C@@H](C=O)C#N	
InChI=1S/C5H7N3O/c1-7-4-8-5(2-6)3-9/h3-5H,1H3,(H,7,8)	InChI=1S/C5H7N3O/c1-7-4-8-5(2-6)3-9/h3-5H,1H3,(H,7,8)/t5-/m1/s1
