18
gdb 16887	3.93198	1.83615	1.43618	1.0932	73.93	-0.2152	0.0209	0.2361	914.0588	0.154761	-347.795453	-347.7882	-347.787256	-347.82662	28.421	
C	 0.0037413081	 1.5131430993	-0.0526652017	-0.47752
C	-0.0102123766	 0.0144491838	 0.0333851521	 0.266794
C	-1.1168542453	-0.7268587554	-0.0725051964	-0.140727
C	-1.0783284075	-2.2058212226	-0.0152647145	-0.112219
C	-0.1715811239	-2.9496905931	-1.0081697559	-0.336419
C	 0.2412876994	-2.7859384303	 0.4245973273	 0.136103
O	 1.2593081061	-1.9350538341	 0.8535655994	-0.256843
C	 1.3286458224	-0.6585026899	 0.2318672032	-0.165277
H	 0.6636370839	 1.8647725199	-0.8573493798	 0.122407
H	-0.9970016951	 1.9101084395	-0.2435458916	 0.1228
H	 0.3798023998	 1.9626184487	 0.875701183	 0.125289
H	-2.0835015226	-0.2468141332	-0.204551846	 0.081272
H	-1.9916136598	-2.7046814563	 0.2913321381	 0.086358
H	-0.4715736229	-3.9392930619	-1.336558075	 0.112918
H	 0.3044624558	-2.3463105229	-1.7726496937	 0.121087
H	 0.2343262338	-3.666614661	 1.0572563035	 0.102858
H	 1.8647377759	-0.7319316744	-0.7313212358	 0.09909
H	 1.9619294785	-0.0531620462	 0.8909616438	 0.112031
133.0854	167.8817	206.1138	317.6261	352.4559	409.7543	456.0455	496.9468	584.6007	699.6676	751.1056	803.9966	845.5248	866.2545	899.8414	952.0842	988.4401	1009.267	1029.6606	1037.5777	1073.9951	1088.1895	1105.4546	1122.1682	1184.3819	1206.7583	1233.7941	1272.0597	1345.8095	1380.2138	1383.9475	1414.4556	1427.1141	1476.4595	1478.8346	1491.4344	1501.1995	1733.4103	2937.7653	3009.7494	3050.612	3054.0971	3109.3194	3133.8237	3148.2862	3161.8204	3174.1256	3224.8218
CC1=CC2CC2OC1	CC1=C[C@H]2C[C@H]2OC1	
InChI=1S/C7H10O/c1-5-2-6-3-7(6)8-4-5/h2,6-7H,3-4H2,1H3	InChI=1S/C7H10O/c1-5-2-6-3-7(6)8-4-5/h2,6-7H,3-4H2,1H3/t6-,7+/m0/s1
