21
gdb 83252	1.80178	1.71123	1.51669	1.6076	77.27	-0.2396	0.0672	0.3068	1075.6932	0.182554	-424.220108	-424.210875	-424.209931	-424.253538	35.706	
C	-0.2369034687	 1.5345727789	-0.0647321108	-0.434885
C	 0.0336827014	 0.0375426606	 0.039518682	-0.076318
C	 1.3515882095	-0.6569769245	-0.294140462	-0.115265
C	 2.6274822753	 0.1758127779	-0.3412646451	-0.22381
C	 2.6567823021	 0.9611192518	 0.9932260364	-0.272518
C	 1.7928453831	 0.1379873694	 1.9765681695	 0.051734
O	 1.0583229105	 0.9138862372	 2.9226251243	-0.445076
C	 0.8344507159	-0.6631677106	 1.1156539667	 0.398281
O	 0.3335795876	-1.8415387341	 1.6757862025	-0.480688
H	 0.4229558775	 2.0278712255	-0.7867124001	 0.115389
H	-1.2620752536	 1.7053509833	-0.4058460147	 0.112331
H	-0.1222979795	 2.0351962343	 0.8994854465	 0.141785
H	-0.8094420293	-0.5837785269	-0.2502098178	 0.089456
H	 1.2965248204	-1.5568387167	-0.8969779941	 0.087992
H	 3.489258075	-0.4973183635	-0.4108090546	 0.10383
H	 2.6772042588	 0.84110239	-1.2106156517	 0.100424
H	 3.6756081253	 1.1072921854	 1.3640703946	 0.091961
H	 2.2102001528	 1.9515520763	 0.8800495248	 0.113289
H	 2.4177256521	-0.5961679997	 2.5082941345	 0.074289
H	 1.6835422402	 1.3055506132	 3.5403986875	 0.283156
H	-0.2865616263	-1.5830018376	 2.3672406316	 0.284644
90.4589	133.0271	196.9503	214.5781	245.34	270.9984	292.878	345.7969	376.815	435.0749	501.8235	557.8312	575.4935	657.6324	713.1197	765.6967	844.7562	893.7932	923.6253	961.746	968.6179	1022.7551	1044.8943	1078.3822	1084.1979	1105.0302	1116.0056	1120.418	1177.6519	1206.3796	1226.5763	1253.2609	1276.3972	1301.615	1332.0396	1339.6434	1349.5293	1358.1479	1416.7786	1429.561	1473.0809	1490.7411	1498.4566	1508.8772	1521.5342	2980.6635	3034.7158	3036.4418	3062.6388	3066.5192	3093.5656	3113.1559	3120.4176	3143.6343	3170.6139	3792.2634	3819.2927
CC1C2CCC(O)C12O	C[C@H]1[C@H]2CC[C@@H](O)[C@@]12O	
InChI=1S/C7H12O2/c1-4-5-2-3-6(8)7(4,5)9/h4-6,8-9H,2-3H2,1H3	InChI=1S/C7H12O2/c1-4-5-2-3-6(8)7(4,5)9/h4-6,8-9H,2-3H2,1H3/t4-,5+,6+,7+/m0/s1
