19
gdb 73596	2.33901	1.62301	1.32362	3.3978	79.6	-0.2484	0.0125	0.2609	1060.6903	0.160638	-382.079051	-382.070702	-382.069758	-382.111734	31.916	
C	 0.1107615427	 1.5235336671	-0.0118939919	-0.473896
C	-0.0078366613	 0.0188060381	 0.0224229383	 0.317443
C	-1.378754014	-0.6064398753	-0.2221670679	-0.279125
C	-1.3563991356	-1.9558409363	 0.5320361975	-0.248591
C	-0.1773655128	-1.8210425092	 1.53022536	-0.163923
N	 0.6905049848	-0.7087212062	 1.0907376864	-0.137897
C	 1.2062839805	-0.8130689366	-0.2966039473	-0.213878
C	 1.1419140536	-2.0249747015	-1.0698572542	 0.307654
N	 1.1313633191	-2.9968460816	-1.6988073479	-0.355735
H	 1.1178332906	 1.8457604109	 0.2638712211	 0.132399
H	-0.115640825	 1.9084022432	-1.0118533122	 0.128538
H	-0.595434963	 1.9766441679	 0.6922581304	 0.127318
H	-2.1364828547	 0.0682497638	 0.1906686099	 0.109622
H	-1.5992161052	-0.7254107264	-1.2868220949	 0.123578
H	-2.2989492276	-2.147519164	 1.0503106076	 0.106125
H	-1.1923456079	-2.7844026087	-0.157383962	 0.143996
H	-0.5318319835	-1.5502687383	 2.5295732958	 0.11659
H	 0.4074182004	-2.7402090468	 1.6240205687	 0.126946
H	 2.150313229	-0.2905163703	-0.4326300474	 0.132836
121.2091	137.7307	186.9774	195.9035	226.1803	325.8961	366.6391	393.4732	555.1786	559.4721	594.715	680.5696	725.5558	780.8292	792.7081	872.1957	897.0222	920.5133	949.4468	1016.3594	1035.5498	1046.5413	1072.9787	1089.1801	1143.155	1201.6982	1219.0001	1250.9789	1269.1271	1309.6702	1327.8976	1342.0103	1352.9724	1408.7024	1418.6927	1483.2545	1490.3833	1494.3424	1496.9261	1516.2198	2341.4321	3035.3536	3048.0685	3054.5718	3080.7416	3090.9504	3098.9666	3100.6749	3122.4847	3134.7282	3135.9669
CC12CCCN1C2C#N	C[C@]12CCCN1[C@H]2C#N	
InChI=1S/C7H10N2/c1-7-3-2-4-9(7)6(7)5-8/h6H,2-4H2,1H3	InChI=1S/C7H10N2/c1-7-3-2-4-9(7)6(7)5-8/h6H,2-4H2,1H3/t6-,7+,9?/m0/s1
