18
gdb 12014	3.23182	2.00409	1.75679	1.9428	66.31	-0.228	0.0668	0.2948	838.9731	0.153538	-384.925007	-384.917448	-384.916503	-384.956199	29.944	
C	-0.0247392547	 1.5424840547	-0.0344358579	-0.443601
C	 0.0184174239	 0.0154490321	 0.013310838	 0.356818
O	-1.3051960687	-0.5229010485	 0.0737912471	-0.473939
C	 0.8166722608	-0.6053751075	-1.1656401893	-0.128143
O	 1.3650691034	-1.8344396904	-0.7063106735	-0.253506
C	 1.5124212522	-1.7428076959	 0.6875689559	 0.112824
C	 2.2432925055	-0.5514209247	 1.2501005433	-0.34764
C	 0.7245426672	-0.5837945094	 1.2198616147	-0.073289
H	 0.9782912582	 1.9733162421	 0.0311961556	 0.121129
H	-0.4788475827	 1.8937057709	-0.9698627455	 0.106363
H	-0.6229812055	 1.9249891406	 0.7970149083	 0.128141
H	-1.8112405035	-0.1458162759	-0.653745002	 0.275218
H	 0.1717777806	-0.8163787064	-2.0242469901	 0.101347
H	 1.6143188024	 0.0767424828	-1.4957331003	 0.088564
H	 1.5687198926	-2.7165989877	 1.1578733869	 0.102432
H	 2.7091473399	-0.6676164993	 2.2225905203	 0.115236
H	 2.7826210409	 0.1059602537	 0.5762296484	 0.114809
H	 0.1596054675	-0.6274971912	 2.1425863901	 0.097236
144.2262	219.3288	240.6388	267.5186	321.6599	355.3969	409.8833	422.5782	494.4803	605.2623	710.2535	751.7113	802.0443	849.2723	886.3345	939.9052	955.4708	979.891	993.2719	1027.1816	1045.5379	1066.3542	1101.6867	1115.5349	1148.5109	1183.1852	1195.5653	1214.0127	1251.5094	1309.6181	1350.9188	1384.6957	1409.4789	1414.4797	1476.5376	1490.8854	1497.9164	1509.7771	2991.498	3025.6897	3076.2975	3094.8561	3123.0211	3132.7175	3187.2874	3195.089	3218.4598	3807.8407
CC1(O)COC2CC12	C[C@@]1(O)CO[C@H]2C[C@@H]12	
InChI=1S/C6H10O2/c1-6(7)3-8-5-2-4(5)6/h4-5,7H,2-3H2,1H3	InChI=1S/C6H10O2/c1-6(7)3-8-5-2-4(5)6/h4-5,7H,2-3H2,1H3/t4-,5+,6-/m1/s1
