19
gdb 72834	2.56584	1.51895	1.27632	3.7041	74.5	-0.2343	-0.017	0.2173	1061.4511	0.159316	-423.048076	-423.03983	-423.038886	-423.081269	32.001	
O	 0.0179474307	 1.3694103399	-0.4731876991	-0.485971
C	 0.0142138423	 0.0400337902	-0.0028896055	 0.419534
C	 0.4122185123	-1.0354628296	-1.0641361449	-0.284228
C	-1.0415674262	-1.5850347745	-1.050925946	-0.229314
C	-1.4177244336	-0.5635154564	 0.0745662237	-0.154248
C	-1.5322134919	-1.2082953633	 1.449356581	 0.401406
O	-2.5444225337	-1.6088468484	 1.964098452	-0.320925
C	-0.1281822907	-1.2669311343	 2.0697190955	-0.329437
C	 0.6423617144	-0.1179883868	 1.3991718163	-0.297941
H	 0.9349482846	 1.6519217224	-0.5658500354	 0.275639
H	 0.7205722319	-0.5945444751	-2.0143855188	 0.106455
H	 1.1799320796	-1.7434252297	-0.7388017022	 0.095526
H	-1.5915198811	-1.4107589491	-1.9767881216	 0.119776
H	-1.1541517982	-2.6373320834	-0.7795643242	 0.11172
H	-2.2562813741	 0.0983290656	-0.1405519873	 0.102663
H	-0.1783771362	-1.2150140066	 3.1588581772	 0.130181
H	 0.3065160163	-2.2427210729	 1.8134083668	 0.128861
H	 1.7239305313	-0.2858783665	 1.358721791	 0.095415
H	 0.4662743224	 0.8164360285	 1.9433740516	 0.114886
41.7703	135.9794	197.349	258.6355	296.8086	354.4079	391.0076	470.7785	522.8425	547.0807	622.0086	663.159	723.3229	767.9634	810.3198	843.6637	926.8491	938.0136	954.2316	966.9068	989.7811	1029.72	1056.1859	1109.9811	1144.8854	1172.2794	1194.8429	1214.1245	1217.4765	1240.255	1259.3292	1271.7081	1279.1397	1300.4626	1330.312	1381.963	1459.1714	1467.4318	1490.2462	1495.2055	1842.1902	3029.0085	3037.6445	3056.0305	3071.4298	3084.0917	3109.4611	3117.9477	3120.8259	3132.0776	3793.4147
OC12CCC1C(=O)CC2	O[C@]12CC[C@H]1C(=O)CC2	
InChI=1S/C7H10O2/c8-6-2-4-7(9)3-1-5(6)7/h5,9H,1-4H2	InChI=1S/C7H10O2/c8-6-2-4-7(9)3-1-5(6)7/h5,9H,1-4H2/t5-,7-/m0/s1
