25
gdb 118471	2.11432	0.96398	0.71176	1.585	85.95	-0.2465	0.0786	0.3251	1701.4229	0.225889	-426.626225	-426.614356	-426.613412	-426.664367	42.141	
C	-0.1431135522	 1.1526140137	 1.1068466967	-0.383008
C	 0.0750723409	-0.3232897567	 0.762625189	-0.172409
C	 0.6980821583	-0.5247993562	-0.6230195999	-0.170903
C	 0.9220934386	-1.9903094071	-0.9995117245	 0.087778
O	-0.3427600158	-2.6699295061	-1.0361342868	-0.272474
C	-0.4728271083	-3.73267798	-0.1111107998	-0.249351
C	 1.5747895993	-2.1704408435	-2.3874760765	 0.127044
C	 3.050979564	-1.7961143135	-2.415598613	-0.391111
O	 1.479274049	-3.5278866819	-2.7894442443	-0.444951
H	 0.8026304284	 1.7061546321	 1.102733708	 0.11256
H	-0.8091700706	 1.6331641908	 0.3816151038	 0.115744
H	-0.5920145712	 1.2689218497	 2.0982377437	 0.111545
H	 0.7197543482	-0.7845119773	 1.5229607898	 0.08983
H	-0.8817955228	-0.8554728549	 0.8004285506	 0.109957
H	 0.0503236446	-0.0693386768	-1.3837320058	 0.101474
H	 1.6578813659	 0.0044213103	-0.6715549376	 0.096224
H	 1.5671057973	-2.4756040472	-0.2521264541	 0.068494
H	 0.2883154914	-4.5084274096	-0.2743866282	 0.117632
H	-0.3992590438	-3.383137579	 0.9281925225	 0.111498
H	-1.4638494291	-4.1697578261	-0.2627572115	 0.125192
H	 1.024890048	-1.5302110389	-3.0994091284	 0.062004
H	 3.6101494593	-2.388533084	-1.6840127635	 0.119314
H	 3.4626979716	-2.0069375242	-3.4060524615	 0.127323
H	 3.2027576056	-0.7353666671	-2.2001495911	 0.116008
H	 0.5498995534	-3.7584941266	-2.6686519177	 0.284588
32.9116	77.2317	84.9738	97.9216	132.1315	183.3735	205.4509	246.4867	253.2957	297.4711	315.036	348.473	418.443	453.0864	497.8002	523.2243	575.4333	743.6011	831.0299	877.7909	908.0204	921.4545	965.0771	1027.1175	1053.0784	1067.6773	1087.2049	1122.8108	1141.8957	1164.4189	1175.4014	1181.726	1224.4469	1255.8485	1281.288	1292.3148	1329.1581	1336.735	1380.1051	1393.0082	1398.123	1406.8585	1412.7511	1438.0126	1471.6425	1479.4021	1487.0344	1489.2891	1493.9924	1499.9309	1501.1822	1509.1106	1513.8982	2945.9732	2987.1472	3000.4382	3014.2044	3023.1443	3029.2381	3043.8093	3045.4685	3054.6628	3072.7024	3097.9557	3101.5392	3106.5561	3115.7711	3127.0241	3782.9207
CCCC(OC)C(C)O	CCC[C@@H](OC)[C@@H](C)O	
InChI=1S/C7H16O2/c1-4-5-7(9-3)6(2)8/h6-8H,4-5H2,1-3H3	InChI=1S/C7H16O2/c1-4-5-7(9-3)6(2)8/h6-8H,4-5H2,1-3H3/t6-,7-/m1/s1
