18
gdb 103579	2.85435	1.21606	1.08548	2.9764	74.56	-0.2477	-0.0342	0.2135	1173.6875	0.147751	-439.130971	-439.122226	-439.121281	-439.16418	33.327	
C	-0.03224408	 1.565509309	-0.0232730071	-0.428526
C	-0.0412264819	 0.0285592667	 0.0198655746	 0.196342
C	-1.496581217	-0.5033859614	 0.0477668442	-0.076816
O	-2.2091952334	-0.1579714728	-1.1249560325	-0.419167
N	 0.6717829489	-0.5559485136	-1.1140083158	-0.365136
C	 1.8126920949	-1.2531048802	-0.7362036673	 0.390392
O	 2.6439775908	-1.7223805034	-1.4816273892	-0.377491
C	 1.7715200198	-1.2735263728	 0.7565628651	-0.205588
C	 0.7472368471	-0.5328610909	 1.1811693467	-0.095289
H	 0.9878218457	 1.9446732837	-0.1234046878	 0.127652
H	-0.634527432	 1.9137471205	-0.8669638163	 0.137167
H	-0.4677411693	 1.9782486868	 0.892085	 0.122455
H	-1.4745138776	-1.5908255703	 0.1998108172	 0.101565
H	-2.0384574844	-0.0506679852	 0.885038466	 0.110832
H	-1.8649603171	-0.7100729956	-1.8352664308	 0.287642
H	 0.6378156582	-0.1386126731	-2.0308648625	 0.248676
H	 2.5066363654	-1.803451151	 1.3453760104	 0.126809
H	 0.4545924219	-0.3442256564	 2.2071736751	 0.118483
92.8516	121.7109	182.8619	248.8404	263.9382	315.6896	345.4699	370.1344	431.2681	489.1204	514.4011	535.9484	640.68	717.9375	726.2579	838.0388	858.5281	910.1165	936.6543	954.1673	980.2561	985.2142	1068.4214	1090.9019	1128.1463	1177.6526	1202.5727	1244.2333	1294.2032	1338.3381	1378.209	1401.7676	1405.354	1415.5815	1486.3783	1498.0935	1503.2635	1653.5103	1824.3036	3012.4943	3043.0047	3079.8952	3115.5175	3129.9689	3205.09	3247.5296	3640.6773	3809.8497
CC1(CO)NC(=O)C=C1	C[C@@]1(CO)NC(=O)C=C1	
InChI=1S/C6H9NO2/c1-6(4-8)3-2-5(9)7-6/h2-3,8H,4H2,1H3,(H,7,9)	InChI=1S/C6H9NO2/c1-6(4-8)3-2-5(9)7-6/h2-3,8H,4H2,1H3,(H,7,9)/t6-/m1/s1
