22
gdb 63533	2.90009	1.31048	1.19317	1.7352	86.1	-0.2212	0.0743	0.2955	1176.0246	0.193434	-367.157023	-367.148045	-367.147101	-367.19013	35.267	
C	-0.077979692	 1.5136425647	 0.0292671122	-0.454045
C	-0.0394991776	-0.0029198398	 0.025538281	 0.276255
C	-1.2706230275	-0.6649019039	-0.5632425624	-0.452612
C	 1.303574284	-0.6738348783	-0.1937864256	-0.407829
C	 0.6646682851	-0.6951668618	 1.1653779346	 0.34302
C	 1.2659375869	-0.1465790968	 2.4661539841	-0.254784
N	 0.9247782692	-1.4171755962	 3.207257617	-0.126551
C	-0.5412840527	-1.5496111378	 3.129007525	-0.239207
C	 0.2528068284	-1.9249686431	 1.9400303365	-0.119957
H	 0.8247958427	 1.9406703073	 0.4767720175	 0.115148
H	-0.159181057	 1.9054249252	-0.9916007499	 0.115672
H	-0.9393730515	 1.8880975068	 0.5954383336	 0.112759
H	-1.4097381634	-0.3728813587	-1.6108527744	 0.114671
H	-1.1980338512	-1.7559935045	-0.5285791837	 0.114546
H	-2.1752408969	-0.3751713077	-0.0156930512	 0.113924
H	 1.3280361049	-1.6010562394	-0.7596745616	 0.108215
H	 2.1779649911	-0.0449021912	-0.3364182435	 0.106873
H	 2.3504037265	-0.0148228979	 2.4349647572	 0.112423
H	 0.8063552719	 0.7477529249	 2.9028484663	 0.100355
H	-0.9251111571	-2.3482062393	 3.7569381489	 0.1189
H	-1.1550085918	-0.6507431766	 3.1066348663	 0.108319
H	 0.3699641379	-2.9531219159	 1.6105407818	 0.093905
113.4314	149.8827	163.2033	197.1371	221.1186	299.5644	361.0006	394.1563	400.7132	456.029	489.6507	563.5339	706.8522	752.0617	780.3436	829.543	898.0424	902.8553	922.7114	958.2219	970.7553	981.2396	998.5979	1041.0163	1050.7261	1054.7386	1089.9526	1109.6252	1124.5765	1155.273	1187.3392	1200.5201	1209.0997	1237.2765	1282.1807	1300.8795	1343.8049	1410.7319	1420.8787	1431.5796	1479.0465	1486.8733	1490.8389	1492.4892	1498.5355	1504.5295	1517.741	3018.9538	3023.5623	3033.2846	3077.2452	3081.0334	3096.3293	3098.0414	3098.5651	3102.009	3110.0778	3151.4928	3192.8334	3193.2208
CC1(C)CC11CN2CC12	CC1(C)C[C@]21CN1C[C@@H]21	
InChI=1S/C8H13N/c1-7(2)4-8(7)5-9-3-6(8)9/h6H,3-5H2,1-2H3	InChI=1S/C8H13N/c1-7(2)4-8(7)5-9-3-6(8)9/h6H,3-5H2,1-2H3/t6-,8-,9?/m0/s1
