19
gdb 84696	2.69404	1.7079	1.44359	0.9141	74.64	-0.2439	-0.003	0.2409	973.5182	0.162352	-423.035309	-423.028029	-423.027085	-423.066729	29.716	
O	 0.1213813186	 1.4051947645	-0.1536073154	-0.442325
C	 0.0382166707	-0.0115211126	-0.0180292184	 0.10188
C	 0.8230308995	-0.4997512471	 1.1799221044	-0.113268
C	 0.3180622783	-1.3735866104	 2.0518123979	-0.06295
C	-1.0912032258	-1.9102717913	 1.8575879878	 0.063887
C	-1.3915187894	-2.0303997056	 0.3591934022	-0.243316
C	-1.4184930074	-0.524641763	 0.032924319	-0.071354
C	-2.1971546323	 0.0213757241	 1.2514497445	-0.078618
O	-2.0518007967	-0.9413949578	 2.3042797962	-0.267639
H	-0.0430619561	 1.7942802139	 0.7120121609	 0.279974
H	 0.5030467268	-0.3909563393	-0.9387652013	 0.093575
H	 1.8204954776	-0.0833376879	 1.2991985225	 0.097952
H	 0.8822190745	-1.6892008919	 2.9244719185	 0.096281
H	-1.2648560459	-2.8206715625	 2.4345679066	 0.075726
H	-0.6308519773	-2.5832006491	-0.1971643227	 0.104646
H	-2.3665948409	-2.4984942518	 0.1957870131	 0.103335
H	-1.9197718047	-0.2799660661	-0.9060309417	 0.077183
H	-1.8263163723	 1.0009624472	 1.5813633203	 0.079018
H	-3.2655655574	 0.1328664265	 1.0337271557	 0.106012
112.9336	238.4001	268.1303	299.1259	372.666	408.3664	428.0744	484.2584	606.3017	656.7306	728.3558	758.8086	829.1361	856.8804	891.659	922.299	938.0785	956.4413	984.0697	1000.6047	1017.2377	1048.3959	1065.9434	1090.4328	1109.0085	1165.442	1173.7089	1204.7666	1234.2029	1259.1584	1305.2185	1310.7345	1332.3435	1350.447	1370.1413	1384.4232	1396.1964	1422.7391	1489.1671	1527.8128	1699.6733	3008.6858	3010.8496	3050.2546	3057.1017	3090.0077	3096.6327	3113.068	3153.2831	3179.3824	3806.6545
OC1C=CC2CC1CO2	O[C@H]1C=C[C@@H]2C[C@H]1CO2	
InChI=1S/C7H10O2/c8-7-2-1-6-3-5(7)4-9-6/h1-2,5-8H,3-4H2	InChI=1S/C7H10O2/c8-7-2-1-6-3-5(7)4-9-6/h1-2,5-8H,3-4H2/t5-,6+,7-/m0/s1
