15
gdb 55594	4.91942	0.77786	0.67448	2.8181	67.81	-0.2675	-0.0323	0.2352	1585.6569	0.110445	-491.152085	-491.142509	-491.141565	-491.188028	31.925	
C	-0.3063439374	 1.4931322486	 0.0148127014	-0.503912
C	 0.1407055915	 0.0421128661	 0.001083698	 0.414321
O	 1.2878431934	-0.3143002034	-0.0134651791	-0.287035
N	-0.9473977264	-0.8512227343	 0.0072546802	-0.432089
C	-0.882354985	-2.2314215191	-0.0017791569	 0.564887
O	 0.0891983666	-2.9266223069	-0.0164695549	-0.340688
O	-2.1893747103	-2.6823621864	 0.0096693343	-0.240122
C	-2.3830920111	-4.0416525084	 0.0035612107	 0.122618
N	-3.5667534406	-4.4637658872	 0.0140505674	-0.424628
H	 0.577867181	 2.1287176485	 0.0087817147	 0.163161
H	-0.9230573207	 1.7186473155	-0.8616911534	 0.149055
H	-0.9032459737	 1.7079326334	 0.9075758942	 0.149082
H	-1.8812510975	-0.4690858698	 0.0197022721	 0.272074
H	-1.4462031728	-4.5988290057	-0.0099410495	 0.150755
H	-3.5692863171	-5.4825597708	 0.0080606207	 0.24252
54.5504	73.8253	94.5549	126.1803	126.2545	152.9689	259.8419	334.6451	395.5627	535.1139	571.7861	578.326	636.3464	775.1057	791.5982	849.6903	926.1024	944.3261	1031.1397	1053.2319	1071.0704	1092.9772	1181.588	1236.5569	1275.0204	1386.4517	1388.3974	1466.7032	1481.1992	1511.5478	1751.3406	1827.5627	1899.1843	3043.0881	3106.2976	3141.4297	3170.4443	3511.8175	3626.0105
CC(=O)NC(=O)OC=N	CC(=O)NC(=O)O[CH][NH]	
InChI=1S/C4H6N2O3/c1-3(7)6-4(8)9-2-5/h2,5H,1H3,(H,6,7,8)	InChI=1S/C4H6N2O3/c1-3(7)6-4(8)9-2-5/h2,5H,1H3,(H,6,7,8)
