20
gdb 123122	5.02114	0.54144	0.5044	3.0571	73.34	-0.2528	0.0268	0.2796	2125.77	0.168586	-477.443298	-477.432193	-477.431249	-477.482493	37.489	
N	-0.2052176543	 1.2906335246	-0.1512769434	-0.525237
C	-0.0027190064	-0.0499443942	 0.0091268289	 0.416153
O	 1.1084601038	-0.5329655826	 0.1158429787	-0.356777
C	-1.2771620882	-0.8878172794	 0.0382801119	-0.335234
C	-0.9729279588	-2.3778997733	-0.0119568546	-0.045243
O	-2.2018662109	-3.0739114511	 0.0692412477	-0.268595
C	-2.0612153782	-4.4826737418	 0.0261015087	-0.071332
C	-3.467020564	-5.0597512719	-0.0255907886	-0.058784
O	-4.172965157	-4.5910908592	-1.157514265	-0.42184
H	 0.5942340671	 1.900848036	-0.1050348658	 0.261813
H	-1.1238226652	 1.6974443262	-0.1672471594	 0.259037
H	-1.8346591683	-0.6615172848	 0.9558073731	 0.133249
H	-1.9300907262	-0.6088734915	-0.7970293444	 0.121295
H	-0.4428135439	-2.6308485689	-0.9422609023	 0.106109
H	-0.3099251426	-2.6546885618	 0.8191348936	 0.11329
H	-1.4983246981	-4.7811212472	-0.8726521316	 0.097225
H	-1.516643092	-4.8512594744	 0.9106788509	 0.089753
H	-3.4175826607	-6.151061621	-0.099198777	 0.107877
H	-3.9923963853	-4.8072324161	 0.9096249387	 0.091061
H	-4.0367605708	-3.6362580777	-1.16626878	 0.286178
14.3959	44.4575	71.85	99.7062	119.1032	143.134	171.1961	233.8094	318.034	355.8572	441.864	473.2754	507.9083	545.6162	623.2204	643.4995	816.0475	843.621	887.4888	909.1533	1048.3924	1064.8925	1079.9086	1088.1032	1115.3633	1140.4462	1156.066	1216.0072	1236.6943	1260.3416	1266.0339	1303.2503	1371.324	1384.7436	1398.2972	1438.209	1447.8267	1472.4453	1500.1415	1504.5201	1526.0493	1618.2393	1794.8457	2967.6021	2975.5607	2996.1808	3010.0592	3032.0712	3034.8007	3075.8221	3078.7336	3602.4561	3738.8498	3793.0772
NC(=O)CCOCCO	NC(=O)CCOCCO	
InChI=1S/C5H11NO3/c6-5(8)1-3-9-4-2-7/h7H,1-4H2,(H2,6,8)	InChI=1S/C5H11NO3/c6-5(8)1-3-9-4-2-7/h7H,1-4H2,(H2,6,8)
