23
gdb 113922	3.19307	0.79422	0.72335	1.2642	83.53	-0.2356	0.0821	0.3177	1682.8163	0.202755	-425.402082	-425.391187	-425.390243	-425.438998	39.414	
C	 0.1831454339	 1.4966927419	 0.0881802186	-0.390366
C	 0.0362569624	-0.0201275721	 0.0541971621	 0.158084
C	 0.150083354	-0.6463694262	 1.4459411605	-0.390992
O	-1.2278841274	-0.2801112982	-0.559629455	-0.263887
C	-1.4220733924	-1.5908305969	-0.9920793406	 0.115565
C	-2.1912535145	-2.5753148172	-0.1439493181	-0.308912
C	-2.8153621928	-1.978222676	-1.3906420174	-0.043697
C	-3.9457361706	-0.9926062312	-1.2580400311	-0.090676
O	-5.1493625662	-1.7275027761	-1.0603527681	-0.423687
H	 1.1541162519	 1.7815670659	 0.5038397731	 0.112108
H	 0.0967377789	 1.9120384186	-0.9191758597	 0.120802
H	-0.6019843384	 1.939115359	 0.7097748437	 0.121227
H	 0.8260483474	-0.4430732073	-0.589564761	 0.064936
H	 0.0517298359	-1.7336454326	 1.4047763619	 0.126401
H	 1.1238085893	-0.4105826121	 1.8875800791	 0.111756
H	-0.6311770109	-0.2534226169	 2.104946794	 0.117739
H	-0.6011743184	-1.9770835851	-1.5988429044	 0.081711
H	-1.90006841	-3.6202669706	-0.1475586134	 0.107673
H	-2.5701558721	-2.2101704123	 0.8041622898	 0.11975
H	-2.9021664126	-2.6338379771	-2.2523796219	 0.090243
H	-3.7442990439	-0.3116553168	-0.4201205302	 0.096179
H	-4.0060534042	-0.377537286	-2.1701926461	 0.08525
H	-5.8756903193	-1.0978442249	-1.0282094857	 0.282793
34.3728	67.4536	98.1762	113.9804	212.5404	226.2106	250.964	264.3094	273.2277	315.2259	377.8763	418.0406	476.1218	499.8364	594.6534	778.6162	823.5942	839.542	888.9145	921.4756	924.8803	943.8659	972.1825	1006.3717	1047.4935	1068.8259	1074.822	1130.9941	1148.5259	1162.6641	1171.752	1183.7506	1205.7182	1242.9803	1256.3782	1275.9456	1354.9976	1367.8369	1383.6085	1396.2177	1411.5673	1427.0883	1465.6177	1479.7411	1485.2604	1488.6981	1493.3815	1511.0375	1524.123	2958.2579	2973.2497	3026.5458	3036.9711	3042.7021	3081.4644	3105.3794	3115.2457	3123.0785	3124.9635	3132.1207	3149.2893	3222.5683	3825.6468
CC(C)OC1CC1CO	CC(C)O[C@H]1C[C@H]1CO	
InChI=1S/C7H14O2/c1-5(2)9-7-3-6(7)4-8/h5-8H,3-4H2,1-2H3	InChI=1S/C7H14O2/c1-5(2)9-7-3-6(7)4-8/h5-8H,3-4H2,1-2H3/t6-,7-/m0/s1
