17
gdb 128404	2.73256	1.23149	0.95253	4.3882	72.24	-0.2187	-0.0187	0.2	1243.1709	0.135684	-451.292158	-451.283038	-451.282094	-451.326748	32.893	
C	 0.6858920316	 1.1206166402	 1.3601524342	-0.316828
N	-0.1110218327	 0.4788023531	 0.3169366917	-0.266088
C	 0.4443904552	-0.7940629869	-0.1562793665	-0.295206
C	 0.4894749065	-1.9289775708	 0.8240583675	 0.165184
C	-0.4527106915	-2.8987513229	 1.1140937657	 0.377255
N	-1.7081589913	-3.1141405151	 0.6176791012	-0.588836
O	-0.0189535022	-3.6854794953	 2.0760913548	-0.230397
N	 1.3429519008	-3.1508746221	 2.4295491186	-0.047182
N	 1.5318196173	-2.1760401867	 1.6781537991	-0.138688
H	 1.6659170286	 1.3880073269	 0.9493154102	 0.124248
H	 0.1899399421	 2.0453786855	 1.6691342214	 0.117063
H	 0.8586752689	 0.5026336322	 2.2550874531	 0.116211
H	-1.0512470643	 0.3202551356	 0.6666199331	 0.213159
H	-0.1369195427	-1.1025545348	-1.0356425096	 0.092792
H	 1.4622683334	-0.6006604837	-0.5121635823	 0.132113
H	-1.8840495081	-2.7445906441	-0.3042860992	 0.270108
H	-2.0749734316	-4.0433364411	 0.760826227	 0.275091
37.9229	99.6913	136.0872	217.1227	233.7878	283.667	340.3075	341.165	377.7738	462.0244	528.3486	559.4566	659.638	677.2228	736.014	766.625	813.4941	908.6796	971.1839	984.6351	1083.5463	1107.2808	1149.6433	1165.5394	1257.0072	1293.3185	1340.5665	1371.2174	1453.7706	1462.4121	1477.3702	1484.6645	1489.9711	1496.2916	1519.8726	1605.1916	1658.3408	2983.6261	3013.6539	3062.4648	3074.4469	3104.7898	3507.2625	3577.4612	3684.0275
CNCC1=C(N)ON=N1	CNCc1c(N)onn1	
InChI=1S/C4H8N4O/c1-6-2-3-4(5)9-8-7-3/h6H,2,5H2,1H3	InChI=1S/C4H8N4O/c1-6-2-3-4(5)9-8-7-3/h6H,2,5H2,1H3
