18
gdb 6199	3.61919	1.52456	1.41185	2.4229	67.16	-0.2364	-0.0162	0.2203	953.7603	0.152504	-384.980238	-384.972115	-384.971171	-385.012533	31.23	
C	 0.1734532008	 1.4933156978	 0.143657111	-0.433485
C	-0.0668380216	-0.0146077197	 0.0101351114	 0.379852
O	-1.4581346527	-0.2811865058	-0.1311713146	-0.474317
C	 0.6339893055	-0.6040595327	-1.2372928331	-0.24373
C	 2.0778666021	-0.8914316293	-0.8040928892	-0.327022
C	 2.0046062016	-1.1174999466	 0.7128855634	 0.407393
O	 2.9135676387	-1.4777329164	 1.4139571349	-0.313851
C	 0.5814554201	-0.7969537649	 1.1736216641	-0.370863
H	 1.2407564054	 1.7319469603	 0.1998756811	 0.12242
H	-0.2549996512	 2.0211927004	-0.7129900217	 0.127332
H	-0.2926911469	 1.8801738664	 1.0579937272	 0.110132
H	-1.9238325775	 0.1635169958	 0.5850558493	 0.276154
H	 0.1159047364	-1.5335983042	-1.493287566	 0.117517
H	 0.5581334523	 0.0622862061	-2.100024946	 0.104697
H	 2.5385278373	-1.7506075182	-1.2982933365	 0.132351
H	 2.7441257378	-0.0378711489	-0.9801874732	 0.133121
H	 0.5791854402	-0.288617126	 2.1415586304	 0.115983
H	 0.0469231014	-1.748300724	 1.2929386874	 0.136315
67.4629	151.2116	245.6024	279.8109	312.8917	341.1292	375.8873	436.4786	464.9354	509.2124	555.8881	594.1192	729.4804	766.4783	807.8331	887.8089	943.5632	953.1543	986.5617	1010.2451	1018.6612	1104.0546	1154.9914	1159.2002	1189.3601	1219.8211	1251.9283	1278.7161	1304.8308	1332.8252	1381.532	1407.8525	1444.2349	1451.8667	1489.0884	1491.9728	1504.4857	1848.2305	3025.5422	3037.0449	3043.0604	3058.4676	3090.2438	3098.7613	3101.6517	3110.0657	3116.072	3807.0228
CC1(O)CCC(=O)C1	C[C@@]1(O)CCC(=O)C1	
InChI=1S/C6H10O2/c1-6(8)3-2-5(7)4-6/h8H,2-4H2,1H3	InChI=1S/C6H10O2/c1-6(8)3-2-5(7)4-6/h8H,2-4H2,1H3/t6-/m1/s1
