22
gdb 119886	4.20001	0.84462	0.73095	1.7641	84.61	-0.2379	0.0349	0.2728	1630.279	0.195051	-404.381492	-404.372018	-404.371074	-404.416821	34.627	
C	 0.0743613833	 1.6359222277	 0.0803179652	-0.384974
C	 0.0324048417	 0.1097383132	-0.0310464244	-0.152289
C	 0.6388419613	-0.5778362672	 1.1921005021	-0.269644
C	 0.618442273	-2.0843173017	 1.1419223812	 0.401843
N	 0.0570720707	-2.7309335743	 0.2075675996	-0.313917
C	 0.1269323181	-4.1877259499	 0.2023364837	-0.151471
C	 1.2448674356	-4.7417945494	 1.0901294387	-0.231257
C	 1.1983888518	-4.0064261091	 2.4218454366	-0.068635
O	 1.2790784657	-2.5898652251	 2.2266748201	-0.262571
H	 1.1029576143	 2.0024553296	 0.1760300946	 0.110426
H	-0.3651142552	 2.1087749453	-0.8033501754	 0.110969
H	-0.4820547061	 1.9883799552	 0.9564890225	 0.110574
H	-0.998760392	-0.2338406214	-0.1599098401	 0.111286
H	 0.5665637181	-0.2192396671	-0.9285976078	 0.106205
H	 1.6814589021	-0.2651375078	 1.3383278059	 0.116165
H	 0.1174601248	-0.2662358252	 2.1077418447	 0.115446
H	-0.8463028345	-4.5853742898	 0.5230646532	 0.107098
H	 0.2583284576	-4.5159374885	-0.8349061493	 0.108214
H	 1.1378307988	-5.8199659486	 1.2480201908	 0.101766
H	 2.2190935262	-4.5705021217	 0.6182033161	 0.113093
H	 0.2656617623	-4.2342541145	 2.9561752846	 0.107429
H	 2.0363968024	-4.2643741697	 3.0742574573	 0.114245
39.5627	69.8536	135.2056	139.1354	212.2744	246.2323	309.1511	315.9983	388.0762	504.6715	513.309	610.7157	701.1223	744.6595	829.9146	876.2423	877.642	885.7539	917.5622	949.7624	964.5419	1048.4594	1067.201	1113.201	1129.5265	1135.3316	1155.6007	1182.0446	1230.2589	1249.3174	1253.8102	1303.2041	1314.6903	1318.1817	1367.6704	1369.9298	1403.7402	1412.6976	1417.4267	1466.2324	1479.7072	1487.1876	1490.8074	1500.4149	1508.9128	1512.1719	1751.2147	3007.2993	3013.8124	3017.1289	3026.5293	3038.2964	3042.9625	3052.9272	3055.053	3075.9756	3087.52	3096.1298	3101.2624	3102.2294
CCCC1=NCCCO1	CCCC1=NCCCO1	
InChI=1S/C7H13NO/c1-2-4-7-8-5-3-6-9-7/h2-6H2,1H3	InChI=1S/C7H13NO/c1-2-4-7-8-5-3-6-9-7/h2-6H2,1H3
