23
gdb 104181	2.32706	1.49007	1.17672	0.598	81.15	-0.2514	0.0814	0.3328	1196.902	0.204422	-425.446944	-425.43698	-425.436035	-425.481646	37.581	
C	-0.0541698341	 1.5646987803	-0.4250955516	-0.253511
O	-0.1846323634	 0.1559408631	-0.3572894715	-0.278266
C	 0.6593108017	-0.5924971265	-1.224349196	 0.488488
C	 2.139332849	-0.3246129664	-0.957629662	-0.443833
C	 0.2288801585	-2.0700351935	-1.04554725	-0.297827
C	-0.2426355421	-2.5061150799	-2.4452219312	-0.220757
C	-0.5534301313	-1.1696179351	-3.1410698824	 0.115848
C	-1.9876304336	-0.6768823195	-2.9416462093	-0.396958
O	 0.4103893452	-0.2658249888	-2.5837585167	-0.287915
H	 0.8659956478	 1.9210391419	 0.0582343051	 0.105265
H	-0.0736101601	 1.9202643199	-1.461423933	 0.123628
H	-0.9090382309	 1.9825445398	 0.112421707	 0.120545
H	 2.3615004577	-0.4540730139	 0.1053141702	 0.12105
H	 2.7504307393	-1.0223132947	-1.5358070795	 0.118935
H	 2.4162132859	 0.6886189649	-1.2584039314	 0.125292
H	 1.0508828839	-2.6847957154	-0.6732289197	 0.103737
H	-0.575866787	-2.1056768585	-0.3096011522	 0.122151
H	 0.5617702183	-3.0203338054	-2.979577712	 0.102339
H	-1.1047460136	-3.1771814265	-2.4149768851	 0.101793
H	-0.3349506888	-1.2132112559	-4.213344213	 0.073622
H	-2.2449854789	-0.6336427788	-1.8803589768	 0.1323
H	-2.1022063699	 0.3269215778	-3.3610473518	 0.118054
H	-2.6930333036	-1.3430544986	-3.4502534771	 0.106021
53.8298	114.7471	131.4139	184.5681	236.1711	255.8187	260.2281	314.6014	356.9965	376.3896	400.923	459.5396	556.5535	633.1899	700.4688	779.0217	793.1921	851.8756	882.9285	907.7849	949.2535	954.9202	993.9381	1051.5928	1073.1956	1097.6371	1124.1851	1131.7816	1171.1443	1177.1376	1203.1677	1229.2112	1238.6376	1276.2553	1313.5311	1341.0937	1352.3343	1389.436	1403.7161	1406.0873	1463.611	1479.6749	1483.6033	1485.8689	1489.0304	1500.4762	1504.2068	1505.2116	1514.2652	3002.8246	3037.0931	3043.8123	3048.6066	3059.4876	3070.4659	3079.8973	3100.2449	3107.8734	3114.8361	3124.4143	3126.8419	3128.7256	3131.4582
COC1(C)CCC(C)O1	CO[C@@]1(C)CC[C@@H](C)O1	
InChI=1S/C7H14O2/c1-6-4-5-7(2,8-3)9-6/h6H,4-5H2,1-3H3	InChI=1S/C7H14O2/c1-6-4-5-7(2,8-3)9-6/h6H,4-5H2,1-3H3/t6-,7-/m1/s1
