18
gdb 78872	3.74713	1.40363	1.25834	1.12	75.39	-0.2358	0.0669	0.3027	1035.9918	0.147847	-401.851331	-401.84396	-401.843016	-401.88275	29.959	
O	 0.0454774956	 1.2579140168	-0.169229103	-0.444075
C	-0.053704146	-0.1439860187	-0.024010807	 0.130544
C	 0.0678845362	-0.6024527537	 1.4370346809	-0.100266
C	-1.3842220807	-0.4324470631	 1.6586301599	-0.032205
C	-1.543723899	-0.5506657613	 0.0920137358	-0.205819
C	-1.4368068252	-2.0460098883	 0.3338904761	 0.440364
C	-2.4635875369	-3.1102509744	 0.1726044067	-0.355358
C	-1.1321173704	-3.1969886737	-0.564860633	-0.343447
N	-0.8085853052	-1.8098614235	 1.6613937049	-0.193568
H	 0.9565152345	 1.5143080503	 0.0065706032	 0.28442
H	 0.5420323411	-0.6685940004	-0.7840888785	 0.068059
H	 0.8952553663	-0.469985196	 2.1236925057	 0.093482
H	-1.9781578984	-0.0174364406	 2.4607903389	 0.101373
H	-2.2863870315	-0.0884029748	-0.554663099	 0.083098
H	-2.6167281988	-3.7824038717	 1.0101673522	 0.12451
H	-3.355885298	-2.889351773	-0.4040145447	 0.113811
H	-1.1264352713	-3.0330960065	-1.6379712528	 0.11301
H	-0.4139895124	-3.9304683474	-0.2141949962	 0.122066
148.2936	215.9947	231.8841	268.2965	304.4691	369.4274	465.9924	557.5206	594.6173	757.9897	785.8261	795.6027	823.7164	859.5289	878.4075	897.6371	924.1389	953.2056	962.658	981.3301	984.4911	1038.0966	1047.6218	1056.7907	1075.6783	1102.0133	1130.3616	1153.7385	1178.8702	1185.9976	1204.8107	1237.0326	1254.0703	1307.703	1338.1352	1395.7881	1417.5813	1451.8819	1506.4214	3003.2662	3126.4968	3129.8842	3144.2216	3188.5122	3208.7651	3216.5814	3222.5656	3813.3001
OC1C2C3C1C1(CC1)N23	O[C@H]1[C@H]2[C@H]3[C@@H]1C1(CC1)N23	
InChI=1S/C7H9NO/c9-6-3-4-5(6)8(4)7(3)1-2-7/h3-6,9H,1-2H2	InChI=1S/C7H9NO/c9-6-3-4-5(6)8(4)7(3)1-2-7/h3-6,9H,1-2H2/t3-,4+,5+,6+,8?/m0/s1
