14
gdb 133032	2.51667	1.64323	1.00031	1.8798	70.97	-0.2335	-0.0558	0.1777	1098.9762	0.100151	-477.988124	-477.980152	-477.979208	-478.022209	28.027	
C	-0.016403302	 1.4528772084	 0.0152290171	-0.325211
N	-0.0095863775	 0.0013913118	-0.0205365298	-0.312811
C	 0.5480249668	-0.637900531	 0.908516278	 0.325194
O	 1.1710236611	 0.0096729048	 1.9910453801	-0.233953
C	 1.7615490661	-0.7068494623	 2.9733283545	 0.131797
N	 1.8345290991	-1.9746834222	 3.0561612277	-0.269983
C	 1.2423689883	-2.6971648154	 2.0239916378	-0.127143
C	 0.6269857234	-2.0877563727	 0.9957014908	 0.182009
F	 0.0620295281	-2.7667293961	 0.0111831821	-0.039779
H	 1.0007042059	 1.8670236489	 0.0172404556	 0.126927
H	-0.5409134866	 1.828085396	-0.8655358027	 0.129293
H	-0.5213120436	 1.8378920687	 0.9112505712	 0.126922
H	 2.1911964667	-0.0541333077	 3.7263017497	 0.149256
H	 1.2972465442	-3.7778565514	 2.0821521679	 0.137483
21.3771	112.9507	188.2425	203.7189	256.4368	316.3845	483.392	500.041	543.9305	593.7901	596.0443	736.1432	745.0114	890.7211	917.3318	945.8968	1036.38	1060.44	1107.9317	1108.6485	1171.1048	1197.6605	1300.7943	1404.4678	1409.2878	1438.8661	1485.3081	1499.7112	1643.1003	1685.7661	1775.9276	3004.421	3054.8452	3117.8805	3201.0999	3206.2195
CN=C1OC=NC=C1F	C[N]C1=C(CN=CO1)F	
InChI=1S/C5H5FN2O/c1-7-5-4(6)2-8-3-9-5/h2-3H,1H3	InChI=1S/C5H6FN2O/c1-7-5-4(6)2-8-3-9-5/h3H,2H2,1H3
