15
gdb 98747	2.47915	1.36629	1.10833	1.3448	63.24	-0.2677	-0.0534	0.2143	1124.1419	0.109099	-494.900482	-494.8912	-494.890256	-494.936504	30.754	
C	 0.656930297	 1.5720414536	-0.1845305975	-0.240376
O	 1.2462724972	 0.2951937469	-0.4743308644	-0.199696
C	 0.4216143956	-0.6097110022	-0.995847764	 0.407496
O	-0.7385751041	-0.4298093596	-1.2740374639	-0.365208
C	 1.0886980554	-1.940860997	-1.2360099892	-0.049062
O	 2.4563438022	-2.1215584137	-0.9398294282	-0.202431
C	 1.5393865189	-2.8328275936	-0.1286128624	-0.034132
C	 1.3999357942	-2.4516510724	 1.3187376567	 0.140906
O	 1.9127590929	-1.4971807082	 1.836989477	-0.233872
H	 0.2638420454	 2.0270464805	-1.0968570117	 0.143651
H	-0.1560726041	 1.4612060425	 0.5366615952	 0.145946
H	 1.4607948695	 2.176024837	 0.2337649951	 0.145699
H	 0.7186289121	-2.4289320168	-2.1366368224	 0.134777
H	 1.4744617111	-3.9065026859	-0.3173988953	 0.119276
H	 0.7585397968	-3.160919091	 1.889205095	 0.087027
20.0551	88.2098	106.0676	128.804	167.7117	199.607	259.3224	321.6403	368.2087	481.4714	647.762	729.8097	774.1142	803.986	860.3522	934.9701	962.8427	986.659	1060.514	1095.6505	1117.272	1177.9974	1210.5735	1256.8555	1320.1477	1363.6755	1421.8457	1447.3399	1476.1427	1483.2296	1493.1946	1813.6073	1839.0145	2879.5844	3056.8928	3095.6849	3133.1986	3133.4006	3171.4977
COC(=O)C1OC1C=O	COC(=O)[C@H]1O[C@H]1C=O	
InChI=1S/C5H6O4/c1-8-5(7)4-3(2-6)9-4/h2-4H,1H3	InChI=1S/C5H6O4/c1-8-5(7)4-3(2-6)9-4/h2-4H,1H3/t3-,4-/m0/s1
