21
gdb 41436	2.69336	2.09046	1.62932	0.2548	86.33	-0.2205	0.0851	0.3056	930.3331	0.185639	-349.859213	-349.852594	-349.85165	-349.889578	29.27	
C	 0.0062005329	 1.5156355689	-0.1844093605	-0.330122
C	 1.572921613	 1.4819146515	 0.0743897933	-0.326388
C	 1.3540124891	 0.1605275102	 0.8921899943	 0.294338
C	 1.0457881112	 0.2966641893	 2.3860859742	-0.275128
C	-0.1020360966	-0.7411105471	 2.5334213104	-0.237122
C	-0.2087963397	-1.2161110765	 1.0887944401	-0.083296
C	 1.2737467263	-1.3605162108	 0.499245838	-0.120961
C	 0.7298430956	-0.9776775653	-0.8827428455	-0.269961
C	 0.0334966188	-0.0065191191	 0.1111924569	 0.262581
H	-0.5155882649	 2.1018060604	 0.5768470563	 0.109313
H	-0.3419007475	 1.8302814457	-1.1721307853	 0.099619
H	 2.1451372094	 1.3745859504	-0.8480872765	 0.112364
H	 1.9925758144	 2.3149607355	 0.6429415264	 0.099191
H	 1.9143931337	 0.0596568975	 3.0098163247	 0.09416
H	 0.727080521	 1.3095903322	 2.6543460286	 0.091074
H	 0.1483776379	-1.5651900871	 3.2092470477	 0.09649
H	-1.0326441447	-0.2926019814	 2.8956813675	 0.096765
H	-0.938474053	-1.9939814715	 0.8463617967	 0.059488
H	 1.9621516684	-2.1771994355	 0.7468238425	 0.055979
H	 1.4394205701	-0.5511498161	-1.595113253	 0.088056
H	 0.0823727048	-1.7067688313	-1.3786194566	 0.083559
202.675	256.9503	355.2647	372.9774	438.6832	481.8284	580.8916	660.7649	672.1744	700.4965	789.4942	811.8282	829.3512	839.6318	861.663	886.43	913.8742	927.309	946.9734	980.6116	994.4995	1015.3764	1049.2859	1059.8711	1102.6832	1125.5659	1132.3926	1172.1901	1182.1677	1193.1509	1203.435	1223.3133	1228.5531	1230.2588	1250.303	1254.2701	1266.1334	1271.7351	1318.7327	1341.7982	1473.1352	1481.1084	1490.2015	1510.3221	1530.6475	3029.3617	3035.4188	3046.8891	3052.6378	3054.8603	3066.0022	3073.6388	3078.6383	3089.079	3106.3751	3109.2994	3132.8513
C1CC23CCC4C2CC134	C1C[C@]23CC[C@@H]4[C@H]2C[C@]134	
InChI=1S/C9H12/c1-2-8-3-4-9(8)5-7(8)6(1)9/h6-7H,1-5H2	InChI=1S/C9H12/c1-2-8-3-4-9(8)5-7(8)6(1)9/h6-7H,1-5H2/t6-,7-,8-,9+/m1/s1
