20
gdb 31508	3.15178	1.0387	0.83156	0.6109	84.7	-0.1701	0.0596	0.2297	1443.5219	0.169813	-403.196668	-403.186412	-403.185468	-403.232593	36.713	
C	 0.0816223802	 1.5091458926	-0.3638622631	-0.364105
C	-0.0189154167	 0.0670801549	 0.1675251624	-0.297646
C	-1.4109958792	-0.4749781719	 0.2071824828	 0.318804
C	-2.2333807661	-0.7977945332	 1.2564675141	-0.326166
C	-3.4905169971	-1.2657509704	 0.7432667904	 0.151743
C	-4.6822718124	-1.7273899347	 1.5255831128	-0.511665
C	-3.3708275453	-1.2027739788	-0.6246618333	 0.286396
O	-4.2115190706	-1.5123249597	-1.6492544705	-0.439993
N	-2.1312627998	-0.7296701039	-0.9520168931	-0.355333
H	 1.120493464	 1.8549563828	-0.3666518408	 0.109378
H	-0.2962500251	 1.5854623878	-1.3891744506	 0.106958
H	-0.5078431426	 2.191728241	 0.2554709603	 0.123444
H	 0.6286065707	-0.5827947669	-0.439108337	 0.097787
H	 0.3825400487	 0.0264441179	 1.1852971747	 0.112131
H	-1.9701237745	-0.7132988754	 2.3012282983	 0.082464
H	-5.1076396108	-0.9289787046	 2.1461709234	 0.126549
H	-5.4900474282	-2.0813831448	 0.8724149547	 0.090439
H	-4.4366910079	-2.5594916176	 2.1963896877	 0.127507
H	-5.0445118105	-1.8111381253	-1.2719385212	 0.302685
H	-1.8079803168	-0.6076269397	-1.8958390521	 0.258621
47.7151	51.5726	116.2279	176.1795	193.224	236.2299	256.3642	264.5864	306.2599	390.2311	407.5465	488.6677	579.9588	640.8412	660.1429	684.04	779.6887	790.7851	793.6182	949.5587	988.0048	1021.6063	1057.8186	1063.2665	1082.948	1149.1538	1175.9901	1211.4103	1249.0383	1296.7486	1345.6984	1369.4684	1406.4108	1421.2404	1430.4099	1474.8919	1478.0934	1495.8214	1503.8284	1505.5745	1546.3657	1578.6327	1669.1088	2998.2139	3009.4847	3032.301	3060.9326	3065.9892	3070.6734	3100.2243	3112.1293	3231.4656	3681.9063	3840.9153
CCC1=CC(C)=C(O)N1	CCc1cc(C)c(O)[nH]1	
InChI=1S/C7H11NO/c1-3-6-4-5(2)7(9)8-6/h4,8-9H,3H2,1-2H3	InChI=1S/C7H11NO/c1-3-6-4-5(2)7(9)8-6/h4,8-9H,3H2,1-2H3
