17
gdb 9890	3.9895	1.22731	1.15076	4.7527	65.63	-0.2598	0.0131	0.2729	1087.6794	0.141049	-400.996469	-400.987965	-400.987021	-401.030137	30.101	
C	-0.0722279224	 1.620689222	-0.1433356592	-0.46938
C	-0.2128537615	 0.117119266	-0.0407953982	 0.325976
C	-1.6263781058	-0.397129176	 0.1257376951	-0.137233
O	-2.2247159884	 0.1299514964	 1.3177581901	-0.185702
C	-2.0674016717	-0.5857340084	 2.453295024	 0.175
O	-2.4525580277	-0.1918218557	 3.512793725	-0.278958
C	 0.7781336767	-0.7642755289	-0.709816971	-0.284287
N	 0.7593613594	-0.6491738803	 0.7609007639	-0.343808
H	 0.9783693698	 1.9091111825	-0.247350219	 0.114751
H	-0.6145107361	 2.008195031	-1.0129658461	 0.12684
H	-0.4801791713	 2.1077407868	 0.7472989766	 0.149274
H	-2.2682227981	-0.0696984372	-0.6969943482	 0.122358
H	-1.6247951636	-1.4923696354	 0.1569011103	 0.116494
H	-1.5641240325	-1.5544002595	 2.2837877665	 0.094978
H	 0.4848568059	-1.7368795171	-1.096688887	 0.119935
H	 1.5834643606	-0.286806194	-1.2617562356	 0.1183
H	 1.5114540567	-0.0403068522	 1.0739964728	 0.23546
62.8413	71.1986	142.4341	211.5556	251.2793	307.9163	336.4687	384.398	404.7773	490.0974	676.6317	735.5	850.616	902.2934	929.7904	952.2162	999.1319	1021.8188	1029.9554	1046.6039	1083.1814	1118.7056	1142.8608	1164.0046	1265.4339	1301.4971	1348.6548	1377.8188	1409.8946	1420.1138	1437.413	1481.282	1493.8164	1504.5959	1517.5436	1863.6592	2984.155	3033.4491	3043.3764	3098.7679	3103.1925	3106.6135	3114.5786	3190.023	3501.2604
CC1(COC=O)CN1	C[C@@]1(COC=O)CN1	
InChI=1S/C5H9NO2/c1-5(2-6-5)3-8-4-7/h4,6H,2-3H2,1H3	InChI=1S/C5H9NO2/c1-5(2-6-5)3-8-4-7/h4,6H,2-3H2,1H3/t5-/m0/s1
