21
gdb 41193	2.82755	1.68812	1.53978	1.3753	82.86	-0.2283	0.0723	0.3005	982.4172	0.185543	-386.99711	-386.990151	-386.989207	-387.027895	30.041	
C	 0.0000836052	 1.6213331816	-0.2301177281	-0.303202
C	 1.5673328202	 1.4438959748	 0.0095456696	-0.325497
C	 1.1768660458	 0.2246158207	 0.9155901058	 0.314489
C	 1.2122441929	-1.3395819788	 1.0031314213	-0.33737
C	-0.3887734853	-1.2138597917	 0.9307418381	 0.059494
O	-0.9407635875	-1.0145254158	 2.2016081723	-0.254551
C	-0.5945397369	 0.2540984597	 2.749974198	-0.060702
C	 0.8238518422	 0.6987476223	 2.3559652406	-0.264456
C	-0.0576257888	 0.0781496258	 0.0659723175	 0.008582
H	-0.4534627283	 2.2584230899	 0.5309461415	 0.111597
H	-0.3249966917	 1.9570395024	-1.217641915	 0.099898
H	 2.0667090142	 1.150196893	-0.9178450369	 0.105329
H	 2.1098178246	 2.275811414	 0.4688916606	 0.094365
H	 1.6220250695	-1.8326993158	 0.118760297	 0.099824
H	 1.6041041293	-1.802086739	 1.9143698181	 0.09318
H	-0.9478432089	-2.0281534641	 0.4635968673	 0.08036
H	-1.3197537168	 0.9991180231	 2.3921151101	 0.097716
H	-0.7147256177	 0.1693258105	 3.8338911344	 0.104494
H	 1.5687674465	 0.2823878286	 3.043893322	 0.101399
H	 0.8856240787	 1.7876135893	 2.4503463112	 0.095032
H	 0.2639857126	-0.3706169305	-0.8829934154	 0.08002
200.5814	230.581	295.0154	354.8822	421.0195	431.9302	502.4569	533.8247	642.6847	663.8429	753.0755	762.947	804.2184	831.1223	855.957	883.8753	914.4424	928.1889	960.806	998.6627	1012.5824	1041.9491	1065.9306	1070.8386	1105.2034	1144.2019	1148.7053	1169.06	1185.62	1205.2078	1215.9928	1218.9745	1233.9904	1274.4201	1279.7144	1282.4079	1345.6884	1370.1026	1408.2478	1434.2242	1474.1917	1482.4541	1488.4805	1504.244	1517.2564	2994.4013	3000.0093	3032.9693	3046.1241	3048.7151	3070.3966	3074.176	3082.4272	3084.1061	3107.2352	3119.7437	3133.8814
C1CC23CC(OCC2)C13	C1C[C@@]23C[C@@H](OCC2)[C@@H]13	
InChI=1S/C8H12O/c1-2-8-3-4-9-7(5-8)6(1)8/h6-7H,1-5H2	InChI=1S/C8H12O/c1-2-8-3-4-9-7(5-8)6(1)8/h6-7H,1-5H2/t6-,7-,8+/m1/s1
