16
gdb 64893	2.00908	1.71737	1.10164	3.2201	76.76	-0.2575	0.0077	0.2652	1110.6479	0.12105	-400.713083	-400.703666	-400.702722	-400.746793	34.941	
C	-0.0391896111	 1.5117240784	 0.070388761	-0.465947
C	 0.0041716297	-0.0056767658	 0.0007571447	 0.073516
C	 1.3317731879	-0.7032353449	-0.2626854706	-0.350345
C	 0.7674615511	-0.778519823	 1.1229087484	 0.208004
O	 1.4484516375	-8.9943*^-6	 2.0608924467	-0.440328
C	 0.2125693808	-2.006125273	 1.6245511321	 0.300145
C	-0.2638679767	-3.0066497123	 2.0898816772	-0.454702
C	-1.1798412962	-0.6236735556	-0.5361540335	 0.251741
N	-2.1431901368	-1.0952452366	-0.9703944753	-0.34765
H	 0.8370820224	 1.8851199871	 0.6020186613	 0.145115
H	-0.053790694	 1.940403871	-0.9358532035	 0.140423
H	-0.9360645665	 1.8513019222	 0.5964360514	 0.13775
H	 1.3302847112	-1.604107118	-0.8628031988	 0.152397
H	 2.1935324157	-0.0561383039	-0.3838995975	 0.143764
H	 0.8854590067	 0.0876122395	 2.839226727	 0.296189
H	-0.6870967917	-3.8985410008	 2.4824090091	 0.209927
106.0023	111.6325	180.1922	195.4884	197.5448	262.613	307.423	351.3612	414.5986	419.8565	464.0879	551.9059	581.9177	614.6539	623.2601	668.7567	694.9667	727.6223	843.7305	927.43	941.2257	980.9169	1081.5654	1100.6476	1120.5503	1233.8743	1266.9665	1301.4414	1401.8424	1411.309	1469.0735	1493.154	1500.3855	2238.8574	2347.6416	3049.4247	3114.4732	3145.8991	3148.4259	3247.3547	3499.1969	3795.7367
CC1(CC1(O)C#C)C#N	C[C@]1(C[C@]1(O)C#C)C#N	
InChI=1S/C7H7NO/c1-3-7(9)4-6(7,2)5-8/h1,9H,4H2,2H3	InChI=1S/C7H7NO/c1-3-7(9)4-6(7,2)5-8/h1,9H,4H2,2H3/t6-,7+/m0/s1
