23
gdb 109934	2.1069	1.40102	1.09672	2.0974	82.41	-0.2404	0.0769	0.3173	1274.6685	0.202269	-425.416113	-425.405377	-425.404432	-425.45168	39.274	
C	 0.1423033815	 1.5246514448	-0.1029002402	-0.242605
O	-0.1714052945	 0.1588080568	-0.275824189	-0.235962
C	 0.634218634	-0.4976393732	-1.2168286475	 0.015034
C	 1.9267000977	-1.1998411148	-0.7061630449	 0.126807
C	 2.2770152705	-1.0872226792	 0.7650923662	-0.408375
O	 1.3844024036	-2.4972511186	-1.0446601328	-0.345513
C	 0.1454197238	-1.9298252966	-1.5659275426	 0.387206
C	-1.0577060387	-2.4368797994	-0.7843696877	-0.418814
C	 0.0210120848	-2.2073046953	-3.0596492942	-0.430176
H	 1.1539623453	 1.6721153211	 0.3007737122	 0.111297
H	 0.0641703538	 2.076943124	-1.051950658	 0.108686
H	-0.5811086884	 1.9340235559	 0.606167725	 0.130083
H	 0.7912613058	 0.1446335142	-2.0946006876	 0.061604
H	 2.8093074386	-0.9827419701	-1.3244629423	 0.064981
H	 1.3817217454	-1.1470248954	 1.3880422163	 0.129749
H	 2.9510765756	-1.9044271183	 1.0397263924	 0.125675
H	 2.7881814118	-0.1414806518	 0.9760710122	 0.10908
H	-0.9633035932	-2.2075048568	 0.277802175	 0.128057
H	-1.9821228386	-1.981067885	-1.1518824633	 0.114961
H	-1.1340620598	-3.522456242	-0.9043339712	 0.116271
H	-0.0702345773	-3.2834424474	-3.2377549641	 0.123199
H	-0.8644806397	-1.7136994153	-3.474806583	 0.114707
H	 0.903232338	-1.8486021375	-3.5983349109	 0.114047
51.3069	104.3518	159.8104	175.8063	196.245	219.2354	222.7781	246.6174	283.8864	328.3283	332.5705	401.4706	430.1743	520.708	548.0152	684.9306	798.389	861.0807	878.0878	929.7412	940.1369	979.5554	997.0034	1002.8136	1065.2165	1089.2644	1144.012	1169.4616	1182.0533	1184.703	1196.4898	1246.343	1269.0159	1283.177	1317.4467	1380.0018	1393.3147	1397.1438	1407.2778	1416.3814	1472.5194	1476.3533	1480.4393	1483.2466	1489.5211	1492.3842	1496.0529	1502.3731	1509.1606	2981.5789	2989.4423	3006.8785	3031.5275	3034.2438	3039.6506	3044.4286	3103.0675	3104.9759	3109.0763	3112.7321	3117.2671	3131.6091	3143.1626
COC1C(C)OC1(C)C	CO[C@H]1[C@@H](C)OC1(C)C	
InChI=1S/C7H14O2/c1-5-6(8-4)7(2,3)9-5/h5-6H,1-4H3	InChI=1S/C7H14O2/c1-5-6(8-4)7(2,3)9-5/h5-6H,1-4H3/t5-,6+/m1/s1
