25
gdb 120550	2.97058	0.76349	0.6757	1.405	90.31	-0.2393	0.089	0.3282	1837.806	0.227781	-389.494622	-389.48394	-389.482996	-389.531372	38.856	
C	-0.4711136516	 1.3655099586	 0.3650011872	-0.381868
C	-0.1626482229	-0.1269637853	 0.2230054075	-0.160877
C	 0.8413025975	-0.6351563609	 1.2640297427	-0.185989
C	 1.1057142137	-2.1252502779	 1.1461901944	 0.165228
C	 1.870304397	-2.8408195407	 2.2801930833	-0.345264
C	 0.6253890811	-3.7495084264	 2.3612156045	 0.182413
C	-0.1145941336	-3.8640549516	 3.6821487533	-0.188208
C	-1.4797533177	-4.54113122	 3.5298671303	-0.379489
O	-0.0791001397	-2.924450212	 1.3981093623	-0.31696
H	 0.4340837675	 1.9722063271	 0.2471753315	 0.110313
H	-1.1937870196	 1.697209041	-0.3871187701	 0.111312
H	-0.8914287505	 1.590264149	 1.3516849217	 0.113496
H	-1.0849198139	-0.7112343429	 0.3174377823	 0.117785
H	 0.2274760019	-0.3286801807	-0.7834588658	 0.091532
H	 1.7979036401	-0.1032838386	 1.1593238696	 0.090218
H	 0.4682490067	-0.421835818	 2.2744271162	 0.091755
H	 1.5074237146	-2.3547309638	 0.1472410412	 0.06628
H	 2.8118704516	-3.3209157132	 2.0098615035	 0.1039
H	 2.0216768117	-2.2217108862	 3.1688112314	 0.10237
H	 0.7967881059	-4.7530343701	 1.9420152798	 0.065796
H	 0.5168882272	-4.4259565121	 4.3836699429	 0.093127
H	-0.2402499491	-2.8580747603	 4.1015248729	 0.09478
H	-2.0957403839	-3.9937713119	 2.8107887828	 0.13672
H	-1.3742861239	-5.5696803069	 3.1672111951	 0.11204
H	-2.0148054002	-4.5758928063	 4.4835034495	 0.109593
40.6468	84.9711	96.4095	103.1057	158.934	209.8978	239.389	247.4429	319.2788	368.4744	405.8292	453.4124	481.1367	688.9214	746.9295	785.815	827.3046	863.3009	891.4941	920.3573	944.8077	968.5495	977.719	1015.2615	1043.2895	1056.2152	1074.381	1111.0808	1131.0858	1134.2547	1186.6352	1202.808	1248.9334	1258.1482	1276.6904	1285.7396	1303.9972	1322.1237	1331.1112	1355.0112	1381.8465	1398.3701	1408.3855	1411.5917	1426.2075	1470.8143	1475.1363	1492.276	1493.6988	1498.8837	1498.9622	1509.2612	1509.892	2977.2575	2982.9801	3006.1592	3017.2262	3021.0962	3027.344	3036.3917	3046.7509	3057.2223	3064.0214	3068.6129	3095.7537	3100.3555	3102.5949	3119.0189	3125.2315
CCCC1CC(CC)O1	CCC[C@H]1C[C@@H](CC)O1	
InChI=1S/C8H16O/c1-3-5-8-6-7(4-2)9-8/h7-8H,3-6H2,1-2H3	InChI=1S/C8H16O/c1-3-5-8-6-7(4-2)9-8/h7-8H,3-6H2,1-2H3/t7-,8+/m1/s1
