16
gdb 128038	6.35947	0.75753	0.69756	2.3235	76.51	-0.2311	0.008	0.239	1577.5912	0.125039	-434.069113	-434.060741	-434.059797	-434.103157	29.819	
C	 0.1225267729	 1.3727528292	 0.1978742035	-0.315596
N	-0.2939672469	 0.0486709942	-0.2151298133	-0.199232
C	 0.519993803	-0.6302724335	-0.8849965736	 0.105344
O	 0.1946799109	-1.8960570524	-1.2677408551	-0.234778
C	 1.0305126895	-2.5158906978	-2.1556776997	 0.251426
C	 1.4213080442	-3.8365006416	-2.0775292208	-0.130678
N	 2.1840206794	-4.0478618803	-3.1787898819	-0.172313
N	 2.3200535306	-2.9635156473	-3.958096733	-0.213283
C	 1.6111390101	-2.0185512426	-3.3438198763	-0.095673
H	 1.130686306	 1.6550973835	-0.1460314381	 0.099568
H	-0.5916595485	 2.1133455011	-0.1787617738	 0.131596
H	 0.1012494566	 1.4380080034	 1.291492991	 0.131675
H	 1.5235048875	-0.3154730216	-1.2033187881	 0.091664
H	 1.2095062179	-4.6023884087	-1.3505026952	 0.147737
H	 2.6323548609	-4.9042544052	-3.4562188983	 0.28145
H	 1.5339989659	-1.0303303806	-3.7710554373	 0.121095
46.1246	91.5279	119.0664	208.8999	297.0487	299.7593	379.6668	406.0878	511.8233	522.7983	660.3181	700.652	770.4046	788.3394	866.1709	941.0532	983.1226	1015.5881	1056.6565	1067.6781	1141.5353	1143.1418	1165.5202	1208.2023	1253.809	1341.0328	1390.4824	1397.7482	1412.9435	1450.5412	1481.4217	1504.1772	1504.7822	1621.016	1782.3395	2972.9356	3025.2751	3063.0664	3082.5236	3253.3744	3279.3614	3677.9042
CN=COC1=CNN=C1	CN=COc1c[nH]nc1	
InChI=1S/C5H7N3O/c1-6-4-9-5-2-7-8-3-5/h2-4H,1H3,(H,7,8)	InChI=1S/C5H7N3O/c1-6-4-9-5-2-7-8-3-5/h2-4H,1H3,(H,7,8)
