20
gdb 89658	2.88127	1.25723	1.05808	4.546	85.29	-0.2598	0.0217	0.2815	1216.15	0.170492	-366.018068	-366.008917	-366.007973	-366.051573	34.63	
C	-0.1308758473	 1.5664374328	 0.0310120917	-0.413618
C	 0.0736037819	 0.05692512	 0.0007936312	-0.018668
C	 1.1756919613	-0.5467779095	-0.9348432016	-0.315456
C	 1.7900692922	-1.2676045418	 0.2757594307	 0.181642
C	 2.1710163416	-0.2473302369	 1.3291834896	-0.370249
C	 0.7284477463	-0.6332754858	 1.2165888226	 0.286382
C	-0.0320950425	-1.2697811099	 2.3431470721	-0.493435
C	 2.3028538928	-2.5961109527	 0.2803126996	 0.180834
N	 2.7026277684	-3.6835470127	 0.2798545719	-0.358152
H	 0.8017156158	 2.09945104	 0.2420718905	 0.117718
H	-0.5061878551	 1.9259797919	-0.9330260947	 0.122244
H	-0.8595669419	 1.8509703077	 0.7976417273	 0.120922
H	-0.8814742183	-0.4344241164	-0.2112169271	 0.083786
H	 0.7735928688	-1.227228901	-1.6864148639	 0.124548
H	 1.8431988553	 0.1688628284	-1.4252098876	 0.106959
H	 2.6905032927	-0.6496343807	 2.1925126718	 0.13459
H	 2.5348789887	 0.7233109877	 1.0020023486	 0.118588
H	-0.4449664424	-0.507151056	 3.0142138574	 0.128275
H	-0.8660922043	-1.8723812668	 1.9680686084	 0.127698
H	 0.6132344161	-1.9223891985	 2.9391435614	 0.13539
108.1781	123.065	173.4183	180.9912	218.6775	259.3659	302.0979	347.7266	424.218	457.0622	535.8696	567.1491	602.2167	689.7792	700.098	789.6506	848.6907	893.861	937.192	965.5748	976.1744	1035.9726	1071.915	1090.2293	1094.6854	1119.8831	1159.3607	1177.945	1237.0582	1246.467	1264.6446	1326.1126	1358.5336	1400.0443	1412.8255	1427.3583	1481.9712	1484.7404	1494.8736	1495.9356	1498.0716	1508.5983	2337.7828	3026.5827	3032.1657	3049.9672	3054.1617	3088.0945	3098.208	3103.3951	3106.4645	3116.445	3126.7028	3209.0728
CC1CC2(CC12C)C#N	C[C@H]1C[C@]2(C[C@@]12C)C#N	
InChI=1S/C8H11N/c1-6-3-8(5-9)4-7(6,8)2/h6H,3-4H2,1-2H3	InChI=1S/C8H11N/c1-6-3-8(5-9)4-7(6,8)2/h6H,3-4H2,1-2H3/t6-,7-,8-/m0/s1
