16
gdb 79652	2.79837	1.50762	1.21033	3.5171	73.83	-0.2532	0.0004	0.2536	1040.9027	0.123325	-400.679362	-400.67136	-400.670415	-400.71239	29.853	
C	-0.0450469165	 1.6083420327	-0.0203057019	-0.405774
C	 0.1433830251	 0.095019791	 0.0390209474	-0.060832
C	 1.3823281656	-0.7177632715	-0.2022789036	-0.161324
C	 2.6669376035	-0.1544944297	 0.4696709309	 0.020911
O	 2.3539311093	 1.0735281236	 1.1451619909	-0.230468
C	 2.0430832725	-0.1598303725	 1.7851746487	-0.04133
C	 0.704547864	-0.7293948958	 1.1955020749	 0.137807
C	-0.0050700101	-1.794040249	 1.8123318215	 0.196929
N	-0.5718277084	-2.6592944069	 2.3349767894	-0.349234
H	 0.7453968927	 2.0919211854	-0.5955733291	 0.13657
H	-1.0033135466	 1.8340777401	-0.4974270601	 0.113761
H	-0.0476944538	 2.0577597174	 0.973465464	 0.138963
H	-0.7086269724	-0.4469568149	-0.3677517732	 0.123535
H	 1.4079724463	-1.5512293419	-0.8921761908	 0.123132
H	 3.6894614315	-0.3163202682	 0.1554054538	 0.12737
H	 2.4244442672	-0.3483278297	 2.7804853271	 0.129984
52.4533	132.7446	159.8699	221.8815	258.1545	421.6267	448.3597	488.0854	537.3132	577.6359	680.3642	745.1557	761.4518	817.5836	852.5331	868.4945	925.3528	968.4104	994.1524	1003.2428	1053.1161	1060.6244	1100.2244	1108.5461	1180.2258	1219.1653	1254.2169	1269.1383	1318.1051	1383.0996	1423.8611	1448.2362	1489.7698	1494.6194	2335.5132	3054.8101	3119.5254	3135.8281	3145.8017	3200.055	3206.6135	3217.3547
CC1C2C3OC3C12C#N	C[C@H]1[C@H]2[C@H]3O[C@H]3[C@@]12C#N	
InChI=1S/C7H7NO/c1-3-4-5-6(9-5)7(3,4)2-8/h3-6H,1H3	InChI=1S/C7H7NO/c1-3-4-5-6(9-5)7(3,4)2-8/h3-6H,1H3/t3-,4-,5+,6+,7-/m0/s1
