21
gdb 60361	3.52956	0.6755	0.58873	0.3794	81.76	-0.2622	0.0338	0.296	1879.7038	0.178483	-424.189826	-424.178679	-424.177735	-424.226759	40.237	
C	 0.0243104821	 1.5738960201	 0.042179003	-0.402377
C	 0.0148351498	 0.0451264636	 0.0428040266	 0.126665
O	 0.7332744032	-0.4742251975	 1.1620565674	-0.428544
C	-1.4060947639	-0.5273814794	-0.029504974	-0.192142
C	-1.4331753044	-2.0558510816	-0.0918651548	-0.187085
C	-2.8647223003	-2.6204894018	-0.1369393699	-0.067355
O	-3.6108079141	-2.1070457289	-1.2409613556	-0.417949
C	-2.8584736029	-4.0865057158	-0.1321133967	 0.294333
C	-2.8279134408	-5.2877635562	-0.1729554469	-0.438314
H	 1.0493423143	 1.9477975189	 0.1120994591	 0.123306
H	-0.4324257852	 1.9737857063	-0.8688327677	 0.117457
H	-0.5425515251	 1.965651912	 0.896558827	 0.105785
H	 0.5823457042	-0.3137133725	-0.8258236868	 0.086861
H	 0.3188730217	-0.1238818587	 1.958816313	 0.274943
H	-1.9688669276	-0.1833097336	 0.8522792524	 0.081118
H	-1.9250770151	-0.1150517796	-0.9013791444	 0.110178
H	-0.892980092	-2.4076546953	-0.9811724247	 0.094741
H	-0.9088037179	-2.4736832171	 0.7730699935	 0.120633
H	-3.4086060876	-2.2653975474	 0.7480928765	 0.114621
H	-3.2958303236	-2.557062107	-2.0329507422	 0.284396
H	-2.8149735948	-6.3496028586	-0.1936327549	 0.19873
42.9587	64.6029	94.6436	150.7945	184.3667	222.541	243.0262	259.2809	296.5016	298.0795	351.1999	438.9964	464.7173	484.0329	566.8938	573.532	630.2478	670.561	772.01	844.6475	883.2137	934.1073	958.5435	1004.0156	1047.7256	1072.7354	1085.5845	1112.3396	1145.0861	1176.1124	1250.0718	1270.8735	1303.0734	1327.731	1342.0519	1372.4345	1393.2061	1404.9744	1417.9978	1421.9819	1475.0289	1489.5131	1494.6758	1497.6093	2231.976	2992.3841	3018.7457	3022.3839	3030.4081	3035.332	3072.1101	3092.0688	3096.5592	3118.8513	3502.5232	3793.8053	3803.7219
CC(O)CCC(O)C#C	C[C@@H](O)CC[C@@H](O)C#C	
InChI=1S/C7H12O2/c1-3-7(9)5-4-6(2)8/h1,6-9H,4-5H2,2H3	InChI=1S/C7H12O2/c1-3-7(9)5-4-6(2)8/h1,6-9H,4-5H2,2H3/t6-,7+/m1/s1
