21
gdb 111759	3.18806	1.02473	0.89271	2.9549	79.37	-0.2268	0.0698	0.2966	1392.399	0.181319	-424.17628	-424.166657	-424.165713	-424.21116	35.296	
C	-0.2571648603	 1.5059495993	 0.2024894593	-0.373363
C	 0.1285789786	 0.0506966868	-0.0882989436	-0.213077
C	 0.8325240202	-0.5990283701	 1.0851829967	-0.097588
C	 0.1204461544	-1.345697909	 2.1760557999	 0.052854
O	-1.025962885	-2.0367443613	 1.6751272528	-0.287405
C	-0.1741995659	-2.867994447	 0.8383009448	-0.140041
C	 1.0727011668	-2.0914145029	 1.2601734597	 0.255875
C	 2.4153976902	-2.7025872916	 1.4995687236	-0.205277
O	 2.2521542933	-3.8609213942	 2.3102381242	-0.417365
H	 0.625506889	 2.1156878832	 0.4264269489	 0.109279
H	-0.7652532593	 1.9587372798	-0.6544931912	 0.110872
H	-0.9306062622	 1.5670081498	 1.06348116	 0.124045
H	-0.774402292	-0.5199417008	-0.3249428467	 0.1175
H	 0.7743733849	 0.008862093	-0.9748034587	 0.091849
H	 1.6732252046	-0.024305333	 1.4758180509	 0.080721
H	 0.1490624009	-1.1175700358	 3.2357418486	 0.101897
H	-0.1643475211	-3.8970312614	 1.2089127605	 0.124822
H	-0.4712120397	-2.845308987	-0.2167458851	 0.097783
H	 2.8842255938	-2.9641364812	 0.5358838906	 0.089845
H	 3.0718254359	-1.9629063496	 1.9855363142	 0.088469
H	 3.0906430729	-4.3314619871	 2.3324672805	 0.288304
62.6036	75.9054	146.6847	178.5513	208.2984	248.009	266.9281	298.8523	324.0547	361.656	564.3111	593.8619	641.8338	741.8281	801.3974	833.4039	899.5639	924.786	951.0149	991.6688	994.3687	1022.8017	1053.8418	1060.5049	1081.312	1088.3999	1127.7717	1147.7403	1161.8695	1218.154	1234.2271	1271.0174	1274.6014	1305.919	1324.3632	1339.2063	1379.3372	1410.8875	1449.0718	1480.9218	1490.8627	1500.2628	1506.2438	1511.5575	1516.3204	2955.7237	2984.6738	3024.4765	3030.2825	3031.2625	3078.166	3094.1902	3100.0541	3107.3532	3111.3897	3176.4265	3829.228
CCC1C2OCC12CO	CC[C@H]1[C@H]2OC[C@@]12CO	
InChI=1S/C7H12O2/c1-2-5-6-7(5,3-8)4-9-6/h5-6,8H,2-4H2,1H3	InChI=1S/C7H12O2/c1-2-5-6-7(5,3-8)4-9-6/h5-6,8H,2-4H2,1H3/t5-,6+,7-/m0/s1
