21
gdb 87788	3.93094	0.99196	0.92559	1.7387	83.92	-0.2541	0.0739	0.328	1365.4199	0.181054	-387.052583	-387.043721	-387.042777	-387.08626	34.378	
C	 0.1506693916	 1.5106070213	-0.3103729831	-0.415089
C	 0.0629327039	 0.0289038929	-0.0563873045	-0.022098
O	 1.3082330216	-0.6928141018	 0.0063860223	-0.297497
C	 0.5248364356	-0.6027949362	 1.1830109843	 0.448233
C	 0.9901847471	 0.0468073056	 2.4944778522	-0.392473
C	 0.1633773605	-1.0245645755	 3.2299127293	 0.375997
C	 0.3636178888	-1.5580487033	 4.6138834252	-0.327242
C	-0.8771385276	-0.7579586894	 4.2774982673	-0.314832
C	-0.0547284308	-1.8141710502	 1.9261581865	-0.393832
H	 0.9257912282	 1.9683205303	 0.3093439936	 0.127749
H	 0.3920876065	 1.7073358316	-1.3602071374	 0.129265
H	-0.8069523095	 1.9954212015	-0.0900733757	 0.119574
H	-0.7115693662	-0.4951195683	-0.6210585359	 0.086373
H	 2.0702203024	-0.0585194983	 2.641336378	 0.112333
H	 0.7095905637	 1.0914935907	 2.6587643226	 0.102486
H	 0.2551443087	-2.6266096644	 4.7714818273	 0.112356
H	 1.1187262206	-1.0907855572	 5.2383619392	 0.112067
H	-0.9585145429	 0.2487671016	 4.6757834437	 0.110695
H	-1.8224395677	-1.287423551	 4.2082804138	 0.111041
H	-1.0810170525	-2.1025042254	 1.6802484685	 0.102371
H	 0.593630468	-2.6923065244	 1.8368032026	 0.112522
46.5161	160.9996	180.7394	194.5258	270.6995	296.04	338.1955	396.4762	437.78	461.2629	491.8136	656.1634	774.7687	776.802	824.8244	833.1679	872.6778	895.5374	923.7826	948.5425	976.8502	986.3549	1034.8417	1052.3986	1076.8834	1079.5053	1111.1828	1128.6981	1139.3074	1180.8014	1186.8692	1195.7232	1219.721	1248.625	1258.9493	1354.7036	1381.8854	1408.9443	1464.2098	1465.2037	1469.9384	1486.4581	1490.2175	1502.9733	1527.7932	3035.2203	3039.8794	3044.7709	3081.992	3092.8059	3093.5985	3098.2834	3118.9066	3123.4176	3125.76	3196.7682	3211.8355
CC1OC11CC2(CC2)C1	C[C@H]1OC21CC1(CC1)C2	
InChI=1S/C8H12O/c1-6-8(9-6)4-7(5-8)2-3-7/h6H,2-5H2,1H3	InChI=1S/C8H12O/c1-6-8(9-6)4-7(5-8)2-3-7/h6H,2-5H2,1H3/t6-/m1/s1
