19
gdb 78930	2.59761	1.95468	1.49025	1.7271	77.27	-0.2309	0.0703	0.3011	949.3233	0.160064	-385.819779	-385.812447	-385.811503	-385.851068	30.283	
C	-0.0904340119	 1.4293861055	-0.0035627837	-0.517416
C	-0.0371794659	-0.0675117823	-0.0643074956	 0.349817
C	-0.9902890699	-1.0048514384	 0.7046283744	-0.140631
C	 0.5045545693	-1.05520279	 0.9442067506	-0.159606
C	 0.5703025366	-2.0963295141	-0.2143218017	-0.056303
C	-1.0002799373	-2.2398559786	-0.2275828047	-0.111981
C	-1.021003235	-1.6928796244	-1.6760529113	 0.151895
O	-2.1247797025	-0.9671283141	-2.1494439751	-0.445894
C	 0.2929003329	-0.9715865482	-1.2828408559	-0.163794
H	 0.8728407328	 1.8749118514	-0.2770289594	 0.122845
H	-0.8453151003	 1.8363732467	-0.6874795371	 0.116877
H	-0.3380931221	 1.7730904974	 1.0068865878	 0.120173
H	-1.7670715694	-0.6321416979	 1.3606964972	 0.083367
H	 1.0825891836	-0.9071012816	 1.8472571134	 0.085785
H	 1.2701384152	-2.9167993841	-0.3428201002	 0.070291
H	-1.5418911386	-3.1337784128	 0.0785205499	 0.064359
H	-0.830364174	-2.4897793897	-2.4023790443	 0.08587
H	-2.3364966824	-0.3053508935	-1.4815533328	 0.283363
H	 1.0208151491	-0.6210163812	-2.0139529416	 0.060985
149.8897	201.2191	232.5088	282.7694	322.1495	384.0233	540.5258	595.905	627.2125	742.4369	753.0517	764.1725	806.2653	827.1315	852.2157	861.6346	884.0027	906.4301	957.7854	968.0577	981.8387	1011.6923	1050.301	1061.7171	1096.0011	1111.1432	1132.4924	1155.808	1164.6042	1186.4177	1205.6075	1229.6184	1257.8471	1264.2783	1292.9257	1306.6714	1408.5616	1428.3794	1433.405	1483.5846	1501.1029	3017.9368	3067.4309	3075.8791	3089.939	3119.8347	3124.4276	3156.8985	3185.1501	3197.9144	3801.3311
CC12C3C1C1C3C(O)C21	C[C@]12[C@@H]3[C@H]1[C@H]1[C@@H]3[C@@H](O)[C@@H]21	
InChI=1S/C8H10O/c1-8-4-2-3(5(4)8)7(9)6(2)8/h2-7,9H,1H3	InChI=1S/C8H10O/c1-8-4-2-3(5(4)8)7(9)6(2)8/h2-7,9H,1H3/t2-,3+,4-,5+,6+,7-,8-/m1/s1
