18
gdb 108765	2.52182	1.31355	0.91268	7.2554	77.51	-0.2235	-0.0052	0.2183	1276.0899	0.14718	-439.146466	-439.137129	-439.136185	-439.18082	33.409	
C	-0.0512333944	 1.4262981433	 0.1088810093	-0.327812
N	-0.0088784012	-0.0125614229	-0.055147936	-0.373309
C	 0.629644887	-0.6023558458	-1.0890942297	 0.398651
C	 1.2286496275	-0.0591247369	-2.1724295641	-0.436741
C	 1.7302109803	-1.1350725089	-3.0203873506	 0.451422
O	 2.31635946	-1.1069373567	-4.0668529159	-0.367171
O	 1.4180153889	-2.3477334641	-2.4062698331	-0.251109
C	 0.7331920187	-2.1131591164	-1.1825796682	 0.029675
C	 1.492932719	-2.7658957646	-0.0283968091	-0.398429
H	 0.950940115	 1.8551561972	 0.2423022272	 0.136764
H	-0.508970283	 1.8952868533	-0.7691697391	 0.146926
H	-0.6568194834	 1.6714672475	 0.9830280031	 0.134919
H	-0.2699824043	-0.5836738555	 0.7299385906	 0.251728
H	 1.3496481929	 0.9809095796	-2.4287572002	 0.111141
H	-0.271844428	-2.5521820514	-1.2611691479	 0.106138
H	 2.4894655864	-2.3261357332	 0.0659473569	 0.137487
H	 0.9604771949	-2.6395576778	 0.9207297523	 0.106182
H	 1.5991574837	-3.8369934167	-0.2158215557	 0.143539
87.2355	120.6368	127.4572	169.6295	188.0939	223.263	251.9449	295.7835	421.9521	433.7027	536.1036	616.7584	659.252	705.7327	742.0245	811.6893	825.5604	896.0645	956.2058	1040.04	1079.6295	1112.1181	1122.6842	1156.5888	1170.6351	1179.6048	1288.4418	1305.213	1346.5242	1358.0127	1406.57	1461.5586	1480.4003	1481.9354	1493.7102	1514.5701	1549.7213	1688.2874	1867.863	3005.6976	3012.9723	3039.0667	3071.905	3111.3252	3134.3774	3134.7144	3263.7188	3657.4756
CNC1=CC(=O)OC1C	CNC1=CC(=O)O[C@H]1C	
InChI=1S/C6H9NO2/c1-4-5(7-2)3-6(8)9-4/h3-4,7H,1-2H3	InChI=1S/C6H9NO2/c1-4-5(7-2)3-6(8)9-4/h3-4,7H,1-2H3/t4-/m0/s1
