16
gdb 14853	3.02239	1.62523	1.16166	3.2539	65.04	-0.25	0.0134	0.2634	1005.8712	0.131238	-379.898077	-379.889984	-379.88904	-379.930918	28.813	
O	-0.0181351393	 1.4056068237	-0.2513271876	-0.42644
C	 0.0611565063	-0.010731544	-0.2028318643	-0.092833
C	-1.334001834	-0.5126025859	 0.1269480898	-0.003304
C	-2.3465192213	-0.3824048193	-1.0389730442	-0.169064
N	-2.0995593036	-1.8066559899	-1.3779276098	-0.302605
C	-1.5375886052	-2.0543965495	-0.034244041	-0.147633
C	-0.3648619778	-2.9324307552	 0.0066403803	 0.303748
N	 0.5636052958	-3.6190994778	 0.0577327262	-0.332776
H	 0.8418138917	 1.7461720657	-0.5140759555	 0.292073
H	 0.3877308651	-0.4321521955	-1.1651455329	 0.113701
H	 0.7705685954	-0.3514773814	 0.5667329598	 0.104574
H	-1.6550910934	-0.1060483515	 1.0866427869	 0.095955
H	-3.3644842311	-0.1674581438	-0.6886453799	 0.098595
H	-2.0848597646	 0.3223575095	-1.8325508496	 0.123908
H	-2.9106552654	-2.3658876518	-1.6171131459	 0.229181
H	-2.2621665885	-2.4280678032	 0.7032634177	 0.11292
98.4289	117.1495	127.1792	214.9607	245.3578	272.9588	364.5794	437.7649	549.1337	566.9864	673.6418	814.9136	844.677	900.7027	966.7928	996.925	1021.8149	1048.4135	1081.6659	1103.1818	1138.964	1160.2098	1181.8453	1240.1635	1270.354	1278.3473	1320.6154	1352.6435	1367.2314	1392.3063	1465.4351	1520.4624	1529.7556	2353.6308	2982.9235	2998.14	3016.0555	3018.7364	3091.3476	3109.3483	3536.3258	3834.7188
OCC1CNC1C#N	OC[C@H]1CN[C@H]1C#N	
InChI=1S/C5H8N2O/c6-1-5-4(3-8)2-7-5/h4-5,7-8H,2-3H2	InChI=1S/C5H8N2O/c6-1-5-4(3-8)2-7-5/h4-5,7-8H,2-3H2/t4-,5+/m1/s1
