16
gdb 115987	2.20495	1.5248	0.9637	3.9292	74.35	-0.2746	-0.0539	0.2206	1193.5078	0.123968	-437.896798	-437.888254	-437.887309	-437.930613	30.133	
C	-0.00420286	 1.3436456828	-0.2225849587	-0.243461
O	-0.0651442344	-0.0748681651	-0.2159414784	-0.234283
C	-1.3079067018	-0.5821337757	 0.1620224639	 0.113462
O	-2.3137220016	-0.3872944315	-0.8172028142	-0.265761
C	-2.5570210291	-1.5976156413	-1.5246444878	-0.119995
C	-1.8686014997	-2.6611644154	-0.7254889022	-0.20352
C	-1.1802790763	-2.0930609005	 0.2666536369	 0.187507
C	-0.3784248913	-2.7264817456	 1.2484229895	 0.225726
N	 0.2698347471	-3.2218616563	 2.0701807659	-0.33184
H	 1.0239393169	 1.6144366682	-0.4688392572	 0.136107
H	-0.6833896195	 1.7680304424	-0.97110215	 0.128905
H	-0.2579748566	 1.7566346157	 0.7644942446	 0.114289
H	-1.6492490164	-0.0888962788	 1.0848087679	 0.0893
H	-3.6414424043	-1.7554764468	-1.5904572921	 0.131978
H	-2.1662571038	-1.5500897112	-2.5529359859	 0.130657
H	-1.9235141792	-3.7179133309	-0.9498366322	 0.140929
81.3099	112.0795	136.5332	172.6205	187.0313	247.1595	358.4943	422.1239	478.9069	567.4332	587.6109	653.2304	783.5576	851.2984	937.6834	939.8851	977.923	1006.3583	1034.2717	1081.5325	1132.5195	1177.2795	1187.6779	1201.2692	1218.3244	1276.2047	1350.6463	1381.3968	1395.6629	1477.009	1485.7757	1500.903	1510.6426	1692.2384	2346.3933	2991.4443	2994.0579	3000.9351	3038.0514	3069.3774	3134.7581	3236.0603
COC1OCC=C1C#N	CO[C@H]1OCC=C1C#N	
InChI=1S/C6H7NO2/c1-8-6-5(4-7)2-3-9-6/h2,6H,3H2,1H3	InChI=1S/C6H7NO2/c1-8-6-5(4-7)2-3-9-6/h2,6H,3H2,1H3/t6-/m0/s1
