17
gdb 65414	3.77821	0.85623	0.77661	4.2438	80.93	-0.2559	0.0165	0.2724	1456.8211	0.133983	-380.829165	-380.819634	-380.81869	-380.864003	34.445	
C	 0.029193367	 1.5373709051	-0.1760453355	-0.457491
C	-0.025961742	 0.0362861593	 0.0466843785	 0.116476
N	 1.2747727486	-0.6783584752	-0.0138279427	-0.349899
C	 0.5585046522	-0.6347504249	 1.2578073471	-0.045137
C	 1.2164989054	 0.1323920808	 2.3961247883	-0.351961
C	 2.1169338744	-0.7254054878	 3.1675477818	 0.262734
N	 2.8146396747	-1.4199956722	 3.772159147	-0.301548
C	-1.1720151355	-0.6178985336	-0.538839796	 0.273619
C	-2.1208509997	-1.1518717232	-1.050104444	-0.436542
H	 0.9537174634	 1.9599035116	 0.2208340955	 0.130081
H	-0.0043830051	 1.7534054531	-1.2475489135	 0.13999
H	-0.825116159	 2.0315098608	 0.2962682655	 0.131091
H	 1.1653033375	-1.5839713098	-0.4623206664	 0.248073
H	 0.0457949347	-1.5376087608	 1.5806925169	 0.116946
H	 1.790550157	 0.9759459409	 2.0051338222	 0.161965
H	 0.4529751915	 0.533561311	 3.0728114093	 0.157548
H	-2.9600001751	-1.626763575	-1.495592284	 0.204056
47.9041	96.1357	143.5088	169.0191	186.8747	235.3682	322.0805	384.2918	389.6624	434.3396	487.185	553.9291	595.9827	617.9313	660.9521	686.8687	824.0701	856.2214	933.1675	949.343	990.4981	1031.1493	1080.9108	1091.7088	1106.9482	1205.7269	1262.921	1288.9218	1318.5716	1331.6176	1416.257	1445.7651	1455.5213	1484.5228	1499.5951	2233.6304	2364.0441	3048.3828	3052.0892	3110.0422	3116.6839	3139.3185	3143.9497	3500.7899	3517.2837
CC1(NC1CC#N)C#C	C[C@]1(N[C@H]1CC#N)C#C	
InChI=1S/C7H8N2/c1-3-7(2)6(9-7)4-5-8/h1,6,9H,4H2,2H3	InChI=1S/C7H8N2/c1-3-7(2)6(9-7)4-5-8/h1,6,9H,4H2,2H3/t6-,7-/m0/s1
