19
gdb 78493	2.52036	1.55352	1.28961	1.9152	75.57	-0.2334	0.071	0.3044	1064.1635	0.158377	-422.971588	-422.963044	-422.9621	-423.004054	33.582	
C	-0.1268300353	 1.4270192077	-0.0009429861	-0.507975
C	 0.0200730656	-0.0643189567	-0.0367261565	 0.295877
C	 0.9725460939	-0.9018448574	-0.8942725179	-0.271666
C	 0.1136911329	-2.1279568892	-0.4910327836	-0.207495
C	 0.3697753394	-2.2715042725	 1.0426206092	 0.152647
O	 1.694218154	-2.3436337361	 1.5212558119	-0.437657
C	-0.3198208344	-0.934237286	 1.2109356934	-0.226471
C	-1.0514702268	-1.1106704612	-0.1067022913	 0.33
O	-2.3689911755	-0.9895874713	-0.4629943453	-0.454491
H	 0.7503473487	 1.903239398	 0.4517141307	 0.121487
H	-0.2472519853	 1.8356918928	-1.0104656064	 0.119777
H	-1.0060469239	 1.7224454421	 0.5808619471	 0.121333
H	 0.8634674414	-0.6597021663	-1.955477194	 0.093107
H	 2.0298437483	-0.9354090749	-0.6143642178	 0.097962
H	 0.0336282228	-3.0051553497	-1.1307821889	 0.063502
H	-0.2488704794	-3.0799489221	 1.4607196149	 0.056944
H	 2.0341523022	-3.2258387988	 1.3385023376	 0.279427
H	-0.6740096394	-0.4679717575	 2.1217171085	 0.083935
H	-2.8907491291	-1.6134092909	 0.0542463747	 0.289757
157.0475	180.5328	188.9692	251.2569	266.5995	285.9604	309.857	345.9836	419.4984	517.518	572.5544	620.0851	680.6678	701.1695	751.7339	847.5077	896.7419	937.0389	956.153	971.5202	989.7255	992.6929	1028.6264	1084.2693	1096.9961	1133.7635	1151.0789	1165.9164	1209.0768	1238.1486	1246.0328	1261.9865	1291.9115	1328.0235	1350.8913	1415.4681	1432.3483	1472.0136	1486.3087	1494.15	1522.7502	2985.4632	3024.9864	3047.3037	3085.1879	3097.6449	3104.8686	3129.9159	3197.0505	3786.346	3809.9248
CC12CC3C(O)C1C23O	C[C@@]12C[C@H]3[C@@H](O)[C@@H]1[C@@]23O	
InChI=1S/C7H10O2/c1-6-2-3-4(8)5(6)7(3,6)9/h3-5,8-9H,2H2,1H3	InChI=1S/C7H10O2/c1-6-2-3-4(8)5(6)7(3,6)9/h3-5,8-9H,2H2,1H3/t3-,4+,5-,6+,7+/m0/s1
