19
gdb 46922	3.34642	1.34832	1.04566	4.033	75.58	-0.2323	0.0561	0.2884	1143.3395	0.163184	-419.23842	-419.230504	-419.22956	-419.270798	31.167	
O	 0.0048154703	-0.1196109063	 0.0710470267	-0.410641
C	-0.0123036061	 1.1019970891	 0.0430800823	 0.414834
N	-1.2147149375	 1.7832475984	 0.016487987	-0.322189
C	-1.4807822932	 3.2051221905	 0.2076951771	-0.206655
C	-0.8188335923	 4.0563847068	-0.8551435537	 0.01303
C	-0.0769665219	 5.3163759902	-0.4833159918	-0.322713
C	 0.6892635937	 4.0770756805	-0.8747547449	 0.013034
C	 1.4017231642	 3.244656456	 0.1701983193	-0.206658
N	 1.1698747042	 1.8159549957	-0.014567348	-0.322189
H	-1.9810255489	 1.1433744654	 0.1486737994	 0.247485
H	-2.5668159742	 3.3292507903	 0.1627551287	 0.112686
H	-1.1800345118	 3.5434982787	 1.2089215279	 0.106095
H	-1.3122662315	 4.0358518207	-1.8218524936	 0.093215
H	-0.0974063581	 6.1492353901	-1.1766080336	 0.117987
H	-0.0674125468	 5.6106378143	 0.5620689713	 0.113197
H	 1.1577683316	 4.069745236	-1.8539756625	 0.093214
H	 2.4824076481	 3.3985148032	 0.0970883491	 0.112686
H	 1.117935323	 3.5749918413	 1.1790316142	 0.106096
H	 1.9566252072	 1.1973855489	 0.0974075553	 0.247485
84.2367	142.0211	260.9014	269.0547	347.1405	348.921	429.8343	440.1451	491.7612	539.9851	630.0287	725.5285	760.488	768.4586	805.3107	844.5941	863.9474	948.3519	969.8501	1006.8475	1031.9847	1070.4419	1103.3792	1136.6913	1157.2149	1169.5137	1175.6504	1229.4515	1290.6056	1292.2543	1310.8568	1379.8451	1388.4435	1430.9252	1436.5799	1466.6118	1467.2545	1492.1371	1510.6467	1520.6507	1780.3919	2992.9636	3013.6401	3075.9423	3077.9783	3129.209	3150.3498	3160.1543	3216.5107	3645.4272	3648.4362
O=C1NCC2CC2CN1	O=C1NC[C@H]2C[C@H]2CN1	
InChI=1S/C6H10N2O/c9-6-7-2-4-1-5(4)3-8-6/h4-5H,1-3H2,(H2,7,8,9)	InChI=1S/C6H10N2O/c9-6-7-2-4-1-5(4)3-8-6/h4-5H,1-3H2,(H2,7,8,9)/t4-,5+
