13
gdb 130280	3.34907	1.47959	1.02663	1.6126	65.58	-0.2405	-0.0395	0.2011	1054.2273	0.090258	-486.066531	-486.0589	-486.057956	-486.098652	28.801	
N	 0.0450017809	 1.3275258245	 0.0976594885	-0.547563
C	-0.0250764198	-0.0169570934	 0.0290974188	 0.429646
N	-1.1851074251	-0.5996788133	 0.0030339701	-0.2342
O	-1.1209261855	-2.0283466639	-0.0211447084	-0.270329
C	 0.0640397733	-2.6406029926	-0.0134382508	 0.519236
O	-0.0734208963	-3.9642612384	-0.0168283802	-0.378789
N	 1.2322640091	-2.1157215624	-0.0073503961	-0.396677
C	 1.2819463452	-0.7356663367	-0.003201611	 0.3131
N	 2.3413874441	-0.0234830736	-0.0318919368	-0.542921
H	 0.9634264243	 1.7223299778	-0.0379170318	 0.286462
H	-0.7832880075	 1.8827792031	-0.030039792	 0.269058
H	-1.0178964501	-4.1722740134	-0.0204182396	 0.32081
H	 3.1642202175	-0.6273931276	-0.0597239906	 0.232169
84.7968	184.7574	241.8041	312.9414	341.2272	378.9131	446.4362	478.3888	497.4017	535.6477	566.0497	603.4093	720.5162	737.2733	807.2948	824.9732	912.2672	925.8206	999.1745	1132.7869	1160.157	1268.7265	1329.7361	1401.308	1483.5583	1591.1876	1653.8441	1696.2101	1727.0602	3479.1896	3581.7903	3727.2016	3786.6848
NC1=NOC(O)=NC1=N	NC1=NO[C](O)N=C1[NH]	
InChI=1S/C3H4N4O2/c4-1-2(5)7-9-3(8)6-1/h(H2,5,7)(H2,4,6,8)	InChI=1S/C3H4N4O2/c4-1-2(5)7-9-3(8)6-1/h(H2,5,7)(H2,4,6,8)
