19
gdb 96519	2.23697	1.64459	1.19604	2.5728	71.54	-0.2351	-0.0229	0.2122	1094.1738	0.159234	-460.167794	-460.159195	-460.158251	-460.201531	32.286	
C	 1.2790873962	 0.9278549896	-0.3518331074	-0.441131
C	-0.0022506286	 0.2702313307	 0.1784369584	 0.045831
O	-0.6475257131	-0.6290952927	-0.7174087378	-0.272533
C	 0.1375862629	-1.576474372	-1.4184965521	-0.079794
C	 0.5934783977	-2.7313149101	-0.5353795602	-0.082091
O	 1.4363063415	-2.2974807763	 0.518662227	-0.240459
C	 0.7672690537	-1.796717793	 1.6531533228	-0.180434
C	 0.260679407	-0.3507020536	 1.5602537466	 0.33437
O	 0.0733178995	 0.2851512545	 2.5704562956	-0.298122
H	 2.1104668067	 0.2217051591	-0.4124623574	 0.141091
H	 1.0995367616	 1.3572300891	-1.34205691	 0.129755
H	 1.5663062025	 1.7345761644	 0.3279771939	 0.140797
H	-0.747130025	 1.0516732319	 0.3553965139	 0.114179
H	-0.5063757853	-1.963043323	-2.216691089	 0.110526
H	 1.0089134554	-1.1060766147	-1.891131994	 0.105247
H	-0.2829454265	-3.2584766214	-0.1285540691	 0.100091
H	 1.1763488009	-3.4419653204	-1.1325423126	 0.109118
H	-0.0965804636	-2.4293822741	 1.9176073713	 0.123284
H	 1.4687203064	-1.8356482582	 2.4912237802	 0.140273
37.2989	118.0674	203.95	260.8012	291.6893	312.4583	324.041	402.5099	434.0836	500.1862	530.4639	586.2728	628.0682	742.9754	825.045	871.8648	909.8154	981.3665	994.0417	1013.0149	1069.7597	1112.8031	1138.1005	1152.1175	1195.9285	1233.0512	1274.3533	1308.7385	1315.6537	1325.5173	1363.3655	1377.2168	1393.5668	1406.5492	1414.0268	1449.808	1481.3228	1487.7108	1490.7781	1515.3673	1809.5533	2973.7066	2992.4765	3027.4512	3046.8671	3069.4299	3072.7737	3077.6686	3096.5433	3122.0648	3133.5757
CC1OCCOCC1=O	C[C@H]1OCCOCC1=O	
InChI=1S/C6H10O3/c1-5-6(7)4-8-2-3-9-5/h5H,2-4H2,1H3	InChI=1S/C6H10O3/c1-5-6(7)4-8-2-3-9-5/h5H,2-4H2,1H3/t5-/m1/s1
