21
gdb 53667	4.60879	0.55398	0.52044	1.8201	89.02	-0.2418	0.0626	0.3045	2167.3488	0.179495	-387.055925	-387.04497	-387.044026	-387.09488	37.448	
C	 0.1571318179	 1.5117905526	 0.0597242944	-0.497062
C	 0.0547953409	 0.0612851017	 0.1389514821	 0.105251
C	-0.0187179512	-1.138477762	 0.2120157166	 0.023416
C	-0.1395130812	-2.5898944321	 0.2822565064	-0.343907
C	-1.3935954237	-3.1265434026	-0.4441340574	-0.215335
C	-1.4646099722	-4.6317858883	-0.3703502175	 0.058116
O	-1.7546810788	-5.2119990141	 0.9099494965	-0.265832
C	-2.6910864443	-5.4193132478	-0.154169604	 0.075747
C	-4.0752613975	-4.8465559775	 0.012352845	-0.419435
H	 1.1233647278	 1.8221159796	-0.3536443054	 0.145545
H	-0.625588436	 1.9328085064	-0.5813171256	 0.144709
H	 0.0573835187	 1.9741555471	 1.0481553008	 0.146045
H	 0.756537676	-3.0582418022	-0.14732762	 0.122277
H	-0.1799485918	-2.9160662709	 1.3287799476	 0.144033
H	-2.2819483096	-2.671610641	 3.7427*^-6	 0.113531
H	-1.3636542763	-2.819646436	-1.4963737352	 0.109526
H	-0.6482553232	-5.1383091853	-0.8932661673	 0.084716
H	-2.6785570536	-6.4403230112	-0.5435583248	 0.085567
H	-4.0524761306	-3.8297739392	 0.4083228283	 0.130697
H	-4.6024898228	-4.8382055318	-0.9479239674	 0.122059
H	-4.6549598987	-5.4648972854	 0.7057323242	 0.130336
13.139	48.9677	66.3467	73.561	150.1902	187.1609	212.1327	253.7426	296.1489	379.6684	386.5177	451.221	490.0165	545.7243	743.4055	760.2542	788.4772	848.2457	923.4234	981.8741	1020.7032	1025.2089	1053.6286	1054.3806	1098.0397	1107.5207	1168.2337	1172.8745	1176.4229	1215.7926	1279.7449	1307.7438	1312.4571	1368.0381	1401.9517	1415.5904	1420.2672	1468.9033	1472.0078	1479.3326	1479.8369	1485.9268	1491.3057	1513.0072	2373.9179	3013.7898	3024.3066	3038.6124	3041.9261	3054.6896	3060.9996	3078.5094	3083.6358	3084.0686	3098.9247	3108.9471	3137.8433
CC#CCCC1OC1C	CC#CCC[C@H]1O[C@H]1C	
InChI=1S/C8H12O/c1-3-4-5-6-8-7(2)9-8/h7-8H,5-6H2,1-2H3	InChI=1S/C8H12O/c1-3-4-5-6-8-7(2)9-8/h7-8H,5-6H2,1-2H3/t7-,8+/m0/s1
