14
gdb 128141	2.30653	1.56269	0.939	7.873	72.78	-0.2333	-0.0137	0.2196	1166.0316	0.102333	-429.054505	-429.046175	-429.04523	-429.087971	29.296	
C	 0.0674955869	 1.4790114812	 0.0392710523	-0.350731
N	-0.1236245478	 0.0468679858	-0.0961993542	-0.405435
C	 0.5233332325	-0.6812338648	-1.0405406201	 0.377033
C	 0.6806847402	-2.0607747868	-1.1916813731	 0.146921
N	 1.3854958838	-2.2945805092	-2.3466146443	-0.244216
N	 1.6751273937	-1.1794684064	-2.9122550591	-0.116097
N	 1.1557760168	-0.1772149206	-2.1213692086	-0.261473
C	 0.2073049074	-3.0538420332	-0.3092975488	 0.216308
N	-0.2083135492	-3.8107737696	 0.4645944946	-0.359575
H	 1.1143200228	 1.7547131703	 0.2302972395	 0.138049
H	-0.2741373853	 1.998736591	-0.8634239592	 0.141692
H	-0.5415747649	 1.8364409456	 0.870465946	 0.15569
H	-0.3793854299	-0.4672272992	 0.7321909948	 0.27663
H	 1.2759786229	 0.7824855958	-2.3997291897	 0.285203
81.9992	111.5563	148.4358	179.4832	222.5203	313.1704	387.1287	458.0803	493.8474	544.9423	557.1761	634.8168	693.089	749.2103	760.2786	973.301	1005.7728	1074.4186	1149.4308	1167.3569	1232.0381	1271.1719	1308.2204	1423.1315	1451.1256	1470.1866	1488.0862	1519.0816	1539.3928	1663.0021	2336.4158	3002.3666	3064.578	3141.1605	3631.5934	3671.4763
CNC1=C(N=NN1)C#N	CNc1c(nn[nH]1)C#N	
InChI=1S/C4H5N5/c1-6-4-3(2-5)7-9-8-4/h1H3,(H2,6,7,8,9)	InChI=1S/C4H5N5/c1-6-4-3(2-5)7-9-8-4/h1H3,(H2,6,7,8,9)
