19
gdb 59900	3.79057	0.79017	0.71131	3.9295	79.02	-0.2432	-0.015	0.2282	1614.5621	0.154756	-423.009661	-422.999063	-422.998119	-423.046253	37.787	
C	 0.2151598494	 1.4089222256	 0.2964228249	-0.412203
C	-0.005139495	-0.1008168592	 0.2378467965	 0.140968
O	 0.0661172776	-0.6863036742	 1.5371103334	-0.426249
C	-1.3299735546	-0.46568062	-0.4713499496	-0.302629
C	-1.4236424074	-1.9674949076	-0.7255539705	 0.388481
O	-0.9582630394	-2.4633132909	-1.7205131102	-0.287444
C	-2.0893542961	-2.7856236372	 0.3889638188	-0.489847
C	-2.1660476626	-4.2138698624	 0.141569761	 0.321971
C	-2.2361028053	-5.3959378339	-0.0568720634	-0.42767
H	 1.1473342527	 1.6319222864	 0.8227602802	 0.131804
H	 0.2700350193	 1.8406259085	-0.7072156904	 0.128587
H	-0.6084285223	 1.9034962161	 0.8274615703	 0.110304
H	 0.8144118963	-0.5657639748	-0.3214800672	 0.117549
H	-0.4826684671	-0.1583829758	 2.1282334711	 0.280304
H	-2.1700080613	-0.1062885257	 0.1360241368	 0.091951
H	-1.3634340765	 0.0322281614	-1.4445518166	 0.125416
H	-1.5148674363	-2.5648821782	 1.2998369481	 0.169774
H	-3.0897428947	-2.3657503307	 0.565015023	 0.142641
H	-2.2910385568	-6.4403184673	-0.2394200861	 0.196292
39.2462	57.7051	80.3401	147.7985	168.2017	247.5883	275.8547	320.3183	336.504	362.7072	400.8446	429.886	460.2143	541.0648	621.2915	639.9029	673.7211	800.5321	835.1189	911.168	935.2163	946.0974	984.2959	1032.4655	1073.3791	1121.046	1130.1419	1218.9091	1225.2753	1293.2292	1318.1026	1336.8183	1366.607	1406.0916	1424.7356	1445.9131	1465.0771	1492.1065	1495.3023	1822.5471	2249.4051	3012.0883	3023.9895	3030.5831	3044.3903	3057.7709	3096.076	3105.5554	3122.5661	3507.9003	3796.2853
CC(O)CC(=O)CC#C	C[C@@H](O)CC(=O)CC#C	
InChI=1S/C7H10O2/c1-3-4-7(9)5-6(2)8/h1,6,8H,4-5H2,2H3	InChI=1S/C7H10O2/c1-3-4-7(9)5-6(2)8/h1,6,8H,4-5H2,2H3/t6-/m1/s1
