15
gdb 7760	3.35169	2.07763	1.47015	4.356	63.39	-0.2264	0.0007	0.2271	851.4225	0.120025	-399.855819	-399.848596	-399.847652	-399.887555	26.923	
C	 0.4308118087	 1.3486712646	-0.1954208031	-0.384948
C	-0.1709608098	-0.0192593005	 0.1349614575	 0.075134
O	-0.048165222	-0.8842310428	-1.0291059759	-0.260802
C	 0.9958483474	-1.7200331596	-1.2069165597	 0.471003
O	 1.2179263871	-2.2318359135	-2.2731545949	-0.380963
N	 1.7572153201	-1.9757494623	-0.0780249251	-0.381709
C	 1.3744755844	-1.5738374896	 1.2000106145	 0.011228
C	 0.4286740252	-0.6516474452	 1.3569021757	-0.140388
H	 1.513302511	 1.2707287682	-0.3328152736	 0.13058
H	-0.015489265	 1.7484600117	-1.1101482871	 0.133549
H	 0.2398531351	 2.0487860941	 0.624132698	 0.119953
H	-1.254334054	 0.0885399941	 0.2545748701	 0.108001
H	 2.4494732116	-2.6951258411	-0.2048085039	 0.267618
H	 1.8868915345	-2.0660548226	 2.0175529881	 0.124791
H	 0.1029749755	-0.3304912857	 2.3367869692	 0.106954
71.1337	121.5263	245.1757	285.8038	393.1897	464.7112	497.8118	535.1092	568.1918	615.765	722.6449	758.0832	785.2222	881.0354	927.3667	941.0825	976.8381	1060.1495	1087.637	1109.1123	1146.4553	1189.5981	1259.8555	1351.7442	1398.8118	1406.7406	1421.6359	1466.3928	1485.0475	1492.2727	1738.6262	1851.4869	3039.7675	3048.3652	3115.5675	3125.2681	3204.9814	3230.7924	3664.0244
CC1OC(=O)NC=C1	C[C@H]1OC(=O)NC=C1	
InChI=1S/C5H7NO2/c1-4-2-3-6-5(7)8-4/h2-4H,1H3,(H,6,7)	InChI=1S/C5H7NO2/c1-4-2-3-6-5(7)8-4/h2-4H,1H3,(H,6,7)/t4-/m1/s1
