14
gdb 27703	2.94812	1.30186	0.9082	5.4761	74.62	-0.2227	-0.0214	0.2012	1203.2805	0.102053	-432.936826	-432.928475	-432.927531	-432.97079	29.735	
C	-0.0191003678	 1.4442573267	 0.0202879258	-0.49791
C	 0.0280956272	-0.0448064578	-0.0260679346	 0.356132
N	 0.0060667159	-0.7806186083	-1.1313610984	-0.373825
C	 0.0334587338	-2.0721418642	-0.7192483382	 0.277588
O	 0.0250194587	-3.0978627819	-1.5776938607	-0.412341
C	 0.075352522	-2.1611723424	 0.6619937346	 0.117817
N	 0.0717512746	-0.8248536353	 1.076322291	-0.358672
C	 0.1237918882	-3.2491002905	 1.5451590142	 0.205259
N	 0.1632413024	-4.1352690075	 2.2936585054	-0.359708
H	 0.6108667265	 1.841875722	 0.8215200479	 0.137204
H	 0.3285340325	 1.8436332573	-0.9333468711	 0.16475
H	-1.0408856952	 1.805395515	 0.1854333061	 0.152929
H	-0.0051216106	-2.719465626	-2.4658741117	 0.310692
H	 0.096550102	-0.5172389072	 2.0346804998	 0.280085
31.4972	130.156	135.5784	225.5683	283.6735	338.6225	417.6239	419.3347	506.8174	535.344	547.7309	597.1667	657.2971	686.2925	748.8386	821.8738	1005.5243	1045.3244	1058.6463	1152.3894	1225.13	1263.8771	1349.2012	1411.691	1446.1492	1462.0915	1481.0324	1508.4527	1573.44	1660.6611	2328.2737	3038.2604	3097.7825	3149.008	3661.8199	3793.8305
CC1=NC(O)=C(N1)C#N	Cc1nc(O)c([nH]1)C#N	
InChI=1S/C5H5N3O/c1-3-7-4(2-6)5(9)8-3/h9H,1H3,(H,7,8)	InChI=1S/C5H5N3O/c1-3-7-4(2-6)5(9)8-3/h9H,1H3,(H,7,8)
