18
gdb 49293	3.25818	1.21478	0.92808	5.7698	84.12	-0.2068	-0.018	0.1888	1235.7113	0.149249	-401.971821	-401.963424	-401.96248	-402.00524	31.295	
O	-0.2138387127	-0.0376401563	-0.0231681288	-0.323345
C	-0.0829991855	 1.1727008673	-0.0077801102	 0.09986
C	 1.1830577377	 1.8857118774	 0.0113416827	 0.126664
C	 1.099653833	 3.2434049429	 0.0367975325	-0.000366
N	 2.0909443623	 4.1644602728	 0.0685898826	-0.297952
C	 3.5134710885	 3.8615700803	-0.0991781008	-0.22242
C	 4.0158682019	 2.8286059305	 0.8832388357	-0.058658
C	 3.5398044165	 1.5857285321	 0.9295839041	-0.039142
C	 2.4515344567	 1.054355337	 0.0259657146	-0.382338
H	-0.9798591801	 1.8373814859	-0.0052700137	 0.043965
H	 0.1033521248	 3.6824666177	 0.0519627263	 0.108527
H	 1.8208850677	 5.1278826179	-0.0283749467	 0.253138
H	 3.7026388242	 3.5289875688	-1.1320404324	 0.12483
H	 4.05389136	 4.8016909172	 0.0319685512	 0.11574
H	 4.7952504424	 3.1404429679	 1.5721622978	 0.094582
H	 3.9474593225	 0.8972896995	 1.6660765228	 0.099186
H	 2.1576312459	 0.0468841057	 0.3308609436	 0.138232
H	 2.8454182744	 0.9399303355	-0.9961171012	 0.119496
51.4747	123.2737	189.8762	234.8014	288.7278	308.0124	352.8102	400.2513	458.3792	545.4027	568.6514	691.8711	720.9807	752.8035	880.4026	899.5089	924.7592	961.1963	968.0894	997.5003	1024.856	1037.8987	1074.1019	1186.8985	1235.1546	1249.4049	1286.8762	1302.8643	1343.3009	1374.7368	1408.4148	1411.1404	1447.9786	1480.9444	1496.4277	1535.5453	1692.1314	1724.6766	1765.8364	2836.2268	2975.7753	2981.9798	3094.982	3098.0835	3143.8042	3149.5959	3176.6716	3657.7336
O=CC1=CNCC=CC1	O=CC1=CNCC=CC1	
InChI=1S/C7H9NO/c9-6-7-3-1-2-4-8-5-7/h1-2,5-6,8H,3-4H2	InChI=1S/C7H9NO/c9-6-7-3-1-2-4-8-5-7/h1-2,5-6,8H,3-4H2
