16
gdb 51274	3.23519	1.14729	0.88281	5.3345	72.49	-0.2142	-0.0443	0.17	1260.7288	0.123387	-437.944767	-437.936421	-437.935477	-437.978478	30.3	
O	 0.0554624527	 0.3164850374	-1.3482718975	-0.237196
C	 0.2177713364	 0.800315558	-0.2564344285	 0.161458
C	 0.9573408246	 2.0955068529	 0.0277262427	-0.419974
C	 1.1194861881	 3.0430218915	-1.1182864238	 0.384575
C	 1.0270721274	 4.3799089505	-1.1131930015	-0.233579
C	 1.351693968	 4.8929163958	-2.489751759	-0.382524
C	 1.5875680041	 3.6075544454	-3.3041551202	 0.404385
O	 1.7980163839	 3.4941274424	-4.4877274397	-0.362451
N	 1.4969220704	 2.5687972843	-2.3877288774	-0.372121
H	-0.1461260383	 0.2784942638	 0.6556557176	 0.09793
H	 0.4758024676	 2.603566418	 0.8697681427	 0.140828
H	 1.9427964488	 1.772547824	 0.4072961146	 0.156774
H	 0.8012509093	 4.9915448674	-0.2524411859	 0.100611
H	 0.5506656129	 5.4771629699	-2.9563546502	 0.144929
H	 2.2531375639	 5.5170719425	-2.5233129468	 0.143878
H	 1.3562031403	 1.6097469163	-2.6673264571	 0.272476
63.9007	108.0893	124.1143	180.422	249.0465	293.7994	481.4865	497.8465	532.6636	590.7106	595.9148	682.3147	705.3715	740.2285	817.391	860.8574	914.9476	951.5373	988.0902	1006.4531	1045.1953	1144.5288	1188.4038	1200.391	1222.0621	1271.3546	1310.2275	1356.1487	1415.0502	1430.4639	1435.6537	1440.5097	1703.6839	1825.6228	1842.7651	2895.7314	2973.1357	3041.8017	3074.8732	3081.1915	3240.9027	3635.7321
O=CCC1=CCC(=O)N1	O=CCC1=CCC(=O)N1	
InChI=1S/C6H7NO2/c8-4-3-5-1-2-6(9)7-5/h1,4H,2-3H2,(H,7,9)	InChI=1S/C6H7NO2/c8-4-3-5-1-2-6(9)7-5/h1,4H,2-3H2,(H,7,9)
