20
gdb 73138	2.42137	1.76456	1.52931	0.765	76.68	-0.2304	0.0763	0.3067	984.3885	0.1728	-403.114003	-403.106467	-403.105522	-403.145467	31.243	
O	 0.2853924965	 1.4007755953	-0.1271689626	-0.486784
C	-0.0128061403	 0.0302973895	 0.0149023618	 0.431784
C	-1.4006527858	-0.1949667036	 0.6639934105	-0.265269
C	-0.7591668476	-1.1945572857	 1.6705450324	-0.246334
C	 0.6609836152	-0.7829776325	 1.1726536302	-0.069192
C	 1.6093196889	-1.7977830028	 0.5065581554	-0.197423
N	 1.3741326026	-1.789586696	-0.9596941409	-0.099467
C	 0.0199801573	-2.2060979071	-1.3379588759	-0.254776
C	 0.3419618198	-0.760963136	-1.240117308	-0.119735
H	 1.1700121045	 1.4822061187	-0.501300327	 0.277068
H	-1.7467114928	 0.7219615599	 1.1452138881	 0.115512
H	-2.1896774358	-0.5717088327	 0.010092931	 0.10125
H	-0.9566822035	-0.9830881199	 2.7234572301	 0.102613
H	-1.0082031072	-2.2432930316	 1.4901213786	 0.1023
H	 1.1778360855	-0.1446363982	 1.8919183769	 0.07858
H	 2.6527127658	-1.5058994431	 0.6656120744	 0.105875
H	 1.4932217219	-2.8155115021	 0.8950314419	 0.106657
H	-0.0565408794	-2.6706405107	-2.317664684	 0.11532
H	-0.6223605102	-2.6545779457	-0.5854538995	 0.113333
H	 0.4626970246	-0.1780021857	-2.1504337534	 0.088688
137.938	213.4409	252.0188	318.1487	357.4159	370.7054	408.0692	464.8319	578.1733	642.0216	679.287	734.5497	775.4895	796.5219	843.4179	863.355	880.5593	938.9817	973.3699	1007.1797	1020.4477	1030.6862	1061.372	1091.7694	1112.1859	1128.3171	1137.1586	1163.6669	1173.3187	1215.6479	1234.6688	1245.6247	1252.285	1265.2343	1283.9672	1324.6963	1339.9203	1372.1141	1384.5169	1476.0126	1492.8875	1495.6351	1513.9814	3036.9923	3060.944	3072.3085	3074.3528	3088.7289	3106.7505	3109.9161	3131.1609	3132.5346	3189.1237	3796.0348
OC12CCC1CN1CC21	O[C@]12CC[C@H]1CN1C[C@@H]21	
InChI=1S/C7H11NO/c9-7-2-1-5(7)3-8-4-6(7)8/h5-6,9H,1-4H2	InChI=1S/C7H11NO/c9-7-2-1-5(7)3-8-4-6(7)8/h5-6,9H,1-4H2/t5-,6-,7+,8?/m0/s1
