18
gdb 9829	3.7837	1.50564	1.19197	3.6395	70.02	-0.2451	0.023	0.268	1046.5364	0.153674	-381.135409	-381.126443	-381.125499	-381.169222	32.004	
C	-0.1327825327	 1.4425493427	-0.1209671947	-0.336879
N	-0.1752992466	 0.0126711137	-0.3599664583	-0.330807
C	 0.9346215891	-0.7121577776	-0.6626453829	 0.385698
O	 2.0521397936	-0.2181748078	-0.7413363482	-0.403752
C	 0.7239900413	-2.1937896282	-0.8998910619	 0.221842
C	-0.5743085594	-2.8488366904	-0.4794416021	-0.496563
C	 1.4911618427	-2.7274948459	-2.0684177546	-0.251012
N	 1.9398259238	-3.0031478908	-0.704620595	-0.339667
H	-0.5142686452	 1.688283685	 0.8760597812	 0.127753
H	 0.9095247964	 1.7539007507	-0.1925038066	 0.174265
H	-0.7215736228	 1.9896546052	-0.8658395697	 0.127123
H	-1.0634380334	-0.4563373728	-0.3178294711	 0.249448
H	-1.4256701026	-2.4886675612	-1.0698681758	 0.114403
H	-0.5009978601	-3.9279928611	-0.6296976823	 0.141317
H	-0.78711177	-2.6770647549	 0.5815733305	 0.126334
H	 1.0899460928	-3.5804350917	-2.6099551083	 0.113475
H	 2.0549281498	-2.0127908602	-2.660015485	 0.130241
H	 2.6924913834	-2.3483360947	-0.4883605053	 0.246782
60.8896	80.3959	138.4209	204.2604	224.2651	305.9219	329.5629	351.3264	364.7085	449.769	488.6884	571.9799	768.7814	789.8514	837.0677	884.4191	950.3595	1003.116	1035.5744	1055.5576	1106.279	1115.4402	1145.6822	1154.8884	1171.107	1242.6844	1303.8435	1346.5589	1369.764	1416.8186	1438.4132	1490.0565	1493.8271	1496.8114	1500.3813	1501.1554	1569.4128	1750.8279	3023.8278	3029.1232	3081.3599	3084.9124	3108.1114	3125.3892	3158.5225	3204.6546	3464.3388	3666.1124
CNC(=O)C1(C)CN1	CNC(=O)[C@@]1(C)CN1	
InChI=1S/C5H10N2O/c1-5(3-7-5)4(8)6-2/h7H,3H2,1-2H3,(H,6,8)	InChI=1S/C5H10N2O/c1-5(3-7-5)4(8)6-2/h7H,3H2,1-2H3,(H,6,8)/t5-/m1/s1
