17
gdb 57840	2.22774	1.34434	1.13381	2.1291	74.19	-0.2297	-0.1063	0.1234	1168.737	0.13249	-455.146989	-455.136615	-455.135671	-455.183413	34.673	
C	 0.0646991396	 1.1120423428	-0.6108270122	-0.343664
N	-0.1911042326	-0.1915801473	-0.0201158697	-0.07545
C	 0.6877614845	-1.272928792	-0.4170518531	-0.345202
C	-1.3617830812	-0.4070787591	 0.6375512754	 0.357502
N	-2.2220268057	 0.5211818493	 0.8597656665	-0.543704
C	-1.695623359	-1.8165121357	 1.0878405433	 0.167342
O	-1.7050132045	-2.1749414857	 2.2428665634	-0.271322
C	-2.1998946928	-2.7941343462	 0.0142011307	 0.079251
O	-2.1471227129	-2.5754300813	-1.1664305274	-0.208304
H	-0.1686867539	 1.1180148583	-1.6842634801	 0.128793
H	-0.5609323473	 1.8515116542	-0.1129446165	 0.175162
H	 1.1206693337	 1.3707653323	-0.4817617602	 0.122686
H	 1.7265486361	-0.9310191039	-0.3664443014	 0.132098
H	 0.5903284698	-2.1206273231	 0.2663774597	 0.141236
H	 0.4842829956	-1.6252593583	-1.437088089	 0.140909
H	-2.9896248483	 0.1843794195	 1.4363884552	 0.228296
H	-2.5963822011	-3.7347035239	 0.4521665854	 0.114368
44.7307	70.8437	99.724	120.6339	154.9026	181.1881	192.5582	234.5577	348.1742	358.0487	405.354	478.424	540.7469	614.5656	703.1381	761.6865	784.5351	915.3837	1015.5633	1082.4125	1088.7731	1127.7761	1169.9037	1178.32	1252.9799	1319.2365	1359.4648	1438.0536	1454.7161	1475.4333	1483.6168	1493.6439	1502.6056	1536.0833	1665.8175	1787.4324	1820.9495	2923.2954	3009.6752	3015.4777	3076.5445	3078.3522	3112.0947	3163.6611	3515.3534
CN(C)C(=N)C(=O)C=O	CN(C)C(=N)C(=O)C=O	
InChI=1S/C5H8N2O2/c1-7(2)5(6)4(9)3-8/h3,6H,1-2H3	InChI=1S/C5H8N2O2/c1-7(2)5(6)4(9)3-8/h3,6H,1-2H3
