20
gdb 90419	2.39498	1.58163	1.22883	3.5659	79.93	-0.2347	0.0317	0.2664	1114.2741	0.171044	-403.163093	-403.154167	-403.153223	-403.196841	33.012	
C	-0.1052494868	 1.5845717068	 0.0107063905	-0.40501
C	 0.0759751581	 0.0729262164	-0.0065067991	 0.031929
C	 1.1671628121	-0.5493143801	-0.9382730646	-0.268003
C	 1.7956547912	-1.2799514343	 0.2836456785	 0.001184
C	 0.7426347177	-0.6205876774	 1.2315319381	-0.211983
C	 1.940494671	 0.1542389298	 1.8152688536	 0.406474
O	 2.1112911889	 1.0328800119	 2.6220909215	-0.386448
N	 2.8222599483	-0.5120152801	 0.9875933914	-0.061511
C	 4.1886489321	-0.2056178297	 0.6469816558	-0.350313
H	 0.8346023709	 2.1022732198	 0.2256089494	 0.131932
H	-0.4742811777	 1.9391124173	-0.9579813554	 0.111581
H	-0.8269205571	 1.8866256326	 0.776853377	 0.124416
H	-0.8882951529	-0.4061138602	-0.2012117869	 0.081387
H	 0.7657878237	-1.218841258	-1.7025476937	 0.105792
H	 1.8377472769	 0.1662708813	-1.4228098969	 0.102105
H	 1.97883108	-2.3540844547	 0.2218347916	 0.081079
H	 0.1100342103	-1.1680693308	 1.9278784222	 0.091569
H	 4.5417546597	 0.5549873797	 1.3477010821	 0.160749
H	 4.830374284	-1.0899719494	 0.7308259829	 0.12857
H	 4.2743837397	 0.1896161493	-0.373966788	 0.1245
77.9428	121.9498	151.8316	153.6464	212.8796	236.2228	319.4477	377.7756	433.0509	497.6498	630.3214	681.032	749.038	793.5407	840.4738	861.3713	883.8513	905.5556	951.745	998.9053	1020.1411	1089.6907	1093.3841	1120.5393	1140.1764	1147.8765	1179.1034	1190.4698	1225.0868	1262.2869	1289.5087	1291.7575	1314.0387	1358.4559	1402.0803	1416.7257	1445.1803	1474.5906	1483.6546	1492.1227	1493.6203	1514.859	1863.5147	3010.2522	3031.9291	3051.5332	3057.1847	3066.6833	3091.8261	3098.1015	3108.0778	3114.3155	3127.4527	3135.1659
CC1CC2C1C(=O)N2C	C[C@H]1C[C@@H]2[C@H]1C(=O)N2C	
InChI=1S/C7H11NO/c1-4-3-5-6(4)7(9)8(5)2/h4-6H,3H2,1-2H3	InChI=1S/C7H11NO/c1-4-3-5-6(4)7(9)8(5)2/h4-6H,3H2,1-2H3/t4-,5+,6-/m0/s1
