19
gdb 116231	2.45308	1.43067	1.04156	2.8412	70.43	-0.2507	0.068	0.3187	1170.7758	0.159478	-460.137105	-460.128652	-460.127708	-460.170872	31.856	
O	-0.1396138118	 1.4535288783	-0.2563076768	-0.422606
C	-0.0002509958	 0.0548585112	-0.1441159016	-0.063524
C	-1.3351077245	-0.5887962552	 0.2461362656	 0.000961
O	-2.3441318445	-0.1464226155	-0.6733842292	-0.277585
C	-2.491096601	-1.143152568	-1.6874511383	-0.096307
C	-2.32008553	-2.4794365942	-0.9589290305	-0.314142
C	-1.3600870738	-2.1196385115	 0.1731649695	 0.410191
C	-0.2634977937	-2.9808702854	 0.6348479417	-0.248479
O	-1.470661965	-2.8491545538	 1.3922005397	-0.27188
H	-0.9670073454	 1.5907125672	-0.7358589179	 0.288098
H	 0.3664009451	-0.3940662262	-1.0837902023	 0.077986
H	 0.7533980441	-0.138708639	 0.626469374	 0.108901
H	-1.6320012692	-0.243187902	 1.2410733443	 0.10745
H	-3.4758293281	-1.0091754177	-2.1407192719	 0.120116
H	-1.7310871618	-1.0180911061	-2.4733139779	 0.10011
H	-3.266742842	-2.8049500146	-0.5172455309	 0.132066
H	-1.9480517556	-3.2785828439	-1.6039435481	 0.112608
H	-0.109131205	-3.9504999766	 0.1623398872	 0.11561
H	 0.624156648	-2.5487480771	 1.0948320734	 0.120428
40.4848	119.56	175.603	206.3539	302.5981	313.576	371.5949	470.957	477.4212	492.6275	555.4881	647.4034	785.6121	835.4625	864.1427	891.9209	926.1751	962.8231	985.0693	1005.0204	1072.779	1083.8323	1101.8108	1123.4264	1133.0129	1167.2335	1200.4609	1222.8919	1231.1921	1250.7078	1280.6291	1307.6222	1339.1269	1379.6895	1390.9772	1423.6555	1440.4854	1482.4187	1503.1561	1524.5359	1534.011	2952.4419	2992.1179	3062.0172	3064.5217	3076.5645	3080.6292	3101.8395	3116.1753	3164.675	3768.3594
OCC1OCCC11CO1	OC[C@H]1OCC[C@]21CO2	
InChI=1S/C6H10O3/c7-3-5-6(4-9-6)1-2-8-5/h5,7H,1-4H2	InChI=1S/C6H10O3/c7-3-5-6(4-9-6)1-2-8-5/h5,7H,1-4H2/t5-,6-/m1/s1
