18
gdb 64110	3.54003	1.06981	1.00487	4.8285	80.2	-0.2448	-0.0457	0.1991	1248.9689	0.147888	-398.162197	-398.153299	-398.152354	-398.195585	33.275	
C	 0.0611450558	 1.4620889831	 0.0791608709	-0.407859
C	-0.0510966823	-0.0681348031	-0.0176152732	 0.283426
C	-1.5143443524	-0.5087080073	-0.0644234962	-0.423003
C	 0.7813571515	-0.6195087905	-1.2223125349	-0.221759
N	 2.0331145025	-1.0112716791	-0.5639928784	-0.35237
C	 1.7187140173	-1.133110714	 0.7819158744	 0.270843
N	 0.6090002484	-0.6434736319	 1.185043383	-0.30835
C	 2.6697786414	-1.758356074	 1.6632223147	 0.252909
N	 3.4496837681	-2.281508406	 2.3364920859	-0.316939
H	 1.1090537375	 1.7766516612	 0.0767316439	 0.126521
H	-0.4444060753	 1.9372659908	-0.7682235629	 0.113515
H	-0.3995631949	 1.8164720062	 1.0046709875	 0.133246
H	-2.0069211743	-0.1162924257	-0.9607190752	 0.114528
H	-1.5926635293	-1.5996448844	-0.0766312693	 0.119095
H	-2.0509221222	-0.1395666698	 0.8136315507	 0.13289
H	 0.2891361452	-1.4832560359	-1.6895154393	 0.107503
H	 0.959062961	 0.1372306505	-1.9909896464	 0.119135
H	 2.6182379221	-1.7168173601	-0.9876576651	 0.256667
85.8768	138.5211	157.3996	211.9846	261.0801	300.1336	322.4962	375.2498	384.8306	507.8032	528.2574	543.3743	575.7081	651.0008	717.4235	813.4362	882.0181	929.6166	958.2014	981.3093	1004.7878	1040.678	1053.9027	1176.3178	1191.6275	1218.9709	1262.2384	1277.5698	1331.9522	1395.3931	1413.6892	1460.5331	1476.7658	1484.8142	1495.2969	1506.2856	1523.9308	1669.7382	2365.3115	3009.7312	3034.6629	3039.1176	3086.3279	3106.0867	3109.5079	3121.5704	3126.2508	3606.6005
CC1(C)CNC(=N1)C#N	CC1(C)CN[C]([N]1)C#N	
InChI=1S/C6H9N3/c1-6(2)4-8-5(3-7)9-6/h4H2,1-2H3,(H,8,9)	InChI=1S/C6H9N3/c1-6(2)4-8-5(3-7)9-6/h4H2,1-2H3,(H,8,9)
