14
gdb 20420	6.31799	1.5221	1.35556	2.7074	63.96	-0.2415	-0.002	0.2395	885.2614	0.109538	-374.864062	-374.857544	-374.856599	-374.897001	23.825	
C	 0.2239208127	 1.5899987539	 0.0702774589	-0.219938
C	 1.2505210593	 0.5623317364	-0.2195063218	-0.2199
N	-0.1419781311	 0.161125127	 0.0553048898	-0.195364
C	-0.3892548086	-0.437578548	 1.3027207868	 0.36649
C	-1.3085798368	-1.4260309605	 1.5680685395	-0.172671
N	-1.1591477508	-1.6530163607	 2.894680424	-0.150472
N	-0.2120383438	-0.8643222955	 3.4320139734	-0.113075
N	 0.2552639862	-0.1263505736	 2.465882768	-0.253197
H	 0.2710438619	 2.0764989472	 1.0397931249	 0.142487
H	-0.2114957577	 2.1752844874	-0.7342140144	 0.118616
H	 1.5780491794	 0.383854951	-1.2394227726	 0.118592
H	 1.983232508	 0.3626466264	 0.556441465	 0.142648
H	-2.0132636471	-1.9504528571	 0.9471264439	 0.151669
H	-1.6479422916	-2.306050294	 3.4856964246	 0.284116
7.4282	193.4789	204.6832	447.2726	447.59	571.9572	616.5833	701.2147	747.5724	797.07	822.0884	851.2502	909.0843	982.9277	1038.5903	1045.9846	1052.0434	1112.2388	1128.7041	1136.2324	1166.9759	1185.9294	1237.8249	1288.8805	1326.235	1368.4367	1480.6199	1490.6171	1507.9688	1599.2586	3115.5013	3118.3205	3204.6717	3219.008	3296.8894	3660.2923
C1CN1C1=CNN=N1	C1CN1c1c[nH]nn1	
InChI=1S/C4H6N4/c1-2-8(1)4-3-5-7-6-4/h3H,1-2H2,(H,5,6,7)	InChI=1S/C4H6N4/c1-2-8(1)4-3-5-7-6-4/h3H,1-2H2,(H,5,6,7)
