18
gdb 14008	4.47285	1.254	1.16796	3.4788	74.31	-0.2428	-0.0152	0.2275	1076.6898	0.153267	-347.792638	-347.784832	-347.783888	-347.825159	29.058	
O	-0.1953804658	 0.2101673163	-0.7448164753	-0.273345
C	-0.04138038	 1.2575685872	-0.1647484692	 0.168188
C	 1.239311437	 1.9816885323	-0.0451043043	-0.169714
C	 1.1982806863	 3.5091583286	 0.0387744637	-0.35501
C	 1.5506180188	 2.7225965966	 1.2460821104	 0.359103
C	 0.787127369	 2.7196526123	 2.5814025998	-0.292569
C	 2.116748588	 3.1367873404	 3.2770261066	-0.206581
C	 2.8962944282	 2.7569121271	 1.9825065169	-0.28928
H	-0.8981587789	 1.765352025	 0.3402379277	 0.061134
H	 2.0721894454	 1.5228931889	-0.5685282949	 0.102752
H	 1.977911833	 4.0447612814	-0.4927221011	 0.125773
H	 0.2184481933	 3.9774165678	-0.003339692	 0.121692
H	-0.0585502032	 3.4063901095	 2.6701191862	 0.104704
H	 0.4574872953	 1.7200888406	 2.8801022781	 0.112902
H	 2.1561774823	 4.209076809	 3.4818604641	 0.109587
H	 2.384719767	 2.5970646511	 4.1870784907	 0.105257
H	 3.3610796009	 1.7686766346	 2.0499099895	 0.111247
H	 3.6406177935	 3.4698081413	 1.6181253732	 0.104163
73.5009	119.0767	145.258	223.0869	339.6334	365.3498	399.6591	462.8817	572.632	707.038	790.6059	851.2197	858.4559	876.0961	910.4342	934.2171	937.2053	981.872	1033.9062	1046.7617	1071.5806	1085.2927	1133.1963	1175.5308	1190.0237	1213.7949	1227.602	1256.165	1268.3176	1280.3369	1307.2277	1389.5341	1445.2741	1476.3894	1478.09	1486.8684	1505.8241	1815.7693	2840.2766	3050.5701	3054.1349	3071.2152	3098.3287	3103.0206	3118.4865	3128.816	3167.9885	3207.8844
O=CC1CC11CCC1	O=C[C@H]1CC21CCC2	
InChI=1S/C7H10O/c8-5-6-4-7(6)2-1-3-7/h5-6H,1-4H2	InChI=1S/C7H10O/c8-5-6-4-7(6)2-1-3-7/h5-6H,1-4H2/t6-/m1/s1
