23
gdb 104186	2.37814	1.25223	1.23123	2.2422	81.25	-0.2449	0.062	0.3069	1215.4897	0.203652	-425.419812	-425.409577	-425.408633	-425.453861	39.835	
C	 0.3865510642	 1.4412707339	-0.249582775	-0.420089
C	-0.04673913	-0.0048049528	 0.0177722945	 0.266108
C	-1.5676304037	-0.1199201987	-0.0852600556	-0.460685
C	 0.7959124245	-1.0169668343	-0.82286252	-0.260234
C	 1.7465606577	-1.2122828065	 0.387110249	-0.288712
C	 0.6573646747	-0.5751884881	 1.3013942866	 0.417807
O	 1.0731095871	 0.4169231419	 2.2132329789	-0.493607
C	-0.14810584	-1.6263205779	 2.0613639706	-0.151356
O	 0.7038757485	-2.0915622464	 3.1096701667	-0.437986
H	 1.4726108696	 1.5575615428	-0.2132302425	 0.118311
H	 0.0421877568	 1.7538053815	-1.2419204803	 0.100532
H	-0.0378628362	 2.1208230894	 0.4946164696	 0.12195
H	-1.902794684	 0.1959755403	-1.0798393494	 0.111838
H	-1.9210238711	-1.1450010764	 0.0649806444	 0.105208
H	-2.0682920352	 0.5233570863	 0.647405463	 0.116862
H	 0.2348659386	-1.9240727673	-1.0667009816	 0.091201
H	 1.2370591976	-0.6283588468	-1.7442753301	 0.094249
H	 2.0645431111	-2.2282549407	 0.6310471514	 0.099258
H	 2.6266132148	-0.5681064659	 0.3364504828	 0.106873
H	 1.3406477204	-0.0575317361	 3.0114881132	 0.281799
H	-1.0560093035	-1.1652788429	 2.4740863892	 0.095661
H	-0.4457639187	-2.4537244239	 1.4022200443	 0.091658
H	 0.1734192368	-2.5877986015	 3.7387179903	 0.293353
106.4173	147.1417	184.7733	210.402	237.0003	258.0185	280.1141	300.8266	329.4682	351.3504	374.3546	414.5255	445.0409	481.2739	547.3972	609.5416	732.275	752.7539	869.9236	897.5786	925.3981	944.0031	957.4545	968.3037	1003.7794	1023.8256	1037.8531	1070.7001	1155.0112	1179.0601	1207.4621	1214.9217	1232.5439	1239.2515	1250.7513	1264.8474	1300.3571	1307.7837	1393.7468	1400.9252	1420.4725	1446.9697	1476.2416	1481.7502	1489.1823	1498.2117	1503.5848	1504.1216	1513.1724	2994.1968	3023.4818	3034.3551	3037.1455	3050.8732	3072.1624	3086.5066	3094.51	3099.4179	3104.1044	3119.4379	3129.5671	3761.7807	3843.4149
CC1(C)CCC1(O)CO	CC1(C)CC[C@]1(O)CO	
InChI=1S/C7H14O2/c1-6(2)3-4-7(6,9)5-8/h8-9H,3-5H2,1-2H3	InChI=1S/C7H14O2/c1-6(2)3-4-7(6,9)5-8/h8-9H,3-5H2,1-2H3/t7-/m0/s1
