21
gdb 89006	4.36828	0.77437	0.72401	1.4832	79.62	-0.2377	0.081	0.3187	1612.6618	0.182044	-424.185583	-424.176266	-424.175322	-424.220901	34.161	
O	-0.0439414909	 1.4635610571	 0.3598928588	-0.418501
C	-0.0389149809	 0.1017236726	 0.0341890118	 0.08271
C	-0.6006082701	-0.8973092305	 1.016226335	-0.328016
C	-1.3698004146	-0.5313072282	-0.2418801082	-0.006326
C	-2.6471917548	 0.2770098454	-0.1544656543	-0.226332
C	-3.8600789402	-0.5966494684	 0.115784929	 0.166702
C	-5.2624414074	 0.0238737688	-0.0773729355	-0.300153
C	-5.4585071655	-1.0958728299	-1.1179752729	-0.056568
O	-4.1010897662	-1.5522165987	-0.9520294931	-0.296698
H	 0.6239480727	 1.6075850001	 1.037952216	 0.287302
H	 0.8036550768	-0.2115307785	-0.5825067057	 0.084355
H	-0.1442149375	-1.878139805	 1.094057046	 0.110325
H	-0.9713413557	-0.4923132691	 1.9530522294	 0.108284
H	-1.3828589117	-1.2822211911	-1.0259016026	 0.104625
H	-2.5611030578	 1.0318682111	 0.6347753283	 0.105528
H	-2.8072925859	 0.8183035978	-1.095940585	 0.097126
H	-3.7377893844	-1.1236156168	 1.0730869743	 0.070315
H	-5.9248653876	-0.0004861046	 0.7890462334	 0.106879
H	-5.2470690155	 1.0347741463	-0.4906676068	 0.108926
H	-6.1862499424	-1.8688777012	-0.8380598636	 0.097659
H	-5.6627249804	-0.7784860373	-2.1475444444	 0.101857
50.0335	72.75	88.8365	127.2201	195.6104	299.1612	304.9443	378.8059	436.5035	473.8775	565.8154	745.4146	766.9008	808.1317	834.9589	860.6297	889.7065	890.4265	952.6732	975.2901	997.2262	1016.4634	1032.8234	1058.3178	1103.8269	1117.8665	1139.3836	1160.8756	1171.9316	1183.1215	1216.0532	1235.9835	1240.8121	1258.0325	1293.5047	1302.6417	1311.5464	1363.8546	1391.5274	1409.8299	1426.2564	1473.3564	1489.8251	1490.8664	1532.6227	2995.043	3010.4816	3026.8393	3049.8729	3074.7702	3079.4169	3095.0466	3126.0383	3130.7327	3160.1837	3214.5998	3808.7693
OC1CC1CC1CCO1	O[C@H]1C[C@H]1C[C@H]1CCO1	
InChI=1S/C7H12O2/c8-7-4-5(7)3-6-1-2-9-6/h5-8H,1-4H2	InChI=1S/C7H12O2/c8-7-4-5(7)3-6-1-2-9-6/h5-8H,1-4H2/t5-,6-,7+/m1/s1
