17
gdb 16901	4.13644	1.80909	1.39223	1.7838	69.56	-0.2177	0.01	0.2277	890.837	0.143524	-363.831183	-363.824098	-363.823153	-363.862296	27.668	
O	 0.0207984499	 1.4321412501	 0.1286859677	-0.429472
C	 0.042126511	 0.0141679133	 0.0065319182	 0.074061
C	-1.423427688	-0.4322413246	 0.0310953339	-0.160438
N	-1.5731618769	-1.8749686874	-0.2264106286	-0.108746
C	-2.1569556395	-2.2534929973	-1.5148464831	-0.243179
C	-0.6988796984	-2.4435724244	-1.2585002554	-0.045436
C	 0.3312637222	-1.5724667457	-1.8767695463	-0.075328
C	 0.6983655104	-0.4410007236	-1.2777477866	-0.102166
H	 0.9246130586	 1.7355484939	 0.258122686	 0.284139
H	 0.5692332647	-0.4318756346	 0.8665856843	 0.084674
H	-1.8616040773	-0.2083551811	 1.008950064	 0.109487
H	-1.9503024639	 0.1785105455	-0.7135801047	 0.106583
H	-2.8342787804	-3.1039513182	-1.4972507483	 0.112804
H	-2.4407071949	-1.4526039328	-2.195067246	 0.113149
H	-0.3630441923	-3.4563222918	-1.0316563626	 0.097818
H	 0.8027112566	-1.9106602738	-2.7960999616	 0.094994
H	 1.4717720282	 0.1988682724	-1.6957270509	 0.087057
103.7326	197.6746	232.9849	328.3026	394.291	426.1735	454.6613	497.4231	589.6211	720.0402	733.3967	801.6085	818.6422	924.1772	941.6767	982.3564	1017.061	1040.5171	1060.2354	1087.887	1099.0014	1105.5392	1116.8408	1159.3542	1188.516	1219.7387	1271.3738	1309.4586	1339.4885	1344.8265	1388.611	1411.8869	1427.9208	1495.0916	1517.0925	1706.7686	2956.1587	3017.7327	3071.4852	3089.1443	3092.3231	3147.0671	3169.8997	3179.7538	3822.3189
OC1CN2CC2C=C1	O[C@H]1CN2C[C@H]2C=C1	
InChI=1S/C6H9NO/c8-6-2-1-5-3-7(5)4-6/h1-2,5-6,8H,3-4H2	InChI=1S/C6H9NO/c8-6-2-1-5-3-7(5)4-6/h1-2,5-6,8H,3-4H2/t5-,6-,7?/m1/s1
