18
gdb 85613	2.22685	1.92285	1.20875	3.5617	74.94	-0.2549	-0.0023	0.2527	1051.0549	0.148129	-439.094603	-439.086292	-439.085348	-439.128076	31.296	
C	-0.7574169537	 1.2629106961	-0.1677122426	-0.404352
C	 0.1076194213	 0.0240192894	 0.079137186	 0.064023
O	 0.9010691866	-0.3136568613	-1.0805705867	-0.24733
C	 1.6596916079	 0.6561800868	-1.6396563691	 0.436251
N	 1.4449732902	 1.0431158168	-2.8212558842	-0.537382
O	 2.6560833941	 1.1508933551	-0.8575798891	-0.250947
C	 3.1601211205	 0.3289027578	 0.208451944	-0.13884
C	 2.2466331047	 0.2313520978	 1.401120398	-0.080866
C	 0.9241962767	 0.1176409973	 1.3386896211	-0.040706
H	-0.1397920192	 2.1608424381	-0.25526932	 0.139402
H	-1.3354530282	 1.1415383946	-1.0868286	 0.147085
H	-1.4471587174	 1.4048592807	 0.6696447553	 0.11894
H	-0.5529050594	-0.846134055	 0.1724859684	 0.109052
H	 2.1814373795	 1.6891425901	-3.1041817657	 0.225196
H	 3.4074822836	-0.665923866	-0.1835690533	 0.133373
H	 4.0963555057	 0.813196826	 0.4960728377	 0.124304
H	 2.7347077186	 0.2597257507	 2.3716148694	 0.101894
H	 0.3436430786	 0.0798003649	 2.2578614807	 0.100902
35.5547	132.755	213.3798	231.046	252.0651	304.3579	397.0079	442.5335	506.2462	521.8527	680.1738	719.8784	759.5022	767.2495	842.0983	857.8915	885.5316	902.7926	974.0813	995.7223	1023.0919	1043.1394	1076.6707	1113.4505	1123.0988	1158.2056	1243.0244	1290.9156	1298.015	1332.325	1393.1806	1403.5077	1419.0372	1424.1544	1484.4866	1487.8621	1494.8106	1739.3138	1757.5041	3026.5052	3040.0235	3047.3357	3099.6416	3121.027	3135.809	3148.8497	3172.8293	3501.6725
CC1OC(=N)OCC=C1	C[C@H]1O[C]([NH])OCC=C1	
InChI=1S/C6H9NO2/c1-5-3-2-4-8-6(7)9-5/h2-3,5,7H,4H2,1H3	InChI=1S/C6H9NO2/c1-5-3-2-4-8-6(7)9-5/h2-3,5,7H,4H2,1H3/t5-/m1/s1
