14
gdb 48297	2.31058	1.06266	0.86954	4.2693	68.87	-0.2712	-0.0534	0.2177	1320.0203	0.096774	-436.642045	-436.632483	-436.631539	-436.678139	32.085	
O	-0.5407003786	 0.0531570202	-1.2692636042	-0.223019
C	 0.5897042843	 0.4285083723	-1.3832087232	 0.160487
C	 1.3914754851	 1.0766830966	-0.23665453	-0.136671
O	 2.7425028644	 0.6824068131	-0.4649136065	-0.235484
C	 3.6699348898	 1.1351531008	 0.4961443237	-0.193734
C	 3.4736795109	 0.5075941828	 1.8163185474	 0.254003
N	 3.3033353986	 0.0179794688	 2.8486155308	-0.296306
C	 1.2094155696	 2.526939041	-0.2794005021	 0.328958
C	 1.0583169524	 3.7175456539	-0.3470106413	-0.463966
H	 1.1710855986	 0.3550547482	-2.325488511	 0.110108
H	 1.0158194394	 0.6722765312	 0.7131980723	 0.147596
H	 4.6605198601	 0.8692805712	 0.1175938845	 0.169006
H	 3.6266459641	 2.2262730191	 0.6148519432	 0.159266
H	 0.9148004516	 4.7696722108	-0.3943757336	 0.219757
40.4706	55.6798	77.5298	141.1293	195.3061	220.401	257.916	365.7699	381.3378	452.8353	492.2184	597.7373	625.8702	646.7214	698.9221	892.7016	904.6443	956.8148	1024.6242	1047.1775	1089.634	1126.7933	1265.0073	1302.1716	1333.9475	1389.9905	1395.9506	1471.5201	1855.2489	2228.9542	2360.6991	2927.7536	3025.0238	3029.26	3103.6987	3497.4016
O=CC(OCC#N)C#C	O=C[C@@H](OCC#N)C#C	
InChI=1S/C6H5NO2/c1-2-6(5-8)9-4-3-7/h1,5-6H,4H2	InChI=1S/C6H5NO2/c1-2-6(5-8)9-4-3-7/h1,5-6H,4H2/t6-/m0/s1
