19
gdb 47873	2.12928	1.65528	1.14328	4.2625	75.23	-0.2263	-0.0364	0.1899	1124.3916	0.159903	-423.065703	-423.057053	-423.056109	-423.099599	31.896	
O	 0.0633917035	-0.0331331318	-0.2899999145	-0.300906
C	-0.0107279407	 1.1466420124	-0.0457499564	 0.320914
C	-1.3043069728	 1.90600418	 0.1734291825	-0.314428
C	-1.8488236659	 2.4879850478	-1.1603422571	-0.192757
C	-0.7900409076	 2.9296126591	-2.191365475	-0.202758
C	 0.3915959413	 3.7580919068	-1.6481466792	-0.212803
C	 1.5761147266	 2.9194815681	-1.1175035437	-0.310358
C	 1.2558132174	 2.020917544	 0.0602908863	 0.319947
O	 1.9215349963	 1.9672973213	 1.0676103099	-0.296832
H	-2.0400275458	 1.2287394148	 0.6148965755	 0.131645
H	-1.1148502966	 2.7166899564	 0.8861192457	 0.122101
H	-2.4853460679	 1.7333921097	-1.6325591676	 0.121844
H	-2.4976866902	 3.336012045	-0.9165872443	 0.110376
H	-0.3909051942	 2.0442096456	-2.7034020612	 0.114043
H	-1.3072214422	 3.5089184668	-2.9634263825	 0.104589
H	 0.7855568501	 4.3829320338	-2.4560272683	 0.114288
H	 0.046888744	 4.4524838901	-0.871442019	 0.108498
H	 1.9286092272	 2.2655260895	-1.9287386646	 0.13594
H	 2.4135822775	 3.5571446508	-0.8206390963	 0.126655
47.422	105.5871	147.1143	213.9141	254.8829	294.9438	326.9332	393.5089	475.3585	508.1463	644.1318	675.2666	766.1922	784.4328	802.9282	851.7832	907.2984	936.9478	984.173	1005.6287	1026.155	1105.0571	1107.13	1148.7394	1189.2428	1205.6121	1248.606	1283.779	1301.1331	1320.9958	1347.2799	1368.6428	1383.034	1391.6315	1457.7011	1477.614	1489.82	1498.2886	1502.3388	1801.3191	1815.7936	3012.3628	3023.3959	3032.5128	3039.5855	3046.3665	3068.3892	3077.7456	3086.818	3096.9153	3108.831
O=C1CCCCCC1=O	O=C1CCCCCC1=O	
InChI=1S/C7H10O2/c8-6-4-2-1-3-5-7(6)9/h1-5H2	InChI=1S/C7H10O2/c8-6-4-2-1-3-5-7(6)9/h1-5H2
