20
gdb 57113	2.97088	1.0745	0.83276	3.5656	78.81	-0.296	0.0129	0.3089	1378.8266	0.17185	-403.175503	-403.166176	-403.165232	-403.211257	33.749	
O	-0.0050932811	 1.457588315	 0.0037641215	-0.412725
C	 0.0671068882	 0.0427695472	-0.0264205679	-0.038251
C	 0.7865000186	-0.4173257555	-1.2352350679	 0.262563
N	 1.3826261559	-0.7577862679	-2.1650385707	-0.325439
C	 0.6830037396	-0.5623024714	 1.2427663189	 0.022047
C	-0.0534725786	-0.157288283	 2.5303106371	-0.210878
C	 0.4867967947	-1.1566958934	 3.5648751459	-0.21112
C	 0.6369480795	-2.4903986789	 2.7880423867	-0.207908
C	 0.6661246906	-2.1080695207	 1.2794537592	-0.226694
H	 0.8944946281	 1.8036261573	 0.0336462559	 0.293052
H	-0.9730747998	-0.2949450508	-0.1092216468	 0.13603
H	 1.72412227	-0.2138535229	 1.3068656104	 0.077387
H	 0.1034772428	 0.8880819785	 2.8046489939	 0.105249
H	-1.1340474675	-0.2977925333	 2.3907362915	 0.098955
H	 1.4654302558	-0.8168212059	 3.9230197397	 0.101307
H	-0.1582499648	-1.2475769209	 4.4427303063	 0.100281
H	 1.5410748031	-3.0269281433	 3.0871416827	 0.10523
H	-0.2037047551	-3.1590513867	 2.9937231644	 0.105753
H	-0.2371022756	-2.4759257333	 0.7781879232	 0.104349
H	 1.5155550957	-2.5406375902	 0.7463913658	 0.120813
20.029	73.1587	114.0295	158.5653	217.4634	257.7268	307.2269	382.5545	411.2038	471.613	595.4705	605.9429	648.6337	774.3016	832.6253	876.9152	895.9126	914.3692	951.7316	964.4424	1001.9852	1036.4424	1058.8803	1109.7647	1110.1204	1168.0322	1202.7994	1215.534	1258.4518	1276.9054	1295.892	1301.5845	1323.5766	1339.9385	1345.2338	1349.5634	1387.3388	1418.383	1487.3375	1494.0095	1495.8979	1518.2687	2352.273	2998.9755	3022.2762	3035.9846	3039.9321	3051.4328	3060.5655	3085.3817	3098.3158	3105.8765	3112.4017	3800.2709
OC(C#N)C1CCCC1	O[C@@H](C#N)C1CCCC1	
InChI=1S/C7H11NO/c8-5-7(9)6-3-1-2-4-6/h6-7,9H,1-4H2	InChI=1S/C7H11NO/c8-5-7(9)6-3-1-2-4-6/h6-7,9H,1-4H2/t7-/m0/s1
