19
gdb 41176	3.12242	1.85787	1.56505	1.568	78.27	-0.2341	0.0114	0.2456	909.8155	0.162911	-385.859111	-385.852776	-385.851832	-385.889324	27.621	
C	 0.0573960458	 1.5001059209	 0.1306832337	-0.210018
O	 1.4863072979	 1.4365771577	-0.1596273614	-0.311388
C	 1.2950640216	 0.1329971573	-0.7824642498	 0.152031
C	 2.11762295	-1.1180268556	-0.4337919928	-0.272118
C	 1.0376715138	-1.956607693	 0.3649810446	-0.069829
C	 0.4685311947	-0.8216392529	 1.2377516391	-0.237206
C	-0.0297256108	-0.0243429285	 0.0069832058	 0.284294
C	-0.8654330953	-1.0705741162	-0.6865501148	-0.204574
C	-0.1860168031	-2.2183678614	-0.5223395034	-0.080758
H	-0.1421495272	 1.9485777198	 1.1090288795	 0.105682
H	-0.4789913081	 2.0569054693	-0.6499196481	 0.099022
H	 1.1615043545	 0.2666101267	-1.8622803717	 0.069737
H	 2.4943351226	-1.6306276613	-1.3211730628	 0.100113
H	 2.964525999	-0.8847019215	 0.2171286762	 0.116769
H	 1.4456674267	-2.8340986669	 0.8678063435	 0.062095
H	-0.3542757189	-1.1376019515	 1.8834163885	 0.094765
H	 1.2251196052	-0.2874034229	 1.8183473026	 0.104115
H	-1.7259323634	-0.8989108658	-1.3205440512	 0.100896
H	-0.407275345	-3.1708594843	-0.9881041376	 0.096373
216.8669	302.7664	363.2585	367.9232	462.9653	526.6108	553.7627	668.3752	708.518	732.0888	790.8911	830.9192	843.228	861.0696	900.9507	905.9276	936.4555	943.0086	968.9199	978.4887	1024.5309	1060.5708	1071.3243	1092.7794	1134.639	1148.3794	1159.6592	1173.9588	1193.5803	1240.3787	1255.0242	1283.4289	1292.9691	1305.8816	1339.2308	1376.8602	1381.3567	1476.6008	1498.9153	1516.1466	1607.7191	3007.5913	3029.7896	3061.9904	3068.6851	3077.1609	3108.251	3118.2763	3123.0855	3196.607	3221.2925
C1OC2CC3CC12C=C3	C1O[C@H]2C[C@H]3C[C@@]12C=C3	
InChI=1S/C8H10O/c1-2-8-4-6(1)3-7(8)9-5-8/h1-2,6-7H,3-5H2	InChI=1S/C8H10O/c1-2-8-4-6(1)3-7(8)9-5-8/h1-2,6-7H,3-5H2/t6-,7-,8-/m0/s1
