16
gdb 36276	4.55156	1.01688	0.94585	5.1683	71.89	-0.2517	0.0303	0.282	1218.582	0.124014	-400.672365	-400.664802	-400.663858	-400.705622	28.691	
N	 0.0629320685	-1.1415527691	 0.5307507768	-0.308553
C	-0.013248937	-0.0522231948	 0.1518567856	 0.235353
C	-0.0849140766	 1.3304116174	-0.32431554	-0.353314
C	 1.3002139124	 2.0040341825	-0.2858849096	-0.020092
C	 1.9085547869	 2.9325433208	-1.3045744302	-0.126221
C	 0.9301605001	 4.0330997285	-1.817063721	 0.017713
O	-0.3619884665	 3.8435953394	-1.2195001869	-0.237696
C	 0.670978221	 4.4885799959	-0.4581902317	 0.017716
C	 1.6350944984	 3.4131344349	 0.1291647213	-0.126254
H	-0.4937742433	 1.3294967405	-1.3370220386	 0.164275
H	-0.8039449201	 1.8744190917	 0.291980655	 0.164239
H	 2.0648011746	 1.3265293645	 0.0870910883	 0.125793
H	 2.8636928817	 2.7342095704	-1.7734522322	 0.10461
H	 0.9764878667	 4.5588542415	-2.7623192041	 0.118913
H	 0.4590132526	 5.4682861771	-0.0491429142	 0.118911
H	 2.3519656405	 3.6335048186	 0.9095523817	 0.104607
24.2627	140.235	221.3943	227.6511	381.8968	410.9123	499.0194	509.9992	672.7173	727.2212	733.9294	757.9859	814.6809	868.7054	891.7275	911.2871	943.158	957.6765	983.1238	985.2737	1006.3197	1044.1688	1050.3383	1087.7482	1184.4808	1231.5797	1240.8729	1243.8805	1280.5258	1303.349	1319.9387	1392.0745	1440.344	1444.8838	2358.3364	3082.8522	3119.9566	3140.5381	3189.4597	3198.6335	3200.9645	3211.6283
N#CCC1C2C3OC3C12	N#CC[C@H]1[C@H]2[C@H]3O[C@H]3[C@@H]12	
InChI=1S/C7H7NO/c8-2-1-3-4-5(3)7-6(4)9-7/h3-7H,1H2	InChI=1S/C7H7NO/c8-2-1-3-4-5(3)7-6(4)9-7/h3-7H,1H2/t3-,4+,5-,6+,7-
