21
gdb 41155	2.78239	1.83026	1.39494	1.9342	80.9	-0.2386	0.0795	0.318	995.3633	0.186418	-387.065227	-387.058375	-387.057431	-387.095969	29.548	
C	 0.0277635754	 1.5374717456	-0.1409658796	-0.154536
O	 1.469725285	 1.5365533592	 0.0774034813	-0.352763
C	 1.3643446839	 0.2670560612	 0.7314838109	 0.486146
C	 2.2412730677	-0.989916699	 0.6772097428	-0.305561
C	 1.4242491662	-1.3823748531	 1.9648762573	-0.014596
C	 1.3545595865	 0.1404811332	 2.2711861407	-0.297173
C	 0.0015743963	-1.9156387696	 1.6416987084	-0.202436
C	-0.9091101316	-0.8106599197	 1.0235351485	-0.259414
C	-0.0126534087	 0.0147649139	 0.1080750517	-0.032692
H	-0.4882619945	 2.1412832633	 0.6181226597	 0.097568
H	-0.2340128619	 1.9021178926	-1.1384619839	 0.105835
H	 2.1646820759	-1.6211247048	-0.2130228703	 0.08898
H	 3.2917925059	-0.8165111566	 0.9278659009	 0.101209
H	 1.938170088	-2.0245962786	 2.6812632549	 0.069512
H	 2.2916687013	 0.5095069221	 2.6958928575	 0.100182
H	 0.5131021307	 0.5360439004	 2.8444200738	 0.091187
H	 0.0811954489	-2.7642716447	 0.9510726647	 0.099831
H	-0.4616069802	-2.3029464702	 2.5558860289	 0.098369
H	-1.7592512258	-1.2571747426	 0.4991277248	 0.093951
H	-1.3272500145	-0.1865113857	 1.819893906	 0.104083
H	 0.1259588055	-0.4979139169	-0.850212799	 0.082319
188.6816	238.5511	351.8492	369.6335	389.8584	451.2525	494.7966	523.6948	568.7201	730.3518	777.7615	791.6988	836.731	866.9681	901.439	938.0087	956.0405	961.3257	964.7437	976.5559	1004.6286	1031.2083	1045.8643	1104.4838	1115.8124	1132.2819	1156.6121	1168.7809	1174.8024	1213.8835	1223.4597	1245.4732	1260.2025	1283.6637	1306.8407	1324.126	1326.3614	1354.0926	1360.8353	1404.9513	1477.4426	1489.4422	1501.2732	1519.8196	1526.4528	3009.2106	3027.5419	3038.4629	3046.6498	3048.4994	3063.793	3066.4454	3083.935	3090.743	3097.5264	3106.8767	3116.9125
C1OC23CC(C2)CCC13	C1O[C@@]23C[C@@H](C2)CC[C@@H]13	
InChI=1S/C8H12O/c1-2-7-5-9-8(7)3-6(1)4-8/h6-7H,1-5H2	InChI=1S/C8H12O/c1-2-7-5-9-8(7)3-6(1)4-8/h6-7H,1-5H2/t6-,7-,8-/m0/s1
