19
gdb 75454	2.02396	1.61566	1.33703	1.7464	83.53	-0.2373	0.0144	0.2518	1103.6413	0.156452	-385.867474	-385.857993	-385.857049	-385.901404	35.516	
C	-0.2137153894	 1.46440707	 0.0309261382	-0.501566
C	-0.0227756999	-0.015057737	-0.0381681517	 0.303764
C	 0.1147715485	-0.7966159377	-1.1038993478	-0.213059
C	 0.2373322132	-2.2340181932	-0.6962925638	-0.132265
O	 0.280599621	-2.2106041411	 0.7286428086	-0.292255
C	 0.0020893775	-0.8893143249	 1.2169848241	 0.110505
C	 1.1078456303	-0.5065809888	 2.2131768877	-0.416412
C	-1.313853236	-0.8629096111	 1.8832300892	 0.360124
C	-2.3864777895	-0.8220643368	 2.4249780304	-0.512249
H	 0.609847774	 1.9517069123	 0.5666760638	 0.131412
H	-0.2733362217	 1.9028591328	-0.9681647407	 0.12689
H	-1.1343953546	 1.7099690531	 0.5728572556	 0.142616
H	 0.1198804314	-0.4709720662	-2.1371795519	 0.101814
H	-0.6150912787	-2.8388641464	-1.0464655639	 0.107544
H	 1.1523049473	-2.7147401687	-1.071637681	 0.108343
H	 2.0721001291	-0.4897286225	 1.6980670629	 0.119095
H	 0.9154261892	 0.474680795	 2.6553509761	 0.122328
H	 1.1472739985	-1.2462814673	 3.0161567669	 0.136472
H	-3.3348610003	-0.8004341415	 2.9027109972	 0.196901
69.0201	131.9258	173.0715	185.454	224.0098	248.1855	256.2483	323.6278	377.9151	482.97	511.8417	577.9589	609.9408	619.1885	659.9716	664.7892	771.4045	817.1137	884.3075	919.7195	947.1181	1017.8482	1046.1496	1067.896	1077.206	1112.0393	1143.3218	1176.0879	1203.1406	1232.8244	1316.1725	1374.947	1397.1165	1414.0876	1475.1901	1484.7895	1485.9799	1493.9277	1520.7038	1737.9061	2225.9394	2970.2379	3007.3012	3027.3881	3046.4467	3078.5087	3118.7709	3126.7593	3133.037	3207.3176	3499.7303
CC1=CCOC1(C)C#C	CC1=CCO[C@]1(C)C#C	
InChI=1S/C8H10O/c1-4-8(3)7(2)5-6-9-8/h1,5H,6H2,2-3H3	InChI=1S/C8H10O/c1-4-8(3)7(2)5-6-9-8/h1,5H,6H2,2-3H3/t8-/m1/s1
