17
gdb 127304	4.04942	1.08142	0.90882	3.4569	76.71	-0.2363	0.0109	0.2472	1280.4724	0.13683	-418.0029	-417.994521	-417.993577	-418.038129	29.576	
C	 0.1105411446	 1.3808887426	 0.0989437382	-0.317762
N	 0.0179251875	-0.0606645423	 0.0077881505	 0.064722
C	-0.3575606699	-0.8066300702	-1.0607617122	-0.016992
C	-0.2882772754	-2.1263449525	-0.6678219549	-0.334492
C	 0.1445795116	-2.0753600382	 0.6754809737	 0.375497
N	 0.3328102598	-0.8146799074	 1.0739018347	-0.341425
C	 0.3713171258	-3.218007588	 1.5865863041	-0.030666
C	 1.0301980333	-3.0690710849	 2.891321338	-0.173772
O	-0.3803183322	-3.2546031978	 2.8140258177	-0.232971
H	 1.1369305173	 1.6810181644	 0.3261846961	 0.150452
H	-0.1898651103	 1.8155107679	-0.8556992114	 0.13873
H	-0.5480605865	 1.7512358985	 0.8887211805	 0.154126
H	-0.639396195	-0.3472893264	-1.9950865324	 0.132597
H	-0.5214105871	-2.9982451791	-1.2573827865	 0.107462
H	 0.4311313726	-4.1841739979	 1.0862793403	 0.087383
H	 1.5949745243	-3.904248289	 3.3052672613	 0.106533
H	 1.3526528197	-2.0763293795	 3.1973607826	 0.130579
22.0667	39.6969	136.1038	163.6627	230.8831	356.29	422.9628	457.9691	629.1139	633.6335	722.5675	749.0188	768.812	824.9467	840.3105	904.2677	983.7869	1022.3228	1037.465	1076.6372	1093.5789	1108.0852	1152.0153	1156.9159	1171.654	1213.6147	1287.0297	1329.0117	1369.0737	1401.6824	1455.0616	1472.3826	1473.5673	1503.909	1525.9496	1538.8465	1561.4038	3051.7887	3082.6619	3115.4273	3119.2383	3148.2013	3180.9323	3253.8798	3272.8507
CN1C=CC(=N1)C1CO1	Cn1ccc(n1)[C@H]1CO1	
InChI=1S/C6H8N2O/c1-8-3-2-5(7-8)6-4-9-6/h2-3,6H,4H2,1H3	InChI=1S/C6H8N2O/c1-8-3-2-5(7-8)6-4-9-6/h2-3,6H,4H2,1H3/t6-/m1/s1
