20
gdb 61656	4.07789	0.77914	0.69174	2.8474	79.19	-0.2557	0.0311	0.2868	1598.518	0.170578	-403.143229	-403.133679	-403.132735	-403.178654	33.877	
C	-0.1284903295	 1.5819059932	-0.0737100118	-0.390371
C	-0.0661951064	 0.0436971985	 0.0051594869	-0.14707
C	 0.757678145	-0.4902354994	 1.202705872	-0.213118
C	 2.2275875036	-0.08693238	 1.1726135844	-0.032037
C	 2.6679046596	 1.2841869773	 1.7440118927	-0.081614
O	 3.6129162111	 0.6617257551	 2.6332328261	-0.269398
C	 3.1364505282	-0.6536517513	 2.288436347	-0.094515
C	-1.4223916715	-0.5149800227	 0.0487972995	 0.2651
N	-2.4911766196	-0.9525277227	 0.0960409676	-0.32041
H	 0.8742976673	 1.9954966563	-0.2056893212	 0.133564
H	-0.7417338927	 1.9023437468	-0.9192842563	 0.140537
H	-0.5614287822	 2.0012587137	 0.8388240393	 0.139022
H	 0.3976342608	-0.3305765411	-0.9174466763	 0.12795
H	 0.2950387492	-0.1530733832	 2.1384886526	 0.119987
H	 0.6905628294	-1.5845906089	 1.2020544314	 0.123739
H	 2.6484774748	-0.269278621	 0.1786307871	 0.084272
H	 3.153255939	 1.9807878931	 1.0501996713	 0.10579
H	 1.8816553444	 1.8202477026	 2.293845703	 0.099558
H	 2.5906731968	-1.1233459475	 3.1191604335	 0.101016
H	 3.948343573	-1.3196168291	 1.975060841	 0.107999
50.427	88.5872	94.9671	135.4541	195.2763	233.0472	280.1635	303.3528	363.4454	420.7616	550.9257	570.6549	747.4565	810.5582	862.7279	886.5668	895.7362	927.8948	989.3049	998.8232	1033.6987	1044.2121	1106.4673	1118.9277	1133.8863	1157.6727	1166.7554	1184.7542	1252.6504	1263.9186	1309.9732	1315.4494	1338.8813	1353.4295	1382.6096	1404.516	1415.6638	1482.2949	1495.9033	1501.5586	1511.1789	1536.7447	2356.5916	2994.732	3005.6029	3021.0674	3031.7675	3042.9281	3051.0159	3054.0346	3064.5802	3077.5619	3127.4189	3130.4248
CC(CC1COC1)C#N	C[C@@H](CC1COC1)C#N	
InChI=1S/C7H11NO/c1-6(3-8)2-7-4-9-5-7/h6-7H,2,4-5H2,1H3	InChI=1S/C7H11NO/c1-6(3-8)2-7-4-9-5-7/h6-7H,2,4-5H2,1H3/t6-/m0/s1
