20
gdb 41264	3.39769	1.82994	1.46143	1.5877	81.74	-0.2021	0.0773	0.2794	945.2305	0.174179	-365.929103	-365.922599	-365.921654	-365.959503	28.057	
C	-0.0414443535	 1.4585368398	 0.2111792784	-0.250548
C	 1.4591128755	 1.6515535237	-0.1897086581	-0.342078
C	 1.4021857831	 0.2561985177	-0.8052328469	 0.360671
C	 2.3372877872	-0.8889333733	-1.1925591275	-0.286628
N	 1.3364218023	-1.3900540018	-2.2064086322	-0.14716
C	 0.1567561025	-2.0614511874	-1.5495930049	-0.173922
C	-0.5451814052	-0.7157097199	-1.2395270637	-0.067034
C	 0.1009662824	-0.0842686152	 0.0010908721	-0.04039
C	 0.5898865272	-0.0691964899	-2.1001911064	-0.044588
H	-0.3199303369	 1.7781289656	 1.2170214308	 0.102075
H	-0.733043265	 1.9196419528	-0.4997650868	 0.10567
H	 1.7182955548	 2.4917841545	-0.8409604431	 0.096632
H	 2.1041520894	 1.6847328998	 0.695178971	 0.102601
H	 3.2460801095	-0.5723158181	-1.717885941	 0.104578
H	 2.6148036992	-1.60977174	-0.41452441	 0.096215
H	-0.3758169948	-2.6617460329	-2.2942891841	 0.105658
H	 0.4067770872	-2.7057988556	-0.697905562	 0.094437
H	-1.6201886473	-0.62552218	-1.4106455721	 0.061597
H	 0.135306588	-0.6654455833	 0.9276137092	 0.0575
H	 0.4932552945	 0.5619362337	-2.9845472128	 0.064713
202.0628	247.3105	322.1988	351.3463	422.8663	506.9094	592.6686	676.9785	743.6912	772.2262	799.7867	842.0191	859.7316	876.9207	908.0349	915.1556	927.9426	955.1751	983.4201	997.0214	1019.3479	1039.1347	1097.3499	1115.375	1152.9627	1167.9643	1181.0242	1189.0447	1200.1259	1208.3017	1216.4334	1230.5173	1233.3764	1258.9852	1278.1108	1294.5226	1300.9339	1335.8929	1339.14	1477.9334	1489.5232	1494.3787	1502.7173	3018.5672	3024.629	3038.9146	3057.1381	3061.5279	3067.8255	3072.1359	3079.8742	3087.7789	3101.0982	3119.8278
C1CC23CN4CC(C12)C34	C1C[C@@]23CN4C[C@@H]([C@H]12)[C@@H]34	
InChI=1S/C8H11N/c1-2-8-4-9-3-5(6(1)8)7(8)9/h5-7H,1-4H2	InChI=1S/C8H11N/c1-2-8-4-9-3-5(6(1)8)7(8)9/h5-7H,1-4H2/t5-,6-,7-,8+/m0/s1
