20
gdb 51611	6.33904	0.71911	0.70496	3.3515	83.71	-0.2551	0.0258	0.2809	1641.1509	0.170313	-403.119737	-403.110764	-403.10982	-403.154745	33.212	
N	 0.9330265869	 0.9147018981	-0.2368659015	-0.443249
C	 0.4570321649	-0.2385857885	-0.0456330803	 0.118131
O	-0.858775552	-0.465423619	-0.2174130039	-0.186773
C	-1.3618195567	-1.7406602953	 0.1446093198	 0.151435
C	-2.1179796765	-1.8499377455	 1.4966188054	-0.332167
C	-3.1921771105	-2.6525725392	 0.7480659652	 0.378232
C	-3.5928723354	-4.0673695022	 1.0526069716	-0.317486
C	-4.6032999565	-2.943719632	 1.1480586969	-0.329735
C	-2.6515981954	-2.1509540249	-0.5996548956	-0.333011
H	 1.9398667745	 0.9014138231	-0.0882061886	 0.227582
H	 1.019900994	-1.1359832239	 0.2495827064	 0.082175
H	-0.5730694012	-2.4962425091	 0.0527550699	 0.085649
H	-1.5987355977	-2.3309629686	 2.3298650065	 0.100244
H	-2.4757465238	-0.8644844152	 1.8108770428	 0.119495
H	-3.6826372833	-4.7650577214	 0.2256711681	 0.112465
H	-3.2387686022	-4.5144355876	 1.9764162776	 0.111903
H	-4.9299413823	-2.6331223619	 2.1355093321	 0.114161
H	-5.3740302903	-2.8835700374	 0.3860647187	 0.11447
H	-3.1800343355	-1.261256809	-0.9555326336	 0.122382
H	-2.5543195511	-2.8663938003	-1.4199113074	 0.104097
32.7746	58.4056	108.9919	212.8461	266.4843	282.7838	328.1545	400.7277	420.284	525.4213	607.4609	770.4443	777.4668	819.607	820.0596	862.8419	895.0214	916.9632	934.4991	986.0747	1027.7579	1033.7975	1045.3616	1054.6957	1078.0917	1079.2505	1119.2762	1156.9217	1187.8888	1220.1816	1220.8339	1238.7333	1255.0357	1286.5233	1298.8019	1380.1763	1396.8808	1428.8552	1464.8502	1468.3844	1493.7316	1507.2564	1744.8021	3009.0829	3037.5148	3049.5456	3056.1924	3107.0177	3111.6583	3119.711	3124.6445	3197.9328	3212.8138	3517.4435
N=COC1CC2(CC2)C1	[NH][CH]OC1CC2(CC2)C1	
InChI=1S/C7H11NO/c8-5-9-6-3-7(4-6)1-2-7/h5-6,8H,1-4H2	InChI=1S/C7H11NO/c8-5-9-6-3-7(4-6)1-2-7/h5-6,8H,1-4H2
