14
gdb 27330	3.3394	1.42077	0.99773	5.4181	68.53	-0.2012	-0.0106	0.1905	1090.2331	0.103506	-470.079093	-470.071549	-470.070605	-470.110855	29.445	
N	 0.0238853465	 1.3764527514	 0.1548106961	-0.58242
C	-0.0614500421	 0.0031633606	 0.0562600378	 0.177587
C	-1.1955652317	-0.7320452257	 0.0308595405	-0.112363
N	-1.0993516483	-2.1228604242	-0.0098397264	-0.34635
C	 0.1133819102	-2.7053626381	-0.0169513491	 0.508866
O	 0.065706925	-4.0483504024	-0.0423405588	-0.410784
N	 1.247081385	-2.0818140637	-0.0068086158	-0.431722
C	 1.256154386	-0.6959715108	 0.0149307056	 0.360132
O	 2.2865009413	-0.0397283265	-0.0082464644	-0.389008
H	 0.9617571869	 1.69077054	-0.0667849218	 0.266437
H	-0.7139131345	 1.9204559103	-0.2646768658	 0.244742
H	-2.198717136	-0.328433804	 0.0463214337	 0.121724
H	-1.923693892	-2.7006786982	-0.0261363664	 0.276547
H	 0.9887966237	-4.3385926386	-0.0502038553	 0.316613
112.5201	202.2355	318.3401	329.6646	376.6501	381.3406	423.7973	483.1436	489.4588	536.2653	550.9957	605.0245	642.2721	738.765	753.2192	802.6928	812.2128	823.3671	1009.6494	1092.5397	1179.5478	1226.8194	1262.3107	1310.72	1385.1822	1423.9954	1591.7252	1613.4449	1644.172	1712.9095	1752.4807	3221.339	3531.6768	3655.1185	3662.4708	3775.9158
NC1=CNC(O)=NC1=O	Nc1c[nH]c(O)nc1=O	
InChI=1S/C4H5N3O2/c5-2-1-6-4(9)7-3(2)8/h1H,5H2,(H2,6,7,8,9)	InChI=1S/C4H5N3O2/c5-2-1-6-4(9)7-3(2)8/h1H,5H2,(H2,6,7,8,9)
