21
gdb 81008	2.51105	1.53109	1.23477	1.7742	77.83	-0.2409	0.0725	0.3134	1117.8266	0.181947	-424.215455	-424.206591	-424.205647	-424.248193	34.991	
C	-0.1197564152	 1.5176120794	-0.0396191777	-0.432028
C	-0.0669764233	-0.0015421681	-0.0090869588	-0.009402
C	 1.1632051151	-0.6326249013	-0.6988998059	 0.058415
O	 1.9535699626	-0.3666837247	 0.4957586358	-0.341364
C	 0.685551461	-0.6351962225	 1.2035608524	 0.409196
C	 0.6225413639	-0.1140482041	 2.6111922001	-0.500113
C	 0.5411876216	-2.1531214471	 0.949003602	-0.29771
C	 0.9174773151	-2.1484875302	-0.5695507046	 0.110924
O	-0.1158919031	-2.5448863521	-1.4534675581	-0.439298
H	 0.8608905649	 1.9468049058	 0.1822667603	 0.131692
H	-0.433870111	 1.8729627967	-1.0267090041	 0.114884
H	-0.8380917722	 1.9040851877	 0.6917491005	 0.111737
H	-1.0326591195	-0.4474605583	-0.2614329653	 0.078912
H	 1.5966850887	-0.2531520916	-1.6243971374	 0.074562
H	 0.7579827625	 0.9703656872	 2.6414319597	 0.128452
H	-0.3458886618	-0.3553474321	 3.0620991866	 0.120856
H	 1.4055965462	-0.5744412253	 3.2226547404	 0.127716
H	 1.2399779187	-2.7258339994	 1.5639997278	 0.099229
H	-0.4744768929	-2.5264773663	 1.110541846	 0.094835
H	 1.8410225586	-2.7073058093	-0.7645784188	 0.072095
H	-0.2416683899	-3.4939872543	-1.363642491	 0.286412
151.7451	190.959	199.9851	231.2512	238.8852	251.4474	299.9029	361.083	388.0388	452.3936	511.0369	584.6983	639.692	701.0102	778.7882	832.5582	855.4152	875.9031	901.8323	960.2229	976.4843	1001.1375	1041.6463	1057.9715	1079.105	1091.0636	1143.461	1169.0639	1187.0976	1200.0349	1219.1304	1239.7866	1276.4369	1290.5885	1331.5476	1338.0214	1396.1243	1406.5616	1413.8544	1421.0394	1474.3112	1480.8914	1490.6444	1500.6612	1506.6822	3024.754	3032.9339	3037.8838	3055.7	3076.8811	3091.9476	3104.431	3110.6469	3117.6957	3121.0018	3122.03	3829.2057
CC1C2OC1(C)CC2O	C[C@H]1[C@H]2O[C@]1(C)C[C@H]2O	
InChI=1S/C7H12O2/c1-4-6-5(8)3-7(4,2)9-6/h4-6,8H,3H2,1-2H3	InChI=1S/C7H12O2/c1-4-6-5(8)3-7(4,2)9-6/h4-6,8H,3H2,1-2H3/t4-,5+,6+,7+/m0/s1
