16
gdb 25632	3.51649	0.97267	0.76923	2.0326	84.55	-0.216	-0.0061	0.21	1455.0023	0.12348	-400.772048	-400.762974	-400.76203	-400.807627	31.213	
C	-0.0985973334	 1.4859557601	-0.0191496539	-0.510921
C	-0.0353616494	 0.0335835485	 0.0090894284	 0.220625
C	 0.0055745866	-1.171753511	 0.033590761	-0.115313
C	 0.0610731978	-2.5837705189	 0.0615674943	 0.050305
C	 1.1666584345	-3.3827162224	-0.024744514	 0.24907
C	 2.6173879265	-3.1216611384	-0.1688324449	-0.505673
O	 0.740579484	-4.6806702422	 0.0463361745	-0.173373
C	-0.6073681808	-4.5951885877	 0.172496854	 0.04945
N	-1.0762533604	-3.3966659899	 0.1888575888	-0.309214
H	 0.4738166739	 1.9280877279	 0.8041921416	 0.149861
H	 0.3034555536	 1.8864459732	-0.9566969407	 0.149866
H	-1.1335973043	 1.8326950971	 0.0727869922	 0.156511
H	 3.1850779446	-3.5298797766	 0.6749267539	 0.144109
H	 3.0178029729	-3.5713712077	-1.084404024	 0.144109
H	 2.7835161817	-2.043345828	-0.2100555712	 0.15219
H	-1.145694468	-5.527197974	 0.24563224	 0.148398
21.6821	84.3583	107.7022	137.3497	232.9191	256.4902	294.5373	356.6299	477.324	482.0411	547.0289	642.8867	692.0923	741.1648	832.6508	952.4243	957.6724	1004.6662	1051.5326	1052.0037	1064.9618	1104.0011	1140.506	1228.6594	1324.4095	1372.3467	1412.0583	1422.5165	1474.1233	1474.756	1476.9226	1483.7887	1568.6886	1642.1768	2362.393	3024.7867	3031.8791	3082.8415	3083.5752	3090.52	3136.4871	3274.0661
CC#CC1=C(C)OC=N1	CC#Cc1c(C)ocn1	
InChI=1S/C7H7NO/c1-3-4-7-6(2)9-5-8-7/h5H,1-2H3	InChI=1S/C7H7NO/c1-3-4-7-6(2)9-5-8-7/h5H,1-2H3
