17
gdb 85616	2.33144	1.7337	1.12197	4.5883	70.25	-0.2715	-0.0139	0.2576	1087.4714	0.136013	-458.999636	-458.991475	-458.99053	-459.032831	30.312	
C	-0.9642427821	 1.4007729176	 0.3564919066	-0.398377
C	 0.1117853154	 0.3950915062	-0.0463838204	 0.056199
O	 0.9166503125	 1.0428902475	-1.0520094546	-0.274932
C	 1.7728154469	 0.2348623897	-1.7502520487	 0.471831
O	 1.527770586	-0.2235805308	-2.8240140599	-0.354023
O	 2.9562139854	 0.0405850737	-1.1458441733	-0.235043
C	 3.1756441804	 0.6204410932	 0.1558560025	-0.118472
C	 2.2646703908	 0.0748930564	 1.228721451	-0.098786
C	 0.943256902	-0.0457619571	 1.1275407984	-0.03718
H	-0.5052273558	 2.2935663791	 0.7896936825	 0.133639
H	-1.5480983887	 1.6919558478	-0.5194951073	 0.140363
H	-1.6362856629	 0.95888926	 1.0975104138	 0.123948
H	-0.3742798684	-0.4782715617	-0.5072036103	 0.112425
H	 4.2129741436	 0.3653344662	 0.3791460787	 0.128707
H	 3.1012713773	 1.7103679789	 0.0814047318	 0.136887
H	 2.7545677119	-0.2545891061	 2.1405042518	 0.108298
H	 0.3803268956	-0.4878544107	 1.9466737573	 0.104517
55.9463	113.2421	217.0421	247.3889	269.4443	305.9672	357.4758	410.9169	554.4419	570.018	671.3609	697.7708	758.8931	808.9322	864.4082	872.2142	916.3961	990.3874	1000.094	1027.8682	1064.3091	1102.087	1118.3924	1149.5525	1187.3532	1242.9613	1287.6944	1342.1338	1369.7824	1402.0476	1415.631	1421.3241	1483.5434	1493.4395	1497.1052	1731.1146	1879.8801	2992.7824	3049.6722	3052.743	3117.6725	3126.1823	3136.5432	3151.8789	3176.5528
CC1OC(=O)OCC=C1	C[C@H]1OC(=O)OCC=C1	
InChI=1S/C6H8O3/c1-5-3-2-4-8-6(7)9-5/h2-3,5H,4H2,1H3	InChI=1S/C6H8O3/c1-5-3-2-4-8-6(7)9-5/h2-3,5H,4H2,1H3/t5-/m1/s1
