21
gdb 91656	2.44126	1.75407	1.37761	1.7068	81.9	-0.2542	0.093	0.3472	1044.4211	0.184196	-387.06314	-387.055392	-387.054448	-387.094873	31.724	
C	-0.078551204	 1.5374915449	 0.044511342	-0.424188
C	 0.0804508877	 0.0174473453	 0.0441492008	 0.046934
C	 1.0425556803	-0.5468445163	-1.0665168115	-0.23262
C	 2.0245116949	-1.3499018819	-0.1863913513	-0.127202
C	 1.0637432119	-2.0369346512	 0.8350395084	-0.239899
C	 0.7913200091	-0.5686939831	 1.2913100247	-0.134683
C	 2.2720504695	-0.3515822687	 0.9491426742	 0.543443
C	 3.4334167555	-0.1444511052	 1.8023603024	-0.31034
O	 2.982102418	 0.8666538139	 0.8735515132	-0.301371
H	 0.8869790383	 2.0368813738	 0.1607779091	 0.145254
H	-0.5303400072	 1.8808265919	-0.8926097561	 0.108509
H	-0.7284091152	 1.8646182105	 0.8639821555	 0.105904
H	-0.9103983001	-0.4415205926	-0.0510267037	 0.065346
H	 0.5254859729	-1.1767071974	-1.7955844968	 0.092905
H	 1.5518438102	 0.25629014	-1.6076322328	 0.107872
H	 2.8365416941	-1.8857537791	-0.6771976332	 0.065279
H	 0.2161941938	-2.5928103091	 0.4268919841	 0.094509
H	 1.5894378918	-2.6319774158	 1.5844305422	 0.099418
H	 0.3764397032	-0.3287113231	 2.2704515277	 0.062647
H	 3.3040820246	 0.1056301454	 2.8547377987	 0.116364
H	 4.3880325409	-0.605269732	 1.5514407623	 0.115921
151.1957	178.0312	240.4522	252.1938	316.9359	364.0608	404.5632	455.8688	548.0841	614.2126	676.5166	800.6735	814.4813	833.9395	865.9707	886.7255	920.4646	931.8103	953.5921	980.5943	1021.8522	1030.2723	1033.5119	1051.2888	1083.5208	1115.3845	1121.5025	1153.4165	1166.518	1177.531	1188.2742	1228.9346	1231.4525	1263.7083	1265.6655	1314.9398	1322.3544	1376.2613	1413.5756	1452.7265	1490.962	1498.2354	1505.4165	1506.9071	1550.6333	3027.2419	3032.1162	3053.1721	3064.5226	3080.0971	3089.5921	3099.2813	3115.5248	3120.7143	3122.3242	3127.7716	3165.031
CC1CC2CC1C21CO1	C[C@H]1C[C@@H]2C[C@H]1[C@]12CO1	
InChI=1S/C8H12O/c1-5-2-6-3-7(5)8(6)4-9-8/h5-7H,2-4H2,1H3	InChI=1S/C8H12O/c1-5-2-6-3-7(5)8(6)4-9-8/h5-7H,2-4H2,1H3/t5-,6+,7+,8+/m0/s1
