19
gdb 95222	2.32183	1.7827	1.36383	3.1007	69.61	-0.2567	0.0701	0.3268	1007.1284	0.161352	-460.158646	-460.150884	-460.14994	-460.190536	31.259	
O	-0.3064247469	 0.7637446632	 1.5894687021	-0.457641
C	 0.0271083467	 0.1968578719	 0.3240085512	 0.075155
C	 1.2092766921	-0.7782339503	 0.3733355764	-0.232407
C	 0.9416259373	-2.0372478108	 1.2229232928	-0.24811
C	-0.488413312	-2.537257814	 1.1377990357	 0.045922
O	-1.4623102955	-1.7571776298	 1.859312471	-0.272189
C	-1.532775018	-1.7863961202	 0.4171651469	 0.021312
C	-1.2196882688	-0.4764336021	-0.2830026202	 0.09699
O	-2.3293470488	 0.3987520719	-0.2335197821	-0.443805
H	-0.6505842284	 0.0343194121	 2.1287308381	 0.292931
H	 0.291779111	 1.0499808019	-0.309399425	 0.093408
H	 1.428275614	-1.0789727714	-0.6593181044	 0.10326
H	 2.0957158574	-0.2561016234	 0.7454221096	 0.112069
H	 1.6190341599	-2.8401526457	 0.9139669775	 0.110207
H	 1.1621656288	-1.8443237227	 2.2795503425	 0.125279
H	-0.6298669646	-3.6096498042	 1.2694248337	 0.099354
H	-2.405134917	-2.3169703569	 0.0372286863	 0.104896
H	-1.032033439	-0.6978301998	-1.3422386204	 0.085926
H	-2.2153617681	 0.9011582703	 0.5862180783	 0.287443
121.228	188.9077	242.5492	276.6528	339.8551	370.3309	446.7856	461.6634	470.3303	552.0555	664.3825	694.109	757.7893	770.0217	810.4033	858.5484	876.2389	910.904	939.3944	1014.6784	1042.2539	1059.9851	1091.9	1103.4619	1139.4439	1162.8776	1220.5869	1234.8534	1253.1502	1286.5527	1317.2274	1327.1596	1354.9265	1374.5121	1383.3915	1392.0476	1438.5228	1456.9535	1468.1598	1479.7248	1489.8246	3023.0087	3029.5054	3038.2381	3061.1327	3075.7015	3088.4876	3112.7599	3126.9546	3689.6203	3735.6677
OC1CCC2OC2C1O	O[C@H]1CC[C@H]2O[C@H]2[C@H]1O	
InChI=1S/C6H10O3/c7-3-1-2-4-6(9-4)5(3)8/h3-8H,1-2H2	InChI=1S/C6H10O3/c7-3-1-2-4-6(9-4)5(3)8/h3-8H,1-2H2/t3-,4+,5-,6+/m0/s1
