15
gdb 123625	4.15542	1.55334	1.23298	2.6678	70.38	-0.2386	-0.0174	0.2212	957.7036	0.115762	-416.767118	-416.760995	-416.760051	-416.797547	24.801	
C	 0.0560020227	 1.477957846	-0.0167071586	-0.240445
C	 1.3188838057	 0.6830413662	 0.0289433948	-0.199268
N	-0.0240802896	 0.0164524061	-0.0155505143	-0.102157
C	-0.2165047863	-0.5974474046	-1.3600964075	-0.287939
C	 1.0441413555	-0.2676955018	-2.1166716217	 0.346031
N	 1.5132500396	-0.5081449762	-3.3080230776	-0.240569
O	 2.7991131877	 0.0550345385	-3.2868475552	-0.173681
C	 3.0329222605	 0.6108553256	-2.0748953364	-0.100662
C	 1.9488023943	 0.4437415847	-1.2841139945	 0.204816
H	-0.3184662009	 1.9523720648	 0.886367372	 0.125651
H	-0.1575632408	 2.0154537263	-0.9390232734	 0.12062
H	 1.8811103339	 0.5846633339	 0.9514031509	 0.11116
H	-0.3409564991	-1.678213058	-1.2383136476	 0.142011
H	-1.1236965984	-0.2083887715	-1.8320787231	 0.138653
H	 4.0025823553	 1.0680491	-1.9574522979	 0.155777
158.956	234.2657	365.2326	441.932	448.3162	592.3352	607.1088	689.6161	703.2388	744.2774	795.3766	829.3997	841.7907	884.8621	955.4088	968.5951	1009.2078	1027.0331	1072.7787	1108.9756	1119.4479	1150.3113	1170.8604	1213.0072	1257.5266	1269.1425	1307.9572	1343.2107	1415.2716	1484.8981	1500.8597	1558.2064	1680.85	3052.3754	3092.6345	3096.0229	3166.4969	3186.6606	3269.3908
C1C2N1CC1=NOC=C21	C1[C@H]2N1Cc1nocc21	
InChI=1S/C6H6N2O/c1-5-4(3-9-7-5)6-2-8(1)6/h3,6H,1-2H2	InChI=1S/C6H6N2O/c1-5-4(3-9-7-5)6-2-8(1)6/h3,6H,1-2H2/t6-,8?/m1/s1
