20
gdb 95020	3.20378	1.52848	1.36153	1.594	76.87	-0.2312	0.0772	0.3084	1026.9606	0.172989	-403.104487	-403.096976	-403.096031	-403.136208	30.278	
C	 0.3589886711	 1.4492701353	-0.238619749	-0.402878
C	-0.173991532	 0.0654454175	 0.1325065674	 0.102855
O	 0.0151023981	-0.8665268161	-0.9499908847	-0.269174
C	 1.2484939638	-1.5671115625	-0.7718441086	-0.116544
C	 1.4971427207	-1.6304511487	 0.7317480243	 0.012637
C	 0.5492261787	-0.5614619543	 1.3322739649	-0.043595
C	-0.1122981714	-1.7182270445	 2.0947014263	-0.055678
C	-0.5702268975	-2.8093757494	 1.2125170303	-0.254348
N	 0.8690305288	-2.7448225455	 1.5491083889	-0.151795
H	 1.4473232769	 1.4355982822	-0.3621889386	 0.115817
H	-0.0867458316	 1.7857422553	-1.1784083191	 0.12624
H	 0.11698012	 2.1785801145	 0.5417833617	 0.114289
H	-1.25705957	 0.11636443	 0.2920267947	 0.085209
H	 1.1433369656	-2.5521700796	-1.2376860212	 0.118706
H	 2.0750972702	-1.037943927	-1.2702656072	 0.096815
H	 2.5526393333	-1.5609879425	 0.9955912545	 0.086653
H	 1.0179785575	 0.1753284357	 1.9849655779	 0.079566
H	-0.3573254759	-1.6878647783	 3.1519514673	 0.092406
H	-1.0530574383	-3.6523085107	 1.6982462844	 0.117562
H	-0.909024888	-2.6054908615	 0.2031621758	 0.145257
112.5191	186.5616	232.448	259.2667	321.3786	364.7971	451.2495	533.2081	649.3026	721.3501	732.8919	756.0356	820.7666	823.5862	856.3671	898.6493	921.1302	981.128	996.5255	1018.8565	1032.2934	1065.8728	1075.8924	1092.0248	1119.9737	1130.7407	1140.4215	1161.8166	1194.0646	1221.0878	1233.0327	1267.7362	1296.6118	1327.0668	1336.795	1363.9984	1378.4803	1389.933	1401.5772	1488.012	1494.5927	1499.613	1509.2549	2984.36	3033.1115	3043.5382	3076.9397	3101.1636	3103.5195	3112.925	3119.6058	3126.2636	3155.3769	3217.8522
CC1OCC2C1C1CN21	C[C@H]1OC[C@H]2[C@@H]1[C@H]1CN21	
InChI=1S/C7H11NO/c1-4-7-5-2-8(5)6(7)3-9-4/h4-7H,2-3H2,1H3	InChI=1S/C7H11NO/c1-4-7-5-2-8(5)6(7)3-9-4/h4-7H,2-3H2,1H3/t4-,5-,6+,7+,8?/m1/s1
