19
gdb 72713	2.6458	2.07352	1.63809	1.3806	80.43	-0.2059	0.0117	0.2177	900.7575	0.159637	-385.778266	-385.771162	-385.770218	-385.808904	30.911	
O	 0.1101617775	 1.350950754	 0.1316993717	-0.480423
C	 0.0877411211	-0.0567708434	-0.0047246924	 0.477258
C	 0.1923586643	-0.4383910053	-1.5246902775	-0.347117
C	-1.4059534022	-0.4175406835	-1.522678122	-0.344767
C	-1.2912598606	-0.7551854794	-0.0082267707	 0.211382
C	-1.4241491577	-0.2605032363	 1.4918885956	-0.30625
C	 0.1442244459	-0.6478277862	 1.4691723032	-0.168668
C	 0.0553230467	-2.1394141887	 1.1959577814	-0.083042
C	-0.8730859383	-2.2095043751	 0.2381808935	-0.12931
H	 0.0119723019	 1.7557046492	-0.7348666715	 0.281278
H	 0.7236783323	 0.2684869537	-2.1717583959	 0.08798
H	 0.5684345408	-1.4438948691	-1.7104765709	 0.128239
H	-1.7988662353	 0.5807973228	-1.7301673863	 0.104703
H	-1.9159575097	-1.1381793015	-2.1678605346	 0.101895
H	-1.6059362483	 0.8068534568	 1.6072027212	 0.119204
H	-2.0501722766	-0.8577175028	 2.1589582426	 0.091669
H	 0.8354935988	-0.2705402672	 2.2239230439	 0.066612
H	 0.6227588602	-2.9195279896	 1.6827082782	 0.099305
H	-1.2607693707	-3.0654670084	-0.2991738593	 0.090055
235.7444	262.7451	302.3755	307.5773	417.6058	462.324	471.6938	527.1469	563.5845	627.6508	679.2817	709.4346	744.1706	803.134	827.1842	862.345	874.1468	905.0825	910.414	931.6245	962.6447	1005.2467	1011.2566	1027.1426	1054.6573	1098.1039	1121.9961	1152.0527	1176.9864	1190.4579	1194.4439	1215.3774	1227.5763	1239.9665	1257.4209	1317.4473	1356.328	1473.4933	1478.2863	1488.5918	1623.3585	3041.7779	3058.2051	3073.1722	3110.1878	3110.8768	3143.9747	3162.7243	3204.5054	3240.5341	3828.5681
OC12CCC11CC2C=C1	O[C@]12CC[C@@]31C[C@H]2C=C3	
InChI=1S/C8H10O/c9-8-4-3-7(8)2-1-6(8)5-7/h1-2,6,9H,3-5H2	InChI=1S/C8H10O/c9-8-4-3-7(8)2-1-6(8)5-7/h1-2,6,9H,3-5H2/t6-,7-,8+/m1/s1
