14
gdb 124363	5.16772	0.99341	0.83766	3.7378	66.09	-0.2462	-0.042	0.2042	1285.6717	0.100184	-470.016013	-470.007831	-470.006887	-470.050273	28.534	
C	-0.0024076924	 1.538504417	-0.112470621	-0.499955
C	 0.0000367754	 0.0388149453	 0.1071740855	 0.402899
O	 0.064150774	-0.4835362764	 1.2025449617	-0.349351
N	-0.0491295907	-0.7128098995	-1.0465855852	-0.43425
C	-0.0085168176	-2.0973800948	-1.0575091915	 0.356869
C	 0.0679330519	-3.0274288393	-0.0665930849	-0.030086
O	 0.0736299068	-4.2320820413	-0.6548781043	-0.154596
N	-0.0015392988	-4.0239605768	-2.0393469216	 0.001334
N	-0.048546544	-2.7764577266	-2.2495097812	-0.214979
H	 1.0241383513	 1.8857481543	-0.27254202	 0.159175
H	-0.6010255439	 1.8356633691	-0.9780327607	 0.132291
H	-0.3892764241	 2.0212749675	 0.7848891259	 0.162427
H	-0.1026903841	-0.2671832331	-1.9492486401	 0.271335
H	 0.1188603463	-2.9702773053	 1.0037275173	 0.196887
36.8426	83.0166	100.7611	158.9819	350.5507	360.7473	365.9356	494.2843	583.3822	622.516	644.7973	723.1701	739.478	797.371	819.7831	965.1086	987.7134	1014.5937	1051.69	1063.7291	1121.2279	1235.7531	1269.1182	1329.2118	1395.9761	1421.1038	1468.2754	1485.2479	1548.2921	1654.2076	1786.0943	3046.9026	3112.6717	3159.6119	3338.6794	3638.6601
CC(=O)NC1=CON=N1	CC(=O)Nc1conn1	
InChI=1S/C4H5N3O2/c1-3(8)5-4-2-9-7-6-4/h2H,1H3,(H,5,8)	InChI=1S/C4H5N3O2/c1-3(8)5-4-2-9-7-6-4/h2H,1H3,(H,5,8)
