21
gdb 96602	2.25279	1.44021	0.99646	0.8853	74.49	-0.2403	0.0709	0.3112	1224.1479	0.183593	-461.335422	-461.326621	-461.325676	-461.368789	33.94	
O	-0.2524187793	 1.5378146309	-0.2871448595	-0.436813
C	 0.0202809396	 0.1572763024	-0.0452349758	 0.100379
C	-1.3655417224	-0.4795772598	 0.1554628798	-0.210486
C	-1.541376042	-1.9648937886	-0.1674194839	-0.081135
O	-0.910666827	-2.8941027236	 0.6914213932	-0.25627
C	 0.5052955974	-2.901467247	 0.7660801759	-0.064646
C	 1.2871542878	-2.7358025283	-0.548989161	-0.103018
O	 1.7812578778	-1.4306381008	-0.7932370564	-0.245895
C	 0.8697580267	-0.4280120501	-1.1983842275	-0.106011
H	 0.5787731097	 2.0207334911	-0.2326769598	 0.281438
H	 0.6251816311	 0.0477462114	 0.8664389424	 0.079318
H	-1.7105223579	-0.2799407078	 1.1752576981	 0.111541
H	-2.042774696	 0.0632020836	-0.5165445208	 0.116587
H	-2.6064677755	-2.2041703468	-0.0864370817	 0.110684
H	-1.2635181039	-2.1523579311	-1.2149765736	 0.086354
H	 0.873191591	-2.138805684	 1.4697234675	 0.0995
H	 0.7463219912	-3.879921401	 1.1954264352	 0.10788
H	 2.1868390696	-3.3560547237	-0.484712154	 0.112804
H	 0.6965142788	-3.1096336118	-1.3991233264	 0.104
H	 0.2380251582	-0.7702271433	-2.0322480568	 0.096495
H	 1.4962666452	 0.3828076482	-1.5864463249	 0.097294
80.0489	129.9183	208.462	252.8616	281.6668	327.3966	334.7728	364.599	387.724	443.5639	490.4732	524.7914	551.2121	783.2409	819.1658	853.8575	896.7124	974.7125	981.024	1013.8091	1024.7347	1067.4101	1079.5253	1104.1482	1138.5277	1154.0594	1172.4355	1218.33	1249.0731	1274.6738	1307.7366	1322.2321	1340.2773	1348.4238	1371.5455	1390.7169	1404.1319	1416.6235	1426.0311	1437.746	1473.0975	1480.6351	1487.5926	1499.5568	1521.7355	2982.9017	2985.0192	2994.935	3000.1221	3008.0511	3032.3474	3060.9893	3061.826	3073.1312	3080.3503	3085.2883	3811.831
OC1CCOCCOC1	O[C@H]1CCOCCOC1	
InChI=1S/C6H12O3/c7-6-1-2-8-3-4-9-5-6/h6-7H,1-5H2	InChI=1S/C6H12O3/c7-6-1-2-8-3-4-9-5-6/h6-7H,1-5H2/t6-/m0/s1
