18
gdb 49739	2.58093	1.57418	1.39209	4.4544	72.35	-0.2472	0.0095	0.2567	1009.3553	0.149449	-439.080731	-439.073005	-439.072061	-439.113141	29.194	
O	 0.3107989418	 0.1331047368	 0.6007081705	-0.305094
C	 0.2541958298	 1.3070788711	 0.3229185682	 0.15599
N	 1.2187137122	 1.989436575	-0.3857162461	-0.061427
C	 1.8638013101	 3.2610660453	-0.1211925628	-0.04999
C	 1.7096535148	 3.9602219828	 1.2279181769	-0.238022
C	 2.6260166913	 3.3360995995	 2.2862986152	-0.069939
O	 2.5705168904	 1.9212317615	 2.2480243573	-0.239476
C	 3.2037943308	 1.394434023	 1.0991762362	-0.110071
C	 2.6432149357	 1.9625049458	-0.1931590854	-0.048929
H	-0.6312702984	 1.9383875668	 0.5325090857	 0.079781
H	 1.8951234524	 3.9168509257	-0.9888000577	 0.104761
H	 1.955644678	 5.0208198135	 1.1111500256	 0.110123
H	 0.6668108049	 3.9157629836	 1.5584165831	 0.120329
H	 3.663771344	 3.6749787562	 2.1310370275	 0.091275
H	 2.3219546681	 3.6325688794	 3.2937067801	 0.115241
H	 4.2870091094	 1.6010571294	 1.1269649093	 0.09612
H	 3.0494563725	 0.3133472129	 1.1336269508	 0.145364
H	 3.2347905324	 1.748634772	-1.0818178243	 0.103965
95.3333	138.8426	157.2406	247.2605	317.9244	392.4055	417.536	457.3493	552.1266	625.597	726.0922	779.4621	828.5312	865.0899	882.7741	972.2028	1004.9765	1029.1368	1038.7316	1060.2731	1067.2587	1104.2259	1149.7104	1156.5258	1179.8051	1251.843	1275.2191	1322.7877	1344.215	1364.7019	1368.3939	1396.7258	1420.6986	1425.6461	1463.1138	1479.9734	1482.9535	1501.6962	1794.037	2940.5734	2967.246	2972.3112	3047.2719	3083.8569	3094.3537	3106.7669	3120.3711	3129.3425
O=CN1C2CCOCC12	O=CN1[C@H]2CCOC[C@@H]12	
InChI=1S/C6H9NO2/c8-4-7-5-1-2-9-3-6(5)7/h4-6H,1-3H2	InChI=1S/C6H9NO2/c8-4-7-5-1-2-9-3-6(5)7/h4-6H,1-3H2/t5-,6+,7?/m0/s1
