14
gdb 128252	1.9349	0.96739	0.66565	2.4297	67.81	-0.2579	-0.0157	0.2422	1591.6503	0.095112	-466.264222	-466.252249	-466.251305	-466.307108	35.444	
C	-0.0275153778	 1.4772142474	 0.2119954073	-0.332003
N	-0.0321040198	 0.0336394181	 0.1119432143	-0.322798
C	 0.6698868954	-0.6361908324	-0.8349694824	 0.449046
N	 0.4711579193	-2.043244035	-0.6794295601	-0.391243
C	 1.1125621978	-2.8814834235	-1.3062244148	 0.513363
N	 1.7723845316	-3.7921256343	-1.7618043948	-0.522591
N	 1.5139102023	-1.6406418513	-4.5391840553	-0.009714
N	 1.7324885182	-0.6614102224	-4.9860146689	 0.006634
O	 1.3529324859	-0.1274410596	-1.6988638046	-0.376891
H	 0.3975168831	 1.8105563808	 1.1654135502	 0.130738
H	 0.5865427002	 1.8610632107	-0.6032287199	 0.173077
H	-1.0404237382	 1.8840336939	 0.1186555049	 0.129964
H	-0.5568861055	-0.5200588784	 0.7681833107	 0.259809
H	 1.5859814376	-4.1751371341	-2.6787043567	 0.29261
14.4871	30.3926	37.8867	46.1786	62.0094	78.1656	82.2252	119.3326	163.9313	288.9623	431.1569	459.8818	514.8395	533.9363	570.665	734.5531	775.1501	864.462	892.3444	1063.669	1156.7978	1177.9846	1232.0321	1401.9575	1444.6193	1493.3128	1498.1441	1561.7325	1793.8081	2245.566	2434.9257	3028.74	3080.698	3155.452	3621.5888	3657.789
CNC1=NC(=N)N=NO1	CNC(=O)[N][C][NH].N#N	
InChI=1S/C3H5N5O/c1-5-3-6-2(4)7-8-9-3/h1H3,(H2,4,5,6)	InChI=1S/C3H5N3O.N2/c1-5-3(7)6-2-4;1-2/h4H,1H3,(H,5,7);
