21
gdb 110550	3.27636	1.30677	1.25889	1.2761	80.49	-0.2567	0.0797	0.3364	1106.7962	0.186047	-387.096832	-387.089349	-387.088405	-387.128707	30.684	
O	 0.3457666524	 0.4575081895	-1.0397312628	-0.426116
C	-0.1004326514	 0.4453340675	 0.3124650518	-0.112875
C	-1.4650126088	-0.2274837212	 0.3293871718	 0.051237
C	-1.4545922185	-1.7224392577	 0.016003541	-0.048919
C	-1.3713420309	-2.4621341344	 1.3409390428	-0.053417
C	-1.3355134724	-1.4123528328	 2.4469271742	-0.225759
C	-2.1720161994	-0.3382418479	 1.707635294	-0.078285
C	-3.4340943386	-1.1514774355	 1.3261266404	-0.224121
C	-2.7082352305	-2.3056499409	 0.6378338612	-0.067485
H	 1.2327756463	 0.8279038336	-1.059178301	 0.284864
H	 0.6108210799	-0.0982551904	 0.9511084349	 0.085609
H	-0.1866131722	 1.4710871115	 0.7080964229	 0.078934
H	-2.1010109366	 0.3168560768	-0.3802035021	 0.073519
H	-1.0197770448	-2.1147127252	-0.8926069432	 0.087583
H	-0.882181827	-3.4233853667	 1.4270146669	 0.076104
H	-1.8257558602	-1.749277374	 3.366980627	 0.091233
H	-0.325185902	-1.0811506678	 2.7041414239	 0.09152
H	-2.3435142719	 0.597305716	 2.2404964937	 0.057147
H	-4.0099202177	-1.468083076	 2.2026007945	 0.089254
H	-4.1003223968	-0.6014769732	 0.6531682203	 0.09252
H	-3.2276019288	-3.1483469314	 0.2007204878	 0.077451
95.2903	181.4454	206.5374	273.2722	371.8115	437.7049	466.9724	527.3336	650.291	684.6051	796.304	816.0566	816.2872	871.7072	904.2806	914.9872	924.4271	943.4359	948.9701	993.068	995.8645	1032.386	1046.8907	1068.5497	1076.5513	1078.7903	1097.1386	1116.9765	1149.5698	1157.6942	1188.5578	1239.1233	1252.1705	1262.7312	1278.9866	1282.7589	1292.1194	1317.5829	1335.2558	1385.8942	1390.4167	1458.7274	1492.5754	1512.3121	1519.1663	2960.8166	3004.6855	3032.28	3039.1035	3045.721	3081.94	3088.2612	3114.5802	3194.1399	3200.8808	3218.1987	3830.9438
OCC1C2C3CC1CC23	OC[C@H]1[C@H]2[C@H]3C[C@@H]1C[C@@H]23	
InChI=1S/C8H12O/c9-3-7-4-1-5-6(2-4)8(5)7/h4-9H,1-3H2	InChI=1S/C8H12O/c9-3-7-4-1-5-6(2-4)8(5)7/h4-9H,1-3H2/t4-,5+,6-,7-,8+/m1/s1
