17
gdb 50213	3.54005	1.48377	1.37474	3.7456	71.18	-0.2397	-0.0248	0.2149	969.6096	0.136722	-421.794878	-421.787902	-421.786957	-421.82655	27.354	
O	-0.2126871498	 0.0080727325	-0.2720718904	-0.23678
C	-0.0483021059	 1.1667769759	-0.0004539211	 0.147117
C	 1.2674501729	 1.9136805167	-0.0530457886	 0.035297
O	 2.3775291717	 1.0395375764	-0.1784296871	-0.25761
C	 3.3179195723	 1.6810822805	-1.0189624685	 0.114459
C	 2.9522899021	 1.9604034142	-2.4614507179	-0.095331
C	 1.4300836177	 1.9858907337	-2.5906075358	-0.24257
C	 1.3756036057	 2.8458503202	-1.2823829791	-0.101884
C	 2.9099986824	 3.0624167741	-1.3895044812	-0.125851
H	-0.8972248222	 1.8215848864	 0.3104378068	 0.072442
H	 1.3413603351	 2.5105580672	 0.8749224973	 0.082898
H	 4.3438405193	 1.4324435569	-0.7779946022	 0.107999
H	 3.6652213893	 1.8240662628	-3.2666409194	 0.088491
H	 1.1086303468	 2.5689292573	-3.45634093	 0.106619
H	 0.9061606438	 1.0259896481	-2.5775614446	 0.126314
H	 0.7113377251	 3.7082159544	-1.2683436349	 0.084653
H	 3.4723540438	 3.9763414128	-1.2535313331	 0.093738
82.9551	140.0948	237.3417	305.8486	398.5386	475.4934	607.6928	719.979	728.5306	753.6659	790.1976	804.2309	822.8942	881.983	913.5982	949.9177	984.2587	997.5908	1014.3607	1023.4782	1029.6041	1065.7675	1084.0153	1106.7047	1137.7528	1159.7537	1203.6519	1229.1337	1267.3635	1277.8671	1296.7174	1326.3894	1365.9596	1398.4022	1427.4644	1493.2211	1841.6031	2847.0377	2937.566	3060.6139	3115.4543	3131.535	3175.2998	3195.4803	3207.1494
O=CC1OC2C3CC1C23	O=C[C@H]1O[C@H]2[C@H]3C[C@@H]1[C@@H]23	
InChI=1S/C7H8O2/c8-2-5-3-1-4-6(3)7(4)9-5/h2-7H,1H2	InChI=1S/C7H8O2/c8-2-5-3-1-4-6(3)7(4)9-5/h2-7H,1H2/t3-,4-,5+,6+,7-/m0/s1
