17
gdb 133844	3.05945	2.09152	1.91351	3.7203	75.49	-0.1857	0.0267	0.2125	806.2521	0.135702	-384.556879	-384.549986	-384.549041	-384.58755	28.632	
O	 1.683995706	-0.3904254852	 0.0126243702	-0.459378
C	 2.9225740947	 0.147098223	 0.1835690606	 0.477088
C	 3.9286806134	-0.2207220233	 1.2055735288	-0.175099
C	 4.2850002304	-0.794965731	-0.1673472354	-0.142207
C	 4.230548292	 0.685870173	-1.336270104	-0.174412
C	 5.3094903477	 0.3159639642	-0.3871335703	-0.052727
C	 4.9709665758	 0.9221342668	 1.0353948563	-0.089412
C	 4.1305470854	 2.1598920498	 0.6887664419	-0.234444
C	 3.2836493898	 1.479395208	-0.4064349578	-0.097897
H	 1.6750528444	-1.3016721292	 0.3283100671	 0.294861
H	 3.6922372422	-0.7939891085	 2.0935022848	 0.098674
H	 4.1970733087	-1.7918594701	-0.5718413604	 0.112294
H	 6.3116660754	 0.0758090732	-0.7237964351	 0.089661
H	 5.7554786457	 1.0050602933	 1.7843791863	 0.070565
H	 4.7363451911	 2.9838724556	 0.2978562989	 0.103925
H	 3.5313118657	 2.5216077417	 1.5326080254	 0.095792
H	 2.4772478016	 2.0285824886	-0.8829823176	 0.082716
151.7933	209.5406	311.9298	322.0256	402.1685	415.8898	548.1496	618.4118	657.3562	719.3356	786.4691	815.0779	827.7806	864.0417	891.8259	903.6534	927.5352	939.6798	949.0878	970.6529	990.3794	1015.2437	1063.6904	1089.5631	1096.6397	1133.6342	1150.6973	1169.0221	1188.7124	1199.8217	1247.7831	1257.8891	1278.467	1306.3031	1396.6512	1443.6755	1483.4144	3037.924	3093.1347	3141.3183	3161.4827	3175.7704	3190.3484	3229.9371	3792.5792
OC12C3C1C1=CC3CC21	O[C@@]12[C@H]3[C@@H]1[C@H]1[C][C@@H]2C[C@@H]31	
InChI=1S/C8H8O/c9-8-5-2-3-1-4(5)7(8)6(3)8/h1,3,5-7,9H,2H2	InChI=1S/C8H8O/c9-8-3-1-4-5(2-3)7(8)6(4)8/h3-7,9H,1H2/t3-,4+,5-,6+,7-,8-/m0/s1
