18
gdb 30168	3.84875	1.34074	1.11547	1.6512	78.45	-0.1748	0.0377	0.2125	1111.1697	0.150324	-401.970978	-401.963496	-401.962552	-402.002963	29.579	
C	 0.1679728914	 1.4779037052	 0.0976779012	-0.396585
C	-0.0319349378	-0.0329217199	-0.0196393121	 0.047331
C	 0.6820055359	-0.623659893	-1.2994328062	-0.37228
C	 1.9018260078	-1.259585221	-0.6975114889	 0.217177
C	 1.7533546777	-1.2639131519	 0.6460507581	 0.379936
N	 0.5672313467	-0.7536467768	 1.1596008836	-0.41566
O	 2.7518935551	-1.8797204772	 1.2938907034	-0.20896
C	 3.6124233181	-2.3019188049	 0.2871512051	-0.033265
C	 3.1305061314	-1.9571459362	-0.9401316644	-0.349794
H	 1.2352045561	 1.7252490505	 0.1002884457	 0.129095
H	-0.3001541236	 1.9946131363	-0.7464746334	 0.121512
H	-0.2814532831	 1.8690673579	 1.0173360328	 0.113583
H	-1.1021750821	-0.2559384138	-0.0455370812	 0.086502
H	 0.0332618881	-1.3530811838	-1.8005132428	 0.110596
H	 0.8851452989	 0.1717876632	-2.0261979108	 0.103646
H	 0.6725762735	-0.1542555208	 1.9719551701	 0.232102
H	 4.5018422382	-2.8017000603	 0.629254739	 0.128176
H	 3.6115746776	-2.1715358636	-1.8823433392	 0.106888
71.2022	205.0437	238.5899	270.5484	342.4053	400.7747	459.6896	599.415	617.129	635.8083	666.3141	714.6993	737.1371	810.4889	819.2286	856.9843	920.461	928.3633	934.4247	1028.0024	1045.4153	1087.1778	1099.157	1130.4054	1163.54	1210.4548	1257.6412	1282.3517	1308.7283	1338.0427	1380.0504	1403.7604	1413.2185	1491.0107	1494.0582	1498.4374	1505.0747	1535.6246	1671.7521	3015.4314	3026.5997	3044.889	3061.8535	3096.6375	3106.5825	3247.4297	3295.9398	3516.6228
CC1CC2=C(N1)OC=C2	C[C@H]1Cc2c(N1)occ2	
InChI=1S/C7H9NO/c1-5-4-6-2-3-9-7(6)8-5/h2-3,5,8H,4H2,1H3	InChI=1S/C7H9NO/c1-5-4-6-2-3-9-7(6)8-5/h2-3,5,8H,4H2,1H3/t5-/m0/s1
