22
gdb 87802	2.73736	1.35921	1.14966	1.7991	86.3	-0.2172	0.077	0.2942	1191.2261	0.193823	-367.155251	-367.146258	-367.145313	-367.188547	35.011	
C	 0.3898711298	 1.8801705782	 0.435897121	-0.408739
C	 0.4380473473	 0.370957771	 0.3379101124	-0.061125
C	 1.7686063471	-0.3424753332	 0.2368710662	-0.37161
C	 0.9458830306	-0.4607153379	 1.4859677958	 0.374314
C	 1.3808322057	-0.067980388	 2.900644772	-0.253364
N	 0.9089486287	-1.3901078119	 3.4583447144	-0.153132
C	-0.5412244624	-1.5126252767	 3.1791010003	 0.023467
C	-1.5393897176	-0.3825919258	 3.2802188073	-0.43047
C	 0.3992979716	-1.7463738656	 2.0600654749	-0.145909
H	 1.2188223977	 2.2631958076	 1.0405252105	 0.117015
H	 0.4624722412	 2.343280323	-0.5543249078	 0.118964
H	-0.5427806544	 2.2265216918	 0.8959159657	 0.11775
H	-0.3744374382	-0.0714574417	-0.2347061703	 0.082464
H	 1.8454772195	-1.2106802485	-0.4106589544	 0.111092
H	 2.671654015	 0.2604901141	 0.2811417201	 0.108653
H	 2.4636512865	 0.007192995	 3.0270331085	 0.110752
H	 0.9092128983	 0.8078362107	 3.3588116848	 0.099672
H	-0.9006204328	-2.434049278	 3.6361163406	 0.092585
H	-1.2477965435	 0.4969100291	 2.7042000505	 0.133403
H	-2.5112023219	-0.7170205253	 2.9020016886	 0.120824
H	-1.6763582086	-0.0806106165	 4.3246089205	 0.12405
H	 0.5645762304	-2.7308475715	 1.6294074582	 0.089344
102.6689	136.3224	166.951	189.5742	213.6624	296.4631	313.0247	384.0972	423.4505	481.7407	537.5705	598.3856	701.2191	776.9068	793.026	832.266	880.8717	903.6397	921.1121	936.6226	965.1877	990.1836	1033.3373	1052.0614	1063.8918	1090.3671	1107.4619	1117.7744	1130.5832	1147.2496	1181.1134	1193.0137	1226.9974	1261.8416	1281.6125	1308.8482	1359.9284	1406.6438	1414.1646	1432.8026	1439.8826	1486.5618	1491.1057	1491.3569	1498.7679	1507.0103	1509.4361	3024.543	3036.8955	3043.3097	3084.9443	3092.9268	3094.0455	3096.5542	3110.0008	3113.1165	3129.0732	3135.8013	3140.7221	3197.8311
CC1CC11CN2C(C)C12	C[C@H]1C[C@]21CN1[C@@H](C)[C@@H]21	
InChI=1S/C8H13N/c1-5-3-8(5)4-9-6(2)7(8)9/h5-7H,3-4H2,1-2H3	InChI=1S/C8H13N/c1-5-3-8(5)4-9-6(2)7(8)9/h5-7H,3-4H2,1-2H3/t5-,6-,7-,8+,9?/m0/s1
