17
gdb 34512	4.97662	1.18676	1.07957	0.8437	88.81	-0.2123	-0.0278	0.1846	1126.9179	0.136837	-347.471393	-347.46447	-347.463526	-347.502504	28.66	
C	 0.0536296448	-1.1924374149	-0.0370839397	-0.408326
C	-0.0275983886	 0.0110039956	-0.0136144943	 0.179227
C	-0.0670527738	 1.4163153113	 0.0145100271	 0.194263
C	-1.1065520603	 2.2717497905	 0.0177972139	-0.23348
C	-0.4617776182	 3.6389731871	 0.0544723559	-0.051392
C	 0.8133027629	 3.5746834697	-0.8715757159	-0.033152
C	 1.5684926421	 4.5107987926	 0.099911264	-0.256765
C	 0.7876522409	 3.5362702855	 1.0114994261	-0.033151
C	 1.1485263271	 2.3473810282	 0.050058284	-0.125975
H	 0.1083049866	-2.2522267448	-0.0579921691	 0.185596
H	-2.1635117028	 2.0489589002	-0.0011441088	 0.11238
H	-1.0781479578	 4.5382516899	 0.0644204698	 0.066487
H	 0.8170937022	 3.5842340681	-1.9646234981	 0.073901
H	 2.6589123595	 4.4303536958	 0.1131231828	 0.093629
H	 1.2535481205	 5.5580495172	 0.1169846731	 0.092852
H	 0.7616787845	 3.5012428572	 2.1037254345	 0.073901
H	 2.1510393303	 1.9199230008	 0.0549935445	 0.070005
128.5242	145.2912	368.8446	398.4789	444.4845	487.1276	562.2285	563.5815	599.4586	628.7726	714.6813	751.6856	797.9091	853.9464	867.1846	880.0405	901.4641	914.2572	968.2114	970.4978	1013.3831	1056.9572	1073.4241	1095.803	1125.9513	1155.1749	1170.3297	1193.3159	1204.6464	1230.2163	1244.5668	1260.0031	1295.2711	1316.3128	1518.0299	1637.6892	2216.7326	3047.9598	3080.5002	3084.4494	3107.4918	3118.5733	3125.429	3241.2238	3504.4991
C#CC1=CC2C3CC2C13	C#CC1=C[C@@H]2[C@H]3C[C@@H]2[C@@H]13	
InChI=1S/C9H8/c1-2-5-3-6-7-4-8(6)9(5)7/h1,3,6-9H,4H2	InChI=1S/C9H8/c1-2-5-3-6-7-4-8(6)9(5)7/h1,3,6-9H,4H2/t6-,7-,8+,9+
