15
gdb 57580	3.07196	0.81111	0.74567	2.7921	85.89	-0.2509	-0.0558	0.1951	1528.9295	0.107123	-420.573632	-420.563447	-420.562503	-420.60916	35.748	
C	 0.0668319158	 1.5805013117	 0.1817485437	-0.412839
C	 0.0304826077	 0.0515239877	 0.0859053424	 0.034867
O	 0.5939929544	-0.5802716642	 1.2343015379	-0.443044
C	-1.4300640939	-0.4688000407	 0.0630376368	 0.163064
O	-2.3760045	 0.1909965435	-0.2605963295	-0.233202
C	 0.6629110231	-0.4343513242	-1.142182504	 0.579752
C	 1.1906272935	-0.8591035341	-2.146611537	-0.451996
C	 1.7830002874	-1.3268595238	-3.2775847646	 0.313969
C	 2.311331086	-1.7436680679	-4.2800238905	-0.559492
H	 1.0975114806	 1.9405122797	 0.1291534217	 0.119797
H	-0.5090939912	 2.0236609869	-0.6329317733	 0.150328
H	-0.373864695	 1.8874920823	 1.1332507844	 0.13593
H	 1.5534102538	-0.5289319139	 1.1640473966	 0.293482
H	-1.5029061244	-1.5289198686	 0.3813822909	 0.1088
H	 2.7718446723	-2.1084257445	-5.1647812654	 0.200584
58.4709	85.8904	105.9311	202.1313	208.0929	223.1477	238.9965	266.9542	330.5022	370.81	461.6903	501.1272	542.286	556.8197	578.027	605.4841	615.9559	686.8739	847.267	931.9272	1000.4231	1061.7089	1105.4177	1149.2793	1230.9648	1343.5618	1383.6166	1403.7073	1481.0334	1484.1972	1847.33	2178.4427	2349.476	2933.0359	3053.728	3133.4085	3146.6687	3502.3809	3814.9797
CC(O)(C=O)C#CC#C	C[C@@](O)(C=O)C#CC#C	
InChI=1S/C7H6O2/c1-3-4-5-7(2,9)6-8/h1,6,9H,2H3	InChI=1S/C7H6O2/c1-3-4-5-7(2,9)6-8/h1,6,9H,2H3/t7-/m0/s1
