22
gdb 59958	2.8931	0.82467	0.75604	5.1791	78.43	-0.2484	0.0187	0.2671	1615.3706	0.193222	-441.530683	-441.520132	-441.519188	-441.567006	38.509	
C	 0.9160655336	-0.3295001817	-1.1339464988	-0.384548
C	 0.0441700636	 0.0843723629	 0.0603442651	 0.032349
C	-0.0369849498	 1.6138075577	 0.1623902763	-0.39032
C	-1.3710975978	-0.516010873	-0.0104364328	-0.174993
C	-1.4452261286	-2.0442107024	 0.1129235698	-0.158275
N	-1.0153695475	-2.6013180191	 1.4093539171	-0.537198
H	-0.016291862	-2.7677852497	 1.4315744239	 0.249654
H	-1.2265559171	-1.9538904935	 2.1637511637	 0.243888
H	-2.5123603379	-3.7192247272	 1.1807159034	 0.304792
C	-2.8712985104	-2.5506026358	-0.2077638129	 0.441764
O	-3.555807994	-2.0831879529	-1.0789440427	-0.343563
O	-3.2575723579	-3.5807764678	 0.5540930606	-0.371912
H	 1.9116883251	 0.1202065387	-1.0634328077	 0.114985
H	 1.0541696895	-1.413779709	-1.1978031581	 0.106367
H	 0.4664665535	 0.0027582763	-2.0768703069	 0.123364
H	 0.5270894409	-0.2843708727	 0.9777526132	 0.054974
H	-0.6185360606	 1.9263170927	 1.0360185384	 0.110621
H	 0.9599763313	 2.0585766612	 0.2451088768	 0.11148
H	-0.5186624501	 2.0387071146	-0.7259893086	 0.120273
H	-1.9882696369	-0.0816375605	 0.7892810114	 0.091121
H	-1.8550568923	-0.2341314534	-0.9512500704	 0.13276
H	-0.8125069546	-2.5028995955	-0.6566375707	 0.122417
43.2847	65.6613	95.7771	144.2094	230.2515	248.3698	253.7559	295.0458	331.5128	356.1007	404.1504	416.5994	448.7762	534.0512	620.0095	725.5423	813.0184	851.8036	857.9267	874.8995	910.7917	928.8684	963.0323	969.0586	1018.7872	1088.3487	1110.1568	1157.3454	1192.1507	1208.457	1223.2234	1257.7998	1289.7721	1339.0496	1371.3119	1384.954	1394.9743	1403.1009	1424.6583	1430.6867	1479.2888	1488.4185	1496.5672	1506.8725	1511.248	1654.8697	1865.0486	2988.3222	3007.1623	3026.198	3030.9196	3047.0414	3085.9392	3093.2171	3096.4022	3099.2644	3102.1278	3463.7196	3502.9444	3591.782
CC(C)CC([NH3+])C([O-])=O	CC(C)C[C@@H](N)C(=O)O	
InChI=1S/C6H13NO2/c1-4(2)3-5(7)6(8)9/h4-5H,3,7H2,1-2H3,(H,8,9)	InChI=1S/C6H13NO2/c1-4(2)3-5(7)6(8)9/h4-5H,3,7H2,1-2H3,(H,8,9)/t5-/m1/s1
