17
gdb 36316	4.1907	1.08479	0.94369	1.6598	78.26	-0.2488	-0.005	0.2438	1227.7456	0.135397	-384.639327	-384.631384	-384.63044	-384.672123	30.562	
C	-0.0581568334	-1.2168125507	-0.0461195761	-0.446768
C	-0.0525905722	-0.0163182991	 0.0188921796	 0.295174
C	-0.009757968	 1.4377775405	 0.1013988499	-0.352033
C	 1.4270102456	 2.0104331114	 0.0028931532	-0.069857
C	 2.1105412847	 1.7194869755	-1.3224799893	-0.077642
C	 2.5260395965	 2.8289223816	-1.9379864817	-0.09096
C	 2.1415760408	 4.033032389	-1.1409555603	-0.001739
O	 0.7067930443	 4.1751675422	-0.9819147877	-0.258
C	 1.450895281	 3.5390768854	 0.0603164656	 0.008751
H	-0.0823701468	-2.2766533937	-0.1044550026	 0.195279
H	-0.609933146	 1.8832828423	-0.6994053647	 0.151895
H	-0.4593487345	 1.762298742	 1.0483440714	 0.130458
H	 2.0151574724	 1.6001087029	 0.8343838584	 0.096421
H	 2.187901157	 0.7099968091	-1.7087256506	 0.117915
H	 3.035363161	 2.8792865487	-2.8922192042	 0.104881
H	 2.6902394254	 4.9686182235	-1.1844179684	 0.099674
H	 1.4543976724	 4.0576982495	 1.0156368975	 0.096552
69.1272	114.512	167.2706	245.9867	349.1572	389.8549	465.2091	476.0318	594.3203	618.7649	642.9159	717.3978	754.6125	798.8342	830.7038	858.4387	869.7704	941.7752	947.6504	967.106	987.0819	1024.9616	1056.2445	1078.0598	1109.3691	1134.5973	1200.4461	1252.4516	1269.4281	1298.6494	1321.7081	1345.5482	1375.236	1414.9294	1475.6941	1662.046	2237.2582	3022.8934	3028.4063	3076.3717	3144.1969	3168.0683	3199.0991	3223.1076	3506.9197
C#CCC1C=CC2OC12	C#CC[C@H]1C=C[C@H]2O[C@@H]12	
InChI=1S/C8H8O/c1-2-3-6-4-5-7-8(6)9-7/h1,4-8H,3H2	InChI=1S/C8H8O/c1-2-3-6-4-5-7-8(6)9-7/h1,4-8H,3H2/t6-,7+,8-/m0/s1
