12
gdb 7405	3.60147	1.63582	1.24536	3.808	52.45	-0.2414	-0.0894	0.152	920.541	0.082571	-451.862667	-451.85431	-451.853366	-451.896351	28.932	
N	-0.0145936684	 1.2714461138	-0.2025789981	-0.524103
C	 0.0163674654	-0.0125129307	 0.2340264676	 0.345629
O	 0.9397700672	-0.5579402246	 0.7970094917	-0.323686
C	-1.3180739046	-0.7459689462	 0.0105226369	 0.212292
O	-2.3744631197	-0.1549139299	 0.0234044879	-0.30737
C	-1.249320421	-2.2645036649	-0.230213591	 0.345722
N	-2.3510286849	-2.914637436	 0.2210974982	-0.524119
O	-0.3125514683	-2.7599248552	-0.8168446962	-0.323706
H	 0.7534879332	 1.8783783999	 0.0352073486	 0.27213
H	-0.8990178883	 1.6786985715	-0.4600842386	 0.277536
H	-3.1555477387	-2.3769023004	 0.500313634	 0.277533
H	-2.4709848719	-3.8843174173	-0.0242436308	 0.27214
44.6188	56.7205	178.0026	221.9873	336.6994	343.9231	377.9692	406.7633	470.5132	473.3401	574.4891	604.3331	630.7086	677.7962	741.1354	855.7695	1051.0126	1098.6633	1116.1981	1344.8194	1390.0057	1604.8622	1607.6485	1787.9285	1792.9771	1826.3738	3590.7924	3591.2464	3723.518	3723.6979
NC(=O)C(=O)C(N)=O	NC(=O)C(=O)C(=O)N	
InChI=1S/C3H4N2O3/c4-2(7)1(6)3(5)8/h(H2,4,7)(H2,5,8)	InChI=1S/C3H4N2O3/c4-2(7)1(6)3(5)8/h(H2,4,7)(H2,5,8)
