19
gdb 52162	4.18297	0.83004	0.79884	2.937	76.11	-0.2537	-0.0277	0.226	1472.5782	0.157545	-422.987023	-422.978111	-422.977166	-423.022349	31.813	
O	-0.0943456249	 0.1282004977	 0.1170053038	-0.238047
C	 0.0687051098	 1.2784054871	-0.191655843	 0.137636
C	 1.431872366	 1.8983578915	-0.4415591759	-0.150201
O	 1.2467511575	 3.2684636854	-0.7105391248	-0.255974
C	 2.4305399264	 3.934403607	-1.0412187198	 0.14121
C	 3.0297045546	 3.8837315303	-2.4169013551	-0.111827
C	 1.9294390751	 3.7954606466	-3.48310204	-0.223218
C	 1.2748453703	 5.0926000164	-2.9135250884	-0.217203
C	 2.3793182019	 5.1780758512	-1.8522438862	-0.114717
H	-0.7751402408	 1.9908626243	-0.3251445768	 0.096878
H	 2.0658487564	 1.733511587	 0.4451093329	 0.123425
H	 1.9129057713	 1.3758243963	-1.2838176816	 0.12895
H	 3.1633383032	 3.9442421702	-0.232142772	 0.08795
H	 4.0770583098	 3.6521517899	-2.5739398511	 0.086952
H	 2.3165629471	 3.9381758472	-4.4936953201	 0.106418
H	 1.3174297699	 2.8889306933	-3.4691010405	 0.098376
H	 1.3141850368	 5.9202830365	-3.6240444404	 0.104234
H	 0.2568925108	 5.0012958511	-2.5276863098	 0.109816
H	 2.8483398289	 6.093093521	-1.5094514009	 0.089341
44.0166	53.5252	100.355	117.703	225.4531	239.531	340.6071	435.7974	544.7358	624.3016	727.7533	741.7938	762.9045	791.9222	816.5468	928.9164	960.4983	965.7827	995.1047	1018.1006	1021.8912	1059.384	1083.5956	1112.7971	1114.6812	1135.4979	1156.4017	1221.3303	1229.2384	1235.9875	1250.1971	1268.1241	1303.0561	1338.2956	1355.3292	1403.9271	1443.9184	1474.4722	1484.7653	1502.4199	1844.967	2898.1547	2973.3236	3005.5967	3056.8459	3070.5082	3089.3951	3107.1749	3126.7394	3169.9133	3181.0091
O=CCOC1C2CCC12	O=CCO[C@H]1[C@H]2CC[C@@H]12	
InChI=1S/C7H10O2/c8-3-4-9-7-5-1-2-6(5)7/h3,5-7H,1-2,4H2	InChI=1S/C7H10O2/c8-3-4-9-7-5-1-2-6(5)7/h3,5-7H,1-2,4H2/t5-,6+,7-
