16
gdb 56528	2.68363	1.24561	1.06358	4.1452	71.03	-0.2787	0.0005	0.2792	1155.2846	0.119704	-437.84969	-437.839429	-437.838485	-437.884463	36.916	
C	-0.0676444857	 1.5667532611	 0.1252713644	-0.41766
C	-0.021281185	 0.0417339739	 0.023312819	 0.187917
O	 0.6611138926	-0.4279836299	 1.1710255422	-0.435839
C	-1.397012842	-0.5096193698	-0.0060968196	 0.258351
N	-2.451941325	-0.9805426443	 0.0101249175	-0.333939
C	 0.7107670809	-0.4426445275	-1.2806955993	-0.074133
O	 0.0046661717	-0.046706585	-2.4426575494	-0.412499
C	 2.1052602527	-0.0065724722	-1.2948483029	 0.296721
C	 3.2389375203	 0.387076197	-1.3578779293	-0.43084
H	 0.9538096951	 1.9518428891	 0.1574918118	 0.147099
H	-0.5968172542	 1.9913674874	-0.7303257335	 0.135284
H	-0.5874014085	 1.8586905	 1.0393945049	 0.150236
H	 0.6193697126	-1.3914070242	 1.190110322	 0.296608
H	 0.6758437336	-1.5401022162	-1.2722180283	 0.124865
H	 0.3312981906	 0.8188313366	-2.7107750543	 0.297287
H	 4.2474200805	 0.7187296841	-1.4048613052	 0.210544
65.8714	119.4337	168.7788	183.1876	210.8085	223.5464	256.2613	279.6718	308.62	340.2939	384.1122	430.4494	490.5773	573.5854	583.4549	635.0991	649.4207	680.1734	759.1499	891.6858	957.9624	978.4515	1084.7894	1088.4269	1166.1671	1192.7144	1265.0668	1300.0269	1382.1469	1410.854	1415.096	1487.957	1491.2558	2235.9073	2354.8289	3024.9946	3062.3652	3146.8301	3148.4715	3499.3908	3797.7279	3818.5087
CC(O)(C#N)C(O)C#C	C[C@@](O)(C#N)[C@@H](O)C#C	
InChI=1S/C6H7NO2/c1-3-5(8)6(2,9)4-7/h1,5,8-9H,2H3	InChI=1S/C6H7NO2/c1-3-5(8)6(2,9)4-7/h1,5,8-9H,2H3/t5-,6+/m0/s1
