21
gdb 13628	3.8186	1.20439	1.04138	1.3295	75.54	-0.2247	0.0706	0.2953	1220.0793	0.186845	-366.230036	-366.220364	-366.219419	-366.264393	35.104	
C	 3.8316676681	 0.6817326669	-0.3593321832	-0.383576
C	 3.000860909	-0.6028168278	-0.3261695758	-0.185377
C	 2.3475556955	-0.8615970431	 1.0390479184	 0.116739
O	 1.5249200161	 0.2344707285	 1.4469388889	-0.434757
C	 1.5577016248	-2.1557691204	 1.0311517918	-0.00618
C	 2.1668659797	-3.4464268748	 1.4683911759	-0.256793
N	 1.1025490671	-2.8272789081	 2.2452915743	-0.086867
C	 1.440230154	-2.2698536601	 3.5488945775	-0.309381
H	 4.67824757	 0.6209210777	 0.3336379342	 0.113411
H	 4.2323050316	 0.8687495645	-1.3600467034	 0.10905
H	 3.2228610379	 1.5396495727	-0.0630328694	 0.129367
H	 2.2089875882	-0.5559410462	-1.0880941019	 0.086187
H	 3.6224227684	-1.468391062	-0.5862292045	 0.101138
H	 3.1335539566	-0.9070991176	 1.8005177894	 0.084196
H	 0.7651725635	 0.2639594208	 0.8539741865	 0.277335
H	 0.8171727224	-2.1926398395	 0.2279419255	 0.077721
H	 1.923002954	-4.3790827526	 0.9658825031	 0.112923
H	 3.1808482447	-3.400334324	 1.8678095354	 0.10286
H	 2.4895846993	-1.953265477	 3.6532233722	 0.099399
H	 0.804626159	-1.4025463595	 3.7448346677	 0.134868
H	 1.2437527502	-3.0299073384	 4.3116830072	 0.117738
67.7643	99.7737	127.0057	194.8464	208.3619	242.845	260.5415	280.2972	355.3435	397.2383	411.9532	512.8361	564.4882	754.4474	780.9074	859.9896	888.5202	931.0928	981.5825	1032.2413	1049.3045	1079.3265	1096.642	1111.2753	1127.4532	1128.9812	1161.3827	1185.7955	1203.3698	1251.9323	1277.1105	1324.3989	1341.8939	1380.618	1405.1349	1414.2468	1433.4786	1450.4835	1479.907	1485.1492	1496.0518	1504.2343	1509.0251	1513.3957	2979.4907	3003.1746	3037.3779	3048.9922	3057.7872	3069.1491	3074.381	3078.5811	3101.7201	3118.7756	3124.2907	3166.9538	3792.2915
CCC(O)C1CN1C	CC[C@@H](O)[C@H]1CN1C	
InChI=1S/C6H13NO/c1-3-6(8)5-4-7(5)2/h5-6,8H,3-4H2,1-2H3	InChI=1S/C6H13NO/c1-3-6(8)5-4-7(5)2/h5-6,8H,3-4H2,1-2H3/t5-,6-,7?/m1/s1
