21
gdb 87807	2.83169	1.33627	1.14065	2.4432	82.87	-0.217	0.0713	0.2883	1179.4996	0.182426	-383.199661	-383.190831	-383.189887	-383.232845	34.221	
C	 0.4155277962	 1.8906508679	 0.3737929876	-0.393714
C	 0.4201831122	 0.3812438841	 0.3562800598	-0.082755
N	 1.7485103847	-0.2714570315	 0.3233691367	-0.394528
C	 0.8985550146	-0.4337008683	 1.498629623	 0.357571
C	 1.3805797117	-0.0960313952	 2.9100640733	-0.242578
N	 0.9278628185	-1.4431156423	 3.4277781345	-0.151291
C	-0.5284272035	-1.5604414735	 3.1862417455	 0.022489
C	-1.5283722545	-0.4382224141	 3.345654928	-0.428311
C	 0.3831410025	-1.7504132592	 2.0338527414	-0.157456
H	 1.2168713273	 2.2704631863	 1.0132344004	 0.127889
H	 0.5708385459	 2.2927447819	-0.633069623	 0.122406
H	-0.5398726544	 2.2763964529	 0.7467327231	 0.115265
H	-0.3631060664	-0.0738468524	-0.2502654537	 0.081098
H	 1.7236585408	-1.1108790903	-0.2518473749	 0.228827
H	 2.4684464734	-0.0307650504	 2.9726273947	 0.124023
H	 0.9339023182	 0.7610079719	 3.4233336032	 0.102173
H	-0.8755327751	-2.4982807681	 3.6186832304	 0.095665
H	-1.249866447	 0.4644532236	 2.7991572232	 0.132481
H	-2.5050083189	-0.7624859664	 2.9711575787	 0.122642
H	-1.6488931228	-0.1767935638	 4.402690766	 0.126744
H	 0.5417375068	-2.714843893	 1.5565841222	 0.091362
98.3236	142.174	170.3668	198.6126	216.5021	296.8445	336.0446	402.4946	450.5257	483.6559	545.628	597.7072	704.4317	778.2907	791.0153	824.3879	890.8682	920.6756	948.2393	960.8391	990.9427	1027.6155	1044.9861	1061.8814	1077.0656	1090.7619	1114.8588	1125.2534	1141.8632	1190.0129	1228.2367	1247.0947	1272.9242	1278.6805	1321.7967	1369.1953	1409.2233	1412.0864	1433.1603	1474.4506	1485.0059	1491.479	1499.1223	1503.0495	1508.1935	3032.1446	3038.5103	3054.3353	3094.3071	3096.0005	3098.6832	3109.7147	3117.5697	3122.2056	3132.3566	3137.4418	3485.9582
CC1NC11CN2C(C)C12	C[C@H]1N[C@]21CN1[C@@H](C)[C@@H]21	
InChI=1S/C7H12N2/c1-4-6-7(3-9(4)6)5(2)8-7/h4-6,8H,3H2,1-2H3	InChI=1S/C7H12N2/c1-4-6-7(3-9(4)6)5(2)8-7/h4-6,8H,3H2,1-2H3/t4-,5+,6-,7-,9?/m0/s1
