17
gdb 74093	2.60038	1.56166	1.13069	4.6777	75.82	-0.2347	-0.0481	0.1866	1087.188	0.134989	-421.847088	-421.838782	-421.837837	-421.879595	31.908	
C	-0.0742577583	 1.4510625112	 0.103991545	-0.511132
C	-0.0299254773	-0.0337899202	-0.0233897424	 0.276761
C	 0.0416719024	-0.7789015143	-1.1393154598	-0.320734
C	 0.0115536324	-2.2289444333	-0.8109658986	 0.411891
O	-0.0092987003	-3.1563906254	-1.5866980418	-0.338532
C	-0.0042545754	-2.321946449	 0.7036142413	-0.214176
C	 1.2086410033	-1.7255821035	 1.4180297694	-0.341787
C	-0.0480726001	-0.9120675138	 1.2061609102	 0.306081
O	-0.8571051133	-0.5501184524	 2.2807208744	-0.460747
H	 0.8015000581	 1.8242060723	 0.6511677656	 0.133622
H	-0.1056563625	 1.9430991629	-0.870158475	 0.137822
H	-0.9562333569	 1.7514615802	 0.6815765489	 0.148772
H	 0.1179792829	-0.4159268273	-2.1564430988	 0.112006
H	-0.5387440436	-3.1280738299	 1.1879009429	 0.120084
H	 1.3827334793	-2.0984686757	 2.4229643226	 0.124148
H	 2.099330792	-1.4877481876	 0.8459563514	 0.126069
H	-0.3498844127	 0.0251828357	 2.8630828247	 0.289853
141.7862	150.6947	179.1765	243.877	277.1536	288.4924	345.5842	410.1347	501.7091	536.7714	573.7003	622.006	683.0652	747.9402	804.0276	844.0691	901.4628	931.6407	963.179	979.1413	1010.3872	1057.753	1060.5995	1064.1669	1122.2537	1178.5196	1213.5517	1250.6852	1306.1049	1345.0126	1390.6999	1406.7527	1474.2875	1475.7721	1483.2681	1670.1625	1813.7256	3022.071	3074.8853	3122.2212	3129.6124	3211.8836	3217.3685	3219.9177	3806.2312
CC1=CC(=O)C2CC12O	CC1=CC(=O)[C@H]2C[C@@]12O	
InChI=1S/C7H8O2/c1-4-2-6(8)5-3-7(4,5)9/h2,5,9H,3H2,1H3	InChI=1S/C7H8O2/c1-4-2-6(8)5-3-7(4,5)9/h2,5,9H,3H2,1H3/t5-,7-/m1/s1
