14
gdb 43562	2.06885	1.62794	1.04736	3.3581	72.64	-0.2608	-0.05	0.2107	1108.2114	0.098654	-399.528994	-399.520499	-399.519554	-399.563153	30.484	
O	 0.0838793192	 0.0019169214	-0.4744586432	-0.260612
C	 0.0012827465	 1.1335981457	-0.119396396	 0.412658
C	-1.1598158685	 2.0403705086	 0.3099508387	-0.359896
C	-0.1157894142	 3.1197628104	 0.7601851801	-0.197208
C	-0.0473409314	 3.3280009892	 2.1956258992	 0.299757
N	-0.0112879679	 3.4952259037	 3.3385776394	-0.31499
C	 1.0623499958	 2.2525608978	 0.1358770694	-0.320973
C	 2.2287123353	 1.9384359861	 0.9201073621	 0.333732
C	 3.1827679916	 1.6573928227	 1.593803132	-0.412746
H	-1.7910480473	 2.3573670695	-0.5244022495	 0.152661
H	-1.7941204426	 1.6287713072	 1.0972682515	 0.167814
H	-0.2309745224	 4.0853436354	 0.26565423	 0.139476
H	 1.3446673151	 2.6845472289	-0.8326686969	 0.148061
H	 4.0251864005	 1.4123287934	 2.1927401133	 0.212266
32.6924	101.2125	130.1933	203.6807	248.5654	365.4335	416.2161	430.9676	497.6981	562.612	599.2033	634.8489	669.696	708.7514	740.831	775.1664	893.1431	964.4773	1032.7102	1052.5704	1066.718	1098.6051	1182.1544	1208.3277	1235.773	1289.8873	1348.7702	1433.8444	1918.0432	2242.6181	2361.8844	3035.0306	3076.4305	3105.2195	3138.2957	3501.74
O=C1CC(C#N)C1C#C	O=C1C[C@@H](C#N)[C@H]1C#C	
InChI=1S/C7H5NO/c1-2-6-5(4-8)3-7(6)9/h1,5-6H,3H2	InChI=1S/C7H5NO/c1-2-6-5(4-8)3-7(6)9/h1,5-6H,3H2/t5-,6+/m0/s1
