18
gdb 12512	3.58234	1.78843	1.2748	1.1674	77.83	-0.2147	-0.0219	0.1928	980.0323	0.154615	-347.808256	-347.800646	-347.799702	-347.840049	28.963	
C	 0.0087006316	 1.5685595759	-0.2102615713	-0.482093
C	-0.0331498637	 0.0751027565	 0.0107280891	 0.316716
C	-1.2018323418	-0.5769073516	 0.1103289257	-0.171184
C	-1.3287366174	-2.0607208963	 0.3165984474	-0.149845
O	-0.5688719217	-2.8231722857	-0.6187035985	-0.235387
C	 0.7590120792	-3.0658910784	-0.2329689484	-0.135248
C	 1.6087368558	-1.8695799639	 0.0834896128	-0.077294
C	 1.2783786756	-0.5716418932	 0.144454513	-0.120025
H	 0.5611460871	 2.0691476	 0.5949415246	 0.123827
H	 0.5256541211	 1.8163725189	-1.1454686925	 0.128835
H	-0.9948417354	 1.9982771514	-0.2535193677	 0.120331
H	-2.127860183	-0.0147833392	 0.0190117429	 0.082025
H	-1.0383159396	-2.3361142935	 1.3440680838	 0.101372
H	-2.3700483836	-2.3687431759	 0.1802817887	 0.109244
H	 0.8051247927	-3.7652474496	 0.6242632923	 0.09484
H	 1.2098582043	-3.6016732032	-1.0798746629	 0.121439
H	 2.6520180242	-2.1303667901	 0.25952424	 0.091843
H	 2.0958797146	 0.1215572879	 0.338751971	 0.080602
86.7079	169.4112	214.1432	278.7684	322.4434	359.5578	389.6324	443.3867	546.3752	648.6967	715.8555	757.1679	815.6676	878.9058	891.6087	919.8354	1000.6456	1011.8537	1019.6762	1058.7878	1068.5424	1093.174	1158.2933	1195.4509	1253.089	1272.4831	1326.3846	1357.6195	1388.1806	1412.7803	1415.406	1450.1476	1473.3168	1480.2393	1482.7873	1494.1237	1685.2721	1722.9748	2915.874	2966.9089	3020.0424	3026.986	3068.3278	3073.4637	3117.5191	3120.5468	3142.9036	3156.0673
CC1=CCOCC=C1	CC1=CCOCC=C1	
InChI=1S/C7H10O/c1-7-3-2-5-8-6-4-7/h2-4H,5-6H2,1H3	InChI=1S/C7H10O/c1-7-3-2-5-8-6-4-7/h2-4H,5-6H2,1H3
