19
gdb 38063	3.52601	1.37112	1.21929	1.9823	79.97	-0.2336	0.0092	0.2428	1070.9534	0.160995	-385.860639	-385.853241	-385.852296	-385.892938	29.267	
C	 0.0042852082	 1.5042212846	 0.0604560851	-0.289959
C	 1.3253174875	 0.7718000661	-0.0967120973	-0.088455
C	 2.0585268585	 0.5325132871	 1.1797899816	-0.085091
C	 1.3614981509	-0.2517251874	 2.006858989	-0.173436
C	 0.0692882568	-0.7295985933	 1.3939227455	 0.276378
C	-0.1949974352	-2.262098217	 1.36850452	-0.125489
O	-1.4223306516	-2.1235201362	 2.1054012108	-0.273938
C	-1.2215149388	-0.7062787178	 2.2618969132	-0.115694
C	 0.0288228928	-0.0035474268	 0.0521595913	-0.119459
H	-0.1734629857	 2.0261901829	 0.9953804566	 0.113771
H	-0.4083609919	 1.9906521959	-0.8174949185	 0.111962
H	 1.8610212174	 0.8456666184	-1.0363309711	 0.089779
H	 3.0174580438	 0.9863164555	 1.4033457159	 0.100019
H	 1.6483748836	-0.5200793538	 3.0180345942	 0.0987
H	-0.3543111368	-2.6954813462	 0.3723754423	 0.098808
H	 0.545389689	-2.8678555337	 1.9073214909	 0.095487
H	-1.0710765383	-0.4274031017	 3.3132818689	 0.095076
H	-2.0510704393	-0.1185041427	 1.8500420228	 0.101981
H	-0.4208860509	-0.5116285641	-0.7934708012	 0.089561
54.8353	132.1623	213.1662	341.4981	372.8813	403.6852	467.0133	579.7875	716.8483	765.4063	786.6345	803.445	838.6201	864.8364	894.3212	935.9636	969.2878	973.0764	988.7081	993.3348	1020.4163	1045.2378	1058.1617	1074.0731	1090.835	1099.3969	1118.5736	1156.2293	1160.4961	1181.4329	1201.5341	1262.9971	1304.4754	1318.0367	1361.7168	1373.5407	1393.0365	1477.0217	1509.1202	1534.9857	1661.2179	2996.4709	3008.8069	3045.5431	3052.1707	3122.9582	3167.5538	3174.9628	3181.9475	3206.9558	3213.0159
C1C2C=CC3(COC3)C12	C1[C@H]2C=CC3(COC3)[C@@H]12	
InChI=1S/C8H10O/c1-2-8(4-9-5-8)7-3-6(1)7/h1-2,6-7H,3-5H2	InChI=1S/C8H10O/c1-2-8(4-9-5-8)7-3-6(1)7/h1-2,6-7H,3-5H2/t6-,7+/m1/s1
