15
gdb 43284	2.97597	1.81745	1.41189	3.4281	70.02	-0.2495	-0.0714	0.1781	915.9243	0.11314	-420.590516	-420.583739	-420.582795	-420.62156	26.827	
O	-0.0587332543	-0.0493773072	 0.0641465745	-0.309599
C	-0.0644327158	 1.1525804629	-0.0052504916	 0.336111
C	-1.2738539568	 2.0433800384	-0.170979404	-0.175871
C	-0.9643113977	 3.3384732512	 0.0050366006	-0.163945
C	 0.510655682	 3.4679532937	 0.2026983666	 0.269533
C	 1.4758782435	 3.9084163422	 1.3237845923	-0.294755
C	 2.1042896923	 2.4666281673	 1.2782584888	-0.297163
C	 1.0967605264	 2.1186349821	 0.1645176158	 0.160077
O	 1.28458203	 3.0372825567	-0.9219682769	-0.280031
H	-2.2444516453	 1.6343004485	-0.4230424856	 0.129631
H	-1.6551749423	 4.1719962386	-0.0457761754	 0.128858
H	 2.1255072621	 4.7484716636	 1.0715832698	 0.122351
H	 0.9650801539	 4.1111613305	 2.2668374373	 0.121295
H	 3.152913977	 2.386172372	 0.9881034812	 0.125606
H	 1.9340529348	 1.9029577395	 2.1969789666	 0.127902
122.9763	223.6285	243.0929	343.8895	395.0983	493.8398	569.3536	595.3987	672.4054	725.5243	746.3201	764.6283	771.3429	839.9258	869.532	930.5502	938.7357	971.4494	1014.1248	1056.7769	1107.1936	1116.5519	1189.4128	1223.5086	1225.2766	1244.5639	1283.9727	1352.5772	1386.7909	1465.0149	1483.1312	1609.0632	1827.3663	3076.6583	3084.3661	3130.5488	3147.3941	3196.7918	3224.0587
O=C1C=CC23CCC12O3	O=C1C=C[C@@]23CC[C@@]12O3	
InChI=1S/C7H6O2/c8-5-1-2-6-3-4-7(5,6)9-6/h1-2H,3-4H2	InChI=1S/C7H6O2/c8-5-1-2-6-3-4-7(5,6)9-6/h1-2H,3-4H2/t6-,7-/m1/s1
