13
gdb 130100	5.55865	1.39367	1.11543	3.9053	66.55	-0.2069	0.0029	0.2097	990.8889	0.093908	-445.119864	-445.113346	-445.112402	-445.150526	25.443	
N	-0.0451080001	 1.2872299466	 0.1532825175	-0.580484
C	 0.0106687186	-0.0847281254	 0.0577855397	 0.40437
N	-1.1009797348	-0.8341371543	 0.0321789705	-0.348557
N	-0.5410731858	-2.0755626655	 0.0074207759	 0.110359
N	-1.0168337897	-3.3463335505	-0.0284879654	-0.230608
C	 0.0808141442	-4.0614611455	-0.0448521642	 0.037909
N	 1.2299589174	-3.2889363794	-0.0233198218	-0.421987
C	 0.8024395953	-1.9902369777	 0.0110127361	 0.508629
N	 1.2233573459	-0.7389560764	 0.041109288	-0.452785
H	 0.7695585726	 1.7480363032	-0.2235071457	 0.259555
H	-0.9166915827	 1.6840721478	-0.1653783148	 0.261241
H	 0.1010063789	-5.1377093997	-0.0723810029	 0.160804
H	 2.1807901302	-3.6131584132	-0.024218643	 0.291556
154.3681	294.7934	319.2936	345.8014	357.6917	435.6582	567.1076	589.8735	629.6082	644.4821	731.9292	764.3759	787.2408	800.9542	888.7045	979.1941	1011.0898	1083.3888	1105.5564	1190.5439	1274.0897	1328.5927	1396.7811	1429.7258	1457.9918	1540.7662	1556.3864	1644.5642	1658.338	3294.0696	3577.1015	3685.7959	3694.9278
NC1=NN2N=CNC2=N1	Nc1nn2nc[nH]c2n1	
InChI=1S/C3H4N6/c4-2-7-3-5-1-6-9(3)8-2/h1H,(H3,4,5,6,7,8)	InChI=1S/C3H4N6/c4-2-7-3-5-1-6-9(3)8-2/h1H,(H3,4,5,6,7,8)
