21
gdb 114524	2.64305	1.39226	1.09101	2.1072	78.78	-0.2341	0.0702	0.3043	1195.6058	0.181816	-424.182726	-424.173761	-424.172817	-424.216569	33.691	
C	 0.3997429533	 1.4754922362	 0.659173174	-0.240253
O	-0.2012146249	 0.3538250448	 0.0499635851	-0.236155
C	 0.7245231368	-0.5032306719	-0.5607169802	 0.143888
C	 1.6277056379	-1.4313530361	 0.322071025	-0.284113
C	 1.1363907173	-2.6382635523	-0.5142474269	 0.119179
O	 0.0663872485	-3.3477101307	 0.129862493	-0.311657
C	-0.9406506415	-2.6040527308	-0.6158572859	 0.156996
C	-2.0374796939	-2.0367003885	 0.2617472577	-0.398569
C	 0.1423168709	-1.7302814309	-1.2983797387	-0.16286
H	 1.0855944248	 1.1858264299	 1.4688760485	 0.112181
H	 0.9629994887	 2.0773511101	-0.0714400882	 0.104915
H	-0.402300511	 2.0870804525	 1.0787330853	 0.128873
H	 1.3532627586	 0.0729460752	-1.2590841358	 0.069013
H	 2.6974397478	-1.2129034826	 0.2746358889	 0.09694
H	 1.3132369045	-1.5134055355	 1.3647208558	 0.115915
H	 1.8762471322	-3.3009715758	-0.9696122448	 0.073868
H	-1.3887875195	-3.2717618638	-1.3668412397	 0.074561
H	-1.6387106957	-1.3598668635	 1.0166025691	 0.133906
H	-2.7603057442	-1.4837800754	-0.3475075476	 0.114618
H	-2.5657770211	-2.8589051103	 0.7560843387	 0.115997
H	 0.0799652207	-1.6595362005	-2.3836960633	 0.072756
73.6651	107.0269	137.4105	195.799	233.5715	272.6604	331.4698	375.9937	426.3262	434.7239	584.1566	633.8908	732.4011	768.9334	849.2685	864.8429	897.7241	935.9891	998.0983	1012.1998	1032.9805	1051.0407	1092.6744	1104.6682	1122.8795	1155.7461	1179.2069	1183.5321	1185.8824	1208.7451	1233.4185	1252.386	1280.911	1311.1673	1333.2118	1345.1949	1384.0069	1403.8103	1414.7952	1460.4968	1481.1686	1486.1125	1487.4281	1493.4467	1509.6625	2959.5533	2976.8287	2981.5561	3026.3644	3041.6048	3061.7569	3077.5542	3103.3107	3113.6861	3117.7776	3127.5631	3159.5246
COC1CC2OC(C)C12	CO[C@H]1C[C@H]2O[C@@H](C)[C@@H]12	
InChI=1S/C7H12O2/c1-4-7-5(8-2)3-6(7)9-4/h4-7H,3H2,1-2H3	InChI=1S/C7H12O2/c1-4-7-5(8-2)3-6(7)9-4/h4-7H,3H2,1-2H3/t4-,5-,6+,7-/m0/s1
