20
gdb 90239	2.8321	1.66693	1.45189	0.9328	78.66	-0.2214	0.0374	0.2589	995.2043	0.172068	-403.004567	-402.997186	-402.996242	-403.035843	30.85	
C	-0.2412100826	 1.4866414929	-0.0179827609	-0.410253
C	-0.0531331559	-0.022369412	 0.0255412812	 0.083167
C	 0.8813514002	-0.6153524685	-1.0684714213	-0.292769
C	 1.9393139395	-1.2292447476	-0.1161069215	 0.398394
C	 0.982788323	-1.9262440103	 0.92156156	-0.267696
N	 0.6377360488	-0.4462287098	 1.2875849604	-0.178926
C	 2.1676077986	-0.2443921966	 0.9432327775	-0.014765
C	 3.3027912969	 0.2667958532	-0.0180391518	-0.173071
O	 3.3181741695	-1.0966972689	-0.6115109142	-0.362901
H	 0.7221607063	 2.0068938103	-0.0048357007	 0.116403
H	-0.7722430739	 1.7839148006	-0.9278245871	 0.116127
H	-0.8186235123	 1.8233445417	 0.8478259292	 0.12789
H	-1.0360148933	-0.5049539493	 0.0242813728	 0.076829
H	 0.4075797363	-1.3831891113	-1.6859108682	 0.101546
H	 1.2962822744	 0.14148579	-1.7373462999	 0.10408
H	 0.118207738	-2.4988496476	 0.5717456416	 0.107166
H	 1.4789037395	-2.4182029745	 1.7564399505	 0.124174
H	 2.6793374102	-0.6684029156	 1.8073070514	 0.102194
H	 3.0520734649	 1.0204548144	-0.7678091148	 0.119323
H	 4.2561364117	 0.4992025388	 0.4617320757	 0.123089
147.9647	217.0374	267.9331	323.8587	369.8157	391.5465	463.2713	489.003	556.2631	636.3353	673.3683	747.8872	796.9912	818.6012	844.2309	869.3992	908.5745	916.9666	946.209	964.935	1006.5463	1038.4456	1055.2747	1066.5163	1105.9859	1128.297	1142.3758	1153.0555	1199.5969	1208.5149	1214.0536	1260.7431	1267.1597	1309.1894	1330.7106	1379.6037	1410.047	1421.0959	1488.5296	1490.9514	1494.7354	1502.9104	1521.4571	3037.1166	3045.0601	3058.7005	3059.2819	3067.4656	3094.3914	3106.1622	3110.5231	3116.5006	3130.2972	3157.5451
CC1CC23CN1C2CO3	C[C@H]1C[C@]23CN1[C@@H]2CO3	
InChI=1S/C7H11NO/c1-5-2-7-4-8(5)6(7)3-9-7/h5-6H,2-4H2,1H3	InChI=1S/C7H11NO/c1-5-2-7-4-8(5)6(7)3-9-7/h5-6H,2-4H2,1H3/t5-,6+,7-/m0/s1
