19
gdb 99168	5.04544	0.78683	0.73315	2.1488	72.35	-0.254	0.0084	0.2623	1581.5497	0.15736	-460.177845	-460.168145	-460.167201	-460.214845	33.064	
C	 0.1047104046	 1.4528849173	 0.1782397125	-0.371503
C	-0.1481255072	 0.00180485	-0.2231750897	-0.30328
C	 0.7479031125	-0.4594147351	-1.3523656923	 0.444243
O	 1.5610785947	 0.2154990291	-1.9324599467	-0.354892
O	 0.524170484	-1.762534568	-1.6463862193	-0.254278
C	 1.2934696668	-2.2808909627	-2.7294902386	 0.090932
C	 2.7653463747	-2.6257572716	-2.4451454247	-0.083696
O	 2.5343186902	-4.0117309709	-2.7843431519	-0.273729
C	 1.1140060141	-3.7932511311	-2.9105058322	-0.102384
H	 1.1358769395	 1.5929831537	 0.5121443266	 0.133185
H	-0.0593698879	 2.1266146486	-0.6662987062	 0.134416
H	-0.5650324031	 1.746106714	 0.9911236375	 0.114305
H	-0.0000433925	-0.6831787259	 0.6199302402	 0.134575
H	-1.1862554691	-0.1522195703	-0.5416550604	 0.134646
H	 1.1355951464	-1.666997279	-3.6169642256	 0.110029
H	 3.5117570925	-2.155689566	-3.0924783905	 0.119015
H	 3.0535158665	-2.4956810424	-1.3947026391	 0.106826
H	 0.5428605478	-4.2603907653	-2.0984356436	 0.111682
H	 0.7257205055	-4.1331386244	-3.8767033559	 0.109908
22.8185	56.3037	64.1257	104.9191	149.1676	202.3259	268.2944	331.1626	384.6453	483.3219	587.815	660.6015	753.1025	809.7286	874.9994	889.3587	896.7437	974.6143	1015.2466	1027.8184	1063.9329	1090.3257	1107.6643	1121.1284	1142.5486	1153.4138	1184.9092	1206.4492	1262.2772	1277.8235	1305.4165	1350.932	1380.698	1415.0473	1416.5738	1457.9475	1493.2473	1499.9733	1501.1022	1527.4019	1816.6181	3018.864	3030.5964	3042.1492	3053.3596	3071.7845	3072.222	3085.3105	3110.6551	3125.3227	3130.2738
CCC(=O)OC1COC1	CCC(=O)OC1COC1	
InChI=1S/C6H10O3/c1-2-6(7)9-5-3-8-4-5/h5H,2-4H2,1H3	InChI=1S/C6H10O3/c1-2-6(7)9-5-3-8-4-5/h5H,2-4H2,1H3
