21
gdb 94673	2.18275	1.71454	1.3035	2.3454	78.1	-0.2501	0.0747	0.3249	1081.8391	0.182008	-424.227663	-424.218505	-424.217561	-424.260684	36.111	
C	 0.1685418999	 1.5058172312	-0.1839473004	-0.482876
C	-0.0341158897	 0.0233380948	 0.0145805261	 0.314887
C	 1.1384778464	-0.9228889928	-0.2085962366	-0.425736
C	 0.5651173687	-0.7352121145	 1.176487485	 0.386689
O	 1.3026808023	-0.0384470347	 2.135031885	-0.475806
C	-0.4387468767	-1.7719613101	 1.6571509016	-0.267652
C	-1.3950248186	-1.949921872	 0.4595741453	-0.263447
C	-1.4115390165	-0.573956245	-0.2499079323	 0.066381
O	-2.3603422165	 0.3097305853	 0.346544838	-0.439299
H	 1.1260418417	 1.8174853922	 0.2411433667	 0.121145
H	 0.1626063833	 1.7673157678	-1.2485521847	 0.105006
H	-0.6261984092	 2.0706057047	 0.3080449624	 0.138819
H	 1.008563058	-1.8605916248	-0.7402478962	 0.101989
H	 2.0890419823	-0.4333414448	-0.3937940836	 0.108918
H	 2.0380966835	-0.5960335044	 2.4100825142	 0.28114
H	 0.0238447397	-2.7156182666	 1.9685735055	 0.084588
H	-0.9664721502	-1.3550782534	 2.5211766093	 0.115721
H	-1.0289356195	-2.7236428335	-0.2227475895	 0.101513
H	-2.4036439357	-2.2466189157	 0.7623082609	 0.08956
H	-1.6178093042	-0.6751138898	-1.3269165539	 0.057383
H	-3.2385985991	-0.0415342839	 0.1718981471	 0.281077
114.1904	174.5886	206.6699	220.699	262.4129	269.923	280.5947	370.3946	420.3414	438.1255	454.0116	501.0447	549.55	647.1486	704.47	778.9673	812.7612	864.307	908.3715	938.8873	952.1479	976.5391	988.4936	1032.8678	1044.667	1088.6605	1108.6269	1128.0395	1180.3895	1217.7161	1226.9254	1252.304	1274.9887	1306.5425	1321.4017	1334.0506	1361.4907	1404.8701	1415.2257	1428.3869	1480.3567	1485.3979	1487.8198	1504.1	1511.9341	2974.49	3034.6212	3035.274	3051.6762	3077.3411	3094.9451	3103.6892	3121.9276	3132.508	3208.2337	3801.4632	3824.8183
CC12CC1(O)CCC2O	C[C@@]12C[C@]1(O)CC[C@H]2O	
InChI=1S/C7H12O2/c1-6-4-7(6,9)3-2-5(6)8/h5,8-9H,2-4H2,1H3	InChI=1S/C7H12O2/c1-6-4-7(6,9)3-2-5(6)8/h5,8-9H,2-4H2,1H3/t5-,6+,7-/m1/s1
