18
gdb 14149	4.27259	1.5612	1.36618	1.3725	67.84	-0.242	0.0863	0.3283	960.0355	0.153831	-384.923596	-384.915801	-384.914856	-384.956275	28.733	
C	 0.0185962539	 1.5410424538	-0.198882041	-0.411551
C	-0.0055295069	 0.0456913635	 0.0272211352	-0.078508
C	 1.2702311136	-0.7854998973	-0.0389395908	-0.359414
C	 0.5487320818	-0.5718227823	 1.2661991142	 0.40456
C	 1.1629277657	 0.1729543668	 2.4570551953	-0.158586
O	 0.9108027422	-0.6844835865	 3.5679352201	-0.249916
C	 0.5218793567	-1.9275207967	 3.0280382218	 0.011638
O	-0.1670838338	-1.6466037277	 1.8347066588	-0.268828
H	 0.9310947168	 1.9952275242	 0.2018511446	 0.11595
H	-0.0191828757	 1.7735054081	-1.2684342233	 0.122599
H	-0.8351735563	 2.0322687332	 0.2804636161	 0.124374
H	-0.890734197	-0.4594189791	-0.3508136322	 0.101552
H	 1.2099115523	-1.7703035016	-0.4884735683	 0.120575
H	 2.2109008676	-0.2640826822	-0.1948620273	 0.10831
H	 2.240691114	 0.33584351	 2.3236298604	 0.10263
H	 0.6835012926	 1.1375485409	 2.6556554132	 0.114462
H	 1.4068872673	-2.559149746	 2.8268985121	 0.081309
H	-0.1544394949	-2.4292698712	 3.725155531	 0.118844
40.7917	163.291	189.4053	198.2879	265.7562	354.7387	418.645	482.1196	536.2329	742.2406	777.2409	821.8876	871.5637	908.682	927.3882	963.6626	1005.2008	1026.1586	1041.5141	1094.4474	1105.4495	1116.4483	1129.8675	1178.4451	1184.9427	1211.2265	1233.0831	1239.2494	1319.023	1369.2119	1406.4383	1415.8562	1438.129	1486.0224	1491.5663	1506.0308	1525.9937	1541.5189	2931.5326	3009.9777	3028.7049	3060.9657	3093.6387	3094.3664	3095.0567	3119.7575	3145.7364	3216.3188
CC1CC11COCO1	C[C@H]1C[C@]21COCO2	
InChI=1S/C6H10O2/c1-5-2-6(5)3-7-4-8-6/h5H,2-4H2,1H3	InChI=1S/C6H10O2/c1-5-2-6(5)3-7-4-8-6/h5H,2-4H2,1H3/t5-,6+/m0/s1
