16
gdb 24198	4.17676	1.65049	1.4238	5.0674	74.2	-0.1964	0.0265	0.2229	906.4631	0.128872	-396.874433	-396.868236	-396.867292	-396.905698	25.14	
C	-0.0130488073	 1.4911400921	-0.0953534491	-0.166375
C	 1.5499828951	 1.3372019875	 0.0249457357	-0.186071
C	 1.1324993507	 0.1649601756	 0.9817692277	-0.161437
N	-0.0629146844	-0.0464475201	 0.0355429259	-0.224307
C	 0.7064045897	-0.3620498214	-1.1773508364	 0.335348
C	 1.7664013028	 0.491629248	-1.2238545563	 0.305632
N	 2.3705279745	 0.2468422813	-2.4239451007	-0.41017
C	 1.6385235391	-0.7703219144	-3.0125667611	-0.038324
N	 0.6038815884	-1.1509138648	-2.2747213094	-0.36617
H	-0.4891309499	 1.9636004873	 0.7700318614	 0.107266
H	-0.425194916	 1.8771695808	-1.0292688082	 0.115249
H	 2.2278860541	 2.1434194255	 0.3038472764	 0.074431
H	 1.7976814889	-0.6958400556	 1.0681152262	 0.11314
H	 0.7809619135	 0.4954640571	 1.9636029627	 0.107651
H	 3.2054462392	 0.6618660319	-2.802606516	 0.266405
H	 1.9276386816	-1.1967551508	-3.9603830188	 0.127731
35.3795	308.499	427.8244	507.5756	512.7448	545.2053	656.966	675.5895	714.91	726.3295	761.6705	801.8589	817.1036	843.8356	904.5456	958.1436	997.7135	1024.2519	1036.3627	1079.7225	1091.9355	1117.3071	1170.5491	1194.0091	1217.0395	1236.7031	1253.3218	1295.5048	1352.1746	1381.766	1430.9638	1485.5972	1502.0483	1525.1722	1572.947	3044.0307	3057.6305	3119.1698	3127.4092	3133.1178	3262.4408	3661.1498
C1C2CN1C1=C2NC=N1	C1[C@H]2CN1c1c2[nH]cn1	
InChI=1S/C6H7N3/c1-4-2-9(1)6-5(4)7-3-8-6/h3-4H,1-2H2,(H,7,8)	InChI=1S/C6H7N3/c1-4-2-9(1)6-5(4)7-3-8-6/h3-4H,1-2H2,(H,7,8)
