19
gdb 101313	3.13694	0.9009	0.75398	3.1285	73.71	-0.25	-0.0197	0.2304	1485.1076	0.157263	-460.149242	-460.139544	-460.1386	-460.184487	35.163	
O	 0.1198519525	 1.3791505407	-0.0455249948	-0.422595
C	 0.0623404372	-0.0235633362	 0.0573923585	-0.062222
C	-1.3896350227	-0.5139165712	 0.0530422993	 0.073122
O	-2.059662543	 0.0345548309	-1.0893765189	-0.435392
C	-1.4762698354	-2.0236733775	 0.1199053906	-0.043224
C	-1.9209342283	-2.7244438111	 1.3633651943	-0.307703
C	-2.8270964941	-2.740813865	 0.1432980802	-0.113716
C	-4.0926754732	-1.9658057598	 0.1625117354	 0.176606
O	-5.0908482457	-2.3002944595	-0.4254897577	-0.272508
H	-0.5335666205	 1.6138780648	-0.717661849	 0.287356
H	 0.6053186626	-0.5160530794	-0.7713694225	 0.073562
H	 0.5591593212	-0.3113320345	 0.9903733122	 0.113378
H	-1.9022048994	-0.0602429265	 0.9076632006	 0.100544
H	-1.8149039917	-0.4887861036	-1.8614933834	 0.28794
H	-0.7241811087	-2.5379097454	-0.4755554032	 0.098701
H	-1.448316301	-3.6574112103	 1.6469192372	 0.132425
H	-2.2355653178	-2.1076658863	 2.1999234163	 0.130809
H	-2.8968368802	-3.6647010352	-0.420621044	 0.109659
H	-4.0734027417	-1.0441638346	 0.7853679989	 0.073259
48.4336	87.7472	127.0933	152.2534	233.8372	244.591	293.8579	325.0866	371.6903	394.8474	468.223	514.0492	546.0581	586.6743	821.618	842.3609	867.6408	876.5821	965.2201	985.5278	1043.4985	1062.5838	1073.2499	1084.6002	1104.0236	1135.7464	1148.7112	1187.411	1209.1973	1223.5153	1270.8152	1300.2579	1344.2436	1383.5031	1405.6326	1429.8765	1440.0246	1453.0291	1487.4098	1503.9851	1819.9888	2884.1406	2928.367	3060.0731	3073.0285	3125.0442	3133.0421	3176.2277	3222.9789	3766.036	3797.0491
OCC(O)C1CC1C=O	OC[C@@H](O)[C@H]1C[C@H]1C=O	
InChI=1S/C6H10O3/c7-2-4-1-5(4)6(9)3-8/h2,4-6,8-9H,1,3H2	InChI=1S/C6H10O3/c7-2-4-1-5(4)6(9)3-8/h2,4-6,8-9H,1,3H2/t4-,5-,6+/m0/s1
