19
gdb 59284	2.51839	1.49402	0.99054	2.4507	76.89	-0.2449	-0.0179	0.227	1199.5273	0.159645	-419.266507	-419.257601	-419.256657	-419.300273	33.219	
C	-0.0062188125	 1.5274941634	-0.0819566686	-0.387934
C	 0.0413287775	 0.0010191656	 0.0623641464	 0.03067
C	 0.7669419842	-0.4113035412	 1.3501621778	-0.398937
C	-1.3878294251	-0.5952654603	 0.0096475809	-0.118221
N	-2.1415853757	-0.1418753397	-1.171714836	-0.245095
C	-2.5198236449	-1.1943506751	-1.7840632079	 0.063387
N	-2.1508642209	-2.3993082897	-1.1999559201	-0.335397
C	-1.4189146573	-2.1367391189	-0.045140695	 0.421446
O	-0.9475186596	-2.9660038179	 0.695252333	-0.36149
H	 1.0084470803	 1.9385398244	-0.0743935968	 0.107174
H	-0.5014316106	 1.826074213	-1.0074007683	 0.136562
H	-0.5536791441	 1.9790184874	 0.7540639732	 0.109999
H	 0.5909579389	-0.4079323419	-0.7967425423	 0.078582
H	 0.7922944848	-1.4950778421	 1.4744247924	 0.149969
H	 1.7940701187	-0.032993855	 1.339124662	 0.108355
H	 0.2661015282	 0.0166917385	 2.227027374	 0.109348
H	-1.9268059117	-0.2722848062	 0.911424558	 0.121769
H	-3.0974251378	-1.1961681017	-2.7030890551	 0.141146
H	-2.3449400924	-3.3257151226	-1.5440969376	 0.268666
64.8779	99.2607	189.342	228.543	244.83	263.522	332.0713	347.4167	423.6093	491.9393	517.3176	579.9427	673.3078	694.4342	857.9173	866.1721	897.3594	936.6629	942.3357	955.188	973.9013	1035.6596	1069.1144	1134.6898	1143.7245	1189.2461	1195.2463	1262.1774	1263.7836	1342.1536	1350.4692	1365.6541	1398.0083	1401.5777	1421.321	1487.6445	1493.0112	1501.0446	1516.5176	1681.0755	1838.7797	3005.4474	3022.9713	3029.3719	3035.3104	3090.9078	3097.6313	3137.0425	3141.5957	3190.6592	3654.1816
CC(C)C1N=CNC1=O	CC(C)[C@H]1N=CNC1=O	
InChI=1S/C6H10N2O/c1-4(2)5-6(9)8-3-7-5/h3-5H,1-2H3,(H,7,8,9)	InChI=1S/C6H10N2O/c1-4(2)5-6(9)8-3-7-5/h3-5H,1-2H3,(H,7,8,9)/t5-/m1/s1
