19
gdb 65980	2.69486	1.28575	1.16133	3.0191	75.88	-0.2402	0.0318	0.2719	1149.365	0.159717	-419.198568	-419.189581	-419.188637	-419.232839	33.112	
C	 0.0345174257	 1.5782044101	 0.1819399492	-0.483283
C	-0.0043754165	 0.0564832506	 0.0710109118	 0.137397
C	 0.886584029	-0.5518214622	-1.0717101399	-0.209209
N	 1.715236433	-1.1485086921	-0.0224437588	-0.32579
C	 1.014474728	-0.6337692251	 1.0373378515	 0.401604
O	 1.1570907831	-0.6938792899	 2.2287107339	-0.36627
C	-1.3765915195	-0.5835115381	 0.1500097204	-0.009277
C	-2.511790348	 0.0103341789	 0.8948243851	-0.245164
N	-2.5452601226	-0.0586158306	-0.5791152571	-0.337334
H	 1.0519159588	 1.9464287704	 0.0208477187	 0.129208
H	-0.6098134228	 2.0662048611	-0.5577569249	 0.116263
H	-0.2754816668	 1.9000235653	 1.1795383934	 0.14686
H	 0.3820867328	-1.2790364323	-1.7151649418	 0.120659
H	 1.4075106033	 0.187917279	-1.6885258793	 0.109974
H	 2.5660962864	-1.6901809304	-0.0594050393	 0.252039
H	-1.3291180858	-1.6712479586	 0.1155463675	 0.096045
H	-3.2202519203	-0.6387687865	 1.400930329	 0.123425
H	-2.3745633665	 0.9786183158	 1.3659242581	 0.115723
H	-2.3361514714	 0.8596406248	-0.9637329876	 0.227129
43.519	96.6994	151.5787	189.469	251.1659	262.4933	308.0793	369.0865	418.7471	475.8398	586.7096	660.5202	724.1434	777.0479	827.549	857.8719	880.7959	944.3461	958.1111	971.6921	1000.8854	1011.4298	1107.3759	1127.0095	1153.9186	1160.762	1168.4791	1179.3976	1204.4352	1261.7655	1273.1003	1300.738	1312.9056	1391.9592	1409.2164	1427.85	1493.3913	1497.8178	1518.2177	1530.732	1892.5065	3035.5388	3039.9577	3088.4507	3100.5386	3110.5636	3118.5497	3123.3569	3204.4298	3497.7773	3609.274
CC1(CNC1=O)C1CN1	C[C@]1(CNC1=O)[C@H]1CN1	
InChI=1S/C6H10N2O/c1-6(4-2-7-4)3-8-5(6)9/h4,7H,2-3H2,1H3,(H,8,9)	InChI=1S/C6H10N2O/c1-6(4-2-7-4)3-8-5(6)9/h4,7H,2-3H2,1H3,(H,8,9)/t4-,6+/m1/s1
