15
gdb 20195	3.65456	3.0273	2.28937	1.6991	68.85	-0.2082	0.0025	0.2108	651.4233	0.122236	-325.504751	-325.499516	-325.498572	-325.533627	22.403	
C	-0.013135612	 1.4707166412	 0.0894433374	-0.064118
C	 1.2335991812	 1.9477569526	-0.007603266	-0.079929
C	 2.2165287863	 0.7827044554	-0.0351256525	-0.1283
C	 2.55213923	 0.5867990416	 1.4390664263	-0.079929
C	 1.7017535918	-0.2993410849	 1.9709812998	-0.064118
C	 0.8602572036	-0.8802419317	 0.9124149638	-0.079301
C	 0.0038989451	 0.0036662116	-0.0271631135	-0.079301
N	 1.3688507812	-0.4146608397	-0.3889478435	-0.104805
H	-0.9155787336	 2.0498478692	 0.2372322608	 0.101565
H	 1.5407674952	 2.9814028857	 0.0982266925	 0.102837
H	 3.0686644833	 0.8905203187	-0.7103598327	 0.08261
H	 3.2530556352	 1.2140286519	 1.9769099808	 0.102837
H	 1.6178964149	-0.5651306499	 3.016907646	 0.101565
H	 0.5673237135	-1.9260415156	 0.9723844433	 0.094194
H	-0.8104535857	-0.5039386561	-0.5392863125	 0.094194
300.8365	329.3844	489.7306	577.0257	665.6401	706.442	759.9042	763.1326	771.0905	810.7334	817.3214	887.1561	912.3203	923.9985	941.8932	953.6696	972.7407	986.3659	1038.1638	1083.2661	1106.0543	1117.015	1131.558	1193.2097	1268.1291	1284.1922	1313.3717	1335.9569	1365.87	1383.7595	1636.919	1644.5118	3070.6751	3127.1401	3136.6467	3198.4759	3200.7792	3224.4183	3225.8354
C1=CC2C=CC3C1N23	C1=C[C@H]2C=C[C@H]3[C@@H]1N23	
InChI=1S/C7H7N/c1-3-6-7-4-2-5(1)8(6)7/h1-7H	InChI=1S/C7H7N/c1-3-6-7-4-2-5(1)8(6)7/h1-7H/t5-,6+,7-,8?
