21
gdb 122370	5.40911	0.66194	0.65473	1.6346	80.11	-0.2359	0.0821	0.318	1777.1554	0.181498	-424.137168	-424.128028	-424.127084	-424.172335	33.283	
C	-0.2169854812	 1.4222155258	-0.1052344977	-0.229476
O	-0.2770848067	 0.016942514	-0.1322272952	-0.229674
C	 0.5259981506	-0.5482765376	-1.1439641551	-0.040884
C	 0.3780654706	-2.0654998926	-1.0871687163	-0.268766
C	 1.1722676273	-2.7573380801	-2.1844853491	 0.045714
C	 2.7133017308	-2.9971330102	-2.1275041148	 0.039605
C	 2.5246452835	-4.1113887488	-1.0703389866	-0.229436
C	 1.4736194012	-4.2835924372	-2.1931293825	 0.021544
O	 2.5452612073	-4.0224849842	-3.183630339	-0.309433
H	 0.8059398055	 1.7854366156	 0.0843769871	 0.102695
H	-0.5658027755	 1.865303887	-1.0518359858	 0.103507
H	-0.8673066707	 1.7631112759	 0.7040804063	 0.127153
H	 0.2209668041	-0.1690737444	-2.1352345543	 0.086093
H	 1.5823699646	-0.258130029	-1.0034162935	 0.084929
H	 0.6709556838	-2.4046121015	-0.0894238339	 0.109276
H	-0.6849057053	-2.3108104463	-1.2010343404	 0.112362
H	 0.8706111423	-2.416401676	-3.1796598806	 0.082221
H	 3.5338310632	-2.2884383383	-2.2473741508	 0.091183
H	 3.3100433473	-4.8677034928	-1.0650187336	 0.109446
H	 2.1916986917	-3.8435827983	-0.0662109654	 0.099941
H	 0.8005423657	-5.118812981	-2.3915073187	 0.091996
50.3121	74.0551	102.564	119.5452	229.296	271.9272	294.7373	352.1612	459.7917	558.0439	637.9466	723.398	771.3275	818.2133	863.3567	882.4156	900.3768	924.9043	997.4638	1010.4722	1023.1681	1062.519	1084.9053	1104.8111	1135.5072	1157.2397	1168.592	1171.9736	1182.9041	1203.3836	1213.8558	1229.0268	1241.8765	1264.3567	1285.9942	1308.1551	1314.8771	1401.46	1428.7322	1481.0275	1484.6429	1484.9068	1500.3647	1506.5517	1532.4681	2941.4958	2967.2217	2968.6514	3010.0269	3040.5171	3065.7626	3075.5136	3096.7581	3106.5048	3113.2794	3114.1485	3153.0422
COCCC1C2CC1O2	COCC[C@H]1[C@H]2C[C@@H]1O2	
InChI=1S/C7H12O2/c1-8-3-2-5-6-4-7(5)9-6/h5-7H,2-4H2,1H3	InChI=1S/C7H12O2/c1-8-3-2-5-6-4-7(5)9-6/h5-7H,2-4H2,1H3/t5-,6+,7-
