20
gdb 96829	2.53762	1.23222	1.03169	1.271	78.72	-0.2531	0.0201	0.2732	1277.4169	0.167495	-440.290327	-440.279777	-440.278832	-440.325964	37.414	
C	-0.203000623	 1.406627242	-0.4598226184	-0.338716
N	-0.1598122208	-0.0498088057	-0.4483542826	-0.349442
C	-1.0828023249	-0.6840470185	 0.113112894	 0.415449
O	-2.2247440368	-0.2696518835	 0.7561407941	-0.304647
C	-2.7632917836	-1.6622582744	 0.7826507969	 0.37655
C	-3.0703650706	-2.0668408402	 2.2106177643	-0.437435
C	-3.9433267141	-1.7804130027	-0.1608279547	-0.417221
C	-1.3968408246	-2.1575290144	 0.203999979	-0.063077
O	-1.408029097	-2.8729184901	-1.0027383778	-0.429215
H	 0.5848514131	 1.7983267713	 0.1938337614	 0.13078
H	 0.0154821862	 1.7620162062	-1.4719974328	 0.125389
H	-1.1633674946	 1.8235536889	-0.1342408707	 0.127177
H	-3.882484971	-1.4571693554	 2.6181573437	 0.130554
H	-3.3780287445	-3.1168818282	 2.247559109	 0.128804
H	-2.1921754975	-1.9401623526	 2.8501502182	 0.125799
H	-3.6659498395	-1.4819434849	-1.1734140121	 0.128051
H	-4.2912879055	-2.8168320585	-0.1998516263	 0.130464
H	-4.7668492577	-1.1484547597	 0.1847874534	 0.123366
H	-0.802401014	-2.686085694	 0.9609628784	 0.096636
H	-0.8630767096	-2.3774384356	-1.6253391171	 0.300733
65.2232	79.5565	144.0933	177.3834	180.0877	186.8951	221.1825	243.0376	274.9783	328.2952	364.9601	412.205	514.9642	570.4334	615.002	725.606	799.6344	832.7659	904.8154	946.3994	978.6724	1007.3472	1051.7414	1096.3987	1129.9811	1134.9271	1170.3083	1193.6632	1244.5533	1260.3341	1292.7746	1370.1378	1385.6955	1407.6521	1419.5957	1440.0254	1471.9442	1477.5359	1492.233	1494.1784	1497.5711	1499.6923	1840.1081	3016.8414	3018.3863	3038.6138	3048.9326	3081.1104	3091.4824	3111.1739	3116.4479	3119.9745	3137.7586	3796.3088
CN=C1OC(C)(C)C1O	CN=C1OC(C)(C)[C@H]1O	
InChI=1S/C6H11NO2/c1-6(2)4(8)5(7-3)9-6/h4,8H,1-3H3	InChI=1S/C6H11NO2/c1-6(2)4(8)5(7-3)9-6/h4,8H,1-3H3/t4-/m0/s1
