20
gdb 105468	2.63057	0.89538	0.75145	4.9228	79.73	-0.2789	0.0386	0.3175	1533.5244	0.170254	-403.149971	-403.140167	-403.139223	-403.185581	35.574	
O	-0.0599354646	 1.4508013498	-0.5962476232	-0.413406
C	-0.013766985	 0.115810234	-0.1176110622	-0.133669
C	-1.3925505602	-0.4980287939	 0.0463910107	 0.334889
C	-2.3513464371	 0.2662448142	 0.9448167829	-0.264409
C	-1.9135006607	 0.2650017869	 2.4269325839	-0.345963
C	-2.894560028	 0.911126165	 3.2948815722	 0.25962
N	-3.6850380004	 1.4213926917	 3.9659865126	-0.306878
C	-1.9743656954	-1.1907095779	-1.1682544323	-0.328721
C	-1.4885273558	-2.0041259111	 0.0057131185	-0.310574
H	-0.5181748171	 1.4393462101	-1.4436644088	 0.284923
H	 0.5944171017	-0.5279407691	-0.7725733055	 0.08762
H	 0.5092938233	 0.1724171871	 0.8437864027	 0.112104
H	-2.4274179073	 1.3018010746	 0.5994817628	 0.129865
H	-3.3516486262	-0.1722941596	 0.8738859118	 0.115055
H	-1.763470519	-0.7635426188	 2.7749024825	 0.150705
H	-0.9564632981	 0.78384698	 2.546000132	 0.159976
H	-3.0437839732	-1.1218781832	-1.3357820719	 0.120511
H	-1.3835094589	-1.2143979098	-2.0788209657	 0.112823
H	-0.5742573689	-2.5765065049	-0.1125178742	 0.11765
H	-2.231814589	-2.4839749853	 0.6340276512	 0.117881
54.7135	58.1955	126.1031	132.0523	213.885	245.0305	323.3385	334.1816	358.7731	401.0222	430.5029	525.8768	542.2028	743.4286	772.6894	793.3559	884.3902	921.0639	942.3423	957.0573	966.868	1014.5469	1035.4156	1049.2355	1064.2161	1078.9128	1087.5841	1186.502	1195.4612	1208.209	1283.7987	1307.7057	1326.4334	1355.2727	1376.2766	1405.581	1426.2968	1466.239	1469.7189	1486.3434	1500.7378	1512.2659	2361.8798	2979.7627	3043.6427	3055.0196	3061.5592	3081.7464	3104.1732	3125.6334	3129.9178	3204.1599	3217.7489	3803.9574
OCC1(CCC#N)CC1	OCC1(CCC#N)CC1	
InChI=1S/C7H11NO/c8-5-1-2-7(6-9)3-4-7/h9H,1-4,6H2	InChI=1S/C7H11NO/c8-5-1-2-7(6-9)3-4-7/h9H,1-4,6H2
