16
gdb 46974	3.05486	1.74154	1.18445	4.8364	70.06	-0.222	0.008	0.2299	995.2094	0.12738	-437.94057	-437.933624	-437.93268	-437.972358	26.436	
O	 0.102254621	 0.0237298783	 0.2799134331	-0.384305
C	 0.0476827197	 1.184638675	-0.0078286926	 0.475166
O	-1.1162778158	 1.904989205	-0.0694648593	-0.245769
C	-0.8220130601	 3.3124697059	-0.0884412575	-0.110637
C	 0.634628176	 3.406184663	-0.5771427896	 0.017909
C	 1.6563831136	 4.2922692543	 0.1840827129	-0.306657
C	 2.7435853367	 3.2945679672	 0.5499418826	-0.123496
C	 2.3585160572	 2.0503780026	 0.2644966954	-0.02938
N	 1.0938252277	 2.0270608112	-0.3568473065	-0.140473
H	-1.537242622	 3.8014366953	-0.7517214477	 0.130116
H	-0.9408923878	 3.7135344185	 0.9261633659	 0.118559
H	 0.664587314	 3.6278978835	-1.6496031981	 0.10282
H	 2.0188668614	 5.1077619686	-0.4481395789	 0.122608
H	 1.2228539808	 4.7572798089	 1.0816626426	 0.114869
H	 3.6796969827	 3.5671716785	 1.0155865721	 0.110666
H	 2.8606010649	 1.1108809841	 0.4443968357	 0.148005
91.8551	134.9328	187.3574	315.2865	421.2593	499.5802	600.8434	651.8853	665.7443	730.2075	763.7841	774.3505	855.8078	925.5641	931.8409	948.4698	957.0671	1044.8493	1068.5047	1078.5134	1092.0769	1123.3198	1185.2175	1225.921	1247.8731	1283.2082	1296.4318	1326.9641	1360.55	1398.037	1404.0851	1490.7778	1520.3019	1677.2486	1883.6315	2999.288	3024.3133	3034.0988	3079.881	3118.0746	3234.6362	3259.645
O=C1OCC2CC=CN12	O=C1OC[C@H]2CC=CN12	
InChI=1S/C6H7NO2/c8-6-7-3-1-2-5(7)4-9-6/h1,3,5H,2,4H2	InChI=1S/C6H7NO2/c8-6-7-3-1-2-5(7)4-9-6/h1,3,5H,2,4H2/t5-/m1/s1
