15
gdb 46138	4.7715	1.04548	0.88897	2.3655	68.41	-0.2808	-0.0118	0.269	1222.7288	0.11359	-453.950369	-453.942521	-453.941577	-453.983211	28.581	
N	-0.0874190879	 1.2735266284	-0.3325762235	-0.495262
C	-0.0089307281	 0.0680581129	 0.0286874522	 0.374644
C	-1.2620855923	-0.7729349045	 0.167304451	-0.161946
O	-1.1462361984	-1.8245815524	 1.116515635	-0.249079
C	 0.0082400136	-2.5978127497	 0.8575456446	-0.043466
C	 1.2476003234	-1.7183326988	 1.0435992992	-0.085247
O	 1.1881960963	-0.576550223	 0.1870124157	-0.25339
C	 0.035660325	-3.7365208729	 1.7805269505	 0.279705
N	 0.1071594825	-4.6382856508	 2.4975996497	-0.300056
H	 0.8443533651	 1.6785512294	-0.4455161305	 0.230186
H	-2.0862514364	-0.1374836988	 0.4879147009	 0.162006
H	-1.5067532971	-1.1877000289	-0.8245724621	 0.129442
H	-0.0114208431	-2.9874484313	-0.1744949792	 0.128177
H	 1.3033352786	-1.3963512826	 2.0899139918	 0.140755
H	 2.1618344088	-2.2549185569	 0.7813150347	 0.14353
69.2975	146.1071	170.8562	191.1865	333.9144	390.6306	423.3645	462.8217	516.0379	551.5577	578.7908	700.2544	801.234	906.4833	918.8441	993.8459	1003.0578	1048.9685	1065.3807	1094.8278	1131.7518	1158.0344	1260.7255	1272.3375	1295.9237	1339.5809	1366.8446	1387.3577	1429.9066	1476.1059	1498.2037	1768.3433	2373.545	2970.5966	2978.0369	3045.8601	3120.6951	3151.6937	3467.253
N=C1COC(CO1)C#N	[NH][C]1CO[C@@H](CO1)C#N	
InChI=1S/C5H6N2O2/c6-1-4-2-9-5(7)3-8-4/h4,7H,2-3H2	InChI=1S/C5H6N2O2/c6-1-4-2-9-5(7)3-8-4/h4,7H,2-3H2/t4-/m1/s1
