20
gdb 97390	5.1244	0.78687	0.7539	2.6286	84.61	-0.2456	0.0266	0.2723	1592.0368	0.169749	-403.111387	-403.102314	-403.101369	-403.145947	33.453	
C	 0.0359750098	 1.3399670271	 0.3238345177	-0.314184
N	-0.0200588438	 0.0184008728	-0.2650213592	-0.207165
C	-1.0299099148	-0.6835807302	-0.0101847651	 0.103582
O	-1.1382856444	-1.9375859172	-0.51593816	-0.243434
C	-2.334879551	-2.6041425547	-0.2658881181	 0.437434
C	-2.7514700736	-3.026640659	 1.113255796	-0.330731
C	-2.5172456877	-4.0776142121	 0.0482590529	-0.127522
C	-3.7269091598	-4.135449238	-0.8943712933	-0.218675
C	-3.5068987267	-2.6246948726	-1.2497690324	-0.296925
H	 0.9322575428	 1.4264125695	 0.9487708591	 0.12763
H	 0.1284953991	 2.0914367532	-0.4685799483	 0.127787
H	-0.8412077276	 1.5950501358	 0.941249101	 0.095003
H	-1.8778769768	-0.3799000589	 0.6207146805	 0.081544
H	-1.9645710636	-2.9617491493	 1.8578659752	 0.123547
H	-3.7527904951	-2.8255008713	 1.4891712544	 0.107961
H	-1.7669689948	-4.8473218012	 0.175832541	 0.102771
H	-3.5793720657	-4.7913389709	-1.7541830053	 0.112041
H	-4.680094427	-4.3856303991	-0.4187836915	 0.1014
H	-4.3290436364	-1.9293850019	-1.0520126839	 0.096592
H	-3.1688750229	-2.495216132	-2.2798903407	 0.121343
46.5539	85.9664	117.8518	205.0607	229.4131	296.177	345.4638	361.9903	372.9387	443.481	539.4069	680.3026	746.5817	786.7617	865.1274	912.8757	927.8124	961.5379	966.7128	986.5727	1021.6635	1026.8737	1065.2822	1082.4095	1116.1873	1139.4172	1141.7946	1154.3585	1211.2753	1224.0939	1226.8833	1235.842	1267.718	1303.3276	1373.2456	1399.1381	1450.0998	1478.6629	1480.9134	1481.7253	1504.3142	1511.4294	1778.5252	2966.0782	3013.158	3048.4062	3057.8836	3058.4857	3077.3683	3102.5223	3107.5642	3124.7621	3196.1105	3205.2846
CN=COC12CC1CC2	CN=CO[C@]12C[C@H]1CC2	
InChI=1S/C7H11NO/c1-8-5-9-7-3-2-6(7)4-7/h5-6H,2-4H2,1H3	InChI=1S/C7H11NO/c1-8-5-9-7-3-2-6(7)4-7/h5-6H,2-4H2,1H3/t6-,7-/m1/s1
