13
gdb 130767	3.49131	1.73921	1.16939	6.3472	66.17	-0.2459	-0.0594	0.1865	947.4593	0.09175	-452.773113	-452.766794	-452.76585	-452.803993	24.137	
O	 0.0646880948	-0.0298177702	 0.0017219088	-0.399288
C	 0.0382088135	 1.1671775438	 0.0080417633	 0.510321
O	-1.1038030392	 1.9470780808	 0.0299245931	-0.249104
N	-0.7831083024	 3.3412292504	 0.0320676839	-0.244045
C	 0.5093705913	 3.3462534161	 0.0126094225	 0.453257
C	 1.593001904	 4.3159802216	 0.0008175264	-0.19135
C	 2.7463575686	 3.6262836104	-0.0203584316	-0.077221
C	 2.5099956937	 2.1275049956	-0.0241943552	-0.236268
N	 1.0609462412	 2.0926302575	-0.0020279234	-0.171032
H	 1.4612992751	 5.3870770264	 0.0082187914	 0.148788
H	 3.7424019693	 4.047826555	-0.0335428233	 0.137724
H	 2.9157703168	 1.6383529049	-0.9183502553	 0.15911
H	 2.9431392233	 1.6294705478	 0.8520365394	 0.159109
130.8438	197.2186	303.1496	316.8567	460.8792	593.5019	654.926	674.8204	676.6294	742.1703	795.2649	803.0811	872.923	887.7063	940.9035	961.0609	1010.9569	1072.8235	1103.1452	1153.6234	1190.2139	1282.612	1351.1591	1364.0498	1448.66	1500.9613	1613.6974	1678.848	1896.2727	3032.1798	3063.1828	3233.4257	3265.7834
O=C1ON=C2C=CCN12	O=c1onc2C=CCn12	
InChI=1S/C5H4N2O2/c8-5-7-3-1-2-4(7)6-9-5/h1-2H,3H2	InChI=1S/C5H4N2O2/c8-5-7-3-1-2-4(7)6-9-5/h1-2H,3H2
