17
gdb 43193	2.52543	1.71845	1.22134	3.5509	72.85	-0.2415	-0.0416	0.2	1032.1162	0.135566	-421.787854	-421.780178	-421.779234	-421.82042	29.072	
O	-0.0775300735	 0.1863201424	-0.8778619434	-0.301739
C	-0.0942402722	 1.2594400957	-0.3500460685	 0.34372
C	-1.1971293213	 2.2275989659	 0.1068029467	-0.162042
C	-1.5345875455	 2.1368749379	 1.6320479173	-0.234122
C	-0.5139516909	 3.2750512586	 1.9351344311	-0.224813
C	-0.0822576801	 3.2954849461	 0.4452820111	-0.149399
C	 0.9888749242	 2.2570823242	 0.0686422032	 0.340174
C	 2.3308152258	 1.9963450922	 0.6126156207	-0.252893
O	 2.1496430185	 2.5216946394	-0.6995275367	-0.259717
H	-2.0233961272	 2.3905259305	-0.5847135766	 0.098981
H	-2.5706618428	 2.395597237	 1.8566346297	 0.119004
H	-1.3209030581	 1.1683235072	 2.0906885818	 0.11644
H	-1.0000219114	 4.2023415901	 2.2463421665	 0.111257
H	 0.275267226	 3.0454565939	 2.656101377	 0.103163
H	 0.0053438794	 4.2503222752	-0.07150416	 0.093535
H	 2.7456460905	 2.6896034465	 1.3434696901	 0.124117
H	 2.6966175987	 0.9720060869	 0.6608127501	 0.134333
63.6294	170.8833	182.6949	225.315	248.3658	368.0526	462.2648	597.3274	630.1861	719.2145	769.9592	782.4163	824.0504	842.9691	884.7261	914.4821	938.5822	957.3976	993.2673	1015.8942	1080.7935	1093.6019	1102.964	1132.6451	1155.3357	1190.1985	1200.4201	1219.4611	1243.7852	1265.9683	1278.0587	1292.1211	1410.6607	1479.6139	1496.1731	1516.7253	1886.4869	3060.6205	3070.692	3082.6152	3104.6323	3118.5061	3123.8776	3132.0433	3176.9613
O=C1C2CCC2C11CO1	O=C1[C@H]2CC[C@H]2[C@]21CO2	
InChI=1S/C7H8O2/c8-6-4-1-2-5(4)7(6)3-9-7/h4-5H,1-3H2	InChI=1S/C7H8O2/c8-6-4-1-2-5(4)7(6)3-9-7/h4-5H,1-3H2/t4-,5+,7-/m0/s1
