17
gdb 74163	2.67802	1.293	0.93973	3.6646	82.61	-0.2373	-0.0445	0.1928	1231.4037	0.134366	-384.702336	-384.693528	-384.692584	-384.736206	32.631	
C	 0.0487094762	 1.4668996805	 0.0562106002	-0.490872
C	 0.0251148695	-0.0202188	-0.0448131377	 0.338661
C	-0.0804694823	-0.7687732188	-1.1513692844	-0.298474
C	-0.0784240866	-2.2102996889	-0.8377003792	 0.390111
O	-0.2051319776	-3.1315746984	-1.6102222401	-0.331929
C	 0.1179006297	-2.3401345004	 0.680904002	-0.351651
C	 0.0948702753	-0.8866839164	 1.2198960275	-0.260403
C	 1.2265613598	-0.5451855324	 2.0770386926	 0.327659
C	 2.1660006121	-0.2644587635	 2.7726056265	-0.472823
H	 0.9576292926	 1.7993223347	 0.5700252519	 0.155234
H	 0.0011351602	 1.9410773269	-0.9262633824	 0.135093
H	-0.7961309247	 1.8263652429	 0.6576136653	 0.138849
H	-0.172903385	-0.397879819	-2.1647791328	 0.113422
H	-0.6625638955	-2.9700931976	 1.1138144336	 0.135525
H	 1.0763817521	-2.8271672845	 0.8780267545	 0.147478
H	-0.8262334405	-0.7143078292	 1.7958137235	 0.121595
H	 2.9932855748	-0.0238318459	 3.393719629	 0.202524
52.1866	134.9548	140.7489	179.9093	217.5136	292.1835	409.4009	432.7362	505.4344	538.9145	570.5812	585.5561	627.8097	643.6174	672.1882	796.6102	846.4304	877.5926	944.0573	994.4024	1019.1564	1054.3868	1071.1759	1150.9759	1177.4496	1191.0268	1242.1332	1270.348	1312.9921	1323.9335	1409.7398	1454.7027	1473.3527	1479.2077	1686.5793	1815.5453	2234.8241	2996.8152	3027.3372	3076.2052	3081.4283	3122.0316	3129.4218	3214.2525	3501.9673
CC1=CC(=O)CC1C#C	CC1=CC(=O)C[C@H]1C#C	
InChI=1S/C8H8O/c1-3-7-5-8(9)4-6(7)2/h1,4,7H,5H2,2H3	InChI=1S/C8H8O/c1-3-7-5-8(9)4-6(7)2/h1,4,7H,5H2,2H3/t7-/m1/s1
