18
gdb 46942	2.77909	1.80833	1.36629	3.1074	74.71	-0.2072	-0.0124	0.1948	963.4752	0.15103	-401.934445	-401.927602	-401.926658	-401.965612	28.141	
O	 0.0554815498	-0.0369901952	 0.0754963614	-0.329796
C	-0.0195661275	 1.17003449	-0.0173348575	 0.386287
C	-1.3790219271	 1.8612033764	-0.1716066197	-0.294427
N	-1.3788393845	 3.2034099285	-0.7665314668	-0.291601
C	-0.227256357	 4.0051007856	-0.3858668076	-0.013407
C	 0.0908271818	 4.0177943495	 1.1491159589	-0.24672
C	 1.3969556806	 3.2842305443	 0.8547250644	-0.069563
C	 1.1836306862	 3.4078021785	-0.6370642953	-0.100619
C	 1.1966903431	 2.0323786046	-0.0071835377	-0.1287
H	-2.0220526984	 1.1966054048	-0.753808501	 0.129513
H	-1.8268817801	 1.9074680172	 0.8315035034	 0.13542
H	-1.409874815	 3.1240725718	-1.7779373817	 0.220959
H	-0.3448076274	 5.0079339869	-0.801457986	 0.085519
H	 0.2728911691	 5.0360733876	 1.5000151155	 0.11233
H	-0.6289172591	 3.5466425192	 1.8231620193	 0.107387
H	 2.3174842345	 3.3755419967	 1.4182042035	 0.09935
H	 1.8779297994	 3.683016119	-1.4220657847	 0.092211
H	 2.1111439817	 1.4605930646	-0.1315341085	 0.105858
94.1302	236.337	307.8778	372.7907	432.0762	475.8837	506.863	570.8856	655.1082	705.7931	757.2735	784.0065	824.5513	831.4355	885.9483	918.3505	946.0752	968.822	998.3293	1024.5805	1043.2645	1072.0359	1075.3714	1101.5562	1141.0305	1172.2084	1230.0933	1243.8064	1258.1022	1262.9788	1295.853	1321.2917	1339.0906	1378.4676	1398.6452	1459.3021	1479.7602	1504.1629	1792.1343	3009.9226	3065.9519	3084.3233	3102.9638	3114.1631	3164.365	3177.7813	3192.9871	3515.9447
O=C1CNC2CC3C2C13	O=C1CN[C@H]2C[C@@H]3[C@H]2[C@H]13	
InChI=1S/C7H9NO/c9-5-2-8-4-1-3-6(4)7(3)5/h3-4,6-8H,1-2H2	InChI=1S/C7H9NO/c9-5-2-8-4-1-3-6(4)7(3)5/h3-4,6-8H,1-2H2/t3-,4+,6-,7+/m1/s1
