21
gdb 6275	2.82002	1.2082	1.05697	3.8035	78.8	-0.3118	0.0362	0.348	1255.4172	0.187158	-329.16158	-329.15165	-329.150706	-329.196504	35.676	
C	-0.0029511247	 1.6251512676	-0.0619478762	-0.39183
C	 0.0457271027	 0.1101357488	 0.1798819965	 0.024936
C	 0.6507329522	-0.1998072542	 1.5566859134	-0.38862
C	-1.3593979249	-0.492253542	 0.0041495774	-0.170874
C	-1.4517942207	-2.0342508275	 0.075605642	-0.144027
C	-2.9021748407	-2.5281395584	-0.0930929373	-0.395171
C	-0.583084046	-2.6585304424	-0.9294891245	 0.280185
N	 0.0951149523	-3.1456039801	-1.7292705574	-0.336094
H	 0.9958324776	 2.0666149929	 0.012283209	 0.11539
H	-0.4001275006	 1.8593956057	-1.0550887136	 0.114339
H	-0.6407950148	 2.1222940654	 0.6790153039	 0.111407
H	 0.6968853947	-0.3325432632	-0.5855514033	 0.101897
H	 0.788834024	-1.2731724772	 1.7186294722	 0.117332
H	 1.6332256243	 0.2709846472	 1.6612855735	 0.11844
H	 0.0124554128	 0.184075431	 2.3621270261	 0.110236
H	-2.0273240411	-0.0909360066	 0.7779322599	 0.098817
H	-1.7711980042	-0.1712587085	-0.9603726631	 0.107887
H	-1.0884768404	-2.3666788082	 1.0554837456	 0.127542
H	-3.5310077346	-2.0982028526	 0.6916457754	 0.12481
H	-3.3055349791	-2.2241957467	-1.0631642134	 0.13712
H	-2.9598216688	-3.6172457506	-0.0254640362	 0.136274
42.9724	95.352	141.0625	208.5877	219.1773	227.0417	250.3488	273.3911	314.7236	361.3575	426.6577	434.8046	559.3558	596.6562	778.7259	816.433	894.3745	921.5481	933.3008	966.6307	985.6466	1025.5168	1063.0409	1124.3372	1154.7281	1173.0787	1195.5732	1253.0439	1299.208	1338.3039	1356.0314	1375.9501	1386.4136	1403.3586	1414.0848	1425.0453	1477.4675	1488.2929	1493.3992	1496.4365	1500.9934	1505.8789	1512.0132	2352.4119	3015.5521	3021.7048	3024.0473	3031.4735	3039.1848	3047.0371	3065.985	3089.7818	3096.2046	3102.8803	3105.9874	3122.5585	3127.6191
CC(C)CC(C)C#N	CC(C)C[C@@H](C)C#N	
InChI=1S/C7H13N/c1-6(2)4-7(3)5-8/h6-7H,4H2,1-3H3	InChI=1S/C7H13N/c1-6(2)4-7(3)5-8/h6-7H,4H2,1-3H3/t7-/m1/s1
