20
gdb 82801	2.92466	1.58766	1.54948	2.6445	77.35	-0.213	0.0746	0.2875	982.8282	0.173411	-403.092494	-403.085088	-403.084144	-403.124222	30.073	
C	-0.164645738	 1.5303748528	 0.0486799281	-0.432236
C	-0.00362391	 0.0226401533	-0.0339065997	 0.005744
C	 0.524706314	-0.8177795855	-1.1554702939	-0.041659
C	 1.3089928841	-0.362600889	-2.369962268	 0.064941
C	 1.9951384064	 1.0114432749	-2.2523144598	-0.259872
C	 3.0086766434	 0.1821745503	-1.4444802146	 0.090021
C	 2.5705348831	-0.0489415894	 0.0126721463	-0.178553
N	 1.2593501277	-0.7185465588	 0.1227722972	-0.107499
O	 2.6314882722	-0.989908938	-2.2257326906	-0.291893
H	 0.7812731543	 2.073611032	 0.0305554503	 0.128957
H	-0.7918325952	 1.9168875587	-0.7611241347	 0.129609
H	-0.6558093398	 1.7844288965	 0.9926851529	 0.123769
H	-0.7930258897	-0.4817624595	 0.5243177734	 0.093114
H	 0.0514209499	-1.7879783476	-1.3098642865	 0.09158
H	 0.8244659901	-0.637877961	-3.3095706198	 0.077621
H	 2.4161453465	 1.3032965451	-3.2160897334	 0.112136
H	 1.4810068248	 1.8545947017	-1.8002432745	 0.100428
H	 4.0759622853	 0.4082333312	-1.5195177341	 0.076324
H	 3.2993376234	-0.7155676706	 0.4873021058	 0.117182
H	 2.5880278576	 0.8952050929	 0.5722770456	 0.100285
84.6615	174.4553	252.092	296.1492	383.1522	435.2617	479.0791	541.5309	597.4689	637.367	722.4941	748.4897	801.6866	837.6606	869.2884	889.589	938.5525	948.4367	983.5733	995.0273	1033.4577	1056.6545	1078.2121	1098.9847	1116.1487	1140.2238	1166.9368	1169.958	1207.7769	1236.9855	1254.8043	1320.3385	1324.2664	1339.1188	1355.0866	1377.4436	1397.7342	1420.1813	1433.5665	1483.991	1490.274	1501.741	1522.0577	3022.1572	3045.0735	3059.6763	3072.9629	3078.4628	3084.8267	3094.5159	3101.1627	3105.1311	3132.7227	3179.8437
CC1C2C3CC(CN12)O3	C[C@H]1[C@H]2[C@H]3C[C@@H](CN12)O3	
InChI=1S/C7H11NO/c1-4-7-6-2-5(9-6)3-8(4)7/h4-7H,2-3H2,1H3	InChI=1S/C7H11NO/c1-4-7-6-2-5(9-6)3-8(4)7/h4-7H,2-3H2,1H3/t4-,5-,6+,7-,8?/m0/s1
