21
gdb 73203	2.45983	1.68838	1.39493	1.7132	82.28	-0.2359	0.0233	0.2592	1050.2035	0.183722	-387.097002	-387.088829	-387.087885	-387.129423	32.453	
C	-0.1928527717	 1.6341881739	 0.2483146276	-0.443421
C	 0.0119379468	 0.1348606926	 0.0876778045	 0.429169
C	-1.2937556049	-0.5887792912	-0.2634754119	-0.295025
C	-1.2317497553	-2.0789364206	-0.0525534996	-0.048166
C	-0.4981737608	-2.6331108377	 0.911068032	-0.064415
C	 0.3455068521	-1.8054542344	 1.8477484497	-0.28301
C	 0.9013667431	-0.5479014325	 1.1732686891	-0.103331
C	 1.8912148582	-0.7738094987	 0.012876285	-0.076595
O	 1.0152237521	-0.1387924374	-0.9346504005	-0.326167
H	 0.7641702866	 2.1367781729	 0.4151694101	 0.1166
H	-0.6469012611	 2.0586476599	-0.6535698354	 0.121418
H	-0.8516038799	 1.849239916	 1.0969784746	 0.111336
H	-2.1143472248	-0.1674257647	 0.3366949975	 0.103889
H	-1.5292189956	-0.3526486918	-1.3076227323	 0.113903
H	-1.8419980785	-2.702230539	-0.7004477537	 0.085871
H	-0.5060028132	-3.7101723507	 1.0538362546	 0.085023
H	-0.2516676609	-1.5179462777	 2.7261153356	 0.109771
H	 1.1777618639	-2.4009497274	 2.2434466983	 0.103829
H	 1.2672413514	 0.1560610205	 1.9249039407	 0.069284
H	 2.8544744678	-0.2548235283	 0.0979647107	 0.092532
H	 2.0728870949	-1.8258244838	-0.2419329366	 0.097504
96.5962	129.859	222.4443	270.1476	301.1774	334.8777	391.2412	408.9664	508.2622	533.5049	634.7479	692.1715	748.7525	809.5954	866.6926	890.9711	908.8692	919.7544	943.4878	989.6201	994.2814	1020.966	1032.9764	1081.689	1100.1355	1107.6247	1155.2823	1167.4243	1177.7125	1223.1247	1244.0983	1266.4978	1283.3662	1324.2499	1348.3402	1363.3628	1392.7828	1405.9697	1415.9692	1458.8233	1479.303	1483.7909	1492.2979	1520.2751	1720.7575	2994.2045	2996.1089	3005.8037	3029.8857	3040.8336	3045.6559	3058.799	3072.7588	3099.7814	3111.3763	3151.6032	3174.9567
CC12CC=CCC1CO2	C[C@]12CC=CC[C@H]1CO2	
InChI=1S/C8H12O/c1-8-5-3-2-4-7(8)6-9-8/h2-3,7H,4-6H2,1H3	InChI=1S/C8H12O/c1-8-5-3-2-4-7(8)6-9-8/h2-3,7H,4-6H2,1H3/t7-,8-/m0/s1
