15
gdb 46222	2.78494	1.37108	1.10387	5.5627	71.99	-0.2753	-0.0056	0.2698	1092.3003	0.112991	-416.799267	-416.791396	-416.790452	-416.832059	28.935	
N	-0.047889097	 1.2084523354	-0.2025083133	-0.5405
C	-0.0149706201	-0.0203096934	 0.0228126531	 0.408233
O	 1.0126753762	-0.8621848584	 0.4183347597	-0.262919
C	 0.1213565638	-2.0217684457	 0.4574604976	-0.149753
C	-1.024400092	-1.1216159075	 0.0059929369	 0.184918
C	-2.4631886978	-1.0578262597	 0.3948765692	-0.338698
C	-2.091474656	-1.402481266	-1.0360800348	-0.243356
C	-2.3429512707	-0.4802745166	-2.1091260266	 0.316427
N	-2.5648551567	 0.2310245874	-2.9930594747	-0.327601
H	 0.8623863289	 1.6520960945	-0.079787584	 0.239087
H	 0.4453312631	-2.7922559556	-0.2465415779	 0.132344
H	 0.0486557547	-2.4265044759	 1.4703510996	 0.131679
H	-2.875773307	-1.8567217341	 1.0007940606	 0.139085
H	-2.8692401889	-0.0695599585	 0.5775975001	 0.168418
H	-2.1954317903	-2.4451528559	-1.3217177155	 0.142636
95.1565	102.7348	171.1582	237.5514	256.6672	329.76	460.6853	492.3024	539.6123	639.255	719.6593	768.7439	784.3354	847.9368	872.6629	898.2441	958.8476	976.0514	992.0619	1069.0449	1076.6348	1097.2669	1126.1369	1148.26	1178.6557	1242.6103	1303.1939	1363.1391	1430.5136	1486.4833	1513.2589	1838.7173	2362.3521	3059.381	3118.8317	3142.5378	3157.985	3239.6929	3499.2905
N=C1OCC11CC1C#N	[NH][C]1OC[C@]21C[C@H]2C#N	
InChI=1S/C6H6N2O/c7-2-4-1-6(4)3-9-5(6)8/h4,8H,1,3H2	InChI=1S/C6H6N2O/c7-2-4-1-6(4)3-9-5(6)8/h4,8H,1,3H2/t4-,6+/m0/s1
