13
gdb 21812	6.83382	1.22084	1.12737	2.1963	60.57	-0.261	-0.0425	0.2184	1001.6166	0.096212	-394.78658	-394.779486	-394.778541	-394.820695	23.658	
O	-0.0807786279	 0.0328273291	 0.4502309911	-0.220209
C	 0.0554343344	 1.0110209968	-0.2301251846	 0.152917
C	 1.2843066316	 1.9171549261	-0.1272122084	-0.228061
N	 1.3233436058	 2.9189551105	-1.1662051074	 0.141878
N	 1.6625970526	 2.6172439325	-2.4163763875	-0.228131
C	 1.5055264507	 3.7707366915	-3.0678403881	-0.053768
C	 1.0587908602	 4.7405273181	-2.1595390904	-0.057488
N	 0.9438595214	 4.1766399235	-0.9560078907	-0.223271
H	-0.7009080154	 1.3353647205	-0.9772592916	 0.106578
H	 1.2631421728	 2.4366598899	 0.8337033199	 0.175246
H	 2.1854404723	 1.3015927423	-0.1769810359	 0.170275
H	 1.7174965645	 3.8465729843	-4.1221852793	 0.132
H	 0.8267932871	 5.7827053348	-2.3086889569	 0.132033
13.4272	50.7422	109.1548	333.9582	369.1697	435.0718	680.9039	692.1561	705.6179	819.3877	852.108	903.6256	981.2894	993.7282	1023.2354	1048.9078	1098.3882	1168.4159	1233.4808	1296.0633	1326.4204	1368.0085	1405.211	1416.544	1430.6144	1444.7913	1507.1109	1846.9308	2906.7947	3081.9541	3139.5278	3266.1112	3283.1382
O=CCN1N=CC=N1	O=CCn1nccn1	
InChI=1S/C4H5N3O/c8-4-3-7-5-1-2-6-7/h1-2,4H,3H2	InChI=1S/C4H5N3O/c8-4-3-7-5-1-2-6-7/h1-2,4H,3H2
