18
gdb 124511	3.49972	1.13291	1.05276	2.861	79.72	-0.2345	-0.0693	0.1652	1219.527	0.148228	-398.148084	-398.139584	-398.13864	-398.181934	31.041	
C	-0.0335387701	 1.5876403795	 0.2159542113	-0.397398
C	-0.0410857927	 0.0610289972	 0.0182572389	-0.062819
C	 0.864766715	-0.6440656104	 1.0438383692	-0.397483
C	-1.4477795754	-0.4939123198	 0.0475351676	 0.344823
C	-2.2837986552	-0.415376536	 1.1730842769	-0.036991
N	-3.5097277574	-0.9123881344	 1.1620857386	-0.231782
C	-3.8664242486	-1.482821972	 0.0038034276	 0.103813
N	-3.1230419395	-1.587372869	-1.0926653047	-0.18213
N	-1.8907403547	-1.0821077993	-1.0660199855	-0.248102
H	 0.9862808633	 1.9746873328	 0.1278690466	 0.123537
H	-0.6529562987	 2.0887667333	-0.5335449699	 0.129345
H	-0.408111669	 1.8676643812	 1.2068663144	 0.117355
H	 0.3345777925	-0.16024135	-0.9860211046	 0.106264
H	 0.5293249079	-0.4614660674	 2.0708436572	 0.117372
H	 0.8826823622	-1.7256643797	 0.8814084449	 0.129294
H	 1.8902344059	-0.2710068564	 0.9611440721	 0.123558
H	-1.9483472415	 0.0582392417	 2.0933190041	 0.124861
H	-4.8647759639	-1.9058894115	-0.0579394747	 0.136481
34.8284	118.761	201.1678	221.2922	255.9379	271.0814	304.5579	390.1103	474.4414	567.2776	589.8803	647.9477	803.7685	809.3901	900.0447	933.0825	947.8731	967.5239	1011.4599	1044.355	1072.8135	1104.267	1119.7664	1159.8248	1181.9868	1220.1576	1295.1036	1339.6794	1350.4646	1399.0772	1420.1999	1422.7437	1444.4721	1485.9264	1490.8716	1502.3918	1509.3972	1553.2724	1607.1537	3031.561	3034.4027	3057.8461	3097.9654	3105.6006	3112.5297	3114.4202	3150.6646	3185.4
CC(C)C1=CN=CN=N1	CC(C)c1cncnn1	
InChI=1S/C6H9N3/c1-5(2)6-3-7-4-8-9-6/h3-5H,1-2H3	InChI=1S/C6H9N3/c1-5(2)6-3-7-4-8-9-6/h3-5H,1-2H3
