17
gdb 64993	3.43004	1.06765	0.87414	4.8192	71.73	-0.2469	-0.0305	0.2164	1301.1665	0.135253	-455.171287	-455.161983	-455.161039	-455.206215	33.314	
N	-1.1848156902	 1.0526068295	-0.6243545669	-0.550233
C	-0.1330879924	 0.1829677671	-0.1710014584	 0.200411
C	 0.1021277285	 0.1732858873	 1.3306189221	-0.292693
C	-0.5820108477	-0.9919943147	 0.6824348552	-0.292626
C	 1.0337507461	 0.0278456391	-1.1239381539	 0.375716
O	 1.0560256981	 0.6036502426	-2.1834019179	-0.320412
N	 2.0738632524	-0.8192276167	-0.6982826651	-0.369414
C	 3.2506616661	-1.1314366176	-1.3764868786	 0.167709
O	 3.5906886936	-0.7316991608	-2.4537834632	-0.250546
H	-0.790902705	 1.9688038101	-0.8257605567	 0.240318
H	-1.5253765644	 0.7172385832	-1.5225214803	 0.240337
H	 1.1152781414	 0.0647329499	 1.7021542592	 0.115258
H	-0.5122600032	 0.8653812729	 1.8933005659	 0.14195
H	-1.653795462	-1.0791188804	 0.8117647997	 0.141962
H	-0.0604077168	-1.9381677158	 0.5877878992	 0.115265
H	 1.9779162085	-1.2632618206	 0.201901829	 0.253666
H	 3.8604003172	-1.8287637652	-0.7645491392	 0.08333
47.5816	60.4541	158.2831	181.4277	215.028	240.9525	302.9754	351.025	410.3376	424.1091	508.619	602.0433	637.6834	756.1142	783.489	865.528	880.477	916.5167	940.2676	947.4639	1026.7503	1037.2319	1056.462	1073.8439	1080.689	1161.0985	1195.3513	1291.0277	1298.3334	1343.7833	1447.9472	1464.5001	1492.6321	1510.0077	1676.5957	1795.9189	1869.3585	2912.8257	3139.5794	3142.9023	3226.2185	3238.8883	3483.9983	3546.0255	3626.9737
NC1(CC1)C(=O)NC=O	NC1(CC1)C(=O)NC=O	
InChI=1S/C5H8N2O2/c6-5(1-2-5)4(9)7-3-8/h3H,1-2,6H2,(H,7,8,9)	InChI=1S/C5H8N2O2/c6-5(1-2-5)4(9)7-3-8/h3H,1-2,6H2,(H,7,8,9)
