17
gdb 10933	4.27564	1.42162	1.30078	4.2063	73.	-0.2695	0.0333	0.3028	988.5804	0.142591	-326.720485	-326.712946	-326.712002	-326.752194	28.64	
C	-0.071994581	 1.5661523032	 0.0345294986	-0.499307
C	 0.0400956695	 0.0696450656	 0.015109525	 0.378363
C	-0.8388299048	-0.84110314	 0.8274072647	-0.338751
C	 0.6503573429	-0.8967802228	 1.0358407291	-0.088301
C	 1.2818844482	-1.73895549	-0.0910359971	-0.147008
C	 0.6638196954	-0.7349089384	-1.13656151	-0.304347
C	 2.735620287	-1.7649304442	-0.0893254837	 0.262101
N	 3.8919434771	-1.7780848294	-0.0824067728	-0.327614
H	 0.8788687932	 2.0411126858	-0.2312734097	 0.126167
H	-0.8295879203	 1.9151346485	-0.677505406	 0.124638
H	-0.3618387658	 1.9269871287	 1.0266182774	 0.122715
H	-1.3918889243	-0.3580302527	 1.6267898845	 0.118477
H	-1.3631255793	-1.6770070121	 0.3677002639	 0.107442
H	 1.1200347342	-0.6985867848	 1.9910864138	 0.107108
H	 0.9125627282	-2.7683098126	-0.1529188243	 0.119273
H	-0.0260433019	-1.172200445	-1.8647177376	 0.107718
H	 1.4423566917	-0.1848118198	-1.6679199259	 0.131327
92.1414	167.441	212.1275	269.818	313.417	358.779	416.8775	486.8196	556.2767	625.3407	742.5599	801.6324	828.6111	877.4761	930.0862	955.2249	980.6139	1019.1606	1029.5955	1054.6595	1077.0413	1094.7301	1123.6634	1163.9739	1210.3785	1241.5164	1255.5815	1292.628	1341.1422	1393.9739	1426.2814	1480.2581	1485.9247	1497.3388	1504.7835	2354.2956	3023.6842	3048.5944	3057.2529	3083.765	3099.2655	3100.6235	3124.0461	3190.9579	3200.0054
CC12CC1C(C2)C#N	C[C@]12C[C@H]1[C@@H](C2)C#N	
InChI=1S/C7H9N/c1-7-2-5(4-8)6(7)3-7/h5-6H,2-3H2,1H3	InChI=1S/C7H9N/c1-7-2-5(4-8)6(7)3-7/h5-6H,2-3H2,1H3/t5-,6-,7-/m0/s1
