18
gdb 77049	3.40621	0.96864	0.80096	2.2626	79.6	-0.2376	-0.026	0.2116	1410.2648	0.144165	-401.903281	-401.893778	-401.892834	-401.938086	34.358	
C	 0.0206949042	 1.6086334772	-0.0443339064	-0.397725
C	 0.0788452401	 0.0919717474	 0.0256062828	-0.057335
N	 0.7271246458	-0.6133250728	-1.1138876596	-0.097138
C	-0.155765398	-1.2502855609	-2.080038706	-0.318506
C	 0.5854873331	-1.9624683106	-3.1167069901	 0.302059
C	 1.1938916168	-2.5677969537	-3.9571324418	-0.421605
C	 1.5257434674	-1.4950964876	-0.2290858258	-0.290752
C	 1.1238183592	-0.5790796154	 0.9343351389	 0.383151
O	 1.4883312611	-0.4166879526	 2.0592379238	-0.287917
H	 1.0067078345	 2.0195702638	-0.2754563229	 0.131741
H	-0.6802802454	 1.940485108	-0.8167640613	 0.122215
H	-0.3131519127	 2.0137513143	 0.9158208944	 0.134813
H	-0.9183780603	-0.3240218297	 0.2621613604	 0.087133
H	-0.8581535033	-1.9579192302	-1.5932476331	 0.10896
H	-0.7734237998	-0.4707490381	-2.5436375728	 0.139057
H	 1.7314049442	-3.0950854647	-4.7060300723	 0.200929
H	 1.113541875	-2.509994317	-0.1020512824	 0.120619
H	 2.5882736979	-1.5728648374	-0.4762952559	 0.140301
60.0367	86.9639	119.8291	176.1782	191.6934	269.8917	280.8443	341.8108	378.4959	451.7306	505.88	575.6559	618.2607	662.2641	676.218	754.664	824.5933	901.6514	945.9616	974.3913	1019.445	1046.1319	1079.8934	1105.3871	1138.1504	1148.6764	1195.1285	1241.4924	1271.3075	1296.9074	1350.1288	1389.4201	1402.3514	1467.9404	1481.3561	1484.5045	1495.7888	1918.0617	2244.104	2889.7748	2932.7398	2976.8011	3038.7999	3041.306	3085.8043	3110.8124	3126.7509	3504.9514
CC1N(CC#C)CC1=O	C[C@H]1N(CC#C)CC1=O	
InChI=1S/C7H9NO/c1-3-4-8-5-7(9)6(8)2/h1,6H,4-5H2,2H3	InChI=1S/C7H9NO/c1-3-4-8-5-7(9)6(8)2/h1,6H,4-5H2,2H3/t6-/m1/s1
