20
gdb 120809	4.70053	0.61964	0.58785	2.265	82.48	-0.2464	0.0573	0.3037	1886.855	0.168931	-403.079741	-403.069427	-403.068483	-403.116307	36.772	
O	 0.0360308878	 1.3712151514	 0.3925527397	-0.422441
C	-0.060525082	-0.0433395015	 0.4574306085	-0.070633
C	-1.2843707985	-0.463902473	-0.3493613341	-0.181849
C	-1.4507036621	-1.9658119655	-0.3752285008	-0.032635
N	-2.0223436493	-2.603078068	 0.8272872927	-0.329045
C	-2.7560586378	-2.6780118636	-0.4415821177	-0.017174
C	-4.1057347875	-1.9757535536	-0.5042821052	-0.355346
C	-5.2008675965	-2.8509863887	-0.0983137089	 0.296376
C	-6.0876845197	-3.5938204858	 0.2274864645	-0.443039
H	 0.7660738143	 1.6490772366	 0.9531079374	 0.285622
H	 0.8428637499	-0.5232613247	 0.0437993419	 0.077481
H	-0.1757295446	-0.39541498	 1.493511047	 0.102573
H	-2.1637383714	 0.0161420191	 0.0884233963	 0.112273
H	-1.181004784	-0.0836773086	-1.3731003607	 0.106097
H	-0.6230708813	-2.4896604315	-0.8556108887	 0.081057
H	-1.5613941897	-3.484438053	 1.0330672556	 0.232235
H	-2.7478919145	-3.632549335	-0.9652051027	 0.092554
H	-4.0850480065	-1.0920518217	 0.1409042016	 0.142116
H	-4.28268635	-1.6197954885	-1.5280212237	 0.130234
H	-6.8784171665	-4.2374849546	 0.5230604671	 0.193546
39.1602	71.3127	81.8142	113.6393	154.6543	236.5176	254.877	333.1952	336.094	373.5173	482.6702	489.6478	554.9537	613.7901	638.6465	779.6055	827.1857	860.7251	877.062	947.8641	970.902	998.3599	1019.4263	1039.9875	1065.5346	1083.3818	1150.4058	1189.0011	1221.2736	1237.5139	1260.5361	1268.8165	1275.8392	1313.7075	1317.6381	1332.0792	1418.2257	1456.9704	1460.2297	1479.6254	1485.1022	1528.5824	2239.5191	2955.5345	3004.9942	3023.3505	3041.1981	3078.5559	3088.636	3105.2297	3122.6987	3508.0454	3513.4321	3830.8375
OCCC1NC1CC#C	OCC[C@H]1N[C@H]1CC#C	
InChI=1S/C7H11NO/c1-2-3-6-7(8-6)4-5-9/h1,6-9H,3-5H2	InChI=1S/C7H11NO/c1-2-3-6-7(8-6)4-5-9/h1,6-9H,3-5H2/t6-,7+/m0/s1
