15
gdb 5759	6.1502	1.45605	1.29805	2.2922	68.09	-0.2243	0.0057	0.23	933.1164	0.120937	-362.682535	-362.675961	-362.675017	-362.713812	24.556	
C	-0.1290650484	 1.4618426193	-0.0578118506	-0.265329
C	 1.2697643494	 0.9561851272	 0.1464720835	-0.265355
C	 0.1220587956	-0.0311484177	 0.044602455	-0.108799
C	-0.3235720183	-0.7915407875	 1.2133229932	 0.363153
C	-0.8066512731	-2.0457256052	 1.4073956767	-0.215833
N	-1.0739860354	-2.2411238093	 2.7599663533	-0.254381
C	-0.7479197502	-1.1204766025	 3.3077428969	 0.066442
O	-0.2818353939	-0.1829680968	 2.4431870548	-0.187926
H	-0.6222767843	 1.9359932506	 0.7826911984	 0.129833
H	-0.4038518174	 1.8569174675	-1.0292188589	 0.119801
H	 1.9662551673	 1.0001927329	-0.683100567	 0.119799
H	 1.717307371	 1.090304714	 1.1243454285	 0.129858
H	 0.0505391049	-0.6006409558	-0.8755312468	 0.100749
H	-0.980568412	-2.8188077307	 0.6763890783	 0.120893
H	-0.7964486154	-0.8371622959	 4.3471720549	 0.147096
66.1781	162.9916	174.9024	402.3926	413.0022	632.6959	664.3192	704.2946	790.2426	818.5626	821.9481	838.4592	904.0425	909.9279	939.9198	981.8087	1056.4011	1065.4893	1084.0654	1121.4608	1124.5696	1125.444	1203.1648	1209.0724	1243.7494	1266.557	1357.5235	1380.3951	1464.2178	1494.4754	1559.1568	1641.0084	3139.5423	3142.8494	3172.7386	3223.5612	3238.6903	3266.4644	3278.9853
C1CC1C1=CN=CO1	C1CC1c1cnco1	
InChI=1S/C6H7NO/c1-2-5(1)6-3-7-4-8-6/h3-5H,1-2H2	InChI=1S/C6H7NO/c1-2-5(1)6-3-7-4-8-6/h3-5H,1-2H2
