17
gdb 49703	3.42951	1.37085	1.25128	1.134	73.35	-0.2445	-0.0438	0.2007	1023.5472	0.136735	-421.835782	-421.8281	-421.827156	-421.868894	28.739	
O	-1.0404473882	 1.2166802476	 0.0058467216	-0.247139
C	 0.0967669407	 1.0028631661	-0.3393569442	 0.117495
C	 1.2478374172	 1.9701158424	-0.2423260265	-0.100642
C	 1.1165600771	 3.4422327732	-0.8110036073	-0.158937
C	-0.0689701334	 4.0323159502	-0.0156980991	-0.220606
C	 0.2648981781	 3.4909753358	 1.4186337637	-0.220609
C	 1.5658568043	 2.7137943625	 1.1191465034	-0.15894
C	 2.2699800308	 3.7114003627	 0.1769170258	 0.438357
O	 3.3036844765	 4.3064616781	 0.1608723697	-0.317864
H	 0.3725627098	 0.0163324798	-0.775574361	 0.089841
H	 2.1487472999	 1.489861819	-0.633275242	 0.099003
H	 1.1951354363	 3.6491617553	-1.8760848099	 0.0927
H	-0.0704859901	 5.1241001869	-0.068386359	 0.112479
H	-1.0290699398	 3.6619772595	-0.3733846559	 0.134842
H	 0.4442904479	 4.2893687542	 2.1433102124	 0.112483
H	-0.5234701724	 2.8421784764	 1.7986673501	 0.134835
H	 2.0820596053	 2.2111675305	 1.9341879181	 0.092702
31.1257	141.1272	197.2407	229.3103	294.7351	349.4958	478.3948	629.532	643.7518	687.4265	730.7314	751.7572	840.1574	873.7434	897.2749	904.2986	976.4842	980.3428	1010.4897	1010.7911	1062.189	1082.3792	1128.8355	1132.9052	1165.3059	1189.9597	1236.7453	1249.4964	1254.7468	1319.4556	1327.6783	1391.8709	1434.4726	1486.657	1503.6979	1808.452	1908.8551	2874.2306	3069.29	3077.8077	3079.2606	3133.4246	3144.2388	3148.4556	3151.2702
O=CC1C2CCC1C2=O	O=C[C@H]1[C@H]2CC[C@@H]1C2=O	
InChI=1S/C7H8O2/c8-3-6-4-1-2-5(6)7(4)9/h3-6H,1-2H2	InChI=1S/C7H8O2/c8-3-6-4-1-2-5(6)7(4)9/h3-6H,1-2H2/t4-,5+,6+
