20
gdb 121661	6.00181	0.58168	0.5579	3.5142	77.6	-0.2564	-0.0225	0.2339	1970.9817	0.169526	-440.272152	-440.261988	-440.261044	-440.308985	35.232	
O	-0.0495486165	 1.4978728158	-0.0327253147	-0.418739
C	 0.0061917774	 0.1000904071	-0.2649830277	-0.077682
C	-1.3390772889	-0.4906092629	 0.134809871	-0.164447
C	-1.3951971315	-2.0026779825	-0.0663936896	-0.318618
C	-2.7370239246	-2.6204479815	 0.2821470472	 0.380554
O	-3.7102994511	-1.9582523468	 0.5809047231	-0.332726
C	-2.8182210411	-4.1164968836	 0.2394786902	-0.100574
C	-3.4527690731	-4.7762256238	 1.427765264	-0.21731
N	-4.156897843	-4.7177450659	 0.1555307867	-0.303432
H	 0.7955767556	 1.880402791	-0.2855279688	 0.286299
H	 0.2105862717	-0.1212755234	-1.3262745149	 0.082851
H	 0.8123943105	-0.3704573447	 0.3231286962	 0.081733
H	-1.5390729227	-0.245453171	 1.1828735022	 0.12004
H	-2.1308251944	-0.0092005009	-0.4468716334	 0.126462
H	-1.1779305099	-2.2725144516	-1.111282032	 0.128842
H	-0.623196478	-2.5190533173	 0.522690668	 0.123882
H	-2.0318400697	-4.6400757972	-0.2965034424	 0.096278
H	-3.1038439382	-5.7602553694	 1.7273875712	 0.125993
H	-3.7765614565	-4.1224370021	 2.2327888769	 0.132184
H	-4.821914936	-3.9434612492	 0.1924888169	 0.24841
39.3181	50.972	99.7544	102.5774	135.8034	250.2539	260.642	264.0331	292.0746	336.3419	491.9403	576.9466	681.0704	758.5771	816.4016	852.4726	872.2522	899.5777	972.0547	1007.2638	1019.7898	1045.5658	1077.0101	1098.9098	1108.4573	1124.1749	1137.6013	1183.7231	1206.9445	1239.7298	1288.6985	1293.6266	1305.4767	1311.0801	1324.1802	1378.4385	1410.1383	1450.2633	1466.0352	1492.0676	1497.4441	1526.702	1784.0894	2950.2447	2974.1646	3002.5121	3029.8717	3060.6038	3104.1426	3112.5768	3152.9803	3206.429	3457.8382	3831.6569
OCCCC(=O)C1CN1	OCCCC(=O)[C@H]1CN1	
InChI=1S/C6H11NO2/c8-3-1-2-6(9)5-4-7-5/h5,7-8H,1-4H2	InChI=1S/C6H11NO2/c8-3-1-2-6(9)5-4-7-5/h5,7-8H,1-4H2/t5-/m1/s1
