20
gdb 113499	3.3143	0.99443	0.88987	2.472	82.23	-0.2307	-0.0214	0.2093	1395.221	0.169876	-403.133338	-403.124057	-403.123112	-403.168002	34.181	
C	 0.3354419749	 1.4997322283	 0.2257745296	-0.373168
C	-0.1952058989	 0.1316472969	-0.2178868377	-0.187584
C	 0.6006012988	-0.4651739406	-1.3583369945	-0.039086
C	 1.8764769949	-1.2196796093	-1.0954766528	-0.356146
C	 0.6440049158	-1.968425893	-1.5370062221	 0.206048
N	-0.1478137092	-2.9551598207	-0.773178812	-0.379349
C	-0.3663969451	-3.778572786	-2.0076683482	-0.286968
C	 0.4117178301	-2.7172839695	-2.8143962237	 0.326578
O	 0.6963990089	-2.5512493751	-3.9652596264	-0.309865
H	 1.3738772875	 1.4294778404	 0.5661963838	 0.116335
H	 0.3058043948	 2.2225898605	-0.5967285743	 0.116858
H	-0.2624325025	 1.9055606187	 1.0477244472	 0.113557
H	-0.191767714	-0.567816678	 0.6257858387	 0.102689
H	-1.2443844398	 0.2220435351	-0.5245004885	 0.106002
H	 0.5673424288	 0.0882874491	-2.2946808298	 0.103681
H	 2.6988255046	-1.1487910144	-1.799891871	 0.132477
H	 2.1725540337	-1.3546103782	-0.0583997311	 0.118665
H	 0.4233273979	-3.4533080451	-0.0980258087	 0.224159
H	 0.1085770197	-4.7660845105	-2.0067125178	 0.128155
H	-1.4213165011	-3.8907556085	-2.2771345007	 0.136962
60.6772	91.4397	114.8891	142.8332	225.8394	243.7597	283.7187	382.8895	428.6885	513.2642	563.986	624.9802	717.147	770.8378	795.0628	811.2746	848.471	893.2549	945.1195	968.0453	980.2171	1026.5016	1045.2667	1054.7568	1065.893	1103.0182	1123.2709	1139.7768	1192.4102	1218.614	1271.5247	1292.7118	1306.3709	1348.7547	1366.7591	1408.7298	1422.7317	1464.4983	1477.5531	1485.7397	1498.0134	1507.4871	1896.0832	3031.8026	3033.4812	3040.0734	3064.7944	3091.1749	3101.4491	3105.2542	3117.3072	3133.1932	3208.2395	3517.3623
CCC1CC11NCC1=O	CC[C@H]1C[C@]21NCC2=O	
InChI=1S/C7H11NO/c1-2-5-3-7(5)6(9)4-8-7/h5,8H,2-4H2,1H3	InChI=1S/C7H11NO/c1-2-5-3-7(5)6(9)4-8-7/h5,8H,2-4H2,1H3/t5-,7+/m0/s1
