16
gdb 66545	3.09295	1.82036	1.4849	4.066	70.91	-0.2365	-0.0122	0.2243	906.8884	0.124807	-400.675488	-400.668694	-400.667749	-400.706555	27.118	
C	-0.0250058345	 1.4262418987	 0.0938961113	-0.51683
C	-0.0639744725	-0.0676863317	 0.0407027305	 0.343376
C	 0.4563654857	-1.036588237	-1.007453094	-0.173378
C	 1.1490592243	-0.9949968477	 0.3217587315	-0.088628
N	 0.5368549994	-2.2514323197	 0.8619204653	-0.21628
C	-0.4373750138	-2.1023496264	-0.3310043548	-0.000597
C	-1.1879741322	-1.0261360362	 0.5317487325	-0.275623
C	-0.5440074865	-1.711501895	 1.7376850371	 0.439442
O	-0.7640544845	-1.8830389979	 2.8909908023	-0.303385
H	 0.9316371015	 1.7992597519	-0.2885174649	 0.127736
H	-0.8199628947	 1.8756625125	-0.5112894496	 0.127303
H	-0.1364668806	 1.7903155048	 1.1216095438	 0.13435
H	 0.8213415289	-0.8955255903	-2.0148736217	 0.105083
H	 2.1298883486	-0.6448128812	 0.6141991575	 0.106283
H	-0.8807535519	-3.0036977072	-0.744310791	 0.099233
H	-2.2334568772	-0.7363354577	 0.4585128041	 0.091915
121.8829	202.8129	240.9483	276.9955	415.5008	573.5363	603.891	620.7879	727.6154	755.0629	788.562	826.5745	834.0235	869.3801	890.4663	902.8834	914.2577	963.8246	969.2279	1019.8429	1038.5501	1072.4302	1099.5371	1136.7138	1147.1395	1155.4373	1194.2667	1218.083	1237.2294	1288.0133	1402.5988	1425.9853	1481.7315	1498.9689	1929.1986	3023.9686	3087.4847	3092.979	3149.6954	3160.4077	3205.4036	3220.072
CC12C3C1N1C3C2C1=O	C[C@@]12[C@H]3[C@@H]1N1[C@H]3[C@H]2C1=O	
InChI=1S/C7H7NO/c1-7-2-4-3(7)6(9)8(4)5(2)7/h2-5H,1H3	InChI=1S/C7H7NO/c1-7-2-4-3(7)6(9)8(4)5(2)7/h2-5H,1H3/t2-,3+,4-,5+,7+/m1/s1
