14
gdb 133018	4.90774	1.05625	0.8739	3.1073	71.67	-0.2291	-0.0757	0.1534	1225.8007	0.099453	-477.974471	-477.966567	-477.965623	-478.007677	28.409	
C	-0.0457160012	 1.433386814	 0.0075186987	-0.316902
N	 0.0201348502	-0.0152584523	 0.0027494747	-0.295073
C	-1.0514050542	-0.6785581772	 0.0094640122	 0.45795
O	-2.2986598452	 0.0165468381	 0.0213103178	-0.230615
C	-3.456483645	-0.6638359644	 0.0276753718	-0.035589
C	-3.4640093966	-2.0058052139	 0.023256784	 0.156322
F	-4.5947470963	-2.7123256739	 0.029384865	-0.067078
C	-2.1989835908	-2.6840244575	 0.011556558	-0.068145
N	-1.0696819176	-2.0619511467	 0.0050662258	-0.267724
H	 0.9698194441	 1.8347822491	-0.0008753811	 0.125309
H	-0.5813057122	 1.8237714012	-0.8686651791	 0.121309
H	-0.5645151269	 1.8185052326	 0.8960587965	 0.121361
H	-4.3382359495	-0.0341472725	 0.036421653	 0.156198
H	-2.1897141888	-3.7739291267	 0.0080117028	 0.142678
49.9854	103.4003	204.1558	228.351	351.2825	360.3069	368.495	456.5851	523.5283	553.3084	628.7019	719.2175	757.9025	770.1762	905.5403	946.9591	977.3776	1046.2127	1086.7615	1107.1818	1181.3368	1236.76	1285.6504	1354.2159	1435.5507	1443.9238	1483.3676	1498.3916	1599.3101	1727.729	1753.1503	2998.5765	3047.566	3112.5091	3139.1192	3212.294
CN=C1OC=C(F)C=N1	C[N]C1=NC=C(CO1)F	
InChI=1S/C5H5FN2O/c1-7-5-8-2-4(6)3-9-5/h2-3H,1H3	InChI=1S/C5H6FN2O/c1-7-5-8-2-4(6)3-9-5/h2H,3H2,1H3
