16
gdb 98006	7.59136	0.48727	0.46054	4.2457	99.73	-0.2418	-0.0459	0.196	2339.1926	0.121736	-400.738135	-400.727375	-400.726431	-400.778086	34.9	
C	-0.0917336832	 1.4415510829	 0.0475334479	-0.340345
N	-0.0065771973	 0.0005494672	-0.0781735123	-0.308579
C	 0.7121139414	-0.6085295586	-1.0669191666	 0.180458
O	 1.3408908554	-0.0120564926	-1.9243269096	-0.353589
C	 0.6617182367	-2.0605697684	-1.0075811632	 0.171731
C	 0.6630856681	-3.2730794019	-1.0177381435	-0.03899
C	 0.6584274644	-4.6302374874	-1.0207067158	-0.222743
C	 0.654539823	-5.8409545396	-1.0235582242	 0.254936
C	 0.6517751551	-7.291574906	-1.0311180157	-0.519353
H	 0.3092774138	 1.7809548938	 1.0090746618	 0.129442
H	 0.5007926977	 1.8749129976	-0.758663221	 0.174954
H	-1.1272841933	 1.7879569763	-0.0431669594	 0.129455
H	-0.4908102034	-0.5867555847	 0.5808774509	 0.255513
H	-0.1646008068	-7.6785783142	-1.6512262714	 0.162979
H	 1.5921163251	-7.6857788475	-1.4321199139	 0.163446
H	 0.5227479632	-7.692729877	-0.019715034	 0.160683
4.1319	53.9538	61.2282	69.5839	130.3955	148.5103	229.2475	293.6302	335.2057	371.2854	377.3886	478.8108	517.07	575.2895	575.8439	735.9468	759.3426	890.0315	1045.8151	1047.719	1056.9934	1151.0429	1170.1281	1213.7793	1303.9106	1411.513	1439.3097	1468.8105	1470.1351	1489.4394	1498.3672	1556.3054	1750.112	2266.4022	2372.0144	3026.1052	3027.824	3080.0053	3089.7541	3090.6814	3156.2881	3646.4616
CNC(=O)C#CC#CC	CNC(=O)C#CC#CC	
InChI=1S/C7H7NO/c1-3-4-5-6-7(9)8-2/h1-2H3,(H,8,9)	InChI=1S/C7H7NO/c1-3-4-5-6-7(9)8-2/h1-2H3,(H,8,9)
