21
gdb 109897	2.59826	1.44397	1.17776	2.3127	78.18	-0.2362	0.0644	0.3007	1150.4566	0.181972	-424.179544	-424.170434	-424.169489	-424.213738	33.562	
C	-0.3194191537	 1.6076823003	-0.0107179516	-0.241533
O	-0.1366356684	 0.250995974	 0.3329440444	-0.235597
C	-1.2693396242	-0.5534646456	 0.1283329614	 0.110824
C	-1.4615087616	-1.2515965452	-1.2785367655	-0.040459
C	-0.4615521202	-0.9587145629	-2.3871102718	-0.398752
C	-1.3405439305	-2.6289852598	-0.5712805276	 0.103697
O	 0.0059584646	-3.1389512783	-0.5361470948	-0.289299
C	 0.2377257197	-2.5639249615	 0.7751073915	-0.07857
C	-1.1657829374	-1.9371480715	 0.8110095255	-0.128808
H	 0.6126210565	 2.1282688361	 0.2223918367	 0.128422
H	-0.5405572146	 1.7426334113	-1.0784452028	 0.112588
H	-1.1362995207	 2.0618428039	 0.5714668484	 0.106017
H	-2.1732020644	-0.0083503039	 0.4366717263	 0.062459
H	-2.4858048148	-1.0970086181	-1.6360878713	 0.065768
H	 0.5633079647	-1.0665652674	-2.0285048011	 0.137255
H	-0.5989536289	-1.6557686823	-3.220602328	 0.115828
H	-0.5874694616	 0.0556382544	-2.778716521	 0.107277
H	-2.0723205589	-3.4053226395	-0.8106182043	 0.069362
H	 0.399615581	-3.3485767585	 1.5241428645	 0.097871
H	 1.0784030171	-1.8643279477	 0.7862736797	 0.121478
H	-1.7813404536	-2.1164897977	 1.6910966717	 0.074173
61.198	101.6745	154.7592	180.3153	205.1084	227.5137	248.4175	340.0564	466.4962	522.5204	558.3189	664.9848	766.0763	813.5499	844.6447	890.2783	901.3473	971.1477	984.925	1006.5204	1011.8832	1066.2236	1088.4656	1116.1863	1144.1768	1156.9022	1166.0351	1180.2443	1184.9457	1204.7499	1232.1672	1255.4075	1293.4976	1306.91	1325.4519	1346.0731	1356.6597	1391.5061	1413.5749	1480.6075	1485.7626	1490.0537	1495.8974	1508.9679	1520.7499	2979.3995	2988.9275	3023.1638	3035.6994	3037.8906	3044.2936	3070.5707	3090.1794	3098.2166	3115.3842	3120.7743	3139.1246
COC1C(C)C2OCC12	CO[C@H]1[C@@H](C)[C@H]2OC[C@@H]12	
InChI=1S/C7H12O2/c1-4-6(8-2)5-3-9-7(4)5/h4-7H,3H2,1-2H3	InChI=1S/C7H12O2/c1-4-6(8-2)5-3-9-7(4)5/h4-7H,3H2,1-2H3/t4-,5+,6+,7-/m1/s1
