20
gdb 79404	2.4459	1.54816	1.43682	1.8102	79.53	-0.2376	0.0706	0.3082	1060.149	0.169439	-403.065386	-403.056619	-403.055675	-403.098029	34.225	
C	-0.1262482591	 1.5717989084	-0.0121522763	-0.432637
C	-0.0551138308	 0.0525374635	 0.0076374493	-0.053705
C	 1.1637088329	-0.6501487398	-0.6074181798	-0.047409
N	 2.0599097045	-0.2896852765	 0.6060049016	-0.187975
C	 2.5081369955	-1.7433935258	 0.707178416	-0.258026
C	 1.0474342792	-1.8981808981	 0.2951497921	 0.309166
O	 0.2996848328	-3.0210104873	-0.0199052716	-0.46967
C	 0.6576724351	-0.6538328746	 1.1808185968	 0.290699
C	 0.3677559218	-0.5833856516	 2.6508468597	-0.53069
H	 0.8375591075	 2.0119402509	 0.2565874863	 0.137785
H	-0.4039222044	 1.9364803425	-1.0071594958	 0.114201
H	-0.8807632574	 1.93945877	 0.6922401164	 0.111572
H	-1.009511198	-0.4101519098	-0.2645668515	 0.077486
H	 1.5744569615	-0.6011093032	-1.6176209398	 0.078706
H	 3.2787943223	-2.0107084596	-0.0228478448	 0.103079
H	 2.8121481427	-2.0424173733	 1.7158615061	 0.094268
H	 0.2444587865	-3.5834375582	 0.7607435342	 0.282053
H	 1.106622107	-1.1436778569	 3.2340651757	 0.121998
H	 0.3825525012	 0.4541352919	 3.0001949471	 0.13601
H	-0.6223993707	-0.9993732824	 2.8680584782	 0.12309
172.1573	182.4994	193.4154	207.036	215.5627	264.262	293.3871	336.8735	411.0058	506.9199	548.2414	635.6112	654.6802	728.0132	759.0817	843.4467	864.9329	884.2359	909.5632	952.9733	1018.8032	1027.2328	1058.9923	1069.4615	1100.8927	1108.7574	1141.533	1163.7406	1178.4263	1218.873	1227.3501	1260.1693	1282.9987	1316.6203	1368.155	1396.9798	1403.3658	1416.5521	1482.9147	1487.8463	1496.9189	1502.9174	1520.1162	3028.2112	3031.6516	3038.8814	3056.4807	3089.3327	3095.1572	3098.2714	3100.7855	3101.0869	3121.3437	3800.2404
CC1C2N3CC2(O)C13C	C[C@H]1[C@H]2N3C[C@@]2(O)[C@]13C	
InChI=1S/C7H11NO/c1-4-5-7(9)3-8(5)6(4,7)2/h4-5,9H,3H2,1-2H3	InChI=1S/C7H11NO/c1-4-5-7(9)3-8(5)6(4,7)2/h4-5,9H,3H2,1-2H3/t4-,5+,6-,7-/m0/s1
