15
gdb 24474	3.96737	1.62271	1.15167	1.2312	85.62	-0.1878	-0.0417	0.1461	989.4922	0.116335	-383.54287	-383.536727	-383.535783	-383.573155	25.414	
O	-0.0461638169	 1.3353762948	 0.0096404393	-0.185999
C	 1.0962258198	 2.0797603314	 0.0027017946	 0.031754
C	 2.3327564996	 1.5318944313	-0.0120583861	-0.262125
C	 2.4652620133	 0.1187189606	-0.020895345	 0.264281
C	 3.5071408082	-0.7772751731	-0.0356395646	-0.293354
C	 2.9460167725	-2.102312729	-0.0373797106	-0.079028
C	 1.5701225338	-2.0508225346	-0.0239794847	-0.273492
C	 1.2119756171	-0.6645265782	-0.0131070606	 0.165167
C	 0.0295963855	-0.0065792916	 0.0017293653	-0.030116
H	 0.8694555627	 3.1358057244	 0.010529785	 0.135769
H	 3.1936299578	 2.1911375989	-0.0167531335	 0.111071
H	 4.5621543638	-0.5413166182	-0.0444506307	 0.087741
H	 3.5343868311	-3.0117679571	-0.0478707833	 0.094257
H	 0.8847342732	-2.8855666346	-0.0219197866	 0.091368
H	-0.9545343315	-0.459341635	 0.0087057315	 0.142704
200.845	236.1882	394.2204	407.8697	546.7998	552.4615	597.2131	598.4848	719.0187	764.4941	764.5888	776.0415	815.9867	854.3312	871.2341	902.6013	922.1786	927.6514	988.3917	1034.1232	1094.0127	1146.9113	1208.3288	1233.9984	1292.6087	1333.074	1376.0388	1405.9091	1413.9013	1478.9749	1576.7621	1630.8884	1666.9478	3194.6689	3205.5155	3212.3924	3228.6876	3242.2533	3248.59
O1C=CC2=CC=CC2=C1	o1ccc2cccc2c1	
InChI=1S/C8H6O/c1-2-7-4-5-9-6-8(7)3-1/h1-6H	InChI=1S/C8H6O/c1-2-7-4-5-9-6-8(7)3-1/h1-6H
