16
gdb 10965	2.77062	2.54171	1.90764	2.3627	69.69	-0.242	0.0043	0.2463	778.5067	0.130482	-346.598499	-346.59154	-346.590596	-346.629324	27.111	
C	 0.0010302432	 1.5811272976	-0.0042659586	-0.510075
C	 0.0208097289	 0.0733381269	-0.0237677173	 0.176385
C	 0.7129566234	-0.7830875646	-1.1395868577	-0.252535
C	-0.1590495401	-1.9559380435	-0.5952262333	-0.186188
C	 0.296486617	-2.0131438529	 0.8523517192	-0.09327
C	 0.4126344326	-0.7222895351	 1.2150962634	-0.122822
C	-1.2449022768	-0.8185590165	-0.3907395275	 0.400756
O	-2.4137742198	-0.6701171521	-0.5203318692	-0.307094
H	 1.0086870463	 1.9888145209	 0.1301533132	 0.123789
H	-0.4045421978	 1.9823574692	-0.9379168748	 0.126735
H	-0.6227568111	 1.9532082843	 0.8148749465	 0.131274
H	 0.4455715298	-0.4698286646	-2.15462174	 0.106455
H	 1.7929286539	-0.9111694749	-1.0272820448	 0.104987
H	-0.3441214929	-2.8731761134	-1.148230185	 0.083871
H	 0.3674052089	-2.9043343779	 1.4593589223	 0.110902
H	 0.6020469245	-0.2985485834	 2.1918885637	 0.106828
141.4323	165.5236	211.4235	299.0368	403.3143	449.1451	564.4525	604.7066	639.1268	693.5645	768.616	807.901	810.4754	849.5207	901.9626	921.3775	948.5543	976.9299	1010.0797	1061.4123	1083.739	1121.4469	1148.3904	1192.2583	1203.1233	1249.1632	1285.4685	1361.0777	1415.6955	1479.4494	1491.2915	1491.5543	1589.6663	1911.3084	3034.4935	3043.2509	3100.2668	3107.4635	3117.5979	3158.0807	3217.6494	3243.7754
CC12CC(C=C1)C2=O	C[C@@]12C[C@@H](C=C1)C2=O	
InChI=1S/C7H8O/c1-7-3-2-5(4-7)6(7)8/h2-3,5H,4H2,1H3	InChI=1S/C7H8O/c1-7-3-2-5(4-7)6(7)8/h2-3,5H,4H2,1H3/t5-,7+/m1/s1
