22
gdb 120010	2.30022	1.08525	0.79897	3.7576	84.92	-0.2373	0.0386	0.2759	1516.5689	0.193231	-404.387395	-404.377227	-404.376282	-404.423348	36.578	
C	-0.0666824604	 1.6110418334	-0.04607325	-0.377493
C	 0.0089632308	 0.0871376563	 0.0755747703	-0.174708
C	 0.5789668527	-0.5646060994	-1.1922024877	-0.16596
N	 0.6437010923	-2.0084701094	-1.1454730063	-0.076525
C	 1.6581240175	-2.9522882732	-0.6369037119	 0.056998
C	 1.7960570926	-3.0444596161	 0.8760655202	-0.400558
C	 0.856091957	-4.0802140036	-1.3538091465	-0.400298
C	-0.0670136523	-2.9486381238	-1.8533176601	 0.407835
O	-1.0175341553	-2.8504203655	-2.5865791946	-0.378006
H	 0.9245633212	 2.0471119912	-0.2141950831	 0.114734
H	-0.7057023805	 1.9101734098	-0.8841146224	 0.122457
H	-0.4773520079	 2.0607771874	 0.8624949241	 0.117538
H	 0.6280206365	-0.1869451106	 0.9380554763	 0.09922
H	-0.9878570341	-0.328102918	 0.2627532862	 0.113409
H	-0.0531502142	-0.3145722927	-2.0520644017	 0.135605
H	 1.5826672818	-0.1664303605	-1.399197083	 0.101842
H	 2.6402127258	-2.7758647529	-1.0962708203	 0.079622
H	 0.8226296382	-3.219104601	 1.3453275491	 0.123339
H	 2.4633225346	-3.8704661571	 1.1441755375	 0.122915
H	 2.2197946823	-2.1268466145	 1.2968425212	 0.122617
H	 1.3850383074	-4.6117072178	-2.1468636908	 0.128995
H	 0.3741220538	-4.799381892	-0.6879681866	 0.126419
53.0854	83.8047	87.6618	114.7779	231.1716	236.8981	255.871	259.7157	310.287	361.8718	435.4347	528.8058	578.1432	707.0326	745.5855	763.3223	827.1406	876.7219	901.9601	913.9556	977.6971	1039.1978	1053.4661	1075.9777	1086.5919	1110.384	1124.5507	1178.3761	1198.5123	1233.8139	1260.4453	1305.0514	1329.6233	1347.6102	1382.0226	1403.8968	1407.0397	1416.1287	1421.2391	1464.2035	1473.3514	1487.2329	1492.5007	1496.59	1500.3172	1509.9392	1871.8802	3003.7402	3010.4822	3031.2249	3031.9634	3036.545	3061.5612	3079.5257	3081.4392	3100.1527	3102.5078	3108.4857	3110.5216	3139.3987
CCCN1C(C)CC1=O	CCCN1[C@@H](C)CC1=O	
InChI=1S/C7H13NO/c1-3-4-8-6(2)5-7(8)9/h6H,3-5H2,1-2H3	InChI=1S/C7H13NO/c1-3-4-8-6(2)5-7(8)9/h6H,3-5H2,1-2H3/t6-/m0/s1
