19
gdb 98450	2.94296	1.11489	1.07414	2.7113	71.77	-0.2499	0.0064	0.2563	1242.1752	0.157276	-460.173446	-460.16361	-460.162666	-460.2096	33.917	
C	-0.2204524396	 1.3187165132	-0.1111743613	-0.241822
O	-0.1477855289	-0.1105341382	-0.2034457568	-0.240096
C	 0.7331886821	-0.5894242591	-1.1063898395	 0.401034
O	 1.4229490284	 0.1123570853	-1.8025070764	-0.367312
C	 0.7284607571	-2.1047138225	-1.1012328752	 0.16323
C	 1.3194583287	-2.6384639	 0.2058284075	-0.469928
C	-0.6171501237	-2.7530248786	-1.5297155947	-0.104439
O	-0.005736901	-3.3641551811	-2.6781846824	-0.272338
C	 1.2690971162	-2.7456405868	-2.3983921757	-0.115455
H	 0.7479211262	 1.7354026194	 0.1767728924	 0.142459
H	-0.5174234669	 1.7514430877	-1.0696791873	 0.143751
H	-0.9696550714	 1.5292392155	 0.6519116744	 0.135036
H	 0.7380392786	-2.2926271185	 1.0647609797	 0.135977
H	 1.3149837392	-3.7326265248	 0.2006107331	 0.128928
H	 2.3543663134	-2.3039628443	 0.3341990734	 0.130468
H	-1.0191986917	-3.4928904395	-0.8262795007	 0.101996
H	-1.4138463043	-2.0507559171	-1.8033585074	 0.106311
H	 1.566430315	-2.0279574738	-3.1692786143	 0.123903
H	 2.0639931126	-3.488095717	-2.2594488388	 0.098297
34.5027	51.2007	109.51	130.4549	174.048	241.1535	267.0559	306.5372	330.9345	339.9748	465.033	527.7392	767.5261	780.6077	853.9471	885.2107	926.7068	960.0543	985.8586	1010.2911	1029.5778	1041.8533	1151.4419	1158.6132	1179.5041	1179.6526	1184.0074	1212.6092	1232.8077	1306.0758	1323.5064	1374.9695	1409.7822	1472.5321	1481.6851	1492.1113	1497.2108	1500.775	1515.6302	1539.0498	1816.4186	3011.13	3027.2883	3036.9468	3053.0167	3057.6459	3085.8969	3106.1467	3120.8502	3128.427	3160.5328
COC(=O)C1(C)COC1	COC(=O)C1(C)COC1	
InChI=1S/C6H10O3/c1-6(3-9-4-6)5(7)8-2/h3-4H2,1-2H3	InChI=1S/C6H10O3/c1-6(3-9-4-6)5(7)8-2/h3-4H2,1-2H3
