23
gdb 79289	2.48811	1.67878	1.43462	0.0687	87.5	-0.2571	0.0919	0.349	1071.9773	0.208818	-351.177171	-351.169283	-351.168339	-351.208901	32.914	
C	-0.0715334906	 1.6268376118	-0.0356764914	-0.419901
C	 0.0274799911	 0.1002169241	-0.0340311316	 0.038317
C	 0.9174693264	-0.4941962335	-1.1252584965	-0.056373
C	 2.3149820814	-0.6263323634	-0.5434766593	-0.065486
C	 2.2497375558	-0.1396842835	 0.9016521632	-0.233651
C	 0.7785893753	-0.5472367241	 1.1637769757	-0.064886
C	 0.8209284678	-2.053332186	 0.768355185	 0.039216
C	-0.4962089151	-2.8282681254	 0.8136881739	-0.423191
C	 1.409522466	-1.8402318123	-0.6283932877	-0.070001
H	 0.9105121171	 2.1078902502	-0.0341879939	 0.117961
H	-0.601414103	 1.9752051811	-0.929081179	 0.11001
H	-0.6267956971	 1.9875859955	 0.837324717	 0.108312
H	-0.9901805914	-0.3008027748	-0.0987880829	 0.063662
H	 0.7570369259	-0.2970388431	-2.1778466637	 0.072593
H	 3.2007900543	-0.5296503509	-1.157622256	 0.075881
H	 2.9445742597	-0.6727451199	 1.5598306791	 0.090172
H	 2.4360373898	 0.9321690848	 1.0113535515	 0.091562
H	 0.3823528691	-0.3248637643	 2.1555243582	 0.052333
H	 1.5447679519	-2.571328605	 1.4117032318	 0.061393
H	-1.2528935785	-2.4049988887	 0.1472785372	 0.119382
H	-0.3380955848	-3.8671629523	 0.503799551	 0.110623
H	-0.9100871401	-2.8469176637	 1.8281306428	 0.108436
H	 1.6133878089	-2.6617333765	-1.3039745444	 0.073635
177.9013	186.7287	222.9631	234.8849	289.7266	299.7856	453.0682	509.6078	531.4067	663.886	684.2201	732.3311	807.8471	814.0987	836.8002	874.2212	906.4457	914.2804	928.7523	972.2108	979.3358	988.2809	1025.3243	1042.2329	1059.6742	1063.8809	1080.736	1103.2069	1110.9302	1124.6052	1132.1417	1154.2895	1214.0752	1236.188	1274.9889	1278.9853	1286.2322	1317.3473	1331.2759	1376.554	1385.2792	1394.2997	1410.1314	1412.8094	1492.842	1494.6315	1496.0041	1505.6048	1514.8168	3011.1184	3029.6111	3030.5251	3040.4888	3046.7463	3088.973	3089.1476	3089.7445	3106.8474	3110.4515	3113.0872	3184.5199	3188.7474	3202.7292
CC1C2C3CC1C(C)C23	C[C@H]1[C@H]2[C@H]3C[C@@H]1[C@@H](C)[C@@H]23	
InChI=1S/C9H14/c1-4-6-3-7-8(4)9(7)5(6)2/h4-9H,3H2,1-2H3	InChI=1S/C9H14/c1-4-6-3-7-8(4)9(7)5(6)2/h4-9H,3H2,1-2H3/t4-,5-,6-,7+,8-,9+/m1/s1
