13
gdb 129000	4.09569	1.7404	1.22139	2.4714	76.22	-0.2315	-0.0754	0.1561	912.7494	0.09448	-411.798701	-411.793007	-411.792063	-411.828688	22.845	
N	 0.0127719997	 1.2584004185	 0.0091500429	-0.053028
N	 1.0544484218	 2.0813114506	 0.0033948471	-0.228411
C	 2.2559057197	 1.5140884543	-0.0112438555	-0.045153
C	 2.3933652551	 0.126279438	-0.0199018327	 0.246862
N	 3.4560373375	-0.6682804272	-0.0343991459	-0.350977
C	 2.9254521275	-1.9382980259	-0.0359558015	-0.026502
C	 1.5368942865	-1.9977825593	-0.0228136546	-0.276951
C	 1.1420702358	-0.6450333042	-0.0118409066	 0.35397
N	-0.0451709844	-0.0588635032	 0.0027619304	-0.297348
H	-0.884750819	 1.7222060493	 0.0202951942	 0.303928
H	 3.0989407473	 2.1961388806	-0.0158191993	 0.145877
H	 3.5983347578	-2.7877348977	-0.0469630107	 0.113741
H	 0.9062861348	-2.8721528139	-0.0213169578	 0.113992
231.9245	243.0564	435.953	443.9953	586.2961	612.4601	619.4845	620.894	724.289	776.3584	781.279	825.7683	889.7949	934.2271	950.3266	967.1318	1063.5656	1075.9827	1131.0037	1209.4499	1280.3351	1318.2939	1380.1404	1417.2608	1450.9802	1463.4726	1530.2097	1593.7433	1618.8176	3200.445	3209.9922	3267.5237	3617.4285
N1N=CC2=NC=CC2=N1	[nH]1ncc2nccc2n1	
InChI=1S/C5H4N4/c1-2-6-5-3-7-9-8-4(1)5/h1-3,9H	InChI=1S/C5H4N4/c1-2-6-5-3-7-9-8-4(1)5/h1-3,9H
