19
gdb 7955	3.32266	1.68924	1.27839	3.9352	71.43	-0.2348	0.0386	0.2734	998.1862	0.166526	-365.123696	-365.115575	-365.114631	-365.155929	31.044	
C	-0.7774219804	 1.283300166	-0.0119036671	-0.411898
C	 0.069978986	 0.0146270543	-0.0574929939	 0.027202
C	 1.2557270719	 0.0487935227	-1.0376140975	-0.344757
C	 2.2592751065	-0.9530694509	-0.459983368	 0.401402
O	 3.2383591934	-1.4180109349	-1.0004417548	-0.381484
N	 1.8400954734	-1.2240577446	 0.8180477096	-0.298841
C	 0.7260599593	-0.4126448598	 1.2930899995	 0.013989
C	 1.1921619875	 0.736514275	 2.1958251655	-0.389065
H	-0.1786258913	 2.1625066613	 0.2461344804	 0.120799
H	-1.2356097208	 1.4713238052	-0.9879915584	 0.120641
H	-1.5867883304	 1.1994094098	 0.7216177612	 0.115653
H	-0.5753812968	-0.8203122849	-0.3557563793	 0.088438
H	 0.9942047754	-0.2135886226	-2.0644767914	 0.127348
H	 1.7367160454	 1.0345532675	-1.0676075857	 0.123142
H	 2.4407907479	-1.7457198142	 1.4381317555	 0.245063
H	 0.0267300212	-1.0385183478	 1.8610029282	 0.082754
H	 1.8631651933	 1.4176586338	 1.6627737771	 0.123582
H	 0.3426066164	 1.3123759771	 2.5748604784	 0.121565
H	 1.737206882	 0.3411133268	 3.0592683806	 0.114466
105.4352	118.6441	241.781	246.4053	279.4835	299.0291	412.5922	476.1976	495.1742	496.1405	565.5112	637.2497	695.8431	758.271	861.1235	907.8911	939.057	958.8842	1016.855	1035.5369	1090.539	1114.0562	1125.0233	1177.9284	1198.6508	1247.9705	1276.9351	1314.7714	1353.7069	1375.5111	1392.5739	1410.1295	1415.5988	1433.3936	1472.7767	1489.6364	1491.2523	1503.1894	1506.7118	1831.1893	3016.8206	3031.6006	3032.9316	3036.815	3043.97	3098.0596	3102.1346	3107.1697	3114.5512	3116.1725	3627.3827
CC1CC(=O)NC1C	C[C@H]1CC(=O)N[C@H]1C	
InChI=1S/C6H11NO/c1-4-3-6(8)7-5(4)2/h4-5H,3H2,1-2H3,(H,7,8)	InChI=1S/C6H11NO/c1-4-3-6(8)7-5(4)2/h4-5H,3H2,1-2H3,(H,7,8)/t4-,5-/m0/s1
