20
gdb 42136	2.13158	1.86694	1.16452	2.5005	76.88	-0.2318	0.0112	0.2431	1097.016	0.172501	-440.270863	-440.262629	-440.261685	-440.303474	31.71	
C	-0.0185323059	 1.5423660522	-0.2592394168	-0.232038
C	 1.3885596402	 2.1034186477	 0.0005135017	-0.062065
O	 1.9834744699	 1.7173972037	 1.2199428069	-0.232242
C	 1.4783810053	 2.2860630153	 2.418242697	-0.079393
C	 0.9373777194	 1.2198364681	 3.3891341581	-0.15048
N	-0.4702759807	 0.8724136814	 3.1839994352	-0.233311
C	-0.7919160265	 0.1813608108	 2.1816484261	 0.102785
O	 0.0789303335	-0.3612768237	 1.2860933326	-0.204338
C	-0.156667292	 0.0300387824	-0.0701224433	-0.07218
H	-0.7503518282	 2.0454658117	 0.3843816996	 0.116905
H	-0.29502828	 1.7925123631	-1.2916642569	 0.102121
H	 2.072631393	 1.7340488148	-0.7728041859	 0.107446
H	 1.3559971674	 3.2014311714	-0.0923318668	 0.089852
H	 2.3135639557	 2.8008676983	 2.9128798772	 0.101525
H	 0.7015436278	 3.0355206426	 2.2153909647	 0.098525
H	 1.5927675909	 0.3442347851	 3.3146375366	 0.124243
H	 1.0223414634	 1.6191757829	 4.4050573178	 0.098389
H	-1.8458209059	-0.043279059	 1.9859237697	 0.102933
H	-1.1590897226	-0.2976716729	-0.3855324765	 0.100758
H	 0.5822161552	-0.5189635161	-0.6601971071	 0.120563
107.2542	179.5334	184.4651	222.3001	280.7303	300.8226	370.0127	394.6086	451.37	523.7663	601.8555	694.9678	783.1234	829.9786	861.4479	906.6819	922.2322	958.7625	987.1903	1023.7909	1044.634	1055.6324	1096.5862	1114.5861	1157.874	1180.2764	1256.5377	1258.8265	1283.8692	1323.4175	1329.1349	1368.7249	1378.4644	1397.9293	1403.8454	1409.3408	1426.676	1469.5711	1486.9707	1488.9696	1497.2268	1500.7226	1753.8119	2969.3993	2991.5817	2998.8945	3031.0286	3032.6173	3048.5363	3051.0584	3072.067	3077.0912	3080.2243	3098.1139
C1COCCN=COC1	C1COCCN=COC1	
InChI=1S/C6H11NO2/c1-3-8-5-2-7-6-9-4-1/h6H,1-5H2/b7-6-	InChI=1S/C6H11NO2/c1-3-8-5-2-7-6-9-4-1/h6H,1-5H2/b7-6-
