19
gdb 73335	2.38092	1.87696	1.51679	3.3897	78.5	-0.2288	0.0051	0.2339	974.0873	0.160441	-385.904563	-385.896888	-385.895944	-385.936391	30.536	
C	-0.0448954837	 1.5189062501	-0.0035987894	-0.484096
C	-0.031642415	 0.0046291883	 0.0534651787	 0.175499
C	-1.4041215987	-0.694928493	-0.0223971399	-0.24959
C	-1.1178619616	-2.1717544709	 0.3509734293	-0.250122
C	 0.2724509312	-2.1292693651	 0.9863682279	-0.042174
C	 1.4537048705	-1.634960745	 0.1371165809	-0.203562
C	 0.7406588312	-0.7389279892	 1.1919056578	-0.116562
C	 0.9772096699	-0.6862096968	-0.9068653143	 0.409889
O	 1.3791603187	-0.385540287	-1.9992634784	-0.349893
H	 0.9610881916	 1.9332062041	 0.1140074546	 0.123887
H	-0.4275127247	 1.8576931967	-0.9710666943	 0.136175
H	-0.6836581579	 1.9379548511	 0.781663836	 0.113658
H	-2.0862089877	-0.2340956836	 0.7019150656	 0.099809
H	-1.8560616704	-0.58799085	-1.0129436468	 0.112737
H	-1.8541008668	-2.5577037902	 1.0623820937	 0.104499
H	-1.1367659147	-2.8301856046	-0.5230905948	 0.11301
H	 0.5557323368	-2.8954931324	 1.7004709631	 0.097201
H	 2.418505938	-2.1260816705	 0.181195173	 0.105515
H	 1.1810388534	-0.3023021421	 2.0773247772	 0.104119
124.3301	181.1216	186.8509	247.2596	293.1022	362.9858	463.5129	538.7609	620.3789	682.57	698.1909	742.3667	783.9395	832.3304	849.02	863.908	900.3542	931.9951	945.2778	960.2254	992.9619	1036.8935	1056.0787	1085.1764	1107.7448	1143.8283	1181.7728	1197.2478	1223.5143	1234.0144	1272.1837	1295.0816	1317.2733	1355.7235	1386.3457	1411.2143	1483.5984	1490.3701	1493.7209	1505.9164	1861.7299	3031.2234	3034.3223	3051.5648	3081.494	3097.4664	3100.7977	3110.7483	3169.7164	3189.7781	3217.5548
CC12CCC3C(C13)C2=O	C[C@]12CC[C@H]3[C@H]([C@@H]13)C2=O	
InChI=1S/C8H10O/c1-8-3-2-4-5(6(4)8)7(8)9/h4-6H,2-3H2,1H3	InChI=1S/C8H10O/c1-8-3-2-4-5(6(4)8)7(8)9/h4-6H,2-3H2,1H3/t4-,5+,6-,8-/m0/s1
