21
gdb 64510	4.02576	1.09312	1.08096	1.2963	82.93	-0.2411	0.0672	0.3083	1238.1304	0.182699	-387.042869	-387.034353	-387.033409	-387.07587	33.777	
O	-0.069951285	 1.3954206897	 0.0394171334	-0.469797
C	-0.0121564293	-0.0098264712	 0.0498811816	 0.395953
C	 1.1295285908	-0.590356285	-0.7413715493	-0.02393
C	 1.5571332878	 0.0388481931	-2.0417172554	-0.267938
C	 2.4583690493	 0.1189913451	-0.833235612	-0.289011
C	-0.4398058814	-0.7922892771	 1.263317692	-0.137958
C	-1.5481116158	-0.0591016662	 2.028903098	-0.23787
C	-2.4155816029	-0.0239314458	 0.7307334989	-0.233564
C	-1.3037741998	-0.7613346899	-0.0244442241	-0.099595
H	 0.5583578968	 1.72171944	 0.6925014466	 0.28341
H	 1.1756296856	-1.6748846851	-0.6947830652	 0.081938
H	 1.8413116106	-0.6106270738	-2.8620554656	 0.106427
H	 1.049019036	 0.9505515535	-2.3335077218	 0.125823
H	 2.5567721672	 1.0887047522	-0.3573161648	 0.097845
H	 3.3620424151	-0.4798505975	-0.8112617755	 0.109233
H	 0.17684167	-1.5910306629	 1.6614579172	 0.079037
H	-1.9954819296	-0.6768820902	 2.8103471822	 0.101062
H	-1.2750483095	 0.9083813079	 2.4610151853	 0.08844
H	-3.3250991186	-0.6205518096	 0.8265104298	 0.09833
H	-2.6724106754	 0.963902258	 0.3419416004	 0.109801
H	-1.4563122718	-1.5335736153	-0.7702820319	 0.082365
66.4257	158.7752	180.1661	231.0236	283.7397	295.8879	359.1504	378.0227	528.8963	539.2624	681.4071	742.9814	775.803	786.9471	817.6276	820.6872	868.3196	914.9182	940.3371	944.5838	984.1588	985.6537	1016.9038	1025.1378	1059.1723	1063.3318	1082.169	1101.4199	1116.073	1136.8792	1160.1272	1198.2897	1227.1178	1227.7505	1247.5049	1256.8476	1281.128	1288.2126	1320.5415	1377.6805	1443.3275	1458.5908	1472.7574	1495.228	1507.7089	3051.8178	3068.5766	3102.369	3123.8272	3132.8749	3138.9523	3145.2982	3161.536	3173.674	3212.8104	3232.2055	3802.9199
OC1(C2CC2)C2CCC12	O[C@@]1(C2CC2)[C@H]2CC[C@@H]12	
InChI=1S/C8H12O/c9-8(5-1-2-5)6-3-4-7(6)8/h5-7,9H,1-4H2	InChI=1S/C8H12O/c9-8(5-1-2-5)6-3-4-7(6)8/h5-7,9H,1-4H2/t6-,7+,8-
