19
gdb 126685	3.10454	1.1795	0.93642	4.2073	78.1	-0.1973	-0.0029	0.1945	1276.7783	0.15912	-419.184975	-419.17592	-419.174976	-419.219355	32.875	
C	-0.1656061304	 1.5519270224	 0.0820680585	-0.385145
C	-0.016329767	 0.0265001035	-0.0184941672	-0.1658
N	-1.2658402318	-0.7236265452	-0.0127588477	-0.159568
C	-2.0631202809	-0.6834633617	-1.2251054758	-0.344308
C	-1.938877089	-0.8365436325	 1.1936833161	 0.214726
C	-1.5039452868	-0.602074206	 2.4703879453	-0.033496
O	-2.4763395409	-0.9072521623	 3.3601853472	-0.17089
N	-3.592020514	-1.3403237963	 2.6811349223	-0.133879
C	-3.2776086721	-1.2943115384	 1.4094821353	-0.054188
H	 0.8188231112	 2.0302114113	 0.1020505347	 0.119112
H	-0.7153306578	 1.9527714772	-0.775284211	 0.122247
H	-0.7018588276	 1.83801243	 0.9914050533	 0.131659
H	 0.5172609499	-0.2332311983	-0.9395572845	 0.106641
H	 0.6013909158	-0.3458709891	 0.807250914	 0.112897
H	-2.7097122244	-1.5645092123	-1.2835563878	 0.133208
H	-2.6991772538	 0.2123195178	-1.3116549727	 0.115782
H	-1.3935050237	-0.7114247017	-2.0886919129	 0.126932
H	-0.5821042074	-0.2390807051	 2.8915467503	 0.138999
H	-4.0155599395	-1.5891893733	 0.6784626025	 0.125073
55.9857	94.6057	133.9367	170.39	205.8093	259.1261	309.7235	382.7609	427.7973	512.2178	601.3204	607.4831	670.7827	747.372	795.1637	874.5853	877.8412	930.7051	947.9208	978.8657	1035.8456	1084.4834	1102.8941	1135.1415	1150.0423	1201.6	1223.9959	1272.1233	1299.1293	1382.0718	1386.8403	1404.0294	1418.2746	1455.2834	1481.3824	1486.4305	1491.3075	1494.4586	1509.902	1520.1038	1668.8227	2972.8836	3031.0675	3039.8993	3066.7111	3068.2915	3109.0665	3112.9349	3119.0628	3253.0032	3283.9294
CCN(C)C1=CON=C1	CCN(C)c1conc1	
InChI=1S/C6H10N2O/c1-3-8(2)6-4-7-9-5-6/h4-5H,3H2,1-2H3	InChI=1S/C6H10N2O/c1-3-8(2)6-4-7-9-5-6/h4-5H,3H2,1-2H3
