20
gdb 61276	2.18409	1.09815	0.79573	3.0845	82.	-0.2411	0.0308	0.2719	1474.5202	0.167524	-403.159159	-403.148238	-403.147294	-403.196283	38.542	
C	 0.0367152107	 1.6031469576	-0.0512323377	-0.396862
C	 0.0249477214	 0.0719132506	-0.0225231237	 0.077368
C	 0.7494411814	-0.4546274731	 1.2354074629	-0.384611
C	 0.7359807033	-1.9075641441	 1.3609116055	 0.279338
C	 0.69057702	-3.1054823352	 1.4544723362	-0.431365
N	-1.3387319455	-0.4566727987	-0.0444860921	-0.319849
C	-2.1012182782	-0.4206401456	-1.1793461711	 0.408724
C	-3.3973695783	-1.2149973885	-1.1101481653	-0.485796
O	-1.7661995184	 0.1968607061	-2.1753686906	-0.374136
H	 1.0661156065	 1.9765992188	-0.0570353788	 0.109741
H	-0.4678931721	 1.9553690558	-0.9512558023	 0.157749
H	-0.4763640801	 2.0108453087	 0.8263868439	 0.110251
H	 0.5506988425	-0.2976999343	-0.9118190358	 0.108322
H	 1.783043699	-0.0916827375	 1.2110070946	 0.142298
H	 0.2882300081	-0.0072818622	 2.1265166937	 0.134886
H	 0.6732077227	-4.1638379954	 1.5409166645	 0.200999
H	-1.5681350797	-1.1506741362	 0.6503174041	 0.244968
H	-3.2501378091	-2.1842081513	-1.5982484896	 0.148874
H	-3.7395911792	-1.390892293	-0.0868439093	 0.118214
H	-4.1677900748	-0.6776746724	-1.6653451792	 0.150887
47.0257	53.0136	70.8078	116.1212	150.6722	185.4232	249.2302	296.8203	349.5158	356.152	400.9495	444.6777	482.0315	527.3276	626.8434	628.9528	635.4083	649.671	850.948	884.1521	932.1859	967.9264	988.1417	1019.7858	1051.0132	1112.0376	1115.9901	1163.5644	1244.6596	1281.9032	1311.1239	1359.5898	1386.5248	1393.322	1403.113	1465.4072	1467.3771	1481.4906	1486.7734	1511.2292	1528.3587	1777.1701	2235.6487	3016.8788	3031.6682	3039.0932	3046.4037	3068.0819	3104.2095	3114.5244	3146.7685	3152.9131	3504.6476	3619.3984
CC(CC#C)NC(C)=O	C[C@@H](CC#C)NC(=O)C	
InChI=1S/C7H11NO/c1-4-5-6(2)8-7(3)9/h1,6H,5H2,2-3H3,(H,8,9)	InChI=1S/C7H11NO/c1-4-5-6(2)8-7(3)9/h1,6H,5H2,2-3H3,(H,8,9)/t6-/m0/s1
