16
gdb 33227	5.53866	0.82968	0.75527	1.3488	67.18	-0.2277	0.0186	0.2463	1460.5359	0.124846	-475.04073	-475.032459	-475.031514	-475.074934	29.5	
O	-0.0545775291	 1.4526338054	-0.0743404431	-0.417222
C	-0.0123930355	 0.0410103858	-0.0499808368	-0.06966
C	-1.3953781695	-0.5739742534	 0.0535593372	-0.07459
O	-2.0983627729	-0.179948993	-1.1443985914	-0.274367
C	-3.359481052	-0.5749083617	-1.219985066	 0.507555
N	-4.0481424842	-1.2947985432	-0.3938004856	-0.379999
C	-5.2980428659	-1.3770977547	-1.0126405647	-0.110212
C	-5.274561408	-0.6956605181	-2.1756992057	-0.044918
O	-4.0069117602	-0.1630689464	-2.3242256559	-0.18916
H	-0.611139833	 1.7023306455	-0.8202226095	 0.294022
H	 0.5007107228	-0.3671122845	-0.9347584654	 0.101423
H	 0.5662181796	-0.2463161909	 0.8338053787	 0.119996
H	-1.3565930922	-1.6668998151	 0.1095901161	 0.126157
H	-1.938465342	-0.1936335551	 0.9238811585	 0.136569
H	-6.112761606	-1.9230461189	-0.564562126	 0.126992
H	-5.9739756819	-0.4859395519	-2.9649290404	 0.147415
42.0021	73.6576	136.4489	180.4608	289.0447	320.1508	388.2988	480.5317	496.2481	620.265	709.8737	752.7939	761.5582	860.8189	891.5274	900.089	931.2769	995.4259	1051.9964	1091.6544	1098.8822	1127.1903	1141.2644	1185.1648	1235.2711	1265.0673	1285.6641	1376.6088	1393.6914	1431.2471	1442.979	1494.1332	1499.4539	1582.78	1646.6657	2989.7437	3050.4284	3085.7841	3107.2336	3266.5163	3311.0313	3810.0325
OCCOC1=NC=CO1	OCCOc1ncco1	
InChI=1S/C5H7NO3/c7-2-4-9-5-6-1-3-8-5/h1,3,7H,2,4H2	InChI=1S/C5H7NO3/c7-2-4-9-5-6-1-3-8-5/h1,3,7H,2,4H2
