21
gdb 99162	3.38951	0.89088	0.78032	3.2549	79.76	-0.2372	-0.008	0.2293	1541.5884	0.180813	-424.233189	-424.223222	-424.222278	-424.269633	34.97	
C	 0.7139678458	 1.2782704762	-0.1731200962	-0.377567
C	 0.7682921061	-0.1956018266	 0.2157629833	-0.285809
C	 0.2255526805	-0.4850717175	 1.6028550907	 0.385822
O	-0.2460964815	 0.3710689879	 2.3170010552	-0.314539
C	 0.3568023656	-1.9265779699	 2.0962964215	-0.310696
C	 1.6283054571	-2.0835835269	 2.9285431813	 0.167457
C	 2.0649033209	-3.5086613255	 3.3355164023	-0.301998
C	 3.3629476397	-3.1749711454	 2.5739657596	-0.059678
O	 2.8329373546	-1.9032632401	 2.14108617	-0.292766
H	 1.2999372478	 1.8853468611	 0.5218596631	 0.131046
H	 1.1100029703	 1.428547837	-1.1813848026	 0.107408
H	-0.3124454698	 1.6532584012	-0.1441728327	 0.127989
H	 0.2070098803	-0.8186763614	-0.4959459062	 0.11529
H	 1.7925032392	-0.592919102	 0.1942515367	 0.147132
H	-0.5044080334	-2.1485884717	 2.7349333827	 0.122512
H	 0.3824630493	-2.6355049942	 1.2620692063	 0.099264
H	 1.6022675868	-1.368752644	 3.7613639691	 0.096663
H	 2.164145968	-3.6912243697	 4.4061734376	 0.116127
H	 1.4658233908	-4.3045018238	 2.8881479768	 0.112523
H	 4.2521150277	-3.049264878	 3.2039172163	 0.106701
H	 3.6172611244	-3.8225117769	 1.7272791851	 0.10712
46.4355	67.4056	76.1494	97.9133	143.8143	197.172	245.8127	299.9529	389.8424	425.2107	534.9992	630.2611	724.7086	769.895	800.784	829.3826	879.4683	896.7317	961.171	978.9192	1002.0149	1021.7679	1044.6504	1095.5198	1100.0207	1123.4868	1147.8797	1168.8786	1212.7679	1226.4344	1257.9033	1274.102	1294.4691	1306.2912	1367.2623	1375.7329	1384.1551	1414.3834	1452.7332	1463.5908	1490.7394	1492.6574	1497.7324	1533.0485	1804.9739	3012.0458	3017.7529	3024.1571	3042.7639	3047.9993	3050.1223	3062.4874	3078.6572	3101.6998	3120.5699	3124.7719	3135.5844
CCC(=O)CC1CCO1	CCC(=O)C[C@H]1CCO1	
InChI=1S/C7H12O2/c1-2-6(8)5-7-3-4-9-7/h7H,2-5H2,1H3	InChI=1S/C7H12O2/c1-2-6(8)5-7-3-4-9-7/h7H,2-5H2,1H3/t7-/m1/s1
