23
gdb 108527	2.6371	1.61003	1.22024	0.1475	89.04	-0.2755	0.0909	0.3664	1134.9381	0.208244	-351.130041	-351.122048	-351.121104	-351.162409	32.695	
C	 0.0602842215	 1.5237746277	 0.1768841596	-0.38103
C	-0.0335155394	 0.0269101525	-0.1510025657	-0.291254
C	-1.4423671493	-0.5372371188	-0.0665225623	 0.399755
C	-2.4674071497	-0.0007908717	-1.0812436378	-0.285934
C	-3.7244103218	-0.8176745383	-0.6879365352	-0.254315
C	-3.1412700822	-1.636434397	 0.4586398022	 0.0076
C	-1.6903592735	-2.0848910292	 0.0941614086	-0.104234
C	-1.3211939832	-1.9940913532	 1.5940870235	-0.254185
C	-2.1837431511	-0.7414608422	 1.3105015369	-0.09096
H	 1.097213038	 1.8701699719	 0.1258647471	 0.110206
H	-0.5243930867	 2.1306403599	-0.5212739139	 0.117651
H	-0.3101320002	 1.7301482496	 1.1867823752	 0.116458
H	 0.3483970549	-0.1455433003	-1.1666019858	 0.092202
H	 0.6371547075	-0.5236161379	 0.5176722093	 0.095564
H	-2.6216949276	 1.0780916755	-0.9813873688	 0.095677
H	-2.1447205768	-0.1868926644	-2.1118992417	 0.091547
H	-4.5574414393	-0.1855796926	-0.3634436593	 0.09383
H	-4.092048048	-1.4502249729	-1.5025215734	 0.094312
H	-3.7863266667	-2.3458513845	 0.9813813686	 0.056931
H	-1.4096856714	-2.8641064822	-0.6194204106	 0.057477
H	-1.7686229939	-2.7500133342	 2.2461175807	 0.085036
H	-0.2714266592	-1.8419459039	 1.853867024	 0.089368
H	-2.482040792	 0.0395492763	 2.0144829589	 0.058297
76.4192	162.1429	217.7365	241.3545	333.6503	349.5946	408.3452	475.8671	603.0349	673.5574	713.9995	734.8725	782.6269	819.1656	838.8189	895.4504	896.6217	912.0122	957.5429	972.8776	977.9431	1012.5842	1018.6618	1033.1596	1062.7654	1072.1784	1084.1276	1113.823	1119.951	1167.673	1181.5478	1205.8241	1213.5798	1232.8905	1247.4427	1258.0476	1266.3698	1284.4904	1316.2431	1331.4732	1356.1253	1381.5231	1410.9983	1483.8013	1488.3192	1500.5868	1507.6456	1510.1273	1531.4889	3015.5831	3034.6275	3036.038	3046.3412	3050.957	3059.9356	3069.5773	3072.344	3077.9074	3089.4062	3097.3631	3101.4578	3107.7948	3112.2347
CCC12CCC3C1CC23	CC[C@@]12CC[C@H]3[C@@H]1C[C@@H]23	
InChI=1S/C9H14/c1-2-9-4-3-6-7(9)5-8(6)9/h6-8H,2-5H2,1H3	InChI=1S/C9H14/c1-2-9-4-3-6-7(9)5-8(6)9/h6-8H,2-5H2,1H3/t6-,7-,8+,9+
