13
gdb 46174	1.8582	1.6598	1.3138	5.4449	68.58	-0.2927	-0.0769	0.2158	1028.652	0.087957	-415.62675	-415.61842	-415.617476	-415.660573	29.039	
O	-0.1177836589	 0.1915163572	-0.7054099957	-0.229906
C	-0.1005136594	 1.2479852923	-0.1757595406	 0.387415
C	-1.0866267462	 2.137204642	 0.570884874	-0.334556
C	-0.0938961661	 3.3277654624	 0.4574896879	-0.269481
C	 1.0503682819	 2.3792713974	-0.0800896464	-0.127073
C	 2.0384980217	 2.0300245391	 0.9307457149	 0.274116
N	 2.773575033	 1.7359876678	 1.7727312023	-0.309358
C	 1.6497250756	 2.7436632333	-1.3526907246	 0.273562
N	 2.0674637917	 3.0379164797	-2.3889885392	-0.311177
H	-2.0633229729	 2.2415660661	 0.0936398334	 0.163126
H	-1.2372582379	 1.782811936	 1.5956680911	 0.170676
H	-0.3778548994	 4.0582066662	-0.2994153404	 0.157198
H	 0.1572604069	 3.8376450605	 1.3854914435	 0.155458
47.515	115.7671	126.5448	162.4877	220.8448	371.7554	402.4273	476.6242	520.1808	550.1253	587.3922	616.6245	712.591	753.0018	870.6889	921.6257	949.299	1024.789	1077.0024	1098.8257	1195.333	1228.2382	1251.0716	1274.6177	1436.4438	1485.2428	1937.1626	2356.02	2362.1134	3067.6666	3108.3154	3126.2566	3174.2545
O=C1CCC1(C#N)C#N	O=C1CCC1(C#N)C#N	
InChI=1S/C6H4N2O/c7-3-6(4-8)2-1-5(6)9/h1-2H2	InChI=1S/C6H4N2O/c7-3-6(4-8)2-1-5(6)9/h1-2H2
