23
gdb 115881	2.36645	1.44941	1.0768	1.0719	85.73	-0.2432	0.0832	0.3264	1242.2684	0.206037	-388.290474	-388.281157	-388.280213	-388.324306	35.767	
C	 0.1103650017	 1.3548246207	 0.1048361414	-0.234012
O	-0.1479268034	-0.0124524152	-0.1096049755	-0.250853
C	 0.5683150835	-0.5714718575	-1.1968144018	 0.097118
C	 2.0799014302	-0.7777020517	-0.9285343007	-0.267411
C	 2.4727292707	-2.007440799	-1.7758063566	-0.225076
C	 1.1960039504	-2.8333745625	-1.8684427296	-0.075548
C	 0.4250954994	-3.0581369903	-0.5898839035	-0.328122
C	 0.0140051538	-1.9486764189	-1.5304480035	 0.352084
C	-1.315480236	-2.0095268917	-2.2418016633	-0.492487
H	 1.1519149488	 1.5436558968	 0.405555774	 0.103887
H	-0.099448576	 1.9551247424	-0.7953976044	 0.099908
H	-0.5492547479	 1.6882601158	 0.9101866904	 0.123849
H	 0.4348887076	 0.0789578021	-2.0804390491	 0.053707
H	 2.6793006024	 0.1033046655	-1.1709189145	 0.095529
H	 2.214893274	-0.9750158477	 0.1399499368	 0.112167
H	 2.7784098832	-1.6965574866	-2.7820866186	 0.09827
H	 3.3150954693	-2.5580472239	-1.342204775	 0.097806
H	 1.1168500897	-3.5802501302	-2.6518939946	 0.076007
H	-0.2282011759	-3.9235938259	-0.5545344721	 0.104538
H	 0.8809567383	-2.8150672404	 0.3638570368	 0.111964
H	-2.1038696672	-1.5665525762	-1.6236141593	 0.129
H	-1.2866657759	-1.4588874966	-3.1901890269	 0.108091
H	-1.6024614509	-3.0421624289	-2.4634524706	 0.109586
85.9956	111.6423	179.8022	207.0854	213.6501	244.3239	281.3436	330.0992	409.5945	450.1211	512.3583	542.8268	630.7249	719.0422	817.3431	827.5543	872.6499	904.5603	950.923	958.0096	996.2014	1001.5058	1044.379	1050.6821	1072.461	1085.2692	1106.6449	1126.3382	1149.0775	1181.1079	1191.717	1215.8684	1230.3777	1268.106	1293.4674	1320.2015	1334.3156	1351.1866	1386.3554	1409.7015	1422.7396	1478.4515	1485.7625	1486.4563	1493.2668	1496.1041	1504.3359	1509.4421	1515.3481	2932.2314	2969.534	3017.0759	3021.1254	3029.3603	3051.5986	3066.3738	3082.493	3100.4506	3101.1831	3108.2841	3131.7612	3158.8569	3212.7572
COC1CCC2CC12C	CO[C@H]1CC[C@H]2C[C@@]12C	
InChI=1S/C8H14O/c1-8-5-6(8)3-4-7(8)9-2/h6-7H,3-5H2,1-2H3	InChI=1S/C8H14O/c1-8-5-6(8)3-4-7(8)9-2/h6-7H,3-5H2,1-2H3/t6-,7-,8+/m0/s1
