18
gdb 18407	3.21273	2.10705	1.42868	1.7208	67.	-0.2431	0.0834	0.3265	882.9739	0.155714	-384.922021	-384.915116	-384.914172	-384.952945	27.176	
C	-0.02751321	 1.3815997371	 0.0407791354	-0.069609
C	 1.3126418478	 2.1278379365	-0.0477648822	-0.244163
C	 1.9035583668	 2.1216661662	-1.4471109089	 0.054593
O	 3.2499787233	 1.6643293104	-1.6148613517	-0.256199
C	 2.1922869196	 0.8683655844	-2.1606410884	 0.054595
C	 1.9155082506	-0.489074349	-1.5376327394	-0.244164
C	 0.4458505996	-0.6731664992	-1.1290439526	-0.069609
O	 0.1047517116	-0.0268906103	 0.0830210001	-0.240629
H	-0.5339421874	 1.649174711	 0.9738685535	 0.108206
H	-0.6862403095	 1.680717086	-0.7923030089	 0.085711
H	 1.167612922	 3.1628792125	 0.2833293806	 0.100509
H	 2.018262534	 1.6628258272	 0.6473218852	 0.124835
H	 1.6627043684	 2.9946396917	-2.0563790926	 0.088331
H	 2.1460087595	 0.8967423985	-3.2507577923	 0.088331
H	 2.190987136	-1.2794033611	-2.2457703783	 0.10051
H	 2.5435716216	-0.6174124781	-0.650870031	 0.124835
H	-0.2207114427	-0.3400363483	-1.9427625236	 0.08571
H	 0.2456955788	-1.7350591356	-0.9528494751	 0.108206
132.0202	188.444	304.8678	317.5333	374.6893	412.7391	444.8763	548.5703	578.4911	758.4286	776.5158	820.0797	899.382	946.9261	957.3618	963.0861	1032.2215	1038.29	1068.1113	1113.6282	1128.6125	1142.2904	1168.8122	1217.8581	1219.9932	1296.812	1300.732	1330.6448	1346.9724	1367.7811	1384.1395	1410.7976	1423.7766	1467.4923	1477.3038	1481.7029	1485.3804	1501.8124	2961.0604	2966.5265	3037.6803	3039.3485	3071.6004	3074.4811	3079.3016	3088.8902	3097.0266	3105.3523
C1CC2OC2CCO1	C1C[C@H]2O[C@H]2CCO1	
InChI=1S/C6H10O2/c1-3-7-4-2-6-5(1)8-6/h5-6H,1-4H2	InChI=1S/C6H10O2/c1-3-7-4-2-6-5(1)8-6/h5-6H,1-4H2/t5-,6+
