21
gdb 68998	2.87063	1.36793	1.10092	2.6443	83.34	-0.2301	0.0771	0.3073	1185.0102	0.183805	-383.212495	-383.203873	-383.202929	-383.245636	33.411	
C	 0.3382708113	 1.4237377767	 0.0002635757	-0.484854
C	 0.0293333629	-0.0360180189	 0.1435620033	 0.287611
C	-1.3482231114	-0.6957479449	-0.0430023178	-0.284053
C	-0.9662144955	-1.7473039044	 1.0499542076	-0.302359
C	 0.4043316942	-1.0647103054	 1.1897987624	 0.312448
N	 1.0875587486	-1.0215885422	-0.1020697816	-0.41022
C	 1.2239757114	-0.9767464645	 2.427619827	-0.114722
C	 2.3755186537	-1.8988189602	 2.6201004566	-0.239336
N	 2.6013115763	-0.4697321416	 2.3537261122	-0.322686
H	 1.3331559866	 1.6507474493	 0.3909620452	 0.138844
H	 0.3103226404	 1.7282742383	-1.0530025945	 0.120692
H	-0.3927425474	 2.0320696099	 0.543294472	 0.118068
H	-2.1786209426	-0.0558671172	 0.2662714856	 0.10762
H	-1.5585981563	-1.0743653669	-1.0495425469	 0.094861
H	-1.5851672651	-1.6566013275	 1.9463350562	 0.109362
H	-0.9411808142	-2.8012866033	 0.7514815639	 0.095935
H	 0.8063132888	-1.7723457661	-0.7311167206	 0.220936
H	 0.6768405376	-0.6474601014	 3.3093227926	 0.085874
H	 2.6438726118	-2.232517499	 3.6185461158	 0.113808
H	 2.5857934781	-2.6087790791	 1.8243761902	 0.109235
H	 2.8298086707	-0.3687743117	 1.364832665	 0.242935
87.8295	133.488	174.804	197.8171	245.7278	285.3056	346.8193	390.0701	502.6379	526.1961	632.1355	693.4399	759.0219	783.501	831.1947	849.9608	884.003	930.1442	944.2524	976.7794	991.3092	1017.4989	1068.3056	1075.7208	1084.3047	1107.9285	1134.4031	1155.8853	1181.9778	1202.2162	1213.8925	1220.4846	1246.7712	1251.0426	1285.1774	1318.54	1327.4674	1396.7411	1423.5148	1469.5891	1479.5929	1485.2821	1492.2581	1502.554	1511.3995	3028.3186	3036.379	3044.9392	3087.8595	3090.9971	3106.821	3108.069	3119.8166	3123.2459	3194.2914	3451.7666	3469.72
CC12CCC1(N2)C1CN1	C[C@]12CC[C@]1(N2)[C@H]1CN1	
InChI=1S/C7H12N2/c1-6-2-3-7(6,9-6)5-4-8-5/h5,8-9H,2-4H2,1H3	InChI=1S/C7H12N2/c1-6-2-3-7(6,9-6)5-4-8-5/h5,8-9H,2-4H2,1H3/t5-,6+,7+/m1/s1
