17
gdb 54181	2.82135	1.06287	0.98055	4.3628	71.2	-0.2512	-0.0396	0.2116	1259.2536	0.134246	-455.167385	-455.15788	-455.156936	-455.201956	34.243	
C	 0.1108984945	 1.5137964962	-0.3530461948	-0.496402
C	 0.2346725797	 0.0083549028	-0.2239960688	 0.196688
N	 1.5735200304	-0.5607037103	-0.2852427149	-0.355983
C	 0.8580405733	-0.6536789044	 0.9917421716	-0.140123
C	 1.3994359735	 0.15677842	 2.1199368332	 0.165713
O	 1.1129725652	-0.0381024401	 3.2744378299	-0.255278
C	-0.8338320594	-0.872646644	-0.8556875991	 0.381801
N	-2.0105821361	-0.2682194338	-1.1636356896	-0.537836
O	-0.618695198	-2.0515930753	-1.0811080489	-0.376779
H	 1.0306199123	 1.9994385941	-0.0246880689	 0.146625
H	-0.0581463888	 1.7982163143	-1.3967452081	 0.136075
H	-0.7116543288	 1.9104638864	 0.2531364467	 0.125849
H	 1.5017429354	-1.4660951505	-0.7523841538	 0.258218
H	 0.4217338345	-1.6060207973	 1.2801604005	 0.126727
H	 2.1055770088	 0.9590673722	 1.8147354739	 0.087722
H	-2.2216396195	 0.6748131937	-0.8913368109	 0.266685
H	-2.7522913269	-0.8441688441	-1.5273227479	 0.270298
64.2922	98.4767	126.4714	200.515	235.899	250.565	281.7093	336.7474	375.7649	406.8412	453.1821	514.0339	573.8869	594.816	681.7833	769.7864	824.5628	884.1229	998.7967	1019.7601	1046.5403	1077.8206	1089.9842	1103.2588	1115.5035	1229.0999	1247.2841	1333.7392	1381.9638	1387.0966	1414.3108	1446.135	1494.4988	1502.748	1618.6867	1778.7553	1821.1487	2899.6417	3034.268	3096.1829	3140.2293	3162.8943	3459.3289	3609.3036	3744.894
CC1(NC1C=O)C(N)=O	C[C@]1(N[C@H]1C=O)C(=O)N	
InChI=1S/C5H8N2O2/c1-5(4(6)9)3(2-8)7-5/h2-3,7H,1H3,(H2,6,9)	InChI=1S/C5H8N2O2/c1-5(4(6)9)3(2-8)7-5/h2-3,7H,1H3,(H2,6,9)/t3-,5+/m0/s1
