16
gdb 66013	2.65718	1.35836	1.29279	1.6694	65.6	-0.2717	0.0066	0.2783	1053.2674	0.122882	-474.982313	-474.973757	-474.972813	-475.015923	30.887	
O	 0.1885982009	 1.5391379746	 0.8922155075	-0.468834
C	-0.0157691321	 0.2203840081	 0.4343841386	 0.216361
C	 0.5101315225	-0.0877731353	-0.9883683461	-0.123945
O	 1.4586486942	-1.059945866	-0.4248696157	-0.251415
C	 1.0710509678	-0.7603547803	 0.8525898593	 0.384557
N	 1.5070331193	-1.1034224287	 1.9765981817	-0.555536
C	-1.4353961412	-0.2098371055	 0.7387276604	 0.037882
C	-2.5368831577	 0.0590964807	-0.1884456194	-0.182906
O	-1.9894044179	-1.2575394355	-0.0534242535	-0.226448
H	 0.6894518583	 1.48185667	 1.7147503248	 0.302551
H	-0.1824665646	-0.5828150079	-1.6683277632	 0.139291
H	 1.0357680479	 0.7450966146	-1.4572847342	 0.129737
H	 2.3029657113	-1.739312045	 1.9080791133	 0.236181
H	-1.6505227387	-0.2769261566	 1.8051591178	 0.11458
H	-3.5458581703	 0.1863332317	 0.1982749732	 0.128393
H	-2.3358916395	 0.5542352911	-1.1373547447	 0.119553
77.0847	99.8641	146.2442	202.3402	226.9765	257.8167	315.9387	405.3467	473.2342	576.3379	638.0906	709.412	781.9935	864.2924	875.4155	886.8782	935.9632	943.9796	973.0655	1026.1256	1054.7188	1092.569	1152.1782	1160.7447	1166.464	1203.8159	1232.2702	1245.0814	1286.311	1353.9441	1377.5087	1434.9212	1490.0859	1528.3579	1825.9237	3087.5965	3090.8139	3117.8994	3164.0707	3179.8366	3482.6449	3795.007
OC1(COC1=N)C1CO1	O[C@]1(CO[C]1[NH])[C@H]1CO1	
InChI=1S/C5H7NO3/c6-4-5(7,2-9-4)3-1-8-3/h3,6-7H,1-2H2	InChI=1S/C5H7NO3/c6-4-5(7,2-9-4)3-1-8-3/h3,6-7H,1-2H2/t3-,5-/m1/s1
