21
gdb 101010	2.71311	1.08367	1.02468	3.6994	74.01	-0.2468	0.0555	0.3023	1292.6597	0.181581	-461.345458	-461.335851	-461.334907	-461.379609	36.888	
O	-0.2280211041	 1.4953776408	 0.2437823537	-0.428995
C	-0.0459691564	 0.0951024972	 0.3019118719	-0.078551
C	-1.3830619239	-0.6174290659	 0.0542962626	 0.095121
O	-1.9567135305	-0.107259356	-1.1510956754	-0.45855
C	-1.2793835101	-2.1421667707	-0.0311623394	 0.374967
O	-0.4617516221	-2.3860475536	-1.16656799	-0.49781
C	-0.9189271964	-2.8460515081	 1.311246421	-0.28204
C	-2.4307729124	-3.1316275445	 1.5231163948	-0.213999
C	-2.6678678401	-2.8411948614	 0.015941525	-0.282258
H	-0.8048894399	 1.6385632485	-0.5183879844	 0.283974
H	 0.6910171953	-0.2527364868	-0.4382626063	 0.094744
H	 0.3436555758	-0.1403747207	 1.2976680095	 0.101507
H	-2.0782692966	-0.3407863989	 0.8546327362	 0.089303
H	-1.5072539552	-0.5798310289	-1.8652497682	 0.28888
H	-0.5184335773	-3.3201469889	-1.3892514939	 0.281839
H	-0.3526505286	-3.7627974234	 1.118833671	 0.097322
H	-0.3891552486	-2.2667457693	 2.0707821699	 0.108385
H	-2.7017807918	-4.1246542694	 1.885271948	 0.103851
H	-2.9064422599	-2.3893295426	 2.1682256169	 0.114521
H	-3.5306010774	-2.2411682777	-0.2792733202	 0.120334
H	-2.66192813	-3.7625789197	-0.5775721228	 0.087454
94.2771	103.9839	151.5105	174.2544	262.1638	281.0239	308.3855	330.9444	354.1907	453.9174	482.2913	501.0458	524.4084	571.1311	672.3763	779.7221	790.3859	845.5569	890.712	928.5204	931.0756	982.4845	1018.6066	1042.0478	1073.8224	1089.4652	1118.7735	1119.3032	1163.7216	1198.2255	1207.8062	1215.2223	1244.6677	1268.5896	1272.4166	1304.4364	1315.5913	1385.321	1396.0148	1437.2604	1446.789	1474.6461	1487.9949	1507.3138	1512.7487	2990.7669	3041.1858	3054.9501	3056.534	3073.8632	3076.8493	3108.515	3115.8738	3129.5041	3755.6192	3761.0199	3825.15
OCC(O)C1(O)CCC1	OC[C@@H](O)C1(O)CCC1	
InChI=1S/C6H12O3/c7-4-5(8)6(9)2-1-3-6/h5,7-9H,1-4H2	InChI=1S/C6H12O3/c7-4-5(8)6(9)2-1-3-6/h5,7-9H,1-4H2/t5-/m1/s1
