20
gdb 89824	2.75045	1.40857	1.13144	2.9283	80.58	-0.2429	0.0302	0.2731	1158.4494	0.171533	-403.164684	-403.156218	-403.155274	-403.19779	32.962	
C	 0.6976982348	 1.4231523001	-0.1901593266	-0.397684
C	-0.0643345155	 0.1090994886	 0.0461117047	-0.072342
C	 0.1363972172	-0.9403047826	-1.065467199	-0.317926
C	 1.2963233136	-1.761599445	-0.5310232085	 0.446618
C	 1.7874884982	-3.048448537	-1.0981984054	-0.338113
C	 2.6661078069	-1.8066224867	-1.1448716917	-0.32133
O	 1.2367487215	-1.6807510294	 0.8913787531	-0.269382
C	 0.4750449235	-0.6098072786	 1.2723067859	 0.396062
N	 0.2668193539	-0.2684676956	 2.4696806037	-0.546737
H	 1.7625490204	 1.2387929166	-0.3666249274	 0.123844
H	 0.295006178	 1.9483677573	-1.0618671365	 0.114227
H	 0.6061120236	 2.0731185327	 0.6833681696	 0.143209
H	-1.1199849318	 0.3368297212	 0.2076465907	 0.1035
H	-0.7546448826	-1.5696372117	-1.1651742418	 0.113413
H	 0.3515635386	-0.5000528439	-2.0418536059	 0.108878
H	 2.0627891247	-3.825410648	-0.3940767421	 0.130581
H	 1.3391685169	-3.4060851561	-2.0192659587	 0.119515
H	 2.8219063499	-1.3157216439	-2.099751466	 0.116799
H	 3.5121168511	-1.7737734593	-0.4678198569	 0.127618
H	 0.758330857	-0.8906916988	 3.1136344889	 0.21925
79.9469	94.4587	230.2027	247.6027	267.3975	293.8988	354.7868	446.5744	475.1603	519.4837	658.4079	679.479	760.6061	770.0569	818.0922	859.3021	890.4505	908.8739	925.6947	953.5848	963.426	980.9269	1040.6311	1051.5422	1076.8053	1084.4134	1116.5404	1133.3005	1188.7751	1194.7935	1233.0724	1277.6598	1311.3016	1339.9983	1356.2951	1384.3046	1407.2774	1452.0478	1490.6601	1499.9332	1499.9983	1502.6175	1775.9162	3037.9593	3045.6613	3086.1784	3105.1033	3109.454	3127.3286	3131.9899	3134.9463	3217.3831	3231.1319	3470.7537
CC1CC2(CC2)OC1=N	C[C@H]1CC2(CC2)O[C]1[NH]	
InChI=1S/C7H11NO/c1-5-4-7(2-3-7)9-6(5)8/h5,8H,2-4H2,1H3	InChI=1S/C7H11NO/c1-5-4-7(2-3-7)9-6(5)8/h5,8H,2-4H2,1H3/t5-/m0/s1
