15
gdb 66658	2.88656	2.13527	1.48503	2.8539	67.16	-0.2304	-0.0224	0.208	857.0739	0.113122	-420.58727	-420.580727	-420.579783	-420.617853	27.002	
O	-0.017082592	 1.3491190204	 0.0762448031	-0.484052
C	-0.0176325379	-0.0240964157	 0.0261661278	 0.313514
C	-1.2336256912	-0.8842188718	 0.3335754248	-0.156897
C	-0.6613365961	-2.3267155787	 0.4965625573	-0.08622
C	-0.11524603	-2.2760220914	-0.89949095	-0.086306
C	 0.8497750793	-2.1855090969	 0.2870233106	-0.213899
C	 1.2085756797	-0.7550181377	 0.478738923	 0.394423
O	 2.2097179353	-0.2184796677	 0.8903108169	-0.364174
C	-0.6821331801	-0.8331022556	-1.0770827403	-0.156935
H	 0.857114977	 1.5846912784	 0.42543679	 0.297111
H	-2.1589133468	-0.4858464848	 0.7242726933	 0.108894
H	-1.0968705183	-3.1485322417	 1.0484101089	 0.105191
H	-0.0410216515	-3.0505179208	-1.6506620333	 0.105177
H	 1.5247430335	-2.9955826111	 0.521759535	 0.115297
H	-1.1074328609	-0.388325275	-1.965222377	 0.108876
147.6914	254.6918	317.8422	362.8114	457.4367	493.7092	584.2475	616.8376	743.4794	745.7204	765.5563	769.0455	794.1482	839.7146	882.9332	899.0259	904.5901	923.0741	961.5809	991.3026	1024.1869	1038.4375	1050.6476	1122.6945	1154.2382	1189.6538	1237.9346	1253.9044	1287.7814	1342.9696	1398.799	1463.9261	1842.5087	3199.8147	3209.495	3219.2367	3227.7216	3233.6911	3701.8579
OC12C3C4C(C4C1=O)C23	O[C@]12[C@@H]3[C@H]4[C@H]([C@H]4C1=O)[C@H]23	
InChI=1S/C7H6O2/c8-6-3-1-2(3)5-4(1)7(5,6)9/h1-5,9H	InChI=1S/C7H6O2/c8-6-3-1-2(3)5-4(1)7(5,6)9/h1-5,9H/t1-,2+,3-,4+,5-,7-
