20
gdb 58167	2.92823	1.06563	0.91134	3.4276	84.02	-0.2357	-0.0379	0.1979	1353.7035	0.169479	-399.346408	-399.335862	-399.334918	-399.382335	37.416	
C	 0.2643396576	 1.3915288419	 0.1928175239	-0.395009
C	-0.0946659686	-0.082861711	-0.0415351231	 0.053113
C	-1.6067179399	-0.3107618639	-0.1214229172	-0.410379
N	 0.5961558942	-0.6179507154	-1.2309116909	-0.092558
C	 0.0622835867	-0.3145076313	-2.5482037973	-0.364457
C	 1.8393072479	-1.1550086276	-1.0503277345	 0.318357
N	 2.4145086122	-1.2261999561	 0.0981855083	-0.543224
C	 2.4950789774	-1.6837574755	-2.2397937865	 0.218101
N	 3.0880430109	-2.1276333271	-3.1285626832	-0.341734
H	 1.3448675701	 1.5070635716	 0.3058705247	 0.140768
H	-0.0738920297	 2.025394039	-0.6342830402	 0.113038
H	-0.2155443065	 1.754622721	 1.1068768206	 0.120463
H	 0.3006865035	-0.6614143868	 0.7958426431	 0.133135
H	-2.0825067005	 0.3031130638	-0.8928711953	 0.119384
H	-1.8406846517	-1.3608802379	-0.3202900687	 0.125768
H	-2.0598500299	-0.0392387225	 0.8361919776	 0.12661
H	-0.0516010964	 0.7673728544	-2.691301147	 0.132431
H	 0.7355370835	-0.6860230667	-3.3205257253	 0.169428
H	-0.9148558499	-0.7844338383	-2.6954530202	 0.138101
H	 3.3053138092	-1.7099001118	 0.0289415013	 0.238664
56.5016	66.6674	101.515	163.9725	178.0952	224.468	254.5594	271.5645	320.7376	328.8683	389.0146	440.9415	477.2772	517.3796	610.2643	720.1325	732.9328	787.7114	841.9777	927.8717	945.937	955.0751	1068.7965	1110.5081	1140.8662	1157.6964	1187.6126	1234.0524	1265.3992	1359.2953	1395.1262	1401.0636	1418.7071	1448.9312	1470.6372	1481.1084	1487.7369	1490.8678	1502.7741	1511.8985	1527.4665	1655.683	2340.7825	3021.6682	3036.1104	3040.8553	3082.1079	3087.3545	3103.2801	3115.6733	3118.2582	3127.8136	3150.2038	3538.8697
CC(C)N(C)C(=N)C#N	CC(C)N(C)C(=N)C#N	
InChI=1S/C6H11N3/c1-5(2)9(3)6(8)4-7/h5,8H,1-3H3	InChI=1S/C6H11N3/c1-5(2)9(3)6(8)4-7/h5,8H,1-3H3
