21
gdb 117221	3.93119	0.73369	0.70956	3.2543	80.79	-0.2472	-0.0257	0.2215	1723.1841	0.179278	-424.233316	-424.222915	-424.221971	-424.269895	36.743	
C	 0.2215439791	 1.6112546221	-0.6192227715	-0.387679
C	 0.0774165654	 0.2278118285	 0.0190804247	-0.163511
C	-1.2907689411	-0.4018088305	-0.238779428	-0.293747
C	-1.4493316355	-1.7957214457	 0.3488396858	 0.361338
O	-0.5360150164	-2.3967603193	 0.8676690435	-0.309272
C	-2.8399979008	-2.3705081483	 0.2479642216	-0.048679
O	-2.9869379459	-3.7820107183	 0.3646454482	-0.233581
C	-3.5206339489	-2.9932704854	 1.4172411923	 0.085744
C	-2.9029291621	-3.1369657544	 2.7822708669	-0.433091
H	 1.2087575402	 2.0373239131	-0.4166663164	 0.117541
H	 0.0972733384	 1.5638691293	-1.7069721761	 0.114217
H	-0.5278126009	 2.31130296	-0.2324719789	 0.112415
H	 0.8525326051	-0.447556101	-0.3571419988	 0.118938
H	 0.2422130962	 0.2921588378	 1.1003536764	 0.109934
H	-2.1021465652	 0.2308895917	 0.1514980925	 0.118806
H	-1.4900487805	-0.4754822097	-1.3189294647	 0.126179
H	-3.4746809845	-1.907526147	-0.5095496171	 0.093275
H	-4.6113330104	-2.9262432464	 1.4034274757	 0.095931
H	-1.8150645296	-3.1614732002	 2.7155004062	 0.166183
H	-3.2124260374	-2.3084836975	 3.4284893051	 0.118044
H	-3.249023605	-4.0674686788	 3.2443421324	 0.131014
41.6571	54.0325	101.9436	128.2234	179.001	215.9463	245.9906	260.5163	321.0783	363.9659	389.122	440.7187	585.3474	705.4755	745.4165	790.3057	830.3232	876.565	892.8264	907.6085	985.6414	1023.8659	1047.5858	1057.8285	1073.9434	1114.1191	1140.9317	1168.3985	1174.2462	1246.6383	1287.3248	1313.4578	1322.6003	1384.6871	1396.8682	1412.8967	1415.4937	1448.9776	1449.1774	1486.6921	1492.1367	1500.6506	1503.4915	1507.5389	1803.4158	2999.7347	3025.0411	3028.6047	3040.8169	3049.1882	3076.2249	3077.2175	3098.3007	3100.6458	3100.9973	3104.8594	3157.7194
CCCC(=O)C1OC1C	CCCC(=O)[C@H]1O[C@H]1C	
InChI=1S/C7H12O2/c1-3-4-6(8)7-5(2)9-7/h5,7H,3-4H2,1-2H3	InChI=1S/C7H12O2/c1-3-4-6(8)7-5(2)9-7/h5,7H,3-4H2,1-2H3/t5-,7-/m0/s1
