21
gdb 61446	3.09765	0.85437	0.76254	2.0974	79.36	-0.2453	-0.0111	0.2341	1572.6698	0.178984	-424.23165	-424.221172	-424.220228	-424.268371	36.892	
C	 0.2704132609	 1.8346246841	 0.0150992092	-0.411095
C	 0.061833527	 0.3147477191	 0.0656111424	 0.001967
C	 0.6063285226	-0.3938787787	-1.1829392348	-0.309024
C	-0.1967788132	-0.1435631913	-2.4541013277	 0.379352
C	 0.4088476705	-0.6790115369	-3.7398910601	-0.472366
O	-1.2600470021	 0.4349602574	-2.443726502	-0.295627
C	 0.7037734839	-0.268890801	 1.3065536517	 0.087231
C	-0.0625297914	-0.5780787264	 2.5192708008	-0.183245
O	 0.3590677935	-1.6182814099	 1.6326083829	-0.247536
H	 1.3364938808	 2.0861626223	-0.0427095665	 0.107478
H	-0.2311879245	 2.259949081	-0.8562998072	 0.141601
H	-0.1358849803	 2.3160348497	 0.9103006444	 0.116115
H	-1.0132803326	 0.1099096477	 0.1122267175	 0.097517
H	 1.6566377047	-0.127736192	-1.3682448289	 0.108935
H	 0.6061526853	-1.4803611646	-1.0159546757	 0.142717
H	 0.6840146911	-1.7336701362	-3.6323560268	 0.137978
H	-0.2975687836	-0.5587234819	-4.5619997533	 0.142626
H	 1.3310666504	-0.1329165754	-3.970884563	 0.140259
H	 1.7681727559	-0.0496467796	 1.4263915479	 0.085766
H	 0.4255746256	-0.5679601554	 3.4929082145	 0.113805
H	-1.1349032147	-0.3868237224	 2.5358184649	 0.115546
40.8531	66.527	94.5901	113.158	141.2402	205.7418	222.6958	297.3564	319.2369	356.0129	462.769	492.788	498.3133	595.5753	798.4665	812.512	840.6357	866.7448	904.5709	949.4629	963.4287	983.355	990.1606	1089.4002	1123.1178	1139.9367	1155.8106	1165.3284	1177.1682	1200.6334	1246.3326	1278.4585	1296.4435	1344.4874	1378.6392	1388.3359	1403.8464	1446.3957	1446.5899	1464.4941	1477.0636	1497.9152	1506.6784	1529.9902	1807.3861	3012.4709	3029.6188	3037.0527	3043.0961	3057.0306	3075.2274	3082.5648	3095.247	3097.8775	3133.3081	3152.436	3168.2201
CC(CC(C)=O)C1CO1	C[C@@H](CC(=O)C)[C@H]1CO1	
InChI=1S/C7H12O2/c1-5(3-6(2)8)7-4-9-7/h5,7H,3-4H2,1-2H3	InChI=1S/C7H12O2/c1-5(3-6(2)8)7-4-9-7/h5,7H,3-4H2,1-2H3/t5-,7+/m0/s1
