16
gdb 129752	2.99422	1.43037	1.04811	2.7861	74.27	-0.2058	-0.0042	0.2016	1121.5069	0.125518	-434.01841	-434.010501	-434.009557	-434.051467	29.476	
N	 0.0417305908	 1.4492002927	 0.0863617278	-0.616356
C	 0.0536575319	 0.0517405885	-0.0022712253	 0.034557
C	-1.0042403113	-0.7899264263	-0.1885387843	 0.439841
O	-0.5603773421	-2.0686412916	-0.3165851292	-0.224949
N	 0.8227677413	-2.0822140578	-0.1919398849	-0.151995
C	 1.1710188739	-0.8284711559	-0.0187727652	 0.003222
N	-2.3587206692	-0.4836550044	-0.2651575095	-0.208786
C	-3.1769302293	-1.1503812231	-1.2988115297	-0.223783
C	-3.33808945	-1.5097936668	 0.1322711999	-0.223591
H	 0.6176509564	 1.8008435831	 0.8415752286	 0.246477
H	-0.9059695759	 1.7903906645	 0.2008430066	 0.252245
H	 2.2186711549	-0.5859788994	 0.0963803424	 0.126854
H	-3.9005261766	-0.5055744946	-1.7876483892	 0.128004
H	-2.6738804902	-1.8667342926	-1.9409434443	 0.144193
H	-2.9492438623	-2.470243334	 0.4547982953	 0.147527
H	-4.1827202224	-1.1295419223	 0.698658691	 0.126541
46.1216	162.4111	171.6971	239.1084	283.2693	304.9659	433.0244	512.4323	588.131	645.6154	707.3396	716.8024	802.5122	820.9956	837.9449	898.7794	899.2697	948.4262	965.0602	1039.8312	1082.6906	1110.8163	1135.2055	1156.683	1184.9791	1216.4762	1227.1994	1233.9699	1353.7162	1453.8098	1486.1233	1507.1026	1521.3234	1644.1381	1713.6554	3120.5894	3123.9373	3209.5444	3224.2987	3236.3459	3520.1334	3609.6293
NC1=C(ON=C1)N1CC1	Nc1c(onc1)N1CC1	
InChI=1S/C5H7N3O/c6-4-3-7-9-5(4)8-1-2-8/h3H,1-2,6H2	InChI=1S/C5H7N3O/c6-4-3-7-9-5(4)8-1-2-8/h3H,1-2,6H2
