19
gdb 49511	3.92253	1.29114	1.24123	2.5895	78.97	-0.2494	-0.0219	0.2276	1065.353	0.161037	-385.854484	-385.84738	-385.846436	-385.886043	28.934	
O	-0.7742787809	 0.9113426244	 0.6376027901	-0.245999
C	 0.0600341781	 1.0460676402	-0.2231058054	 0.113039
C	 1.3044084421	 1.8837924279	-0.1328114082	-0.07126
C	 1.2159666328	 3.2804976133	-0.8460027174	-0.062918
C	 0.4654831264	 3.7546269832	 0.4453872157	-0.223233
C	 1.4822173344	 2.7692474299	 1.1274889014	-0.043683
C	 2.8013456292	 3.5263680015	 0.8668089271	-0.035976
C	 3.7793155594	 3.0458959533	-0.1773735707	-0.315919
C	 2.6073795611	 3.8992188678	-0.596022815	-0.032117
H	-0.0365515888	 0.5047372487	-1.1940102168	 0.074043
H	 2.127461797	 1.2355481217	-0.4497011566	 0.078379
H	 0.7885886767	 3.3795349673	-1.8446306214	 0.067703
H	 0.5533180509	 4.8133100971	 0.7021262303	 0.090313
H	-0.5711395271	 3.4236943462	 0.5123272903	 0.1217
H	 1.3074965583	 2.3607231823	 2.1214611011	 0.077144
H	 3.1275308696	 4.246634726	 1.6083264333	 0.091083
H	 4.7371726611	 3.5576879252	-0.1768899504	 0.11063
H	 3.864761795	 2.0016274379	-0.4546726938	 0.115406
H	 2.7852149148	 4.9014000861	-0.9695755134	 0.091667
87.1294	180.7935	255.1826	335.2977	352.929	456.2654	546.1525	645.0553	681.6539	767.6644	793.2718	808.1074	831.6974	858.1674	888.9549	911.892	919.0097	981.5468	998.6499	1011.973	1032.5425	1041.6579	1078.4235	1082.8057	1089.6998	1094.2618	1109.892	1122.0406	1191.4071	1205.1077	1226.9992	1246.6763	1254.5715	1259.4092	1312.9837	1359.2212	1374.2273	1430.0103	1498.0158	1507.6951	1818.3188	2851.4924	3056.016	3068.8835	3106.5153	3130.4581	3131.77	3145.2729	3168.1629	3176.5341	3204.7502
O=CC1C2CC1C1CC21	O=C[C@H]1[C@H]2C[C@@H]1[C@H]1C[C@@H]21	
InChI=1S/C8H10O/c9-3-8-6-2-7(8)5-1-4(5)6/h3-8H,1-2H2	InChI=1S/C8H10O/c9-3-8-6-2-7(8)5-1-4(5)6/h3-8H,1-2H2/t4-,5+,6+,7-,8+
