18
gdb 39023	3.03166	1.7307	1.29048	2.2878	77.16	-0.2351	0.0163	0.2513	992.7647	0.15047	-401.9026	-401.895675	-401.89473	-401.933749	28.02	
C	-0.0647134885	 1.4942233952	-0.0321494704	-0.158
O	 1.3715169164	 1.5149388807	 0.2117977291	-0.311752
C	 1.4922400776	 0.1219384123	-0.201169856	 0.115218
C	 2.1805420805	-0.8817805132	 0.6870045961	-0.089191
N	 1.5299490929	-1.1966689064	 1.9674828133	-0.321254
C	 1.445745156	-2.1725120663	 0.8714016156	-0.021494
C	 0.0544729015	-2.3985330811	 0.2733026568	-0.261907
C	-0.6961003934	-1.0994414483	 0.0712594481	-0.217821
C	 0.0003625281	-0.00447374	-0.1827597386	 0.246843
H	-0.63909307	 1.8790946394	 0.8181496307	 0.121915
H	-0.3242207263	 2.0652653975	-0.9349052687	 0.103021
H	 1.9526431972	 0.0730357212	-1.2009339338	 0.076852
H	 3.2667074073	-0.9166524063	 0.6437257122	 0.082992
H	 2.2321949195	-1.481468634	 2.6443098199	 0.233236
H	 2.0531806622	-3.0721470645	 0.9472261709	 0.084354
H	 0.1613385286	-2.9606033921	-0.6653286587	 0.112099
H	-0.5160310976	-3.0471980967	 0.9492227544	 0.112203
H	-1.7686094521	-1.0806238373	 0.2395429591	 0.092686
141.0632	188.7426	273.2966	323.4845	382.5131	426.4589	475.7412	619.0287	704.9227	770.9102	788.2012	788.942	845.7372	877.606	911.6214	949.5872	969.8421	977.6585	992.4367	1022.6531	1038.2347	1070.9317	1110.4451	1122.2108	1138.4669	1162.2192	1184.2208	1227.1389	1251.7104	1269.6254	1306.4823	1338.3456	1353.2567	1390.1518	1395.7768	1450.5962	1475.0233	1507.96	1794.4668	2971.4415	2999.23	3008.3259	3049.419	3059.7379	3122.7736	3134.8729	3171.6528	3513.3139
C1OC2C3NC3CC=C12	C1O[C@H]2[C@H]3N[C@H]3C[CH][C]12	
InChI=1S/C7H9NO/c1-2-5-6(8-5)7-4(1)3-9-7/h1,5-8H,2-3H2	InChI=1S/C7H9NO/c1-2-5-6(8-5)7-4(1)3-9-7/h1,5-8H,2-3H2/t5-,6-,7+/m0/s1
