21
gdb 90882	3.07319	1.60129	1.41265	1.265	81.11	-0.2501	0.0713	0.3215	1008.8606	0.185949	-387.060553	-387.053432	-387.052488	-387.091662	30.321	
O	 0.054050929	 1.4807876004	 0.0970646783	-0.426286
C	 0.0411056722	 0.0695788072	 0.026006776	 0.105354
C	 0.4088469912	-0.7512422116	 1.3065343891	-0.303546
C	-0.9850515841	-1.4419234146	 1.2555270156	 0.006885
C	-2.0817035709	-0.9973631091	 2.2433193932	-0.032407
C	-3.3290451065	-0.9985203202	 1.3019933899	-0.223352
C	-2.5752537915	 0.2025562893	 0.6390724774	-0.019094
C	-2.1167760982	 0.5503061882	 2.0830760959	-0.230876
C	-1.3809617267	-0.5504730155	 0.0221058132	-0.019268
H	 0.9714370526	 1.7702107055	 0.1274301814	 0.282219
H	 0.6211971724	-0.2727470739	-0.8428271778	 0.063832
H	 1.2594219801	-1.425689512	 1.1770071057	 0.090996
H	 0.585515446	-0.1370104184	 2.1935983329	 0.099731
H	-0.961613219	-2.523657933	 1.1102070231	 0.060974
H	-2.0977263839	-1.4717614443	 3.2258135453	 0.053456
H	-3.5162246186	-1.8909145166	 0.6955762853	 0.082953
H	-4.2445259482	-0.6895568622	 1.811921855	 0.092398
H	-3.0876725881	 0.9322439007	 0.0127848449	 0.061145
H	-2.9283481451	 0.9939024695	 2.664953755	 0.088712
H	-1.2066655947	 1.1342774403	 2.2110546534	 0.105374
H	-1.655804258	-1.0474735695	-0.9110229729	 0.0608
147.7999	206.4208	273.44	316.196	415.4166	438.6517	511.312	574.5858	607.9583	718.2251	784.1841	804.7496	843.9868	848.1631	862.9489	875.7058	900.8386	925.9495	994.7686	1008.7949	1020.3984	1031.4994	1043.2703	1057.3261	1073.1432	1089.8901	1099.7198	1134.4253	1157.2584	1187.2614	1201.4369	1221.0331	1238.8319	1244.5828	1248.3242	1256.1551	1289.2447	1313.9254	1327.6459	1337.024	1340.1853	1422.8174	1471.8498	1493.9475	1536.4777	2986.9787	3044.1951	3055.0152	3073.6092	3074.7665	3084.5594	3101.2634	3109.545	3111.9815	3120.4901	3146.6657	3815.4795
OC1CC2C3CC(C3)C12	O[C@H]1C[C@H]2[C@@H]3C[C@@H](C3)[C@@H]12	
InChI=1S/C8H12O/c9-7-3-6-4-1-5(2-4)8(6)7/h4-9H,1-3H2	InChI=1S/C8H12O/c9-7-3-6-4-1-5(2-4)8(6)7/h4-9H,1-3H2/t4-,5+,6-,7-,8+/m0/s1
