15
gdb 19988	3.67221	1.71705	1.34603	1.6038	67.11	-0.2436	0.0123	0.2559	912.3116	0.117987	-362.569817	-362.562254	-362.561309	-362.60195	27.842	
C	 0.0449861235	-1.1448229314	 0.4612358451	-0.413697
C	 0.0992641342	 0.0396306846	 0.2647934536	 0.333516
C	 0.111582699	 1.4524100289	 0.0056317334	-0.160081
O	 0.7338991182	 2.3135549349	 0.9847750251	-0.246999
C	 1.3474553612	 2.2149665866	-0.2954946637	 0.050909
C	 2.7147731053	 1.6064136899	-0.3458571584	-0.036743
C	 3.7430608771	 2.0976283303	 0.6096645333	-0.235638
N	 3.1893102958	 0.7401111817	 0.7325367411	-0.311787
H	 0.0169366308	-2.192202985	 0.6362658621	 0.208235
H	-0.8248084281	 1.8534969556	-0.381378783	 0.121795
H	 1.2203884571	 3.0993304182	-0.924357129	 0.102994
H	 3.0241601094	 1.3030684162	-1.3443222284	 0.100485
H	 4.7851555309	 2.1477463919	 0.3080144409	 0.119439
H	 3.4334869265	 2.8480313114	 1.3323350111	 0.12319
H	 2.489934939	 0.7306687662	 1.4727954368	 0.244382
78.0196	112.7506	195.8827	246.6603	252.6433	395.9676	524.5885	582.1333	626.2763	658.5844	681.0332	742.2488	835.2386	852.6239	869.5759	947.9469	970.5938	992.1475	1045.4814	1102.7625	1125.6286	1141.7972	1148.4948	1191.2302	1264.7808	1279.374	1307.1588	1378.862	1409.1707	1445.9562	1510.0454	2241.731	3082.1716	3111.4988	3114.3834	3127.8202	3199.9788	3495.2441	3501.8352
C#CC1OC1C1CN1	C#C[C@H]1O[C@H]1[C@H]1CN1	
InChI=1S/C6H7NO/c1-2-5-6(8-5)4-3-7-4/h1,4-7H,3H2	InChI=1S/C6H7NO/c1-2-5-6(8-5)4-3-7-4/h1,4-7H,3H2/t4-,5-,6+/m1/s1
