20
gdb 102985	2.00412	1.34902	1.12953	4.4856	80.66	-0.2458	0.0237	0.2695	1230.1487	0.169808	-399.302385	-399.292059	-399.291115	-399.337427	37.311	
C	-0.8279738657	 1.450741172	 0.3975183436	-0.425432
C	-0.3128748588	 0.0367050985	 0.2293296353	-0.031989
N	 1.0252206997	-0.2994969877	-0.2361476227	-0.118018
C	 1.9956692297	 0.7333624855	-0.5717814581	-0.328358
C	 0.692071588	-0.5880663711	 1.1712150597	 0.093444
C	 1.2967267441	 0.1707247623	 2.3617128009	-0.230251
N	 2.5932144562	-0.3098301481	 2.8273486886	-0.502378
C	 0.5641303893	-2.0092050325	 1.4500932192	 0.278421
N	 0.4618183501	-3.1285107029	 1.7233191229	-0.350291
H	-0.0994968337	 2.138701974	 0.8276414497	 0.127485
H	-1.1339375505	 1.85107325	-0.5748687565	 0.134902
H	-1.7107042382	 1.4484659522	 1.0445346765	 0.138269
H	-1.067290606	-0.640804839	-0.1696106422	 0.110842
H	 1.9947097767	 1.6252337829	 0.0687056257	 0.10974
H	 2.9974961625	 0.2935126944	-0.5455975186	 0.134478
H	 1.8032142523	 1.0577336849	-1.5988946627	 0.137445
H	 1.3906918929	 1.2300310414	 2.1165446653	 0.113468
H	 0.5896602467	 0.1066261987	 3.1964682032	 0.128862
H	 2.5243844471	-1.2845995952	 3.1066963805	 0.247529
H	 3.2759604775	-0.2740990601	 2.0762087397	 0.231832
74.6801	124.7332	141.8299	154.7046	181.131	197.5658	240.842	270.869	316.5651	332.7421	419.6436	433.5501	532.4015	559.8429	580.7775	683.2392	777.0404	788.4918	873.9246	908.2688	981.0309	1026.1366	1060.9459	1107.2566	1132.0783	1138.4005	1158.6772	1179.4821	1199.376	1247.2703	1347.1469	1371.8199	1394.4194	1406.9772	1425.5143	1451.4031	1471.8387	1486.7791	1497.3352	1507.2972	1507.8774	1668.372	2347.2235	3009.4468	3045.8931	3052.0076	3078.7593	3103.2391	3105.9847	3107.8426	3116.4384	3148.0264	3491.7826	3570.2716
CC1N(C)C1(CN)C#N	C[C@H]1N(C)[C@]1(CN)C#N	
InChI=1S/C6H11N3/c1-5-6(3-7,4-8)9(5)2/h5H,3,7H2,1-2H3	InChI=1S/C6H11N3/c1-5-6(3-7,4-8)9(5)2/h5H,3,7H2,1-2H3/t5-,6-,9?/m1/s1
