19
gdb 31483	3.10248	1.07111	0.84527	2.0191	80.98	-0.2081	0.017	0.2251	1398.5462	0.157855	-423.066654	-423.056837	-423.055893	-423.101963	34.805	
C	 0.2116440705	 1.3672462077	-0.1102990054	-0.4952
C	-0.0556490961	-0.0947033384	-0.0625627904	 0.255342
C	-1.1917966325	-0.8486090457	-0.0188103063	 0.189433
C	-2.6129107908	-0.3759243339	-0.0021354591	-0.505748
C	-0.7501837628	-2.218730922	 0.0049123798	-0.374146
C	 0.6060396909	-2.2021216392	-0.018364648	 0.343264
C	 1.6648936623	-3.2478696696	-0.0349432471	-0.175838
O	 2.3833718956	-3.3050261066	-1.264262909	-0.413508
O	 1.0467766312	-0.907265885	-0.0576905257	-0.230859
H	 0.7560488541	 1.647930587	-1.0196743273	 0.135816
H	-0.7267772918	 1.9252201126	-0.0940214954	 0.134611
H	 0.8152502985	 1.6933880181	 0.7446402338	 0.136933
H	-3.1727072025	-0.7600690178	-0.8627473341	 0.130667
H	-3.1377341446	-0.7157996038	 0.8982521289	 0.129562
H	-2.6774394873	 0.7150216964	-0.0283428832	 0.12232
H	-1.3746899073	-3.0991746606	 0.0335661869	 0.108047
H	 2.3561097461	-3.0941070509	 0.8091915602	 0.099633
H	 1.196658653	-4.2270139972	 0.0952089709	 0.122475
H	 2.7272659437	-2.4207077612	-1.4289067894	 0.287195
56.7567	89.9482	112.3218	124.8857	214.8456	230.4149	262.8605	285.1927	317.4523	411.6536	458.6034	598.7187	633.9254	650.0684	710.4693	790.5635	818.242	930.5192	987.3687	998.9678	1015.3163	1043.8021	1057.5744	1066.8693	1146.9627	1173.1471	1207.1532	1241.7886	1295.7049	1368.4466	1396.1905	1417.6357	1425.787	1433.0173	1471.946	1483.1704	1489.8602	1491.1463	1497.4562	1614.0872	1683.0506	2975.9476	3027.0082	3028.7462	3075.3024	3075.9269	3099.5322	3111.325	3131.2355	3245.6404	3815.6108
CC1=C(C)C=C(CO)O1	Cc1c(C)cc(CO)o1	
InChI=1S/C7H10O2/c1-5-3-7(4-8)9-6(5)2/h3,8H,4H2,1-2H3	InChI=1S/C7H10O2/c1-5-3-7(4-8)9-6(5)2/h3,8H,4H2,1-2H3
