20
gdb 102981	1.91693	1.35544	1.11934	3.6741	80.54	-0.2762	0.0271	0.3033	1238.5615	0.169257	-403.152842	-403.142478	-403.141534	-403.188185	37.139	
C	-0.2594501571	 1.0731999525	-1.6963836945	-0.415184
C	-0.0342385067	-0.1686611111	-0.8614483523	-0.047064
C	 1.3150854817	-0.6347230507	-0.3818521469	-0.06402
C	 2.6195609964	 0.0661299962	-0.6980087963	-0.419929
C	 0.306320603	-0.074571212	 0.6299825078	 0.102383
C	 0.4924644846	 1.2790741521	 1.3120716345	-0.132515
O	-0.7399663853	 1.9169235093	 1.5862688967	-0.416974
C	-0.3436275172	-1.0253217348	 1.4968365508	 0.231128
N	-0.8794418233	-1.7528232598	 2.2215652115	-0.355015
H	 0.4836656791	 1.8518909606	-1.5145075891	 0.121266
H	-0.2156288728	 0.8207784384	-2.7609673293	 0.124596
H	-1.2434143122	 1.5023540169	-1.487280095	 0.143787
H	-0.7280883277	-0.9712462058	-1.0951196931	 0.109997
H	 1.4212537626	-1.7144541428	-0.3231954676	 0.109905
H	 2.5153475141	 1.147810093	-0.8018938955	 0.125339
H	 3.3643650337	-0.124782237	 0.0812330859	 0.132142
H	 3.0237029809	-0.3138134166	-1.6422609905	 0.130841
H	 1.0892701578	 1.1429432259	 2.2258823262	 0.108536
H	 1.0431638381	 1.9593145677	 0.6614943499	 0.112867
H	-1.2279954598	 1.366016738	 2.208920307	 0.297913
68.4487	110.8515	134.4352	147.3673	162.4063	185.1195	225.8978	284.8858	315.0243	371.8134	410.716	443.2729	543.2054	567.36	573.5698	705.3903	785.6293	822.9509	926.956	955.1973	1020.6287	1032.4217	1044.3039	1076.208	1088.581	1127.0509	1131.8975	1186.9164	1205.8071	1276.5951	1303.6782	1374.1092	1385.1098	1414.5916	1417.1092	1431.5082	1442.1192	1484.8641	1487.9104	1499.375	1505.4789	1513.6596	2335.8654	2999.3668	3041.2612	3047.0164	3099.7323	3109.0965	3115.7511	3121.7208	3134.4131	3144.578	3155.9518	3800.2287
CC1C(C)C1(CO)C#N	C[C@H]1[C@@H](C)[C@]1(CO)C#N	
InChI=1S/C7H11NO/c1-5-6(2)7(5,3-8)4-9/h5-6,9H,4H2,1-2H3	InChI=1S/C7H11NO/c1-5-6(2)7(5,3-8)4-9/h5-6,9H,4H2,1-2H3/t5-,6+,7-
