18
gdb 68657	4.06199	1.06692	0.98175	4.0449	73.48	-0.2493	0.0242	0.2736	1217.5317	0.147351	-439.060866	-439.052369	-439.051424	-439.094524	32.241	
O	-0.0554906185	 1.3327328158	 0.0425453919	-0.470134
C	 0.0226157757	-0.0419739176	 0.003126408	 0.411681
C	 0.6635638099	-1.0061703215	 1.0624901266	-0.366901
C	 0.0217776391	-1.8979303107	-0.0258519343	 0.458918
C	-1.2241785806	-0.9557072168	 0.0057150539	-0.292039
C	 0.6319865859	-0.954842125	-1.1070032222	-0.322143
N	 0.037836903	-3.3228316621	-0.0208456197	-0.439904
C	-0.4981187579	-4.0740985691	-1.022533333	 0.130258
O	-1.0253655474	-3.6263092474	-2.0174281176	-0.320446
H	 0.83334315	 1.6943347634	-0.0407808396	 0.284795
H	 1.7564572366	-1.01987103	 1.1228409149	 0.088275
H	 0.1962603113	-1.0229871319	 2.0511542689	 0.096855
H	-1.8177217291	-0.9667565463	 0.9236353333	 0.091972
H	-1.843133216	-0.9494157597	-0.8918090985	 0.119573
H	 0.1360292444	-0.9565072662	-2.0776897739	 0.122215
H	 1.7228873737	-0.9659560287	-1.1942654406	 0.082929
H	 0.4355230053	-3.7968579985	 0.7743714668	 0.249304
H	-0.3937674257	-5.1598715476	-0.8242706951	 0.074792
37.0958	125.0905	178.1824	245.6529	283.6653	305.7469	412.7323	421.5316	509.1489	556.0807	562.4739	566.8576	652.1677	751.6859	769.1942	864.4594	944.5441	960.0912	975.4855	1028.9965	1048.8242	1069.593	1091.7424	1108.779	1123.8966	1131.7932	1149.246	1163.813	1171.3382	1206.3671	1296.0707	1330.3943	1393.4776	1432.6567	1493.8974	1496.1705	1507.4813	1570.0412	1804.9924	2931.5158	3040.521	3053.63	3066.5855	3111.2825	3143.9077	3148.0041	3632.1701	3810.5624
OC12CC(C1)(C2)NC=O	O[C@@]12C[C@@](C1)(C2)NC=O	
InChI=1S/C6H9NO2/c8-4-7-5-1-6(9,2-5)3-5/h4,9H,1-3H2,(H,7,8)	InChI=1S/C6H9NO2/c8-4-7-5-1-6(9,2-5)3-5/h4,9H,1-3H2,(H,7,8)/t5-,6+
