17
gdb 53606	3.65825	0.8384	0.70985	3.7451	76.85	-0.2499	0.0082	0.2582	1573.4978	0.134449	-421.828148	-421.818656	-421.817712	-421.864781	32.186	
C	-0.0630647063	 1.5035399903	 0.0729166256	-0.497733
C	-0.0138188021	 0.0522956302	-0.0260542217	 0.097195
C	 0.0289582488	-1.1483293066	-0.0944021069	 0.056924
C	 0.0514755142	-2.603027347	-0.1799877023	-0.380969
C	-1.343421844	-3.2318846415	-0.0304431259	-0.17763
C	-1.4320108824	-4.7645668865	 0.0928185582	-0.105734
O	-2.0128784758	-4.636349875	 1.4288174092	-0.23877
C	-1.9429261087	-3.2625409864	 1.383366097	 0.457106
O	-2.2650965552	-2.4935201421	 2.2279156877	-0.311194
H	 0.8723446953	 1.9048627912	 0.4779251778	 0.149881
H	-0.2264913357	 1.9665268503	-0.9064292969	 0.146462
H	-0.8754140572	 1.824928415	 0.7336703732	 0.156634
H	 0.4672811673	-2.9155215394	-1.1471484926	 0.134537
H	 0.7188152491	-3.0177938409	 0.5871070065	 0.136874
H	-2.0340643006	-2.7999475966	-0.7583539133	 0.125302
H	-2.1217858913	-5.2722464906	-0.5840422092	 0.1266
H	-0.4774456455	-5.2953141944	 0.1362872234	 0.124516
25.1849	46.1238	73.2933	142.0898	178.5731	230.1089	297.7586	328.0327	381.423	467.8769	499.2478	704.3731	751.6606	778.0002	811.5793	888.2036	954.4836	998.2662	1051.7865	1054.6377	1076.0312	1107.7275	1122.2957	1161.5527	1170.6082	1187.8858	1254.7835	1308.5747	1354.8688	1369.7859	1414.5956	1475.112	1477.5832	1478.4492	1517.5824	1942.3289	2379.1545	3011.9032	3028.8719	3041.9763	3066.9485	3089.4021	3092.3662	3094.7643	3128.4832
CC#CCC1COC1=O	CC#CC[C@H]1COC1=O	
InChI=1S/C7H8O2/c1-2-3-4-6-5-9-7(6)8/h6H,4-5H2,1H3	InChI=1S/C7H8O2/c1-2-3-4-6-5-9-7(6)8/h6H,4-5H2,1H3/t6-/m0/s1
