16
gdb 22136	7.59816	0.48444	0.458	1.0151	106.72	-0.2198	-0.0466	0.1731	2322.4754	0.120573	-400.673965	-400.663355	-400.66241	-400.711975	35.534	
C	-0.0518049703	 1.4578460468	 0.0349257857	-0.518816
C	-0.0027378058	 0.0078510484	 0.017927903	 0.235795
C	 0.040580204	-1.202702614	 0.0035746957	-0.226487
C	 0.0880831155	-2.5578601462	-0.0124471164	 0.027833
C	 0.1460780627	-3.770749226	-0.0274111526	 0.151864
C	 0.1182048567	-5.187992034	-0.041338346	 0.123252
C	-1.2112988517	-5.9036816736	 0.003069539	-0.480212
N	 1.2589594007	-5.7908735401	-0.0923958914	-0.146981
O	 1.0870646415	-7.1734815066	-0.1002745735	-0.39286
H	 0.955757576	 1.8877851114	 0.0078029007	 0.159576
H	-0.6036411473	 1.8454252738	-0.8290179516	 0.158671
H	-0.5480095357	 1.8265984527	 0.9398766011	 0.158658
H	-1.3229252577	-6.5417420758	-0.8790698714	 0.151081
H	-1.2540963197	-6.5605755898	 0.8773697735	 0.151081
H	-2.0353601785	-5.191843178	 0.0429910795	 0.134426
H	 1.9956687398	-7.4917218491	-0.1392233854	 0.313118
17.8475	57.9699	64.1981	85.566	155.5007	181.3368	281.8257	317.4393	326.3879	401.3862	402.0365	473.0705	503.8661	549.8505	554.3583	608.1517	696.4491	838.7783	985.9318	1044.6386	1045.4872	1046.4838	1047.5846	1166.8248	1335.0458	1397.166	1407.4187	1422.1588	1470.5695	1470.6957	1476.6109	1484.9628	1652.3326	2265.7092	2363.9721	3024.1364	3048.8251	3085.9054	3087.8409	3107.9411	3156.2338	3815.04
CC#CC#CC(C)=NO	CC#CC#CC(=NO)C	
InChI=1S/C7H7NO/c1-3-4-5-6-7(2)8-9/h9H,1-2H3	InChI=1S/C7H7NO/c1-3-4-5-6-7(2)8-9/h9H,1-2H3
