16
gdb 78412	3.27028	1.4584	1.29486	5.2339	68.54	-0.2359	0.0114	0.2473	1011.4987	0.124227	-437.837827	-437.830657	-437.829713	-437.869379	28.008	
C	-0.2023697691	 1.2511776024	-0.0234324558	-0.326303
N	 0.0869624442	-0.1719935973	 0.1336984715	-0.088709
C	 1.4868818238	-0.5217536624	-0.1440217001	-0.06365
C	 0.965376383	-0.4852403591	 1.2618074705	-0.035679
C	 1.0454842723	-2.0320924524	 1.3615835667	-0.278227
C	 1.6063955528	-2.0668980528	-0.0708276724	 0.096183
O	 0.452105898	-2.8216413865	-0.5358715702	-0.250303
C	-0.1287331341	-2.8020761014	 0.7212539499	 0.467451
O	-1.1529732231	-3.2993981316	 1.0513075227	-0.323834
H	 0.6306876929	 1.9114830817	 0.2691772508	 0.10179
H	-0.4480992939	 1.4479297894	-1.070737516	 0.136511
H	-1.0734519892	 1.5015882013	 0.5884443097	 0.13758
H	 2.134255042	 0.1654293512	-0.6742806962	 0.102098
H	 1.1423180959	 0.2283489435	 2.056120144	 0.106094
H	 1.54790359	-2.4719675418	 2.2194905172	 0.114491
H	 2.5509971044	-2.524760324	-0.3561760422	 0.104505
114.692	204.207	236.2354	285.9566	310.7059	391.2628	477.5578	565.8743	691.7087	736.0186	765.167	806.0836	837.3608	856.4204	892.9679	917.529	936.3043	970.6831	990.4469	1016.2657	1076.9079	1113.2017	1123.2487	1147.1047	1177.4347	1204.1892	1223.9484	1247.2627	1282.2912	1311.5885	1360.9271	1454.3226	1494.1454	1498.6037	1945.5774	2967.9966	3079.7223	3118.4097	3144.375	3157.519	3191.5902	3205.7257
CN1C2C1C1C2OC1=O	CN1[C@H]2[C@@H]1[C@@H]1[C@H]2OC1=O	
InChI=1S/C6H7NO2/c1-7-3-2-5(4(3)7)9-6(2)8/h2-5H,1H3	InChI=1S/C6H7NO2/c1-7-3-2-5(4(3)7)9-6(2)8/h2-5H,1H3/t2-,3+,4+,5-,7?/m1/s1
