14
gdb 132749	2.36178	1.78055	1.02159	0.6094	67.73	-0.2573	-0.0234	0.2339	1063.3909	0.099875	-485.995924	-485.98828	-485.987336	-486.028582	27.998	
C	-0.023887789	 1.511040956	 0.0190417962	-0.484009
C	-0.006773691	 0.0074117193	 0.0132249	 0.213173
C	 0.0244598906	-0.6883329272	-1.1945939526	 0.082578
F	 0.0394989691	-0.0256500507	-2.3525436441	-0.058946
C	 0.0399682944	-2.0766221148	-1.1933852857	 0.214372
F	 0.0697203076	-2.7326131013	-2.3472346957	-0.05161
C	 0.0239226409	-2.7487835027	 0.0181029252	-0.26875
C	-0.0071676591	-1.9767107505	 1.1746222436	 0.001236
N	-0.0222314474	-0.6419914638	 1.183299793	-0.31798
H	 0.8589760302	 1.9193557512	-0.4842504455	 0.140583
H	-0.8994647123	 1.8993308059	-0.5121438711	 0.140643
H	-0.044469038	 1.8635028443	 1.0504669198	 0.145739
H	 0.0355442762	-3.8313912435	 0.042931071	 0.124122
H	-0.0206089123	-2.4619317621	 2.146686666	 0.118847
64.868	138.7974	245.4597	269.5723	288.52	310.7575	485.5397	527.7392	554.319	561.8064	597.9578	701.5668	762.1982	846.0489	855.9687	957.878	968.0919	1045.2194	1060.4947	1107.8077	1250.9219	1293.8056	1309.1918	1329.3708	1406.9276	1470.8838	1475.4515	1480.9286	1530.3251	1622.3427	1647.0577	3041.7417	3095.2283	3154.0008	3166.9038	3214.4583
CC1=C(F)C(F)=CC=N1	Cc1c(F)c(F)ccn1	
InChI=1S/C6H5F2N/c1-4-6(8)5(7)2-3-9-4/h2-3H,1H3	InChI=1S/C6H5F2N/c1-4-6(8)5(7)2-3-9-4/h2-3H,1H3
