16
gdb 43753	4.26487	0.99784	0.91175	3.5128	75.17	-0.2486	0.0063	0.2549	1263.5179	0.123215	-400.707389	-400.699171	-400.698227	-400.740624	31.143	
O	 0.1214712169	 0.0120091737	 0.0196318569	-0.340714
C	 0.0530762293	 1.2060023177	-0.0272737431	 0.436466
N	-1.0529884105	 2.081984635	-0.0586945127	-0.390155
C	-0.1902263295	 3.2718203941	-0.0339189976	 0.394679
C	-0.5354814871	 4.4740789917	-0.8760562009	-0.441038
C	-1.6773615518	 5.2124795514	-0.3402831208	 0.299292
C	-2.6228914889	 5.7947383149	 0.1184747593	-0.447345
C	 0.7144103658	 3.2534975251	 1.1557073069	-0.310374
C	 1.0328274263	 2.3707347697	-0.0609140511	-0.30926
H	-1.8680774702	 1.9700651954	 0.5348796701	 0.245989
H	 0.3385528626	 5.1339602202	-0.9344364605	 0.137871
H	-0.7560990666	 4.1429004393	-1.898068419	 0.147305
H	-3.4563518901	 6.3212808073	 0.5134288913	 0.202403
H	 1.3783588261	 4.1054084212	 1.2766792092	 0.127063
H	 0.3916249785	 2.7965067294	 2.0864588327	 0.126685
H	 1.9529986293	 2.4561279841	-0.6213479907	 0.121135
56.6692	97.3618	169.7137	282.0294	331.5379	355.9903	429.4359	434.5187	481.821	589.2926	627.1815	653.7081	694.8591	742.2574	766.342	862.3579	894.1731	914.7758	950.0703	963.5037	986.1457	1005.369	1065.5849	1080.0752	1115.9051	1193.6156	1213.1408	1298.3135	1322.8344	1328.829	1398.6355	1454.8867	1492.4802	1902.9726	2241.2527	3028.5778	3066.9309	3116.1511	3203.7815	3224.9733	3504.5439	3542.7348
O=C1NC2(CC#C)CC12	O=C1N[C@@]2(CC#C)C[C@@H]12	
InChI=1S/C7H7NO/c1-2-3-7-4-5(7)6(9)8-7/h1,5H,3-4H2,(H,8,9)	InChI=1S/C7H7NO/c1-2-3-7-4-5(7)6(9)8-7/h1,5H,3-4H2,(H,8,9)/t5-,7-/m0/s1
