20
gdb 95981	2.25746	1.59343	1.23923	5.795	74.04	-0.2471	0.0278	0.2749	1095.4721	0.173492	-440.331594	-440.32314	-440.322196	-440.364919	32.14	
C	-0.3268139834	 1.531606369	-0.080691412	-0.419397
C	-0.0755418003	 0.0239113914	-0.0236778093	 0.030421
C	 0.874689102	-0.507242867	-1.1390492166	-0.185184
N	 1.9379188865	-1.2264006635	-0.4091860343	-0.323708
H	 2.3945692442	-1.9392087403	-0.9657244117	 0.233637
H	 2.723088751	 0.0875245093	 0.5727933937	 0.310571
C	 1.3185271652	-1.7465315661	 0.8197289243	-0.204078
C	 0.5617733514	-0.5008162582	 1.3063512157	-0.140804
C	 1.4957674391	 0.5269409194	 1.9587828123	 0.413006
O	 2.6766825044	 0.7106883157	 1.3418368762	-0.38472
O	 1.1912407392	 1.1483064185	 2.9431980423	-0.346191
H	 0.6126846107	 2.0909704286	-0.0319217567	 0.140156
H	-0.8338750747	 1.8028844709	-1.0121335127	 0.111922
H	-0.9529992773	 1.8580024103	 0.7544322714	 0.136702
H	-1.0377291381	-0.4884678144	-0.1258340858	 0.08662
H	 0.3268200411	-1.1647423037	-1.8282867169	 0.101107
H	 1.3119730986	 0.3035211924	-1.7305745399	 0.114905
H	 0.6119484032	-2.5713613301	 0.6361170358	 0.099585
H	 2.0847877774	-2.0977310771	 1.5168701727	 0.125008
H	-0.2049020901	-0.7304260751	 2.0459139615	 0.100442
66.7943	108.2927	165.3237	258.9834	266.5983	333.3014	337.832	408.345	427.9913	579.9293	609.4716	714.2948	755.1854	826.5728	852.1698	874.723	922.3419	943.9763	958.9395	967.2429	1018.7107	1046.7511	1055.679	1075.5028	1146.3318	1170.2734	1187.9592	1240.8081	1247.8048	1257.7182	1286.9712	1314.3408	1347.7809	1360.8494	1397.5804	1417.8373	1429.5665	1479.7718	1495.5978	1505.7174	1515.4824	1531.3353	1854.4954	2978.1488	3000.0296	3039.3077	3044.1343	3069.1016	3086.4993	3108.2255	3118.5836	3122.0214	3275.1327	3549.9005
CC1C[NH2+]CC1C([O-])=O	C[C@H]1CNC[C@H]1C(=O)O	
InChI=1S/C6H11NO2/c1-4-2-7-3-5(4)6(8)9/h4-5,7H,2-3H2,1H3,(H,8,9)	InChI=1S/C6H11NO2/c1-4-2-7-3-5(4)6(8)9/h4-5,7H,2-3H2,1H3,(H,8,9)/t4-,5+/m0/s1
