13
gdb 25434	2.6419	1.32205	0.88112	1.3666	68.18	-0.265	-0.0735	0.1915	1191.2597	0.088758	-456.607245	-456.599571	-456.598627	-456.640112	26.787	
O	-0.0106451224	-0.0392019018	-0.0017984564	-0.264933
C	-0.0014177358	 1.1709089283	 0.0071237788	 0.073961
C	 1.2271533177	 1.9764913319	-0.0002090068	 0.03257
C	 2.4926369757	 1.4638261117	-0.0181390114	-0.043427
O	 3.4102443708	 2.4577409925	-0.0206882873	-0.128294
C	 2.739893238	 3.6325738911	-0.0041861005	-0.043421
C	 1.3914660233	 3.4177155935	 0.0091909719	 0.032578
C	 0.3757656585	 4.4790248157	 0.0287291629	 0.073958
O	 0.6392120851	 5.6601626517	 0.0353172738	-0.264933
H	-0.9497613692	 1.7477887446	 0.0219394751	 0.082058
H	 2.8712150201	 0.4557929782	-0.030122387	 0.183911
H	 3.335662304	 4.5295993098	-0.0038831507	 0.183912
H	-0.6781212859	 4.1303039028	 0.0376478377	 0.08206
105.4099	142.0348	147.1319	206.0499	230.065	290.962	412.2709	545.6031	626.0852	644.0341	750.5235	815.0596	821.8467	844.8831	918.3443	1030.5535	1039.8328	1094.509	1143.621	1210.2746	1233.4382	1308.817	1361.0293	1428.6983	1475.2901	1558.7711	1584.6498	1790.6282	1791.6176	2899.72	2919.036	3292.3392	3296.9309
O=CC1=COC=C1C=O	O=Cc1cocc1C=O	
InChI=1S/C6H4O3/c7-1-5-3-9-4-6(5)2-8/h1-4H	InChI=1S/C6H4O3/c7-1-5-3-9-4-6(5)2-8/h1-4H
