17
gdb 128267	4.57395	0.9321	0.79927	5.5901	71.79	-0.2193	0.0307	0.25	1414.1359	0.137529	-451.344113	-451.334982	-451.334038	-451.378648	32.3	
C	 0.2548935048	 1.2985696101	-0.1407289441	-0.344457
N	 0.1379339445	-0.1410645784	-0.0045274149	-0.384916
C	 0.7116394088	-0.7958660476	 1.0491707451	 0.475739
N	 0.9622444064	-2.094454942	 1.1067373943	-0.418441
C	 1.4839706682	-2.2502610025	 2.3629812759	 0.332475
C	 1.8912136755	-3.6114856113	 2.8423326261	-0.148509
O	 2.4967833909	-4.3614990811	 1.8071586453	-0.421322
N	 1.57923114	-1.1504464264	 3.0787188421	-0.284715
N	 1.0671301818	-0.2097309883	 2.2150627597	-0.27134
H	 1.2962302232	 1.6525049199	-0.1687803805	 0.129237
H	-0.2406538254	 1.6065246393	-1.0628425245	 0.145502
H	-0.2603687715	 1.8018601299	 0.6856773506	 0.135484
H	 0.1667452748	-0.6816398535	-0.8549451822	 0.262192
H	 2.6085052677	-3.5139811577	 3.6618918757	 0.125028
H	 1.0038953239	-4.1326383831	 3.2405150752	 0.099826
H	 2.0143101741	-4.1372934143	 1.0015147056	 0.293572
H	 1.0204408322	 0.7538713569	 2.4956089205	 0.274644
56.6221	82.3104	152.9574	159.3465	202.0596	259.2049	333.957	369.7564	413.4182	461.1179	480.0777	528.1007	676.9289	723.3779	752.1676	797.5538	1011.09	1020.6988	1040.003	1073.724	1105.5133	1120.1531	1157.6137	1190.2264	1221.6395	1324.6414	1352.1059	1378.6258	1403.7891	1446.0802	1467.5793	1489.634	1506.022	1513.6882	1525.197	1583.4612	1653.1214	2957.8856	2993.0191	3060.6189	3091.2644	3133.4415	3633.7121	3687.5859	3777.1854
CNC1=NC(CO)=NN1	CNc1nc(CO)n[nH]1	
InChI=1S/C4H8N4O/c1-5-4-6-3(2-9)7-8-4/h9H,2H2,1H3,(H2,5,6,7,8)	InChI=1S/C4H8N4O/c1-5-4-6-3(2-9)7-8-4/h9H,2H2,1H3,(H2,5,6,7,8)
