15
gdb 19806	3.98938	2.22331	1.86222	3.6525	64.01	-0.2399	-0.0067	0.2332	738.7097	0.120176	-362.620539	-362.614495	-362.613551	-362.65055	24.141	
O	-0.0128528056	 0.0053520559	 0.2728278291	-0.307826
C	-0.0658920787	 1.1834799465	 0.0865293647	 0.380396
C	-1.1921326599	 2.2437401062	-0.029811701	-0.397205
C	-0.0403548534	 3.2770715075	 0.0398860442	 0.021756
C	 0.5770629211	 3.7703761989	 1.363842819	-0.077517
C	 0.689823267	 2.6750812447	 2.3966742799	-0.298754
C	 1.6282367158	 2.6641309567	 1.2277527305	-0.016854
N	 0.9685993127	 2.1703402793	-0.0143073523	-0.144203
H	-1.7535552179	 2.2331952432	-0.9670164864	 0.137522
H	-1.8921367329	 2.2168866688	 0.8081716727	 0.14021
H	 0.0224350706	 4.0027752913	-0.7731783339	 0.092348
H	 0.7200779039	 4.8122139335	 1.6189583592	 0.100685
H	 1.1410234415	 3.0000639167	 3.3289838455	 0.124183
H	-0.0665957897	 1.9063049813	 2.5210968622	 0.133774
H	 2.7071995254	 2.6876670196	 1.3083806468	 0.111485
129.5735	234.987	340.138	477.41	487.5176	545.587	648.9604	713.6636	755.7193	795.569	862.9454	882.5812	927.5583	955.91	985.5532	1004.1458	1025.673	1056.5284	1066.5511	1079.2333	1079.823	1118.7176	1145.3401	1192.2338	1199.1805	1228.7412	1277.0727	1321.6299	1353.2907	1438.9799	1494.4387	1894.448	3075.1435	3091.5131	3127.2231	3133.1571	3192.6347	3200.1528	3211.7253
O=C1CC2C3CC3N12	O=C1C[C@H]2[C@H]3C[C@H]3N12	
InChI=1S/C6H7NO/c8-6-2-5-3-1-4(3)7(5)6/h3-5H,1-2H2	InChI=1S/C6H7NO/c8-6-2-5-3-1-4(3)7(5)6/h3-5H,1-2H2/t3-,4+,5-/m0/s1
