16
gdb 34765	2.14837	1.8892	1.24131	1.6206	79.88	-0.2331	0.0178	0.2508	1024.686	0.12248	-363.485779	-363.477536	-363.476591	-363.51836	31.785	
C	-0.60320292	-1.1292829887	 0.181872344	-0.448785
C	-0.305142432	 0.0346991077	 0.1324686553	 0.355981
C	-0.0490545162	 1.4456779213	 0.0801728078	-0.196417
C	 0.5336444938	 2.2142124792	 1.2077003791	-0.027841
C	 1.5490853588	 1.3802419232	 1.9824130765	-0.290469
C	 2.347936005	 1.3019933418	 0.6432669267	-0.14179
C	 2.7867142647	 0.0371182658	 0.0902960884	 0.371021
C	 3.2247576843	-0.9868382887	-0.3621547511	-0.459337
N	 1.284805257	 2.0951304985	-0.1035709232	-0.162554
H	-0.8347780294	-2.1651761168	 0.2124739769	 0.200525
H	-0.7780067446	 1.9965545255	-0.5101988925	 0.125174
H	 0.1045536155	 3.1556037489	 1.5351845109	 0.104495
H	 2.0832923703	 1.9236942893	 2.7620235177	 0.117478
H	 1.1722908358	 0.437122716	 2.3824569986	 0.130191
H	 3.2101677634	 1.9736580374	 0.6948067237	 0.123338
H	 3.5808408237	-1.9018986404	-0.7664835888	 0.198991
111.4206	119.3609	161.4835	207.935	304.6719	357.2573	479.2093	493.0811	547.4923	595.3478	611.2097	617.1759	661.0749	664.0602	744.7921	759.5592	772.4997	845.2538	927.0001	952.0934	992.4371	1038.6274	1064.2278	1085.9095	1104.9406	1153.6728	1226.8985	1255.4485	1266.6884	1335.5771	1360.8446	1400.2974	1487.5866	2233.5062	2234.9148	3057.5942	3081.9238	3134.1736	3141.0064	3166.8142	3503.392	3503.9077
C#CC1C2CC(C#C)N12	C#C[C@H]1[C@H]2C[C@@H](C#C)N12	
InChI=1S/C8H7N/c1-3-6-5-8-7(4-2)9(6)8/h1-2,6-8H,5H2	InChI=1S/C8H7N/c1-3-6-5-8-7(4-2)9(6)8/h1-2,6-8H,5H2/t6-,7+,8-,9?/m1/s1
