15
gdb 67145	2.11958	1.85595	1.5212	3.5777	65.5	-0.2205	-0.0054	0.215	946.3667	0.110445	-457.701208	-457.693188	-457.692244	-457.733588	29.994	
C	-0.1653108457	 1.5060339348	-0.0318633262	-0.524865
C	 0.0311355196	 0.0284966198	 0.0099077987	 0.237478
C	 0.0465082222	-1.1064897025	-0.9458907005	-0.033099
O	 1.1996788109	-1.7485250109	-0.4004241284	-0.287887
C	 0.9488230004	-0.9661315675	 0.8058768667	-0.131615
C	-0.3734431684	-1.5641650741	 1.3663215944	 0.395357
O	-0.727991178	-1.9481979116	 2.4438812979	-0.338648
C	-1.0659339568	-1.1158199555	 0.1147780361	 0.165188
O	-2.3953010663	-0.9607650981	-0.1579932668	-0.44526
H	 0.7134876391	 2.0136365117	-0.4424278406	 0.138662
H	-1.028964461	 1.7521624897	-0.6569712318	 0.145062
H	-0.3550371347	 1.9058615873	 0.9694266103	 0.143584
H	-0.1607908743	-1.1695548791	-2.0082017729	 0.124083
H	 1.8223037466	-0.7533667122	 1.4155761641	 0.108721
H	-2.6988483837	-1.7019338217	-0.6945865109	 0.303239
116.5937	163.5614	175.7855	237.8984	249.955	311.271	362.1171	447.4567	536.189	617.8065	636.7262	677.0736	713.7103	788.8872	816.1053	888.9317	937.5279	966.7389	995.0976	1037.9734	1064.7144	1116.1035	1152.5797	1165.5635	1205.4535	1261.2974	1283.5989	1397.9764	1423.8595	1472.3337	1483.563	1493.092	1882.9866	3035.5147	3101.5043	3111.6233	3172.1694	3185.8425	3792.6247
CC12C3OC1C(=O)C23O	C[C@@]12[C@H]3O[C@@H]1C(=O)[C@@]23O	
InChI=1S/C6H6O3/c1-5-3-2(7)6(5,8)4(5)9-3/h3-4,8H,1H3	InChI=1S/C6H6O3/c1-5-3-2(7)6(5,8)4(5)9-3/h3-4,8H,1H3/t3-,4-,5+,6+/m1/s1
