17
gdb 52742	2.09217	1.02097	0.71974	4.2994	78.94	-0.2459	-0.0302	0.2157	1554.6781	0.132095	-421.780967	-421.770789	-421.769845	-421.819618	33.689	
C	-0.3225724643	 1.5448664512	 0.0608417203	-0.498252
C	-0.1175932151	 0.1043266538	 0.0278340832	 0.064488
C	 0.0673495184	-1.0858747582	 0.0169455023	 0.057967
C	 0.231307681	-2.5355088944	-0.0310416218	-0.280444
C	-1.1583329901	-3.1850257814	 0.0774186424	 0.178757
O	-1.4943084614	-3.9110256762	 0.9703168057	-0.235947
C	 0.8996600602	-2.9658102082	-1.3337095036	 0.086758
C	 2.3401486155	-3.224405099	-1.4041901008	-0.173204
O	 1.3958083775	-4.299222808	-1.37157352	-0.230213
H	 0.561214335	 2.0606920308	 0.4515335879	 0.154543
H	-0.5232971476	 1.9403915407	-0.9406254988	 0.15256
H	-1.1718198963	 1.8090321817	 0.7001410046	 0.156177
H	 0.8225043439	-2.9036380588	 0.8142726501	 0.125445
H	-1.8457671972	-2.9096993174	-0.7532451834	 0.086816
H	 0.3830046038	-2.6432916558	-2.2384980941	 0.107636
H	 2.8674268658	-3.0932272819	-2.3474278837	 0.123471
H	 2.947745501	-3.1092837589	-0.5080492002	 0.123442
8.3276	55.9431	60.5152	97.6866	121.5232	206.298	279.5958	282.3717	351.7683	414.9124	465.5602	489.9684	511.9871	788.1676	860.1297	872.6153	942.2151	999.0356	1046.6772	1052.1806	1055.4111	1100.0365	1120.9136	1158.1532	1169.2764	1173.0693	1237.8571	1278.0734	1293.5354	1414.1435	1414.8869	1433.4449	1476.3285	1477.0122	1528.7158	1844.6221	2366.3829	2884.9454	3030.1847	3059.5217	3088.3523	3092.9368	3093.1401	3106.6461	3177.9249
CC#CC(C=O)C1CO1	CC#C[C@@H](C=O)[C@H]1CO1	
InChI=1S/C7H8O2/c1-2-3-6(4-8)7-5-9-7/h4,6-7H,5H2,1H3	InChI=1S/C7H8O2/c1-2-3-6(4-8)7-5-9-7/h4,6-7H,5H2,1H3/t6-,7+/m0/s1
