20
gdb 117392	5.27899	0.64894	0.61325	2.0957	76.98	-0.2408	0.0311	0.2719	1836.7085	0.169594	-440.294958	-440.284652	-440.283707	-440.332413	35.964	
O	-0.1766164805	 1.3765775829	 0.0292173023	-0.426321
C	-0.2076446404	 0.0107406832	 0.4191120501	-0.066116
C	-1.2820425347	-0.672426589	-0.4161345086	-0.311178
C	-1.3396531813	-2.1730318193	-0.1490950284	 0.409878
O	-0.3908673431	-2.8055220582	 0.2776496304	-0.372141
N	-2.5461652817	-2.7568411552	-0.4331503306	-0.331994
C	-2.7322605203	-4.1767620294	-0.3964694448	 0.065656
C	-2.9315267302	-4.8530914153	 0.9324199923	-0.236154
C	-4.0928858753	-4.6965074067	-0.0175398223	-0.297985
H	 0.5325257084	 1.8070980675	 0.5150760742	 0.286687
H	 0.752138139	-0.4917680129	 0.2464434156	 0.114589
H	-0.4437368428	-0.0974525531	 1.4887980455	 0.093379
H	-2.2548741744	-0.2026578839	-0.233364562	 0.111029
H	-1.0523803445	-0.5144499154	-1.4778780079	 0.134531
H	-3.2451663389	-2.2013950324	-0.9011109583	 0.244656
H	-2.1729524779	-4.7317118695	-1.1457815053	 0.103369
H	-2.4943690992	-5.8353090573	 1.0672283171	 0.121029
H	-2.9114913067	-4.2213301395	 1.8118381127	 0.124095
H	-4.8537108474	-3.9663738564	 0.2376919043	 0.113581
H	-4.4661629483	-5.56930323	-0.5407282863	 0.119409
26.7292	46.3385	65.1928	106.0565	137.7936	215.8429	265.2069	310.8688	372.9334	399.2565	453.8586	465.1888	623.2443	731.4715	765.1829	810.9952	830.3946	850.3641	916.2943	989.4472	1025.0654	1043.1385	1061.9462	1071.4443	1078.8477	1081.6117	1123.3174	1172.4924	1193.1394	1209.3823	1218.2099	1255.6449	1271.7416	1306.0196	1358.5238	1401.7782	1457.1456	1462.7109	1472.3977	1498.9401	1515.4337	1525.8113	1779.7387	2987.5603	3033.2013	3043.1151	3079.2816	3129.7872	3136.5156	3150.8631	3219.8556	3241.6753	3620.9682	3833.0146
OCCC(=O)NC1CC1	OCCC(=O)NC1CC1	
InChI=1S/C6H11NO2/c8-4-3-6(9)7-5-1-2-5/h5,8H,1-4H2,(H,7,9)	InChI=1S/C6H11NO2/c8-4-3-6(9)7-5-1-2-5/h5,8H,1-4H2,(H,7,9)
