18
gdb 119668	3.87503	1.10194	0.99944	1.219	72.97	-0.2368	0.0599	0.2967	1240.5018	0.146354	-438.948091	-438.939937	-438.938993	-438.981543	30.254	
C	-0.0371057073	 1.3255767777	 0.005162776	-0.219038
O	-0.0922338941	-0.0814211994	 0.0303179993	-0.234064
C	 0.7407903032	-0.6400534823	 1.0196490452	-0.229805
C	 0.650335411	-2.1270315253	 0.9506699079	 0.509711
O	 1.2490713531	-2.8718857521	-0.1531557405	-0.352942
C	 0.6646519466	-3.9107136252	 0.6811484602	 0.06574
C	 1.0049162961	-3.1974757105	 2.0312758902	-0.134158
N	-0.3961975189	-3.197781205	 2.5631342235	-0.351009
C	-0.5892137912	-3.0661215937	 1.0809422528	-0.111338
H	 0.9789007773	 1.6906924609	-0.2130941457	 0.106496
H	-0.711147311	 1.6630928694	-0.7854324453	 0.130112
H	-0.3613216378	 1.7647507248	 0.9621429606	 0.105029
H	 1.7896486869	-0.3298736255	 0.8773959207	 0.10151
H	 0.4292820046	-0.3251206584	 2.0299997616	 0.112256
H	 0.7643415323	-4.9520283343	 0.3721730643	 0.096056
H	 1.89673167	-3.2745091664	 2.6546306855	 0.091384
H	-0.6565589227	-4.1374282546	 2.8720784099	 0.213695
H	-1.559661258	-2.9817028303	 0.5933310438	 0.100363
68.3923	88.3628	131.588	222.0883	258.7001	342.2692	362.8858	522.2091	547.9166	712.461	761.1212	776.5937	785.0064	843.6552	868.1639	908.8911	947.608	954.7971	992.3852	1053.8728	1070.0391	1094.3285	1130.5197	1136.5381	1152.7233	1160.686	1185.0131	1207.8973	1229.0576	1237.2178	1275.113	1293.3539	1298.6678	1371.5394	1446.9241	1476.5746	1485.4583	1492.8262	1516.901	2958.2674	2972.4454	2993.5535	3014.9971	3107.4012	3118.1733	3118.7265	3135.9767	3412.1092
COCC12OC3C1NC23	COC[C@@]12O[C@H]3[C@@H]1N[C@@H]23	
InChI=1S/C6H9NO2/c1-8-2-6-4-3(9-6)5(6)7-4/h3-5,7H,2H2,1H3	InChI=1S/C6H9NO2/c1-8-2-6-4-3(9-6)5(6)7-4/h3-5,7H,2H2,1H3/t3-,4-,5+,6+
