25
gdb 84004	1.9791	1.53988	1.3161	0.1005	92.12	-0.2469	0.0801	0.327	1202.586	0.230809	-352.370559	-352.361225	-352.360281	-352.403975	37.047	
C	-0.3748196248	 1.4849133429	-0.0881232967	-0.425614
C	-0.0554004262	 0.0086170353	 0.0014839338	-0.043382
C	 1.2968257773	-0.5959284526	-0.3461946324	-0.082215
C	 2.5116990135	 0.2606611733	-0.7002851207	-0.225391
C	 3.4094923998	 0.5421948953	 0.5141370264	-0.181957
C	 2.5971365646	 1.1446423241	 1.6638414664	-0.2088
C	 1.5051664002	 0.1738406297	 2.1577931532	-0.261425
C	 0.7795808717	-0.6419551258	 1.0842745811	 0.327106
C	 0.2772332428	-1.9778811244	 1.6054732702	-0.458183
H	 0.4755404107	 2.1265242658	 0.1476738563	 0.120457
H	-0.7079666326	 1.7460299313	-1.0994592997	 0.114189
H	-1.1847351577	 1.7505641878	 0.6009395977	 0.114413
H	-0.8978128612	-0.60434341	-0.3142775185	 0.072117
H	 1.2476877254	-1.5385405457	-0.8852068371	 0.071818
H	 3.0912249309	-0.2480168446	-1.4774465614	 0.092846
H	 2.1988306146	 1.2167549	-1.1400581514	 0.096192
H	 3.8742167907	-0.3946861428	 0.8501349075	 0.090612
H	 4.2257458167	 1.2160334158	 0.2299728958	 0.086596
H	 3.2521679452	 1.3929974659	 2.5065701354	 0.089702
H	 2.1601939171	 2.0949565638	 1.3356386677	 0.0993
H	 1.9912909632	-0.5495165606	 2.825909355	 0.093757
H	 0.7777467778	 0.7088263276	 2.7825192844	 0.091782
H	-0.4255216561	-1.8410609229	 2.4372161934	 0.109699
H	-0.2414976843	-2.5436730344	 0.8249349697	 0.107919
H	 1.1045192708	-2.5975770648	 1.9728016536	 0.108464
102.7682	134.9185	194.4581	205.8496	225.7768	255.2755	321.3525	344.0136	428.1424	436.6102	472.3569	538.0428	570.4618	681.8573	763.6137	768.9021	830.8795	862.3205	903.0682	925.095	947.756	979.8211	999.8988	1027.1454	1053.1862	1072.9187	1087.42	1111.0937	1130.7057	1139.9554	1160.6314	1191.6283	1206.2568	1232.8793	1287.0093	1298.7273	1328.7794	1363.2058	1367.9033	1373.3587	1380.9551	1387.2763	1412.4927	1416.9317	1454.1901	1482.7218	1484.6546	1489.5588	1492.039	1497.3873	1500.6182	1508.6192	1514.7772	3006.5785	3013.1671	3014.186	3019.2858	3028.9413	3030.8927	3039.4386	3061.7432	3064.7847	3069.9784	3072.7259	3079.3466	3091.9699	3108.0469	3128.485	3135.7685
CC1C2CCCCC12C	C[C@H]1[C@H]2CCCC[C@@]12C	
InChI=1S/C9H16/c1-7-8-5-3-4-6-9(7,8)2/h7-8H,3-6H2,1-2H3	InChI=1S/C9H16/c1-7-8-5-3-4-6-9(7,8)2/h7-8H,3-6H2,1-2H3/t7-,8+,9-/m0/s1
