23
gdb 116197	2.15431	1.47196	1.14078	0.3286	81.5	-0.2473	0.0726	0.3199	1222.7747	0.204506	-425.436299	-425.4261	-425.425156	-425.471357	38.083	
C	 0.3739396229	 1.1026794508	 0.521092145	-0.234679
O	 0.271263778	-0.2574222096	 0.1758465686	-0.257514
C	 0.4859866814	-0.5265709085	-1.2032026039	 0.129394
C	 1.9866931822	-0.5972532827	-1.5577145134	-0.229084
C	 2.4100525325	-2.0772779179	-1.3232724775	-0.198574
C	 1.1180468999	-2.81801827	-0.9096195085	-0.238671
C	-0.0234121379	-1.9570754121	-1.4782920569	 0.361877
C	-1.4046795073	-2.2640544777	-0.9123056762	-0.453115
O	-0.0356718075	-2.0366166768	-2.9115384506	-0.488325
H	 1.3787338419	 1.5112214345	 0.3364167084	 0.105697
H	-0.3514556525	 1.7173099693	-0.0348754958	 0.104726
H	 0.1590263549	 1.1826730645	 1.5898270008	 0.12424
H	-0.0613089313	 0.2020196028	-1.8176036131	 0.063686
H	 2.1315850641	-0.3134102899	-2.6023537875	 0.110409
H	 2.5620093558	 0.1037079593	-0.9473022873	 0.094977
H	 2.8204847157	-2.5013463146	-2.242776036	 0.100922
H	 3.1846188739	-2.1680140283	-0.5576386513	 0.095591
H	 1.0726955553	-3.8489403297	-1.2783547217	 0.076735
H	 1.0239671851	-2.8544473007	 0.1802003331	 0.110902
H	-1.4343568269	-2.0888627201	 0.1645001892	 0.132953
H	-2.1582243579	-1.6318443043	-1.3917489946	 0.116165
H	-1.6718287654	-3.3109660878	-1.1009569186	 0.096793
H	-0.229774407	-2.9492979402	-3.1488083622	 0.274893
51.1146	105.4985	137.553	186.5899	213.3647	219.7361	271.8617	293.703	325.0963	349.8593	393.2909	465.4052	498.9602	598.8704	703.5903	749.8377	802.5141	868.8876	890.9854	920.9776	936.0698	972.3682	1003.7675	1039.732	1049.2301	1101.7792	1121.0673	1153.415	1181.7275	1184.4413	1196.6266	1229.6625	1242.4762	1266.4904	1277.7943	1316.1087	1337.7384	1353.5665	1365.8571	1401.6139	1404.6359	1468.4114	1476.6439	1481.0042	1487.514	1489.3284	1498.8924	1505.7176	1511.4678	2974.7999	3008.6368	3021.7496	3029.9787	3040.4012	3061.5656	3072.6293	3081.1323	3096.4	3099.178	3109.5552	3118.2359	3138.6493	3812.0804
COC1CCCC1(C)O	CO[C@H]1CCC[C@]1(C)O	
InChI=1S/C7H14O2/c1-7(8)5-3-4-6(7)9-2/h6,8H,3-5H2,1-2H3	InChI=1S/C7H14O2/c1-7(8)5-3-4-6(7)9-2/h6,8H,3-5H2,1-2H3/t6-,7-/m0/s1
