21
gdb 81855	2.73284	1.43636	1.0611	1.8952	84.53	-0.2306	0.0109	0.2415	1215.7776	0.180965	-387.099965	-387.090726	-387.089782	-387.133274	35.538	
C	-0.0277947595	 1.5754642196	-0.0197669986	-0.396861
C	 0.0190656893	 0.0401310758	 0.008234867	-0.115604
C	 0.8013902351	-0.5535314479	-1.1626303381	-0.041427
O	 2.1735119169	-0.1476213172	-1.2177765683	-0.304158
C	 1.8480160609	-1.4447003464	-0.6365627265	 0.404178
C	 2.4265603139	-2.6410807365	-1.336454584	-0.493467
C	 1.7226340539	-1.3762590547	 0.8531247106	-0.254126
C	 0.7397369749	-0.5473875049	 1.2232673318	 0.315916
C	 0.3577249559	-0.1745965577	 2.6204363914	-0.49086
H	 0.9879816758	 1.9783549876	-0.0513628853	 0.137942
H	-0.5644689725	 1.930519224	-0.9053091324	 0.1149
H	-0.5374417265	 1.9782741899	 0.860565672	 0.112391
H	-1.0123075486	-0.3428812739	-0.0208885058	 0.077641
H	 0.3213555014	-0.6988505635	-2.1283781013	 0.084321
H	 2.3721114371	-2.5158373138	-2.4205835438	 0.129498
H	 3.478655685	-2.779211169	-1.0630744122	 0.126882
H	 1.8864788094	-3.5525204876	-1.0586468549	 0.123024
H	 2.3738108093	-1.9204844141	 1.5284667651	 0.088497
H	 0.9331643486	-0.7427551843	 3.3561800934	 0.124558
H	 0.528341766	 0.8920134566	 2.8117631639	 0.133779
H	-0.7090794462	-0.3570812521	 2.8037626462	 0.122977
123.819	160.7781	186.8223	191.9428	225.7948	248.1447	263.1543	314.8902	389.4714	467.3101	514.2203	551.7066	578.1596	682.5241	721.9786	787.415	825.239	863.1162	914.849	935.2211	994.3259	1015.2338	1019.8942	1041.9943	1067.0496	1093.3055	1110.1882	1125.3252	1168.3525	1240.0508	1285.4155	1324.2679	1325.7896	1334.9021	1399.1833	1409.7262	1410.4481	1447.1019	1476.2954	1483.4349	1487.127	1495.3662	1500.0294	1505.8232	1699.9277	2992.5912	3017.9833	3034.0106	3039.8102	3065.4682	3094.5375	3104.7455	3111.1652	3123.6066	3124.5183	3129.8519	3189.1512
CC1C2OC2(C)C=C1C	C[C@H]1[C@H]2O[C@@]2(C)C=C1C	
InChI=1S/C8H12O/c1-5-4-8(3)7(9-8)6(5)2/h4,6-7H,1-3H3	InChI=1S/C8H12O/c1-5-4-8(3)7(9-8)6(5)2/h4,6-7H,1-3H3/t6-,7-,8+/m1/s1
