19
gdb 87134	2.10486	1.58353	1.35535	1.8826	70.51	-0.2285	0.0659	0.2945	1069.5307	0.156154	-460.118028	-460.108601	-460.107657	-460.151735	36.105	
C	-0.005518174	 1.0282269963	-1.1726648323	-0.484592
C	-0.0946075046	-0.0174228735	-0.0844436065	 0.364836
C	 1.1046392219	-0.7432690901	 0.3572092671	-0.224399
O	 0.5687559075	 0.3304781309	 1.1472454011	-0.294449
C	-1.4619236811	-0.6374588748	 0.1017590763	 0.254174
O	-1.9704349775	-1.2507217201	-1.0557497022	-0.458264
C	-1.8096607438	-1.3184467593	 1.4051738515	-0.378338
C	-2.4224433697	 0.0209034669	 1.0660171319	 0.068717
O	-2.0967487602	 1.1867770474	 1.7565408037	-0.431366
H	 1.0031899592	 1.4436682656	-1.2292383316	 0.129235
H	-0.2559711041	 0.5914143964	-2.1440614158	 0.127275
H	-0.7051856695	 1.8445207014	-0.9641836948	 0.140004
H	 1.0015056155	-1.7357181622	 0.7907542175	 0.12303
H	 2.0666848281	-0.5279044666	-0.1038616667	 0.119139
H	-2.3835006795	-0.5707918489	-1.5991359649	 0.286358
H	-2.4349528386	-2.2013118284	 1.338398186	 0.123059
H	-1.0515515177	-1.3334282639	 2.1809773356	 0.12512
H	-3.4701458948	 0.0269553099	 0.7799869095	 0.106506
H	-1.172978637	 1.117790513	 2.0288620448	 0.303957
61.4238	165.8637	204.6212	222.3854	243.5172	278.6663	307.4594	345.8304	373.0511	416.6187	439.5096	479.229	482.1025	599.4804	615.0993	796.678	829.6756	866.4039	908.6107	924.636	941.3372	992.1666	1018.7075	1048.5482	1103.7036	1104.7928	1132.7426	1140.2347	1164.5792	1189.6277	1242.3469	1309.0215	1345.0123	1361.0915	1395.0351	1409.2951	1434.7088	1477.6666	1484.5719	1500.3153	1523.9702	3040.7495	3093.4694	3110.4654	3128.3509	3136.226	3158.9272	3184.5919	3232.2503	3778.8569	3799.6718
CC1(CO1)C1(O)CC1O	C[C@]1(CO1)[C@@]1(O)C[C@H]1O	
InChI=1S/C6H10O3/c1-5(3-9-5)6(8)2-4(6)7/h4,7-8H,2-3H2,1H3	InChI=1S/C6H10O3/c1-5(3-9-5)6(8)2-4(6)7/h4,7-8H,2-3H2,1H3/t4-,5+,6-/m1/s1
