21
gdb 53164	4.75782	0.85012	0.84168	0.154	92.55	-0.232	0.0605	0.2925	1500.8193	0.184088	-349.927358	-349.91868	-349.917736	-349.962113	32.78	
C	 0.0663197579	 1.501876666	-0.0598535427	-0.502099
C	 0.0474363861	 0.046587497	-0.0124387609	 0.154919
C	 0.0329596064	-1.1581524407	 0.0256388632	-0.017339
C	 0.0371470063	-2.6074180207	 0.0508430895	-0.170536
C	 0.0485003441	-3.2804960357	 1.4735378063	-0.006472
C	-1.4835363761	-3.018660479	 1.5076721562	-0.231125
C	-1.3694799149	-3.31046938	-0.0150559224	-0.00647
C	-0.965252819	-4.7959616945	-0.0328166549	-0.223578
C	 0.1158171414	-4.7731101786	 1.1020873381	-0.223578
H	 0.8107154852	 1.8668602087	-0.7765223812	 0.145826
H	-0.9067253203	 1.9057005509	-0.3618365163	 0.144942
H	 0.3125712473	 1.9315783491	 0.9177976502	 0.14494
H	 0.7837881669	-2.9951320992	-0.6525730164	 0.081471
H	 0.7158767698	-2.9183154106	 2.2552557026	 0.064509
H	-2.1036443557	-3.6877992904	 2.1118380465	 0.08357
H	-1.7263542108	-1.9767882989	 1.717996265	 0.112314
H	-2.1248481988	-2.9783613275	-0.7269350636	 0.064509
H	-1.8078429298	-5.4529135804	 0.2009600247	 0.096147
H	-0.5562524932	-5.1064311691	-0.9987222634	 0.095952
H	 1.1065643656	-5.0712813564	 0.7468969583	 0.095952
H	-0.1455090384	-5.4177765001	 1.9460715312	 0.096147
20.8221	94.0709	97.5969	269.4362	275.0086	308.3107	356.0046	442.2922	489.1769	501.5822	647.4096	804.0116	828.6965	839.9498	858.0208	882.4283	889.0877	912.1245	942.2374	970.8508	1017.633	1022.8267	1051.9503	1053.7855	1059.0244	1080.5294	1123.5776	1127.1145	1198.3165	1202.9999	1220.4727	1235.8116	1258.1656	1271.0399	1277.7344	1312.6446	1318.1547	1369.4723	1415.2175	1478.8294	1479.6799	1492.3564	1494.4246	1517.1999	2363.6599	3022.8429	3026.6669	3047.6239	3054.8475	3058.4502	3081.5162	3082.7593	3084.3087	3103.3564	3116.2122	3119.0429	3135.7362
CC#CC1C2CC1CC2	CC#C[C@H]1[C@H]2C[C@@H]1CC2	
InChI=1S/C9H12/c1-2-3-9-7-4-5-8(9)6-7/h7-9H,4-6H2,1H3	InChI=1S/C9H12/c1-2-3-9-7-4-5-8(9)6-7/h7-9H,4-6H2,1H3/t7-,8+,9+
