19
gdb 47104	2.62197	1.79389	1.21728	4.0325	74.85	-0.2349	0.0648	0.2997	1039.3302	0.164103	-419.273524	-419.266042	-419.265098	-419.305676	29.057	
O	 0.1125478977	 0.1645591478	 0.4990329697	-0.413757
C	 0.0383705087	 1.3124875586	 0.1187848511	 0.424254
N	-1.0863575649	 2.1179534143	 0.1409929934	-0.345904
C	-0.8559880959	 3.4089797729	-0.4784720353	-0.19894
C	 0.6841373999	 3.4910978017	-0.4482250123	 0.023551
C	 1.3488554876	 4.0988181991	 0.7994388851	-0.221954
C	 2.699237117	 3.3530669167	 0.8577852349	-0.22036
C	 2.4126331044	 1.9559145329	 0.2299354974	-0.176168
N	 1.0899124591	 2.0813833601	-0.3945367781	-0.10611
H	-1.9916924005	 1.6790916638	 0.1621011933	 0.253147
H	-1.2270128264	 3.4514355847	-1.5116518873	 0.109098
H	-1.3224906202	 4.2243279025	 0.0849918072	 0.114157
H	 1.068290708	 3.9738148793	-1.3538692007	 0.083129
H	 1.4625565397	 5.1845945992	 0.7426290473	 0.099723
H	 0.7402309561	 3.8659867093	 1.680696184	 0.114401
H	 3.4502543004	 3.8852832458	 0.2652094454	 0.105632
H	 3.0886419511	 3.2730416963	 1.875136486	 0.111232
H	 3.1710343175	 1.6923250985	-0.5135768846	 0.108346
H	 2.3705106606	 1.1473559467	 0.9640597036	 0.136523
85.6017	154.0377	188.9836	248.876	315.2994	448.7251	507.0889	555.0964	631.8779	663.6083	746.2072	776.3783	789.0323	837.8271	872.138	895.5214	934.972	1002.6538	1018.4262	1033.3362	1075.276	1109.0931	1147.7933	1170.0788	1203.9215	1217.3214	1229.173	1258.1695	1272.1863	1307.4444	1319.4397	1333.2035	1354.9911	1377.5939	1410.9542	1439.7776	1488.3615	1501.2951	1525.5323	1531.0704	1833.2392	3002.635	3035.3458	3045.5545	3047.5102	3058.1711	3059.68	3094.9096	3102.2718	3115.4792	3659.6597
O=C1NCC2CCCN12	O=C1NC[C@H]2CCCN12	
InChI=1S/C6H10N2O/c9-6-7-4-5-2-1-3-8(5)6/h5H,1-4H2,(H,7,9)	InChI=1S/C6H10N2O/c9-6-7-4-5-2-1-3-8(5)6/h5H,1-4H2,(H,7,9)/t5-/m1/s1
