15
gdb 44508	4.42561	1.41569	1.22312	2.6048	64.22	-0.2597	-0.0029	0.2568	969.9124	0.113964	-457.73307	-457.726737	-457.725793	-457.763979	25.321	
O	 0.0353547218	 0.0702193892	 0.6330894553	-0.317954
C	-0.0258133676	 1.1426632808	 0.1049351023	 0.420111
C	-1.325349889	 1.8937992651	-0.1577043408	-0.402916
C	-1.128728965	 3.2357279406	-0.8420883684	-0.022288
C	-0.0766413384	 3.3140538949	-1.9825024367	 0.002973
O	 0.1092880342	 4.7484573501	-1.7003289597	-0.300242
C	 0.0610154191	 4.116212048	-0.3700507965	 0.002976
C	 1.0216719595	 3.0317120104	-0.9241796116	 0.12123
O	 1.1174338421	 1.7633792471	-0.3013959589	-0.237203
H	-1.9644804964	 1.2325351263	-0.7531317429	 0.151893
H	-1.8311206757	 2.0088530421	 0.8073117822	 0.151893
H	-2.0499939187	 3.7874714732	-1.0379213797	 0.095699
H	-0.1431790414	 3.0001437623	-3.0238268705	 0.107244
H	 0.1581976827	 4.7563382717	 0.5063724554	 0.107243
H	 2.0284272935	 3.3605459718	-1.1737151916	 0.119342
90.1658	246.6255	402.1472	419.7709	434.9904	475.0586	569.0776	644.8792	752.0596	755.2827	814.1019	824.0195	881.458	905.1179	907.7459	977.0849	998.7738	1046.1532	1051.0583	1106.429	1144.2471	1160.7462	1175.0452	1181.7686	1199.7536	1255.5802	1260.5779	1277.7251	1322.8836	1369.0843	1399.6906	1455.5643	1866.6231	3051.4597	3086.1392	3103.6039	3127.3661	3130.5442	3153.9675
O=C1CC2C3OC2C3O1	O=C1C[C@@H]2[C@H]3O[C@@H]2[C@H]3O1	
InChI=1S/C6H6O3/c7-3-1-2-4-6(8-3)5(2)9-4/h2,4-6H,1H2	InChI=1S/C6H6O3/c7-3-1-2-4-6(8-3)5(2)9-4/h2,4-6H,1H2/t2-,4-,5+,6+
