19
gdb 96308	2.13424	1.53854	0.98456	1.1742	71.81	-0.2368	-0.0242	0.2125	1196.4843	0.159486	-460.178474	-460.169897	-460.168953	-460.21193	32.58	
O	-0.1491525097	 1.4863728134	-0.2919582796	-0.433504
C	-0.0075929919	 0.0816977618	-0.1357192168	 0.11057
C	-1.2406658073	-0.3709172962	 0.6454651829	-0.182141
C	-1.3416112601	-1.8752678251	 0.8864686769	-0.099546
O	-1.5228780132	-2.6086880003	-0.3202673393	-0.236024
C	-0.3371666635	-3.0970921284	-0.894195065	-0.177077
C	 0.6330184603	-2.0341692819	-1.4209031538	 0.32998
O	 1.7561711202	-2.3520177629	-1.7374885791	-0.299447
C	 0.1331646523	-0.6032275153	-1.5189856254	-0.310159
H	 0.639275691	 1.8219267728	-0.7307635143	 0.284691
H	 0.8974450151	-0.143278286	 0.4535641286	 0.077138
H	-1.2463087495	 0.1483033433	 1.6105786255	 0.108908
H	-2.1306687332	-0.0398704303	 0.0979985299	 0.119198
H	-0.4602896651	-2.2503351208	 1.4299587498	 0.095644
H	-2.2192076455	-2.0818837794	 1.5077585603	 0.115405
H	 0.2227311974	-3.7451156746	-0.2021710852	 0.121716
H	-0.6333486741	-3.7180402183	-1.7483791889	 0.139752
H	-0.8369082847	-0.5701833522	-2.027076137	 0.126745
H	 0.8690482518	-0.0555839498	-2.1154315397	 0.108153
60.4924	126.2475	183.624	268.8989	306.3141	317.8351	343.8526	396.5111	441.1279	491.4712	519.2716	552.4417	584.895	809.5282	827.3183	850.8987	896.5217	941.2609	999.0419	1031.1032	1061.5274	1092.3117	1098.9094	1142.7521	1162.7931	1228.7208	1256.6269	1272.9105	1285.8737	1298.8198	1320.8764	1360.9871	1369.3932	1384.6408	1410.6257	1437.8097	1453.2067	1462.2459	1481.4365	1499.6655	1809.1949	2956.4063	2986.3937	2995.1579	3039.6069	3044.5466	3064.443	3072.7592	3086.7102	3104.1745	3816.1019
OC1CCOCC(=O)C1	O[C@H]1CCOCC(=O)C1	
InChI=1S/C6H10O3/c7-5-1-2-9-4-6(8)3-5/h5,7H,1-4H2	InChI=1S/C6H10O3/c7-5-1-2-9-4-6(8)3-5/h5,7H,1-4H2/t5-/m0/s1
