19
gdb 92030	2.89052	1.58897	1.21886	1.6159	73.47	-0.2528	0.0766	0.3293	1046.3121	0.161349	-423.003828	-422.996356	-422.995412	-423.035459	30.442	
O	 0.0137369067	 1.4255822726	-0.0324373484	-0.437017
C	 0.0457965473	 0.0029981886	-0.0400142188	 0.113769
C	 0.846398906	-0.5470585608	 1.1530384031	-0.257623
C	 0.8331716728	-2.0721765412	 1.2421031273	-0.047578
C	 0.0001114041	-2.7757401194	 2.2863776421	-0.298052
C	-0.4373917792	-2.7920019581	 0.8432725015	-0.033129
C	-1.592761397	-1.9523854302	 0.3822754477	 0.028065
O	-1.9661635022	-0.8327466844	 1.1950982831	-0.264918
C	-1.3539169436	-0.577787364	-0.0840200939	 0.010362
H	-0.4456473328	 1.695869555	 0.7711492921	 0.283286
H	 0.5465501356	-0.2590997428	-0.9812406664	 0.091942
H	 1.8722386835	-0.1772299031	 1.0756895879	 0.107595
H	 0.4195938588	-0.1117015628	 2.0633872978	 0.103597
H	 1.7601550131	-2.5614215776	 0.9607814233	 0.087007
H	 0.3750173199	-3.6975473717	 2.7168035133	 0.110383
H	-0.5751047212	-2.1531471457	 2.9626497741	 0.129656
H	-0.3385421688	-3.7281508538	 0.3022627251	 0.085521
H	-2.4434443499	-2.4985140336	-0.0255445524	 0.092075
H	-2.019255183	-0.1286816669	-0.8209125586	 0.095061
120.9756	196.3956	245.0938	331.0507	368.0432	393.1183	409.7709	484.4428	552.3105	616.8019	672.3595	754.7945	802.7564	831.6576	866.6636	890.5327	917.8951	938.1832	973.0192	1027.1965	1057.6276	1075.4714	1080.0015	1097.3673	1122.8218	1129.0658	1134.7038	1151.0425	1220.4459	1231.538	1261.8831	1284.4328	1329.0815	1364.4153	1375.0481	1384.2597	1411.2696	1427.7359	1457.8628	1475.815	1494.4045	3029.913	3046.302	3095.8353	3104.0712	3122.1475	3136.3159	3149.5579	3158.9183	3227.3989	3794.2332
OC1CC2CC2C2OC12	O[C@H]1C[C@H]2C[C@H]2[C@H]2O[C@@H]12	
InChI=1S/C7H10O2/c8-5-2-3-1-4(3)6-7(5)9-6/h3-8H,1-2H2	InChI=1S/C7H10O2/c8-5-2-3-1-4(3)6-7(5)9-6/h3-8H,1-2H2/t3-,4-,5+,6-,7+/m1/s1
