22
gdb 12882	2.43927	2.12902	1.65562	0.086	81.37	-0.2481	0.0821	0.3302	954.317	0.201606	-313.081895	-313.073482	-313.072538	-313.114178	32.553	
C	 0.0362358966	 1.619790526	 0.0967602843	-0.425323
C	 0.1116867482	 0.1064782982	 0.0949042537	-0.041989
C	 1.3052669977	-0.7268873414	-0.3305675634	-0.092067
C	 2.6928720767	-0.1035655263	-0.3881220605	-0.217678
C	 2.9550754671	 0.5122604951	 1.0127474701	-0.222312
C	 1.9149268864	-0.1209490936	 1.9736770285	-0.266631
C	 0.8268831415	-0.7624258563	 1.1108986532	 0.339429
C	 0.0996786074	-1.9499736745	 1.7010105703	-0.478148
H	 0.9576604234	 2.1007133353	 0.4280400577	 0.119222
H	-0.1856252042	 1.9962973226	-0.9085227721	 0.115063
H	-0.7672209062	 1.9642757432	 0.7580328067	 0.114581
H	-0.829555409	-0.3376290633	-0.2266534557	 0.074522
H	 1.1099650983	-1.5645358568	-0.9940984573	 0.07024
H	 3.4232098541	-0.8916960669	-0.6041701546	 0.097083
H	 2.7960606947	 0.6422044066	-1.1847322283	 0.094862
H	 3.9781591117	 0.3198986872	 1.3487327603	 0.094654
H	 2.8487416482	 1.5994153355	 0.9841534214	 0.105936
H	 2.3819698914	-0.9099718347	 2.5753916284	 0.093996
H	 1.5159774949	 0.6127972525	 2.6841368644	 0.093009
H	-0.481966518	-1.6644677044	 2.5863767037	 0.112397
H	-0.596572844	-2.3903668141	 0.9800319569	 0.110242
H	 0.8019501231	-2.73429972	 2.0095828723	 0.108909
135.9206	150.8883	166.5377	201.6002	237.2507	255.5004	327.031	451.3595	495.4121	562.6503	669.0475	697.6037	747.8042	817.7681	838.9968	888.6448	903.3054	939.5511	965.528	1006.1823	1020.0966	1048.8531	1081.9395	1095.1259	1123.0795	1134.5366	1143.4498	1194.1734	1218.7513	1255.1953	1259.1578	1292.627	1323.4433	1330.1879	1345.6668	1369.9415	1415.8485	1419.7773	1460.0619	1487.2616	1489.0428	1491.8154	1498.0989	1501.0396	1511.1185	1521.9621	3014.2703	3025.0206	3029.9527	3031.5662	3052.6188	3060.1259	3061.3573	3070.2021	3080.2214	3092.4763	3097.2009	3105.3363	3138.1769	3145.3443
CC1C2CCCC12C	C[C@H]1[C@H]2CCC[C@@]12C	
InChI=1S/C8H14/c1-6-7-4-3-5-8(6,7)2/h6-7H,3-5H2,1-2H3	InChI=1S/C8H14/c1-6-7-4-3-5-8(6,7)2/h6-7H,3-5H2,1-2H3/t6-,7+,8-/m0/s1
