21
gdb 66224	4.13796	0.70174	0.67997	1.1165	86.26	-0.2549	0.0336	0.2885	1737.7664	0.179194	-387.031411	-387.021086	-387.020142	-387.067532	37.497	
C	-0.0799325716	 1.5350304842	 0.353256244	-0.462544
C	-0.0364015746	 0.0523122911	 0.0397706811	 0.363726
C	-1.3400400254	-0.5246486583	-0.4547468883	-0.113435
O	-1.6858681397	 0.1012888166	-1.6794908813	-0.249192
C	-2.9398297729	-0.32620751	-2.1683781308	-0.201413
C	-3.2461823406	 0.3512135995	-3.4217519798	 0.281106
C	-3.5239580685	 0.8948350931	-4.4557229114	-0.414631
C	 1.2354530725	-0.5354127305	-0.5207054568	-0.285135
C	 0.8202932399	-0.8504325884	 0.8961838249	-0.315069
H	 0.9000671596	 1.8985734387	 0.6766811053	 0.109298
H	-0.383726794	 2.1056350036	-0.5289808065	 0.137385
H	-0.7966772749	 1.7478588686	 1.1557664612	 0.109346
H	-1.2509153744	-1.6149073873	-0.5973449431	 0.080714
H	-2.1391836045	-0.3574235716	 0.2894527843	 0.084453
H	-2.9415512078	-1.4186512486	-2.3292264847	 0.115875
H	-3.7352458278	-0.118612087	-1.4311779641	 0.116694
H	-3.7629441363	 1.3790312307	-5.3701391934	 0.199549
H	 1.153489474	-1.3196566885	-1.2655313837	 0.112959
H	 2.0776742696	 0.1311456797	-0.6714195877	 0.111479
H	 1.374854103	-0.393169706	 1.7087423014	 0.110901
H	 0.4632387945	-1.8518866996	 1.1145028892	 0.107934
39.7215	82.444	88.2548	132.3583	205.0678	221.9927	282.5656	328.1559	334.9498	360.0452	394.1103	444.2088	577.6073	606.9232	674.2953	737.2368	782.9303	872.9034	915.8011	946.4023	958.8042	979.1052	1002.7413	1031.8069	1049.9863	1050.6609	1078.3182	1089.8014	1130.1223	1139.564	1187.2807	1245.3084	1259.7228	1330.5076	1358.4412	1385.2711	1414.1159	1449.1996	1470.1029	1486.2489	1496.1347	1503.3226	1512.3753	1519.8232	2248.1448	2938.616	2949.7933	2962.7812	2974.967	3027.243	3091.4371	3114.9615	3126.6587	3134.2252	3204.848	3220.494	3506.254
CC1(COCC#C)CC1	CC1(COCC#C)CC1	
InChI=1S/C8H12O/c1-3-6-9-7-8(2)4-5-8/h1H,4-7H2,2H3	InChI=1S/C8H12O/c1-3-6-9-7-8(2)4-5-8/h1H,4-7H2,2H3
