18
gdb 6184	3.7136	1.55941	1.46759	2.1445	67.64	-0.2418	-0.0226	0.2192	944.2922	0.152074	-384.975241	-384.967127	-384.966182	-385.007455	30.861	
C	 0.0301048402	 1.4334105564	 0.2329086221	-0.417404
C	-0.0653496971	-0.0696447489	-0.0640574755	 0.369945
C	-1.5156609224	-0.5316564685	-0.125293692	-0.426363
C	 0.7650129832	-0.4544531665	-1.3021885554	-0.370233
C	 2.1446155198	-0.7618627015	-0.7238046045	 0.370657
O	 3.1868191738	-0.8540561889	-1.3146634767	-0.29921
C	 1.941927701	-0.9231100847	 0.7854160836	-0.188237
O	 0.554568047	-0.8175699193	 1.0144840425	-0.288875
H	 1.0715289868	 1.769745887	 0.2740989681	 0.117352
H	-0.4769416889	 2.0165199553	-0.5425055499	 0.118438
H	-0.4373135127	 1.6547135298	 1.1962710016	 0.127377
H	-2.0500160477	-0.0262719021	-0.935463203	 0.117389
H	-1.5645712425	-1.6111156315	-0.2922840348	 0.120779
H	-2.0250104534	-0.3074511957	 0.8165040499	 0.126241
H	 0.3797396693	-1.3725095153	-1.7625839784	 0.132858
H	 0.8228116245	 0.3126095031	-2.0768227528	 0.131898
H	 2.2999662609	-1.8993992925	 1.129673602	 0.135932
H	 2.5231043682	-0.1485488762	 1.3112482234	 0.121457
77.3412	161.429	216.5328	259.5979	299.576	331.1298	372.9869	437.66	461.7979	490.2064	571.6235	641.3854	771.2517	788.1107	833.2467	885.8933	921.0214	953.1429	994.8339	1038.0303	1091.5659	1119.3654	1141.0235	1199.4495	1217.2465	1230.2457	1272.5953	1308.1222	1337.005	1400.6965	1416.6788	1447.4394	1476.1284	1483.3631	1485.3004	1500.4118	1507.6039	1860.1786	2981.6384	3035.5255	3041.1206	3045.0817	3069.4861	3103.0909	3114.3533	3118.0116	3120.9432	3122.2647
CC1(C)CC(=O)CO1	CC1(C)CC(=O)CO1	
InChI=1S/C6H10O2/c1-6(2)3-5(7)4-8-6/h3-4H2,1-2H3	InChI=1S/C6H10O2/c1-6(2)3-5(7)4-8-6/h3-4H2,1-2H3
