16
gdb 37099	2.17691	2.11372	1.33251	1.2072	68.49	-0.2505	0.0609	0.3114	962.1847	0.123654	-437.776597	-437.769298	-437.768354	-437.808285	28.456	
C	-0.000703001	 1.5285311812	 0.0721966942	-0.303655
N	 1.210507915	 0.6892648831	-0.0504797901	-0.360706
C	-0.0967285515	 0.0587553107	 0.02694539	 0.291149
C	-0.4517791024	-1.0051166794	 1.0573046591	-0.095219
O	-1.8537061383	-1.2731548618	 0.900739865	-0.241569
C	-0.9397143554	-1.9151492699	 0.0009987042	-0.103635
C	-0.6288795604	-0.8729122633	-1.0709583851	 0.374179
C	-1.201658161	-0.6366979093	-2.3910802261	-0.261606
O	 0.1443665756	-1.1334095143	-2.2262887686	-0.277519
H	-0.0971080464	 2.0563542612	 1.0168672064	 0.12768
H	-0.3452623648	 2.0854367314	-0.7961520946	 0.115681
H	 1.5330529288	 0.6553870715	-1.0167909431	 0.24433
H	 0.0135619952	-1.2138111245	 2.0123392455	 0.120581
H	-0.9455047588	-2.9958372548	-0.0692473127	 0.121333
H	-1.9106005973	-1.347429096	-2.811994552	 0.127745
H	-1.2743130672	 0.3787705244	-2.776721222	 0.12123
118.6295	182.2616	212.3495	262.0992	335.8662	375.5304	515.936	568.7936	607.1813	620.907	827.9225	852.3367	867.885	876.4873	899.0044	926.0079	933.0217	970.8894	978.9796	1001.5111	1029.1836	1069.5146	1116.1332	1119.8793	1139.8552	1160.126	1201.9064	1227.8706	1265.3832	1271.9268	1356.0342	1422.1522	1458.929	1515.836	1541.9377	3089.1385	3104.755	3177.8837	3190.36	3196.2885	3210.832	3478.1288
C1NC11C2OC2C11CO1	C1N[C@]21[C@H]1O[C@H]1[C@]12CO1	
InChI=1S/C6H7NO2/c1-5(7-1)3-4(9-3)6(5)2-8-6/h3-4,7H,1-2H2	InChI=1S/C6H7NO2/c1-5(7-1)3-4(9-3)6(5)2-8-6/h3-4,7H,1-2H2/t3-,4+,5+,6-/m0/s1
