18
gdb 47288	3.18332	1.24483	0.95421	1.6638	73.7	-0.2511	-0.0238	0.2273	1200.8698	0.148594	-439.116179	-439.107898	-439.106954	-439.149773	30.915	
N	-0.058996299	 1.3620808798	 0.2624189404	-0.476645
C	-0.0097994599	 0.1251209134	-0.0051207398	 0.361395
C	-1.2888617358	-0.6785642435	-0.0882738746	-0.276504
C	-1.5335723601	-1.4698168833	-1.388372743	-0.319152
C	-0.7780147312	-2.7885488366	-1.4843544299	 0.393223
O	-1.2755481918	-3.7698822111	-1.9830613748	-0.303753
C	 0.6404325316	-2.8217161688	-0.9234122993	-0.315545
C	 1.437834712	-1.5252085716	-1.0836063952	-0.094931
O	 1.195764998	-0.521893279	-0.0933203966	-0.251911
H	 0.8900179211	 1.7403963073	 0.3128431458	 0.220736
H	-1.3214507404	-1.3646223127	 0.7680360327	 0.125529
H	-2.0946160931	 0.0428264701	 0.0503158546	 0.145734
H	-2.5952216747	-1.7027691177	-1.4972059497	 0.135559
H	-1.2604882523	-0.8542885899	-2.2566688588	 0.134842
H	 0.5904934767	-3.0728393459	 0.1443884926	 0.141417
H	 1.163914316	-3.6458320655	-1.4165124793	 0.134531
H	 2.5019558162	-1.7459593196	-0.9741249537	 0.130951
H	 1.2942247467	-1.0975228052	-2.0851464113	 0.114525
50.8922	85.9786	168.7979	261.446	292.5563	322.7466	424.9768	469.6814	491.9164	541.732	567.9996	682.8182	715.7569	769.4227	878.2424	908.5882	938.3428	945.7138	974.8597	1029.626	1051.0294	1090.1038	1139.5763	1174.6895	1183.0392	1229.0372	1260.6315	1298.1819	1327.3653	1347.61	1353.116	1368.6746	1427.1149	1439.7544	1462.9294	1478.9461	1507.6482	1738.9139	1815.5633	3014.8161	3024.8699	3033.7537	3038.8081	3097.9856	3104.7785	3107.7493	3130.2982	3456.3586
N=C1CCC(=O)CCO1	[NH][C]1CCC(=O)CCO1	
InChI=1S/C6H9NO2/c7-6-2-1-5(8)3-4-9-6/h7H,1-4H2	InChI=1S/C6H9NO2/c7-6-2-1-5(8)3-4-9-6/h7H,1-4H2
