21
gdb 117885	3.95773	0.52948	0.48981	0.7027	85.51	-0.2494	0.0385	0.2879	2285.0395	0.179398	-424.193819	-424.182231	-424.181287	-424.233233	39.617	
C	 0.3027904326	 1.2727578817	 0.5820030347	-0.364113
C	-0.3859471137	 0.2125154413	-0.2966264898	-0.317068
C	 0.4222266218	-0.1971622584	-1.4406208404	 0.118539
C	 1.1171483692	-0.510433716	-2.3743653399	 0.012875
C	 1.9239516585	-0.9472361386	-3.5164570354	-0.069628
O	 2.5644795347	-2.2012435384	-3.2631326885	-0.419565
C	 1.0903482463	-0.9843968953	-4.8095863794	-0.171299
C	 1.920426301	-1.3775987723	-6.024821491	-0.080995
O	 1.0573174304	-1.3752850663	-7.1531229405	-0.425572
H	 1.248885083	 0.8939155354	 0.9776748594	 0.13044
H	 0.516665113	 2.1759966615	 0.0043216753	 0.129178
H	-0.3400849993	 1.5457955939	 1.4240772612	 0.115011
H	-0.6227106827	-0.6701376693	 0.3114377773	 0.130154
H	-1.3500047755	 0.5984737582	-0.6520656824	 0.130942
H	 2.7560475618	-0.2444766586	-3.6571283143	 0.112194
H	 1.8897588476	-2.7992569006	-2.9226296266	 0.282332
H	 0.2636683682	-1.6945663426	-4.688878625	 0.103809
H	 0.6412565909	 0.0004771669	-4.9775377748	 0.114686
H	 2.7484332616	-0.6602180631	-6.1546643729	 0.081617
H	 2.3685047639	-2.3662201879	-5.8568305637	 0.101577
H	 1.5585150567	-1.6871171116	-7.9120442633	 0.284887
10.2413	66.6248	79.0534	88.3646	135.8508	166.157	218.648	239.1578	261.8067	283.5361	335.9025	365.8459	413.6065	504.8874	553.4649	566.3057	766.6651	785.1889	803.7021	909.4867	966.4671	1025.5102	1066.2087	1072.6527	1085.9151	1093.8768	1105.152	1167.1935	1210.1692	1232.1608	1274.792	1286.3101	1305.6369	1318.7107	1349.5277	1365.0536	1409.0526	1417.9347	1460.4414	1474.0867	1484.4101	1494.384	1505.325	1531.8739	2359.401	2959.756	3020.328	3021.3451	3025.9212	3041.9641	3045.0628	3047.4876	3089.1984	3118.5291	3124.9618	3804.1278	3831.0886
CCC#CC(O)CCO	CCC#C[C@@H](O)CCO	
InChI=1S/C7H12O2/c1-2-3-4-7(9)5-6-8/h7-9H,2,5-6H2,1H3	InChI=1S/C7H12O2/c1-2-3-4-7(9)5-6-8/h7-9H,2,5-6H2,1H3/t7-/m1/s1
