24
gdb 57425	2.60084	1.13995	1.07366	2.6763	85.95	-0.2433	0.0671	0.3104	1328.8042	0.214772	-405.544638	-405.533969	-405.533025	-405.579158	41.41	
C	-1.0582549453	-0.1621270186	 0.6284795355	-0.39968
C	-1.0926543032	-1.2460649957	-0.4514073023	 0.349689
C	-0.8297973895	-2.6337575542	 0.16334376	-0.406499
O	-2.3950705846	-1.235963176	-1.0255655289	-0.467443
C	-0.0354231556	-0.9860917654	-1.5340909149	-0.091144
N	-0.4396147109	-1.3620883352	-2.901877675	-0.395723
C	-0.0815109386	 0.0464739228	-2.611651359	 0.331527
C	-1.2025906483	 1.0587913027	-2.7489266175	-0.457047
C	 1.2520256518	 0.5358229737	-3.1481110511	-0.454178
H	-0.0766338099	-0.122342817	 1.1115037373	 0.105814
H	-1.2752234459	 0.8187981743	 0.1992378012	 0.120916
H	-1.8094029419	-0.3741163559	 1.3951724396	 0.12133
H	-1.6182034704	-2.871680051	 0.8825412153	 0.119478
H	-0.8363332579	-3.402669878	-0.6163040361	 0.111424
H	 0.1364923931	-2.6749691882	 0.6783879538	 0.102115
H	-2.2780452759	-1.5989445961	-1.9181184463	 0.284464
H	 0.9679043918	-1.2734998697	-1.2202857673	 0.071316
H	 0.3063125282	-1.8416131542	-3.3982868105	 0.227878
H	-2.134084452	 0.6806849986	-2.3309030056	 0.149354
H	-0.9405211228	 1.9880681915	-2.2305216138	 0.111452
H	-1.3582641256	 1.3037546974	-3.8060709968	 0.109355
H	 1.1717668459	 0.7855951625	-4.2127536407	 0.121453
H	 1.5789765889	 1.4398367511	-2.6229008107	 0.125424
H	 2.0357353188	-0.2205479694	-3.0338175264	 0.108727
91.7883	148.6171	176.2989	205.7388	219.2658	243.5717	261.0181	286.788	317.0029	336.3466	376.5246	391.1784	429.431	434.7844	545.0746	574.9202	598.8385	711.3207	771.2297	837.936	904.8563	923.9197	954.4327	963.3794	974.2226	979.5867	1011.2391	1031.946	1080.8094	1102.3526	1153.5517	1156.3991	1181.2921	1215.831	1261.9719	1306.5258	1345.2624	1388.0535	1400.2255	1411.5662	1423.2843	1426.0235	1450.3894	1476.6812	1483.0222	1484.498	1487.6288	1500.2754	1506.3091	1508.6603	1516.3005	3022.2655	3028.3997	3031.7108	3042.1956	3084.3441	3089.2355	3096.8926	3097.8816	3107.1552	3110.5017	3118.0182	3126.5222	3163.505	3503.9293	3683.4411
CC(C)(O)C1NC1(C)C	CC(C)(O)[C@H]1NC1(C)C	
InChI=1S/C7H15NO/c1-6(2)5(8-6)7(3,4)9/h5,8-9H,1-4H3	InChI=1S/C7H15NO/c1-6(2)5(8-6)7(3,4)9/h5,8-9H,1-4H3/t5-/m0/s1
