18
gdb 96810	2.1853	1.50229	0.92581	2.5608	75.84	-0.2612	-0.0085	0.2527	1258.042	0.146851	-439.149214	-439.140144	-439.139199	-439.183654	32.451	
C	 0.1048847393	 1.4361496316	 0.0344710121	-0.340014
N	 0.1853729779	-0.0149158675	 0.0155367516	-0.303991
C	 0.5914721249	-0.6264017691	-0.99847515	 0.431815
O	 0.9981821379	-0.0088991374	-2.182565306	-0.224668
C	 1.5734131368	-0.9166728287	-3.049584639	 0.414897
O	 1.9471063367	-0.5941896361	-4.1339354476	-0.310876
C	 1.638147593	-2.2708988368	-2.364553925	-0.373135
C	 0.7034053827	-2.1335031121	-1.153810446	-0.099312
C	 1.1409380484	-2.8453657598	 0.1246307376	-0.397921
H	 0.5105032076	 1.922251038	-0.8588313023	 0.134381
H	-0.9443464026	 1.7295744168	 0.151106987	 0.134387
H	 0.6364850227	 1.8052851934	 0.9177149506	 0.13223
H	 1.3762401284	-3.0624866069	-3.0676728646	 0.147263
H	 2.6771688417	-2.4370241437	-2.0552971352	 0.148305
H	-0.2947731345	-2.4932156348	-1.4370493235	 0.117376
H	 2.1490776568	-2.5349997965	 0.4175811168	 0.122282
H	 0.4629924122	-2.5974207925	 0.943711446	 0.148398
H	 1.1429095401	-3.9300582081	-0.0169655723	 0.118585
69.2097	87.4374	125.0752	178.1956	203.8072	233.1363	276.1805	388.395	467.5	525.5816	573.9634	587.1601	627.3123	712.7101	790.0655	898.8459	918.2819	938.0153	1013.9462	1044.3851	1083.9101	1127.7919	1132.0239	1149.8094	1155.998	1207.095	1250.5499	1280.6362	1319.1583	1359.1915	1411.8311	1439.4615	1464.1941	1492.599	1492.8913	1496.4994	1499.8645	1813.2423	1915.2601	3020.8809	3025.4223	3044.0197	3051.1522	3087.7228	3101.4425	3111.8465	3129.0187	3137.3428
CN=C1OC(=O)CC1C	CN=C1OC(=O)C[C@H]1C	
InChI=1S/C6H9NO2/c1-4-3-5(8)9-6(4)7-2/h4H,3H2,1-2H3	InChI=1S/C6H9NO2/c1-4-3-5(8)9-6(4)7-2/h4H,3H2,1-2H3/t4-/m1/s1
