15
gdb 75702	2.29922	2.11862	1.19875	1.5776	66.65	-0.2688	-0.0324	0.2364	982.79	0.113636	-453.997554	-453.989736	-453.988791	-454.03094	28.023	
C	-0.0480975643	 1.4473835253	-0.0115348708	-0.347865
N	-0.0080761836	-0.0035440962	 0.0203984135	-0.150373
C	-1.1442727247	-0.8059200773	 0.0238149869	 0.428486
O	-2.2828841049	-0.4139654142	 0.0772023016	-0.359987
C	-0.6235832367	-2.216119393	-0.0065168606	-0.162541
C	 0.2186808259	-2.6051046064	-1.1723968171	-0.249105
N	 0.8459498077	-2.1436143119	 0.0829391873	-0.147124
C	 1.1772648081	-0.7439369433	 0.0215412349	 0.425579
O	 2.2883861756	-0.2946239841	-0.0171994993	-0.346679
H	 0.9807802966	 1.8028613931	-0.070224811	 0.168225
H	-0.6165328604	 1.7911383623	-0.879280193	 0.150541
H	-0.5262169049	 1.8330171211	 0.892521262	 0.153797
H	-1.135792379	-2.9645028388	 0.5864859099	 0.139497
H	 0.3623615805	-3.6587403063	-1.3869944213	 0.14995
H	 0.253037244	-1.9436552104	-2.0336593228	 0.147599
31.5404	121.3893	189.5586	222.2855	269.9678	343.049	391.29	546.0278	605.6855	657.4741	724.8471	752.5893	803.8991	841.843	865.9962	965.5507	999.0262	1049.7337	1069.7916	1114.2984	1146.1804	1160.804	1166.9971	1256.4565	1294.7371	1341.3832	1401.2711	1456.9994	1488.4907	1505.6983	1509.4366	1825.7433	1884.9924	3055.9227	3122.1035	3122.5324	3163.9743	3192.0897	3218.7947
CN1C(=O)C2CN2C1=O	CN1C(=O)[C@H]2CN2C1=O	
InChI=1S/C5H6N2O2/c1-6-4(8)3-2-7(3)5(6)9/h3H,2H2,1H3	InChI=1S/C5H6N2O2/c1-6-4(8)3-2-7(3)5(6)9/h3H,2H2,1H3/t3-,7?/m1/s1
