13
gdb 21183	5.57282	1.60198	1.25415	7.0611	64.52	-0.2425	-0.0715	0.171	904.7101	0.095633	-390.911105	-390.903885	-390.902941	-390.943106	25.074	
C	-0.0563376361	 1.4654485523	 0.0827155999	-0.333497
N	 0.0289397883	 0.0260862652	-0.0486036797	-0.335773
C	 0.6162433419	-0.6211322784	-1.0730141361	 0.451791
C	 1.2335512841	 0.0082117739	-2.1717525663	-0.043386
N	 1.7788776181	-0.7172101001	-3.123546313	-0.160117
N	 1.742447925	-2.0517469665	-3.039052509	-0.091644
N	 1.1663396119	-2.639018979	-2.0122805905	-0.06299
N	 0.6041617413	-1.9648707986	-1.0300938284	-0.262308
H	 0.9362471819	 1.9295100832	 0.1336271954	 0.145819
H	-0.6086367088	 1.9179239138	-0.7499057867	 0.145982
H	-0.586594803	 1.6995141809	 1.0064604508	 0.150025
H	-0.3670243514	-0.5690335948	 0.6630429157	 0.26662
H	 1.2873011367	 1.0870714981	-2.2827317121	 0.129477
83.585	96.8515	173.6689	211.3937	350.4276	465.3553	467.9631	561.672	594.0163	681.5479	829.8947	858.0195	926.4477	931.7878	1051.8795	1080.5915	1114.6086	1158.7427	1177.1967	1253.5066	1357.2973	1374.24	1465.5622	1486.7298	1496.7337	1522.3077	1559.0577	1620.3106	3018.2772	3068.6072	3143.3258	3172.5126	3623.9576
CNC1=CN=NN=N1	CNc1cnnnn1	
InChI=1S/C3H5N5/c1-4-3-2-5-7-8-6-3/h2H,1H3,(H,4,6,7)	InChI=1S/C3H5N5/c1-4-3-2-5-7-8-6-3/h2H,1H3,(H,4,6,7)
