19
gdb 41687	3.85277	1.44788	1.2389	1.4861	79.66	-0.2296	0.0184	0.248	1038.4854	0.162346	-385.892775	-385.885906	-385.884961	-385.923711	28.333	
C	-0.0204413193	 1.4651220996	 0.0642424203	-0.104129
O	 1.3263610844	 1.9327959259	-0.001418697	-0.25746
C	 2.0882105579	 1.0012205627	-0.764233289	-0.179363
C	 1.4483432317	-0.344578579	-0.5114172463	 0.340065
C	 1.7489068221	-1.6271444664	-1.2715014485	-0.379262
C	 1.37850863	-2.706857957	-0.2729198	-0.076251
C	 1.0401204605	-2.2008750152	 0.916626387	-0.087014
C	 1.0687346614	-0.7093395195	 0.9178785272	-0.121548
C	 0.0564657043	-0.0489605737	 0.0004281321	-0.114268
H	-0.4524004427	 1.8608619877	 0.9898241666	 0.107721
H	-0.6158432979	 1.8437993892	-0.783228095	 0.090462
H	 2.0593887341	 1.2444421387	-1.8406635299	 0.087099
H	 3.1274698504	 1.0773818978	-0.4255234752	 0.106709
H	 1.1767840823	-1.7069675723	-2.2049971042	 0.110363
H	 2.8096379694	-1.6943945872	-1.5551807566	 0.108311
H	 1.3877907359	-3.7602628102	-0.5284673305	 0.09413
H	 0.7510860873	-2.7820712932	 1.7850472201	 0.095106
H	 1.4370312245	-0.1556795973	 1.7765363695	 0.092786
H	-0.8100102764	-0.6126718104	-0.3283263804	 0.086543
185.2222	223.7719	240.9847	309.6188	375.4268	442.7228	479.5463	652.106	715.9826	727.3682	771.9895	812.2917	865.1446	909.7256	931.4176	943.7358	956.4786	963.6837	979.5322	1033.5562	1045.1325	1057.6478	1080.5027	1095.2028	1105.0492	1141.481	1176.1195	1202.5758	1226.0224	1242.507	1256.9823	1271.8075	1330.0368	1359.5924	1364.0078	1383.2596	1429.4701	1478.8686	1511.562	1522.7069	1664.9538	2952.2518	2967.2682	2999.4627	3036.8017	3057.9904	3062.9103	3153.8567	3168.7716	3185.9778	3210.7024
C1OCC23CC=CC2C13	C1OC[C@@]23CC=C[C@@H]2[C@@H]13	
InChI=1S/C8H10O/c1-2-6-7-4-9-5-8(6,7)3-1/h1-2,6-7H,3-5H2	InChI=1S/C8H10O/c1-2-6-7-4-9-5-8(6,7)3-1/h1-2,6-7H,3-5H2/t6-,7-,8+/m1/s1
