15
gdb 19811	4.21406	2.04456	1.83102	3.776	63.78	-0.2359	0.0257	0.2616	752.2504	0.120725	-362.637346	-362.631275	-362.630331	-362.66736	24.455	
O	-0.0517751011	 0.0072884545	 0.0948922669	-0.356101
C	-0.0090176762	 1.2052920018	 0.035274617	 0.398126
N	-1.0057189549	 2.1729923472	 0.0049174681	-0.320607
C	-0.0929916401	 3.3183525982	 0.0261543458	 0.008383
C	 0.4165684866	 3.8662825003	 1.3903007707	-0.061367
C	 0.5305895728	 2.7826435167	 2.4233822868	-0.304057
C	 1.5787190534	 2.8669580387	 1.3538481919	-0.04613
C	 1.082757634	 2.3099361922	-0.0093602806	-0.191992
H	-1.9821809268	 2.0901564919	 0.2527234427	 0.246903
H	-0.2499038105	 4.0574223032	-0.7590801981	 0.0913
H	 0.4278512825	 4.9171941369	 1.6513190501	 0.090893
H	 0.8535502316	 3.1259064661	 3.4008501185	 0.118261
H	-0.1763915745	 1.9589962402	 2.4575370304	 0.128936
H	 2.6233467201	 3.0278218614	 1.5853509378	 0.097939
H	 1.8039683229	 2.2906169007	-0.822990318	 0.099512
131.3218	242.9337	362.2119	445.3639	480.9931	553.8917	672.6528	712.464	749.3374	782.3804	798.3581	888.8783	890.1284	929.6871	945.45	979.3045	997.4185	1034.5944	1057.442	1071.0539	1088.733	1135.2202	1147.9326	1180.0439	1213.2082	1240.7695	1284.1966	1313.9013	1348.7509	1362.77	1491.4323	1886.9501	3114.3022	3124.8781	3150.2511	3185.3714	3197.064	3210.378	3590.3306
O=C1NC2C3CC3C12	O=C1N[C@H]2[C@H]3C[C@H]3[C@@H]12	
InChI=1S/C6H7NO/c8-6-4-2-1-3(2)5(4)7-6/h2-5H,1H2,(H,7,8)	InChI=1S/C6H7NO/c8-6-4-2-1-3(2)5(4)7-6/h2-5H,1H2,(H,7,8)/t2-,3+,4-,5+/m1/s1
