21
gdb 92252	2.52103	1.66148	1.30528	1.2368	82.06	-0.2468	0.0733	0.3202	1068.2938	0.183648	-387.04621	-387.038187	-387.037242	-387.078664	32.2	
O	 0.0196937618	 1.4048660908	-0.1981076248	-0.43789
C	 0.0223787702	 0.0102781929	 0.0156497663	 0.027
C	 0.2137343345	-0.5457630061	 1.4646339581	-0.278096
C	-1.0459396803	-1.4482322365	 1.2787910896	-0.074951
C	-2.3298238592	-0.9114705014	 1.9616959743	-0.24564
C	-2.6054410264	-0.032560012	 0.7094153191	-0.060811
C	-3.495741939	-0.6895036169	-0.3898799885	-0.223406
C	-2.2235932058	-1.1006214686	-1.1976365067	-0.34511
C	-1.3543347537	-0.6299126397	-0.027823641	 0.395347
H	 0.9290545819	 1.7186554004	-0.1723939788	 0.281841
H	 0.7081711738	-0.4947223963	-0.6836284548	 0.059395
H	 1.1548482274	-1.0677005304	 1.6530349697	 0.093727
H	 0.078321715	 0.2284086939	 2.2255206563	 0.100486
H	-0.8579181131	-2.5235908245	 1.2730248317	 0.056897
H	-3.1034497491	-1.6637940518	 2.1474078679	 0.091003
H	-2.1525950199	-0.3700095519	 2.8963554195	 0.093394
H	-2.7336039777	 1.0407201833	 0.8509672345	 0.072632
H	-4.0954321631	-1.5289478885	-0.0261854587	 0.095167
H	-4.1603405087	 0.0020775532	-0.9123342186	 0.101592
H	-2.1319133478	-2.1507812611	-1.4921719451	 0.090768
H	-2.0823317507	-0.4815368686	-2.0893764798	 0.106656
85.5177	126.3953	200.6638	263.0729	319.7056	378.0464	416.609	478.0795	534.909	623.4651	659.8444	745.7421	785.8577	815.054	829.7851	866.098	884.0045	931.5822	943.5446	981.2839	1008.5584	1019.9277	1045.565	1087.1852	1112.9725	1125.429	1140.5159	1161.2082	1191.5989	1209.7561	1217.6115	1234.6341	1239.7531	1244.7977	1271.7955	1282.6911	1288.8926	1293.5423	1313.8363	1338.9958	1433.4474	1471.0517	1475.5723	1485.3524	1494.7955	2966.2048	3035.7263	3040.6557	3053.7922	3055.605	3078.866	3084.4968	3087.8592	3103.1354	3113.5078	3116.5267	3817.202
OC1CC2CC3CCC123	O[C@H]1C[C@H]2C[C@@H]3CC[C@]123	
InChI=1S/C8H12O/c9-7-4-6-3-5-1-2-8(5,6)7/h5-7,9H,1-4H2	InChI=1S/C8H12O/c9-7-4-6-3-5-1-2-8(5,6)7/h5-7,9H,1-4H2/t5-,6+,7-,8+/m0/s1
