16
gdb 53635	4.3995	0.63576	0.55935	1.0295	84.34	-0.2525	-0.0285	0.224	1921.0474	0.120816	-400.688207	-400.677987	-400.677042	-400.725461	34.61	
C	-0.1020382553	 1.4444509439	 0.0115896716	-0.49919
C	-0.0634510916	-0.0100764992	 0.0028235743	 0.14232
C	-0.0339228408	-1.2127076818	-0.004352276	 0.018923
C	 0.0435788631	-2.6622318426	-0.0131902551	-0.24369
O	-1.297158003	-3.1984035129	-0.0030459909	-0.228098
C	-1.3782089459	-4.5402502529	-0.0093099784	 0.270214
N	-0.3451388344	-5.2852443479	-0.0232657665	-0.538866
C	-2.7439761089	-4.9895415162	 0.0016719125	 0.276214
C	-3.8676223526	-5.4163669448	 0.0104704199	-0.400431
H	 0.9104861553	 1.8627163012	 0.0077015668	 0.152515
H	-0.6255988382	 1.8340624338	-0.8680846432	 0.152336
H	-0.6144612783	 1.8236279455	 0.9023128211	 0.152365
H	 0.5687714633	-3.0362541362	-0.8995080833	 0.149145
H	 0.5860224753	-3.0460922803	 0.8584038005	 0.149171
H	-0.6121055397	-6.266731582	-0.0257731655	 0.23675
H	-4.8628852182	-5.7880650177	 0.0187364122	 0.21032
28.8117	47.4612	67.9765	124.0425	160.9274	209.9005	266.9665	304.927	315.0214	379.4618	457.0856	542.4353	600.536	659.6931	660.94	732.5201	776.914	846.7746	937.9377	985.6947	1011.2858	1052.5594	1054.2012	1110.0243	1181.852	1244.8435	1348.4835	1414.0842	1419.2998	1475.3718	1478.8956	1487.0577	1678.0858	2237.3048	2382.357	3029.7851	3037.323	3068.9149	3092.2175	3092.6503	3501.1851	3528.1458
CC#CCOC(=N)C#C	CC#CCO[C]([NH])C#C	
InChI=1S/C7H7NO/c1-3-5-6-9-7(8)4-2/h2,8H,6H2,1H3	InChI=1S/C7H7NO/c1-3-5-6-9-7(8)4-2/h2,8H,6H2,1H3
