17
gdb 92817	2.84641	1.8574	1.65986	3.7969	72.09	-0.2356	-0.038	0.1976	878.8657	0.137831	-417.906082	-417.899299	-417.898355	-417.936885	28.275	
O	 0.1925873754	 1.4543985996	-0.0904415982	-0.432357
C	 0.042063281	 0.0558035479	-0.0056461878	 0.107557
C	 0.8321141502	-0.5384892383	 1.2211306494	-0.196945
N	 0.1111710194	 0.0651916787	 2.3440554409	-0.166228
C	-1.1005504421	-0.2892825904	 2.333622087	 0.161315
N	-2.1714416559	 0.726890071	 2.3023502818	-0.356289
C	-2.585373274	-0.0130556831	 1.0434348336	-0.027096
C	-1.4272562019	-0.4329696249	 0.0948335154	-0.034625
C	-1.7761542056	-1.2350901652	 1.3243411078	-0.209652
H	-0.0959070935	 1.817448195	 0.7575217884	 0.301085
H	 0.4634168436	-0.3407081199	-0.9363587972	 0.082787
H	 0.8037693308	-1.6353539749	 1.1802783401	 0.104477
H	 1.8701787594	-0.2024165486	 1.2171651679	 0.117287
H	-2.9032655232	 0.50899726	 2.9831190784	 0.231024
H	-3.5970524511	 0.0964813383	 0.6707703356	 0.110677
H	-1.8300339666	-0.8124442004	-0.8418381336	 0.099585
H	-2.0089361357	-2.289565635	 1.3946273505	 0.107398
129.5351	239.9814	340.7528	396.5977	424.4936	445.8743	526.7702	564.2529	633.8685	665.7093	754.794	781.4358	798.6318	820.8001	869.5692	916.1748	943.9086	952.3108	983.7896	1007.3953	1027.088	1051.133	1069.7839	1084.4414	1120.925	1140.1477	1207.0779	1216.7894	1245.4175	1254.325	1309.9348	1322.3542	1333.7666	1385.3534	1444.1459	1496.0793	1708.339	3016.609	3048.9036	3120.2424	3134.8286	3183.4987	3196.3196	3420.5663	3766.1024
OC1CN=C2NC3C1C23	O[C@H]1C[N][C]2N[C@H]3[C@@H]1[C@@H]23	
InChI=1S/C6H8N2O/c9-2-1-7-6-4-3(2)5(4)8-6/h2-5,9H,1H2,(H,7,8)	InChI=1S/C6H8N2O/c9-2-1-7-6-4-3(2)5(4)8-6/h2-5,9H,1H2,(H,7,8)/t2-,3-,4+,5-/m0/s1
