17
gdb 49718	3.01473	1.46355	1.10928	5.1509	77.54	-0.2309	-0.0118	0.2191	1095.0111	0.138123	-414.146982	-414.139138	-414.138193	-414.179642	29.457	
N	-0.0458666022	 1.3174558543	-0.3476019464	-0.451891
C	 0.0012016731	 0.0462875353	-0.2482103575	 0.065247
N	-1.1294124372	-0.6978495648	-0.0405575413	-0.070025
C	-1.3472991906	-2.1349035147	 0.1416898771	-0.024587
C	-1.2423965605	-2.6668828194	 1.5934435808	-0.184923
N	-2.5956711606	-2.131906098	 1.8992206684	-0.307487
C	-2.838280955	-1.7944885916	 0.4699980819	-0.126675
C	-2.4847777629	-0.3346247985	 0.1780417449	 0.434602
N	-3.1270247396	 0.7450010487	 0.1542105659	-0.553894
H	 0.8846270549	 1.6970608896	-0.5063724659	 0.228814
H	 0.9043534795	-0.5727720657	-0.3234683713	 0.096157
H	-1.0055222118	-2.7627551795	-0.6813556938	 0.098789
H	-1.1742950964	-3.761935006	 1.6108720691	 0.104394
H	-0.4420824544	-2.2517716496	 2.2152433786	 0.113058
H	-3.2394142043	-2.8174846722	 2.272579109	 0.229556
H	-3.7057376907	-2.2335314489	-0.0212695476	 0.097241
H	-2.4985906912	 1.5253577411	-0.0486080618	 0.251624
84.5873	134.0829	181.7825	197.3216	256.7806	365.4967	428.5323	513.0977	632.4831	659.5257	735.0993	784.589	803.4198	830.341	888.4476	903.0052	925.1533	977.0404	995.6954	1030.5842	1048.9705	1072.7227	1104.2456	1143.707	1169.006	1181.16	1252.2347	1257.6329	1276.6406	1317.3404	1341.8462	1387.347	1388.0879	1442.0197	1505.6071	1696.3402	1801.6324	3018.3449	3038.3381	3071.5509	3107.8669	3128.0691	3472.1336	3514.5169	3564.6372
N=CN1C2CNC2C1=N	[NH][CH]N1[C@H]2CN[C@H]2[C]1[NH]	
InChI=1S/C5H8N4/c6-2-9-3-1-8-4(3)5(9)7/h2-4,6-8H,1H2	InChI=1S/C5H8N4/c6-2-9-3-1-8-4(3)5(9)7/h2-4,6-8H,1H2/t3-,4+/m0/s1
