16
gdb 88270	3.19005	1.05743	0.94968	2.1988	67.34	-0.2452	-0.0766	0.1686	1268.2902	0.122213	-475.049326	-475.040099	-475.039155	-475.084	32.944	
C	 0.3417692749	 1.4867795828	-0.5717023863	-0.435408
C	 0.0211858369	 0.0992138055	-0.0866004032	 0.088809
O	 1.0962034017	-0.8085570556	 0.0789686368	-0.237333
C	 0.3880572431	-0.4338217566	 1.2589093519	-0.049359
C	 1.124119094	 0.4069494064	 2.2469350941	 0.276203
O	 2.1297283978	 1.0382687172	 2.0056524872	-0.316947
C	 0.4905031379	 0.4464251218	 3.6569551828	 0.332429
N	 1.1928719515	 1.2241505247	 4.5065752651	-0.520722
O	-0.5297215435	-0.1647802988	 3.9168591886	-0.34946
H	 1.2213745375	 1.8872241785	-0.0663396443	 0.158717
H	 0.5414786136	 1.4593716577	-1.6480090488	 0.135297
H	-0.5112046127	 2.1532020892	-0.4064398882	 0.125658
H	-0.8745904249	-0.3525559117	-0.5184169931	 0.106426
H	-0.2521849979	-1.193841555	 1.6970281348	 0.132637
H	 2.0265578007	 1.6794599276	 4.1711496471	 0.281595
H	 0.8880642392	 1.3340754265	 5.4586375955	 0.271457
54.6498	64.0928	171.9846	175.5555	215.6397	286.1527	331.7406	364.2375	376.9414	430.7923	490.2097	535.7347	622.2147	666.084	765.747	814.8454	848.8463	872.0994	979.8177	1025.8243	1073.5518	1080.7943	1106.2768	1166.6155	1170.1004	1274.8167	1358.0481	1395.7019	1415.4005	1447.6653	1489.9157	1502.5922	1588.7529	1787.5275	1804.1549	3042.9581	3088.472	3103.9169	3153.0535	3168.1155	3596.0943	3737.6338
CC1OC1C(=O)C(N)=O	C[C@H]1O[C@H]1C(=O)C(=O)N	
InChI=1S/C5H7NO3/c1-2-4(9-2)3(7)5(6)8/h2,4H,1H3,(H2,6,8)	InChI=1S/C5H7NO3/c1-2-4(9-2)3(7)5(6)8/h2,4H,1H3,(H2,6,8)/t2-,4-/m1/s1
