19
gdb 119492	4.21809	0.94583	0.88497	3.1663	75.05	-0.2463	0.0454	0.2917	1384.4361	0.156884	-422.934322	-422.925762	-422.924818	-422.968087	32.336	
C	 0.0196797302	 1.5517282256	-0.1464441037	-0.384354
C	-0.0326241081	 0.0236164447	-0.0895978288	-0.162328
C	-1.4535242127	-0.5138968425	 0.1473149234	-0.329245
C	-1.4993980096	-2.0056756061	 0.2092023662	 0.432752
O	-1.367621789	-2.7765278834	-0.9877333718	-0.26119
C	-2.4967231925	-3.0178286241	-0.1460758316	-0.124288
C	-2.0219898859	-3.9251682108	 1.0589326626	-0.010926
O	-0.6333835606	-4.1998380513	 0.8904014231	-0.210049
C	-1.0133011883	-2.9294482586	 1.4144610994	-0.065455
H	 1.0401053096	 1.9072492555	-0.3180539468	 0.116197
H	-0.6085969148	 1.9394969856	-0.9559621221	 0.117208
H	-0.3355214998	 1.9975227363	 0.789597895	 0.112889
H	 0.3511636387	-0.4008736457	-1.0242214782	 0.120699
H	 0.62964789	-0.3402590739	 0.7062644709	 0.100964
H	-1.8533500111	-0.1058011594	 1.0857887497	 0.101692
H	-2.1197511521	-0.1758607632	-0.6552079861	 0.112327
H	-3.4894757925	-2.9379064167	-0.5724144882	 0.11028
H	-2.617439974	-4.5972537208	 1.6638128316	 0.112764
H	-0.6129766976	-2.6209024912	 2.3727471054	 0.110068
69.8418	91.4747	108.0204	244.543	287.1596	295.5358	331.8872	427.3518	488.0502	646.374	698.641	738.8728	768.2058	782.4873	826.0573	855.8446	860.429	895.667	907.487	948.5985	983.636	993.7147	1024.6565	1044.7114	1073.0758	1119.6132	1167.9829	1194.8179	1227.2859	1246.6248	1280.4333	1303.0222	1332.737	1363.7606	1387.4808	1414.5823	1461.8555	1479.3478	1492.8967	1500.1343	1509.4531	3015.3355	3027.6329	3030.6327	3056.1374	3073.4087	3098.3844	3105.3887	3185.9765	3191.3199	3205.6276
CCCC12OC1C1OC21	CCC[C@]12O[C@H]1[C@H]1O[C@@H]21	
InChI=1S/C7H10O2/c1-2-3-7-5-4(8-5)6(7)9-7/h4-6H,2-3H2,1H3	InChI=1S/C7H10O2/c1-2-3-7-5-4(8-5)6(7)9-7/h4-6H,2-3H2,1H3/t4-,5+,6-,7+/m0/s1
