17
gdb 34604	3.7563	1.18231	0.98401	5.6503	80.36	-0.2522	-0.0321	0.2201	1182.3384	0.13888	-380.882628	-380.87512	-380.874176	-380.914803	28.935	
N	 0.2205010651	-0.926486733	 0.9872464605	-0.339173
C	 0.1053495849	 0.1477545648	 0.5688041534	 0.215619
C	 0.0071420976	 1.4694479829	 0.0310834641	 0.171482
C	-1.1384206279	 2.1535606851	 0.1573698582	-0.118891
C	-1.3684957292	 3.5330333679	-0.3806211564	-0.264925
C	-0.1090525753	 4.2233655557	-0.8588175996	-0.034235
N	 0.957849016	 4.3705831831	 0.1451017615	-0.327701
C	 1.163195496	 3.4689352835	-0.999779439	-0.039675
C	 1.2390634858	 1.991727172	-0.6783750987	-0.304409
H	-1.9719945469	 1.6858572868	 0.6728395991	 0.115365
H	-2.086627458	 3.4705881571	-1.2117599713	 0.123838
H	-1.8601792358	 4.1447256707	 0.3879070343	 0.127656
H	-0.2737531429	 5.0536932814	-1.5417458507	 0.088357
H	 1.4603237297	 5.2424121632	 0.0040003114	 0.234983
H	 1.8507600413	 3.7943874401	-1.7772718304	 0.089064
H	 2.1255855397	 1.7901614164	-0.0647898055	 0.134739
H	 1.37926677	 1.4254786121	-1.6088011308	 0.127905
82.7037	162.3904	187.6533	322.0591	345.9134	382.6603	444.6026	547.2566	569.1569	587.5811	680.5176	783.5995	800.1301	842.3452	881.1959	912.8461	966.9625	970.7329	988.3082	1033.9253	1061.6744	1120.0523	1135.992	1183.4387	1191.8913	1234.6854	1244.2673	1278.434	1331.9756	1376.8732	1394.4173	1408.4937	1458.9436	1468.9321	1472.7475	1706.1014	2334.7761	3004.3436	3022.2496	3034.1547	3055.2568	3124.9431	3135.4119	3177.2555	3511.2105
N#CC1=CCC2NC2C1	N#CC1=CC[C@H]2N[C@H]2C1	
InChI=1S/C7H8N2/c8-4-5-1-2-6-7(3-5)9-6/h1,6-7,9H,2-3H2	InChI=1S/C7H8N2/c8-4-5-1-2-6-7(3-5)9-6/h1,6-7,9H,2-3H2/t6-,7+/m1/s1
