13
gdb 130635	2.1115	1.88087	1.00708	1.9243	73.54	-0.2538	-0.0846	0.1692	1073.4975	0.08875	-452.784684	-452.776871	-452.775927	-452.818162	27.353	
O	 0.2826321091	 0.1366505174	-0.005652573	-0.332191
C	 0.1442899427	 1.3348045273	 0.0050189264	 0.322621
C	-1.1916838374	 2.0965652012	 0.0289479646	-0.333962
C	-0.8664184868	 3.5985301305	 0.0376782319	-0.333957
C	 0.6648722212	 3.7393420005	 0.0167160403	 0.322564
C	 1.1908980691	 2.3668123333	-0.0023042982	 0.113258
N	 2.4693916504	 2.0894761861	-0.0231135934	 0.152665
N	 3.5685876309	 1.8511965161	-0.0410095416	-0.170904
O	 1.2868781931	 4.7727076858	 0.0146948098	-0.332121
H	-1.7730680884	 1.7875871435	-0.8443793736	 0.148021
H	-1.7506005696	 1.7717544989	 0.9111696302	 0.147968
H	-1.2673946041	 4.1308164045	-0.8295742161	 0.148028
H	-1.2413768302	 4.114780685	 0.9259541726	 0.148011
54.5089	95.0387	119.0801	183.1067	336.4414	451.7741	522.3731	526.5755	548.4659	581.9857	629.0483	656.0904	660.0373	826.5198	993.9622	1012.3635	1019.314	1060.1169	1146.2643	1202.0518	1240.2016	1269.0765	1298.5016	1374.7079	1450.9574	1471.2602	1792.874	1830.5874	2249.9198	3064.5042	3071.9983	3100.2097	3117.0464
O=C1CCC2=C1N=NO2	O=C1CCC(=O)[C]1[N][N]	
InChI=1S/C5H4N2O2/c8-3-1-2-4-5(3)6-7-9-4/h1-2H2	InChI=1S/C5H4N2O2/c6-7-5-3(8)1-2-4(5)9/h1-2H2
