17
gdb 124894	3.70783	1.21452	1.01231	1.0314	73.81	-0.2347	0.0185	0.2532	1168.1577	0.137159	-418.009382	-418.001397	-418.000453	-418.042432	30.022	
C	-0.2449170227	 1.3912287951	-0.7038376978	-0.473431
C	-0.0342590799	 0.0298796698	-0.077189936	 0.2912
C	 1.1055002045	-0.8011919425	-0.5176123706	-0.215357
O	 1.1542937839	-0.0964350676	 0.7240231907	-0.276296
C	-1.2304993268	-0.6237761209	 0.5111601368	 0.177651
C	-1.2627774128	-1.4024865148	 1.6524840545	-0.129591
N	-2.5502802973	-1.786909322	 1.816279723	-0.181013
N	-3.374504692	-1.3121240054	 0.8643617459	-0.223362
C	-2.5762434384	-0.6033478	 0.0709735596	-0.110108
H	 0.7036155685	 1.793955171	-1.0667157593	 0.126417
H	-0.9407475024	 1.3283859616	-1.5470608427	 0.12509
H	-0.6637466428	 2.0891618824	 0.0274978713	 0.133449
H	 1.0351945021	-1.8848389367	-0.4388745349	 0.110745
H	 1.7776494388	-0.4304200058	-1.2914417387	 0.11097
H	-0.479192222	-1.6791331244	 2.3383613626	 0.149558
H	-2.9344464671	-2.3510395503	 2.5550774929	 0.27574
H	-2.9924674336	-0.1044009493	-0.7918171474	 0.10834
47.5651	151.7338	181.9866	207.524	318.7283	360.9909	424.1133	482.9183	531.9358	560.6837	676.6966	703.2387	800.1677	813.6877	867.6064	887.4524	921.3303	954.5062	991.93	1024.4651	1054.7224	1098.6755	1137.3482	1156.7105	1166.0763	1184.5631	1251.4676	1339.0135	1346.8325	1405.1261	1412.3045	1416.0775	1482.6841	1488.913	1502.0619	1524.285	1612.0081	3040.4687	3076.7502	3106.9413	3127.5703	3167.9556	3244.6748	3277.3899	3675.8226
CC1(CO1)C1=CNN=C1	C[C@]1(CO1)c1c[nH]nc1	
InChI=1S/C6H8N2O/c1-6(4-9-6)5-2-7-8-3-5/h2-3H,4H2,1H3,(H,7,8)	InChI=1S/C6H8N2O/c1-6(4-9-6)5-2-7-8-3-5/h2-3H,4H2,1H3,(H,7,8)/t6-/m0/s1
