20
gdb 66129	2.55031	1.56189	1.30347	2.5233	78.08	-0.2411	-0.0215	0.2196	1065.4248	0.171018	-403.147742	-403.139288	-403.138343	-403.180722	32.703	
C	 0.020695335	 1.6242429917	 0.1402060298	-0.441253
C	 0.045144856	 0.0931594507	 0.0542024888	 0.198794
C	 0.6776572356	-0.4678402183	-1.238380711	-0.281545
C	 1.2785497881	-1.8208808126	-0.8015567036	-0.235823
C	 1.5442314954	-1.6433303948	 0.686389183	-0.009796
C	 2.2311067712	-0.4018691609	 1.1232976963	-0.255182
N	 0.7648837481	-0.5001249898	 1.2078352145	-0.125779
C	-1.4020758444	-0.3863735495	 0.2188455701	 0.152886
O	-2.1038216727	-0.7941211083	-0.6696298249	-0.259432
H	 1.0404107323	 2.0206633665	 0.1314420521	 0.123494
H	-0.521219637	 2.0479219428	-0.7103887462	 0.132552
H	-0.463373926	 1.9586403995	 1.0631012765	 0.129582
H	-0.0773132299	-0.5780313356	-2.0186320524	 0.129831
H	 1.4488623029	 0.2110484597	-1.612574966	 0.098687
H	 0.551094052	-2.6266029399	-0.9450510853	 0.120429
H	 2.1770756525	-2.0882042374	-1.3656443287	 0.10664
H	 1.5798834947	-2.5269356803	 1.3171446022	 0.092519
H	 2.7323333779	-0.3668812227	 2.0860671625	 0.119087
H	 2.6766269413	 0.2360421784	 0.3642348267	 0.112605
H	-1.764534763	-0.3118573293	 1.2673476154	 0.091705
64.4008	147.2702	212.6325	221.551	308.7098	310.9499	324.8512	384.6064	436.1524	558.3729	614.0108	668.9338	754.5723	786.5852	834.9954	844.5898	912.3222	932.4319	955.5745	968.004	1007.4045	1026.6061	1043.4674	1082.4489	1111.1091	1140.1051	1153.9367	1174.7608	1199.2554	1230.4542	1273.6674	1276.4664	1319.7026	1333.209	1385.4563	1394.7203	1408.1668	1484.4322	1487.4593	1495.2748	1496.0149	1518.4426	1831.187	2901.2471	3038.2908	3050.9267	3064.3564	3091.6919	3109.0602	3111.7342	3117.1359	3125.2797	3149.7814	3193.3438
CC1(CCC2CN12)C=O	C[C@]1(CC[C@H]2CN12)C=O	
InChI=1S/C7H11NO/c1-7(5-9)3-2-6-4-8(6)7/h5-6H,2-4H2,1H3	InChI=1S/C7H11NO/c1-7(5-9)3-2-6-4-8(6)7/h5-6H,2-4H2,1H3/t6-,7-,8?/m0/s1
