18
gdb 57642	3.18276	0.99068	0.94039	5.0783	72.53	-0.2931	0.0256	0.3186	1310.8149	0.14517	-439.072231	-439.062614	-439.06167	-439.107267	34.84	
C	 0.3358728698	 1.5726569414	-0.0338464854	-0.405152
C	-0.0651685694	 0.0902456201	-0.0346240777	 0.212417
O	 0.4459773239	-0.4882829191	 1.1534170759	-0.446331
C	-1.5993819273	-0.1173047172	-0.1587369153	-0.283176
C	-2.3440367531	 0.2106808943	 1.1134788368	 0.075171
C	-3.4661666376	-0.6239995925	 1.5621098292	-0.181183
O	-2.1805552879	-0.7413863198	 2.1779507924	-0.239138
C	 0.5664176647	-0.5725235741	-1.2089320071	 0.264853
N	 1.0419840268	-1.0888548798	-2.1268785037	-0.339197
H	 1.4150894519	 1.6561982095	 0.1096480335	 0.151084
H	 0.0665423811	 2.0550891103	-0.97708193	 0.130344
H	-0.1597897216	 2.0872680254	 0.7928281645	 0.129091
H	-0.2151159605	-1.0900575081	 1.5190230574	 0.305975
H	-1.9786375283	 0.4890865385	-0.9882250605	 0.130324
H	-1.7912502064	-1.1653490603	-0.4119593652	 0.128178
H	-2.3156181175	 1.2463070782	 1.4497100404	 0.111302
H	-4.2400551473	-0.1940856006	 2.1946043794	 0.12913
H	-3.7764095215	-1.4740959362	 0.9567575055	 0.126307
33.8133	106.301	140.1533	197.5262	219.4768	248.6985	298.961	337.9733	355.8128	399.2744	423.1567	502.6807	587.7181	595.7586	751.9326	796.9985	859.933	898.8937	936.1514	944.8841	983.856	1046.9286	1092.0752	1127.2145	1158.9462	1168.1382	1182.0982	1193.8159	1278.3823	1291.7687	1336.2423	1403.3566	1418.8581	1443.2904	1468.4833	1481.3067	1494.9485	1526.169	2351.4175	3046.9981	3054.0589	3091.3064	3093.5689	3124.1707	3134.4693	3140.8569	3183.943	3769.4479
CC(O)(CC1CO1)C#N	C[C@@](O)(C[C@H]1CO1)C#N	
InChI=1S/C6H9NO2/c1-6(8,4-7)2-5-3-9-5/h5,8H,2-3H2,1H3	InChI=1S/C6H9NO2/c1-6(8,4-7)2-5-3-9-5/h5,8H,2-3H2,1H3/t5-,6+/m0/s1
