16
gdb 117124	2.68359	0.90874	0.72353	4.2035	65.96	-0.2864	-0.0575	0.2289	1501.9088	0.121171	-475.034976	-475.02498	-475.024036	-475.071512	34.014	
O	-0.1627270901	 1.4189903764	 0.0772434584	-0.418772
C	 0.0261775153	 0.0159443792	 0.0410595309	-0.075251
C	-1.3638674457	-0.6082823946	 0.0637325561	-0.300784
C	-1.3473424225	-2.1087580623	-0.0109448842	 0.352298
O	-0.3461289785	-2.7789542114	-0.1094188327	-0.308876
C	-2.7074159856	-2.8705426886	 0.0145027131	-0.070709
O	-2.5000640006	-4.2347083739	-0.1661720524	-0.406131
C	-3.4025461733	-2.579523686	 1.2858126366	 0.260277
N	-3.9356253273	-2.3321526951	 2.2807192387	-0.315262
H	 0.7016761784	 1.840134994	 0.0882562914	 0.293837
H	 0.5602471903	-0.3044352824	-0.8649192274	 0.107796
H	 0.6050976546	-0.3441702848	 0.9034672251	 0.110816
H	-1.9053787675	-0.3020559257	 0.9673754221	 0.172582
H	-1.9600969536	-0.2239679481	-0.7752978706	 0.148416
H	-3.330375281	-2.4674744534	-0.799140969	 0.144214
H	-1.5345486528	-4.3511034932	-0.119066826	 0.305549
36.1271	57.8215	98.0247	117.9024	167.4833	247.0739	262.862	323.8009	337.086	421.0038	427.4369	456.6287	557.6446	602.3902	720.8738	791.0552	862.1849	957.4359	998.9173	1056.2323	1072.5726	1106.2799	1151.2793	1206.2649	1243.2355	1259.8844	1305.4414	1341.5038	1362.0624	1430.0707	1445.1179	1471.6329	1524.9157	1810.2327	2354.1473	2995.617	2995.9335	3024.747	3034.5658	3073.3536	3644.8103	3834.1368
OCCC(=O)C(O)C#N	OCCC(=O)[C@@H](O)C#N	
InChI=1S/C5H7NO3/c6-3-5(9)4(8)1-2-7/h5,7,9H,1-2H2	InChI=1S/C5H7NO3/c6-3-5(9)4(8)1-2-7/h5,7,9H,1-2H2/t5-/m0/s1
