12
gdb 133186	3.27472	1.43407	1.00353	3.8927	60.28	-0.2748	-0.0825	0.1923	1066.1839	0.075505	-513.906816	-513.899197	-513.898253	-513.939762	26.834	
C	 0.0191334951	 1.4947947859	 0.0002935496	-0.465543
C	-0.0565903232	 0.0016298464	 0.0000669563	 0.441145
N	-1.1349603001	-0.6423122984	-0.2599742077	-0.348192
C	-1.098779599	-2.0350330857	-0.2335055872	 0.30684
O	-2.0434404125	-2.7481107767	-0.4594194587	-0.308401
C	 0.243698679	-2.5873008233	 0.1071846233	 0.246143
F	 0.3591309244	-3.890957133	 0.1522366732	-0.013634
N	 1.3023283572	-1.9188510941	 0.3619960765	-0.122254
O	 1.1472364702	-0.5354999716	 0.3060821179	-0.240243
H	 0.7625843227	 1.8335185087	-0.7273925567	 0.166219
H	-0.9592255952	 1.9017669917	-0.2489435183	 0.171679
H	 0.3354146713	 1.8548329202	 0.9838264017	 0.166241
73.8126	78.7279	182.4364	311.0969	317.0484	363.0727	426.5353	487.1221	535.4026	605.7628	627.5873	710.2793	793.9072	818.9549	943.0629	992.502	1064.088	1080.7008	1178.399	1286.6779	1404.8855	1416.9633	1465.5164	1472.295	1663.9114	1669.8339	1818.6336	3056.5416	3118.5671	3178.3799
CC1=NC(=O)C(F)=NO1	Cc1nc(=O)c(F)no1	
InChI=1S/C4H3FN2O2/c1-2-6-4(8)3(5)7-9-2/h1H3	InChI=1S/C4H3FN2O2/c1-2-6-4(8)3(5)7-9-2/h1H3
