21
gdb 61638	3.51534	0.83268	0.74594	2.7016	80.11	-0.2494	-0.0277	0.2218	1578.6194	0.178652	-424.214707	-424.204297	-424.203352	-424.251226	37.002	
C	-0.0067864279	 1.3373625802	 0.4891442117	-0.400391
C	 0.0514011454	-0.0974278944	-0.0319428007	 0.042589
O	 0.7014954984	-1.0161821604	 0.8303051616	-0.265192
C	 2.0972381857	-0.9764500174	 0.8025711081	 0.130958
C	 2.8541076679	-0.1298370502	 1.7994394523	-0.320314
C	 2.818373273	-1.6412896989	 1.9363624185	-0.039337
C	 2.0513460957	-2.2879530315	 3.0689962475	-0.396932
C	-1.3401936095	-0.6772559824	-0.2724391694	 0.145517
O	-2.2810312092	-0.0386517659	-0.6634402155	-0.245433
H	 0.9848692118	 1.7935801101	 0.5052534117	 0.126133
H	-0.6619511341	 1.9247665131	-0.1587726917	 0.141926
H	-0.4191737679	 1.3528204069	 1.5021855044	 0.127316
H	 0.5507115797	-0.106058975	-1.019160747	 0.096072
H	 2.5119946044	-1.0765248221	-0.2017875386	 0.084255
H	 3.7713244099	 0.3582610749	 1.4872792509	 0.110252
H	 2.2563633484	 0.4335484105	 2.5078232121	 0.118788
H	 3.7302332038	-2.160832315	 1.6537262872	 0.088004
H	 1.1193620267	-1.753334731	 3.2652263742	 0.127451
H	 1.7934358554	-3.3249681322	 2.8289177948	 0.118883
H	 2.6460892886	-2.2934551238	 3.9884435983	 0.115659
H	-1.4012812161	-1.7679776753	-0.0652627804	 0.093796
35.8023	69.9728	91.5167	126.2605	189.2551	220.1978	253.5639	260.4689	293.3946	368.9122	425.8992	488.1208	511.156	636.9282	753.789	829.9536	832.0663	872.7999	910.7104	923.6009	946.0188	1003.2123	1031.322	1073.3676	1108.2722	1120.1198	1134.9325	1142.937	1155.6548	1188.2698	1196.8682	1252.7667	1326.9822	1333.3077	1376.2107	1387.6092	1402.4871	1419.8161	1422.1615	1482.8405	1486.6467	1494.3892	1498.3086	1505.2297	1840.7235	2903.7375	2933.7824	3036.9903	3052.2761	3084.2648	3094.9162	3123.0816	3128.7768	3130.9718	3140.4386	3144.2792	3220.6202
CC(OC1CC1C)C=O	C[C@@H](O[C@H]1C[C@H]1C)C=O	
InChI=1S/C7H12O2/c1-5-3-7(5)9-6(2)4-8/h4-7H,3H2,1-2H3	InChI=1S/C7H12O2/c1-5-3-7(5)9-6(2)4-8/h4-7H,3H2,1-2H3/t5-,6-,7+/m1/s1
