19
gdb 127100	2.68108	1.4591	1.05526	5.2068	78.86	-0.2164	0.0117	0.2281	1173.8811	0.159789	-415.37313	-415.363945	-415.363001	-415.407108	33.068	
C	 0.6579799859	 0.1707180969	-1.0277073068	-0.340999
N	-0.0869309527	 0.0862397168	 0.2304264234	-0.168866
C	 0.0158378562	 1.3095202884	 1.0178517881	-0.331315
C	-1.3865320036	-0.4135733587	 0.1268702034	 0.36423
C	-2.6392556493	 0.1440806586	 0.2960384225	-0.153115
N	-3.5767666056	-0.8276351893	 0.1365959775	-0.191105
N	-2.9853798663	-1.9548296448	-0.1294194012	-0.160603
N	-1.6489256987	-1.7263290011	-0.1273278538	-0.009948
C	-0.7223603124	-2.8202973465	-0.3145330602	-0.335177
H	 1.7095891984	 0.3766094024	-0.8073459823	 0.127605
H	 0.6039726249	-0.7756217417	-1.5685512137	 0.130113
H	 0.2767014626	 0.9668989817	-1.6878426041	 0.117223
H	-0.4128162127	 2.1880428783	 0.506802381	 0.112557
H	-0.4987709912	 1.1759050938	 1.9716486953	 0.140177
H	 1.0715749295	 1.517026955	 1.2161388724	 0.126499
H	-2.9077445139	 1.1618367439	 0.5257705254	 0.115229
H	-0.4029597151	-2.9069447762	-1.3585027492	 0.141776
H	 0.1543225212	-2.658500629	 0.3169147982	 0.151065
H	-1.2307395973	-3.7396673884	-0.0235535759	 0.164652
68.149	154.5435	161.3219	181.0721	216.1951	221.6832	250.0748	308.6776	371.3932	415.2996	504.9872	613.9748	704.8776	732.7334	739.2186	822.3221	948.5254	987.7263	1030.7088	1069.4523	1122.7137	1142.2256	1152.7379	1176.2399	1181.7916	1227.7547	1266.517	1298.1316	1318.343	1373.0419	1435.005	1446.0886	1465.9363	1476.4772	1484.5579	1492.7783	1496.562	1500.767	1511.9295	1515.2605	1602.0356	2966.4361	2976.2061	3042.0747	3075.117	3080.9417	3113.6835	3128.7897	3132.9814	3160.359	3272.7723
CN(C)C1=CN=NN1C	CN(C)c1cnnn1C	
InChI=1S/C5H10N4/c1-8(2)5-4-6-7-9(5)3/h4H,1-3H3	InChI=1S/C5H10N4/c1-8(2)5-4-6-7-9(5)3/h4H,1-3H3
