16
gdb 47230	2.52037	1.81197	1.26309	1.5048	70.54	-0.2469	-0.0323	0.2146	983.9053	0.125373	-437.883628	-437.876161	-437.875217	-437.915911	28.327	
O	-0.0033079326	 0.0593065881	 0.5730343928	-0.31569
C	 0.0298447617	 1.1729165159	 0.0960547547	 0.355189
C	-1.3203969147	 1.8241943468	-0.2255839581	-0.179543
O	-1.34008133	 3.1581568877	-0.733365742	-0.233508
C	-0.748657213	 3.3915447253	-1.9470405045	 0.082938
N	 0.4631659404	 3.2562474726	-2.2618093961	-0.214046
C	 1.4823908806	 2.8522082926	-1.3553917296	 0.02015
C	 1.5436682389	 3.3318817119	 0.0651817188	-0.317581
C	 1.3116815372	 1.8506610624	-0.1982257836	-0.140938
H	-1.8343451188	 1.1470680068	-0.9206718579	 0.142306
H	-1.9034120649	 1.849193759	 0.6980625008	 0.153317
H	-1.4529518093	 3.7984018546	-2.672212819	 0.128956
H	 2.4373401296	 2.7448914745	-1.8582075874	 0.117151
H	 2.511435912	 3.605043198	 0.4696900646	 0.133098
H	 0.7098805839	 3.9135180797	 0.4346841069	 0.150693
H	 2.1542992489	 1.1899231942	-0.0266363705	 0.117507
61.1207	175.1472	202.2857	297.1309	307.2708	399.2141	441.37	570.0573	585.2021	626.7375	723.8562	754.7212	811.3652	842.7455	906.4698	952.5747	960.2075	984.1171	1021.1326	1022.9047	1078.3477	1130.6631	1147.5633	1177.4633	1218.3377	1283.5813	1297.5811	1364.7551	1383.0936	1398.6455	1412.1316	1456.5709	1474.2217	1749.059	1786.3529	3027.9133	3111.8887	3141.917	3152.9842	3164.0933	3179.0127	3250.774
O=C1COC=NC2CC12	O=C1COC=N[C@H]2C[C@@H]12	
InChI=1S/C6H7NO2/c8-6-2-9-3-7-5-1-4(5)6/h3-5H,1-2H2	InChI=1S/C6H7NO2/c8-6-2-9-3-7-5-1-4(5)6/h3-5H,1-2H2/t4-,5+/m1/s1
