16
gdb 44729	2.41526	1.73337	1.19688	3.8326	74.51	-0.246	0.0221	0.2681	1029.9369	0.124306	-400.717189	-400.709348	-400.708404	-400.749835	30.034	
O	-0.1507728015	 0.0425943397	 0.0173602726	-0.352275
C	-0.0622104258	 1.2364210583	-0.0418209192	 0.434842
N	-1.0107320347	 2.2431280496	-0.1379287108	-0.323584
C	-0.058437212	 3.3495668677	-0.0542360845	 0.020901
C	 0.3025795063	 3.8056487577	 1.3852203686	-0.256006
C	 1.4772492612	 2.7620416708	 1.4216623556	-0.180654
C	 1.5076171193	 1.792359768	 2.4959103679	 0.337997
C	 1.513912762	 0.9951239388	 3.3956221606	-0.455019
C	 1.0792774357	 2.2772856402	-0.0229664746	-0.215099
H	-1.9940534615	 2.2133842493	 0.0967659131	 0.247532
H	-0.1592266945	 4.1054468388	-0.8332827118	 0.091866
H	 0.6518845477	 4.8377578174	 1.4549247947	 0.114424
H	-0.4845090673	 3.6431686836	 2.1229467141	 0.115695
H	 2.4378435347	 3.2828397931	 1.3705022164	 0.11558
H	 1.5223949013	 0.2775323226	 4.178272661	 0.20061
H	 1.8718466392	 2.1822249745	-0.7617093137	 0.103191
70.3157	105.3625	191.7825	248.4857	377.7558	445.9025	458.4977	502.486	537.8381	620.4469	637.1301	638.6782	720.1739	772.6331	812.3682	871.7354	873.3635	926.8891	998.6009	1006.5191	1036.8236	1082.89	1121.5651	1139.9239	1163.4152	1169.8358	1226.4905	1262.9323	1277.8116	1327.7808	1346.3393	1365.5617	1473.9502	1897.4853	2237.3695	3058.6654	3076.5824	3108.0616	3137.5812	3147.6747	3504.4722	3583.7176
O=C1NC2CC(C#C)C12	O=C1N[C@H]2C[C@@H](C#C)[C@@H]12	
InChI=1S/C7H7NO/c1-2-4-3-5-6(4)7(9)8-5/h1,4-6H,3H2,(H,8,9)	InChI=1S/C7H7NO/c1-2-4-3-5-6(4)7(9)8-5/h1,4-6H,3H2,(H,8,9)/t4-,5+,6-/m1/s1
