17
gdb 67694	2.30552	1.88224	1.44874	3.6849	72.29	-0.2391	-0.0018	0.2374	966.9905	0.13634	-421.821209	-421.813766	-421.812822	-421.852999	28.967	
C	-0.0938564762	 1.5135991658	 0.0328750674	-0.514093
C	 0.0472418805	 0.0236569782	-0.0173024999	 0.276577
C	 0.0466527476	-0.9007136974	-1.1583017174	 0.069925
O	 1.1339450754	-1.7885309598	-1.1786202302	-0.265821
C	 1.8330811255	-1.6212385099	 0.0627760901	-0.093452
C	 0.8347725572	-0.8962873195	 0.9716398887	-0.257226
C	-0.4795587856	-1.7064590897	 1.1047329817	 0.455532
O	-0.9171123257	-2.4042526999	 1.978070951	-0.34401
C	-1.0692578734	-1.0926660934	-0.1137734709	-0.284362
H	 0.8740862729	 2.0035404378	-0.1217115187	 0.133397
H	-0.7752411331	 1.8695999437	-0.7457328716	 0.131072
H	-0.4868147287	 1.8444719778	 1.0000079965	 0.134408
H	-0.2806807883	-0.6004560409	-2.1472600271	 0.119405
H	 2.1166175482	-2.6090556267	 0.4373830592	 0.129178
H	 2.7430297925	-1.023664583	-0.0924493837	 0.103257
H	 1.2425056741	-0.4785318985	 1.8911518093	 0.099651
H	-2.1178718828	-1.0111736946	-0.3765296445	 0.106561
112.3668	191.1308	218.8928	236.223	280.7758	424.4251	469.8245	558.5711	590.9928	678.8216	712.2266	734.6446	805.0004	860.2454	883.8213	924.1456	964.9131	989.8163	1002.8016	1015.5002	1051.303	1084.329	1090.8944	1136.233	1151.0594	1202.7041	1229.3551	1236.4679	1257.3983	1307.6677	1366.8242	1416.7999	1463.4279	1487.0731	1495.1607	1516.9033	1871.8231	2999.5448	3029.9414	3088.0928	3092.7147	3105.6063	3136.8527	3181.9236	3191.1071
CC12C3OCC1C(=O)C23	C[C@@]12[C@H]3OC[C@@H]1C(=O)[C@@H]23	
InChI=1S/C7H8O2/c1-7-3-2-9-6(7)4(7)5(3)8/h3-4,6H,2H2,1H3	InChI=1S/C7H8O2/c1-7-3-2-9-6(7)4(7)5(3)8/h3-4,6H,2H2,1H3/t3-,4-,6+,7-/m1/s1
