19
gdb 37408	3.5937	1.8168	1.73015	1.5752	76.94	-0.2365	0.0844	0.3209	872.1876	0.163484	-385.853116	-385.847279	-385.846335	-385.882849	26.387	
C	-0.0526405134	 1.5243659244	 0.1072197183	-0.291689
C	 1.2891743791	 0.8374061509	 0.0121556653	-0.062835
C	 0.0054245551	 0.0204448815	 0.0142600251	-0.047438
C	-0.0194294879	-0.58394456	-1.4021976657	 0.074187
O	-0.2014043815	 0.493455407	-2.354282413	-0.283416
C	 1.1699296278	 0.7968194087	-2.671635753	 0.068537
C	 1.6720938104	-0.566402474	-3.1997922253	-0.244597
C	 1.4661785501	-0.946741352	-1.7137787214	-0.064666
C	 1.9335412596	 0.5008174504	-1.3280915067	-0.031324
H	-0.3031820008	 1.9387101539	 1.0789060657	 0.101991
H	-0.4382512609	 2.0754469631	-0.7389761341	 0.132773
H	 1.9414640234	 0.8706012205	 0.8784301438	 0.081275
H	-0.3030816914	-0.592597824	 0.854032525	 0.079898
H	-0.77651132	-1.3519575218	-1.5678833915	 0.072235
H	 1.2258471266	 1.734813332	-3.2228125995	 0.077366
H	 1.05691677	-1.0434555065	-3.9655699373	 0.099814
H	 2.727134486	-0.5703381091	-3.4821723269	 0.098257
H	 1.8743222784	-1.8418632168	-1.2445422773	 0.068783
H	 3.0059075793	 0.6822987616	-1.3962990714	 0.07085
262.9168	317.0676	437.5242	497.9577	527.6334	620.7647	669.7182	737.9114	777.4811	792.4562	831.1278	858.1885	866.3177	872.008	908.5417	919.3363	935.3967	960.0345	980.1279	1011.1162	1019.8716	1055.2031	1064.2564	1077.9626	1089.3857	1097.1073	1103.6146	1116.5772	1179.608	1194.2372	1215.3375	1239.7902	1243.6164	1274.6018	1285.7667	1316.4108	1326.9035	1350.464	1378.5475	1477.9756	1489.7203	3068.2303	3101.9252	3115.2944	3121.3867	3130.9786	3133.4945	3138.353	3157.7341	3169.5206	3243.6481
C1C2C1C1OC3CC1C23	C1[C@H]2[C@@H]1[C@H]1O[C@@H]3C[C@H]1[C@H]23	
InChI=1S/C8H10O/c1-3-4(1)8-5-2-6(9-8)7(3)5/h3-8H,1-2H2	InChI=1S/C8H10O/c1-3-4(1)8-5-2-6(9-8)7(3)5/h3-8H,1-2H2/t3-,4+,5-,6+,7-,8+/m0/s1
