16
gdb 54018	2.09419	1.53295	1.07279	3.6256	67.95	-0.2769	-0.0437	0.2332	1152.7138	0.120035	-475.095252	-475.085264	-475.084319	-475.1312	33.743	
C	 0.2060033421	 1.2907544665	-0.7138643962	-0.506971
C	-0.0315469502	-0.1650549857	-0.3714888752	 0.42082
O	 0.8262643114	-1.013903696	-0.4698098832	-0.328977
N	-1.3072641542	-0.5363370898	 0.0757003137	-0.193787
C	-2.4379306824	 0.2601345317	 0.124181983	 0.159021
O	-3.5262879535	-0.1634356423	 0.4301417494	-0.302544
C	-1.4657113515	-1.9603965158	 0.509033974	 0.416417
C	-1.8763200398	-2.8810381092	-0.5987503464	-0.486481
O	-1.2734154977	-2.2415102408	 1.6487262755	-0.248836
H	 1.253294108	 1.3921040544	-0.9967667366	 0.162974
H	-0.4231481731	 1.6136781524	-1.5490565095	 0.15354
H	-0.0054523145	 1.9421878533	 0.1391304158	 0.157709
H	-2.2520235128	 1.3107912504	-0.1505422803	 0.108175
H	-1.1261296089	-2.8423871261	-1.3944455683	 0.16593
H	-1.9717703381	-3.8983012262	-0.2194027524	 0.156278
H	-2.8318942047	-2.5403903569	-1.0101358432	 0.166734
32.6792	90.0385	129.8539	158.9656	162.3844	171.3103	205.4221	244.8018	346.4654	435.4289	496.533	522.3402	553.2604	619.07	654.6445	720.021	932.9395	995.7116	1024.0133	1029.1009	1056.5473	1084.5805	1164.1697	1290.0333	1311.3331	1381.8913	1392.5752	1437.495	1464.0295	1471.9219	1475.0098	1482.8484	1771.3322	1807.3232	1895.9946	3008.453	3049.6065	3051.0751	3117.3923	3120.9394	3164.6572	3164.8956
CC(=O)N(C=O)C(C)=O	CC(=O)N(C=O)C(=O)C	
InChI=1S/C5H7NO3/c1-4(8)6(3-7)5(2)9/h3H,1-2H3	InChI=1S/C5H7NO3/c1-4(8)6(3-7)5(2)9/h3H,1-2H3
