18
gdb 17336	3.48251	2.18208	1.77092	1.844	70.26	-0.2509	0.0881	0.339	819.7997	0.154796	-347.791256	-347.78442	-347.783476	-347.821732	27.77	
C	-0.0739691782	 1.5204992774	 0.0446977471	-0.495014
C	 0.1546509569	 0.0369696322	-0.0418889562	 0.420073
O	-0.538039377	-0.7731467928	 0.9293255553	-0.298671
C	 0.8986215419	-0.7718262571	 0.9427879679	-0.019401
C	 1.5424140276	-1.9673784948	 0.2556441941	-0.260306
C	 1.0931162391	-1.8963188995	-1.2083526876	-0.041594
C	-0.3707689112	-1.9884114142	-1.550970089	-0.284769
C	 0.2744446806	-0.6309802876	-1.4015278483	-0.103256
H	 0.706125832	 2.0648659515	-0.4983613936	 0.121615
H	-1.0396605949	 1.7902220827	-0.3966476922	 0.129677
H	-0.0711313054	 1.8507836935	 1.0863014169	 0.128237
H	 1.3450860444	-0.3559422833	 1.8447685409	 0.087068
H	 2.6325751135	-1.8688168823	 0.3185261192	 0.102821
H	 1.2728900564	-2.9101147379	 0.7447672649	 0.113876
H	 1.8034506402	-2.2113006427	-1.9648692158	 0.083613
H	-0.6187168712	-2.3107070725	-2.5568913521	 0.103315
H	-1.0710757523	-2.2909927254	-0.7825019854	 0.133833
H	 0.3971753376	 0.0086044928	-2.2677922561	 0.078884
189.0132	205.722	263.1044	305.9363	357.6032	443.5283	525.9507	594.0549	695.7375	713.1848	788.4481	803.8469	831.601	863.7682	891.5124	950.5729	961.291	1010.6853	1024.093	1034.7139	1084.1675	1102.8591	1106.4772	1112.9652	1117.6191	1197.259	1209.9811	1228.6077	1287.8965	1316.7924	1347.2688	1384.713	1410.4053	1448.5034	1472.7981	1480.2983	1485.8917	1497.88	3034.3242	3036.9892	3075.1377	3096.0715	3121.7305	3123.8646	3136.7646	3164.0552	3179.1014	3232.7557
CC12OC1CC1CC21	C[C@]12O[C@H]1C[C@H]1C[C@@H]21	
InChI=1S/C7H10O/c1-7-5-2-4(5)3-6(7)8-7/h4-6H,2-3H2,1H3	InChI=1S/C7H10O/c1-7-5-2-4(5)3-6(7)8-7/h4-6H,2-3H2,1H3/t4-,5-,6+,7-/m1/s1
