14
gdb 13838	4.1556	1.74364	1.37852	3.2118	57.35	-0.248	0.0115	0.2595	861.8555	0.108679	-415.904932	-415.897665	-415.896721	-415.937285	26.041	
N	 0.4897293345	 0.149777877	 0.8850496608	-0.517917
C	-0.1355139391	 0.4170225945	-0.2864383302	 0.366774
O	 0.2195213802	 1.2600099631	-1.0871637541	-0.362737
C	-1.3932780996	-0.4143733879	-0.5617903677	-0.005853
C	-1.3699511586	-1.1109825911	-1.9496635009	-0.191086
N	-1.3308874447	-2.5505573402	-1.6431416259	-0.247366
C	-1.4296220838	-2.6464005662	-0.3881222772	 0.115457
O	-1.5315719351	-1.516896777	 0.3728915823	-0.244595
H	 1.3237351286	 0.6618129953	 1.1193339604	 0.266588
H	 0.1580490145	-0.5858809193	 1.4844321957	 0.272396
H	-2.2561199385	 0.2438106601	-0.4318044651	 0.129252
H	-2.2618896375	-0.8892862716	-2.5430864445	 0.126426
H	-0.4993013068	-0.8071122231	-2.5353750333	 0.147135
H	-1.4500335141	-3.5685644136	 0.1814372398	 0.145524
51.6761	81.6391	230.7696	291.3112	322.4103	460.5908	476.8636	538.8773	609.6868	694.4353	779.023	819.9404	886.2577	950.8865	972.8871	992.9563	1014.6446	1058.8757	1087.3395	1103.5573	1192.6922	1278.1454	1311.4117	1322.735	1345.7945	1381.115	1505.404	1598.4262	1717.9606	1803.0395	3060.0536	3083.8851	3109.7719	3220.5554	3604.7912	3744.2123
NC(=O)C1CN=CO1	NC(=O)[C@H]1CN=CO1	
InChI=1S/C4H6N2O2/c5-4(7)3-1-6-2-8-3/h2-3H,1H2,(H2,5,7)	InChI=1S/C4H6N2O2/c5-4(7)3-1-6-2-8-3/h2-3H,1H2,(H2,5,7)/t3-/m1/s1
