14
gdb 10236	2.35334	1.99113	1.19855	2.48	69.49	-0.2501	-0.0262	0.224	991.0232	0.102069	-345.344604	-345.335485	-345.334541	-345.379141	31.824	
C	-0.2657431369	 1.4634042035	-0.0413680496	-0.48452
C	 0.0525186813	-0.0094282013	 0.1026245461	 0.391164
O	 0.3094863501	-0.5371148272	 1.1487862728	-0.262671
C	 0.0539461527	-0.8196040597	-1.2456617936	-0.471817
C	 0.6015760893	-2.1629025503	-1.0837251695	 0.360991
C	 1.0657038286	-3.2622618893	-0.9610887598	-0.419003
C	-1.3002057621	-0.8329079451	-1.8058913865	 0.333986
C	-2.4200547273	-0.8258127465	-2.2401802671	-0.458254
H	 0.5603053974	 1.963980145	-0.5610271679	 0.146041
H	-1.165466942	 1.6110687843	-0.6442237792	 0.158207
H	-0.3893623037	 1.9086958428	 0.9459659195	 0.149435
H	 0.6993688368	-0.2517673782	-1.9340354761	 0.146572
H	 1.4712530677	-4.2366231441	-0.8428544394	 0.202214
H	-3.407024732	-0.8353643038	-2.6326788297	 0.207654
28.1461	112.8476	129.6186	147.6518	159.2264	328.9955	332.2739	399.1061	415.7417	553.8273	568.5298	610.2225	626.0324	641.0163	654.0956	657.9074	780.4295	933.0794	962.7382	1024.0726	1075.4706	1164.0168	1230.969	1301.4102	1381.5373	1464.186	1474.3968	1845.4377	2237.7037	2252.5734	2987.6663	3041.3611	3112.5053	3161.6026	3501.8455	3504.921
CC(=O)C(C#C)C#C	CC(=O)C(C#C)C#C	
InChI=1S/C7H6O/c1-4-7(5-2)6(3)8/h1-2,7H,3H3	InChI=1S/C7H6O/c1-4-7(5-2)6(3)8/h1-2,7H,3H3
