18
gdb 121706	6.60704	0.60413	0.55934	6.4267	73.06	-0.2516	-0.0295	0.2221	1938.2133	0.144308	-476.256006	-476.245557	-476.244613	-476.293954	34.519	
C	 0.0844454541	 1.4757998209	 0.0088807159	-0.385711
C	 0.0157703548	-0.0406460391	 0.0018135114	-0.031446
O	-1.3482440039	-0.42543852	 0.012601749	-0.216191
C	-1.5300244088	-1.8021356493	 0.007232432	-0.179455
C	-3.0312967759	-2.113857345	 0.0200202075	 0.401478
O	-3.8956252013	-1.2854728919	 0.0334539714	-0.272169
N	-3.2621391283	-3.5028952073	 0.0139996609	-0.355481
C	-4.4859964797	-4.1682181994	 0.0224338587	 0.168759
O	-5.5739373571	-3.6660088151	 0.0363709341	-0.249209
H	 1.1267834861	 1.8077777185	 0.0008482523	 0.116648
H	-0.4197515539	 1.8856966235	-0.870321066	 0.135188
H	-0.4032337488	 1.8766938286	 0.9014498073	 0.135201
H	 0.5162399244	-0.4504442099	-0.8919256692	 0.089031
H	 0.5328097591	-0.4594680749	 0.8818299014	 0.089042
H	-1.0791173135	-2.2752594678	-0.8858415262	 0.106855
H	-1.0622636616	-2.2844089815	 0.8866429688	 0.106922
H	-2.4477697088	-4.1010855937	 0.0021491189	 0.255678
H	-4.3189754769	-5.2654645965	 0.0139018219	 0.084858
21.2517	44.8711	86.7156	94.977	125.0124	203.5083	215.982	245.2096	286.0206	326.4016	478.3364	555.6224	573.2763	627.1112	805.7977	821.4696	895.5438	954.9835	1021.9604	1035.1758	1046.2178	1092.0822	1150.9267	1162.0634	1187.2287	1204.2608	1260.9666	1296.3599	1380.4021	1405.0448	1437.5744	1447.3019	1482.9365	1494.9101	1500.8355	1508.4985	1533.2411	1827.7286	1888.9239	2917.1091	2922.9617	2943.4375	2955.9239	2980.6319	3048.6726	3123.4452	3128.0724	3596.8797
CCOCC(=O)NC=O	CCOCC(=O)NC=O	
InChI=1S/C5H9NO3/c1-2-9-3-5(8)6-4-7/h4H,2-3H2,1H3,(H,6,7,8)	InChI=1S/C5H9NO3/c1-2-9-3-5(8)6-4-7/h4H,2-3H2,1H3,(H,6,7,8)
