21
gdb 90224	2.50823	1.65409	1.50876	1.6575	80.83	-0.2268	0.0611	0.2879	1029.7013	0.182713	-387.018931	-387.010867	-387.009923	-387.051154	32.448	
C	-0.7297438546	 1.2292588991	-0.015935455	-0.409208
C	 0.0294261513	-0.0888388977	-0.0218491387	-0.03794
C	 1.2584171911	-0.2178102199	-1.0131650174	-0.324947
C	 2.1697757663	-0.6152971107	 0.1814622215	 0.204314
C	 3.0067814627	 0.4450921507	 0.9552084783	-0.293618
C	 1.807382497	 0.6340728251	 1.9651747345	-0.306884
C	 1.0163603941	-0.4138328255	 1.140625652	 0.395564
O	 1.0426925614	-1.778742763	 1.6121567335	-0.340642
C	 2.1507899494	-2.0674360794	 0.6972071055	-0.151049
H	-0.0547326999	 2.0841965966	 0.1035430195	 0.112164
H	-1.2705151021	 1.3704134501	-0.9582595432	 0.116135
H	-1.4606083639	 1.2637086693	 0.7992592871	 0.12038
H	-0.6682592103	-0.9234614043	-0.1345278142	 0.086501
H	 1.1539100662	-0.9609765748	-1.8085531245	 0.101254
H	 1.5417707164	 0.7343483268	-1.4725492341	 0.100247
H	 3.9353586372	 0.0747514217	 1.3983022583	 0.103923
H	 3.2429891103	 1.3368558268	 0.3688441695	 0.103381
H	 2.0085868411	 0.3012050537	 2.9852856163	 0.11571
H	 1.3820031849	 1.6403347367	 2.0023726226	 0.103142
H	 1.8762426642	-2.8351533015	-0.0376185272	 0.100636
H	 3.0449510973	-2.3987537195	 1.2403926358	 0.100937
83.8127	203.0179	233.8989	244.8853	293.7658	340.7294	355.1046	421.4455	540.9845	633.1869	700.5702	700.9663	715.7524	810.8073	851.801	863.9052	887.9418	901.0895	914.9797	952.5619	967.8009	1003.6703	1017.7927	1085.7372	1134.8577	1145.5145	1166.5842	1189.7421	1194.4139	1224.4931	1229.1382	1251.6641	1259.1464	1276.2336	1281.9253	1282.5778	1339.4149	1353.1734	1410.2311	1457.648	1468.4426	1479.6995	1494.6132	1498.5549	1514.4312	3004.1539	3025.4364	3045.0882	3051.0331	3052.8983	3062.2874	3064.1915	3091.583	3095.3145	3101.1944	3103.2959	3126.5381
CC1CC23CCC12OC3	C[C@H]1C[C@@]23CC[C@@]12OC3	
InChI=1S/C8H12O/c1-6-4-7-2-3-8(6,7)9-5-7/h6H,2-5H2,1H3	InChI=1S/C8H12O/c1-6-4-7-2-3-8(6,7)9-5-7/h6H,2-5H2,1H3/t6-,7+,8+/m0/s1
