14
gdb 27604	3.54775	1.20722	0.90073	3.0858	82.41	-0.2341	-0.0442	0.19	1198.6261	0.101698	-399.57562	-399.568123	-399.567179	-399.607474	28.966	
O	 0.1027016562	 1.3585460957	 0.1269790095	-0.435409
C	 0.0683675192	 0.0040338668	 0.0304269194	 0.362965
C	 0.0734050535	-0.6837406929	-1.1760956742	-0.334385
C	 0.0356167762	-2.0846546927	-1.1570831227	 0.126399
C	-0.0056335396	-2.7221203709	 0.0925274461	-0.081833
N	-0.0104376193	-2.061907732	 1.2493625463	-0.256275
C	 0.0256050128	-0.7327648873	 1.2205402934	-0.046937
C	 0.0388428386	-2.8398230552	-2.3630612181	 0.226218
C	 0.0413510779	-3.4842901965	-3.3802258204	-0.405437
H	 0.1297609182	 1.744163448	-0.7552914884	 0.302255
H	 0.1059386468	-0.1541232603	-2.1236424412	 0.105298
H	-0.0355436699	-3.8061312574	 0.1422818871	 0.11708
H	 0.0212945487	-0.2042467356	 2.1702117452	 0.121431
H	 0.0434400608	-4.0551623097	-4.2756857521	 0.198631
139.6399	142.1377	230.8363	358.5034	372.2872	382.0895	474.8993	493.3353	544.7188	557.8459	590.8322	635.2222	652.273	718.1857	729.7105	902.4928	916.0022	958.3672	983.42	1031.5364	1169.3355	1185.2959	1211.3971	1306.3031	1325.0566	1355.153	1459.4844	1505.8198	1608.8121	1631.9284	2228.0672	3167.4574	3173.3885	3179.4269	3501.8116	3816.9999
OC1=CC(=CN=C1)C#C	Oc1cc(cnc1)C#C	
InChI=1S/C7H5NO/c1-2-6-3-7(9)5-8-4-6/h1,3-5,9H	InChI=1S/C7H5NO/c1-2-6-3-7(9)5-8-4-6/h1,3-5,9H
