15
gdb 27198	3.41089	1.64363	1.11689	2.7851	74.79	-0.1941	0.0011	0.1952	1024.3559	0.115343	-416.849508	-416.842317	-416.841372	-416.881277	27.365	
C	-0.0211270626	 1.5199026133	 0.0763795378	-0.50918
C	 0.0081802449	 0.0343257465	-0.0475587591	 0.179461
C	-0.0033178564	-0.8136412737	-1.1384628186	 0.177696
N	-0.0424275317	-0.8344367117	-2.5362952445	-0.352207
C	-0.0221367981	-2.0922521385	-2.8115981035	 0.037395
O	 0.0278556911	-2.9782319763	-1.751554219	-0.22663
C	 0.0399583374	-2.1418474465	-0.6680942012	 0.29438
C	 0.0790994238	-2.1571954007	 0.6992553219	-0.246277
N	 0.0582099536	-0.8096974559	 1.0449540951	-0.300835
H	 0.8738989259	 1.9132419379	 0.5744811642	 0.128566
H	-0.0682412057	 1.963350141	-0.9203249812	 0.15491
H	-0.8938522754	 1.872510543	 0.6401217502	 0.128257
H	-0.0395264685	-2.5526504516	-3.788048085	 0.143422
H	 0.1175082912	-2.9323744253	 1.4434522022	 0.13069
H	 0.0776655504	-0.4844546414	 1.9963403704	 0.260353
82.8548	184.6099	243.0722	248.8986	368.5586	457.123	537.5714	600.1967	606.6508	625.5576	651.8462	705.4213	768.872	810.1015	849.1459	920.7956	971.2712	1055.7007	1059.4211	1092.4235	1110.8765	1194.6969	1273.1772	1312.9199	1318.4587	1416.0315	1440.6714	1461.1981	1481.875	1500.9877	1563.9675	1597.5396	1679.2326	3016.3136	3060.7904	3130.2932	3268.0288	3288.4389	3674.2942
CC1=C2N=COC2=CN1	Cc1c2ncoc2c[nH]1	
InChI=1S/C6H6N2O/c1-4-6-5(2-7-4)9-3-8-6/h2-3,7H,1H3	InChI=1S/C6H6N2O/c1-4-6-5(2-7-4)9-3-8-6/h2-3,7H,1H3
