18
gdb 124722	2.41613	0.70261	0.6313	5.2278	83.86	-0.2135	-0.0739	0.1397	1871.5722	0.14289	-435.263652	-435.251626	-435.250681	-435.305012	38.685	
C	 0.5831007811	 1.2492581694	-0.1795548513	-0.482174
C	 0.0775047922	 0.4578435652	 0.9783389816	-0.102085
N	-0.1213640296	-0.8109209549	-2.9855987549	-0.698247
H	 0.6386397033	-1.1145948182	-3.5886473376	 0.243435
H	-0.5065459692	-1.6574315921	-2.574743192	 0.246748
H	-0.8417357971	-0.4494387176	-3.6052061403	 0.244179
C	 0.7898010985	-0.0475513902	 1.9946745612	 0.267087
C	 0.2347349848	-0.8405838863	 3.1434891819	 0.267922
O	-0.9287348144	-1.1250437424	 3.3533805621	-0.348399
C	 1.4519421869	-1.1666575683	 3.9071036168	-0.115442
N	 2.521079821	-0.6838180779	 3.3445641207	-0.146333
N	 2.155342988	 0.0431697989	 2.255354565	-0.337744
H	 1.6424051693	 1.5059007586	-0.0866331714	 0.106881
H	 0.4343969603	 0.6925244924	-1.1171814162	 0.196056
H	 0.0186716183	 2.1851610736	-0.2764757199	 0.136543
H	-0.9872855809	 0.2379817048	 1.0188085336	 0.122436
H	 1.5149226979	-1.7469360811	 4.8157985902	 0.130539
H	 2.8764539097	 0.2353295861	 1.5820694406	 0.268599
15.6549	19.7438	35.3092	94.3308	131.2092	140.408	156.2311	174.5155	210.6141	238.2692	281.0835	348.3553	423.7117	572.9311	625.9403	641.198	764.6529	769.4564	835.0452	857.546	892.8389	1003.2365	1051.8465	1063.3201	1103.3901	1104.9815	1147.7989	1246.8126	1298.1339	1359.8251	1405.5038	1422.7368	1480.1055	1499.67	1566.2524	1679.7857	1680.9591	1717.574	1794.361	2992.3076	3057.1159	3101.1447	3161.933	3248.4873	3466.2418	3583.1693	3583.9031	3671.7358
CC([NH3+])C1=C([O-])C=NN1	CC=C1C(=O)C=NN1.N	
InChI=1S/C5H9N3O/c1-3(6)5-4(9)2-7-8-5/h2-3,9H,6H2,1H3,(H,7,8)	InChI=1S/C5H6N2O.H3N/c1-2-4-5(8)3-6-7-4;/h2-3,7H,1H3;1H3
