21
gdb 114393	3.86233	0.95115	0.92285	2.1974	79.79	-0.2381	0.074	0.3121	1380.4736	0.180308	-424.179412	-424.16992	-424.168976	-424.213221	36.172	
C	 0.1986996172	 1.2888522065	 0.1409386771	-0.239398
O	-0.2132950294	-0.0179700966	-0.1878733149	-0.247179
C	 0.5051085367	-0.5703644442	-1.264046414	 0.134073
C	 1.9150875595	-1.1405555809	-0.8700243907	-0.2874
C	 1.4065599371	-2.5554084866	-1.1708271103	-0.127082
C	 0.0208540687	-1.990359229	-1.5400596454	-0.121168
C	 0.8612815951	-2.6827564855	-2.5724985249	 0.406491
C	 1.4562341561	-2.0352487871	-3.803650495	-0.463138
O	 0.3202118015	-3.9591522684	-2.8348829583	-0.47391
H	 1.2492452837	 1.3245214901	 0.4674819679	 0.10543
H	 0.081335636	 1.9771013858	-0.711194532	 0.10399
H	-0.4343870792	 1.6318395878	 0.9626540333	 0.127494
H	 0.489052505	 0.1283689419	-2.1161190626	 0.057511
H	 2.7931772643	-0.7899811409	-1.4224740968	 0.089107
H	 2.0794277962	-0.9852465057	 0.198780349	 0.114441
H	 1.6380002138	-3.4467652741	-0.599199744	 0.082761
H	-0.9667263938	-2.3589906312	-1.2939283308	 0.101298
H	 1.846874064	-1.0340605599	-3.6089045977	 0.123313
H	 2.285980948	-2.6415333806	-4.1885216725	 0.105367
H	 0.6999514408	-1.9624063451	-4.5914642391	 0.128377
H	 1.0530625985	-4.5465959063	-3.0508986084	 0.279621
99.8623	131.0996	174.2587	210.3786	232.4707	262.0234	282.7319	306.4364	342.4492	414.1355	467.8925	478.5328	511.7645	669.0088	748.9876	839.5503	858.7466	878.4495	954.2647	974.6572	981.0347	992.7973	1015.005	1063.0987	1084.0097	1092.8727	1143.0953	1143.5108	1184.1359	1189.0268	1222.2261	1240.2524	1246.1106	1273.6494	1287.64	1318.7526	1392.6328	1416.1058	1437.087	1473.2677	1482.2263	1488.164	1490.6768	1502.1266	1509.8169	2961.1569	2974.4807	3018.9867	3026.7152	3043.4941	3090.669	3109.4935	3115.6069	3128.7362	3174.3541	3202.1163	3793.0216
COC1CC2C1C2(C)O	CO[C@H]1C[C@H]2[C@@H]1[C@]2(C)O	
InChI=1S/C7H12O2/c1-7(8)4-3-5(9-2)6(4)7/h4-6,8H,3H2,1-2H3	InChI=1S/C7H12O2/c1-7(8)4-3-5(9-2)6(4)7/h4-6,8H,3H2,1-2H3/t4-,5-,6-,7+/m0/s1
