17
gdb 84515	3.04723	1.66947	1.43468	2.2532	71.91	-0.2245	-0.0053	0.2191	943.7574	0.136557	-421.759711	-421.752452	-421.751508	-421.791041	29.175	
O	-0.0539758026	 1.4952721572	 0.0026534087	-0.429039
C	 0.034105367	 0.0718113651	-0.0208607674	-0.022067
C	 0.671749001	-0.502050292	 1.2559884816	-0.099509
C	-0.1405994222	-1.3229728063	 1.9340513736	-0.169915
C	-1.4578678842	-1.3931228317	 1.2532626471	 0.347649
C	-2.3317843854	-0.1879664467	 1.1021467635	-0.360361
C	-1.3519286403	-0.5478746958	 0.0024469253	 0.166481
C	-1.8031759434	-1.8299025564	-0.7044021908	-0.147507
O	-1.9755100883	-2.5405906877	 0.5576598173	-0.323421
H	 0.8400874323	 1.847849735	 0.0613081606	 0.283067
H	 0.5884829774	-0.2522717125	-0.9165974001	 0.07434
H	 1.6632726393	-0.1989797191	 1.5846585686	 0.094862
H	 0.09957703	-1.8212720398	 2.8666644059	 0.110206
H	-3.3931760539	-0.3326498584	 0.9242199727	 0.121166
H	-2.0655866929	 0.6836983573	 1.6870440299	 0.138496
H	-2.7338921303	-1.7940414243	-1.2827611135	 0.107683
H	-1.0122853134	-2.292808484	-1.3068778631	 0.107871
128.2405	228.5254	258.0122	278.7839	351.7302	403.3862	429.6815	552.6652	581.8894	672.5383	693.5933	785.9183	805.3907	865.8333	885.3632	917.4521	938.9512	953.7722	979.422	980.0004	1004.5994	1055.4591	1067.5922	1117.381	1134.4663	1151.295	1198.797	1232.3	1267.6644	1311.6778	1330.7151	1362.3583	1382.0156	1425.7064	1469.8716	1512.4844	1642.5113	2962.8673	3016.8879	3067.3561	3130.7593	3157.0353	3198.4966	3237.7953	3812.3203
OC1C=CC23CC12CO3	O[C@H]1C=C[C@@]23C[C@@]12CO3	
InChI=1S/C7H8O2/c8-5-1-2-7-3-6(5,7)4-9-7/h1-2,5,8H,3-4H2	InChI=1S/C7H8O2/c8-5-1-2-7-3-6(5,7)4-9-7/h1-2,5,8H,3-4H2/t5-,6+,7+/m0/s1
