16
gdb 52576	1.81435	0.92508	0.64263	4.343	86.22	-0.2636	0.0189	0.2825	1749.333	0.120701	-363.568101	-363.557171	-363.556227	-363.607856	35.272	
C	 0.0452525006	 1.5112962875	 0.1308350055	-0.499455
C	 0.0393388465	 0.0587269344	 0.0509649352	 0.094267
C	 0.0294403541	-1.1407512506	-0.0210311366	 0.105354
C	 0.0277147195	-2.6084360187	-0.0947077055	-0.509359
C	-1.3537695044	-3.1355028666	 0.0034390127	 0.313017
N	-2.4251058146	-3.5552339502	 0.0966132591	-0.324318
C	 0.6943733537	-3.1216534021	-1.2995738908	 0.105355
C	 1.2497825865	-3.5473304332	-2.2764818686	 0.094268
C	 1.9151505217	-4.0593296623	-3.464553605	-0.499455
H	 0.6062043204	 1.857960499	 1.005097851	 0.15482
H	 0.5049396401	 1.9524760454	-0.7598302544	 0.1566
H	-0.9744218837	 1.9026501161	 0.2100664604	 0.160114
H	 0.5604576647	-2.9986038636	 0.7868644048	 0.177256
H	 2.7903141724	-4.6620942561	-3.2000870282	 0.154826
H	 1.2383895992	-4.6900537437	-4.0505134083	 0.160115
H	 2.2530650133	-3.2413963353	-4.1095646114	 0.156594
17.8574	18.2548	58.8738	91.9312	94.2467	184.0964	230.9371	281.7212	296.89	380.9965	382.5813	394.9338	479.0602	547.1337	549.995	779.3451	828.1186	942.6738	1051.8784	1052.2752	1052.8097	1054.0545	1147.2039	1183.6446	1284.4548	1285.99	1412.7872	1414.3688	1475.5191	1475.691	1475.9939	1476.1638	2367.4372	2383.2204	2388.1708	2984.4709	3032.9099	3033.1339	3096.9124	3096.9394	3097.9469	3097.9785
CC#CC(C#N)C#CC	CC#CC(C#N)C#CC	
InChI=1S/C8H7N/c1-3-5-8(7-9)6-4-2/h8H,1-2H3	InChI=1S/C8H7N/c1-3-5-8(7-9)6-4-2/h8H,1-2H3
