21
gdb 106466	3.19358	1.42027	1.22498	1.0115	82.73	-0.234	0.0204	0.2544	1104.7818	0.183905	-387.080419	-387.072393	-387.071449	-387.112663	32.357	
C	 0.0676933479	 1.3685882437	-0.1052422963	-0.260751
O	-0.0229219628	-0.0113969281	 0.1787520133	-0.301283
C	-1.3062418802	-0.5706647823	 0.0651467358	 0.432555
C	-2.005568488	-0.6074279914	-1.3313383406	-0.274587
C	-2.5869009486	-1.97885497	-0.8606037543	-0.075347
C	-1.3086619401	-2.1162131676	 0.0241504738	-0.26524
C	-3.7673262447	-1.7106597699	 0.0476705254	-0.06211
C	-3.6193138671	-0.7977978907	 1.0073973175	-0.06327
C	-2.2980680729	-0.0734259473	 1.1393359671	-0.3104
H	 1.1311547326	 1.6195542088	-0.1213626349	 0.125654
H	-0.365922375	 1.6135445712	-1.0858422114	 0.108389
H	-0.4232240294	 1.9915919523	 0.6557811266	 0.107781
H	-2.7178505643	 0.1788215898	-1.5918234261	 0.091855
H	-1.2618992208	-0.7306786551	-2.1235167431	 0.099434
H	-2.7801569389	-2.742474248	-1.6135702387	 0.06394
H	-0.4479617906	-2.472786445	-0.5467362754	 0.101809
H	-1.3959512832	-2.6612585107	 0.9666555548	 0.094943
H	-4.6947618256	-2.2565572647	-0.0940472362	 0.086022
H	-4.4174389813	-0.5491360776	 1.7006069499	 0.087893
H	-1.8582306351	-0.2329178627	 2.1335753858	 0.1104
H	-2.4562743921	 1.0095081754	 1.0452414969	 0.102316
87.8947	176.1649	202.8996	283.2124	336.2855	349.4213	430.3154	469.9166	489.4002	503.7079	628.5216	692.1261	721.125	850.1217	859.7076	901.6484	903.7443	947.739	956.2811	958.612	979.1953	991.6056	1068.9871	1079.5921	1085.7941	1104.1758	1160.1703	1173.6263	1180.9392	1187.8483	1219.8168	1232.6893	1245.7745	1265.7768	1285.0057	1334.1631	1356.5664	1391.7921	1471.1776	1473.41	1478.6187	1494.0721	1505.8457	1509.847	1701.6701	2986.9411	3008.7054	3033.5447	3040.2895	3053.8273	3063.2468	3108.1705	3111.6097	3118.1653	3125.3687	3161.7699	3186.3696
COC12CC(C1)C=CC2	CO[C@@]12C[C@@H](C1)C=CC2	
InChI=1S/C8H12O/c1-9-8-4-2-3-7(5-8)6-8/h2-3,7H,4-6H2,1H3	InChI=1S/C8H12O/c1-9-8-4-2-3-7(5-8)6-8/h2-3,7H,4-6H2,1H3/t7-,8-
