13
gdb 13227	9.04507	0.80417	0.78185	3.9142	73.07	-0.2738	-0.0498	0.224	1361.7297	0.09585	-361.422661	-361.41519	-361.414246	-361.455462	25.493	
N	-0.0809978399	-3.7873704522	-0.1650958071	-0.334376
C	-0.0542286623	-2.626980425	-0.1128265447	 0.211253
C	-0.0231460445	-1.2639880933	-0.0520620821	 0.002417
C	 0.0026965802	-0.0562444803	-0.0000869889	 0.149736
C	 0.0452943793	 1.3817418325	 0.0747131944	-0.246751
C	-0.0991153654	 2.0628811765	 1.469225263	-0.073867
O	 1.0951701336	 2.832870571	 1.2570833685	-0.259113
C	 1.4337540324	 2.0900163708	 0.0748221336	-0.073868
H	-0.6335612921	 1.8176230096	-0.6630708978	 0.133424
H	-0.9842391973	 2.6919301413	 1.604590162	 0.123902
H	-0.0050207095	 1.3681012839	 2.312253701	 0.12167
H	 2.2774648945	 1.4085027497	 0.2359466723	 0.121671
H	 1.6396972411	 2.7383801456	-0.7823144842	 0.123903
67.7608	88.3526	127.32	231.4693	255.0103	445.8005	496.5272	569.8006	588.4179	612.833	821.6342	887.6399	911.0397	990.3945	1021.0584	1048.1272	1102.1745	1161.0113	1171.112	1202.592	1224.9036	1307.3925	1348.9322	1377.3576	1509.4124	1534.2355	2264.1795	2397.3177	3024.4832	3034.0137	3070.7369	3086.3429	3093.8303
N#CC#CC1COC1	N#CC#CC1COC1	
InChI=1S/C6H5NO/c7-3-1-2-6-4-8-5-6/h6H,4-5H2	InChI=1S/C6H5NO/c7-3-1-2-6-4-8-5-6/h6H,4-5H2
