17
gdb 87339	1.94763	1.46366	0.99302	3.9051	74.22	-0.2586	-0.0414	0.2172	1211.7544	0.133252	-417.989922	-417.980447	-417.979503	-418.024961	33.231	
C	-0.1308780865	 1.5275973226	 0.3518389544	-0.329986
N	 0.0302107273	 0.0874251681	 0.1848519619	-0.091263
C	 1.3178185899	-0.4343104278	-0.2186895574	-0.273946
C	 0.798621379	-0.6843713193	 1.1713160458	 0.12698
C	 1.4962550819	-0.0377079164	 2.3678084104	-0.369114
C	 0.537135089	 0.3155550138	 3.4944143429	 0.161212
O	 0.5257599603	 1.3824533715	 4.0498146265	-0.235296
C	 0.2229654454	-1.9850016028	 1.4675954592	 0.280267
N	-0.2068426925	-3.0259489041	 1.7293685341	-0.338076
H	 0.7808856218	 2.0581572724	 0.6608263975	 0.116433
H	-0.4549790289	 1.9398082471	-0.6078116184	 0.142062
H	-0.9143934156	 1.7221021502	 1.0889137184	 0.148243
H	 1.3074190919	-1.2316838303	-0.9562336206	 0.143623
H	 2.1614163652	 0.2525086502	-0.2874329639	 0.123063
H	 2.222699657	-0.7592312417	 2.7662985384	 0.151045
H	 2.0439700454	 0.8607263377	 2.0807890151	 0.135001
H	-0.1629622507	-0.4982239712	 3.7846217956	 0.109751
57.3514	73.004	134.7054	152.0028	178.8975	230.8934	285.5176	346.5663	390.9413	453.0128	471.9001	567.9022	578.3095	684.7116	794.5471	801.3012	888.0642	935.7787	1024.244	1060.8051	1068.1247	1131.072	1135.1497	1146.5804	1197.9982	1209.3207	1253.3782	1295.1072	1373.2347	1428.8905	1444.0692	1458.7379	1486.0849	1501.2539	1510.8286	1835.4232	2353.8547	2901.0553	2999.6151	3030.3056	3087.181	3089.4084	3123.4169	3132.5872	3187.5243
CN1CC1(CC=O)C#N	CN1C[C@]1(CC=O)C#N	
InChI=1S/C6H8N2O/c1-8-5-6(8,4-7)2-3-9/h3H,2,5H2,1H3	InChI=1S/C6H8N2O/c1-8-5-6(8,4-7)2-3-9/h3H,2,5H2,1H3/t6-,8?/m0/s1
