20
gdb 93538	3.13696	1.19581	0.93119	2.981	83.72	-0.2171	-0.0024	0.2147	1281.6038	0.173197	-403.203381	-403.194823	-403.193879	-403.236675	32.943	
C	 0.2508936806	 1.6209497872	-0.0060016588	-0.39721
C	-0.0492337052	 0.1107153173	-0.0335357174	-0.036638
C	 0.4788125473	-0.5247644422	-1.3255379262	-0.216392
C	 0.2161964117	-2.0371947119	-1.4319497412	-0.316833
C	 1.2756939531	-2.9059074527	-0.7833366491	 0.383375
O	 1.8164162858	-3.8303930925	-1.359233611	-0.358603
N	 1.6204694522	-2.6190956367	 0.5237433041	-0.323839
C	 1.1539986335	-1.6579171219	 1.4256932028	-0.01456
C	 0.4507313162	-0.5378381595	 1.2306870362	-0.059579
H	 1.330803677	 1.803785002	-0.0004525413	 0.120573
H	-0.1749053117	 2.1205517716	-0.8822621388	 0.112349
H	-0.1717233798	 2.0913476466	 0.8874907756	 0.113583
H	-1.1467896951	 0.0047842501	-0.0466031712	 0.084084
H	-0.0033868667	-0.0252085071	-2.1725810472	 0.104418
H	 1.5532669016	-0.3262652455	-1.4266796362	 0.109197
H	-0.7561466818	-2.2761781779	-0.9806623177	 0.122302
H	 0.1784318379	-2.3598119685	-2.4737626442	 0.128838
H	 2.294841285	-3.2796394	 0.8829888095	 0.251276
H	 1.4316947614	-1.9131382044	 2.4440656189	 0.107467
H	 0.202130387	 0.0003060259	 2.1423099031	 0.086189
64.957	121.7591	209.8137	238.5096	285.168	313.6403	343.6166	377.4178	501.1959	523.8463	568.8321	631.4012	710.3647	716.752	753.6951	815.4256	861.8358	913.831	939.6162	963.2711	971.8565	1043.3466	1048.1717	1098.5518	1104.7129	1162.3495	1209.77	1232.1863	1296.7374	1316.8069	1339.3415	1349.0367	1386.6886	1391.2845	1409.1082	1457.1603	1470.2397	1490.906	1492.2511	1497.1454	1502.6295	1738.9614	1786.6947	2959.3333	3025.5447	3030.0615	3033.843	3071.1585	3102.4243	3102.7049	3118.7698	3147.5318	3175.5371	3606.8566
CC1CCC(=O)NC=C1	C[C@H]1CCC(=O)NC=C1	
InChI=1S/C7H11NO/c1-6-2-3-7(9)8-5-4-6/h4-6H,2-3H2,1H3,(H,8,9)	InChI=1S/C7H11NO/c1-6-2-3-7(9)8-5-4-6/h4-6H,2-3H2,1H3,(H,8,9)/t6-/m0/s1
