18
gdb 52102	3.85715	0.98502	0.899	4.3056	74.81	-0.2481	0.0278	0.2759	1326.4162	0.147008	-439.030205	-439.021613	-439.020669	-439.064653	31.147	
N	-0.4317834948	 1.0842310573	 0.1474658346	-0.441598
C	-0.6769877091	-0.0807117679	-0.2703254796	 0.127892
O	-0.3995365041	-1.143485125	 0.5186664077	-0.180124
C	-0.7406609137	-2.428476285	-0.0074384769	-0.219533
C	-2.2019575633	-2.7200218755	 0.0767207704	 0.475527
C	-2.9816527955	-3.0668295184	 1.3059716348	-0.319965
C	-3.016821165	-3.9972217814	 0.1094816724	-0.189773
C	-3.8384476844	-3.3443964621	-0.9961616859	-0.086519
O	-3.0639774773	-2.1155365368	-0.9017332801	-0.32511
H	-0.6865257004	 1.7650038947	-0.565266447	 0.227941
H	-1.1083862356	-0.3543679398	-1.240876066	 0.105932
H	-0.4002309215	-2.5148903932	-1.0474228904	 0.116322
H	-0.1858330608	-3.1480389397	 0.599691543	 0.127238
H	-2.3976038386	-3.4284101713	 2.1462776384	 0.124818
H	-3.8503423728	-2.4699217141	 1.5684747686	 0.124424
H	-2.7045397625	-5.0319242362	 0.1495323261	 0.107651
H	-3.7046817158	-3.8059901328	-1.9805763355	 0.113116
H	-4.9048327948	-3.1784579029	-0.8049301847	 0.111761
48.1125	69.6551	108.5968	174.5227	265.9625	303.2386	379.1253	413.0066	445.9603	631.6958	727.1644	747.0776	821.5822	848.9716	910.6559	921.4692	955.2306	973.4268	977.9774	999.1284	1018.7296	1035.6841	1044.4728	1073.5657	1126.2387	1131.1633	1164.3443	1188.5282	1259.2557	1274.1664	1330.8633	1351.5269	1377.1713	1415.3963	1433.1059	1479.6381	1487.0123	1519.154	1745.6156	3025.2812	3028.8119	3052.9988	3078.7408	3107.7982	3121.7161	3203.8487	3215.5948	3516.0186
N=COCC12CC1CO2	[NH][CH]OC[C@]12C[C@H]1CO2	
InChI=1S/C6H9NO2/c7-4-8-3-6-1-5(6)2-9-6/h4-5,7H,1-3H2	InChI=1S/C6H9NO2/c7-4-8-3-6-1-5(6)2-9-6/h4-5,7H,1-3H2/t5-,6+/m0/s1
