20
gdb 85863	1.98419	1.74821	1.30706	2.7449	75.33	-0.2355	0.067	0.3025	1080.7782	0.169084	-440.242538	-440.233067	-440.232122	-440.276153	36.356	
C	-0.2252528233	 1.5393747535	-0.0045496132	-0.46187
C	-0.0282184737	 0.0283050386	-0.0058545895	 0.334119
O	-1.253173848	-0.6638869794	-0.1592130935	-0.482116
C	 1.1654373857	-0.4512111964	-0.8984201528	-0.323215
C	 2.0438004823	-0.5949381	 0.3860350048	 0.021691
O	 2.8754949922	 0.5220137995	 0.6580647732	-0.433206
C	 0.759933039	-0.504130681	 1.2049025785	 0.348321
C	 0.5189078514	-0.2933566095	 2.6436401995	-0.313896
N	 0.298512228	-1.6169920846	 2.0256257203	-0.373578
H	 0.7255978965	 2.0447415678	 0.1804381872	 0.145434
H	-0.6089556566	 1.8811399859	-0.9750796984	 0.10203
H	-0.9367392122	 1.8353440703	 0.7732431007	 0.118348
H	-1.8112878409	-0.1723698963	-0.7699907574	 0.279297
H	 0.940769478	-1.4213415408	-1.3475245433	 0.111485
H	 1.532324265	 0.2408009456	-1.661755474	 0.086249
H	 2.5892867075	-1.5398713337	 0.4918641149	 0.08016
H	 3.5935562796	 0.5164730322	 0.0167623945	 0.284187
H	 1.3582224469	-0.240926782	 3.3309201842	 0.124054
H	-0.3460811463	 0.2997512116	 2.932157286	 0.109162
H	-0.694461931	-1.7524881514	 1.8405320585	 0.243343
76.638	178.1026	197.1592	210.4337	245.5314	260.9966	287.6883	315.2716	358.0922	389.8153	419.2139	472.6485	577.9203	605.2928	673.1467	827.8646	877.8301	885.4889	918.2755	929.6189	952.1222	961.8696	988.0528	1020.4095	1072.656	1104.1239	1120.7745	1157.1548	1174.1964	1190.9417	1213.6429	1248.7474	1278.192	1292.4639	1304.0072	1363.8626	1393.8642	1402.3391	1439.9998	1468.1804	1492.8567	1498.7875	1513.8135	3016.5892	3035.5494	3057.091	3087.0611	3103.5841	3123.5737	3129.3616	3191.2928	3483.2347	3812.4813	3819.3172
CC1(O)CC(O)C11CN1	C[C@@]1(O)C[C@@H](O)[C@]21CN2	
InChI=1S/C6H11NO2/c1-5(9)2-4(8)6(5)3-7-6/h4,7-9H,2-3H2,1H3	InChI=1S/C6H11NO2/c1-5(9)2-4(8)6(5)3-7-6/h4,7-9H,2-3H2,1H3/t4-,5-,6+/m1/s1
