19
gdb 111125	3.59326	1.30736	1.20755	2.4316	74.3	-0.2411	0.0849	0.3261	1103.8079	0.160021	-422.949329	-422.941773	-422.940829	-422.981407	29.971	
C	 0.1059624137	 1.2958401357	-0.2446474066	-0.24496
O	-0.041894456	 0.0266946461	 0.3519434573	-0.250474
C	-1.3321804062	-0.4946707182	 0.2265641947	 0.1571
C	-1.6270491412	-1.2406542367	-1.1117876229	 0.01319
O	-0.7591464591	-2.3168677368	-0.6125622237	-0.299082
C	-1.3739303116	-1.9694135262	 0.6790082933	 0.024933
C	-2.8283679874	-2.4313041863	 0.4644016531	-0.046275
C	-3.9187986028	-1.4207217374	 0.2034535047	-0.311055
C	-3.0271611974	-1.8597058222	-0.9339533842	-0.045037
H	 1.1271730348	 1.6277935126	-0.0448687727	 0.131587
H	-0.0475356596	 1.2628914387	-1.3334482833	 0.107937
H	-0.596627017	 2.0304472242	 0.1803544908	 0.103039
H	-2.0638873839	 0.2238271156	 0.6123816525	 0.060615
H	-1.3391581011	-0.8606805012	-2.0915281701	 0.080064
H	-0.8181404316	-2.3268304553	 1.5448357083	 0.084926
H	-3.0841483139	-3.4533250637	 0.7153884473	 0.100239
H	-4.9253601751	-1.8290033431	 0.1788507379	 0.113577
H	-3.8844002618	-0.4182945293	 0.6103187925	 0.120356
H	-3.4379591628	-2.4462403964	-1.7468143288	 0.09932
87.9583	175.9726	178.1797	303.5079	329.2684	380.0563	445.6513	547.7542	607.1314	660.8087	783.2262	804.217	848.7527	859.7778	865.338	900.9741	916.2138	966.8101	991.0668	1007.5131	1029.1944	1060.1142	1083.909	1090.8939	1102.0405	1160.2781	1181.728	1184.9534	1191.3879	1218.1026	1234.3004	1245.6534	1273.2813	1292.1156	1315.6363	1364.2648	1431.1763	1482.4475	1488.269	1502.5474	1512.4524	2973.4417	3023.0459	3034.5525	3119.9875	3129.031	3132.691	3136.9632	3181.2319	3189.5456	3215.591
COC1C2OC1C1CC21	CO[C@H]1[C@H]2O[C@@H]1[C@H]1C[C@@H]21	
InChI=1S/C7H10O2/c1-8-7-5-3-2-4(3)6(7)9-5/h3-7H,2H2,1H3	InChI=1S/C7H10O2/c1-8-7-5-3-2-4(3)6(7)9-5/h3-7H,2H2,1H3/t3-,4+,5+,6-,7+
