19
gdb 74037	2.67488	1.96537	1.40939	1.3034	81.46	-0.2139	-0.0147	0.1992	970.3158	0.160833	-385.840669	-385.83342	-385.832475	-385.872027	29.452	
C	-0.1280725738	 1.3606614106	-0.1895267053	-0.486233
C	-0.0176253157	-0.0909880652	 0.1446564263	 0.306723
C	-1.0374863083	-0.9474019881	 0.3585850115	-0.040414
C	-2.1773366142	-1.0155542024	-0.6278510867	-0.125316
O	-1.5121673994	-1.8149939646	-1.6571611462	-0.27603
C	-0.5879071389	-2.6722182455	-0.9931071811	 0.105495
C	 0.7600474115	-2.2807267398	-0.2844766596	-0.080603
C	 1.2776461513	-0.8580614833	-0.09018919	-0.314159
C	-0.5464810719	-2.3872658264	 0.4556785198	-0.164956
H	 0.4650902899	 1.9666389149	 0.5080151532	 0.131413
H	 0.2656962181	 1.5693615573	-1.192516301	 0.132147
H	-1.1610696597	 1.714102469	-0.1369662496	 0.1257
H	-3.0726986746	-1.543675296	-0.2787604634	 0.099561
H	-2.4596329551	-0.0616975896	-1.0767153337	 0.111777
H	-0.6034743453	-3.674214005	-1.4101039252	 0.096976
H	 1.4737580996	-3.1009348539	-0.256893409	 0.076458
H	 1.7802249206	-0.4430161708	-0.9744094538	 0.111691
H	 2.0091056259	-0.8111467248	 0.7305278093	 0.105872
H	-0.80553561	-3.0494570965	 1.2747691944	 0.083897
135.5081	180.2035	219.6125	292.2481	372.4964	450.1116	472.2451	571.038	672.0773	698.7364	734.4409	753.9855	791.4191	823.0917	876.2331	903.4028	932.9844	962.8309	985.4402	994.3425	1023.826	1057.9745	1067.4567	1100.2558	1118.432	1134.0103	1159.4346	1192.0486	1204.1339	1228.0492	1278.9896	1310.8804	1327.154	1351.3536	1387.8569	1407.0895	1469.5234	1476.2725	1483.5847	1512.3225	1665.4075	2991.8979	3014.9015	3029.584	3031.6084	3060.2042	3112.1024	3120.3476	3137.8495	3154.25	3166.3085
CC1=C2COC3C(C1)C23	C[C]1[C]2CO[C@H]3[C@@H](C1)[C@@H]23	
InChI=1S/C8H10O/c1-4-2-5-7-6(4)3-9-8(5)7/h5,7-8H,2-3H2,1H3	InChI=1S/C8H10O/c1-4-2-5-7-6(4)3-9-8(5)7/h5,7-8H,2-3H2,1H3/t5-,7-,8-/m0/s1
