25
gdb 116862	3.66206	0.56665	0.55618	0.2214	99.84	-0.2389	0.0645	0.3034	2225.1095	0.225654	-352.352493	-352.340531	-352.339587	-352.390601	43.098	
C	 0.0055568313	 1.5871015602	 0.0427301076	-0.381572
C	 0.0507132366	 0.0579527087	 0.0340380968	-0.150298
C	 0.6442854677	-0.5070237057	-1.2725633532	-0.333861
C	 0.6969009873	-1.9654615274	-1.2991297029	-0.069183
C	 0.7275426369	-3.1704997525	-1.2909845619	 0.196205
C	 0.769300187	-4.6389374325	-1.289445957	 0.080289
C	 1.5458918151	-5.1317636116	-2.5315364329	-0.389004
C	 1.4791262348	-5.1309627292	-0.0077173808	-0.389104
C	-0.6725509443	-5.1942825672	-1.3271519158	-0.38934
H	 1.0084947081	 2.0154714229	-0.0643370905	 0.114801
H	-0.6073677926	 1.9718564165	-0.7801522919	 0.114796
H	-0.4188595478	 1.9650021687	 0.9777842635	 0.113315
H	 0.6458073537	-0.3067664268	 0.8788275791	 0.106786
H	-0.9572836288	-0.3500785825	 0.1692327669	 0.106677
H	 0.0524950793	-0.1431681673	-2.1239145828	 0.121376
H	 1.6542562159	-0.0984568591	-1.4155793035	 0.121388
H	 2.5706504449	-4.7495604837	-2.5276949478	 0.117967
H	 1.586274999	-6.2265421373	-2.5427869044	 0.106847
H	 1.0622827748	-4.7954740275	-3.4530724363	 0.118019
H	 0.9491679568	-4.7913289083	 0.8867526197	 0.117473
H	 1.5159918429	-6.2258095888	 0.0084452847	 0.10674
H	 2.503751279	-4.7514162049	 0.0407375696	 0.117711
H	-1.1964009868	-4.8593801351	-2.2269715502	 0.117816
H	-0.6569505839	-6.2898000796	-1.3250388588	 0.106726
H	-1.2434987668	-4.8569029401	-0.4573309569	 0.117431
29.9889	67.3745	69.0719	131.725	163.8003	220.0724	233.0747	274.965	277.0363	278.6981	301.3486	342.2145	364.0906	375.6698	469.0842	546.8174	558.091	659.8249	743.8009	835.5074	873.0753	891.1906	928.6175	930.6811	962.9081	1037.648	1048.5891	1049.792	1084.1612	1109.4202	1123.1631	1224.0104	1225.0769	1260.6961	1291.2635	1310.7014	1323.5232	1384.3745	1391.8255	1393.2933	1411.2907	1425.4289	1474.0177	1474.4602	1485.3607	1485.7672	1491.473	1497.8237	1498.1896	1498.4695	1508.6282	1518.0268	2358.725	3005.8843	3028.8807	3029.9699	3030.0862	3031.5188	3037.0186	3040.2876	3071.7184	3099.0946	3101.5594	3101.842	3104.0365	3108.4389	3112.502	3116.7002	3117.0631
CCCC#CC(C)(C)C	CCCC#CC(C)(C)C	
InChI=1S/C9H16/c1-5-6-7-8-9(2,3)4/h5-6H2,1-4H3	InChI=1S/C9H16/c1-5-6-7-8-9(2,3)4/h5-6H2,1-4H3
