19
gdb 70311	3.06468	1.63364	1.31973	1.511	74.86	-0.2371	0.0807	0.3178	1019.495	0.158954	-422.98499	-422.977328	-422.976384	-423.016637	31.146	
C	-0.0389702956	 1.4372945238	-0.0392068832	-0.458704
C	-0.0538163817	-0.0687500413	 0.0269484041	 0.400256
C	-0.9082428472	-0.8143885011	 1.0223874791	-0.358237
C	 0.5956414816	-0.8330303842	 1.1488879322	 0.036002
O	 1.2481022353	-2.0180366118	 0.7750147707	-0.255485
C	 2.0583933939	-1.8477758966	-0.3570517539	 0.074158
C	 1.64496556	-2.5898637398	-1.600615356	-0.325859
C	 1.3983277613	-1.1077741153	-1.4874189721	 0.057762
O	 0.079822056	-0.7078233766	-1.2266449172	-0.290379
H	 0.8997952095	 1.8021019013	-0.4703958963	 0.119158
H	-0.8637667084	 1.8020097927	-0.6600902456	 0.129202
H	-0.1451894394	 1.872684341	 0.9590261683	 0.116532
H	-1.4807262001	-0.2448407954	 1.7466914524	 0.110644
H	-1.3689441752	-1.7309781247	 0.6731021869	 0.127918
H	 1.0729977178	-0.2935294853	 1.9654719575	 0.088783
H	 3.1142807406	-1.6965296091	-0.1419289445	 0.091143
H	 2.4177431848	-2.9350964982	-2.2785488984	 0.11354
H	 0.774528653	-3.229117051	-1.510104031	 0.132156
H	 1.9730191037	-0.4184416783	-2.1024806632	 0.09141
138.9444	198.9695	217.3086	273.6956	345.2803	385.826	462.9638	468.4638	508.7848	537.1856	668.8294	767.3235	807.3082	818.1209	845.2013	847.6955	919.9283	942.6966	960.9824	1025.1676	1027.2949	1039.1482	1074.0684	1086.3101	1104.1917	1118.9193	1128.8578	1140.6443	1157.1673	1178.7639	1229.0881	1249.1639	1288.3412	1356.2561	1385.2933	1400.904	1419.7871	1458.2026	1472.4193	1482.2669	1500.1356	3031.0378	3097.4872	3107.3717	3110.9993	3115.1712	3124.592	3136.9724	3141.0258	3233.4162	3236.6213
CC12CC1OC1CC1O2	C[C@]12C[C@H]1O[C@H]1C[C@H]1O2	
InChI=1S/C7H10O2/c1-7-3-6(7)8-4-2-5(4)9-7/h4-6H,2-3H2,1H3	InChI=1S/C7H10O2/c1-7-3-6(7)8-4-2-5(4)9-7/h4-6H,2-3H2,1H3/t4-,5+,6+,7-/m0/s1
