20
gdb 82779	2.97348	1.85955	1.71856	1.5897	80.	-0.218	0.0816	0.2997	912.5333	0.174409	-365.962429	-365.955765	-365.954821	-365.993091	28.374	
C	-0.27935037	 1.5901565462	-0.0163425256	-0.427171
C	 0.0294507169	 0.1021327742	 0.013740588	 0.031114
C	 1.1410353567	-0.5330111862	-0.8752571414	-0.035672
C	 2.3559568949	 0.3878364602	-1.0417011274	-0.244906
C	 3.0323843399	 0.2574521572	 0.3099386119	-0.049422
C	 2.1750864597	 0.0554895922	 1.5614163068	-0.117208
C	 2.8041436611	-1.1205867425	 0.8290565176	-0.030959
N	 1.4747324915	-1.5153784844	 0.2677895889	-0.155283
C	 0.8012566556	-0.5185727282	 1.1903155069	-0.005124
H	 0.595246515	 2.1963701218	 0.2381513341	 0.122796
H	-0.6348593311	 1.9083335288	-1.0027822452	 0.115785
H	-1.0653953864	 1.8314199714	 0.7078227221	 0.114804
H	-0.8935482437	-0.4712127518	-0.1244152583	 0.081046
H	 0.8233755248	-1.0197719824	-1.798992116	 0.070115
H	 3.0291847949	 0.0260844597	-1.8280483546	 0.09893
H	 2.0661272064	 1.4097724564	-1.3034869234	 0.103393
H	 3.9963672292	 0.7232805391	 0.485957535	 0.08564
H	 2.4546504084	 0.5070661515	 2.5061439558	 0.084291
H	 3.5519501178	-1.8518302655	 1.1100176966	 0.089994
H	 0.2505312185	-0.9345000378	 2.0395793482	 0.067837
152.7384	205.2805	266.9178	383.8088	484.4144	541.7259	616.9941	671.7084	694.17	755.9831	772.5958	801.3177	813.0458	869.4768	911.4177	931.2397	953.0295	963.7285	976.8036	1000.8001	1025.9383	1039.3444	1046.1858	1062.8791	1086.849	1094.8163	1119.0299	1158.0032	1172.2583	1204.1346	1217.5078	1240.2119	1258.1615	1293.4962	1318.4103	1341.6296	1356.8788	1374.5595	1405.575	1412.7217	1491.9168	1494.2804	1511.8869	3029.0621	3034.0838	3042.8188	3057.1577	3084.0473	3089.4739	3090.1678	3104.856	3168.4397	3173.2319	3189.3872
CC1C2CC3C4C3N2C14	C[C@H]1[C@H]2C[C@H]3[C@@H]4[C@H]3N2[C@H]14	
InChI=1S/C8H11N/c1-3-5-2-4-6-7(3)9(5)8(4)6/h3-8H,2H2,1H3	InChI=1S/C8H11N/c1-3-5-2-4-6-7(3)9(5)8(4)6/h3-8H,2H2,1H3/t3-,4-,5+,6-,7+,8-/m0/s1
