16
gdb 8467	2.90856	2.11818	1.57895	4.4224	65.19	-0.2648	0.0077	0.2725	864.3477	0.128905	-383.754261	-383.746387	-383.745443	-383.786183	29.058	
C	-0.0828373285	 1.4837550261	 0.0367780133	-0.488411
C	 0.0539828595	 0.0001705764	 0.0593520119	 0.428904
C	 1.1804204724	-0.8664563016	-0.3753610813	-0.370031
C	 0.6214937428	-0.990106507	 1.0582077442	 0.04011
C	 1.4401111731	-0.8699265679	 2.3086349552	-0.493775
C	-0.7259618603	-1.6533628949	 0.9252922335	 0.435948
O	-1.331000448	-2.5352732341	 1.443539374	-0.331017
O	-1.1770821948	-0.7869216173	-0.0621113694	-0.30176
H	 0.8796905125	 1.9556713861	 0.2537069739	 0.131721
H	-0.4124541683	 1.8260758168	-0.9498349145	 0.144074
H	-0.8141695086	 1.8188570805	 0.7779843593	 0.141057
H	 1.0112692577	-1.6494704648	-1.1079398404	 0.133638
H	 2.1615116998	-0.4002695428	-0.4151823754	 0.124965
H	 2.2335330611	-0.1261878322	 2.1864647727	 0.12375
H	 0.8223000728	-0.572653889	 3.1614259404	 0.137518
H	 1.9147960367	-1.8248997543	 2.5565540427	 0.143308
139.2579	160.5715	166.0843	201.0519	239.6976	336.2411	374.3611	472.9879	530.3545	615.13	680.0703	714.8561	768.8231	825.2982	885.595	952.5256	968.8116	984.236	1022.0164	1080.4736	1105.1346	1127.0614	1177.5148	1217.9485	1343.1797	1398.4942	1416.5486	1435.9626	1473.5352	1483.6576	1493.1508	1497.7291	1515.7483	1936.4024	3036.7611	3039.8126	3102.4114	3106.5655	3109.3247	3117.1126	3121.4313	3208.649
CC12CC1(C)C(=O)O2	C[C@@]12C[C@]1(C)C(=O)O2	
InChI=1S/C6H8O2/c1-5-3-6(5,2)8-4(5)7/h3H2,1-2H3	InChI=1S/C6H8O2/c1-5-3-6(5,2)8-4(5)7/h3H2,1-2H3/t5-,6-/m1/s1
