18
gdb 128660	2.31107	1.49632	0.92409	1.0882	77.29	-0.2148	0.0107	0.2255	1271.8143	0.147122	-435.274613	-435.264895	-435.263951	-435.3105	32.919	
C	-0.040445702	 1.4192451294	 0.1299056826	-0.238147
O	-0.0122077533	-0.0036730486	 0.0608265127	-0.264374
C	 0.6253942041	-0.6225309986	 1.0658032609	 0.340121
N	 1.2158943702	-0.0036572804	 2.0829044137	-0.350881
N	 1.7086680609	-1.0194963278	 2.8027244218	 0.138274
C	 2.4040777642	-0.8054344938	 4.0502327926	-0.309215
N	 1.4661533123	-2.2318685532	 2.3195847642	-0.286298
C	 0.7733411023	-2.0197164549	 1.1987231742	 0.212081
C	 0.290613365	-3.114995385	 0.3092338233	-0.498385
H	 0.9739310461	 1.8320856737	 0.1206658925	 0.133559
H	-0.5903399309	 1.7529710541	-0.7509590958	 0.129569
H	-0.5456708447	 1.7573223795	 1.0409415149	 0.133389
H	 1.7229487016	-0.4162546579	 4.8137258529	 0.143687
H	 2.8024351923	-1.7675845105	 4.369674185	 0.159914
H	 3.2191855282	-0.0921504452	 3.9050770284	 0.147419
H	-0.7980703281	-3.0838699142	 0.1927605447	 0.134541
H	 0.7228141081	-3.0359394109	-0.6943414706	 0.134478
H	 0.5669511836	-4.0841700357	 0.7292880721	 0.140268
40.2273	67.0637	97.177	155.3123	180.0023	183.6351	251.7089	258.7303	374.115	377.7416	564.1719	636.0988	649.919	653.2138	745.6082	850.5238	1007.1609	1022.9691	1059.3875	1068.4117	1086.9103	1149.3626	1180.9005	1214.6293	1265.5683	1351.4619	1378.9855	1412.3219	1429.414	1448.4962	1457.6651	1477.3901	1479.7135	1479.8713	1493.5702	1502.0169	1512.4922	1568.7642	1591.2647	3029.7802	3036.3965	3046.2663	3086.3041	3095.4462	3111.3484	3134.1033	3144.9852	3170.6564
COC1=NN(C)N=C1C	COc1nn(C)nc1C	
InChI=1S/C5H9N3O/c1-4-5(9-3)7-8(2)6-4/h1-3H3	InChI=1S/C5H9N3O/c1-4-5(9-3)7-8(2)6-4/h1-3H3
