17
gdb 66336	2.4803	1.40013	1.30221	3.2656	74.17	-0.2382	-0.013	0.2253	1066.3379	0.137026	-418.013064	-418.004695	-418.003751	-418.045909	31.805	
O	-0.0563032986	 1.417431114	 0.0614991995	-0.446235
C	 0.0325106419	 0.0005544221	 0.0054977469	 0.197296
C	-1.4265224163	-0.5279087564	 0.0206958406	-0.204133
N	-1.5364412098	-1.9317623558	-0.3224555115	-0.296994
C	-0.9836150735	-2.2443298181	-1.6388853726	-0.216436
C	 0.2570123514	-1.46858512	-2.0014486889	-0.049417
C	 0.7296552579	-0.4726260022	-1.2571095416	-0.109636
C	 0.7610575971	-0.5058480968	 1.1937802221	 0.230356
N	 1.3335082808	-0.9036642654	 2.1167854389	-0.339723
H	 0.8348314788	 1.7851497593	 0.081776788	 0.292291
H	-1.8732078328	-0.3458128734	 1.0008608283	 0.12888
H	-1.970430481	 0.0748077536	-0.714776912	 0.127827
H	-1.0867834351	-2.4982431929	 0.3889898386	 0.235928
H	-0.781546509	-3.3203495034	-1.6869512078	 0.12292
H	-1.7503216223	-2.0537968703	-2.4070223264	 0.125555
H	 0.7527633846	-1.7369124402	-2.9315227509	 0.104313
H	 1.632443326	 0.066268296	-1.5337643511	 0.097208
80.4389	146.1281	183.6915	270.2289	288.9425	306.8265	351.9506	428.4859	477.1474	500.9895	575.4125	618.3053	668.5763	724.1081	761.4831	816.84	909.32	927.9732	975.0491	995.4372	1019.3745	1053.9409	1107.6933	1141.3135	1169.1168	1215.0142	1246.6654	1327.7967	1337.3495	1359.9336	1390.8902	1408.5553	1470.2526	1480.2848	1499.7628	1717.4141	2339.3717	2984.4045	3052.77	3059.2734	3112.588	3147.218	3169.8057	3529.7378	3799.3993
OC1(CNCC=C1)C#N	O[C@]1(CNCC=C1)C#N	
InChI=1S/C6H8N2O/c7-4-6(9)2-1-3-8-5-6/h1-2,8-9H,3,5H2	InChI=1S/C6H8N2O/c7-4-6(9)2-1-3-8-5-6/h1-2,8-9H,3,5H2/t6-/m0/s1
