16
gdb 13260	5.21043	1.14341	0.99756	5.5784	62.19	-0.2606	0.013	0.2736	1139.8647	0.12977	-420.873984	-420.865941	-420.864996	-420.907815	27.359	
O	 0.5304517078	 0.2288964941	 0.5597579391	-0.274861
C	 0.6351772003	 1.415657694	 0.6239994849	 0.183168
O	 0.5553266028	 2.2061943783	-0.4709352042	-0.183866
C	 0.7659404368	 3.6070455444	-0.2846909876	-0.107685
C	 2.2377377642	 3.9538337026	-0.4003947166	 0.15273
C	 2.6397263343	 5.4018200277	-0.0443534984	-0.303886
C	 3.4743844695	 4.7405466676	 1.0717082257	-0.058681
O	 2.9991073137	 3.4236399643	 0.7085837855	-0.291408
H	 0.7925331826	 1.9876057564	 1.555607656	 0.08727
H	 0.1916485887	 4.1105608048	-1.068361901	 0.126695
H	 0.3809158838	 3.9276021914	 0.6921441104	 0.111991
H	 2.6265561027	 3.5814742328	-1.3565207184	 0.096916
H	 3.2006834109	 5.9387642162	-0.8092713488	 0.122783
H	 1.816921509	 6.0301619631	 0.3045398931	 0.114608
H	 4.5611758213	 4.8226206422	 0.9554213387	 0.113315
H	 3.2061495016	 5.0036036902	 2.1010283418	 0.11091
58.6036	81.4116	89.2093	143.1909	232.7035	360.5086	370.1248	464.4356	669.5483	750.9556	810.0523	876.4721	905.3611	970.505	1008.5069	1025.9353	1044.1158	1056.6967	1102.5349	1124.6763	1162.3954	1188.2461	1220.7873	1259.7137	1279.5978	1308.1671	1344.3034	1377.8545	1411.3967	1431.5294	1487.4877	1492.8778	1532.0854	1868.8107	2984.2505	3022.2697	3027.5081	3035.6856	3068.3679	3078.9406	3095.4484	3139.0333
O=COCC1CCO1	O=COC[C@H]1CCO1	
InChI=1S/C5H8O3/c6-4-7-3-5-1-2-8-5/h4-5H,1-3H2	InChI=1S/C5H8O3/c6-4-7-3-5-1-2-8-5/h4-5H,1-3H2/t5-/m1/s1
