16
gdb 18026	4.26926	1.59726	1.45621	2.4728	59.95	-0.2533	0.0478	0.3011	889.1554	0.130907	-420.819608	-420.812517	-420.811573	-420.851275	26.403	
O	 0.0509409892	 1.207980625	-0.4505373776	-0.423452
C	 0.0629712327	-0.1430428673	-0.0240802669	-0.078589
C	-1.3543084666	-0.6328448963	 0.2030937709	 0.100734
O	-2.1702429706	-0.4640056237	-1.0029368417	-0.330571
C	-2.5771719328	-1.8449969829	-0.979916751	 0.074824
C	-1.6384596746	-2.772659328	-1.7632314437	-0.095219
O	-0.7775902217	-2.9319432652	-0.6029208564	-0.288993
C	-1.6582517003	-2.1440939325	 0.2198636755	 0.032818
H	-0.5336433365	 1.2405999503	-1.2173595661	 0.292765
H	 0.5653220195	-0.7994853438	-0.746698721	 0.104312
H	 0.6269898842	-0.1790602188	 0.9144471212	 0.110889
H	-1.8229272961	-0.0914163401	 1.0354659036	 0.087135
H	-3.6580959165	-1.9745197177	-1.0472208326	 0.095264
H	-2.0770747449	-3.7331527169	-2.0611451911	 0.109598
H	-1.127040184	-2.310432863	-2.6138345107	 0.116372
H	-1.914898871	-2.6317790692	 1.1612328675	 0.092113
86.8505	132.9665	178.8744	293.0464	391.2417	435.0012	484.3701	531.0549	715.2605	796.753	824.2885	861.621	915.6728	943.9539	996.2536	1009.7023	1035.5344	1073.6196	1078.8847	1080.748	1117.8008	1164.2865	1195.8218	1214.3677	1229.5281	1289.7668	1295.647	1314.6698	1349.0592	1356.5527	1395.5917	1434.6333	1501.6155	1504.868	3017.8776	3022.0779	3025.952	3078.6079	3084.8608	3099.0558	3111.5141	3791.4616
OCC1OC2COC12	OC[C@H]1O[C@H]2CO[C@@H]12	
InChI=1S/C5H8O3/c6-1-3-5-4(8-3)2-7-5/h3-6H,1-2H2	InChI=1S/C5H8O3/c6-1-3-5-4(8-3)2-7-5/h3-6H,1-2H2/t3-,4+,5+/m1/s1
