23
gdb 117754	2.0094	1.02622	0.92202	1.7994	87.74	-0.2592	0.0581	0.3173	1465.7279	0.202131	-388.256547	-388.245106	-388.244162	-388.292937	41.924	
C	-0.0900998599	 1.5370843191	 0.1655909478	-0.40093
C	 0.0588816358	 0.0169119165	 0.0733688326	-0.184363
C	 0.7058134683	-0.5173787914	-1.2386729878	 0.040112
C	 0.7842984786	-2.0615027144	-1.1588062118	-0.413978
C	-0.064467392	-0.0683862638	-2.5134802654	-0.177549
C	-1.5353814893	-0.4687557206	-2.5881405285	-0.10308
O	-2.023806898	 0.012329364	-3.8336099952	-0.420271
C	 2.0748682784	 0.0039792235	-1.3443161517	 0.354421
C	 3.1986032646	 0.4234142576	-1.4336583678	-0.494662
H	 0.8740941222	 2.0334427415	 0.0215561527	 0.132594
H	-0.7849362135	 1.9282430483	-0.5841233564	 0.119543
H	-0.473956085	 1.8235679274	 1.1495261854	 0.111574
H	 0.6735555686	-0.3369241796	 0.9089795685	 0.102202
H	-0.9205403768	-0.4618972757	 0.1918567437	 0.093173
H	-0.2096737249	-2.4963915276	-1.0180632027	 0.112234
H	 1.2183562993	-2.4779379008	-2.0721773438	 0.122497
H	 1.4099691602	-2.3687836711	-0.3163332308	 0.122645
H	-0.0041770016	 1.0194186766	-2.6120231078	 0.117238
H	 0.4439277886	-0.4825075956	-3.3906691087	 0.11301
H	-1.645543316	-1.5616688653	-2.5206389869	 0.087603
H	-2.0999909893	-0.0302496548	-1.7509376257	 0.089069
H	-2.9531514785	-0.2246866423	-3.9022874635	 0.284988
H	 4.1905618102	 0.7936881284	-1.5143489862	 0.191927
66.6721	83.4925	121.4769	127.3959	179.4557	226.9116	251.6358	255.4364	262.0489	274.8633	342.218	367.4388	415.5644	432.0974	563.2988	577.021	625.5832	629.5536	716.0272	780.8018	799.9955	894.5368	929.3819	995.8041	1014.4396	1024.7564	1055.5433	1073.173	1082.4251	1175.8731	1199.3921	1211.0214	1252.0431	1260.0733	1310.8402	1321.117	1354.5411	1365.3665	1408.2611	1412.4443	1458.0179	1483.5094	1486.1585	1495.0405	1500.7195	1505.6297	1509.8887	1529.1597	2227.7228	2974.705	3002.115	3029.4239	3040.6992	3041.1288	3053.7857	3064.0657	3096.1661	3106.96	3113.894	3116.5068	3118.1217	3501.4548	3830.2939
CCC(C)(CCO)C#C	CC[C@@](C)(CCO)C#C	
InChI=1S/C8H14O/c1-4-8(3,5-2)6-7-9/h1,9H,5-7H2,2-3H3	InChI=1S/C8H14O/c1-4-8(3,5-2)6-7-9/h1,9H,5-7H2,2-3H3/t8-/m0/s1
