18
gdb 60312	3.70439	0.76505	0.66935	4.5269	75.18	-0.3145	-0.0674	0.2471	1666.2216	0.145072	-439.127909	-439.117769	-439.116825	-439.164336	34.904	
C	-0.0974962845	 1.5544285423	-0.0405855291	-0.38778
C	-0.0485665623	 0.0214644134	-0.023507969	 0.005911
C	 0.7778044602	-0.5064899072	 1.1573175522	-0.396801
C	-1.4446634397	-0.5857703736	 0.0326193613	-0.0636
O	-2.1610180544	-0.1859036064	-1.1671758223	-0.22993
C	-3.420771168	-0.5995899075	-1.2552665011	 0.362521
O	-4.0246990343	-1.2635905838	-0.4575794778	-0.330636
C	-4.0187055019	-0.1227013468	-2.5107225714	 0.251331
N	-4.5376160105	 0.2262309977	-3.4814867301	-0.30512
H	 0.9105556613	 1.9714950475	-0.1228424935	 0.120427
H	-0.6879084987	 1.9245125415	-0.8823793228	 0.132772
H	-0.543524024	 1.9409525866	 0.8836666855	 0.115851
H	 0.4173658102	-0.3233843941	-0.9558495363	 0.094483
H	 0.3367290442	-0.2048256797	 2.1144091573	 0.121832
H	 0.8470947343	-1.5991236025	 1.1481348263	 0.119752
H	 1.7947070207	-0.1056502931	 1.1217152165	 0.125129
H	-1.417514647	-1.6791901723	 0.063633682	 0.131365
H	-2.0088753454	-0.235800222	 0.9036885122	 0.13249
34.6343	59.589	97.82	167.0185	202.2617	214.1788	246.8175	264.7487	341.8781	344.512	423.8539	425.9464	554.4926	618.4663	776.418	822.6189	909.7962	923.8241	933.0738	955.2849	978.4955	1002.2738	1152.7803	1186.8553	1200.3593	1268.1124	1276.4413	1330.4744	1374.1819	1401.9447	1407.0728	1429.8027	1487.4463	1490.4948	1502.0443	1504.9168	1513.5908	1817.4919	2361.3043	3024.2278	3030.5509	3034.996	3050.8802	3095.3427	3099.1355	3105.5707	3111.8028	3123.594
CC(C)COC(=O)C#N	CC(C)COC(=O)C#N	
InChI=1S/C6H9NO2/c1-5(2)4-9-6(8)3-7/h5H,4H2,1-2H3	InChI=1S/C6H9NO2/c1-5(2)4-9-6(8)3-7/h5H,4H2,1-2H3
