23
gdb 114122	3.88033	0.85259	0.78457	1.5756	86.18	-0.2463	0.0782	0.3246	1563.4161	0.205321	-388.2637	-388.253918	-388.252974	-388.298526	36.885	
C	 0.0372666891	 1.5441912807	-0.0029636377	-0.378069
C	 0.0421512594	 0.017625886	 0.1294293199	-0.192143
C	-1.3515239138	-0.5928655048	 0.0098835354	 0.047738
C	-2.0926772847	-0.5715467577	-1.3748734728	-0.312622
C	-2.2830221908	-2.0940813211	-1.2801555785	 0.349014
C	-3.5229172382	-2.8346202768	-1.6783420967	-0.175442
O	-3.7015326436	-2.8896744853	-3.089735859	-0.415162
C	-0.9308782961	-2.75804951	-1.2017520286	-0.338087
C	-1.5025758281	-2.122878661	 0.0380760938	-0.1417
H	 1.0474508304	 1.9561461542	 0.0837137825	 0.111015
H	-0.3673753035	 1.8574923872	-0.9715970106	 0.118715
H	-0.5791390153	 2.0068063235	 0.7761317919	 0.112543
H	 0.7024570968	-0.4135672132	-0.6332355521	 0.092373
H	 0.4720868268	-0.2668659352	 1.0990950431	 0.093794
H	-2.0010836275	-0.1458222106	 0.7708296094	 0.070215
H	-3.0333179361	-0.0166068055	-1.3473522403	 0.103986
H	-1.5103566932	-0.2207449186	-2.233717683	 0.092259
H	-3.5077386066	-3.844914933	-1.2358176888	 0.08081
H	-4.4158236431	-2.3265758282	-1.2958899494	 0.10537
H	-2.8916667205	-3.2546508486	-3.4620179635	 0.279811
H	-0.9441507553	-3.8445029169	-1.1988387762	 0.107314
H	-0.0701601766	-2.3292851819	-1.7091427494	 0.106277
H	-1.7007073895	-2.7141938933	 0.9254374309	 0.08199
75.4301	88.2045	119.9629	148.0206	211.1976	263.0323	296.6239	328.4055	361.9686	407.7549	418.4748	526.7285	657.9303	718.0948	775.6638	818.3975	867.7588	906.1268	922.3803	944.5767	952.7836	972.4977	991.007	1026.8732	1031.4172	1058.5671	1075.0478	1095.4662	1104.2181	1135.0837	1179.8319	1193.8871	1237.9192	1261.6037	1271.5849	1292.0273	1302.7903	1344.1185	1363.9325	1389.2982	1403.2116	1411.182	1430.6766	1481.2135	1484.2925	1496.9821	1499.0155	1506.1005	1508.857	2962.7553	3017.2772	3029.1324	3033.5289	3042.0533	3053.8887	3057.2606	3095.4715	3101.9263	3103.8393	3106.9696	3166.1477	3190.0757	3806.8123
CCC1CC2(CO)CC12	CC[C@H]1C[C@@]2(CO)C[C@@H]12	
InChI=1S/C8H14O/c1-2-6-3-8(5-9)4-7(6)8/h6-7,9H,2-5H2,1H3	InChI=1S/C8H14O/c1-2-6-3-8(5-9)4-7(6)8/h6-7,9H,2-5H2,1H3/t6-,7-,8-/m0/s1
