15
gdb 49959	2.2816	1.27184	0.9874	3.4368	75.46	-0.2521	-0.0592	0.1929	1203.2663	0.108641	-420.595992	-420.586892	-420.585947	-420.630183	32.391	
O	-0.111593849	 0.1115144335	-0.2417856883	-0.25705
C	-0.042263011	 1.2665832992	 0.1006192954	 0.140293
C	 1.2410718141	 2.0258177778	 0.0696043211	-0.129657
C	 1.256764275	 3.5005574795	-0.1813292834	-0.31986
C	 1.6340929669	 3.0315699797	 1.2101932923	 0.026566
C	 0.6397154786	 3.2983030892	 2.3086415442	 0.093238
O	-0.5260617823	 3.5425172793	 2.1231576235	-0.258498
C	 3.0104880437	 3.0242895042	 1.6145028983	 0.22716
C	 4.1525482963	 3.0260261077	 1.9907347367	-0.393151
H	-0.92989126	 1.835328106	 0.4345520145	 0.117805
H	 2.0801182364	 1.4403316694	-0.2887131512	 0.134388
H	 2.0480907383	 3.9059896822	-0.7989879113	 0.149293
H	 0.2953571485	 4.0006266512	-0.2392983722	 0.157702
H	 1.0760760403	 3.265124903	 3.3270933237	 0.105951
H	 5.1647359943	 3.0257974479	 2.3130051266	 0.20582
86.2825	102.6525	123.5954	153.0652	217.4247	246.7702	323.5029	353.3785	441.876	520.4039	530.4973	560.4791	603.3746	671.8123	714.5733	783.11	874.908	934.9978	994.2956	1039.6975	1051.4619	1073.6547	1103.9314	1173.6201	1235.2502	1265.8021	1341.9699	1423.1492	1437.7171	1463.7759	1807.6578	1811.8289	2237.8964	2935.6452	2969.3595	3142.2061	3190.9184	3245.0839	3500.2188
O=CC1CC1(C=O)C#C	O=C[C@H]1C[C@]1(C=O)C#C	
InChI=1S/C7H6O2/c1-2-7(5-9)3-6(7)4-8/h1,4-6H,3H2	InChI=1S/C7H6O2/c1-2-7(5-9)3-6(7)4-8/h1,4-6H,3H2/t6-,7+/m1/s1
