15
gdb 68119	2.92793	1.33393	1.12178	4.3938	69.49	-0.2575	-0.0469	0.2106	1101.3014	0.108832	-457.716138	-457.70759	-457.706646	-457.749561	30.601	
C	 0.0804564698	 1.4696161844	 0.1004927162	-0.516811
C	-0.0468967765	-0.0039151131	-0.0899954763	 0.26985
C	 0.5570326913	-0.9473439534	-1.1671552483	-0.308111
C	 0.0230081063	-1.8759957586	-0.0458568012	 0.194142
O	 0.5255571394	-0.9151770464	 0.9531522596	-0.339153
C	 0.2022474511	-3.3356085153	 0.1566378328	 0.037714
O	 0.6282846473	-3.8353475915	 1.1650444367	-0.234401
C	-1.2703092079	-0.9556528406	-0.0232534698	 0.397044
O	-2.4427963522	-0.9875449297	 0.1210693037	-0.290046
H	 1.1322564006	 1.7685569794	 0.1190790138	 0.146291
H	-0.4178627029	 1.9951854957	-0.719469733	 0.144081
H	-0.387880846	 1.7717034078	 1.0410955751	 0.155341
H	 0.0935553611	-0.9869349995	-2.156051295	 0.121718
H	 1.6477351525	-0.9112642279	-1.1969855475	 0.132929
H	-0.120662194	-3.9421189713	-0.7187132268	 0.089412
83.2423	143.3683	156.5343	187.4303	207.8294	215.6561	320.8115	432.2017	513.6927	532.7717	629.2073	668.1523	708.9839	791.1851	804.5886	839.5405	919.982	970.627	1025.3185	1028.1362	1081.559	1119.5052	1154.4187	1173.5445	1247.4799	1372.8118	1416.9732	1428.4722	1474.1809	1482.6293	1485.4741	1818.6028	1937.5497	2886.2136	3047.5537	3065.628	3122.4269	3127.6632	3149.7154
CC12CC(O1)(C=O)C2=O	C[C@@]12C[C@](O1)(C=O)C2=O	
InChI=1S/C6H6O3/c1-5-2-6(3-7,9-5)4(5)8/h3H,2H2,1H3	InChI=1S/C6H6O3/c1-5-2-6(3-7,9-5)4(5)8/h3H,2H2,1H3/t5-,6-/m0/s1
