18
gdb 128768	3.2072	1.05048	0.80752	3.5067	76.45	-0.1924	0.0285	0.221	1404.6732	0.148651	-435.264566	-435.255175	-435.254231	-435.299791	33.017	
C	 0.0692165104	 1.335970172	-0.1118552146	-0.225245
O	-0.0595114436	-0.0561204728	-0.2922102649	-0.243303
C	-1.2654537458	-0.5708045198	 0.2413755827	-0.183355
C	-1.2426888265	-2.0548032087	 0.1081086203	 0.320659
C	-2.2479766753	-2.9992065393	-0.0151407663	 0.068843
N	-3.640064086	-2.7829348324	-0.0204315891	-0.61423
C	-1.5654931315	-4.2385277058	-0.0367525166	-0.059145
N	-0.2453530985	-4.0822506522	 0.0565613255	-0.22962
N	-0.0762649244	-2.7593355131	 0.1621556084	-0.24225
H	 1.0302328736	 1.6316628017	-0.5384808837	 0.132595
H	-0.7332055814	 1.8876070266	-0.625554736	 0.109087
H	 0.049378397	 1.6124991426	 0.9537523512	 0.109878
H	-1.3641759356	-0.2626063375	 1.298235438	 0.10813
H	-2.1404121565	-0.1529037837	-0.2870223215	 0.093079
H	-3.8980012442	-1.9249249556	-0.4942439294	 0.237882
H	-4.1342522236	-3.5481543071	-0.4624940684	 0.243728
H	-1.9894886712	-5.2293202503	-0.118418288	 0.099135
H	 0.8469480332	-2.3605845446	 0.1520658224	 0.274131
42.674	87.0682	118.1991	132.203	221.6051	239.588	278.5426	334.533	353.0566	486.9305	511.2425	656.2819	675.567	703.1946	776.3648	807.1785	851.6304	961.2094	982.2323	1031.0912	1077.9098	1150.0313	1155.4944	1182.6107	1212.9608	1225.7084	1256.1569	1272.6797	1305.6567	1405.5619	1409.2241	1456.0992	1480.4644	1485.8084	1502.1243	1522.8912	1543.9222	1645.0499	1659.2677	2932.2574	2953.8511	2976.514	3022.499	3120.8573	3236.5234	3518.6663	3607.4244	3681.5315
COCC1=C(N)C=NN1	COCc1c(N)cn[nH]1	
InChI=1S/C5H9N3O/c1-9-3-5-4(6)2-7-8-5/h2H,3,6H2,1H3,(H,7,8)	InChI=1S/C5H9N3O/c1-9-3-5-4(6)2-7-8-5/h2H,3,6H2,1H3,(H,7,8)
