18
gdb 88350	2.14654	1.40624	0.93466	1.612	84.23	-0.2364	0.0231	0.2595	1273.1473	0.143696	-364.697996	-364.688206	-364.687262	-364.73275	36.154	
C	-0.6003589818	 1.4319315593	 0.1775187203	-0.418183
C	-0.1453245369	-0.0109502028	 0.1280631275	 0.034667
C	 1.222074003	-0.3845473809	-0.3352225599	-0.249631
N	 0.8310905238	-0.595833613	 1.0576080071	-0.075805
C	 1.4715371003	 0.2720361499	 2.0613456624	-0.375541
C	 0.5898806042	 0.4275076612	 3.2259391723	 0.36371
C	-0.1400297652	 0.5796230884	 4.1667681243	-0.439321
C	 2.7680207542	-0.3023030758	 2.4445372345	 0.360228
C	 3.8413337806	-0.7513653065	 2.7392655753	-0.425371
H	 0.2309120723	 2.1371001947	 0.2569480448	 0.121027
H	-1.1431468597	 1.6737506664	-0.7421135208	 0.12366
H	-1.2756331803	 1.6032878374	 1.0216548487	 0.138691
H	-0.9525538382	-0.7100502303	-0.0845438668	 0.096579
H	 1.4026262486	-1.2847391578	-0.9158899079	 0.11921
H	 1.9054179496	 0.4364168351	-0.5518686937	 0.110862
H	 1.6738767255	 1.282592503	 1.6641983042	 0.115716
H	-0.7794807313	 0.7034587941	 5.0056659591	 0.200328
H	 4.7849535214	-1.1570538922	 3.0091851387	 0.199174
54.4285	114.8671	124.9863	160.3507	186.4506	247.9757	309.4236	337.7026	408.1742	430.5422	500.664	559.0882	560.4718	631.7882	634.2054	659.4832	660.8862	776.4524	819.4681	907.6688	910.6595	970.8738	1019.5183	1043.1669	1074.9675	1115.7595	1142.7804	1160.717	1190.291	1310.1842	1319.8216	1323.8461	1403.3834	1419.5828	1493.8242	1497.7137	1509.8938	2243.9942	2248.4463	2935.6122	3041.5817	3089.3066	3102.7586	3108.7192	3126.5863	3179.4462	3502.9867	3503.8987
CC1CN1C(C#C)C#C	C[C@H]1CN1C(C#C)C#C	
InChI=1S/C8H9N/c1-4-8(5-2)9-6-7(9)3/h1-2,7-8H,6H2,3H3	InChI=1S/C8H9N/c1-4-8(5-2)9-6-7(9)3/h1-2,7-8H,6H2,3H3/t7-,9?/m0/s1
