21
gdb 33076	4.72478	0.74809	0.68005	0.6491	87.18	-0.207	0.0276	0.2346	1735.7892	0.182001	-387.138519	-387.128836	-387.127891	-387.173868	35.099	
C	 0.0680377345	 1.5685129117	 0.016584823	-0.379064
C	 0.0205702084	 0.0404793511	 0.0845046018	-0.150979
C	-1.4037041233	-0.5212495381	-0.0827703266	-0.311566
C	-1.4705420511	-2.0173158741	-0.0072709142	 0.273193
C	-1.7556090185	-2.8833729264	-1.0148124953	-0.127239
O	-1.7079063604	-4.1752522988	-0.5805765422	-0.18229
C	-1.3832774097	-4.1412759137	 0.7436472444	 0.380388
C	-1.2764027092	-5.4500732277	 1.4406005153	-0.488343
C	-1.2267236008	-2.8506392406	 1.1427040898	-0.381592
H	 1.0899372249	 1.9416426104	 0.1361786326	 0.111453
H	-0.3094854171	 1.9345585336	-0.9449186169	 0.113264
H	-0.5458154828	 2.0202363202	 0.8040903608	 0.112939
H	 0.6641388066	-0.3898722969	-0.6923149972	 0.100049
H	 0.4324265792	-0.3011641753	 1.0421466794	 0.098566
H	-2.0496330403	-0.0817945143	 0.6897838026	 0.102044
H	-1.8107371916	-0.18744223	-1.0452064098	 0.097321
H	-2.0086161045	-2.747125612	-2.0538273642	 0.125194
H	-0.5078619119	-6.0864296072	 0.9869154622	 0.136713
H	-1.0133422963	-5.2917970775	 2.488794355	 0.133446
H	-2.2214048574	-6.0041650438	 1.4042005124	 0.136714
H	-0.9719764887	-2.5224114006	 2.139388487	 0.099788
55.673	84.0119	94.3935	126.7107	217.373	245.0227	265.5934	310.5212	373.9122	399.1099	611.154	636.0172	670.013	732.5601	745.3318	760.9573	812.5937	874.7585	897.5532	942.8903	995.9062	1017.5618	1044.6751	1064.518	1089.9881	1112.7833	1161.9213	1171.2763	1232.4285	1265.0192	1292.1875	1318.1308	1325.5498	1385.4238	1407.894	1412.3794	1415.5403	1472.7376	1480.4065	1490.7056	1492.5499	1499.6652	1510.447	1588.8718	1660.3932	3009.1929	3027.2391	3029.3734	3029.73	3044.4539	3066.3317	3079.0148	3095.9888	3101.661	3128.6953	3243.3363	3269.1674
CCCC1=COC(C)=C1	CCCc1coc(C)c1	
InChI=1S/C8H12O/c1-3-4-8-5-7(2)9-6-8/h5-6H,3-4H2,1-2H3	InChI=1S/C8H12O/c1-3-4-8-5-7(2)9-6-8/h5-6H,3-4H2,1-2H3
