19
gdb 42084	3.78468	1.28259	1.24409	0.9962	76.05	-0.2394	0.0289	0.2683	1088.3696	0.160406	-423.041857	-423.034105	-423.033161	-423.075113	29.766	
C	 0.0384007765	 1.1845808888	 0.3551446389	-0.109565
C	 1.1539137388	 1.9685392595	-0.3312426067	-0.096318
O	 2.1279710789	 0.9656562958	-0.5860604674	-0.305182
C	 1.4882211101	-0.3095785584	-0.5798150769	 0.484384
C	 1.599371304	-1.0585366548	-1.9318307022	-0.320144
C	 1.9632896321	-2.465149738	-1.5373128518	-0.063039
C	 2.2465296706	-2.5696989665	-0.239368596	-0.064375
C	 2.1357772035	-1.2499904024	 0.4767036704	-0.308475
O	 0.1151468439	-0.0702456274	-0.3018178123	-0.282501
H	 0.2265421407	 1.0861364061	 1.4351834549	 0.097499
H	-0.9619416096	 1.5956469523	 0.2020721007	 0.114526
H	 0.8032509914	 2.4216781444	-1.2695862496	 0.100382
H	 1.599443571	 2.7461544161	 0.2958059492	 0.109664
H	 0.6536063518	-0.9857967909	-2.4782999372	 0.115459
H	 2.3739684737	-0.5874812233	-2.5486690731	 0.11898
H	 1.999059864	-3.2786978257	-2.2530873896	 0.091607
H	 2.546753793	-3.4821649588	 0.2635409393	 0.09127
H	 3.1174583394	-0.8595801975	 0.7703972019	 0.117738
H	 1.5167882362	-1.2929512392	 1.3800100075	 0.108089
45.6871	56.1482	213.1518	316.4431	378.081	385.8668	436.0884	480.2065	652.2172	676.8203	746.3269	779.0314	800.3191	856.4225	913.121	932.2587	953.1312	965.8027	978.455	987.3001	1044.6755	1062.8228	1076.4364	1125.036	1129.1293	1149.1174	1165.7841	1183.1057	1216.0454	1238.9844	1251.1288	1287.3922	1350.2516	1373.4354	1375.7492	1384.6367	1463.3174	1470.2092	1511.7126	1522.2774	1688.3743	2987.3986	3002.4112	3031.525	3036.6748	3069.2148	3079.4637	3085.7852	3106.2966	3182.046	3206.8688
C1COC2(CC=CC2)O1	C1COC2(CC=CC2)O1	
InChI=1S/C7H10O2/c1-2-4-7(3-1)8-5-6-9-7/h1-2H,3-6H2	InChI=1S/C7H10O2/c1-2-4-7(3-1)8-5-6-9-7/h1-2H,3-6H2
