20
gdb 40801	3.79531	1.11651	0.95019	0.6935	80.61	-0.2402	0.0268	0.267	1272.7554	0.172805	-403.12109	-403.112916	-403.111971	-403.154544	31.32	
C	 1.0870391219	 0.9446276642	-0.1257623955	-0.23039
N	 0.2426550301	 0.0798080309	-0.9685760962	-0.32228
C	-0.2247552693	 0.4623157107	 0.3707654708	-0.040396
C	-0.4053856752	-0.6446053069	 1.3869981964	 0.137466
C	 0.6126041528	-1.7866242353	 1.3251421299	-0.261697
C	 0.463137974	-2.6613736681	 2.5423713111	-0.073122
C	-0.1973884196	-2.2516684081	 3.622356981	-0.062429
C	-0.7956764212	-0.8751405873	 3.7106883751	-0.114651
O	-0.3761612142	-0.0174435448	 2.6671213108	-0.2692
H	 2.0125637853	 0.48947773	 0.2122400433	 0.12218
H	 1.1712864699	 1.9993148044	-0.3744737708	 0.111523
H	-0.2310647688	 0.630138453	-1.6788727814	 0.233385
H	-1.0086243282	 1.2150156858	 0.4370641751	 0.087764
H	-1.4075185453	-1.082755914	 1.2292257041	 0.065091
H	 0.4589196984	-2.3612004125	 0.4060756362	 0.122194
H	 1.6353733423	-1.391481787	 1.2715465105	 0.111583
H	 0.9084388894	-3.6522484297	 2.5111571065	 0.087777
H	-0.3323705111	-2.8983937844	 4.4853725801	 0.088122
H	-1.8999128226	-0.9464342937	 3.7342698784	 0.09278
H	-0.4947807387	-0.3845177269	 4.6445789746	 0.1143
40.0896	125.5778	183.2877	200.7242	281.7717	387.9198	402.2717	480.9988	538.6578	563.0818	671.8338	750.2225	846.6883	862.0514	899.872	917.3244	932.4547	954.3134	970.6318	995.3304	1016.2151	1042.0272	1052.99	1069.1135	1116.3587	1120.9015	1144.7672	1188.8027	1208.7096	1235.1344	1256.27	1266.4941	1288.3788	1323.6924	1366.0818	1394.9127	1407.3849	1416.4737	1447.4441	1468.9668	1488.4037	1518.1465	1726.9659	2922.9272	2937.3393	3028.1126	3044.0494	3078.9788	3113.5191	3121.8413	3150.9303	3174.1386	3198.4467	3512.7364
C1NC1C1CC=CCO1	C1N[C@H]1[C@H]1CC=CCO1	
InChI=1S/C7H11NO/c1-2-4-9-7(3-1)6-5-8-6/h1-2,6-8H,3-5H2	InChI=1S/C7H11NO/c1-2-4-9-7(3-1)6-5-8-6/h1-2,6-8H,3-5H2/t6-,7-/m1/s1
