15
gdb 18855	3.59466	2.40919	2.03453	4.3275	63.34	-0.2382	-0.0017	0.2366	713.9946	0.121324	-362.655598	-362.649715	-362.64877	-362.685482	23.439	
O	-0.001025895	 0.0287738079	 0.0239949706	-0.313688
C	-0.0408768724	 1.2194263738	 0.0526632953	 0.422515
C	-1.1424838787	 2.2856212504	 0.0297069397	-0.19078
C	-1.5105434582	 2.6377136032	 1.4854714552	-0.2148
C	-0.146506693	 3.0135851227	 2.1213674474	-0.24693
C	 0.7565234809	 3.298372286	 0.9244962676	-0.013272
C	 0.0176586903	 3.2420998774	-0.3363869921	-0.048451
N	 1.0658953794	 2.1578527395	-0.0279186878	-0.204878
H	-1.9770436792	 2.1341898243	-0.6529767708	 0.099821
H	-2.1965814417	 3.4906204367	 1.4968665889	 0.112034
H	-2.0002646832	 1.8028830501	 1.9930418038	 0.123784
H	-0.2194573793	 3.8997011781	 2.7582483156	 0.11375
H	 0.2615186039	 2.2047856529	 2.735789567	 0.129218
H	 1.6216647468	 3.9415663537	 1.0416762667	 0.11437
H	 0.1226338295	 3.8685974732	-1.211227617	 0.117305
136.0012	225.695	360.9501	477.1917	542.4516	626.7462	699.0075	727.4861	805.8692	826.5086	839.1432	862.0883	898.902	905.9069	961.7693	992.8798	1021.1531	1052.0121	1072.1107	1086.7604	1150.902	1187.3825	1225.1348	1240.0831	1264.1477	1277.6281	1310.628	1342.9029	1392.6469	1484.8529	1500.7857	1909.5472	3051.9529	3057.8686	3093.4112	3111.8608	3136.1207	3178.7109	3218.0074
O=C1C2CCC3C2N13	O=C1[C@H]2CC[C@@H]3[C@H]2N13	
InChI=1S/C6H7NO/c8-6-3-1-2-4-5(3)7(4)6/h3-5H,1-2H2	InChI=1S/C6H7NO/c8-6-3-1-2-4-5(3)7(4)6/h3-5H,1-2H2/t3-,4+,5-,7?/m0/s1
