16
gdb 21005	3.79687	1.75932	1.21754	1.8522	69.84	-0.1776	0.0398	0.2174	971.8545	0.132363	-376.11412	-376.105703	-376.104759	-376.147079	30.193	
C	 0.0254603848	 1.3875444078	 0.0845075729	-0.314315
N	-0.0616976192	-0.0482687347	-0.0034088056	 0.049543
C	-0.0855480994	-0.8152953181	-1.129429235	-0.109039
C	-0.006860395	-2.1316353799	-0.7238857721	 0.104995
N	-0.0780110804	-3.334986738	-1.4586944582	-0.621384
C	 0.0727622808	-2.0542239536	 0.6890810172	 0.343134
N	 0.2179201253	-3.1498999685	 1.549247867	-0.60132
N	 0.0504677178	-0.797300096	 1.1197618332	-0.351012
H	 1.064907045	 1.7325100697	 0.1536810183	 0.131803
H	-0.4360465864	 1.8317991036	-0.8007177519	 0.130143
H	-0.5122162621	 1.7214765793	 0.9743589133	 0.147828
H	-0.1620079589	-0.3755565423	-2.1118147978	 0.113171
H	-0.0217427574	-3.1759809695	-2.4571388046	 0.237665
H	 0.674490608	-3.9644923513	-1.1968273991	 0.245607
H	-0.4556260624	-3.879562957	 1.3418945351	 0.24613
H	 0.1219112096	-2.8640247817	 2.5163914674	 0.247051
77.5977	103.1925	139.9306	230.4223	273.3456	296.5034	323.7149	351.316	521.7022	598.3545	619.6834	654.9863	701.8806	743.3304	812.681	836.2125	847.3066	1007.2899	1070.7582	1118.4625	1147.9549	1150.7009	1218.4989	1292.8091	1356.3609	1437.5599	1462.5803	1474.8686	1485.7015	1522.0085	1562.2374	1624.5552	1645.6373	1665.939	3020.1695	3096.3303	3137.6777	3250.6697	3500.2421	3511.1478	3598.7447	3609.6747
CN1C=C(N)C(N)=N1	Cn1cc(N)c(N)n1	
InChI=1S/C4H8N4/c1-8-2-3(5)4(6)7-8/h2H,5H2,1H3,(H2,6,7)	InChI=1S/C4H8N4/c1-8-2-3(5)4(6)7-8/h2H,5H2,1H3,(H2,6,7)
