17
gdb 94968	3.51873	1.38113	1.17692	4.0835	69.5	-0.2351	0.0276	0.2628	1048.9101	0.137157	-455.127838	-455.119927	-455.118983	-455.160333	30.214	
O	 0.0301481103	 1.3249596851	 0.2647994834	-0.434207
C	-0.016357977	-0.0562188177	-0.0494194368	 0.107683
C	 0.5303769494	-0.9526866141	 1.0801207718	-0.128855
O	-0.5187917259	-1.0581434344	 2.0347164858	-0.241565
C	-1.721144491	-1.1345093391	 1.313027071	 0.032375
C	-1.5054513306	-0.4294733697	-0.0718245278	-0.019836
N	-1.861189807	-1.7029759779	-0.6975539326	-0.337234
C	-1.9447709306	-2.4261194111	 0.4885179149	 0.347792
N	-2.1076294343	-3.6327509807	 0.8247577886	-0.549259
H	 0.9278729661	 1.5498670254	 0.527521689	 0.287573
H	 0.4806665745	-0.2690876461	-1.0078895227	 0.067047
H	 0.8033657512	-1.9417014338	 0.6826188988	 0.106689
H	 1.4049617454	-0.5287083769	 1.5826217524	 0.105452
H	-2.546303875	-0.8227756879	 1.952083756	 0.110561
H	-2.130171968	 0.42085344	-0.3497975702	 0.099742
H	-1.6628893666	-2.0289694286	-1.6322649036	 0.239022
H	-2.1784848508	-4.2493106027	 0.0124088321	 0.207019
77.43	140.3992	239.2691	269.7878	279.9087	337.0881	379.5012	448.9463	461.1985	636.3971	701.686	768.5085	805.616	839.2987	853.857	861.4195	946.3037	977.1386	995.4224	1024.3683	1036.0065	1076.8578	1118.2943	1141.4827	1164.423	1198.4043	1229.3994	1243.8875	1289.2973	1323.8377	1336.0554	1351.8424	1370.983	1381.2015	1417.0622	1498.5103	1796.8288	2985.582	3003.6692	3085.4158	3102.8042	3132.9526	3448.0729	3602.4646	3826.0454
OC1COC2C1NC2=N	O[C@H]1CO[C@H]2[C@@H]1N[C]2[NH]	
InChI=1S/C5H8N2O2/c6-5-4-3(7-5)2(8)1-9-4/h2-4,8H,1H2,(H2,6,7)	InChI=1S/C5H8N2O2/c6-5-4-3(7-5)2(8)1-9-4/h2-4,8H,1H2,(H2,6,7)/t2-,3+,4-/m0/s1
