15
gdb 35450	2.51651	1.41631	1.09966	4.3384	76.66	-0.2652	-0.0109	0.2543	1105.4367	0.112251	-379.598256	-379.590292	-379.589348	-379.630916	29.923	
C	-0.0314161926	-1.2876892159	 0.0342427299	-0.442687
C	 0.0017124615	-0.0862545708	 0.0100339811	 0.321344
C	 0.0434992475	 1.3614941664	 0.0161975891	-0.26446
C	-0.1696103073	 2.1357731881	 1.3587249339	-0.172834
N	 1.1412500831	 2.8635668815	 1.2345175006	-0.14824
C	 2.1760612498	 1.824206967	 1.2323030187	-0.271897
C	 1.4269306077	 2.0485496921	-0.0268498737	 0.19857
C	 2.0115051469	 2.5997351107	-1.2105686063	 0.217755
N	 2.4666412502	 3.0191942347	-2.1879962751	-0.333124
H	-0.061817964	-2.3495465042	 0.0407726743	 0.208857
H	-0.6052260982	 1.7680007511	-0.7631810523	 0.135053
H	-0.9991705891	 2.8415494982	 1.3196690782	 0.133737
H	-0.2429653938	 1.5228977406	 2.2602433633	 0.128249
H	 3.1827464193	 2.2250509273	 1.2813454812	 0.150846
H	 2.0123537992	 0.896553143	 1.7763641471	 0.138831
91.8704	129.4132	164.953	212.2708	304.3191	434.6691	454.7627	485.9409	539.0145	567.1856	636.1081	653.2308	661.918	729.2789	786.6565	849.5578	872.8711	974.6818	1006.2839	1052.4251	1076.7971	1115.2118	1136.2409	1194.3942	1204.7831	1221.5201	1300.3039	1321.0971	1378.1273	1489.2789	1507.4919	2237.3787	2349.9341	3074.5817	3084.9707	3112.5379	3143.3366	3216.4711	3500.5086
C#CC1CN2CC12C#N	C#C[C@H]1CN2C[C@@]12C#N	
InChI=1S/C7H6N2/c1-2-6-3-9-5-7(6,9)4-8/h1,6H,3,5H2	InChI=1S/C7H6N2/c1-2-6-3-9-5-7(6,9)4-8/h1,6H,3,5H2/t6-,7-,9?/m0/s1
