20
gdb 46784	2.77507	1.56268	1.20599	3.8906	78.86	-0.2346	0.0393	0.2739	1076.8707	0.174441	-403.181117	-403.173322	-403.172377	-403.213959	30.461	
O	-0.0806616447	 0.224899367	 0.9529970127	-0.382853
C	-0.1003106806	 1.2372039304	 0.2707759887	 0.373693
C	-1.3755371716	 1.5635527034	-0.5106072293	-0.304933
C	-1.4722345479	 2.8069834907	-1.3832157374	-0.011566
C	-0.2777767348	 2.9817997374	-2.3621424916	-0.238109
C	 0.3696957603	 3.936139294	-1.3217829525	 0.000801
C	-1.0276999626	 4.1128913423	-0.6672760411	-0.2381
C	 1.4060059581	 3.2799040885	-0.4253016555	-0.16581
N	 1.0150610947	 2.0358788418	 0.2321868295	-0.306367
H	-1.5672296293	 0.6689304306	-1.1149661234	 0.132094
H	-2.1687696583	 1.5775675545	 0.2463330373	 0.132065
H	-2.4653357902	 2.8329217753	-1.8399410267	 0.070456
H	 0.2807027572	 2.0829453221	-2.6402907298	 0.101185
H	-0.5652268761	 3.5120660842	-3.2734720931	 0.100591
H	 0.8263922456	 4.8441498972	-1.7257017826	 0.073703
H	-1.5471680992	 4.9930734053	-1.0542705326	 0.10059
H	-1.0758867013	 4.1290846327	 0.4257117931	 0.101171
H	 2.3071785531	 3.0834255103	-1.0247160411	 0.10963
H	 1.6984278278	 4.0019159451	 0.3513501599	 0.109622
H	 1.7336736199	 1.6322369372	 0.8187178354	 0.242136
62.1617	73.8971	270.3048	292.3871	343.6441	347.8341	467.4905	521.3902	528.5493	674.7934	699.0659	762.1153	805.8425	808.6809	846.5053	881.3477	886.516	895.9921	978.4667	1004.552	1069.7882	1074.4332	1102.4288	1114.2501	1137.7128	1173.9461	1177.6	1235.2317	1256.6244	1283.6476	1286.4574	1322.9748	1326.1693	1349.9828	1356.8107	1389.1573	1419.2071	1453.659	1474.5337	1493.3647	1501.6509	1528.002	1756.1988	2985.4432	3009.907	3037.8999	3050.2589	3051.0533	3063.5793	3068.2062	3073.3158	3105.5621	3108.3272	3581.864
O=C1CC2CC(C2)CN1	O=C1C[C@@H]2C[C@@H](C2)CN1	
InChI=1S/C7H11NO/c9-7-3-5-1-6(2-5)4-8-7/h5-6H,1-4H2,(H,8,9)	InChI=1S/C7H11NO/c9-7-3-5-1-6(2-5)4-8-7/h5-6H,1-4H2,(H,8,9)/t5-,6+
