17
gdb 97030	3.39009	1.38325	1.05805	3.4162	79.35	-0.2108	-0.011	0.1998	1130.6746	0.137157	-418.003302	-417.995406	-417.994462	-418.035698	30.19	
C	 0.157991441	 1.3879110257	 0.210876162	-0.345282
N	 0.1768300597	-0.0594829731	 0.1092865449	-0.302698
C	 0.4836370333	-0.5873696913	-1.0124772002	 0.441339
N	 0.833513775	 0.100060918	-2.1696694507	-0.391989
C	 0.9028028848	-0.4767850437	-3.4301669675	 0.018383
C	 0.7446300406	-1.7898899665	-3.6431684375	-0.147231
C	 0.5787044989	-2.6871657663	-2.485358285	 0.006443
O	 1.6697881397	-2.7097746503	-1.536741248	-0.254682
C	 0.4535994115	-2.0729453836	-1.1418531266	-0.064711
H	 1.1645857299	 1.8249147599	 0.1117579533	 0.116369
H	-0.4867306048	 1.8642195334	-0.5470718561	 0.104713
H	-0.2241513853	 1.6766903978	 1.1928489404	 0.130628
H	 0.8827107181	 1.1030285063	-2.1111662533	 0.255386
H	 1.0853569002	 0.2276557331	-4.2334377362	 0.122385
H	 0.7941877162	-2.1931790791	-4.6455360856	 0.101986
H	 0.1257668264	-3.6622988147	-2.6508662209	 0.097051
H	-0.094757875	-2.5632678556	-0.3417288229	 0.111911
96.0074	145.1022	198.2271	237.0245	319.1223	342.8935	422.8198	477.9205	546.4994	570.0909	630.6963	709.4985	733.3543	783.8399	820.9886	860.8003	932.3259	962.4026	991.2668	1037.6466	1048.7651	1101.5111	1103.727	1135.7418	1169.1333	1230.0908	1260.3737	1311.6386	1382.7429	1414.9176	1428.9489	1436.6131	1473.925	1507.118	1513.9109	1704.2237	1730.5003	2954.4091	3003.1579	3102.178	3135.1503	3156.348	3197.0272	3224.992	3659.4736
CN=C1NC=CC2OC12	CN=C1NC=C[C@H]2O[C@@H]12	
InChI=1S/C6H8N2O/c1-7-6-5-4(9-5)2-3-8-6/h2-5H,1H3,(H,7,8)	InChI=1S/C6H8N2O/c1-7-6-5-4(9-5)2-3-8-6/h2-5H,1H3,(H,7,8)/t4-,5-/m1/s1
