17
gdb 30993	3.29875	1.20485	0.90666	5.1055	74.33	-0.1667	0.045	0.2116	1250.9577	0.138017	-451.33864	-451.329844	-451.3289	-451.371865	33.259	
N	-0.900464454	 0.7912442545	 0.1598535471	-0.508228
C	 0.4188516368	 0.2150016935	-0.1440837838	-0.2774
C	 1.0021652356	-0.3875160138	 1.0894679352	 0.212219
C	 0.4063004483	-0.9255061961	 2.1664447094	 0.281782
N	-0.9122413408	-1.1793554792	 2.4967748381	-0.596408
O	 1.3567724811	-1.4226269389	 3.03998223	-0.23214
C	 2.6105045036	-1.1698545225	 2.5019221531	 0.450512
N	 3.7295647028	-1.3879964513	 3.0559716848	-0.605287
N	 2.3910616817	-0.6348942561	 1.2520632905	-0.405103
H	-0.7828186285	 1.6370167141	 0.7098133485	 0.235897
H	-1.3679411169	 1.0596254058	-0.6997814779	 0.237374
H	 0.272776774	-0.544111687	-0.9263925955	 0.125522
H	 1.1330804599	 0.9459447872	-0.5636696434	 0.091387
H	-1.5198973947	-0.6508953997	 1.8768651831	 0.260368
H	-1.1141069568	-0.9838861143	 3.4712383687	 0.247607
H	 3.5984244781	-1.7949700731	 3.9778676813	 0.220792
H	 3.1145497499	-0.0834864332	 0.8219341308	 0.261107
87.4118	155.3862	195.712	213.9676	281.1462	297.1692	320.2241	368.9237	407.3012	419.3746	535.3639	628.0295	653.6752	702.6793	710.7314	743.1843	815.8649	841.1017	875.7726	952.9273	990.6409	1039.7291	1067.4558	1079.7557	1173.2843	1220.0992	1247.6717	1315.4155	1337.978	1378.1568	1404.9011	1465.6117	1509.9267	1623.9568	1649.424	1764.5296	1811.6509	2936.1259	3001.8267	3488.1688	3496.5057	3541.9352	3579.328	3589.132	3663.2887
NCC1=C(N)OC(=N)N1	NCC1=C(N)O[C@H]([NH])N1	
InChI=1S/C4H8N4O/c5-1-2-3(6)9-4(7)8-2/h1,5-6H2,(H2,7,8)	InChI=1S/C4H9N4O/c5-1-2-3(6)9-4(7)8-2/h4,7-8H,1,5-6H2/t4-/m1/s1
