21
gdb 94120	3.81667	0.79448	0.74954	1.8504	78.86	-0.2505	-0.0228	0.2277	1553.8934	0.1819	-424.248412	-424.238941	-424.237997	-424.284137	34.618	
O	 0.1292318166	 1.4308120715	-0.0830943303	-0.436362
C	 0.0650107946	 0.0089567732	-0.0495061692	 0.147173
C	 0.7550088044	-0.5881322365	 1.197325606	-0.235651
C	-0.3808692416	-0.7493942249	 2.2174116516	-0.224739
C	-1.5407189274	-1.2882146402	 1.3552681673	 0.033715
C	-2.9317577079	-1.1679043629	 1.996312327	-0.298911
C	-3.0741179297	-2.0364668302	 3.225154662	 0.164154
O	-3.4000388447	-1.6483904203	 4.3171557008	-0.241192
C	-1.399026175	-0.5196649521	 0.0164277901	-0.264868
H	-0.2756943503	 1.7690215578	 0.7228328045	 0.275495
H	 0.5655905931	-0.3000248015	-0.9704350138	 0.086184
H	 1.1690852126	-1.5745127883	 0.9545905865	 0.098898
H	 1.5808908552	 0.0447415786	 1.5312481637	 0.105802
H	-0.1264805673	-1.4026936039	 3.056986309	 0.106586
H	-0.6575353313	 0.2235410784	 2.6485673737	 0.094897
H	-1.3445958747	-2.3529218418	 1.1649111051	 0.077041
H	-3.1577809804	-0.1319816414	 2.2695951166	 0.11499
H	-3.6903072952	-1.5017098795	 1.2728044011	 0.11914
H	-2.8430760281	-3.1147106644	 3.0478286709	 0.068612
H	-2.0736280445	 0.343144839	-0.0170783572	 0.10411
H	-1.6531365183	-1.1486121207	-0.8415053152	 0.104926
35.3235	56.274	92.4129	162.9986	211.6142	285.5346	314.4864	380.2418	426.4284	448.3014	495.3352	575.7325	665.8937	775.9226	815.9563	829.8324	880.8883	914.7027	941.5922	979.749	1004.183	1023.0463	1034.2064	1060.278	1106.9768	1126.9633	1144.919	1180.0617	1205.3425	1251.1337	1267.6822	1283.0046	1300.0541	1316.864	1331.9006	1344.67	1355.9191	1386.7241	1429.6238	1437.5408	1461.5996	1481.5967	1486.7472	1502.4152	1835.7289	2841.8223	2998.7577	3008.5798	3013.0676	3034.7411	3044.9658	3077.032	3084.8599	3087.0122	3096.062	3104.5147	3805.1975
OC1CCC(CC=O)C1	O[C@H]1CC[C@@H](CC=O)C1	
InChI=1S/C7H12O2/c8-4-3-6-1-2-7(9)5-6/h4,6-7,9H,1-3,5H2	InChI=1S/C7H12O2/c8-4-3-6-1-2-7(9)5-6/h4,6-7,9H,1-3,5H2/t6-,7-/m0/s1
