14
gdb 8647	2.50054	1.81317	1.40999	4.86	62.63	-0.2633	-0.0161	0.2472	922.3186	0.107147	-374.898164	-374.889433	-374.888489	-374.931093	30.793	
N	-0.0913193583	 1.4651902084	 0.071492897	-0.498929
C	 0.0713899548	 0.0327161633	-0.0486509084	-0.150948
C	 0.8595863591	-0.497396075	 1.183691908	-0.06748
N	 2.1963597636	 0.1136783673	 1.176063084	-0.514567
C	 0.1736224479	-0.1133305059	 2.4336311993	 0.341875
N	-0.3481768776	 0.1459873181	 3.4296213538	-0.318202
C	 0.9147729676	-1.9801740614	 1.1127183874	 0.275568
N	 1.0142528076	-3.1260374295	 1.0023881168	-0.321324
H	 0.8076310979	 1.9300333945	 0.0164063588	 0.247884
H	-0.6881512445	 1.8240139181	-0.6637850014	 0.242957
H	-0.9112464942	-0.4470378462	-0.0650593908	 0.142368
H	 0.6229435722	-0.320197949	-0.9380658819	 0.104348
H	 2.6890327733	-0.0973008383	 2.0387567581	 0.262997
H	 2.7377781107	-0.2872283644	 0.4144743693	 0.253453
128.1174	135.59	149.2003	186.0379	231.7556	258.8269	288.8188	331.4159	405.1096	499.5007	532.3973	579.1188	608.0247	698.2082	818.8992	869.9965	929.7371	1030.8984	1035.6418	1101.6624	1137.1009	1219.068	1299.0517	1360.6508	1418.8828	1501.0073	1641.3771	1655.0026	2352.102	2375.1999	2946.2871	3092.504	3494.132	3526.6998	3579.6597	3614.3426
NCC(N)(C#N)C#N	NCC(N)(C#N)C#N	
InChI=1S/C4H6N4/c5-1-4(8,2-6)3-7/h1,5,8H2	InChI=1S/C4H6N4/c5-1-4(8,2-6)3-7/h1,5,8H2
