15
gdb 29724	2.40498	1.66065	0.99108	1.9823	64.1	-0.1744	0.0565	0.2309	1114.0214	0.111719	-491.112689	-491.103379	-491.102435	-491.147571	32.901	
C	-0.0699876088	 1.4711480044	 0.0083809869	-0.342399
N	 0.0404041623	 0.0279068599	 0.0225905075	-0.103646
C	 0.1450062221	-0.8068031936	-1.0316300087	 0.431499
O	 0.1765172699	-0.3032720085	-2.2805159325	-0.427913
N	 0.1996745058	-2.0745260697	-0.701234505	-0.458083
C	 0.1092117773	-2.0770476285	 0.6738595307	 0.246662
O	 0.1450198914	-3.2293854926	 1.3874323329	-0.445556
C	 0.0144215865	-0.8085959922	 1.1609384275	 0.17594
O	-0.1440578115	-0.2770724718	 2.4038888475	-0.434542
H	 0.8191720485	 1.9288900244	-0.435429476	 0.141516
H	-0.9487028055	 1.7915162954	-0.5588998026	 0.145952
H	-0.1708931987	 1.8056316226	 1.0414172267	 0.154112
H	 0.2354669395	-1.0607753146	-2.8757099825	 0.312004
H	 0.2086976134	-3.9420220433	 0.7413702412	 0.298337
H	 0.6766545981	-0.3743169818	 2.9006400965	 0.306117
21.2205	124.9311	206.2958	222.6958	262.8209	274.418	288.3468	304.124	327.2707	351.6775	394.2371	582.721	639.0878	645.0934	663.9722	715.8041	752.8915	930.6563	1067.7078	1149.4187	1155.3386	1190.7705	1253.2502	1270.0457	1344.2196	1371.6815	1441.2515	1452.5847	1491.6386	1512.3799	1595.1297	1602.215	1737.5982	3044.1625	3103.5945	3152.9684	3768.6697	3809.3672	3816.5192
CN1C(O)=NC(O)=C1O	Cn1c(O)nc(O)c1O	
InChI=1S/C4H6N2O3/c1-6-3(8)2(7)5-4(6)9/h7-8H,1H3,(H,5,9)	InChI=1S/C4H6N2O3/c1-6-3(8)2(7)5-4(6)9/h7-8H,1H3,(H,5,9)
