23
gdb 102809	1.82643	1.22719	0.7814	4.0628	83.5	-0.274	0.0115	0.2855	1525.2297	0.202527	-425.466474	-425.455273	-425.454329	-425.503628	39.662	
C	-0.0904578997	 1.5963262558	 0.247593426	-0.400878
C	 0.0418258495	 0.0785801429	 0.0932783124	-0.18498
C	 0.7907543173	-0.595147887	 1.2461945409	 0.115896
O	 0.0731119341	-0.3003616578	 2.466790739	-0.193201
C	 0.6771053396	 0.4210354924	 3.4255634763	 0.169795
O	 0.1449748644	 0.7034123202	 4.4577875892	-0.283529
C	 0.9160151041	-2.1260926555	 1.1271751743	 0.030102
C	 1.6596376911	-2.5377635045	-0.1528433917	-0.400547
C	 1.6065267069	-2.7260229984	 2.3605017226	-0.409291
H	 0.8917354111	 2.0768287508	 0.324887841	 0.112554
H	-0.6006012873	 2.0282688448	-0.6181232054	 0.119745
H	-0.6662372772	 1.8580353751	 1.1390743976	 0.141035
H	-0.9520433418	-0.3780804621	 0.0112356411	 0.111756
H	 0.5708756481	-0.1460379614	-0.8379221974	 0.10782
H	 1.8001457883	-0.1610029011	 1.3271919859	 0.079587
H	 1.7090976628	 0.7190251034	 3.1543615196	 0.075269
H	-0.1061066957	-2.5251998297	 1.0796610346	 0.089111
H	 2.6574453798	-2.0840798244	-0.1937646836	 0.114686
H	 1.7934390794	-3.6234449447	-0.1765932868	 0.119637
H	 1.1227803114	-2.2541950595	-1.0614040279	 0.121094
H	 1.0622615433	-2.49978437	 3.2798340478	 0.138375
H	 1.6717046613	-3.814397422	 2.2687163359	 0.11684
H	 2.6295809592	-2.3434613673	 2.4647616885	 0.109123
43.8826	56.5189	93.3687	156.4084	172.471	190.1187	229.1045	242.0151	271.7085	310.8089	346.9254	381.7861	414.0995	479.9058	497.0876	649.1488	797.543	851.5007	899.8981	930.6353	961.3606	971.4355	986.2841	1042.4795	1048.5387	1078.0964	1126.4932	1147.028	1176.375	1191.2418	1222.1786	1282.3955	1314.2471	1338.7001	1357.9952	1384.6659	1392.0996	1401.5828	1412.6621	1423.6398	1440.4407	1478.7013	1488.1967	1496.5505	1499.1928	1505.6657	1510.9775	1516.8879	1858.4104	2941.3418	2980.1839	3019.2872	3027.9339	3034.2182	3035.3296	3040.3584	3084.1397	3093.5952	3100.2078	3103.4646	3117.2563	3124.5888	3127.8867
CCC(OC=O)C(C)C	CC[C@@H](OC=O)C(C)C	
InChI=1S/C7H14O2/c1-4-7(6(2)3)9-5-8/h5-7H,4H2,1-3H3	InChI=1S/C7H14O2/c1-4-7(6(2)3)9-5-8/h5-7H,4H2,1-3H3/t7-/m1/s1
