20
gdb 126598	5.4658	0.6908	0.6627	3.4062	81.05	-0.2591	0.012	0.271	1748.5902	0.17296	-399.364138	-399.355099	-399.354155	-399.399438	32.001	
C	 0.069664702	 1.5559261504	 0.1114261469	-0.381467
C	-0.0365966124	 0.0363794586	-0.0424976991	-0.166188
C	 0.7765290872	-0.4976931291	-1.2258215178	-0.167856
C	 0.6590409779	-2.0173259281	-1.3736508747	-0.167784
N	 1.4046024317	-2.5285867258	-2.5120240008	 0.056778
C	 2.5330631519	-3.2659425706	-2.5416757574	 0.011782
N	 2.9085395039	-3.4961449013	-3.7873647817	-0.278284
C	 1.9451020287	-2.8550041817	-4.5018436792	 0.038528
N	 1.012238091	-2.2532601214	-3.7798753297	-0.254469
H	 1.1077669972	 1.8657794447	 0.2735603016	 0.117757
H	-0.2923483893	 2.0697083648	-0.7855533498	 0.121058
H	-0.5209514119	 1.9111153979	 0.9611947052	 0.115883
H	 0.2999558954	-0.4501670908	 0.8829456156	 0.096391
H	-1.0898855087	-0.2466828896	-0.1687721171	 0.102336
H	 0.4387268182	-0.0332671184	-2.1586537315	 0.130188
H	 1.8343157859	-0.2313060686	-1.1061327419	 0.103914
H	 1.0424916087	-2.5272751394	-0.4841574964	 0.12125
H	-0.3883508982	-2.3091876779	-1.499892292	 0.134593
H	 3.0309988077	-3.6085478694	-1.6466966835	 0.139738
H	 1.9259840132	-2.8334657145	-5.581332707	 0.125853
44.2003	75.7174	87.5652	120.1723	223.3215	243.6539	324.5336	344.6446	436.9915	667.9888	697.3034	740.4452	757.3099	797.9582	852.5363	907.229	913.3297	939.5996	974.9201	1017.1368	1033.7967	1064.3869	1121.8739	1137.4047	1170.9012	1228.2809	1237.8962	1287.634	1301.1624	1312.2626	1329.0426	1351.3431	1378.7426	1389.9346	1407.2701	1416.6818	1474.0107	1484.256	1487.7781	1499.7505	1499.8625	1513.1801	1549.204	3012.9426	3030.1027	3034.1407	3042.767	3053.0377	3078.0591	3100.0075	3106.2533	3107.0397	3253.4927	3259.595
CCCCN1C=NC=N1	CCCCn1cncn1	
InChI=1S/C6H11N3/c1-2-3-4-9-6-7-5-8-9/h5-6H,2-4H2,1H3	InChI=1S/C6H11N3/c1-2-3-4-9-6-7-5-8-9/h5-6H,2-4H2,1H3
