19
gdb 90957	2.68355	1.68202	1.40674	2.8904	74.5	-0.2237	0.0688	0.2924	995.1204	0.159296	-422.974959	-422.967138	-422.966194	-423.006899	31.329	
C	 0.0723902506	 1.49062642	-0.1404400545	-0.523696
C	 0.0095602742	 0.0040683859	 0.007214682	 0.439042
O	 0.6157092125	-0.8475944101	-1.0409574523	-0.355188
C	 0.0548271862	-1.7842508959	-0.0627488764	 0.032884
C	 0.5863228732	-0.9323588923	 1.1215432028	-0.073608
C	-0.3945972465	-1.0236805458	 2.2826067442	-0.287325
C	-1.7489839355	-0.9732525813	 1.502219316	 0.089434
O	-2.4988667629	 0.2136712093	 1.7352190436	-0.437836
C	-1.238251714	-0.9361804708	 0.0725149679	-0.072203
H	 1.1088855362	 1.8415697561	-0.1260364601	 0.125731
H	-0.3849226879	 1.7973084186	-1.0861395548	 0.133221
H	-0.4797143399	 1.9623154358	 0.6770121359	 0.139903
H	 0.166775186	-2.8513902017	-0.2577684134	 0.086295
H	 1.661179629	-0.9127012902	 1.3001193611	 0.074192
H	-0.2735087155	-1.9470406738	 2.8589707809	 0.098956
H	-0.3189555542	-0.1789190418	 2.9747689658	 0.100517
H	-2.3686216448	-1.8596019096	 1.6996751983	 0.06693
H	-2.8154052888	 0.1943525584	 2.6438595771	 0.283657
H	-1.9497762878	-0.9190629309	-0.7516270642	 0.079093
115.0509	189.4224	200.9053	286.249	296.6404	352.7005	413.4728	483.5545	516.6571	630.6231	674.5013	714.4346	754.8663	800.1133	855.8717	890.7586	908.1265	930.3626	971.6942	980.6367	1018.2657	1021.1265	1040.2758	1082.3134	1106.3424	1159.6639	1161.9921	1206.3238	1218.1536	1237.1513	1239.1131	1261.0756	1273.4369	1300.7964	1339.0677	1389.2558	1421.0953	1429.8056	1477.3612	1485.0287	1490.33	2994.5414	3040.8453	3043.1764	3087.8379	3109.0453	3111.6681	3125.9874	3127.7704	3140.8749	3816.4843
CC12OC3C1CC(O)C23	C[C@@]12O[C@H]3[C@@H]1C[C@@H](O)[C@@H]23	
InChI=1S/C7H10O2/c1-7-3-2-4(8)5(7)6(3)9-7/h3-6,8H,2H2,1H3	InChI=1S/C7H10O2/c1-7-3-2-4(8)5(7)6(3)9-7/h3-6,8H,2H2,1H3/t3-,4+,5+,6-,7+/m0/s1
