20
gdb 118199	1.80841	1.42479	0.98736	4.6062	72.05	-0.2489	0.0098	0.2587	1277.7843	0.170058	-477.438031	-477.428246	-477.427302	-477.472998	35.609	
C	 0.4723482982	 1.8107000153	-0.5332822448	-0.330313
N	 0.2018177898	 0.4348336066	-0.1172012618	-0.094804
H	-1.3998289019	-0.1026431427	 0.6859991715	 0.29941
C	 0.5900172462	-0.526524315	-1.161464888	-0.142531
C	 0.10909654	-1.9648329759	-0.9374780628	-0.104441
O	-1.2957729998	-2.1034315156	-1.0104878333	-0.426313
C	 0.7358232545	 0.1100042719	 1.2075176256	-0.310502
C	-0.2820271285	-0.6884881915	 2.0389570142	 0.4167
O	-1.5222699258	-0.6375705491	 1.510815892	-0.37358
O	-0.0162673049	-1.2730077735	 3.0507688953	-0.329388
H	 1.544474309	 2.0032664773	-0.7046070155	 0.112736
H	-0.0632010296	 2.0212945825	-1.4630259279	 0.135144
H	 0.1138887956	 2.506658397	 0.2300133127	 0.130533
H	 0.1587894041	-0.1743871096	-2.1039160986	 0.118802
H	 1.6889493585	-0.5427978324	-1.2850564394	 0.087712
H	 0.5379142923	-2.5718852602	-1.7438300861	 0.115453
H	 0.509084118	-2.3711766713	 0.0023820233	 0.113204
H	-1.6543999717	-2.0135232942	-0.1206371285	 0.301879
H	 1.680078243	-0.4487842446	 1.1808803423	 0.136561
H	 0.933201693	 1.0333606951	 1.7611973398	 0.143739
66.7856	90.5187	135.2197	171.5181	196.0805	234.3966	266.6872	343.2808	389.2873	411.5178	429.947	481.4117	550.1208	575.9757	638.3917	814.0257	868.7889	881.8322	950.3738	983.377	986.7254	1054.069	1080.3032	1104.1756	1149.47	1163.3032	1192.7802	1199.6973	1280.2843	1293.7431	1328.0168	1342.9569	1401.7262	1411.8729	1424.0562	1438.7126	1454.8736	1468.1033	1490.6584	1497.758	1503.6396	1510.5245	1884.2029	2938.6395	2971.7957	3006.8136	3029.8803	3057.7575	3076.9742	3079.9304	3088.3406	3118.9277	3336.1664	3800.5846
C[NH+](CCO)CC([O-])=O	CN(CCO)CC(=O)O	
InChI=1S/C5H11NO3/c1-6(2-3-7)4-5(8)9/h7H,2-4H2,1H3,(H,8,9)	InChI=1S/C5H11NO3/c1-6(2-3-7)4-5(8)9/h7H,2-4H2,1H3,(H,8,9)
