16
gdb 9619	3.42175	1.4459	1.2051	2.0301	67.75	-0.243	0.0481	0.2911	1015.7605	0.127781	-383.682797	-383.674126	-383.673182	-383.71564	32.321	
O	-0.1492629838	 1.451073392	-0.2712462087	-0.434474
C	 0.0100431975	 0.0776866968	 0.0876308544	-0.15762
C	-1.37119095	-0.5235582718	 0.0341094788	 0.442006
O	-2.2840981845	 0.141224499	 0.8554763679	-0.476277
C	-1.8846826584	-1.1421452469	-1.236351735	-0.340501
C	-1.563996782	-2.0208364285	-0.0220052226	-0.270662
C	-0.451513707	-2.9243198846	-0.0361341743	 0.335355
C	 0.4804169458	-3.6856493467	-0.0469130763	-0.463427
H	 0.6278842281	 1.9341111058	 0.0224483379	 0.294691
H	 0.6895460938	-0.4451614543	-0.59692289	 0.104815
H	 0.4060656611	-0.0178721046	 1.1084440623	 0.104627
H	-2.1607139973	 1.0803304277	 0.6624895947	 0.290552
H	-2.934582177	-1.0028429549	-1.4641966477	 0.124306
H	-1.2198271407	-1.2131935052	-2.0893193432	 0.125114
H	-2.4312397411	-2.3577533534	 0.5383014257	 0.127165
H	 1.2992735755	-4.3611955205	-0.055120674	 0.194331
104.2337	117.8401	150.2539	247.206	249.6875	322.4605	349.488	412.7085	431.0961	465.304	521.3037	583.4665	624.9223	649.0706	739.2457	816.8465	907.7404	920.3102	958.5057	1010.7651	1052.1493	1061.7299	1083.6002	1116.4024	1202.092	1234.1172	1281.0926	1292.833	1367.4797	1417.5784	1454.9535	1492.8995	1507.9139	2234.5339	3002.7122	3051.5037	3142.9844	3155.6948	3241.3127	3505.1657	3765.0551	3843.2409
OCC1(O)CC1C#C	OC[C@@]1(O)C[C@H]1C#C	
InChI=1S/C6H8O2/c1-2-5-3-6(5,8)4-7/h1,5,7-8H,3-4H2	InChI=1S/C6H8O2/c1-2-5-3-6(5,8)4-7/h1,5,7-8H,3-4H2/t5-,6+/m1/s1
