17
gdb 44966	2.6502	1.78358	1.6065	3.6045	66.14	-0.2674	0.0045	0.2719	907.9379	0.139716	-459.019314	-459.012716	-459.011772	-459.050182	26.715	
O	-0.0203335859	 0.0125645211	-0.3524517555	-0.340724
C	 0.0236421004	 1.1791085545	-0.1023601044	 0.437664
O	-1.1037023193	 1.9289167462	 0.1348152399	-0.238939
C	-0.7071342936	 3.285308995	 0.4337119213	 0.212186
C	 0.6024948785	 3.4472603954	-0.3454079628	-0.257024
C	 1.2336003077	 2.106201656	 0.0490754861	-0.164491
C	 1.6102078254	 2.1915343212	 1.5485627795	-0.240293
C	 0.3607667587	 2.4922795695	 2.3972439419	-0.083018
O	-0.5102597694	 3.4657094643	 1.8067567037	-0.257427
H	-1.529607458	 3.9385052805	 0.1439346045	 0.10741
H	 0.4101135277	 3.5149385918	-1.4197540272	 0.118961
H	 1.1638045169	 4.3239312188	-0.0183278896	 0.116987
H	 2.0658857756	 1.7655332989	-0.5654773543	 0.101705
H	 2.0569024796	 1.2545891592	 1.8957195733	 0.124727
H	 2.3580935843	 2.982484019	 1.6686579264	 0.114198
H	-0.2040480379	 1.565856744	 2.562871994	 0.128734
H	 0.6339844694	 2.8953165946	 3.3747485131	 0.119345
140.9346	246.2813	263.9279	382.14	447.7541	489.2488	492.3133	579.1995	708.6028	745.7508	785.0351	830.1818	850.0639	871.7071	900.1686	917.9719	985.6075	1007.4395	1051.7774	1069.8517	1087.9509	1102.2551	1130.443	1198.6812	1218.5218	1245.5984	1290.2175	1306.9946	1330.6861	1347.7291	1376.2232	1386.7301	1422.5201	1481.0608	1496.8337	1514.8236	1896.2234	3026.6853	3045.7509	3068.2044	3093.2187	3109.2021	3125.3019	3129.3766	3131.2138
O=C1OC2CC1CCO2	O=C1O[C@@H]2C[C@H]1CCO2	
InChI=1S/C6H8O3/c7-6-4-1-2-8-5(3-4)9-6/h4-5H,1-3H2	InChI=1S/C6H8O3/c7-6-4-1-2-8-5(3-4)9-6/h4-5H,1-3H2/t4-,5-/m1/s1
