15
gdb 33690	4.08757	1.46393	1.3709	1.237	74.97	-0.2233	0.032	0.2553	944.6906	0.112955	-383.396684	-383.390211	-383.389267	-383.427361	26.899	
C	-0.0356593495	-1.1838690833	-0.0511588367	-0.356937
C	-0.0024103821	 0.0193031335	-0.0059358402	 0.041161
C	 0.0398387712	 1.4321066342	 0.0419712181	 0.263989
C	-0.9813924841	 2.3452454911	 0.7391250956	 0.007815
O	-0.3555158154	 3.345139042	 1.4791588192	-0.22153
C	 0.7753777836	 3.6000581038	 0.692977129	 0.076972
C	 0.4974832526	 3.396377703	-0.7845322195	-0.132222
C	 1.2836717286	 2.3521608442	 0.001613741	-0.218886
C	-0.7527164595	 2.5010258648	-0.7438631387	-0.192111
H	-0.0647076175	-2.2441711602	-0.090514551	 0.176937
H	-1.8927855277	 1.9547860153	 1.1693649768	 0.126073
H	 1.4261019557	 4.3733475853	 1.0768330611	 0.116732
H	 0.8009557566	 4.0607861848	-1.5802679342	 0.1005
H	 2.3146126365	 2.0361011513	-0.0619356486	 0.103157
H	-1.501401489	 2.3674208905	-1.5112482817	 0.108351
142.5167	154.7263	443.8874	485.5185	494.4828	554.9699	580.7725	631.1273	657.098	717.7259	756.147	759.1343	769.8925	837.4088	857.0821	877.098	921.4803	929.9104	988.0424	995.4601	1018.8925	1028.9868	1038.6077	1088.0825	1110.8349	1135.9248	1204.985	1230.2587	1250.3831	1283.2975	1371.6772	1405.1337	2230.1592	3216.0425	3220.1945	3223.9003	3229.802	3235.6328	3504.1994
C#CC12C3OC4C(C14)C23	C#C[C@@]12[C@H]3O[C@@H]4[C@@H]([C@H]14)[C@@H]23	
InChI=1S/C8H6O/c1-2-8-4-3-5(8)7(8)9-6(3)4/h1,3-7H	InChI=1S/C8H6O/c1-2-8-4-3-5(8)7(8)9-6(3)4/h1,3-7H/t3-,4-,5+,6+,7-,8+/m0/s1
