18
gdb 106123	2.94773	1.36499	1.16967	0.183	70.91	-0.238	0.0551	0.293	1093.9002	0.147944	-439.00193	-438.993818	-438.992874	-439.034792	31.196	
O	 0.0209837587	 1.4293107212	-0.5394644996	-0.411886
C	 0.0529726461	 0.1422038681	 0.0572955653	-0.217257
C	-1.3140992309	-0.423939064	 0.2431737562	 0.305819
C	-1.9145071793	-1.784299542	 0.127379243	-0.145369
C	-2.8074171461	-1.5413195197	 1.3495129526	 0.152636
O	-2.2470456002	-1.9996868278	 2.5568004456	-0.442374
C	-2.6219021809	-0.0253712632	 1.0512436094	-0.163037
C	-3.2842105477	 0.1112326047	-0.3216242194	-0.158898
N	-2.1992568612	-0.7490006323	-0.919733041	-0.199575
H	-0.4128024348	 1.3223390021	-1.3938104941	 0.29298
H	 0.6476119927	-0.567839565	-0.5389851635	 0.102751
H	 0.5584249709	 0.2682832141	 1.0211110397	 0.112317
H	-1.4706159417	-2.7125638707	-0.211563517	 0.103619
H	-3.8328982808	-1.9233125127	 1.3330388547	 0.088342
H	-1.3113834852	-1.7643830444	 2.5610718659	 0.280339
H	-2.7251764517	 0.7037940484	 1.8521341939	 0.085396
H	-4.3038063499	-0.2728255259	-0.4457251644	 0.101156
H	-3.208532308	 1.109850479	-0.7572697774	 0.113043
67.5215	124.6101	189.3865	285.1991	304.1323	367.6102	375.1964	433.3017	469.9242	528.6595	652.366	750.7948	773.083	813.4286	882.2719	917.6592	952.647	954.2464	970.2937	1011.2368	1029.5344	1054.9394	1075.5102	1107.1402	1131.1293	1163.0654	1180.531	1201.2627	1229.2001	1252.321	1268.2736	1287.3489	1315.025	1365.7109	1405.6948	1432.7	1442.3296	1484.8128	1507.6216	2983.6164	3033.116	3067.5183	3067.7873	3107.6998	3143.5883	3193.9705	3784.9205	3800.0327
OCC12C3C(O)C1CN23	OC[C@@]12[C@H]3[C@@H](O)[C@@H]1CN23	
InChI=1S/C6H9NO2/c8-2-6-3-1-7(6)5(6)4(3)9/h3-5,8-9H,1-2H2	InChI=1S/C6H9NO2/c8-2-6-3-1-7(6)5(6)4(3)9/h3-5,8-9H,1-2H2/t3-,4-,5+,6-,7?/m0/s1
