14
gdb 29741	3.46607	1.34192	0.97332	4.21	72.26	-0.2297	-0.0248	0.2049	1113.968	0.10242	-432.928124	-432.919843	-432.918899	-432.962347	28.996	
C	-0.0150878871	 1.4646300904	 0.0681653393	-0.353631
N	 0.0247438313	 0.0129276969	 0.0274943197	-0.137471
C	 0.0431714242	-0.7825243177	-1.0641337355	 0.458431
O	 0.0246407127	-0.2402428301	-2.2865535987	-0.420446
N	 0.0791925933	-2.0692054895	-0.7885904287	-0.358823
C	 0.0849164753	-2.1278585902	 0.5773035219	-0.166997
C	 0.0519895708	-0.8634349576	 1.121986645	 0.16896
C	 0.0437019752	-0.4114287112	 2.4534091029	 0.209021
N	 0.0364243189	-0.0207476675	 3.5459776137	-0.356121
H	 0.8643873926	 1.856160852	 0.5860254224	 0.161542
H	-0.0264908725	 1.8359755151	-0.9559809934	 0.168977
H	-0.9134500645	 1.8074830564	 0.588149682	 0.161481
H	 0.0428094087	-0.9746555509	-2.9138879946	 0.323422
H	 0.112212391	-3.0664583359	 1.108248394	 0.141654
22.487	116.4045	139.0689	191.6362	290.6899	317.9742	419.8722	434.7041	520.2389	533.7568	610.2327	655.2163	715.6282	734.9209	782.2408	866.9179	988.4782	1137.3078	1156.1333	1184.2142	1232.7626	1296.0072	1315.9663	1366.023	1457.0729	1488.2197	1503.0476	1535.5811	1590.7583	1613.3664	2329.7911	3055.6359	3120.5493	3168.3024	3264.8978	3801.2154
CN1C(O)=NC=C1C#N	Cn1c(O)ncc1C#N	
InChI=1S/C5H5N3O/c1-8-4(2-6)3-7-5(8)9/h3H,1H3,(H,7,9)	InChI=1S/C5H5N3O/c1-8-4(2-6)3-7-5(8)9/h3H,1H3,(H,7,9)
