17
gdb 13442	3.57971	1.32387	1.20207	3.0952	67.24	-0.2422	0.0109	0.2531	1066.6076	0.140116	-400.969129	-400.960109	-400.959164	-401.004078	31.259	
C	-0.0521315844	 1.5774644888	-0.1343813701	-0.395977
C	 0.0592355251	 0.0702053107	-0.0760617549	-0.108363
C	 1.4129055252	-0.6237097106	-0.1032188488	 0.08952
O	 2.5902101824	 0.1196998438	-0.1034505196	-0.427962
C	 0.5732602376	-0.641132165	 1.1518237616	 0.042124
O	 1.0431635233	 0.1923403764	 2.191576895	-0.204716
C	 1.6143844856	-0.4292700654	 3.2515804905	 0.130599
N	 2.1687684748	 0.2578985885	 4.1503328052	-0.437234
H	 0.8205684781	 2.0630727667	 0.3043752079	 0.130164
H	-0.1299557504	 1.9081057847	-1.1746080608	 0.123535
H	-0.9382261002	 1.9292967708	 0.4027811591	 0.123272
H	-0.7386058177	-0.4647184284	-0.5855438481	 0.093194
H	 1.5171499779	-1.5382953879	-0.6796532839	 0.103462
H	 2.6709985176	 0.5464582297	 0.758771925	 0.304032
H	 0.088170614	-1.5491221718	 1.5010691002	 0.103634
H	 1.517293591	-1.5221466541	 3.2184588903	 0.09587
H	 2.5251669301	-0.3495111369	 4.8850998816	 0.234846
28.0384	81.3047	119.3158	127.1325	200.6442	247.7209	306.4953	344.5648	493.6942	536.5319	626.3773	679.5687	739.367	807.6516	824.153	908.1738	968.1299	1001.193	1043.986	1061.956	1096.6818	1108.4873	1146.7571	1157.741	1171.3435	1242.393	1281.0137	1328.6465	1353.3767	1385.2363	1417.8083	1422.1668	1457.4194	1489.1605	1502.3247	1747.2842	3037.8409	3046.9267	3106.1342	3127.583	3133.306	3145.0994	3154.2849	3522.3342	3776.5566
CC1C(O)C1OC=N	C[C@H]1[C@@H](O)[C@H]1O[CH][NH]	
InChI=1S/C5H9NO2/c1-3-4(7)5(3)8-2-6/h2-7H,1H3	InChI=1S/C5H9NO2/c1-3-4(7)5(3)8-2-6/h2-7H,1H3/t3-,4+,5-/m0/s1
