14
gdb 19581	3.61006	2.42836	2.03827	2.9683	59.81	-0.2495	-0.0101	0.2394	697.9202	0.10842	-382.495493	-382.489784	-382.48884	-382.525104	23.144	
O	 0.0064602191	-0.0421674022	 0.1763689033	-0.324903
C	-0.0133469605	 1.1314475679	-0.0182530593	 0.425997
C	-1.0377647881	 2.2919836422	-0.0048531578	-0.042126
O	-0.0281676528	 2.915524336	 0.871943728	-0.291618
C	 0.9764300753	 2.3216717202	-0.0308201436	-0.042127
C	 0.7041464803	 3.0181317114	-1.3694127951	-0.052622
C	-0.0606095301	 2.2421484251	-2.415074089	-0.308211
C	-0.8207240545	 2.9956420719	-1.3497635153	-0.052626
H	-2.0310461241	 2.2368210683	 0.4343005513	 0.104993
H	 1.9818949691	 2.2959745998	 0.3825640575	 0.104993
H	 1.2718144458	 3.8992803891	-1.6400820489	 0.107726
H	-0.079744903	 2.6687211299	-3.4124528387	 0.122221
H	-0.0444744517	 1.1568013219	-2.4052552322	 0.140579
H	-1.4209127747	 3.8595649785	-1.6053850001	 0.107726
165.34	305.0697	383.9067	456.0496	550.3959	640.3825	666.0455	761.2689	790.4058	814.3738	843.8415	855.6743	903.9641	917.8439	965.8319	976.8859	1039.8863	1050.5894	1079.3208	1091.8173	1097.724	1169.3577	1182.3576	1231.2774	1232.4841	1277.9626	1315.1826	1361.6373	1493.4827	1919.4595	3128.1651	3160.0505	3162.5287	3190.4823	3196.1621	3213.7509
O=C1C2OC1C1CC21	O=C1[C@H]2O[C@@H]1[C@H]1C[C@@H]21	
InChI=1S/C6H6O2/c7-4-5-2-1-3(2)6(4)8-5/h2-3,5-6H,1H2	InChI=1S/C6H6O2/c7-4-5-2-1-3(2)6(4)8-5/h2-3,5-6H,1H2/t2-,3+,5+,6-
