18
gdb 43727	4.69395	1.08209	1.03036	3.3705	80.17	-0.2529	0.0013	0.2542	1200.3327	0.148885	-401.968189	-401.960491	-401.959546	-402.00103	29.818	
N	-0.259470054	 1.1293625191	 0.7903959267	-0.546434
C	-0.1466802514	 0.0539005829	 0.1542258297	 0.428408
C	-1.1065692977	-1.019487948	-0.3002829344	-0.431575
C	 0.1589051436	-1.6957532473	-0.8989240995	 0.424555
C	 0.6517213493	-3.0475788181	-0.3456349014	-0.298573
C	 0.6679030383	-4.0234223949	-1.5499373198	-0.26498
C	 0.5073808399	-3.109500281	-2.7390819137	-0.065786
C	 0.2387686255	-1.8542112677	-2.3850912055	-0.128808
O	 0.9629990984	-0.5535304127	-0.3880749967	-0.289978
H	 0.6462549221	 1.5906097626	 0.8950721659	 0.224553
H	-1.6013750078	-1.5694930043	 0.5021040516	 0.133988
H	-1.851590776	-0.6873932419	-1.0258269944	 0.134768
H	 1.6643528537	-2.8944596429	 0.037186674	 0.131822
H	 0.0402595531	-3.4059478862	 0.4857058621	 0.107189
H	 1.5876148498	-4.6170519464	-1.6007141867	 0.114532
H	-0.1573955738	-4.745592759	-1.5012237087	 0.115966
H	 0.5813016048	-3.4661126111	-3.7607662599	 0.10501
H	 0.0598353922	-1.0209075831	-3.0548429592	 0.105342
52.5955	82.4741	230.5992	299.6739	394.3562	415.2123	429.8212	497.8552	535.3625	711.5815	750.3753	780.3703	807.8859	842.2013	868.4485	891.871	907.5103	936.7349	962.6425	981.7085	998.5682	1030.105	1064.4674	1086.8134	1103.7065	1149.8058	1190.1828	1227.5328	1247.3671	1261.5419	1285.131	1308.6683	1329.0106	1391.0025	1461.3286	1478.245	1496.5669	1685.1614	1823.6178	3025.3266	3057.2888	3069.8312	3082.2772	3113.7021	3136.583	3186.6537	3212.1045	3471.0239
N=C1CC2(CCC=C2)O1	[NH][C]1C[C@]2(CCC=C2)O1	
InChI=1S/C7H9NO/c8-6-5-7(9-6)3-1-2-4-7/h1,3,8H,2,4-5H2	InChI=1S/C7H9NO/c8-6-5-7(9-6)3-1-2-4-7/h1,3,8H,2,4-5H2/t7-/m0/s1
