14
gdb 130644	3.30644	1.68076	1.12998	3.5378	69.67	-0.2681	-0.0664	0.2017	987.4861	0.104166	-432.892218	-432.88562	-432.884676	-432.923749	24.54	
O	-0.0689790191	-0.0471239009	 0.0032241738	-0.303708
C	-0.016070558	 1.1558248279	 0.0093140913	 0.289795
C	-1.2374714776	 2.1134125362	 0.0322541672	-0.339191
C	-0.6766500139	 3.5559627286	 0.032088017	-0.190449
N	 0.7665277197	 3.3204773369	 0.0098739201	 0.056271
N	 1.782511949	 4.1666448798	-0.0001368369	-0.154237
N	 2.8837707707	 3.4299847125	-0.0204982494	-0.182444
C	 2.5474519418	 2.1179488842	-0.0226468402	-0.193891
C	 1.1662966147	 2.0256788254	-0.0030907471	 0.246732
H	-1.8640417984	 1.9091618792	-0.8395682538	 0.155861
H	-1.8385310964	 1.8994695866	 0.9195767435	 0.155854
H	-0.9698524659	 4.1345811632	-0.8467036342	 0.154576
H	-0.9441817085	 4.1248295759	 0.9253159266	 0.154573
H	 3.2921923118	 1.3396660144	-0.037761528	 0.150257
82.0073	169.9024	213.5618	312.3464	516.0822	540.8653	605.79	642.9342	682.6843	706.0147	762.4296	837.827	876.5631	988.5366	1000.2033	1033.4052	1039.3351	1141.3935	1143.0173	1198.3596	1205.3379	1237.8311	1273.0044	1297.1737	1342.2025	1352.2037	1456.9118	1475.3643	1522.7056	1551.6202	1835.322	3074.3707	3080.194	3113.4344	3129.9404	3282.6314
O=C1CCN2N=NC=C12	O=C1CCn2nncc12	
InChI=1S/C5H5N3O/c9-5-1-2-8-4(5)3-6-7-8/h3H,1-2H2	InChI=1S/C5H5N3O/c9-5-1-2-8-4(5)3-6-7-8/h3H,1-2H2
