20
gdb 12087	3.27864	1.47411	1.41683	1.88	74.42	-0.2519	0.0814	0.3333	1018.9263	0.175345	-348.974303	-348.965548	-348.964604	-349.007801	32.84	
C	-0.0546923787	 1.5338954304	-0.3158530185	-0.41261
C	-0.0541289273	 0.0521757392	-0.0095639767	 0.012934
C	 1.1597902453	-0.8050993586	-0.264127437	-0.315094
C	 0.7102707764	-0.5473817437	 1.1555896355	-0.074052
C	 1.5090629806	 0.2581435388	 2.1551509928	 0.404593
C	 2.8742892813	 0.7812341575	 1.7648110275	-0.470659
C	 0.7817444374	 0.9079312294	 3.260929604	-0.215993
O	 1.4814874026	-0.3170874998	 3.4773338645	-0.280144
H	 0.9236343387	 1.9912996833	-0.1438921826	 0.118512
H	-0.3190288513	 1.7127622092	-1.3639317612	 0.118734
H	-0.7817691839	 2.0693951562	 0.3049319417	 0.117818
H	-1.0101037399	-0.4280963029	-0.203994164	 0.084517
H	 1.0318926362	-1.8009221835	-0.6743697944	 0.111655
H	 2.0570223444	-0.3008064455	-0.6078264698	 0.110662
H	 0.212400206	-1.3745934794	 1.6522684022	 0.09887
H	 2.8209974518	 1.4872799846	 0.930416502	 0.122587
H	 3.3348150741	 1.289394001	 2.6153344725	 0.124659
H	 3.526536937	-0.0444957658	 1.4628329399	 0.131081
H	 1.2057923802	 1.7843104637	 3.7514532839	 0.104849
H	-0.3050018411	 0.8387022658	 3.3010578679	 0.107082
35.3237	150.9799	171.6379	218.8927	234.7519	319.6291	345.4818	379.696	380.3971	443.6617	554.7973	686.9805	774.2791	807.4232	843.4295	882.2821	914.8515	922.1941	939.3505	1017.7178	1036.3703	1075.5745	1088.1005	1103.726	1122.7534	1137.9178	1152.3714	1166.2557	1198.8883	1226.5233	1294.2448	1342.3439	1395.3592	1409.6143	1418.9602	1427.3957	1478.9261	1487.924	1494.4528	1498.0881	1504.02	1528.1869	3030.8296	3040.1484	3071.7657	3087.2117	3102.6119	3108.6489	3124.6466	3131.1827	3133.4135	3154.5185	3156.9521	3213.7428
CC1CC1C1(C)CO1	C[C@H]1C[C@H]1[C@@]1(C)CO1	
InChI=1S/C7H12O/c1-5-3-6(5)7(2)4-8-7/h5-6H,3-4H2,1-2H3	InChI=1S/C7H12O/c1-5-3-6(5)7(2)4-8-7/h5-6H,3-4H2,1-2H3/t5-,6+,7+/m0/s1
