17
gdb 83914	2.58753	1.51551	1.25153	1.8819	75.14	-0.2366	0.0257	0.2623	1054.5387	0.135394	-421.771623	-421.763543	-421.762599	-421.804001	31.573	
O	-0.0208062318	 1.3958165038	-0.0023027408	-0.42592
C	-0.0453866839	 0.0112531464	 0.046969502	 0.064074
C	-1.3577991474	-0.7478551289	 0.0533940287	-0.171033
C	-2.6109417804	 0.0425377705	-0.3102261897	-0.25671
C	-2.4957194761	 0.181479996	-1.8405736634	-0.089107
O	-1.0875639562	 0.1320537454	-2.1342465561	-0.314519
C	-0.4823826255	-0.7437565587	-1.1985356597	 0.151631
C	 0.2025572938	-1.8803433894	-1.7258262688	 0.262539
C	 0.7950560512	-2.8380801059	-2.1487816697	-0.396492
H	-0.2439119222	 1.6339484733	-0.9146702612	 0.297457
H	 0.7725410446	-0.4077097965	 0.6251731006	 0.112557
H	-1.4336638579	-1.6460112947	 0.6537640312	 0.109039
H	-3.5213660041	-0.4839776547	-0.0162014705	 0.112158
H	-2.6034942289	 1.0225222881	 0.1766447712	 0.125558
H	-3.0040383821	-0.6474270698	-2.3516520987	 0.111888
H	-2.8764278324	 1.126344759	-2.2362202851	 0.114737
H	 1.3167625893	-3.681420724	-2.5283829201	 0.192142
121.6672	146.6379	167.4574	221.4433	302.2985	421.2544	453.0903	487.7087	529.688	567.7392	590.3153	627.3778	666.854	681.263	750.3087	832.5964	846.6165	911.7858	958.872	963.0703	1005.2726	1052.308	1071.7768	1111.0856	1132.3984	1197.3433	1204.6652	1229.4653	1253.6695	1318.4684	1325.4068	1359.8312	1383.6386	1435.8208	1489.5204	1515.378	2234.2496	3014.7345	3059.5421	3100.813	3116.6958	3161.3516	3191.3558	3501.8597	3716.4986
OC1C2CCOC12C#C	O[C@H]1[C@H]2CCO[C@@]12C#C	
InChI=1S/C7H8O2/c1-2-7-5(6(7)8)3-4-9-7/h1,5-6,8H,3-4H2	InChI=1S/C7H8O2/c1-2-7-5(6(7)8)3-4-9-7/h1,5-6,8H,3-4H2/t5-,6+,7-/m1/s1
