19
gdb 116688	5.19603	0.78194	0.76112	3.7065	81.77	-0.2314	0.0085	0.2399	1553.5634	0.159119	-419.117755	-419.109021	-419.108077	-419.152539	31.55	
C	 0.2394638534	 1.2453757178	 0.264624783	-0.251751
O	-0.2877433312	 0.0379235184	-0.2758123181	-0.191267
C	 0.5427103946	-0.6594895865	-1.0672540843	 0.104004
N	 0.1706482685	-1.7424847015	-1.5945313209	-0.334896
C	 1.0987176315	-2.4266143325	-2.4189270993	 0.346003
C	 2.5696626991	-2.1206042187	-2.8467321781	-0.22286
N	 2.2863249253	-3.4451248872	-3.5642853033	-0.141367
C	 1.6146476764	-3.8755533063	-2.2498448192	-0.200412
C	 0.9172271888	-2.8317492113	-3.9012010796	-0.20041
H	 1.114216063	 1.0528511152	 0.8971364662	 0.130417
H	 0.5128797926	 1.9529184277	-0.527180515	 0.130415
H	-0.553669939	 1.6795500346	 0.8738469029	 0.150236
H	 1.537429386	-0.2076429197	-1.201878572	 0.083683
H	 2.7500499132	-1.2870471867	-3.5318683491	 0.097119
H	 3.3580705806	-2.1970501446	-2.0921876467	 0.097121
H	 2.3232976412	-4.0766613515	-1.4415081901	 0.096943
H	 0.8977603801	-4.6914937507	-2.3699235889	 0.105038
H	 0.1506076569	-3.5732565836	-4.1390373928	 0.105039
H	 0.9649087391	-2.0436076527	-4.6579022849	 0.096943
38.8115	71.2041	115.9745	152.4699	216.6187	311.3311	384.5054	416.8586	491.3306	592.5342	603.1152	734.9907	790.5652	803.0896	905.7972	947.0173	963.6296	979.7637	994.356	1016.6439	1026.4734	1061.5703	1150.4606	1155.7963	1162.5795	1171.1322	1172.9062	1176.8418	1193.6283	1194.0247	1253.0231	1285.4618	1322.792	1415.9251	1485.2457	1494.9328	1499.5777	1508.379	1509.2274	1563.3341	1757.781	2999.4458	3019.7667	3042.4359	3048.6681	3057.7394	3082.1586	3109.5917	3119.9592	3124.4702	3149.018
COC=NC12CN(C1)C2	COC=N[C@@]12CN(C1)C2	
InChI=1S/C6H10N2O/c1-9-5-7-6-2-8(3-6)4-6/h5H,2-4H2,1H3	InChI=1S/C6H10N2O/c1-9-5-7-6-2-8(3-6)4-6/h5H,2-4H2,1H3
