20
gdb 38979	2.90642	1.70429	1.24564	0.7433	78.71	-0.2436	0.0882	0.3319	1039.4897	0.174112	-403.117017	-403.109837	-403.108893	-403.148339	29.618	
C	-0.0279490806	 1.5299349221	-0.0760498442	-0.26893
C	 1.5024777204	 1.5660062033	 0.0416885593	-0.098996
N	 2.1295473889	 0.8022428518	-1.0404186619	-0.383481
C	 1.5786133961	 0.0640927535	 0.082646449	 0.354287
C	 2.366353383	-0.9464397218	 0.8613969297	-0.318905
C	 1.5494373584	-1.3880108313	 2.0900531239	-0.205497
C	 0.0919583738	-1.6538485625	 1.7014765596	-0.070192
O	-0.5375590737	-0.4800238321	 1.2012511809	-0.259435
C	 0.0409385237	-0.0245471369	-0.0052040577	 0.056602
H	-0.5535246644	 1.9135106402	 0.8002534842	 0.122055
H	-0.4476715514	 1.9788878909	-0.9822070017	 0.094792
H	 2.1041219721	 2.3150832875	 0.5445794674	 0.093361
H	 1.5487561517	 0.7572179454	-1.8774957582	 0.221327
H	 2.5532161707	-1.8178975063	 0.2176571514	 0.101603
H	 3.3460686444	-0.547783176	 1.1431221744	 0.109834
H	 1.9831261344	-2.2884873388	 2.5387585895	 0.09574
H	 1.5620000877	-0.6012856851	 2.853285204	 0.107941
H	 0.0375927403	-2.4668128881	 0.9566984766	 0.084533
H	-0.4975839524	-1.9588287085	 2.5706451341	 0.107957
H	-0.3582642031	-0.5935595172	-0.8613866504	 0.055402
150.8358	158.981	304.1513	342.3693	397.6138	427.1596	461.9202	471.7649	576.3458	630.6008	765.3651	805.1698	861.5263	879.0688	882.4226	920.5791	939.6115	950.6825	1000.4233	1022.8885	1030.3999	1059.3521	1096.7427	1107.9699	1133.8401	1144.1405	1188.0933	1218.2829	1227.6687	1242.0968	1258.4753	1282.6768	1301.9257	1315.571	1342.7393	1357.0791	1371.1962	1408.7203	1452.233	1474.5889	1477.0459	1487.9155	1500.3989	2955.0677	2962.0505	3009.	3035.994	3050.0365	3074.3805	3083.2196	3087.902	3124.9123	3173.3243	3441.7183
C1C2NC22CCCOC12	C1[C@@H]2N[C@]32CCCO[C@@H]13	
InChI=1S/C7H11NO/c1-2-7-5(8-7)4-6(7)9-3-1/h5-6,8H,1-4H2	InChI=1S/C7H11NO/c1-2-7-5(8-7)4-6(7)9-3-1/h5-6,8H,1-4H2/t5-,6-,7-/m0/s1
