19
gdb 109905	2.28486	1.57048	1.00959	4.5165	77.63	-0.2476	-0.0558	0.1918	1181.1976	0.159893	-423.062495	-423.053885	-423.052941	-423.096056	32.608	
C	-0.0295644995	 1.5953397286	-0.2198585769	-0.395736
C	-0.000211982	 0.0719352362	 0.0145956375	-0.079167
C	 0.6912887884	-0.6382313559	-1.1274726476	-0.042283
C	 1.7917494934	-1.3070964444	-0.7624192959	-0.177326
C	 1.9963422786	-1.1679706148	 0.6915096779	 0.386863
O	 2.9509783813	-1.5561109207	 1.3395252611	-0.363593
C	 0.7880131909	-0.4132202389	 1.2634320318	-0.144525
C	 1.2340596734	 0.6194745675	 2.3151578702	-0.07204
O	 1.8200185231	-0.0157582939	 3.4281634519	-0.429059
H	 0.9795425051	 2.0074347359	-0.3105649244	 0.129056
H	-0.5684055093	 1.8266937788	-1.1442586746	 0.118248
H	-0.5389247345	 2.1107086549	 0.599038509	 0.130401
H	-1.0429246013	-0.2662634489	 0.0723025295	 0.095807
H	 0.3173491437	-0.559932771	-2.1440806267	 0.118235
H	 2.4706478314	-1.8568912917	-1.4012407885	 0.120339
H	 0.1898630226	-1.1578011648	 1.8043059796	 0.117644
H	 1.9217543963	 1.3487081788	 1.8566625124	 0.087154
H	 0.3683163582	 1.1794296338	 2.6851561946	 0.104085
H	 2.4987754103	-0.6085406695	 3.0706961991	 0.295896
46.096	158.9591	203.0841	224.2559	251.7542	260.9088	338.0849	407.8502	461.4324	510.9861	592.1111	655.3261	695.3469	742.243	775.7208	842.9058	855.7593	944.805	1000.9114	1007.133	1015.0801	1069.5456	1087.3379	1099.372	1122.5625	1151.2227	1194.2984	1211.1867	1264.0353	1293.2295	1325.5551	1341.3364	1364.5983	1387.2789	1410.5482	1471.7705	1498.2077	1500.7857	1516.8211	1645.2954	1778.765	2968.5658	3015.8286	3035.7448	3040.3376	3061.7846	3107.7804	3120.0957	3180.587	3228.4229	3701.4591
CC1C=CC(=O)C1CO	C[C@H]1C=CC(=O)[C@H]1CO	
InChI=1S/C7H10O2/c1-5-2-3-7(9)6(5)4-8/h2-3,5-6,8H,4H2,1H3	InChI=1S/C7H10O2/c1-5-2-3-7(9)6(5)4-8/h2-3,5-6,8H,4H2,1H3/t5-,6-/m0/s1
