20
gdb 23029	3.72613	0.97275	0.78915	0.4489	89.12	-0.2161	-0.0215	0.1946	1454.7401	0.170577	-403.137766	-403.128359	-403.127415	-403.172986	34.448	
C	 0.0023432094	 1.5258926292	 0.0278629386	-0.505435
C	 0.0048894153	 0.0189972927	 0.0108893918	 0.264834
N	-0.0416339819	-0.7232864656	 1.0629595445	-0.180593
O	-0.1119694464	 0.016690034	 2.2470420661	-0.392407
C	 0.0489958712	-0.703944998	-1.2580894316	 0.317468
C	 0.0299630557	-0.1598395022	-2.4850518883	-0.186744
C	 0.0284691878	-1.1976621971	-3.577429106	-0.248375
C	 0.3912939194	-2.5014333898	-2.8218801024	-0.218033
C	 0.0602957846	-2.220121121	-1.33620309	-0.3006
H	 0.719488306	 1.9172712089	-0.698221242	 0.130835
H	-0.9864997559	 1.9110977368	-0.2458282072	 0.138499
H	 0.2519675369	 1.9023773544	 1.0185931403	 0.152924
H	-0.1054320281	-0.6758604867	 2.9159657895	 0.306547
H	-0.0245748952	 0.9022407762	-2.6953446535	 0.087999
H	-0.9645566008	-1.2579668439	-4.0473595648	 0.107506
H	 0.7309931371	-0.9663865514	-4.3865697451	 0.102679
H	-0.1307828061	-3.3777297673	-3.2140760595	 0.096163
H	 1.4641996724	-2.6920301347	-2.9265730647	 0.104445
H	 0.7790459275	-2.666923925	-0.6442975317	 0.113186
H	-0.922446339	-2.6159539694	-1.048677464	 0.109103
34.6772	79.8132	113.6198	168.563	174.1337	303.9325	333.3791	399.7039	406.2371	454.3566	487.452	578.2124	645.1746	718.6022	815.2549	835.0012	865.4745	905.5995	914.6477	940.2391	965.8522	1030.7771	1036.6428	1057.3931	1067.7264	1082.8752	1150.2164	1215.6716	1228.0618	1275.9386	1300.2927	1326.5547	1331.6897	1365.6269	1396.3013	1414.4956	1482.0424	1485.0986	1485.6337	1491.1156	1505.6441	1678.6536	1684.3038	2996.7025	3026.0603	3042.5104	3045.3121	3056.4112	3086.5085	3101.9302	3105.5097	3164.4042	3195.8173	3820.6494
CC(=NO)C1=CCCC1	CC(=NO)C1=CCCC1	
InChI=1S/C7H11NO/c1-6(8-9)7-4-2-3-5-7/h4,9H,2-3,5H2,1H3	InChI=1S/C7H11NO/c1-6(8-9)7-4-2-3-5-7/h4,9H,2-3,5H2,1H3
