19
gdb 55123	2.68302	1.4865	1.15906	3.3091	76.55	-0.2274	0.0531	0.2805	1115.9646	0.159567	-419.216339	-419.207543	-419.206598	-419.249641	33.631	
C	 0.1260040464	 1.6055049237	 0.1490763655	-0.490315
C	 0.1631078741	 0.1150779166	 0.0100744706	 0.385221
C	-0.9034714084	-0.8393641225	 0.4678923644	-0.314499
C	 0.5102985886	-1.016853263	 0.9758443397	-0.143009
C	 1.3761054885	-1.6421857604	-0.1214397038	-0.198194
N	 0.9923725126	-0.5233178169	-1.0174353647	-0.15226
C	 0.6168947696	-0.5821642996	-2.3454165189	 0.402551
N	 1.2501744325	-1.5827234212	-3.0702870731	-0.554554
O	-0.1979392115	 0.1785443657	-2.835120738	-0.394719
H	 1.1379938534	 2.0218910166	 0.186199196	 0.118616
H	-0.3948375859	 2.045129016	-0.7062311037	 0.155388
H	-0.4022023953	 1.8929988996	 1.0631094223	 0.115064
H	-1.6008970791	-0.4357664796	 1.1954820641	 0.116166
H	-1.3378169188	-1.5565668703	-0.2237605906	 0.117428
H	 0.7764801464	-0.9607909181	 2.022362225	 0.098546
H	 2.4485450733	-1.6447999089	 0.1029706173	 0.110229
H	 1.0752925011	-2.6345249364	-0.4780093216	 0.116988
H	 2.1635621795	-1.8798255057	-2.7618169952	 0.252137
H	 1.1686954731	-1.4535914453	-4.0675167751	 0.259217
90.534	106.8949	162.281	208.5163	259.2786	299.0476	399.6514	426.9885	457.0695	463.5915	519.8161	562.6704	673.4665	696.0062	777.7349	798.6451	838.7386	877.8467	945.2	973.527	996.5628	1037.2703	1054.2499	1074.657	1108.9957	1120.016	1134.7981	1158.8288	1203.3362	1243.3833	1277.1981	1332.0538	1382.3387	1415.4917	1424.2837	1475.6617	1487.8805	1506.3376	1514.9355	1621.656	1788.555	3022.2983	3037.9384	3068.636	3106.6967	3113.494	3119.7067	3201.3686	3211.2155	3574.1746	3690.2482
CC12CC1CN2C(N)=O	C[C@]12C[C@H]1CN2C(=O)N	
InChI=1S/C6H10N2O/c1-6-2-4(6)3-8(6)5(7)9/h4H,2-3H2,1H3,(H2,7,9)	InChI=1S/C6H10N2O/c1-6-2-4(6)3-8(6)5(7)9/h4H,2-3H2,1H3,(H2,7,9)/t4-,6-/m0/s1
