17
gdb 49455	3.28748	1.51045	1.48948	2.4672	75.07	-0.2289	-0.0206	0.2083	950.0243	0.136883	-384.680829	-384.673836	-384.672892	-384.712307	28.096	
O	-0.5615926357	 0.7083540192	 0.716685656	-0.246017
C	 0.0694378333	 1.1196774281	-0.2231320885	 0.140407
C	 1.2650589532	 2.0367942934	-0.1356474045	-0.068794
C	 1.186382922	 3.3748064289	-0.9529360812	-0.135676
C	 0.0714514867	 4.0685033492	-0.1413129831	-0.08536
C	 0.2440760636	 3.7273392189	 1.1343518321	-0.054172
C	 1.477997288	 2.8014998187	 1.203832085	-0.112754
C	 2.7027612	 3.6383957764	 0.7808199907	-0.086245
C	 2.5317869108	 3.9763956987	-0.4971681299	-0.079747
H	-0.1786697343	 0.7980302915	-1.2632538492	 0.070599
H	 2.144633386	 1.4524363937	-0.4384764952	 0.097295
H	 1.0291868154	 3.3028962045	-2.0290658888	 0.066231
H	-0.6624043776	 4.7393484664	-0.5661611561	 0.102552
H	-0.3194614209	 4.0489394038	 1.9988231998	 0.10635
H	 1.5772375068	 2.2069520246	 2.1093762751	 0.077172
H	 3.5084858336	 3.9171348075	 1.4461702132	 0.104064
H	 3.1602621191	 4.5990014264	-1.1193592155	 0.104097
79.9983	174.061	227.4551	397.3315	447.1509	453.847	545.8876	669.1543	683.8055	724.0264	744.7848	765.2037	844.7712	848.204	889.7326	910.4844	913.5311	926.6656	942.873	944.8841	993.8245	1015.3039	1063.0672	1083.4147	1133.9601	1164.2383	1219.1839	1229.0593	1258.638	1262.9277	1289.1101	1326.3197	1353.9159	1421.4556	1618.1703	1657.1907	1827.7983	2842.7095	3024.1339	3116.4334	3142.4313	3210.892	3216.6266	3236.7877	3243.1781
O=CC1C2C=CC1C=C2	O=C[C@H]1[C@H]2C=C[C@@H]1C=C2	
InChI=1S/C8H8O/c9-5-8-6-1-2-7(8)4-3-6/h1-8H	InChI=1S/C8H8O/c9-5-8-6-1-2-7(8)4-3-6/h1-8H/t6-,7+,8-
