18
gdb 126954	6.34268	0.79833	0.71784	2.6186	76.39	-0.189	0.0456	0.2346	1572.8827	0.149746	-431.478751	-431.469494	-431.46855	-431.513049	33.691	
C	 0.0130736936	 1.4768796926	 0.0232798877	-0.399205
C	-0.1049776939	-0.0365650701	-0.1221198796	-0.1014
N	 0.7878642672	-0.521513047	-1.163675834	-0.388318
C	 0.8900261945	-1.87144616	-1.392969447	 0.448019
N	 0.4843455058	-2.7890444547	-0.5298643179	-0.323932
N	 0.8447669908	-3.9521087387	-1.1905785555	-0.262172
C	 1.4215027319	-3.6525141978	-2.3695135242	 0.419372
N	 1.9523800321	-4.5966226038	-3.2286049598	-0.601049
N	 1.4597302976	-2.3454305653	-2.5492316927	-0.400577
H	 1.0394718548	 1.7669323087	 0.2665165808	 0.127732
H	-0.2728754252	 1.9877833706	-0.90386186	 0.11193
H	-0.6478013679	 1.8380867589	 0.8162189018	 0.119253
H	 0.1756816281	-0.5329060365	 0.8119721717	 0.13002
H	-1.1515212	-0.3210150829	-0.3184620463	 0.094418
H	 0.7986244039	 0.0176228234	-2.0172978304	 0.238402
H	 0.7651739626	-4.8369930949	-0.7218585356	 0.267525
H	 1.3994507965	-5.436495295	-3.3317454651	 0.25319
H	 2.1729652278	-4.1873982275	-4.1261990943	 0.266791
58.7207	94.5858	129.0216	233.4125	264.1628	269.9999	298.6778	334.3882	344.4709	416.6183	495.5308	540.8233	650.6481	727.8961	748.5414	780.0646	805.0317	825.8689	929.6136	1013.9541	1067.0568	1080.8005	1107.4094	1151.617	1171.1038	1185.5701	1279.0344	1304.1934	1353.2102	1402.2534	1418.1544	1477.3001	1494.3235	1500.2384	1526.5647	1548.9448	1604.4684	1628.4135	1663.3565	2972.1483	3032.6922	3072.7629	3102.3413	3120.3025	3556.7669	3605.5501	3655.3909	3686.74
CCNC1=NNC(N)=N1	CCNc1n[nH]c(N)n1	
InChI=1S/C4H9N5/c1-2-6-4-7-3(5)8-9-4/h2H2,1H3,(H4,5,6,7,8,9)	InChI=1S/C4H9N5/c1-2-6-4-7-3(5)8-9-4/h2H2,1H3,(H4,5,6,7,8,9)
