13
gdb 49944	2.63068	1.33945	1.02257	3.0352	71.14	-0.2924	-0.0484	0.244	1122.2184	0.088602	-411.76696	-411.758624	-411.75768	-411.80034	29.201	
N	-0.3573587133	 1.0296293922	-0.6900396284	-0.391986
C	-0.1385801015	-0.0783365119	-0.1227825744	 0.049537
N	-1.130887977	-0.679240293	 0.6780327918	-0.076155
C	-2.5155346394	-0.5723654277	 0.324588288	-0.238807
C	-1.7996007442	-1.9147727989	 0.2379568224	 0.01636
C	-1.5202456325	-2.4388353382	-1.0834838516	 0.273217
N	-1.2741099242	-2.8524899218	-2.1338892245	-0.31522
C	-2.0141688524	-2.9181189334	 1.2611061977	 0.270072
N	-2.205763986	-3.7111326893	 2.0782718477	-0.308624
H	 0.479846624	 1.36814289	-1.1624587285	 0.247559
H	 0.7943574024	-0.6487573638	-0.1206650404	 0.13383
H	-3.2120491636	-0.4296642711	 1.1441619054	 0.165041
H	-2.7587321225	-0.0912091532	-0.6186548851	 0.175175
87.3935	126.6822	137.4087	171.474	220.1939	294.2483	346.3195	481.6245	491.945	566.3568	595.4705	598.2444	730.0092	802.2923	859.1497	915.0305	941.9305	1047.8458	1069.0524	1126.6051	1151.5619	1224.2349	1240.2041	1369.8382	1403.1623	1493.8767	1712.7481	2362.2878	2371.3553	3094.1211	3125.9271	3229.0398	3503.9786
N=CN1CC1(C#N)C#N	[NH][CH]N1CC1(C#N)C#N	
InChI=1S/C5H4N4/c6-1-5(2-7)3-9(5)4-8/h4,8H,3H2	InChI=1S/C5H4N4/c6-1-5(2-7)3-9(5)4-8/h4,8H,3H2
