18
gdb 67861	2.51864	1.64793	1.40606	3.6297	77.4	-0.2315	0.0071	0.2386	1009.3612	0.148602	-401.990643	-401.982605	-401.98166	-402.023006	30.967	
C	-0.0325914492	 1.5696409426	 0.0096915626	-0.47436
C	-0.0102998683	 0.0487689674	 0.013914812	 0.118995
C	-1.3445335644	-0.6409990928	-0.0859568509	-0.118106
C	-1.5093783187	-1.5942034207	 0.8320713613	-0.06478
C	-0.328265068	-1.7229206075	 1.7666760542	-0.283839
C	 0.7036684782	-0.7430558091	 1.1748698379	-0.009389
N	 1.5988380162	-1.2896456742	 0.1506212009	-0.335483
C	 1.0608049417	-0.6135021961	-0.916422866	 0.402851
O	 1.3343643567	-0.5689308901	-2.0851342516	-0.367677
H	 0.9679960671	 1.9815742274	 0.1748494349	 0.123917
H	-0.3857575838	 1.9378127323	-0.9588359495	 0.137606
H	-0.7000252407	 1.958364705	 0.785436227	 0.119814
H	-2.0625094624	-0.3808524569	-0.8556726426	 0.102906
H	-2.3856643172	-2.2280076235	 0.9161684565	 0.098743
H	-0.5956304597	-1.4554605004	 2.7971280981	 0.111344
H	 0.0676826674	-2.7458917952	 1.8056662853	 0.10886
H	 1.2243032544	-0.1400816283	 1.9237709948	 0.083185
H	 2.3330267305	-1.9814594399	 0.1988165749	 0.245412
96.4458	174.3263	192.0614	226.7626	267.8161	322.9358	399.6252	435.0572	524.6024	650.9074	665.6947	717.2397	732.6303	791.207	831.2523	854.9971	895.5867	947.6599	957.5765	976.7373	1023.3622	1045.7817	1103.1245	1128.0642	1149.584	1179.1486	1204.803	1242.3998	1262.1959	1314.6422	1341.3504	1374.5695	1391.0813	1409.67	1474.0113	1491.1728	1493.3203	1675.942	1889.1344	3019.9722	3033.5146	3048.7368	3069.8897	3105.1078	3106.7388	3183.0035	3208.0386	3599.2859
CC12C=CCC1NC2=O	C[C@]12C=CC[C@H]1NC2=O	
InChI=1S/C7H9NO/c1-7-4-2-3-5(7)8-6(7)9/h2,4-5H,3H2,1H3,(H,8,9)	InChI=1S/C7H9NO/c1-7-4-2-3-5(7)8-6(7)9/h2,4-5H,3H2,1H3,(H,8,9)/t5-,7+/m1/s1
