21
gdb 96573	2.51274	1.4292	1.04913	0.9037	80.51	-0.2359	-0.0031	0.2328	1206.6595	0.183296	-424.208401	-424.199755	-424.198811	-424.241265	33.745	
C	 0.217436007	 1.6717826685	-0.0760480926	-0.405913
C	-0.0036321425	 0.1683446608	 0.032792108	 0.110193
O	 0.549518518	-0.3968120948	-1.1617755792	-0.272482
C	 0.6501456618	-1.8093871442	-1.2556392181	-0.070109
C	-0.62161287	-2.6302664442	-0.9662387205	-0.096594
O	-0.7028275178	-3.2149590016	 0.3228189373	-0.243982
C	-1.0221605844	-2.338942573	 1.3992817086	-0.126753
C	 0.160570807	-1.522395543	 1.8781106852	-0.081815
C	 0.6101797743	-0.4201111592	 1.2781944136	-0.055383
H	 1.2879275929	 1.8996468555	-0.0767725319	 0.123093
H	-0.2136772877	 2.049934715	-1.0064904693	 0.123984
H	-0.2509929759	 2.1901368956	 0.7659105925	 0.116457
H	-1.0866453046	-0.0249417253	 0.0441034143	 0.066671
H	 0.9403229266	-1.9759926992	-2.2984801959	 0.105661
H	 1.4530961215	-2.2037784262	-0.6179106043	 0.103142
H	-1.5165135968	-2.0270013202	-1.1883185956	 0.096718
H	-0.6292110783	-3.4875517319	-1.6476055592	 0.110892
H	-1.8631456982	-1.6889469697	 1.1159334098	 0.100203
H	-1.3717895306	-2.9918391302	 2.2039153324	 0.108783
H	 0.6991313024	-1.9161274424	 2.7369583998	 0.097202
H	 1.5102100254	 0.0670049095	 1.6496142951	 0.090031
112.0915	177.0799	191.5926	238.1574	259.6989	307.5249	339.6533	363.8778	400.5317	483.8462	522.0915	565.2569	639.5471	744.0124	810.5342	853.1851	889.976	942.6657	970.6144	999.2009	1013.3115	1036.1506	1056.3185	1073.2878	1132.3519	1142.9971	1160.2663	1164.0991	1254.6177	1262.2307	1305.0814	1341.7473	1346.9099	1366.0037	1388.7425	1401.523	1406.8225	1416.6486	1429.6447	1476.8996	1483.7302	1487.7475	1497.9418	1499.4463	1715.7148	2974.791	2985.5644	2999.7831	3015.8382	3042.4288	3066.1197	3079.6396	3084.4788	3116.448	3124.5961	3134.7691	3161.9611
CC1OCCOCC=C1	C[C@H]1OCCOCC=C1	
InChI=1S/C7H12O2/c1-7-3-2-4-8-5-6-9-7/h2-3,7H,4-6H2,1H3/b3-2-	InChI=1S/C7H12O2/c1-7-3-2-4-8-5-6-9-7/h2-3,7H,4-6H2,1H3/b3-2-/t7-/m1/s1
