18
gdb 65156	4.02437	1.01058	0.99884	4.1272	72.96	-0.2464	0.0335	0.28	1245.0113	0.146768	-439.088442	-439.079745	-439.0788	-439.122194	32.992	
O	 0.1101782954	 1.3215461824	 0.3228238101	-0.461086
C	 0.1124790196	-0.0575121857	 0.0758091198	 0.389784
C	 1.009218993	-0.4825975693	-1.051765771	-0.300306
C	 1.3722573081	-0.8312543734	 0.3774569149	-0.327195
C	-1.2257747596	-0.7428138984	 0.244049924	 0.003281
C	-2.0162168219	-0.455732792	 1.5593634998	-0.421764
C	-3.0439251064	 0.26242837	 0.6491263069	 0.435091
O	-4.0496931396	 0.8967061031	 0.8120238487	-0.355348
N	-2.3451787271	-0.1152099382	-0.4742069776	-0.314147
H	 0.1194756687	 1.462377457	 1.2755741446	 0.28732
H	 0.677859074	-1.2786046916	-1.7097556252	 0.116467
H	 1.5786033041	 0.3041677398	-1.5318122724	 0.130562
H	 2.1856785976	-0.2760061959	 0.8304309955	 0.120434
H	 1.2893489979	-1.8641680449	 0.6986382278	 0.1171
H	-1.1179914709	-1.8091608197	 0.0146622646	 0.081694
H	-2.4033355533	-1.3350886406	 2.0761909275	 0.132674
H	-1.5249404717	 0.2007621139	 2.2799171783	 0.114205
H	-2.4065481079	 0.2252495837	-1.4231801264	 0.251234
58.3096	70.3427	202.3296	260.539	274.482	313.2478	360.8521	394.6698	466.1963	478.6086	543.9402	569.8222	724.6505	760.4659	779.3155	863.1534	906.8027	932.204	952.7261	982.7226	993.6201	1004.2977	1035.3578	1055.7327	1080.4716	1107.5857	1181.329	1190.7821	1192.3329	1250.575	1278.7538	1308.0236	1336.449	1376.9023	1416.0833	1454.2439	1461.7969	1497.4776	1899.8884	3038.9334	3086.362	3133.842	3140.045	3142.8644	3220.371	3235.9423	3604.5255	3803.7977
OC1(CC1)C1CC(=O)N1	OC1(CC1)[C@H]1CC(=O)N1	
InChI=1S/C6H9NO2/c8-5-3-4(7-5)6(9)1-2-6/h4,9H,1-3H2,(H,7,8)	InChI=1S/C6H9NO2/c8-5-3-4(7-5)6(9)1-2-6/h4,9H,1-3H2,(H,7,8)/t4-/m1/s1
