18
gdb 32181	2.04915	1.64553	0.97729	2.7792	82.08	-0.2197	-0.0357	0.184	1211.6198	0.148576	-402.01306	-402.004628	-402.003684	-402.046281	31.377	
C	 0.0388245144	 1.5130799138	 0.2724583082	-0.372169
C	-0.0299646595	 0.0170398282	-0.0900245016	-0.303468
C	-1.4147983192	-0.5548986249	-0.0981473844	 0.321491
C	-2.2294879676	-0.8415187534	-1.1564425214	-0.243859
C	-3.4807720819	-1.3317174082	-0.6504300833	-0.165054
C	-3.4033587738	-1.3335856291	 0.707385714	-0.076193
N	-2.1421700418	-0.8603008946	 1.0651095044	-0.102667
C	-1.700989519	-0.7621409339	 2.3786883011	 0.170207
O	-2.3729076613	-1.0445738721	 3.3378340862	-0.296713
H	 1.0697428612	 1.8758246383	 0.2159573373	 0.119003
H	-0.5719771606	 2.1036941289	-0.4162829544	 0.129158
H	-0.3281110427	 1.7036529133	 1.2857128234	 0.120673
H	 0.3769749853	-0.1236715189	-1.0965103931	 0.11979
H	 0.6268175227	-0.5548448366	 0.5775455863	 0.112457
H	-1.9613578192	-0.7170990821	-2.1953168692	 0.104311
H	-4.3311289184	-1.6476105235	-1.2351897521	 0.110219
H	-4.0932443503	-1.6257750474	 1.4801061842	 0.150599
H	-0.6631589782	-0.3990502976	 2.4494148346	 0.102216
99.7291	135.0013	148.093	196.2541	241.3639	272.7508	346.6802	389.0555	554.024	612.5189	619.3243	684.0508	761.5738	788.9642	821.5907	824.9169	876.9779	901.1074	963.4822	1028.5404	1032.566	1062.8	1082.875	1091.6672	1172.9474	1249.0925	1284.5583	1318.8086	1355.3457	1362.6127	1410.5129	1439.574	1449.2177	1487.5448	1497.1471	1505.268	1531.6821	1624.7612	1815.3197	3009.1171	3028.8929	3040.8263	3075.3267	3112.0714	3118.6093	3239.3563	3255.5907	3297.1007
CCC1=CC=CN1C=O	CCc1cccn1C=O	
InChI=1S/C7H9NO/c1-2-7-4-3-5-8(7)6-9/h3-6H,2H2,1H3	InChI=1S/C7H9NO/c1-2-7-4-3-5-8(7)6-9/h3-6H,2H2,1H3
