17
gdb 51759	2.98591	0.94182	0.76083	3.4419	74.78	-0.2548	-0.0394	0.2154	1439.3719	0.134694	-417.996847	-417.987885	-417.98694	-418.031854	31.237	
O	-0.3634719777	 0.1564675127	 0.3447429435	-0.228854
C	-0.0708165085	 1.2778465006	 0.026477268	 0.154998
C	 1.3587359843	 1.7798174201	-0.1226912786	-0.247879
N	 1.4629580861	 2.7282184106	-1.2083295574	-0.080796
C	 1.5559870332	 2.2510827262	-2.6069141538	-0.173616
C	 2.5180199192	 3.4239131316	-2.908004998	-0.249594
C	 2.7035283946	 3.511621097	-1.3649063618	-0.108667
C	 2.7018028487	 4.8253888624	-0.722480857	 0.292019
N	 2.7049840168	 5.8644447479	-0.2166506645	-0.318238
H	-0.8370156127	 2.0588064147	-0.1759991932	 0.093619
H	 1.6016281745	 2.3048238264	 0.8130950136	 0.1452
H	 2.0372241264	 0.9137219011	-0.2083231364	 0.110712
H	 2.0508404118	 1.2712104985	-2.6934688096	 0.104987
H	 0.6039719385	 2.2180668631	-3.1433011438	 0.124148
H	 3.4138951686	 3.2096249962	-3.4882388125	 0.128233
H	 2.010578172	 4.3004012553	-3.310019364	 0.141961
H	 3.6057183642	 2.9672716056	-1.0429619345	 0.111767
51.8893	75.9563	112.7068	149.9247	171.4448	259.5647	344.3202	362.697	461.4149	528.9639	577.5957	658.9383	749.396	824.3324	834.0551	950.2372	956.6565	1010.1212	1049.5741	1062.7955	1103.2918	1126.09	1160.3957	1208.4602	1222.6889	1251.9386	1255.5906	1271.6202	1331.3396	1341.4504	1372.4425	1407.5466	1456.1385	1488.3628	1523.2557	1841.6024	2358.1356	2895.0636	2962.5934	2974.7975	2987.9175	3031.9249	3084.8027	3105.7739	3168.0748
O=CCN1CCC1C#N	O=CCN1CC[C@H]1C#N	
InChI=1S/C6H8N2O/c7-5-6-1-2-8(6)3-4-9/h4,6H,1-3H2	InChI=1S/C6H8N2O/c7-5-6-1-2-8(6)3-4-9/h4,6H,1-3H2/t6-/m0/s1
