18
gdb 42938	2.49654	2.12389	1.48855	4.0849	74.97	-0.2387	0.0008	0.2394	919.4254	0.150956	-401.939956	-401.933322	-401.932377	-401.970728	27.527	
O	-0.0187360465	 0.0167621516	 0.3636758476	-0.32947
C	-0.0621026224	 1.1887832265	 0.0873956187	 0.376637
C	-1.357574576	 1.9729409485	-0.0687311529	-0.104399
C	-1.3448538931	 2.9822280545	 1.1292873676	-0.247518
C	-0.4825844707	 3.8959696735	 0.2203289163	-0.043113
C	-1.208416301	 3.2191814843	-0.9883568256	-0.234548
C	 0.9544924175	 3.4212959945	 0.115549524	-0.009585
C	 1.6916329931	 2.6168904166	 1.1336035794	-0.267389
N	 1.1133661551	 1.9739374865	-0.0550898801	-0.110811
H	-2.200446314	 1.2946343403	-0.1919746228	 0.08821
H	-2.3368930253	 3.4135434976	 1.2818119025	 0.113102
H	-0.9537151423	 2.6474341946	 2.0929788611	 0.110496
H	-0.5508803507	 4.9781055778	 0.3465979829	 0.074556
H	-0.6511074743	 3.1125384562	-1.922243149	 0.112714
H	-2.1835124718	 3.6700214021	-1.1887388302	 0.1067
H	 1.5570535423	 4.0012754772	-0.5831051671	 0.101986
H	 2.7771478094	 2.6533259001	 1.1602727238	 0.129327
H	 1.2231947106	 2.4095013175	 2.0909435639	 0.133106
132.7499	254.7203	304.4889	403.9828	430.895	454.4091	499.6569	608.62	683.4409	757.2845	778.4441	827.4833	883.0795	892.8456	903.7177	914.642	962.1709	974.4607	1008.069	1046.0995	1063.9024	1087.4925	1102.0563	1111.2174	1136.7701	1146.8232	1174.4387	1199.794	1244.1257	1248.222	1276.5224	1315.3349	1329.5493	1356.1862	1405.6478	1481.2237	1507.3647	1519.7258	1823.8323	3060.4462	3064.3392	3089.472	3109.615	3115.2028	3118.3297	3119.1958	3129.285	3204.73
O=C1C2CC(C2)C2CN12	O=C1[C@H]2C[C@H](C2)[C@H]2CN12	
InChI=1S/C7H9NO/c9-7-5-1-4(2-5)6-3-8(6)7/h4-6H,1-3H2	InChI=1S/C7H9NO/c9-7-5-1-4(2-5)6-3-8(6)7/h4-6H,1-3H2/t4-,5+,6-,8?/m1/s1
