16
gdb 49742	3.75812	1.39209	1.28483	2.1093	76.	-0.2211	-0.0471	0.1741	993.9337	0.123862	-400.62413	-400.61711	-400.616166	-400.655885	27.338	
O	-0.6375569124	 0.9114468622	-0.7281183121	-0.233257
C	 0.1022764572	 1.0811590753	 0.204500983	 0.149178
C	 1.3924407603	 1.8849372875	 0.1785704506	-0.145139
C	 1.4833120164	 2.8070240615	-1.0209012981	-0.126121
C	 1.933967965	 4.0136635774	-0.6119605973	 0.010305
C	 0.8408422584	 4.990081678	-0.1729009874	-0.167945
N	 1.070848889	 4.4171913495	 1.2379254794	-0.145027
C	 1.525511315	 2.9331391952	 1.318438746	-0.047123
C	 2.4326634442	 3.9759005697	 0.83642065	-0.081948
H	-0.1135190141	 0.6297749839	 1.2001577526	 0.086056
H	 2.1941683409	 1.1420258486	 0.3379881621	 0.118275
H	 0.7247621205	 2.7076862527	-1.7904280475	 0.125778
H	 1.0977732241	 6.05087942	-0.1010837041	 0.122643
H	-0.1567812892	 4.8572720587	-0.5986890013	 0.123389
H	 1.4946199857	 2.6221300218	 2.3589059321	 0.108337
H	 3.3433138291	 4.3701394682	 1.2727438621	 0.102599
70.9345	150.4935	227.1296	351.9574	420.3229	450.6492	555.0537	642.8578	663.8338	726.986	748.5026	783.5897	844.5195	886.9538	891.166	918.2468	993.8969	1001.4243	1015.2892	1028.0275	1066.6094	1075.8299	1081.7941	1121.4207	1173.5255	1215.1682	1234.0585	1254.7442	1264.6765	1309.4335	1352.2924	1422.0142	1507.8717	1575.9004	1829.1384	2868.919	2951.2962	3051.1091	3118.7417	3160.224	3177.8481	3184.8764
O=CC1C=C2CN3C1C23	O=C[C@H]1[CH][C]2CN3[C@@H]1[C@@H]23	
InChI=1S/C7H7NO/c9-3-5-1-4-2-8-6(4)7(5)8/h1,3,5-7H,2H2	InChI=1S/C7H7NO/c9-3-5-1-4-2-8-6(4)7(5)8/h1,3,5-7H,2H2/t5-,6-,7+,8?/m1/s1
