15
gdb 51079	3.18634	1.24056	1.03505	4.3972	67.21	-0.2611	-0.0176	0.2436	1133.5563	0.111544	-457.746796	-457.73897	-457.738026	-457.780581	28.285	
O	 0.1083050551	-0.0009896487	-0.1717014717	-0.259118
C	 0.1633106278	 1.1738566277	-0.3577946894	 0.124458
O	 0.8774170495	 1.9901230697	 0.4739758049	-0.246566
C	 0.8971426816	 3.3472016293	 0.1982379959	 0.287362
C	 0.4229723087	 4.4894457515	 1.157981882	-0.278604
C	 0.9988025382	 5.2526070405	-0.083957369	-0.175179
C	 2.1736325958	 4.2154142018	-0.0606020541	-0.278511
C	 0.2533893396	 4.2027932992	-0.9187073434	 0.401703
O	-0.4355158716	 4.0941174302	-1.8849445709	-0.331215
H	-0.326892026	 1.7201660067	-1.1788814716	 0.137212
H	-0.6457443418	 4.5746394577	 1.3585766144	 0.12598
H	 1.0264315565	 4.5857691689	 2.0622290119	 0.125229
H	 1.0636441295	 6.3241377016	-0.2317407472	 0.11595
H	 2.8315048729	 4.3032262795	 0.8057691153	 0.125259
H	 2.7240825143	 4.0471877644	-0.9870730068	 0.12604
24.7066	141.5784	147.1395	191.3394	319.895	377.3317	423.8072	519.8886	566.0236	726.6527	758.186	780.2897	806.8188	834.7361	942.8383	949.1698	990.0637	1002.8275	1036.7122	1054.0617	1083.2435	1114.6346	1127.6829	1167.0951	1190.3081	1195.7471	1230.2779	1322.0849	1436.3138	1493.1157	1531.6808	1869.7549	1913.3302	3033.1133	3076.6063	3077.0012	3152.8325	3153.7894	3199.644
O=COC12CC(C1)C2=O	O=CO[C@@]12C[C@@H](C1)C2=O	
InChI=1S/C6H6O3/c7-3-9-6-1-4(2-6)5(6)8/h3-4H,1-2H2	InChI=1S/C6H6O3/c7-3-9-6-1-4(2-6)5(6)8/h3-4H,1-2H2/t4-,6-
