21
gdb 37354	2.39463	1.89116	1.86711	1.3956	80.	-0.2344	0.0799	0.3143	925.4582	0.187239	-387.081515	-387.074791	-387.073847	-387.112105	29.068	
C	 0.0004074055	 1.4990837071	 0.2450695463	-0.307019
C	 1.31453693	 0.7821414547	 0.0286967363	-0.034865
C	 0.0126772969	 0.0009448151	 0.0372494087	-0.034866
C	-0.0946875565	-0.6357900533	-1.365961707	-0.039555
C	 1.3946224627	-0.8459204655	-1.7237954325	-0.211933
C	 1.9133304122	 0.5691443456	-1.3791516669	-0.039556
C	 1.3893638865	 1.5170203953	-2.4689981473	-0.078346
O	-0.0289486623	 1.5169351315	-2.5936347908	-0.259325
C	-0.6950824225	 0.2662245565	-2.4553058924	-0.078346
H	-0.1879648779	 1.8241688034	 1.264507513	 0.09877
H	-0.3987292877	 2.1559387787	-0.5133733401	 0.142098
H	 2.0032742341	 0.72211133	 0.8645181533	 0.078542
H	-0.2503042833	-0.6301773896	 0.8793214486	 0.078542
H	-0.6718841538	-1.5647639138	-1.3392651986	 0.064073
H	 1.8518279035	-1.600764737	-1.0765255912	 0.090475
H	 1.562397505	-1.1369458706	-2.7678121642	 0.083841
H	 3.0048333562	 0.6414919371	-1.3634136915	 0.064073
H	 1.659035508	 2.5567150131	-2.2559322263	 0.106442
H	 1.8552776362	 1.2391643815	-3.4297083594	 0.085257
H	-0.6783858427	-0.281188481	-3.4130654117	 0.085257
H	-1.7372871399	 0.5187128912	-2.2336219663	 0.106442
208.0267	228.9939	306.452	351.0465	416.1242	482.5364	546.2222	577.663	714.8715	720.0283	785.9265	805.7416	823.6146	869.1072	883.1786	918.237	943.2994	951.2084	955.0494	1007.1233	1036.5762	1052.8597	1070.7968	1095.1825	1100.4063	1112.6955	1119.2589	1126.17	1190.3651	1207.7152	1211.8562	1262.7973	1271.2266	1305.3258	1322.8448	1334.5706	1337.2733	1347.8669	1378.5094	1393.9681	1423.1128	1486.2005	1497.2841	1498.3891	1511.7828	2955.5483	2961.5552	3030.6385	3062.9365	3064.8845	3068.471	3070.8175	3082.2925	3132.5835	3155.3182	3165.988	3247.8853
C1C2C1C1CC2COC1	C1[C@H]2[C@@H]1[C@@H]1C[C@H]2COC1	
InChI=1S/C8H12O/c1-5-3-9-4-6(1)8-2-7(5)8/h5-8H,1-4H2	InChI=1S/C8H12O/c1-5-3-9-4-6(1)8-2-7(5)8/h5-8H,1-4H2/t5-,6+,7+,8-
