17
gdb 125180	3.24669	1.48747	1.04942	3.01	74.9	-0.2393	-0.0078	0.2315	1115.9025	0.138425	-417.999068	-417.991353	-417.990408	-418.031618	28.778	
C	 0.074629732	 1.506962342	 0.0379446916	-0.492292
C	-0.0916216476	 0.0304169306	-0.038023941	 0.250695
C	-1.1513441132	-0.815708106	-0.0696083116	 0.10261
C	-2.6479441478	-0.9607136171	-0.0749382152	-0.317258
N	-2.871605751	-2.4193209895	 0.1584432884	-0.303241
C	-1.6295534799	-3.1553631587	-0.2057299671	-0.292437
C	-0.5588031555	-2.0990916135	-0.1433459057	 0.354128
N	 0.7437342767	-2.0756997387	-0.1532515932	-0.251777
O	 1.0518013408	-0.7031018377	-0.0827626873	-0.2232
H	 0.687071506	 1.7886614076	 0.9005794792	 0.151433
H	 0.5720204101	 1.8935846787	-0.8579516022	 0.152066
H	-0.8991983028	 1.9920930467	 0.1283772145	 0.137062
H	-3.1681774106	-0.3775124204	 0.6905650454	 0.11734
H	-3.0760169053	-0.6732062781	-1.0446084732	 0.124235
H	-3.0233781014	-2.5491128452	 1.152248587	 0.226347
H	-1.4672387634	-4.0002560839	 0.4678274821	 0.130985
H	-1.7129633771	-3.5584225569	-1.2232951717	 0.133302
83.5712	134.5934	170.6779	241.5023	265.4083	329.8332	496.5558	575.3708	616.7971	626.0518	681.5158	770.4337	784.658	814.9226	894.7918	900.3189	989.5361	995.0179	1044.9594	1054.7944	1065.0307	1093.249	1176.5244	1187.6961	1265.3246	1267.2269	1309.4733	1350.1049	1412.6062	1432.392	1470.9884	1474.738	1486.4445	1492.4638	1505.894	1573.7856	1702.2063	3013.1615	3025.1055	3041.4534	3077.7267	3097.9331	3099.5648	3135.32	3533.9299
CC1=C2CNCC2=NO1	Cc1c2CNCc2no1	
InChI=1S/C6H8N2O/c1-4-5-2-7-3-6(5)8-9-4/h7H,2-3H2,1H3	InChI=1S/C6H8N2O/c1-4-5-2-7-3-6(5)8-9-4/h7H,2-3H2,1H3
