16
gdb 83917	2.79675	1.42859	1.23597	3.5836	69.59	-0.2639	0.0195	0.2834	1034.8131	0.125906	-437.88335	-437.875784	-437.87484	-437.915325	29.049	
O	 0.1115403978	 1.3746636937	-0.0910344889	-0.424613
C	 0.01522363	-0.0007168919	 0.0193835033	 0.108274
C	-0.4259362302	-0.7199201921	 1.259422105	-0.168469
C	-1.184218125	 0.1060748337	 2.2801555467	-0.116327
O	-2.0909518815	 0.9106730903	 1.5161671414	-0.274694
C	-2.5296699554	 0.144350145	 0.393844128	-0.163866
C	-1.3343911081	-0.7293831146	 0.0150203488	 0.103503
C	-1.543668994	-1.8906559206	-0.7902758077	 0.193651
N	-1.7106752644	-2.8255720992	-1.4524016187	-0.340766
H	-0.5816591632	 1.7676124626	 0.4593027127	 0.305097
H	 0.7941695886	-0.4820047149	-0.5616455245	 0.13546
H	 0.0858698519	-1.6194341845	 1.579988972	 0.122423
H	-1.725523562	-0.5447987498	 2.9811990066	 0.120812
H	-0.5534736667	 0.7925513537	 2.8526167964	 0.132966
H	-3.3943950813	-0.4838954252	 0.6474113735	 0.127599
H	-2.8192167562	 0.8509653436	-0.3884716645	 0.13895
135.4649	159.4939	205.5597	241.2345	282.8858	437.1337	478.988	540.0756	553.4338	561.1875	584.8174	714.3459	731.5646	854.5729	878.8053	923.342	960.6017	1014.7307	1046.3303	1079.4427	1090.9652	1105.1549	1147.3016	1201.7212	1224.8313	1249.1495	1259.206	1325.6214	1338.716	1358.8987	1420.7	1470.8914	1508.3292	1521.5896	2345.8788	3009.729	3017.499	3089.1121	3098.2317	3182.2717	3193.3078	3723.3433
OC1C2COCC12C#N	O[C@H]1[C@H]2COC[C@@]12C#N	
InChI=1S/C6H7NO2/c7-2-6-3-9-1-4(6)5(6)8/h4-5,8H,1,3H2	InChI=1S/C6H7NO2/c7-2-6-3-9-1-4(6)5(6)8/h4-5,8H,1,3H2/t4-,5+,6-/m1/s1
