17
gdb 25622	3.4606	0.9811	0.76885	1.4949	93.03	-0.1693	0.0183	0.1876	1465.6921	0.13669	-380.888936	-380.879592	-380.878648	-380.924045	33.769	
C	-0.0498720183	 1.4637067384	 0.0022266273	-0.509653
C	-0.0040463535	 0.0100229176	-0.0115811612	 0.191584
C	 0.0305291755	-1.1996630012	-0.032586201	-0.114454
C	 0.0968880283	-2.6013392405	-0.0484423571	 0.136546
C	 1.207791939	-3.4430878351	-0.0162830229	 0.144507
N	 2.5440283959	-3.0291468654	-0.0329230728	-0.621674
C	 0.7329381372	-4.7806186665	-0.0428014697	-0.196056
C	-0.6452438177	-4.7282994982	-0.0941609682	-0.093283
N	-1.0254242525	-3.4230760452	-0.1036742286	-0.325537
H	 0.6846692231	 1.8947038591	-0.6882648502	 0.147265
H	-1.0371978129	 1.8253739629	-0.3072165805	 0.147755
H	 0.1516100051	 1.8740693341	 0.9992859968	 0.142807
H	 2.6461554815	-2.0596221714	 0.2406699305	 0.243303
H	 3.1474510291	-3.6116341427	 0.5325382107	 0.24031
H	 1.3356037098	-5.6758793834	-0.0356925434	 0.088963
H	-1.3740988579	-5.5221909982	-0.1264186678	 0.116331
H	-1.9687235917	-3.0806483542	-0.1355846321	 0.261285
30.9908	82.0611	104.151	231.7764	250.1819	273.4574	302.7551	373.5539	395.3512	468.7197	480.7157	560.0883	631.3228	676.7505	699.1637	722.0682	771.5349	806.8205	907.7862	978.764	1050.3735	1051.9612	1068.454	1090.0953	1139.4803	1238.7824	1292.2739	1348.1341	1412.6081	1455.3327	1473.2231	1481.2329	1495.4839	1522.9777	1612.9	1653.2162	2332.4009	3016.2195	3069.6142	3081.0677	3245.2026	3269.0647	3531.6497	3625.1934	3695.1133
CC#CC1=C(N)C=CN1	CC#Cc1c(N)cc[nH]1	
InChI=1S/C7H8N2/c1-2-3-7-6(8)4-5-9-7/h4-5,9H,8H2,1H3	InChI=1S/C7H8N2/c1-2-3-7-6(8)4-5-9-7/h4-5,9H,8H2,1H3
