18
gdb 124768	4.30562	0.95904	0.89704	4.7295	75.35	-0.2535	-0.0052	0.2483	1357.6452	0.147527	-435.269337	-435.260102	-435.259158	-435.304637	32.756	
C	 0.0099469963	 1.4949322299	-0.1824358763	-0.389385
C	 0.0338237759	-0.0056871763	 0.142517314	 0.031035
O	 0.5604374369	-0.2381971302	 1.4405939156	-0.433883
C	-1.3341775463	-0.6202325691	 0.0191279463	 0.329079
C	-1.9444113233	-1.3333786515	-0.9850024445	-0.223885
N	-3.1847706565	-1.6033076394	-0.5066522269	 0.080191
C	-4.2688381879	-2.3373795613	-1.1285227577	-0.331511
N	-3.3391223614	-1.0933872531	 0.7287639051	-0.142369
N	-2.2243140524	-0.49773273	 1.0438562117	-0.276659
H	 1.0087879378	 1.9167189653	-0.0421123358	 0.122071
H	-0.3071681323	 1.6709740646	-1.2159116358	 0.10684
H	-0.6874268607	 2.0135701088	 0.4828783022	 0.12747
H	 0.7139418811	-0.5091904613	-0.5549425085	 0.086101
H	-0.1742238179	-0.1264125092	 2.0573294535	 0.295377
H	-1.6146616202	-1.6631014066	-1.9559738871	 0.145901
H	-3.9663430679	-3.3667299948	-1.339361871	 0.150712
H	-5.1009796683	-2.3393799218	-0.4248999007	 0.173438
H	-4.5779145228	-1.853605364	-2.059025284	 0.149477
24.0355	81.9031	117.8844	176.8887	225.4631	257.0476	312.1298	370.0789	383.5786	451.9525	501.3003	668.8836	671.7336	745.1737	746.1568	798.2751	903.9305	1013.3905	1034.1475	1053.454	1071.5091	1093.7452	1112.305	1151.5585	1164.3241	1249.3306	1294.963	1327.7788	1354.1909	1378.7545	1397.1834	1430.6204	1444.4991	1481.9591	1485.035	1489.0363	1496.3586	1511.634	1590.969	3034.6199	3037.6675	3051.7741	3108.6788	3117.9456	3123.0918	3165.9316	3277.821	3776.2928
CC(O)C1=CN(C)N=N1	C[C@@H](O)c1cn(C)nn1	
InChI=1S/C5H9N3O/c1-4(9)5-3-8(2)7-6-5/h3-4,9H,1-2H3	InChI=1S/C5H9N3O/c1-4(9)5-3-8(2)7-6-5/h3-4,9H,1-2H3/t4-/m1/s1
