21
gdb 118140	3.52896	0.77679	0.72045	1.1576	76.7	-0.262	0.0725	0.3345	1665.7121	0.179566	-461.328687	-461.318126	-461.317182	-461.365282	37.212	
C	-0.0529154803	 1.3272971359	-0.1665280824	-0.230013
O	-0.0313213357	-0.0501779227	 0.1313950454	-0.252576
C	-1.2265177303	-0.7222754365	-0.2202151593	-0.084146
C	-1.0785777736	-2.1580237706	 0.2802085622	 0.07894
O	-0.7917458777	-2.1666297058	 1.6681244332	-0.448711
C	-2.3634389732	-2.9286074957	 0.0855319134	 0.057671
O	-2.7202916122	-3.2525891888	-1.2620416729	-0.27072
C	-2.442892778	-4.3300326081	-0.3552968821	 0.079921
C	-1.2643930819	-5.2169758008	-0.6596593529	-0.420342
H	 0.9044386847	 1.7462141365	 0.1524527493	 0.130295
H	-0.1782040292	 1.5052417962	-1.2451182788	 0.112218
H	-0.8658769123	 1.8451397802	 0.3652576563	 0.110094
H	-2.091883857	-0.2408138284	 0.2651895533	 0.089718
H	-1.3877263913	-0.7100602313	-1.3083350781	 0.11035
H	-0.2646067708	-2.6269192992	-0.2915014452	 0.074828
H	-0.1587097558	-1.4504388386	 1.8046820601	 0.292489
H	-3.1859296812	-2.5456609438	 0.6937521624	 0.091562
H	-3.341454922	-4.8702213652	-0.0492045377	 0.090119
H	-0.3912260335	-4.6423544359	-0.9736621527	 0.131055
H	-0.9967779209	-5.8058400958	 0.223941676	 0.129467
H	-1.5179866378	-5.9140394917	-1.4651302994	 0.127783
37.1932	85.0506	103.8753	119.7467	163.8558	207.684	229.3931	241.2271	361.1601	384.1068	409.7251	422.5	462.4508	531.1972	600.3162	785.1868	846.6891	908.8816	972.4128	984.5169	998.1526	1063.7986	1093.4949	1125.0575	1128.4551	1161.4858	1172.8618	1178.2831	1190.3649	1225.8131	1253.211	1272.438	1295.8077	1351.5544	1366.4228	1401.3055	1416.7664	1442.943	1476.281	1479.004	1486.3467	1491.8098	1500.5098	1519.5274	1522.7369	2965.1032	2981.1068	2998.7632	3024.5384	3028.6163	3042.1262	3079.4814	3093.0915	3103.2476	3117.0156	3138.0368	3777.6962
COCC(O)C1OC1C	COC[C@@H](O)[C@H]1O[C@H]1C	
InChI=1S/C6H12O3/c1-4-6(9-4)5(7)3-8-2/h4-7H,3H2,1-2H3	InChI=1S/C6H12O3/c1-4-6(9-4)5(7)3-8-2/h4-7H,3H2,1-2H3/t4-,5+,6-/m0/s1
