19
gdb 9842	3.33762	1.43511	1.19647	3.5385	67.16	-0.2509	0.0655	0.3164	1061.8833	0.164662	-402.164648	-402.155714	-402.15477	-402.197925	33.433	
C	-0.0755513129	 1.4804594465	 0.1485898304	-0.46842
C	 0.081901096	-0.0256777335	 0.087299542	 0.303159
C	 0.8662925363	-0.6056454966	-1.0419655968	-0.290884
N	 1.4106380836	-0.6100670947	 0.3283847003	-0.342639
C	-1.0930609452	-0.7876813657	 0.6863030473	 0.044168
O	-2.2664393307	-0.6133517679	-0.1245183139	-0.44302
C	-0.8763156456	-2.2811147207	 0.9431901763	-0.075892
O	-2.0592187026	-2.8544712742	 1.4625188232	-0.426199
H	 0.7298741033	 1.9885483784	-0.3914244299	 0.109924
H	-1.0308788107	 1.7829962334	-0.2899088788	 0.13935
H	-0.0627493599	 1.8280182685	 1.1883072226	 0.125409
H	 0.6432300548	-1.59018252	-1.4436627373	 0.119127
H	 1.2819867876	 0.0888374641	-1.7678172344	 0.113849
H	 2.1015581844	 0.129234747	 0.4333419005	 0.231265
H	-1.3638115345	-0.3267377923	 1.6443415479	 0.095042
H	-2.030109752	-0.8725339422	-1.0236568736	 0.282028
H	-0.5689768895	-2.7843668708	 0.0099317649	 0.073321
H	-0.0768641162	-2.4294964243	 1.6718160911	 0.127661
H	-2.7787834862	-2.4661330248	 0.9478637885	 0.28275
69.5248	127.2259	181.3187	214.8026	260.1124	313.7219	322.2617	365.0532	367.1735	470.4548	492.7638	526.4566	542.2846	743.8839	851.7188	865.4135	933.92	956.6814	990.8392	992.8502	1045.755	1064.6979	1080.4965	1107.7109	1121.6537	1158.4277	1198.9268	1250.2513	1270.5917	1293.3242	1356.4136	1382.4122	1395.6362	1412.6167	1424.0658	1442.3372	1482.4986	1503.0705	1504.8703	1514.6601	2954.8772	3028.2656	3041.128	3093.2786	3105.7778	3112.5353	3113.8107	3188.3565	3495.0578	3763.6596	3782.6332
CC1(CN1)C(O)CO	C[C@]1(CN1)[C@@H](O)CO	
InChI=1S/C5H11NO2/c1-5(3-6-5)4(8)2-7/h4,6-8H,2-3H2,1H3	InChI=1S/C5H11NO2/c1-5(3-6-5)4(8)2-7/h4,6-8H,2-3H2,1H3/t4-,5-/m0/s1
