15
gdb 29336	2.02443	1.87673	0.98083	3.6673	75.7	-0.2127	-0.0206	0.1921	1137.3018	0.113049	-416.859336	-416.850711	-416.849767	-416.892693	31.28	
C	 0.0830377106	 1.4835728507	 0.0266683091	-0.501352
C	-0.0306217172	 0.0045220832	 0.0535156744	 0.280656
C	-1.1115867577	-0.8405631513	-0.0250736685	 0.033565
C	-2.4690207506	-0.4782868185	-0.168401675	 0.189112
N	-3.5913218305	-0.2157254474	-0.2955091376	-0.361569
C	-0.5961969714	-2.1919544545	 0.0520387279	 0.133809
N	-1.3812930638	-3.3376833547	 0.081755033	-0.615265
C	 0.752002616	-2.0533220157	 0.1679532764	-0.097005
O	 1.093662779	-0.7168601429	 0.1712433808	-0.174752
H	 0.702773335	 1.8164811516	-0.8130434288	 0.150581
H	-0.9080346044	 1.9300047953	-0.0733151048	 0.1592
H	 0.5444206132	 1.8596108389	 0.9462803177	 0.151842
H	-2.2671886727	-3.2354752306	-0.394764528	 0.263089
H	-0.907028994	-4.1785846496	-0.2148675905	 0.252959
H	 1.5674932384	-2.7484006546	 0.2623121141	 0.135131
98.3923	120.4284	137.5558	204.1529	243.8465	266.1569	352.8079	403.2323	534.3108	537.0546	582.6552	607.6584	643.8311	659.7182	671.1432	738.8435	774.2466	961.9808	1052.8765	1058.8366	1118.3605	1140.8891	1221.0184	1285.1906	1357.2496	1414.499	1453.6871	1471.2256	1481.4777	1598.6891	1649.4876	1675.4129	2335.7755	3037.3385	3091.4962	3140.8319	3294.0763	3555.2137	3651.2253
CC1=C(C#N)C(N)=CO1	Cc1c(C#N)c(N)co1	
InChI=1S/C6H6N2O/c1-4-5(2-7)6(8)3-9-4/h3H,8H2,1H3	InChI=1S/C6H6N2O/c1-4-5(2-7)6(8)3-9-4/h3H,8H2,1H3
