14
gdb 132792	2.413	1.81483	1.03686	1.1745	68.96	-0.206	-0.004	0.202	1040.9943	0.102317	-478.039384	-478.031982	-478.031038	-478.070949	29.023	
N	-0.0527618742	 1.4448109424	-0.1482220332	-0.602842
C	-0.0203624226	 0.0575282966	-0.0692918869	 0.072516
C	-1.1657424723	-0.7242133313	-0.0026991755	 0.266328
F	-2.3464829525	-0.0917128372	 0.0578188566	-0.085935
C	-1.1100422611	-2.112362923	 0.010873605	-0.262246
C	 0.1449657044	-2.6976342517	-0.0390553073	-0.02324
N	 1.2794311244	-1.9835699269	-0.0927672255	-0.365654
C	 1.1855940298	-0.6680465804	-0.1055318726	 0.391487
O	 2.3283915523	 0.0635073417	-0.1486826084	-0.433296
H	 0.7971251506	 1.8879840801	 0.1692786061	 0.264122
H	-0.8845023996	 1.8607530727	 0.2449802817	 0.255468
H	-2.0205094902	-2.6953293016	 0.0613834908	 0.11065
H	 0.2548811213	-3.7771754718	-0.0329537487	 0.113086
H	 3.0523326998	-0.5772774798	-0.1531294521	 0.299556
148.2466	259.9436	275.4933	306.2865	329.4565	330.7757	494.4653	502.0198	540.7367	562.2443	565.5689	626.1023	640.1494	725.3688	777.788	819.8176	864.2579	937.7046	987.4981	1084.742	1161.8226	1238.644	1300.9839	1319.0549	1331.3331	1392.9225	1499.5274	1540.7543	1625.693	1644.813	1664.8796	3179.4409	3220.149	3564.5088	3671.4525	3777.2873
NC1=C(F)C=CN=C1O	Nc1c(F)ccnc1O	
InChI=1S/C5H5FN2O/c6-3-1-2-8-5(9)4(3)7/h1-2H,7H2,(H,8,9)	InChI=1S/C5H5FN2O/c6-3-1-2-8-5(9)4(3)7/h1-2H,7H2,(H,8,9)
