20
gdb 10081	3.18702	1.10276	0.87643	3.2822	72.41	-0.2503	-0.0213	0.2291	1317.1217	0.173988	-386.147735	-386.137579	-386.136635	-386.184099	34.801	
C	 0.4505718006	 1.3026794754	-0.2140846854	-0.383972
C	 0.0581298937	-0.1755465896	-0.1173772824	-0.17222
C	-1.4496225265	-0.4589613872	 0.058642513	 0.01283
C	-2.2732221565	-0.2307655204	-1.2126094071	-0.07888
O	-2.2901259088	 1.1532681092	-1.5285134678	-0.416181
C	-1.6714558899	-1.9069650482	 0.5483851848	-0.290207
C	-1.1687151143	-2.1209435063	 1.9582911748	 0.162942
O	-0.4338030698	-3.0072258951	 2.3090073168	-0.242017
H	 1.5376875814	 1.4037940108	-0.294960056	 0.105245
H	-0.0128640755	 1.7836899455	-1.0759169455	 0.137495
H	 0.1329617904	 1.850263336	 0.6803859454	 0.110237
H	 0.4094123436	-0.7145633544	-1.0084114801	 0.095186
H	 0.5957223045	-0.6259947632	 0.7267428181	 0.106938
H	-1.8498005407	 0.2249320634	 0.8218319436	 0.086226
H	-1.8406614975	-0.8229153538	-2.0362734559	 0.088619
H	-3.298455682	-0.600342246	-1.0488753273	 0.083243
H	-2.7642114304	 1.2668768213	-2.3574205834	 0.28825
H	-2.7496885249	-2.12572252	 0.5648362231	 0.114895
H	-1.1907348125	-2.6384957116	-0.109276112	 0.119552
H	-1.5494636448	-1.3697858561	 2.6914534234	 0.071817
36.6659	59.1138	76.8512	122.6696	187.1936	238.9135	252.0233	254.906	326.9724	349.4088	419.8049	457.9462	571.9967	760.5214	781.9076	842.6882	967.3331	975.0232	1002.4396	1017.7378	1046.3641	1074.5415	1109.4813	1151.0733	1170.8855	1214.4301	1237.089	1264.7621	1290.7379	1318.7202	1345.2623	1374.9708	1394.1081	1413.5038	1428.2286	1459.9436	1464.4854	1487.2616	1496.0754	1513.9272	1520.1723	1835.5775	2845.9394	2957.5877	2983.9662	3002.2317	3007.1766	3014.5767	3036.7517	3047.5441	3087.0361	3095.9869	3149.0118	3830.1992
CCC(CO)CC=O	CC[C@@H](CO)CC=O	
InChI=1S/C6H12O2/c1-2-6(5-8)3-4-7/h4,6,8H,2-3,5H2,1H3	InChI=1S/C6H12O2/c1-2-6(5-8)3-4-7/h4,6,8H,2-3,5H2,1H3/t6-/m1/s1
