23
gdb 101145	3.53157	0.85448	0.82512	1.5924	88.61	-0.2322	0.0268	0.259	1560.6213	0.205593	-388.311064	-388.301018	-388.300074	-388.346566	37.055	
C	-0.0193155479	 1.56945001	 0.0050552057	-0.380801
C	-0.0057649204	 0.0399865934	-0.047899228	-0.191495
C	 0.7156360287	-0.5102522555	-1.2915608572	-0.00661
O	 2.0667269896	-0.0393487611	-1.3561322684	-0.431008
C	 0.6482737918	-2.0118232757	-1.3820735895	 0.375072
C	-0.0322226351	-2.7186886752	-2.2860024979	-0.184471
C	 0.067018838	-4.2077902001	-2.0621235497	-0.246125
C	 1.2325574066	-4.323825567	-1.0467403421	-0.205102
C	 1.3365208701	-2.9274827424	-0.3832710229	-0.316978
H	 0.9983038221	 1.9656189226	-0.040830429	 0.126794
H	-0.5746589174	 1.9861789765	-0.8425375938	 0.114442
H	-0.491216455	 1.9301257552	 0.9239851415	 0.107562
H	 0.4836956862	-0.3608829662	 0.8512581636	 0.087631
H	-1.0294885794	-0.3533104824	-0.0386151793	 0.100752
H	 0.2405801705	-0.0871111146	-2.1847158879	 0.085013
H	 2.5191570017	-0.3424416045	-0.5613389746	 0.277389
H	-0.6278871782	-2.28433059	-3.0827819258	 0.083287
H	-0.87370786	-4.6038267015	-1.6524822713	 0.103127
H	 0.257117169	-4.7684256992	-2.9843830311	 0.1021
H	 1.088833352	-5.1278308386	-0.3205655479	 0.095561
H	 2.1607790355	-4.536467612	-1.5861814053	 0.107755
H	 2.3777033943	-2.6438778371	-0.1868576799	 0.091301
H	 0.8217258072	-2.8996366247	 0.587803741	 0.104805
47.346	94.0108	107.8739	151.4072	198.0528	228.2765	261.6001	281.1272	324.0081	356.0307	504.1023	545.5552	636.3551	709.0051	783.7275	815.3747	847.2965	858.2613	904.6393	915.0789	923.9899	963.6091	978.9084	1036.7648	1054.3569	1065.8624	1090.9717	1109.9147	1150.9552	1176.6236	1232.737	1239.152	1248.8256	1268.9957	1306.9592	1321.9729	1325.3115	1330.8462	1368.7084	1381.7888	1404.5749	1417.8818	1480.9415	1483.5838	1487.3129	1494.8505	1505.7863	1508.6049	1715.7447	3000.3426	3000.9481	3009.1427	3036.3031	3036.6809	3040.1488	3048.1742	3058.9149	3061.218	3100.9376	3101.4721	3122.294	3179.4306	3803.1474
CCC(O)C1=CCCC1	CC[C@@H](O)C1=CCCC1	
InChI=1S/C8H14O/c1-2-8(9)7-5-3-4-6-7/h5,8-9H,2-4,6H2,1H3	InChI=1S/C8H14O/c1-2-8(9)7-5-3-4-6-7/h5,8-9H,2-4,6H2,1H3/t8-/m1/s1
