22
gdb 60818	2.49129	1.05092	0.91007	4.0078	83.86	-0.2373	0.0345	0.2718	1407.1457	0.193098	-404.362913	-404.352662	-404.351718	-404.39893	37.011	
C	 0.1229701098	 1.7611331099	 0.0690243121	-0.396408
C	 0.0874422794	 0.2287630584	-0.0285853132	-0.017203
C	 0.7065256217	-0.2627916284	-1.327829947	 0.039438
C	 0.3697587658	-1.6325435141	-1.8526992554	-0.273175
C	-0.1587704584	-0.4068189801	-2.5551859914	-0.271591
N	 0.6813216366	-0.4098285961	 1.148423628	-0.021497
C	 2.096490338	-0.2398010177	 1.4356208794	-0.354313
C	-0.0680556439	-1.1995561224	 1.9705104986	 0.153707
O	 0.3313020131	-1.782806005	 2.957418848	-0.350291
H	 1.1483089057	 2.1428496441	 0.0410853674	 0.122021
H	-0.4147960787	 2.2002752491	-0.7759655901	 0.125805
H	-0.3441885373	 2.1031578784	 0.9968635122	 0.122725
H	-0.9639719359	-0.084708909	-0.0275820806	 0.084548
H	 1.720149955	 0.0864880448	-1.5056634939	 0.086415
H	 1.1521196608	-2.2081984023	-2.334126104	 0.116376
H	-0.3309634025	-2.2324026193	-1.2807902891	 0.117608
H	-1.2169080735	-0.1843204993	-2.4588375607	 0.113384
H	 0.2621844668	-0.1381520379	-3.5175313838	 0.115522
H	 2.3460011944	 0.8118930629	 1.6124841219	 0.124442
H	 2.3147501838	-0.8144328888	 2.335737159	 0.169294
H	 2.7154123194	-0.6124433062	 0.61228875	 0.12622
H	-1.12269434	-1.2529992209	 1.6340351827	 0.066973
40.4968	65.9021	105.8359	166.3346	209.7313	218.4375	242.5136	312.2892	333.3487	352.4574	382.9918	450.3532	510.2493	683.9115	770.4063	826.3786	835.6865	862.4428	940.7622	946.7928	984.2015	1026.6467	1036.9718	1058.9487	1080.9299	1094.3522	1110.8245	1139.6234	1158.7175	1196.722	1208.4834	1226.646	1268.3364	1303.7937	1331.1356	1403.9325	1411.4734	1435.7694	1442.6284	1455.2628	1472.0817	1490.9244	1498.1832	1505.7174	1508.7197	1518.3276	1791.0325	2930.4079	3028.8822	3031.9986	3042.1917	3084.7795	3112.3557	3120.8642	3128.8208	3134.1323	3141.5565	3156.5041	3207.5205	3222.5777
CC(C1CC1)N(C)C=O	C[C@@H](C1CC1)N(C)C=O	
InChI=1S/C7H13NO/c1-6(7-3-4-7)8(2)5-9/h5-7H,3-4H2,1-2H3	InChI=1S/C7H13NO/c1-6(7-3-4-7)8(2)5-9/h5-7H,3-4H2,1-2H3/t6-/m0/s1
