18
gdb 11067	3.2733	2.23979	1.89022	1.5764	65.87	-0.2401	0.0641	0.3042	784.779	0.15619	-384.950042	-384.943361	-384.942417	-384.980369	27.407	
O	-0.0353720958	 1.3630663461	-0.0080681364	-0.494452
C	 0.0150363603	-0.0400658313	 0.0030099819	 0.376102
C	 0.7012449042	-0.6919683167	 1.2297104884	-0.270783
C	 0.1872296075	-2.1648650662	 1.1613703708	-0.21612
C	-0.7331661546	-2.1214645281	-0.0775243083	 0.105947
C	-1.3625217747	-0.726888279	 0.0148956067	-0.259919
O	 0.0963959415	-2.0290377058	-1.2509185885	-0.277397
C	 0.608392568	-0.6885072681	-1.2686235489	-0.114434
H	 0.8642896993	 1.698114306	 0.0682603425	 0.279166
H	 1.7926006074	-0.6186087527	 1.1767261134	 0.091148
H	 0.3743274749	-0.1833813756	 2.1413440724	 0.103577
H	 0.9870522611	-2.8942010991	 1.0170265816	 0.108616
H	-0.3672207093	-2.4437535378	 2.0625900807	 0.099414
H	-1.3966932736	-2.9773801653	-0.20152845	 0.074995
H	-1.9191491312	-0.548246118	 0.9382258039	 0.10101
H	-1.9787930602	-0.4726146787	-0.8502530279	 0.108367
H	 0.2683731717	-0.1612439136	-2.1696601179	 0.09956
H	 1.7070064934	-0.705661716	-1.2642495645	 0.085201
180.5866	249.0564	298.7197	361.1109	391.6372	425.4775	483.2709	564.0962	607.0183	766.8857	784.1898	823.2459	873.9525	913.2707	928.8454	956.9628	971.0947	982.9689	1017.9808	1042.2264	1063.0582	1118.1251	1154.0081	1176.833	1198.7045	1232.8419	1251.2573	1258.8039	1274.5481	1298.0801	1321.84	1340.5803	1362.9201	1407.3988	1480.2023	1488.3158	1506.6792	1533.0812	2999.8259	3040.0503	3043.2485	3057.8176	3070.0144	3087.8706	3115.0649	3119.845	3128.0911	3807.6527
OC12CCC(C1)OC2	O[C@@]12CC[C@@H](C1)OC2	
InChI=1S/C6H10O2/c7-6-2-1-5(3-6)8-4-6/h5,7H,1-4H2	InChI=1S/C6H10O2/c7-6-2-1-5(3-6)8-4-6/h5,7H,1-4H2/t5-,6-/m0/s1
