17
gdb 88340	2.61784	1.17238	0.94337	0.4634	73.71	-0.2451	-0.0335	0.2116	1271.6088	0.134442	-455.137912	-455.128708	-455.127764	-455.172776	32.244	
C	 0.4070079709	 1.7291478043	-0.1266288204	-0.330472
N	 0.0850701395	 0.3193358274	 0.0786218975	-0.07921
C	 1.1201013258	-0.6759112918	-0.0267509705	-0.245969
C	 0.4626210791	-0.4036112681	 1.3001645544	-0.117972
C	 1.2336200245	 0.1653554291	 2.4400118627	 0.457317
O	 0.9643379164	-0.0342200538	 3.5945104911	-0.351252
O	 2.2986631991	 0.9380420773	 2.0318164832	-0.211496
C	 3.080515859	 1.5253333597	 2.9965207305	 0.118583
N	 4.0359177713	 2.2473762136	 2.6134158645	-0.425459
H	 1.4335557395	 2.0076962462	 0.1342359531	 0.144177
H	 0.2396000773	 1.9507290753	-1.1850123429	 0.131072
H	-0.2869515916	 2.3395760138	 0.459002111	 0.129181
H	 0.8619183155	-1.59127639	-0.5535911595	 0.127982
H	 2.1511006034	-0.3454318856	-0.1362161936	 0.138943
H	-0.305694609	-1.0765222783	 1.6680609356	 0.123031
H	 2.7606681911	 1.2783433913	 4.0084916297	 0.149579
H	 4.5346381182	 2.6170751696	 3.4216062836	 0.241962
58.5387	91.8567	114.7089	139.2972	180.7266	261.2495	281.809	349.3439	393.1012	474.2278	548.6142	635.6442	712.2671	793.6532	852.2612	881.0884	926.8523	961.3169	1029.4782	1051.4618	1071.5127	1089.0143	1124.0871	1132.149	1165.8638	1210.8292	1253.938	1263.5001	1337.7193	1377.5681	1386.7348	1448.9889	1488.9524	1505.9783	1506.3486	1744.8984	1822.7363	3030.0611	3098.1576	3101.5492	3110.7655	3145.0886	3163.3912	3188.3545	3507.3913
CN1CC1C(=O)OC=N	CN1C[C@H]1C(=O)O[CH][NH]	
InChI=1S/C5H8N2O2/c1-7-2-4(7)5(8)9-3-6/h3-4,6H,2H2,1H3	InChI=1S/C5H8N2O2/c1-7-2-4(7)5(8)9-3-6/h3-4,6H,2H2,1H3/t4-,7?/m0/s1
