21
gdb 97681	2.71558	0.83138	0.71896	1.3927	89.85	-0.2285	0.0457	0.2743	1697.5281	0.179761	-387.043554	-387.032968	-387.032024	-387.080935	37.632	
C	 0.2182391995	 1.3891144429	-0.4075567825	-0.363401
C	 0.0290529072	 0.0615236437	 0.3488553482	-0.317606
C	-1.3256315614	-0.4722667565	 0.2554321353	 0.015005
C	-2.4474447186	-0.9058108517	 0.1653597852	 0.078394
C	-3.7977777276	-1.4064184787	 0.08142181	 0.258694
C	-4.3710428072	-1.7778936706	-1.2786856267	-0.317153
C	-4.0399414168	-2.8508303025	-0.2719559251	-0.313267
O	-4.6997677479	-0.8996621519	 1.0265755257	-0.263867
C	-4.9555614451	 0.4863478804	 0.8856338654	-0.248107
H	 1.24794962	 1.7445560146	-0.3044482228	 0.113901
H	 0.0011211914	 1.2644200689	-1.4719047958	 0.126926
H	-0.4525688467	 2.1583349825	-0.0152146803	 0.12675
H	 0.7360107126	-0.6844661942	-0.0370291958	 0.130065
H	 0.2907733138	 0.2003119277	 1.4058342162	 0.131204
H	-5.4186847655	-1.5434398133	-1.4302138583	 0.121768
H	-3.7375569061	-1.6647451438	-2.150408815	 0.121827
H	-3.1747676712	-3.4796977682	-0.4428488416	 0.12408
H	-4.8652140514	-3.3226298516	 0.2485643392	 0.128723
H	-4.0399936267	 1.0793026684	 1.0093239411	 0.117558
H	-5.3936237866	 0.7185163617	-0.0958942163	 0.10405
H	-5.6677423957	 0.7552855721	 1.6688626237	 0.124456
15.0766	75.3654	96.0441	127.8506	200.7163	205.7768	218.5158	259.9313	322.1323	357.137	411.7385	499.6327	552.8676	566.2208	619.073	772.4811	782.5589	831.691	901.947	927.9446	946.0222	971.5046	1050.0926	1065.1314	1079.6416	1094.8714	1102.5228	1105.625	1185.1454	1193.7934	1221.0703	1264.8932	1286.7748	1329.0434	1356.2616	1408.122	1447.617	1470.9064	1473.7052	1482.6379	1486.1543	1494.4051	1505.0325	1510.804	2353.9035	2994.294	3019.1191	3043.414	3046.183	3053.1655	3116.5865	3122.1029	3122.8482	3139.4823	3145.8805	3228.6315	3243.8336
CCC#CC1(CC1)OC	CCC#CC1(CC1)OC	
InChI=1S/C8H12O/c1-3-4-5-8(9-2)6-7-8/h3,6-7H2,1-2H3	InChI=1S/C8H12O/c1-3-4-5-8(9-2)6-7-8/h3,6-7H2,1-2H3
