13
gdb 129011	4.07809	1.74565	1.2224	2.5498	72.47	-0.2629	-0.0627	0.2002	912.4659	0.094445	-411.836869	-411.831181	-411.830237	-411.866831	22.817	
N	 0.0083411094	 1.3015265508	 0.0093431434	-0.309829
N	 1.2815350489	 1.7784281739	-0.0001931371	-0.086188
N	 2.1070454077	 0.7839218819	-0.0137202936	-0.280211
C	 1.3756445523	-0.3825876832	-0.0132331885	 0.28686
C	 0.0063295347	-0.0583904014	 0.001724725	 0.422287
N	-1.0262685145	-0.9000158565	 0.0069123141	-0.357254
C	-0.6550523219	-2.1794392097	-0.0038273585	-0.022862
C	 0.6811690244	-2.6348200078	-0.0192050209	-0.105721
C	 1.733006569	-1.7324374265	-0.0242359372	-0.195694
H	-0.7667896099	 1.9446161988	 0.020406902	 0.287621
H	-1.4633293124	-2.9061891442	-0.0001484555	 0.11901
H	 0.8686703567	-3.702142812	-0.0269968748	 0.111391
H	 2.7698888357	-2.0477391143	-0.0359582195	 0.130593
233.5594	266.2127	437.7454	444.5183	526.9742	553.3909	607.3729	655.8589	708.5646	793.7465	806.288	846.5717	925.2361	976.4861	993.7057	999.209	1029.4831	1050.8278	1135.5846	1257.194	1279.7009	1294.6592	1333.5584	1400.3889	1419.4742	1437.3518	1531.9968	1625.3117	1645.4017	3164.6162	3198.1147	3212.7552	3664.7783
N1N=NC2=C1N=CC=C2	[nH]1nnc2c1nccc2	
InChI=1S/C5H4N4/c1-2-4-5(6-3-1)8-9-7-4/h1-3H,(H,6,7,8,9)	InChI=1S/C5H4N4/c1-2-4-5(6-3-1)8-9-7-4/h1-3H,(H,6,7,8,9)
