15
gdb 50256	2.3775	1.75363	1.33274	3.6371	65.46	-0.2547	-0.0461	0.2086	968.7226	0.110398	-457.742459	-457.734651	-457.733707	-457.775821	28.181	
O	 0.3428209883	-0.1533967519	-0.5891500945	-0.235987
C	 0.1412318352	 0.9728857157	-0.2225565155	 0.152112
C	 1.2223627304	 2.0208910252	-0.0531254342	 0.030896
O	 2.5602885228	 1.5335379294	-0.1908345023	-0.277429
C	 2.8425519215	 2.4380129634	-1.2745516012	 0.116015
C	 2.585629818	 1.80774155	-2.6664802861	-0.365983
C	 1.1660165118	 2.4115070626	-2.6266179492	 0.422247
O	 0.2599207561	 2.4655625557	-3.4027369273	-0.290096
C	 1.3978292577	 3.033662296	-1.2340657597	-0.256672
H	-0.8817626905	 1.3477022359	 0.0104459109	 0.085681
H	 1.0737595251	 2.5348221176	 0.9078924659	 0.10944
H	 3.7547618808	 3.0146107123	-1.1200487145	 0.100083
H	 3.1903863502	 2.2210216511	-3.4803636908	 0.137969
H	 2.6332811189	 0.7166113348	-2.6905773192	 0.162224
H	 1.1158405837	 4.0710824021	-1.0642851524	 0.1095
55.4524	69.45	138.7838	239.0046	334.5791	374.952	427.1826	511.1102	611.2087	693.3895	726.6412	794.5515	839.2358	851.4012	931.5294	951.5502	961.8571	1009.1532	1042.9046	1060.8081	1110.5725	1115.8441	1148.2293	1187.9425	1204.097	1246.4436	1281.3652	1308.3004	1355.7965	1409.6573	1415.3495	1837.8053	1895.8627	2873.7758	3002.4635	3060.2323	3112.6857	3128.6273	3139.2137
O=CC1OC2CC(=O)C12	O=C[C@H]1O[C@H]2CC(=O)[C@@H]12	
InChI=1S/C6H6O3/c7-2-5-6-3(8)1-4(6)9-5/h2,4-6H,1H2	InChI=1S/C6H6O3/c7-2-5-6-3(8)1-4(6)9-5/h2,4-6H,1H2/t4-,5+,6+/m0/s1
