21
gdb 120590	3.78326	0.76539	0.72181	1.3896	87.76	-0.2409	0.0536	0.2945	1660.4465	0.179098	-387.033669	-387.023083	-387.022139	-387.069608	38.243	
C	 0.0279606284	 1.3540412719	 0.1958583143	-0.225014
O	-0.0412551443	-0.0492760987	 0.264720785	-0.229799
C	-1.2694550131	-0.5598158274	-0.2144096796	-0.086058
C	-1.2069133893	-2.0628634002	-0.1416108858	-0.041756
C	-1.5499173061	-2.8037804304	 1.1181906194	-0.306167
C	-2.4618001685	-2.9359764966	-0.0960309135	 0.116204
C	-3.8575808708	-2.325381813	-0.0468349335	-0.460723
C	-2.3938660604	-4.170640538	-0.836128024	 0.280134
C	-2.3602276161	-5.1985893861	-1.4606723486	-0.461283
H	 1.0067248292	 1.6528087586	 0.5789584909	 0.127733
H	-0.0759680043	 1.7202416187	-0.8383172985	 0.103043
H	-0.7536958496	 1.8342902911	 0.8067605761	 0.10128
H	-2.1036845505	-0.1631731836	 0.3862397876	 0.082668
H	-1.4365992464	-0.2308701258	-1.2549786722	 0.089797
H	-0.3931131189	-2.479968044	-0.726192449	 0.10587
H	-0.94708832	-3.6583204426	 1.4003970456	 0.124042
H	-1.939268867	-2.2267377523	 1.9511949728	 0.114647
H	-3.8839541655	-1.4274815505	 0.5747019449	 0.116722
H	-4.2084965326	-2.0614580358	-1.0494510726	 0.127516
H	-4.5649264312	-3.045581851	 0.3753327662	 0.130524
H	-2.3230580428	-6.1064326842	-2.0095861855	 0.190618
56.2359	85.6765	106.2252	147.1888	178.7759	210.7594	234.3781	261.2044	309.9928	368.2204	396.4026	466.2517	542.0668	567.4429	590.4817	642.0703	677.8371	848.3528	882.4047	903.7926	943.1148	981.9543	984.5584	1058.2469	1082.7388	1108.4176	1122.2775	1152.0444	1175.476	1193.843	1226.3691	1260.2533	1287.0997	1291.7985	1385.352	1415.4745	1441.8363	1481.5831	1484.8442	1486.2142	1488.1504	1501.7457	1505.8217	1525.722	2232.4722	2949.2943	2967.1654	2984.8796	3007.8714	3041.2184	3105.5287	3113.6901	3122.8884	3133.8459	3163.9738	3227.174	3504.2304
COCC1CC1(C)C#C	COC[C@H]1C[C@]1(C)C#C	
InChI=1S/C8H12O/c1-4-8(2)5-7(8)6-9-3/h1,7H,5-6H2,2-3H3	InChI=1S/C8H12O/c1-4-8(2)5-7(8)6-9-3/h1,7H,5-6H2,2-3H3/t7-,8+/m1/s1
