13
gdb 19859	4.21167	2.53072	2.20028	2.6447	55.83	-0.2536	0.0168	0.2704	643.1318	0.097511	-398.558806	-398.553487	-398.552543	-398.588081	21.092	
O	 0.029101067	 1.3707986627	-0.2203495297	-0.217067
C	 1.2975251972	 0.7766682936	 0.0367045697	-0.004739
C	 0.0519946922	-0.0284092672	 0.0396680833	 0.026373
C	 0.4552120057	-0.7397347106	-1.2816825079	-0.067008
N	-0.2643994349	-0.3267024809	-2.4787321701	-0.256522
C	 0.448880406	 0.5893572629	-2.9942220316	 0.132991
O	 1.6598307864	 0.918629544	-2.455361317	-0.221705
C	 1.7667222474	 0.1145452806	-1.274843274	 0.041035
H	 1.8894581261	 1.1848579219	 0.8475455508	 0.113738
H	-0.5547709657	-0.3958444924	 0.8586387244	 0.116713
H	 0.5513620246	-1.8232249921	-1.1925576984	 0.091655
H	 0.2005368039	 1.1530250128	-3.8863068028	 0.14441
H	 2.737082184	-0.3812623354	-1.2442688268	 0.100127
217.1554	238.2482	458.6899	505.3608	660.4069	693.6568	788.7526	832.4448	842.7304	874.7579	894.2584	920.9219	949.4426	966.5388	1007.0697	1024.3325	1047.1172	1058.4796	1089.8603	1186.8751	1222.8597	1224.4326	1263.6023	1287.8136	1320.8352	1348.3499	1381.4653	1673.4694	3098.7788	3117.7212	3184.3879	3199.6982	3221.7557
O1C2C1C1N=COC21	O1[C@H]2[C@@H]1[C@H]1N=CO[C@@H]21	
InChI=1S/C5H5NO2/c1-6-2-3(7-1)5-4(2)8-5/h1-5H	InChI=1S/C5H5NO2/c1-6-2-3(7-1)5-4(2)8-5/h1-5H/t2-,3+,4-,5+/m0/s1
