23
gdb 101317	2.5363	0.87678	0.71824	1.8732	82.81	-0.2584	0.0752	0.3336	1636.0484	0.203605	-425.401469	-425.390458	-425.389514	-425.438145	39.653	
C	-0.7738738803	 1.0922582428	-1.1694718987	-0.392724
C	 0.0983537815	-0.1498143973	-1.4005408409	 0.009531
C	 0.9487025901	-0.0016535025	-2.6649298884	-0.075112
O	 0.0792904924	 0.1582883846	-3.7775254977	-0.424258
C	 0.9831668456	-0.424454312	-0.1956898183	-0.007864
C	 0.4591162471	-1.1553919823	 1.0150915876	-0.30079
C	 1.5361140252	-1.7879482259	 0.1685933426	 0.000869
C	 1.2472973128	-3.0368068736	-0.6217173662	-0.101526
O	 1.3700460261	-4.1462341557	 0.2617828775	-0.421446
H	-0.1497818344	 1.972946665	-0.9732703563	 0.104243
H	-1.3862215675	 1.301808967	-2.0491198947	 0.130057
H	-1.4312472148	 0.9521325872	-0.3062796667	 0.111383
H	-0.567473304	-1.0059679399	-1.5651267953	 0.078796
H	 1.617493962	 0.8688557617	-2.5544068195	 0.080514
H	 1.5866960983	-0.8907722928	-2.7869624365	 0.085384
H	 0.6157193298	 0.3156599868	-4.5594587123	 0.285901
H	 1.660924999	 0.3996219341	 0.0225516033	 0.077657
H	 0.7139148285	-0.7939001079	 2.0049796593	 0.109148
H	-0.5357431773	-1.5852998615	 0.9427287018	 0.111619
H	 2.5358611448	-1.787937759	 0.5948100949	 0.08692
H	 0.2376478939	-2.9919644049	-1.0565397146	 0.086569
H	 1.9591304772	-3.1259991924	-1.4588986339	 0.081915
H	 1.2495712839	-4.9496866614	-0.2532434771	 0.283214
55.1287	75.5588	92.3654	135.7075	174.1771	230.116	240.1915	259.7255	269.0803	290.8558	328.4482	398.5139	446.99	482.3549	593.9268	788.9439	814.4385	861.4298	895.7599	917.6147	927.0481	979.958	1011.482	1047.536	1064.439	1071.2177	1074.8978	1102.3943	1140.883	1164.1077	1172.7372	1191.0842	1234.2896	1249.1376	1258.0372	1263.0724	1279.1037	1308.5042	1357.7408	1386.5337	1400.4868	1427.494	1456.1485	1468.9853	1492.4391	1498.0359	1503.9619	1517.3765	1520.4862	2956.8317	2960.6161	2991.8559	2999.1557	3027.5986	3037.777	3096.0792	3112.0505	3126.3213	3130.6247	3142.9424	3211.0648	3824.0865	3834.2021
CC(CO)C1CC1CO	C[C@@H](CO)[C@H]1C[C@H]1CO	
InChI=1S/C7H14O2/c1-5(3-8)7-2-6(7)4-9/h5-9H,2-4H2,1H3	InChI=1S/C7H14O2/c1-5(3-8)7-2-6(7)4-9/h5-9H,2-4H2,1H3/t5-,6-,7+/m0/s1
