18
gdb 114376	2.34664	1.60671	1.23165	2.341	72.52	-0.2421	-0.0266	0.2155	1074.944	0.146217	-439.023877	-439.01518	-439.014236	-439.057718	31.366	
C	 0.0905289636	 1.2215516369	-0.2977504081	-0.240889
O	-0.0166239072	-0.0501631064	 0.3091998349	-0.242798
C	-1.2874723781	-0.6263780904	 0.1695034307	 0.114084
C	-1.7302925285	-1.2291455172	-1.1985219002	-0.209514
N	-1.8875044475	-2.6061955088	-0.5855309205	-0.154024
C	-0.5778135845	-3.0029847282	-0.0651535751	-0.09685
C	 0.7691352835	-2.7251529356	-0.6657425187	 0.164145
O	 0.9942938607	-2.3233956519	-1.7790324454	-0.261042
C	-1.377479826	-2.0331153362	 0.7302421422	-0.081525
H	 1.1055498255	 1.5807664576	-0.1166719065	 0.134082
H	-0.0801250001	 1.1722783047	-1.3824094573	 0.119666
H	-0.6254108104	 1.9362267457	 0.1368682851	 0.106527
H	-2.0581001345	 0.0372315902	 0.587971208	 0.081942
H	-2.7092413847	-0.877944539	-1.5282912989	 0.111802
H	-1.0106540076	-1.1907361311	-2.0139166105	 0.149902
H	-0.6050988125	-4.0096198338	 0.3555902041	 0.119008
H	 1.5988690728	-2.9894032135	 0.028660174	 0.083242
H	-1.8067127746	-2.307642633	 1.6881217221	 0.102243
69.6275	103.3078	132.3759	173.377	222.3934	259.5763	319.357	373.48	458.5284	543.308	697.8262	743.631	756.5359	801.7782	872.8442	881.8947	972.1554	998.8293	1033.9513	1036.5044	1064.5115	1068.5419	1115.2731	1156.5495	1181.9561	1193.1016	1224.9954	1236.2743	1278.9678	1293.8419	1344.091	1393.91	1417.7661	1428.8277	1481.4986	1488.2974	1489.3382	1506.6771	1821.9004	2874.288	2981.1593	2998.596	3036.4875	3088.83	3103.2597	3125.7002	3167.6077	3168.5235
COC1CN2C(C=O)C12	CO[C@H]1CN2[C@@H](C=O)[C@@H]12	
InChI=1S/C6H9NO2/c1-9-5-2-7-4(3-8)6(5)7/h3-6H,2H2,1H3	InChI=1S/C6H9NO2/c1-9-5-2-7-4(3-8)6(5)7/h3-6H,2H2,1H3/t4-,5-,6-,7?/m0/s1
