15
gdb 28695	3.50711	1.09725	0.84885	2.3607	72.89	-0.1978	0.0375	0.2353	1281.5124	0.112327	-416.808524	-416.799993	-416.799049	-416.842501	31.335	
O	-0.8049894825	 1.0391335898	 0.2198494575	-0.435737
C	-0.1415137134	-0.1203136967	-0.0048256324	 0.356517
C	 0.9096959742	-0.5049420416	-0.7933834609	-0.235727
N	 1.1482999426	-1.8573645674	-0.6175187548	-0.304646
C	 0.2662681443	-2.269177547	 0.2557615729	 0.363716
C	 0.159578441	-3.6645469403	 0.8085025145	-0.463225
C	-1.1576000834	-3.9677499601	 1.3600411991	 0.284739
C	-2.2430492867	-4.1803957734	 1.8308397616	-0.441503
N	-0.5473311734	-1.2427671207	 0.6683168564	-0.330162
H	-0.4264508364	 1.7196401911	-0.345222377	 0.311333
H	 1.4965591153	 0.0962971249	-1.4704436731	 0.098472
H	 0.4109440857	-4.3651913888	 0.0049147611	 0.165262
H	 0.9181296912	-3.8179488089	 1.5894953018	 0.15363
H	-3.200464043	-4.3970234614	 2.2363196436	 0.202788
H	-1.3330306153	-1.3142062992	 1.2945721397	 0.274541
32.3936	106.4484	195.9188	226.5595	279.2688	325.5124	346.2852	433.6184	482.2603	534.9939	622.4628	651.5371	666.1005	670.7558	691.9139	754.9677	772.2051	943.0745	963.844	1002.0738	1056.3715	1144.0307	1172.5762	1202.9948	1238.6942	1290.2832	1317.0934	1448.039	1467.0817	1505.7104	1557.6024	1637.4045	2238.9575	3006.3146	3069.6406	3247.2065	3503.9102	3654.9644	3844.8238
OC1=CN=C(CC#C)N1	Oc1cnc(CC#C)[nH]1	
InChI=1S/C6H6N2O/c1-2-3-5-7-4-6(9)8-5/h1,4,9H,3H2,(H,7,8)	InChI=1S/C6H6N2O/c1-2-3-5-7-4-6(9)8-5/h1,4,9H,3H2,(H,7,8)
