20
gdb 113737	3.61912	0.88867	0.77186	1.1084	83.21	-0.2292	0.027	0.2562	1516.2721	0.167934	-403.073172	-403.062922	-403.061978	-403.108702	37.348	
C	-0.5486184861	 1.6256861892	-0.7946086716	-0.387305
C	-0.6183944921	 0.1174089289	-0.5712268605	-0.105029
N	 0.4638421473	-0.5455695162	-1.2977140027	-0.083847
C	 1.6968979847	-0.8495636126	-0.5831849481	-0.254915
C	 0.7869203303	-1.9406933655	-1.0361458968	-0.007785
C	 0.0184189629	-2.782287527	-0.0246215164	-0.089988
O	-1.2880203738	-3.1082180095	-0.4981228611	-0.418778
C	 0.7883255995	-3.9820690021	 0.3189830339	 0.297111
C	 1.41828443	-4.9803147253	 0.5471098481	-0.426435
H	 0.3904957827	 2.0355902452	-0.4082041555	 0.116469
H	-0.6039180509	 1.8587599617	-1.8615240641	 0.126611
H	-1.3740734179	 2.1294422041	-0.2821769287	 0.111372
H	-0.5934836624	-0.089619506	 0.5118616	 0.081199
H	-1.5634215098	-0.2858555976	-0.9491137288	 0.119676
H	 2.6279254858	-0.6494900066	-1.1064979365	 0.117302
H	 1.7270588402	-0.6493582582	 0.4887382483	 0.107434
H	 1.0546986465	-2.5038093159	-1.9308258853	 0.091989
H	-0.156125215	-2.1997131022	 0.885196353	 0.119287
H	-1.185193771	-3.7182980623	-1.2376051413	 0.285405
H	 1.9712442789	-5.8591184123	 0.7709620341	 0.200228
53.5978	87.2451	104.7822	163.112	209.6067	225.5378	245.184	288.3438	335.9578	363.3655	439.0866	489.0726	578.3145	600.9044	635.7208	668.9974	736.149	811.4795	858.1658	913.3259	955.9098	977.3888	1043.5847	1051.857	1085.349	1101.4944	1122.4324	1139.9375	1160.1083	1197.3253	1254.5483	1284.7334	1314.4198	1335.3005	1388.0733	1410.3707	1414.5724	1420.0709	1488.1719	1489.6817	1505.2784	1517.1376	2231.5846	2955.7782	3038.1773	3066.9118	3072.6235	3080.0115	3098.8965	3108.005	3120.0987	3172.7322	3502.8463	3801.0374
CCN1CC1C(O)C#C	CCN1C[C@H]1[C@@H](O)C#C	
InChI=1S/C7H11NO/c1-3-7(9)6-5-8(6)4-2/h1,6-7,9H,4-5H2,2H3	InChI=1S/C7H11NO/c1-3-7(9)6-5-8(6)4-2/h1,6-7,9H,4-5H2,2H3/t6-,7-,8?/m0/s1
