15
gdb 125101	3.19433	1.35689	0.95801	5.8179	71.09	-0.2333	-0.022	0.2114	1162.8708	0.113355	-450.125382	-450.117143	-450.116199	-450.159713	28.926	
C	 0.8506940475	 1.5229806801	-0.0807313056	-0.495254
C	 0.3454879517	 0.1206846697	-0.1409576007	 0.205152
C	 0.0284943784	-0.652759791	-1.2341477207	 0.366092
N	-0.3797755943	-1.8413532981	-0.7339677494	-0.234045
N	-0.3245069767	-1.8228864136	 0.6106849109	-0.133419
N	 0.111003123	-0.6443719148	 0.9634104687	-0.247664
O	 0.1089554702	-0.295975639	-2.5477195095	-0.221207
C	-0.2274857155	-1.1326883071	-3.5508480479	 0.127487
N	-0.6451893893	-2.3139430849	-3.3840421636	-0.466762
H	 0.1635953288	 2.1646920675	 0.479756909	 0.143484
H	 1.8231148377	 1.569408227	 0.4195577505	 0.143482
H	 0.9623765176	 1.9360038325	-1.0862617561	 0.126961
H	-0.6855260512	-2.6394110036	-1.2722231866	 0.303216
H	-0.0737149197	-0.6087348043	-4.4955460748	 0.13262
H	-0.8374319781	-2.7597638903	-4.2772467343	 0.249855
29.3805	66.2986	187.7737	198.5786	267.9569	269.5759	374.8604	433.3337	604.8109	638.3832	691.6333	712.1927	753.0284	800.1713	821.3102	989.7446	1029.5717	1034.5791	1049.6021	1066.8084	1077.9198	1195.2471	1254.3538	1295.4801	1331.3298	1354.0072	1414.6321	1418.6447	1480.8923	1494.0474	1513.2563	1643.8348	1712.0394	3041.8899	3099.2071	3124.7116	3127.9792	3536.7585	3621.3378
CC1=C(NN=N1)OC=N	Cc1c([nH]nn1)O[CH][NH]	
InChI=1S/C4H6N4O/c1-3-4(9-2-5)7-8-6-3/h2,5H,1H3,(H,6,7,8)	InChI=1S/C4H6N4O/c1-3-4(9-2-5)7-8-6-3/h2,5H,1H3,(H,6,7,8)
