17
gdb 47472	2.77809	1.2772	1.02206	3.7958	74.4	-0.2413	0.0372	0.2785	1185.1586	0.137232	-418.018875	-418.010342	-418.009398	-418.052612	31.335	
O	-0.1054688136	-0.0692434321	-0.2577490187	-0.421142
C	-0.0626374554	 1.1289547722	-0.0794054041	 0.462834
N	-1.1237226897	 1.9646309159	 0.2359620057	-0.354236
C	-0.7407807585	 3.3630872673	 0.1015572088	-0.174366
C	 0.7856708459	 3.2804272803	 0.3076164078	-0.164315
N	 1.0725912615	 1.9311091626	-0.1533678253	-0.106074
C	 2.3862205115	 1.3264425625	-0.0400168822	-0.318123
C	 2.958974549	 1.3985902856	 1.3080861411	 0.312687
C	 3.4185420693	 1.484317053	 2.4153099491	-0.464728
H	-2.0399567993	 1.6498513201	-0.041163556	 0.253562
H	-0.9782104723	 3.7645422897	-0.893888802	 0.110204
H	-1.2236946609	 3.9933740679	 0.8527232279	 0.120107
H	 1.3252519701	 4.0323322498	-0.2762047581	 0.11448
H	 1.0555177837	 3.4053132753	 1.3655803586	 0.121367
H	 2.2607756697	 0.2813027848	-0.3420812959	 0.173981
H	 3.0732158744	 1.7988703617	-0.7537789102	 0.131491
H	 3.8285909446	 1.5384825334	 3.3935035334	 0.202271
55.0618	91.0575	179.2781	217.2296	254.4011	282.9162	336.2261	437.2753	524.5621	569.1699	619.349	662.8615	677.1054	726.1739	766.5064	800.7235	907.5677	932.8716	949.3879	977.8847	1081.6972	1129.0959	1136.7975	1208.4385	1231.6576	1253.1826	1282.5749	1328.7229	1341.8451	1379.5769	1433.8179	1444.958	1465.4101	1527.1795	1533.7799	1833.219	2234.5743	2999.4124	3009.5565	3022.7027	3073.4982	3084.2568	3087.4989	3504.136	3642.7541
O=C1NCCN1CC#C	O=C1NCCN1CC#C	
InChI=1S/C6H8N2O/c1-2-4-8-5-3-7-6(8)9/h1H,3-5H2,(H,7,9)	InChI=1S/C6H8N2O/c1-2-4-8-5-3-7-6(8)9/h1H,3-5H2,(H,7,9)
