20
gdb 115869	2.49678	1.43489	1.08419	3.8511	74.81	-0.2338	0.0681	0.3019	1172.7592	0.17149	-440.262584	-440.253806	-440.252862	-440.29591	33.443	
C	 0.0620914254	 1.5303717061	 0.1301079839	-0.500554
C	 0.0776012949	 0.0303797096	 0.0057763929	 0.293797
N	-0.8312625597	-0.8154496252	 0.8169682801	-0.364624
C	 0.631207999	-0.8963647446	 1.0210083022	-0.111305
C	 1.2493406406	-2.0595344441	 0.2786205585	-0.079186
O	 0.7568390878	-1.9635641189	-1.0544401662	-0.291038
C	 0.3597538078	-0.6171858519	-1.3443270504	 0.078034
C	-0.821683129	-0.7073688471	-2.3037024665	-0.073054
O	-0.4862813968	-1.4426914785	-3.4652777079	-0.427993
H	 0.9737094864	 1.9698215897	-0.2889408163	 0.13075
H	-0.7905678788	 1.9652805821	-0.4035855755	 0.133785
H	-0.0085394917	 1.8371017557	 1.1786869828	 0.118083
H	-1.2361639497	-0.2435184657	 1.5557811492	 0.227454
H	 1.0714897151	-0.543205444	 1.9479211203	 0.092728
H	 2.3480229124	-1.9812635953	 0.3063409391	 0.092503
H	 0.9563786318	-3.038740246	 0.6711277807	 0.114961
H	 1.1898931961	-0.080470583	-1.8334569336	 0.06848
H	-1.6697072396	-1.1528034951	-1.7652258235	 0.107954
H	-1.11052089	 0.2958796925	-2.6369961427	 0.097237
H	-0.1242542918	-2.2785273763	-3.1483373872	 0.29199
96.7922	132.7952	170.5249	198.2919	232.5296	285.3766	319.481	430.9351	444.4666	470.5749	525.2889	575.7917	694.6065	781.6307	835.0001	849.7222	913.1668	930.29	972.1401	1017.3546	1040.8861	1062.7877	1071.5226	1095.6586	1097.6741	1109.4425	1130.439	1167.0599	1224.6093	1237.313	1283.3616	1307.0122	1340.075	1365.3177	1386.2457	1400.6214	1418.3884	1437.208	1452.496	1485.3786	1500.5041	1503.1556	1509.7958	2965.4962	2980.1405	3012.6173	3027.7205	3071.2892	3071.6974	3090.9298	3100.7395	3166.4608	3486.9925	3797.7792
CC12NC1COC2CO	C[C@]12N[C@H]1CO[C@H]2CO	
InChI=1S/C6H11NO2/c1-6-4(7-6)3-9-5(6)2-8/h4-5,7-8H,2-3H2,1H3	InChI=1S/C6H11NO2/c1-6-4(7-6)3-9-5(6)2-8/h4-5,7-8H,2-3H2,1H3/t4-,5-,6-/m0/s1
