18
gdb 63252	2.64951	1.37942	1.13638	4.9252	74.75	-0.2548	-0.0655	0.1894	1140.4634	0.146006	-439.13032	-439.121506	-439.120562	-439.163938	33.293	
C	-0.2258648659	 1.639758418	 0.2543013133	-0.425592
C	 0.0506296001	 0.1513054357	 0.0896099714	 0.345365
C	-1.2097219468	-0.6284894996	-0.2876378255	-0.413884
O	 0.9939881997	 0.0260227819	-1.0326971097	-0.267111
C	 1.9549715586	-0.9002095122	-0.7987571298	 0.299427
N	 2.8238769149	-1.3101032559	-1.6186419523	-0.504165
C	 1.8503488782	-1.3613229305	 0.6463656613	 0.334586
O	 2.4932809235	-2.2337398662	 1.158677447	-0.27376
C	 0.783961006	-0.4826601417	 1.2857112665	-0.383797
H	 0.7002897572	 2.1828801354	 0.4616607711	 0.127889
H	-0.670456316	 2.0509585408	-0.6563436859	 0.132085
H	-0.9198940707	 1.8067662628	 1.083696746	 0.125621
H	-1.6203902865	-0.2531490402	-1.2286053589	 0.133429
H	-0.989259202	-1.6936980841	-0.4100524404	 0.129474
H	-1.9712129972	-0.5248492126	 0.4915060281	 0.125122
H	 2.7050710715	-0.8577684567	-2.5281951034	 0.229619
H	 1.2924699975	 0.2781834676	 1.8897199527	 0.142997
H	 0.1358979176	-1.0576878725	 1.9492179584	 0.142697
55.9793	93.9702	224.4158	256.9616	306.8251	318.8717	334.0079	358.4326	378.6925	447.8622	545.9896	580.8594	619.8852	657.8527	737.223	823.7341	893.4819	899.7391	920.0189	949.1479	978.0856	1024.7656	1047.1756	1113.7749	1132.1539	1187.331	1234.1216	1281.8952	1303.242	1333.5785	1404.9902	1421.957	1448.5631	1476.8335	1484.5236	1496.9046	1505.8008	1752.2774	1865.4582	3038.5365	3043.7056	3049.1793	3111.0886	3118.2157	3120.1965	3123.6309	3126.2135	3461.2226
CC1(C)OC(=N)C(=O)C1	CC1(C)O[C]([NH])C(=O)C1	
InChI=1S/C6H9NO2/c1-6(2)3-4(8)5(7)9-6/h7H,3H2,1-2H3	InChI=1S/C6H9NO2/c1-6(2)3-4(8)5(7)9-6/h7H,3H2,1-2H3
