18
gdb 117585	2.76991	0.93856	0.76887	2.9997	72.18	-0.2761	0.0249	0.3009	1474.0194	0.146215	-439.065286	-439.055614	-439.05467	-439.100818	33.725	
O	-0.106187706	 1.4736793702	 0.0439611317	-0.412994
C	 0.0023649085	 0.0617312703	 0.0646515791	-0.081625
C	-1.3672945663	-0.6181253765	-0.0144566844	-0.202797
C	-1.2970302691	-2.1615510089	-0.0899029095	-0.19895
C	-0.6468528963	-2.7224039278	 1.099058189	 0.301192
N	-0.1264866051	-3.1623722244	 2.0324546385	-0.34094
C	-2.6905672397	-2.7476150514	-0.3006908683	 0.084154
C	-3.1764970311	-3.9763363402	 0.3352099941	-0.190493
O	-3.5829773363	-2.682314189	 0.8017489653	-0.226634
H	-0.489203035	 1.7547519027	 0.8810523236	 0.287104
H	 0.6011899805	-0.2038714706	-0.814423893	 0.11322
H	 0.5520103795	-0.2905589061	 0.9496080187	 0.117631
H	-1.9767968402	-0.3424012422	 0.8537353365	 0.126485
H	-1.8894914062	-0.2535885511	-0.9056650752	 0.11743
H	-0.6849019555	-2.4459443993	-0.9574708792	 0.131686
H	-3.1273298712	-2.4504722282	-1.255792861	 0.106242
H	-3.9538841059	-4.5577990141	-0.1571013003	 0.123679
H	-2.5275527948	-4.5271715634	 1.0118926645	 0.145611
61.2462	89.2333	97.095	129.2469	163.0605	220.8629	289.1403	302.7109	349.2441	408.8789	455.0951	602.504	655.4612	774.1401	792.9957	876.6708	894.2775	963.2346	1011.2923	1028.0281	1075.8918	1084.603	1101.9386	1122.2145	1162.2823	1169.0596	1174.9794	1267.3781	1293.1743	1305.053	1338.5754	1353.9139	1404.2665	1420.7309	1430.9048	1487.2716	1513.1674	1527.7926	2357.9585	3003.8324	3018.7679	3042.6464	3059.6835	3092.93	3095.6604	3101.2866	3191.9727	3818.547
OCCC(C#N)C1CO1	OCC[C@@H](C#N)[C@H]1CO1	
InChI=1S/C6H9NO2/c7-3-5(1-2-8)6-4-9-6/h5-6,8H,1-2,4H2	InChI=1S/C6H9NO2/c7-3-5(1-2-8)6-4-9-6/h5-6,8H,1-2,4H2/t5-,6+/m0/s1
