15
gdb 49683	2.66353	1.34114	1.16956	2.9217	67.17	-0.2545	-0.0488	0.2057	1072.0348	0.111482	-457.766483	-457.758741	-457.757797	-457.799418	28.179	
O	-0.0580876023	 0.0914422616	-0.7220028132	-0.258369
C	-0.0693665725	 1.1844161414	-0.2137140018	 0.170908
C	 1.1336347792	 2.0530578064	-0.1467539183	-0.159776
C	 1.0742182322	 3.5562913127	-0.3002042867	 0.079882
O	-0.1911442292	 4.1675003169	-0.2803577647	-0.254893
C	-0.7215121743	 4.1645949137	 1.0392088067	-0.192754
C	 0.2739797685	 3.4106457299	 1.9313684869	 0.369218
O	 0.183239802	 3.2668490344	 3.1211903748	-0.300997
C	 1.417927244	 3.0064638851	 1.0445998505	-0.226293
H	-0.9987328105	 1.5970642739	 0.2313201891	 0.083866
H	 2.0249232546	 1.5741425262	-0.5400349109	 0.128109
H	 1.7789801806	 4.0519892655	-0.9579770323	 0.131209
H	-0.8334500106	 5.193471165	 1.4044557506	 0.146186
H	-1.7078704107	 3.6864002708	 1.0594485324	 0.146952
H	 2.408611149	 2.9736437066	 1.478277757	 0.136752
75.5572	128.5687	140.4369	181.4907	306.2403	428.5143	439.2924	525.2262	598.0499	614.0611	706.296	771.7992	814.8777	864.0984	920.9228	967.5712	1009.1992	1030.6819	1033.2788	1043.2311	1104.5728	1122.7703	1192.3251	1197.2003	1211.8671	1292.8358	1316.545	1341.0632	1381.7654	1453.3528	1483.6929	1816.6315	1850.2869	2913.042	3026.6584	3067.8521	3170.4958	3182.9366	3209.5209
O=CC1C2OCC(=O)C12	O=C[C@H]1[C@H]2OCC(=O)[C@@H]12	
InChI=1S/C6H6O3/c7-1-3-5-4(8)2-9-6(3)5/h1,3,5-6H,2H2	InChI=1S/C6H6O3/c7-1-3-5-4(8)2-9-6(3)5/h1,3,5-6H,2H2/t3-,5-,6-/m1/s1
