17
gdb 30947	2.43455	1.33071	0.91088	4.2606	71.92	-0.2067	0.0304	0.2371	1268.5053	0.136232	-455.207592	-455.198517	-455.197573	-455.241657	33.021	
C	-0.3787173415	 1.5494848064	-0.0665346003	-0.373275
C	 0.0374228456	 0.0724556574	 0.0490360665	-0.305349
C	 0.7796517782	-0.4359730429	-1.1387655199	 0.310386
C	 2.0382904532	-0.8869120214	-1.2548788049	 0.172481
N	 3.0416035235	-1.028966804	-0.3028212973	-0.590952
O	 2.283074724	-1.2499969076	-2.5876938007	-0.233624
C	 1.1406953845	-1.0177704707	-3.3224957803	 0.471729
O	 1.0231522817	-1.2285001018	-4.4997059508	-0.40709
N	 0.2259137692	-0.5153337277	-2.4237096417	-0.432683
H	 0.4977498286	 2.1926715902	-0.1868441011	 0.129289
H	-1.0365238813	 1.7194415598	-0.925378703	 0.114428
H	-0.9171642883	 1.8670531418	 0.8309618079	 0.122726
H	 0.6859079103	-0.0686137571	 0.9178610037	 0.137838
H	-0.8563241032	-0.5442484294	 0.2164916526	 0.11207
H	 3.8605396975	-0.4692415319	-0.5226676055	 0.250873
H	 3.3462214867	-1.9937453911	-0.2088365006	 0.251019
H	-0.7089577387	-0.2685446899	-2.6965218448	 0.270135
65.1512	118.7847	178.7778	198.868	204.2755	273.8914	282.6799	327.9616	395.9635	460.211	583.5536	605.9205	653.6188	676.0517	767.8739	784.9417	812.7265	836.4008	953.4069	969.2114	1017.6047	1071.9521	1090.9181	1221.3947	1227.3631	1258.8179	1282.479	1335.0444	1367.12	1410.9546	1441.6185	1478.2675	1497.5512	1504.8017	1658.5052	1785.2809	1893.1	3015.356	3038.9806	3092.0364	3112.36	3119.5479	3487.1899	3548.2978	3692.1725
CCC1=C(N)OC(=O)N1	CCc1c(N)oc(=O)[nH]1	
InChI=1S/C5H8N2O2/c1-2-3-4(6)9-5(8)7-3/h2,6H2,1H3,(H,7,8)	InChI=1S/C5H8N2O2/c1-2-3-4(6)9-5(8)7-3/h2,6H2,1H3,(H,7,8)
