20
gdb 73033	2.86077	1.26601	1.08117	1.6568	80.28	-0.2348	0.0816	0.3164	1201.6713	0.170635	-403.076719	-403.068194	-403.06725	-403.10993	32.99	
O	-0.0673200975	 1.4015716078	 0.214944225	-0.4565
C	-0.0280747241	 0.0211315653	 0.0955274481	 0.3454
C	-0.830519467	-0.7785676857	-0.9380956626	-0.287882
C	-1.1297716687	-1.8480213744	 0.1622216463	-0.214644
C	-0.3423535265	-1.0121996668	 1.1804107809	-0.155448
C	 1.0747359462	-0.8002856793	 0.698950834	-0.026709
N	 1.7788455938	-1.8111748779	-0.0406578795	-0.059061
C	 3.1739349998	-1.5315205444	-0.3671016625	-0.227277
C	 2.8246803465	-2.5365090962	 0.6748134537	-0.220511
H	 0.6156102643	 1.7742354498	-0.3538815003	 0.282574
H	-1.7299428881	-0.2381984537	-1.2412234172	 0.103902
H	-0.28624864	-1.116270575	-1.8238476371	 0.098549
H	-2.1926887958	-1.9150575829	 0.4022836915	 0.099303
H	-0.7363518148	-2.8484756601	-0.0287116291	 0.107974
H	-0.6035422236	-0.8669884393	 2.2219303176	 0.087837
H	 1.6703000931	-0.2166245233	 1.4092372562	 0.070911
H	 3.5043615001	-1.8475623605	-1.3526579296	 0.116276
H	 3.5980407997	-0.588228407	-0.0254349406	 0.107119
H	 3.0126180954	-2.2651856106	 1.7123522607	 0.111407
H	 2.8943481671	-3.5995647458	 0.4622918844	 0.116782
71.681	149.3908	160.5333	215.7304	257.2488	297.5295	374.1905	385.7676	496.5145	523.5912	625.6869	768.3629	777.5714	794.4997	842.5442	877.9717	893.1872	925.8411	939.0348	962.5335	1000.5479	1023.6218	1049.2637	1065.9222	1106.4385	1115.4037	1117.9244	1134.8428	1174.7477	1188.3159	1216.2031	1220.2933	1235.5602	1248.1964	1300.4689	1314.0253	1323.2273	1336.9702	1459.4851	1470.125	1490.9166	1503.4264	1521.1804	3044.812	3060.7239	3071.7474	3091.432	3097.6054	3111.9902	3129.5361	3174.297	3182.3629	3189.4046	3789.6806
OC12CCC1C2N1CC1	O[C@]12CC[C@H]1[C@H]2N1CC1	
InChI=1S/C7H11NO/c9-7-2-1-5(7)6(7)8-3-4-8/h5-6,9H,1-4H2	InChI=1S/C7H11NO/c9-7-2-1-5(7)6(7)8-3-4-8/h5-6,9H,1-4H2/t5-,6+,7+/m0/s1
