20
gdb 126625	3.10508	1.0625	0.84617	3.4315	81.12	-0.2475	0.0149	0.2625	1414.587	0.172104	-399.373863	-399.364494	-399.36355	-399.409161	33.189	
C	 0.0799517646	 1.5572184864	 0.1480531702	-0.381793
C	 0.0679516128	 0.0279278239	 0.1025713063	-0.173532
C	 0.5794721809	-0.5119629091	-1.2374287632	-0.148989
N	 0.6179945257	-1.9637482362	-1.2791783232	-0.000844
N	 1.5805382705	-2.6350982888	-0.5929122773	-0.258734
C	 1.2698435821	-3.8960309205	-0.8362628234	 0.022274
N	 0.1792051145	-4.0827732696	-1.6254600672	-0.317054
C	-0.2133354898	-2.8439103324	-1.8880007548	 0.352589
C	-1.3853372195	-2.465396505	-2.7304744804	-0.506615
H	 1.0914776141	 1.9511505682	 0.0009427262	 0.122808
H	-0.5602070863	 1.9875683145	-0.6303523819	 0.115901
H	-0.2813069886	 1.9225770901	 1.1133438376	 0.123344
H	 0.6968381121	-0.3845753055	 0.898041513	 0.132218
H	-0.9472275456	-0.348910217	 0.2762820372	 0.104451
H	-0.0556307582	-0.1719024572	-2.0607244672	 0.119428
H	 1.5941772273	-0.1495043094	-1.4288446599	 0.133921
H	 1.8537484768	-4.7105502077	-0.4336141627	 0.120829
H	-2.1280273068	-1.8909176202	-2.1665682632	 0.138676
H	-1.0878413999	-1.8640801749	-3.5965823692	 0.139805
H	-1.8574914768	-3.3794778994	-3.0916375869	 0.161319
41.7027	84.2156	104.8226	126.0884	235.3312	250.0936	267.4899	308.0821	369.5309	445.3698	670.4942	688.4941	706.2927	751.6866	782.1694	880.3352	903.6681	906.1216	982.5421	1008.7054	1044.9185	1065.9851	1072.6493	1125.1144	1195.7738	1216.2217	1260.7905	1305.5106	1313.5197	1331.1181	1343.1158	1404.2203	1407.5854	1416.7791	1430.7024	1476.3934	1482.5881	1487.0577	1493.9077	1501.0386	1510.6786	1518.8675	1565.1873	3032.3268	3036.8966	3037.9987	3057.8694	3076.6767	3090.3485	3096.7883	3112.0191	3113.0489	3152.0463	3255.9997
CCCN1N=CN=C1C	CCCn1ncnc1C	
InChI=1S/C6H11N3/c1-3-4-9-6(2)7-5-8-9/h5H,3-4H2,1-2H3	InChI=1S/C6H11N3/c1-3-4-9-6(2)7-5-8-9/h5H,3-4H2,1-2H3
