18
gdb 10925	3.3501	1.89148	1.51558	1.9305	67.45	-0.2456	0.082	0.3276	906.3543	0.152307	-384.912162	-384.903927	-384.902983	-384.944335	31.07	
C	-0.1225671412	 1.5870326871	-0.0368506331	-0.405691
C	-0.0175447126	 0.0698168398	-0.0455629582	-0.05107
C	 0.7670036114	-0.5971310354	-1.1811823511	-0.048661
O	 2.1406693166	-0.1758758573	-1.0491570056	-0.30574
C	 1.6791243663	-1.2918868252	-0.2554294564	 0.376932
C	 2.4368045158	-2.5760231207	-0.3297256662	-0.512441
C	 1.0028510764	-0.6215465603	 0.9586765776	 0.06728
O	 1.8264218479	 0.195794627	 1.74384407	-0.43192
H	 0.845073787	 2.0476685642	-0.25329828	 0.121099
H	-0.8359601878	 1.9353307843	-0.7911518209	 0.112935
H	-0.457319381	 1.9482940774	 0.9401095928	 0.126052
H	-1.0048064642	-0.3919750172	 0.0640062324	 0.074615
H	 0.441410424	-0.8783322488	-2.1770054773	 0.100594
H	 2.7040030437	-2.8066978056	-1.364430369	 0.134358
H	 3.3593374754	-2.5131875096	 0.2578828978	 0.137233
H	 1.8392956525	-3.4006217909	 0.0722382097	 0.126685
H	 0.5081290299	-1.3243545846	 1.6338930739	 0.087698
H	 2.3799108498	 0.6864028559	 1.1224627038	 0.290044
111.5533	180.3154	189.6672	214.1933	238.9582	249.4173	336.4908	466.5533	512.6421	553.4695	606.9561	700.9198	709.5449	804.6358	854.9864	865.8317	896.363	979.8925	1005.288	1054.5545	1065.4423	1099.1388	1133.4968	1141.2748	1190.5463	1208.6668	1251.111	1280.7888	1306.2114	1359.4007	1398.9891	1408.6068	1430.5017	1471.18	1483.4944	1489.3505	1494.8133	1504.6987	3035.7942	3039.1815	3049.8991	3085.6095	3099.273	3104.9738	3118.9298	3120.6265	3177.7159	3773.0201
CC1C2OC2(C)C1O	C[C@H]1[C@H]2O[C@@]2(C)[C@H]1O	
InChI=1S/C6H10O2/c1-3-4(7)6(2)5(3)8-6/h3-5,7H,1-2H3	InChI=1S/C6H10O2/c1-3-4(7)6(2)5(3)8-6/h3-5,7H,1-2H3/t3-,4+,5-,6+/m1/s1
