14
gdb 129691	3.2743	1.18511	0.91064	1.8183	65.58	-0.2138	-0.015	0.1988	1195.4776	0.101655	-470.025735	-470.017373	-470.016429	-470.059638	29.399	
N	-0.4169252295	 1.3100218243	 0.3665660607	-0.623056
C	-0.1396221919	-0.0402170036	 0.1012429053	 0.104016
C	-1.0312833516	-1.0052947738	-0.3205039606	 0.349622
N	-0.3566078663	-2.1865336934	-0.3829935376	-0.250938
N	 0.9296599064	-2.0549494133	-0.0295286033	-0.220564
C	 1.0657512079	-0.763589574	 0.2710772645	-0.056994
O	-2.3447715553	-0.9099390997	-0.6958165496	-0.227756
C	-3.2655869665	-0.7792276823	 0.3183956752	 0.155667
O	-4.4238839715	-0.6466228643	 0.0929636221	-0.245481
H	 0.4245552974	 1.8701820313	 0.4073194192	 0.251349
H	-1.0469472595	 1.7173128183	-0.3147056771	 0.253314
H	-0.7069081168	-3.0711173552	-0.7104763869	 0.283515
H	 2.0230167588	-0.3861846618	 0.6009917632	 0.112191
H	-2.7868363816	-0.8136973928	 1.312059945	 0.115115
44.4067	127.3961	135.7951	178.1823	261.7081	288.618	411.1598	429.9946	449.9826	523.3072	675.3672	693.8839	699.5832	784.229	853.4226	856.953	947.4664	1042.9083	1081.0151	1093.7581	1144.2636	1253.147	1276.8723	1298.9157	1398.8648	1415.4559	1445.8914	1534.186	1654.4659	1671.7458	1885.5327	3002.4959	3240.1129	3528.6945	3620.1739	3671.6037
NC1=C(NN=C1)OC=O	Nc1c([nH]nc1)OC=O	
InChI=1S/C4H5N3O2/c5-3-1-6-7-4(3)9-2-8/h1-2H,5H2,(H,6,7)	InChI=1S/C4H5N3O2/c5-3-1-6-7-4(3)9-2-8/h1-2H,5H2,(H,6,7)
