16
gdb 25898	2.67204	1.5131	0.97336	1.6983	73.93	-0.2002	-0.0402	0.16	1154.1712	0.124317	-437.935661	-437.927198	-437.926254	-437.968917	31.536	
C	-0.0149225478	 1.4659259915	-0.0334689445	-0.49221
C	 0.0225647344	-0.0525369258	-0.0190268164	 0.310752
O	 1.0885458623	-0.6518544114	 0.003984617	-0.344125
C	-1.2508457441	-0.7725385575	-0.0245172326	 0.101167
C	-2.5222357008	-0.260981651	 0.0396626965	-0.082537
O	-3.43246193	-1.2367649237	 0.0673686884	-0.142167
C	-2.7541858634	-2.4379646716	 0.0131730798	-0.087576
C	-1.4097152258	-2.2157895425	-0.0474387293	 0.134739
N	-0.3677069728	-3.1141251884	-0.1811354994	-0.613025
H	 1.0059083359	 1.8485557473	-0.0165162918	 0.143807
H	-0.5275987484	 1.829583198	-0.9303192319	 0.141319
H	-0.5622908327	 1.8479847379	 0.8348798869	 0.138786
H	-2.9028649524	 0.7470086466	 0.0800116732	 0.145986
H	-3.3677311775	-3.3215008621	 0.0212606599	 0.130357
H	-0.5166117434	-4.0236887366	 0.2280227596	 0.244238
H	 0.5286840863	-2.7003785106	 0.0409745244	 0.270489
74.6051	113.8479	175.501	197.4995	305.1338	317.5115	381.4985	429.6553	496.9475	578.7264	604.1867	629.1031	643.8784	651.7045	718.8213	740.9479	789.4311	888.6587	947.982	1044.3621	1065.6957	1089.4608	1120.1203	1219.2532	1265.9562	1305.6877	1353.8795	1382.7666	1439.2814	1468.682	1476.6834	1554.626	1623.8576	1662.2772	1745.7225	3040.436	3103.6032	3154.9415	3269.0057	3292.7873	3541.9469	3662.3905
CC(=O)C1=COC=C1N	CC(=O)c1cocc1N	
InChI=1S/C6H7NO2/c1-4(8)5-2-9-3-6(5)7/h2-3H,7H2,1H3	InChI=1S/C6H7NO2/c1-4(8)5-2-9-3-6(5)7/h2-3H,7H2,1H3
