16
gdb 35520	3.23085	1.49134	1.37573	4.1688	67.04	-0.2745	0.0297	0.3043	962.2496	0.127352	-437.905234	-437.898389	-437.897445	-437.936747	26.522	
N	-0.1215884398	-1.17378548	-0.2294104949	-0.326877
C	-0.0679831676	-0.025077123	-0.1141650609	 0.277914
C	-0.0175130093	 1.4232825682	 0.0223725108	-0.181593
C	-0.5799190131	 1.9740111419	 1.381502287	-0.250106
C	 0.6491246175	 2.753471266	 1.895633535	 0.037984
C	 1.7485529251	 1.7593050513	 2.3095789501	-0.087
O	 2.1885933509	 1.2692510633	 1.026794377	-0.260124
C	 1.4332038551	 2.0061406181	 0.0873483177	 0.182988
O	 1.2167263054	 3.2666936481	 0.6740684536	-0.244293
H	-0.5459348525	 1.871124071	-0.8237593699	 0.134536
H	-1.423610292	 2.6424511527	 1.205266754	 0.126528
H	-0.897528425	 1.1793447994	 2.0582850861	 0.133411
H	 0.449135199	 3.5654882348	 2.5918482587	 0.102665
H	 2.584605794	 2.2497214174	 2.8187916137	 0.11856
H	 1.3786101143	 0.9317055331	 2.9221712071	 0.120498
H	 1.968965098	 2.0822268075	-0.8572193351	 0.114909
93.4794	156.3333	244.2861	351.5383	389.1611	497.2575	546.6719	591.2844	666.2081	784.7201	820.2562	830.0253	869.6756	895.7259	943.5749	964.5882	990.0261	1026.4559	1029.7801	1047.8248	1084.9477	1101.4226	1174.1275	1194.4729	1232.7311	1259.9186	1295.7204	1305.3035	1318.7529	1338.317	1350.1972	1384.6473	1491.8961	1524.7484	2361.1073	3044.374	3075.6734	3087.8257	3095.2518	3140.7869	3147.765	3152.3341
N#CC1CC2COC1O2	N#C[C@H]1C[C@H]2CO[C@@H]1O2	
InChI=1S/C6H7NO2/c7-2-4-1-5-3-8-6(4)9-5/h4-6H,1,3H2	InChI=1S/C6H7NO2/c7-2-4-1-5-3-8-6(4)9-5/h4-6H,1,3H2/t4-,5+,6-/m1/s1
