21
gdb 76808	2.71701	1.55854	1.30442	1.4587	84.24	-0.2285	0.0659	0.2944	1075.203	0.182911	-386.967194	-386.958978	-386.958034	-386.999516	33.064	
C	-0.20910391	 1.64830547	-0.0717514606	-0.407699
C	-0.0501600774	 0.1337356595	 0.0351609968	-0.088877
C	 0.9430146423	-0.5767515042	-1.0226152576	-0.017657
O	 1.4972590885	 0.1847851793	-2.0659455019	-0.426092
C	 1.8880657905	-0.8184430629	 0.1563469039	 0.310395
C	 2.6256290714	-1.7238184476	 1.1923631345	-0.316116
C	 2.0892862908	-0.4434693497	 1.9782744249	-0.083107
C	 2.6284185981	 0.3973015469	 0.8073637311	-0.231807
C	 0.7523301326	-0.6348108005	 1.1712852224	-0.029462
H	 0.7122590636	 2.1553501919	-0.3610711002	 0.136714
H	-0.9573934091	 1.892861168	-0.8349383836	 0.103423
H	-0.55803331	 2.0717115458	 0.8754421947	 0.11838
H	-1.0490697159	-0.3111231534	-0.0109707222	 0.072682
H	 0.4880223849	-1.5053434349	-1.3957648252	 0.073407
H	 0.8434217959	 0.2664503702	-2.767587727	 0.285452
H	 2.1464476168	-2.6775072813	 1.4290069384	 0.093831
H	 3.7138688355	-1.8224809718	 1.1256630558	 0.092123
H	 2.2258658147	-0.2574203624	 3.0479847971	 0.065913
H	 3.712578892	 0.4125172199	 0.6671230331	 0.087525
H	 2.2074932491	 1.3904399587	 0.6813094039	 0.098694
H	 0.2103216756	-1.5452667514	 1.4444283219	 0.062277
118.4233	152.7016	208.1493	255.3644	264.7802	284.931	395.4312	512.075	539.7797	553.3578	609.7988	690.0134	761.9636	781.5655	790.1803	844.3382	891.947	921.4341	950.724	987.6982	1007.5302	1010.4159	1047.315	1073.	1090.2061	1114.9116	1122.2083	1131.9079	1146.206	1156.8995	1190.2402	1210.0905	1214.533	1221.1822	1241.1835	1259.6556	1303.8201	1346.1536	1378.9542	1409.2177	1430.1473	1489.5531	1494.5888	1509.5175	1542.8802	2996.7355	3030.819	3038.7425	3039.9694	3053.8102	3060.3251	3073.814	3090.9	3113.5534	3135.5994	3181.2041	3816.1456
CC1C(O)C23CC(C2)C13	C[C@H]1[C@@H](O)[C@@]23C[C@@H](C2)[C@@H]13	
InChI=1S/C8H12O/c1-4-6-5-2-8(6,3-5)7(4)9/h4-7,9H,2-3H2,1H3	InChI=1S/C8H12O/c1-4-6-5-2-8(6,3-5)7(4)9/h4-7,9H,2-3H2,1H3/t4-,5-,6-,7-,8-/m1/s1
