15
gdb 124342	2.821	1.69339	1.06545	0.9178	69.36	-0.2315	-0.0386	0.193	1057.9062	0.113716	-450.193209	-450.185002	-450.184058	-450.226139	29.876	
C	-0.0779263864	 1.4941574646	 0.0072839784	-0.481707
C	 0.0548592798	-0.0044196653	-0.0049464783	 0.433383
O	 1.1137036167	-0.6024908117	-0.0000480172	-0.348528
N	-1.1480474342	-0.7133760433	-0.0205700333	-0.099323
N	-2.3934625791	-0.0986481168	 0.0157369941	-0.266743
C	-3.1989344018	-1.1309204713	 0.0340441071	 0.047809
N	-2.6186022203	-2.3710266646	 0.0133388557	-0.358179
C	-1.3320577741	-2.0883452492	-0.0234603861	 0.491218
N	-0.3106523688	-2.9609988117	-0.0920164999	-0.594323
H	 0.9214062901	 1.9279372023	 0.0107648208	 0.145109
H	-0.6424532129	 1.8326314336	-0.8652985876	 0.165702
H	-0.6413138087	 1.8175439259	 0.8863346099	 0.165974
H	-4.2714705963	-1.0008109279	 0.064093635	 0.132806
H	-0.5207637057	-3.9310252452	 0.0670493228	 0.27545
H	 0.6233567117	-2.5994868494	 0.0284766387	 0.291351
96.6874	124.878	134.3055	230.3102	298.1027	310.0976	351.686	442.1449	523.3795	547.2972	604.856	656.7789	661.3945	760.6206	765.794	935.5488	958.5972	968.2494	1059.4587	1061.8121	1114.1873	1179.7916	1234.6224	1297.9696	1369.7716	1395.8346	1417.6227	1457.065	1466.1809	1529.2426	1579.4645	1672.8654	1787.0888	3063.5881	3130.4306	3171.7466	3250.2755	3576.9479	3728.8698
CC(=O)N1N=CN=C1N	CC(=O)n1ncnc1N	
InChI=1S/C4H6N4O/c1-3(9)8-4(5)6-2-7-8/h2H,1H3,(H2,5,6,7)	InChI=1S/C4H6N4O/c1-3(9)8-4(5)6-2-7-8/h2H,1H3,(H2,5,6,7)
