20
gdb 115677	2.27149	1.27208	0.99021	4.9871	74.62	-0.2462	0.0163	0.2624	1278.6718	0.171668	-440.307795	-440.298646	-440.297701	-440.342418	33.438	
C	 0.0188130609	 1.6208433856	 0.0412339456	-0.398286
C	-0.1710301014	 0.1180062192	-0.1824074288	-0.192123
C	 0.7317603702	-0.429493474	-1.2848832951	 0.016176
C	 2.2335062192	-0.6127290625	-0.9234034457	-0.177479
N	 2.0398066567	-2.087123236	-0.8666549329	-0.338743
H	 2.7283861308	-2.6396318586	-1.3653997288	 0.233329
H	 0.9953466527	-3.0485189889	 0.4302967731	 0.301077
C	 0.7082963331	-1.9815970447	-1.5138040263	-0.156789
C	-0.3762498311	-2.7722355809	-0.7852200149	 0.433388
O	 0.0478759542	-3.3062583229	 0.369731396	-0.370654
O	-1.5027666793	-2.8785141321	-1.1923063776	-0.348179
H	 1.0505440102	 1.8600309293	 0.3222746293	 0.11585
H	-0.217240486	 2.1881854186	-0.8659163485	 0.117896
H	-0.6335172366	 1.9842211474	 0.8404940754	 0.121965
H	 0.0210321527	-0.4257494951	 0.7511488806	 0.107202
H	-1.2135234764	-0.0913799979	-0.4478489736	 0.128693
H	 0.5693766792	 0.1330025876	-2.2071306887	 0.086129
H	 2.9148103783	-0.2870549499	-1.7171939835	 0.106319
H	 2.5683370297	-0.1800596317	 0.0252587446	 0.112628
H	 0.6748936429	-2.2484242424	-2.5746237003	 0.1016
61.4875	100.2555	116.007	135.6234	215.8411	250.9139	299.2516	381.4943	423.8262	486.846	613.8576	686.7084	763.1218	774.2736	807.9398	845.7711	873.3911	947.7467	955.9864	959.4525	994.9302	1027.6823	1031.5859	1078.1341	1121.884	1146.174	1168.4333	1217.8241	1242.2821	1256.6985	1292.12	1307.7158	1338.3291	1353.8707	1376.8098	1396.1863	1414.2931	1432.788	1488.7891	1500.5675	1506.2821	1519.8311	1866.5127	3027.3908	3030.5593	3031.7234	3059.1242	3065.5386	3073.1605	3086.5779	3099.1545	3108.4963	3458.1672	3534.2949
CCC1C[NH2+]C1C([O-])=O	CC[C@H]1CN[C@H]1C(=O)O	
InChI=1S/C6H11NO2/c1-2-4-3-7-5(4)6(8)9/h4-5,7H,2-3H2,1H3,(H,8,9)	InChI=1S/C6H11NO2/c1-2-4-3-7-5(4)6(8)9/h4-5,7H,2-3H2,1H3,(H,8,9)/t4-,5+/m0/s1
