23
gdb 114965	2.92953	1.2471	1.00263	0.4346	91.97	-0.2199	0.0266	0.2465	1295.687	0.207286	-351.145493	-351.136814	-351.13587	-351.178772	34.193	
C	-0.030157616	 1.6724504919	-0.0029785762	-0.387949
C	-0.0372948512	 0.1405147041	-0.0310550702	-0.17192
C	 0.7259760335	-0.4620899626	-1.2212690557	-0.006749
C	 2.2864451694	-0.3049080205	-1.0707624419	-0.256432
C	 2.752615353	-1.6514320372	-0.5254450147	-0.242838
C	 1.8222905196	-2.5664698812	-0.7694093772	 0.325931
C	 1.1418290321	-3.8135375991	-0.2543415026	-0.32412
C	-0.1962379339	-2.9939291892	-0.3961229462	-0.244576
C	 0.5619845798	-2.0013076832	-1.3581088303	-0.05383
H	 0.9857494121	 2.0764863461	 0.0557468404	 0.117569
H	-0.4960415539	 2.0837106675	-0.9056509294	 0.112559
H	-0.5847777379	 2.0532269202	 0.8605428894	 0.109846
H	 0.3846699752	-0.2482142505	 0.9050748322	 0.096485
H	-1.0773822687	-0.2070174854	-0.0652895674	 0.093812
H	 0.3813499053	 0.0431355374	-2.1309570677	 0.058822
H	 2.7579696945	-0.0622897591	-2.0333987166	 0.099085
H	 2.549467976	 0.5153374581	-0.3924879022	 0.096986
H	 3.6697531633	-1.7749353151	 0.039380083	 0.08606
H	 1.1717771084	-4.6492174323	-0.962008021	 0.109386
H	 1.4233763594	-4.181546284	 0.7353553774	 0.107761
H	-1.0578500315	-3.5248230715	-0.8082353411	 0.0955
H	-0.4764966621	-2.5272172133	 0.5499540207	 0.109436
H	 0.3887697036	-2.2997026011	-2.3997137926	 0.069178
79.2812	120.0736	175.5292	224.3358	246.9966	289.4327	336.8102	394.3625	460.394	629.4261	677.699	706.6278	752.4404	782.3447	823.8043	829.8417	843.2944	901.5676	909.196	943.2896	960.7328	969.5141	1016.7029	1037.8902	1060.357	1076.1557	1106.8496	1122.1325	1133.356	1185.2241	1211.8984	1219.1645	1235.3873	1243.317	1256.8476	1289.18	1301.3015	1318.4412	1339.6426	1349.0545	1387.5185	1410.503	1475.4541	1482.6555	1489.7149	1493.3069	1499.8179	1505.7259	1741.0947	3004.0661	3013.543	3017.4117	3029.8355	3037.0192	3043.8451	3051.3814	3054.2059	3067.4234	3096.9319	3099.0406	3101.6379	3133.0443	3193.0344
CCC1CC=C2CCC12	CC[C@H]1C[CH][C]2CC[C@@H]12	
InChI=1S/C9H14/c1-2-7-3-4-8-5-6-9(7)8/h4,7,9H,2-3,5-6H2,1H3	InChI=1S/C9H14/c1-2-7-3-4-8-5-6-9(7)8/h4,7,9H,2-3,5-6H2,1H3/t7-,9-/m0/s1
