12
gdb 129022	4.16624	1.79012	1.25212	3.2251	70.45	-0.2683	-0.0902	0.1781	879.1718	0.083266	-427.858979	-427.853513	-427.852569	-427.888835	21.446	
N	-0.0947775295	 1.3002033864	 0.009670673	-0.275556
N	 1.0667884001	 1.9275549325	 0.0024730455	-0.043217
H	 1.0005338983	 2.9365942244	 0.0087077569	 0.311555
N	 2.3051506616	 1.4630639907	-0.0115185459	-0.211419
C	 2.4515224293	 0.1416577826	-0.0202311284	-0.05376
C	 1.3282528829	-0.6842376243	-0.0144926004	 0.251093
N	 1.1327705638	-2.0020891699	-0.0200491581	-0.352281
C	-0.2343758062	-2.0811898797	-0.0078822237	 0.031631
N	-0.9470441519	-0.947197836	 0.0049938968	-0.322805
C	 0.0321494699	-0.0162940819	 0.001162416	 0.380848
H	 3.4733239409	-0.2201405496	-0.0316604624	 0.154387
H	-0.7239168893	-3.0479592453	-0.0087679092	 0.129524
243.4837	252.636	434.3136	467.5697	588.4708	632.1679	643.0748	646.492	745.9169	802.0092	838.7987	931.5114	944.5209	963.5301	980.262	1071.8002	1142.6952	1215.8049	1261.1517	1321.2701	1333.8564	1394.0842	1426.6178	1468.6356	1534.7559	1601.9488	1625.1979	3205.2295	3222.583	3608.982
[N-]1[NH+]=NC=C2N=CN=C12	n1[nH]ncc2ncnc12	
InChI=1S/C4H3N5/c1-3-4(6-2-5-3)8-9-7-1/h1-2,9H	InChI=1S/C4H3N5/c1-3-4(6-2-5-3)8-9-7-1/h1-2,9H
