17
gdb 62504	1.86995	1.57152	1.10949	1.4218	81.78	-0.2366	0.0255	0.2621	1161.3594	0.131288	-384.609388	-384.599584	-384.59864	-384.643421	36.943	
C	-0.1315392114	 1.5759109125	-0.0234559162	-0.455923
C	 0.0068693336	 0.0757140739	 0.0248248098	 0.370421
O	-1.1131211714	-0.6402219248	-0.413541743	-0.453343
C	 1.3544785306	-0.5927343208	-0.2333329207	-0.324965
C	 2.543884514	 0.1544752799	-0.4945715244	 0.361724
C	 3.5445784221	 0.7792189561	-0.7310189941	-0.451122
C	 0.6998536422	-0.6092664056	 1.1753320375	-0.285114
C	 1.2649821749	 0.1206558018	 2.2675398127	 0.353785
C	 1.7376478846	 0.7229864044	 3.1948895141	-0.438716
H	 0.7568993178	 2.0694092454	 0.3724986245	 0.149989
H	-0.2724739853	 1.9118004494	-1.0577005433	 0.112585
H	-1.0007237132	 1.8872981071	 0.5631582897	 0.132901
H	-1.2765251898	-0.4004739101	-1.3332108379	 0.285204
H	 1.2770915615	-1.5483136568	-0.7434521456	 0.120942
H	 4.4303050419	 1.3286168225	-0.9330108281	 0.195539
H	 0.2673901265	-1.5721719381	 1.429822587	 0.130103
H	 2.1565764814	 1.2546806532	 4.012819188	 0.195991
93.6042	127.2625	151.8924	171.3736	207.1184	288.0167	313.9537	348.7608	384.0322	408.3164	423.7386	542.0306	550.8471	586.5392	599.0807	647.1902	654.6295	657.1131	705.2699	803.7099	858.7465	927.5848	999.1307	1035.614	1068.7766	1095.7548	1118.2933	1205.5144	1273.8892	1328.4684	1345.2955	1421.4485	1429.8356	1483.3508	1500.2025	2234.3512	2239.7255	3035.1853	3102.4358	3148.6562	3151.2886	3160.711	3504.6965	3505.3846	3789.8148
CC1(O)C(C#C)C1C#C	C[C@@]1(O)[C@@H](C#C)[C@H]1C#C	
InChI=1S/C8H8O/c1-4-6-7(5-2)8(6,3)9/h1-2,6-7,9H,3H3	InChI=1S/C8H8O/c1-4-6-7(5-2)8(6,3)9/h1-2,6-7,9H,3H3/t6-,7+,8+
