16
gdb 65872	2.85119	1.29634	1.2055	3.1413	66.55	-0.2589	-0.051	0.2078	1089.6125	0.122832	-475.053503	-475.045002	-475.044058	-475.087201	30.614	
C	-0.0167984457	 1.648852618	 0.2361883095	-0.452703
C	 0.0864149563	 0.1362753161	 0.0748410781	 0.250267
C	 0.798447502	-0.3374005671	-1.1972768769	-0.147081
O	 1.5719754514	-1.4507142664	-0.7427091284	-0.252597
C	 1.6922276249	-1.395639144	 0.614024833	 0.489044
N	 2.4012629741	-2.1253241655	 1.3484785334	-0.571508
O	 0.9082509674	-0.4051862229	 1.1201852978	-0.260837
C	-1.3119907239	-0.4825741799	 0.2178156719	 0.124518
O	-2.0341491684	-0.7232721338	-0.7117210328	-0.239023
H	 0.9839864787	 2.0884948901	 0.2437785401	 0.144425
H	-0.5924331735	 2.0749489284	-0.5906096978	 0.146516
H	-0.5144100199	 1.9071872722	 1.1752045449	 0.145164
H	 0.0924060913	-0.6706837477	-1.9593094886	 0.154589
H	 1.4635450989	 0.4302445922	-1.6077587114	 0.119276
H	 2.9391816972	-2.776939886	 0.7822569109	 0.235973
H	-1.6050818908	-0.6715464038	 1.2726404462	 0.113977
62.6103	100.2203	133.9085	218.3463	272.4248	292.5802	297.6579	409.701	470.4831	551.5026	647.7821	719.4356	730.4127	807.3493	839.3465	884.3995	938.064	968.04	980.2376	1013.8631	1054.0591	1093.0011	1162.0125	1196.2952	1215.0786	1275.6884	1304.1638	1393.6282	1398.6475	1411.5293	1482.6784	1494.2401	1522.6543	1804.8616	1837.6266	2916.5138	3044.1373	3047.5359	3123.8849	3129.6372	3131.5026	3539.4657
CC1(COC(=N)O1)C=O	C[C@]1(CO[C]([NH])O1)C=O	
InChI=1S/C5H7NO3/c1-5(2-7)3-8-4(6)9-5/h2,6H,3H2,1H3	InChI=1S/C5H7NO3/c1-5(2-7)3-8-4(6)9-5/h2,6H,3H2,1H3/t5-/m1/s1
