20
gdb 105098	2.83729	1.17898	1.09074	3.065	74.65	-0.2206	0.0585	0.2791	1207.4419	0.1708	-440.23157	-440.22239	-440.221446	-440.26561	34.939	
O	-0.0504317375	 1.3221034469	 0.7567267002	-0.426714
C	-0.0371938894	-0.0969217849	 0.6876798738	-0.160323
C	-1.3390453131	-0.5767819424	 0.0690597367	 0.324152
C	-2.5776713618	 0.210758455	 0.2863512624	-0.276949
N	-1.8961610712	 0.2416193908	-1.0282247196	-0.379482
C	-1.3767491057	-2.0660463183	-0.129027753	-0.140649
C	-2.4363867599	-2.7172310649	-1.003590765	-0.357605
C	-1.0122111096	-2.6499680527	-1.4813008066	 0.141777
O	-0.6428246751	-1.825946293	-2.5404676616	-0.434242
H	 0.83770446	 1.6262184545	 0.9604751791	 0.297631
H	 0.7944335379	-0.455897338	 0.0629547411	 0.113089
H	 0.0775655431	-0.5429880567	 1.6882118244	 0.098196
H	-3.5347979013	-0.3015832586	 0.2952140827	 0.117268
H	-2.5159258836	 1.1087516614	 0.8912340835	 0.131084
H	-1.3536858646	 1.102254745	-1.0747546691	 0.245653
H	-1.0646145389	-2.6271698103	 0.7489800705	 0.07883
H	-2.8529799481	-3.6670018305	-0.6853869623	 0.107617
H	-3.1394990658	-2.0548437368	-1.4986859256	 0.127383
H	-0.4333232923	-3.568202343	-1.4985929033	 0.097987
H	-1.1870851032	-1.0259406236	-2.4652776685	 0.295297
55.4539	115.3401	172.2642	204.0298	213.4305	280.0973	336.8647	378.1693	394.7701	446.0474	524.6203	574.2093	649.8024	701.7105	790.887	802.9089	856.1739	872.6105	941.5692	988.6018	1000.4544	1014.384	1033.4544	1063.6875	1083.6595	1102.4229	1117.4819	1125.1095	1138.4164	1146.4458	1211.9527	1225.1843	1253.1691	1289.2547	1306.2963	1357.8526	1383.1318	1415.3303	1454.5903	1463.1505	1494.5469	1500.6542	1516.0697	2975.1371	3012.8518	3124.9077	3125.5184	3128.214	3158.4967	3216.6568	3219.9045	3491.5239	3672.1431	3851.0571
OCC1(CN1)C1CC1O	OC[C@]1(CN1)[C@H]1C[C@H]1O	
InChI=1S/C6H11NO2/c8-3-6(2-7-6)4-1-5(4)9/h4-5,7-9H,1-3H2	InChI=1S/C6H11NO2/c8-3-6(2-7-6)4-1-5(4)9/h4-5,7-9H,1-3H2/t4-,5+,6+/m0/s1
