18
gdb 43734	4.45166	1.06773	1.0313	2.5821	73.2	-0.2541	0.0253	0.2794	1199.5037	0.148786	-439.090819	-439.083017	-439.082073	-439.124055	29.644	
N	 0.2732408001	 1.1352761123	 0.7046084528	-0.543171
C	 0.0779297456	 0.0491041486	 0.1102913119	 0.432475
C	-1.1450524979	-0.7601972722	-0.258085889	-0.441119
C	-0.1262575453	-1.7419491007	-0.8764262874	 0.416774
C	 0.0568689765	-3.1652437055	-0.3172999738	-0.311747
C	 0.1991864585	-4.0391672834	-1.5822238884	-0.07887
O	 0.5877885895	-3.1478726413	-2.6195156042	-0.239409
C	-0.1369523136	-1.956304705	-2.3925025029	-0.138678
O	 0.9677506537	-0.8422120195	-0.4498637534	-0.279243
H	 1.2696937118	 1.354590698	 0.7557796502	 0.228106
H	-1.7200597961	-1.1375572722	 0.5890886442	 0.137848
H	-1.8196653989	-0.2706580078	-0.9641164834	 0.137385
H	 0.9651836503	-3.1827714093	 0.2887871748	 0.136712
H	-0.7802979529	-3.4744398482	 0.3127551596	 0.112728
H	 0.9643971472	-4.8137138064	-1.4994821485	 0.118991
H	-0.7595184766	-4.5223225444	-1.8315548235	 0.093203
H	-1.1817150004	-2.0563399043	-2.7373187483	 0.089958
H	 0.3419249285	-1.1387045088	-2.9352708207	 0.128058
39.3162	86.7422	227.5966	276.8137	330.6576	408.9169	428.1636	498.465	501.1817	658.9103	741.322	797.3343	830.983	867.0147	881.6431	893.9757	957.5496	961.6001	974.7463	1013.4207	1031.2703	1084.7663	1095.7	1136.1534	1165.0441	1221.0703	1227.9286	1232.6776	1257.4495	1280.885	1300.1614	1321.7905	1363.5132	1406.3797	1464.0238	1477.3903	1490.0963	1520.9235	1827.8168	2948.7404	2974.2683	3073.46	3079.6415	3104.5922	3112.3004	3125.4973	3134.4654	3474.9404
N=C1CC2(CCOC2)O1	[NH][C]1C[C@]2(CCOC2)O1	
InChI=1S/C6H9NO2/c7-5-3-6(9-5)1-2-8-4-6/h7H,1-4H2	InChI=1S/C6H9NO2/c7-5-3-6(9-5)1-2-8-4-6/h7H,1-4H2/t6-/m0/s1
