19
gdb 94839	3.80061	1.20116	1.04578	2.932	72.14	-0.2501	0.0777	0.3278	1189.3988	0.159033	-460.145534	-460.137335	-460.136391	-460.178148	31.581	
C	 0.059664425	 1.4918900268	 0.0090798423	-0.410184
C	 0.0268069948	-0.0198994925	 0.0014287402	 0.228614
O	 0.6590922318	-0.4707839749	-1.1759358138	-0.246088
C	 0.6575252527	-1.8867700497	-1.2733128032	-0.157263
C	 1.2568198816	-2.5089908518	-0.0289924503	 0.397644
C	 1.8106500653	-3.8646103014	-0.0439536531	-0.244634
O	 2.672635227	-2.724779371	-0.0497985056	-0.262817
C	 0.6923766322	-1.9002399378	 1.2380789437	-0.157265
O	 0.6914663062	-0.4832909943	 1.1558846557	-0.246088
H	 1.0980240449	 1.8312928976	-0.0035202229	 0.141064
H	-0.4539156163	 1.8805383926	-0.8729471957	 0.12651
H	-0.4291677135	 1.8709817624	 0.9091444087	 0.12651
H	-1.0137827548	-0.4046605659	 0.0138133092	 0.049362
H	-0.3736749272	-2.2569436539	-1.4092551832	 0.091123
H	 1.2468910144	-2.1506274609	-2.1543230024	 0.121683
H	 1.8175889658	-4.4561605856	 0.8714680107	 0.114512
H	 1.7920955503	-4.4463014086	-0.9655108868	 0.114512
H	-0.3347147742	-2.2719934021	 1.3985977665	 0.091123
H	 1.3059125142	-2.1734488589	 2.09952053	 0.121683
89.0922	188.2442	217.7736	226.2739	269.6647	328.141	353.9923	412.7221	459.2128	521.3465	569.54	637.9104	780.4782	838.1452	874.0782	893.9634	899.3764	961.8038	984.7808	1062.5018	1064.5981	1078.8697	1124.7712	1128.8529	1144.2903	1179.0916	1184.3071	1256.1813	1289.1755	1305.3839	1362.7763	1370.9401	1389.8012	1407.1961	1432.9031	1454.1758	1473.7303	1479.5919	1484.7212	1490.7056	1535.8376	2891.176	2953.5624	2962.6674	3059.8257	3075.3418	3106.1171	3107.8714	3142.5665	3142.8837	3158.3595
CC1OCC2(CO2)CO1	C[C@H]1OC[C@]2(CO2)CO1	
InChI=1S/C6H10O3/c1-5-7-2-6(3-8-5)4-9-6/h5H,2-4H2,1H3	InChI=1S/C6H10O3/c1-5-7-2-6(3-8-5)4-9-6/h5H,2-4H2,1H3/t5-,6+
