19
gdb 90881	3.28414	1.65316	1.4787	2.6479	73.81	-0.2423	0.0804	0.3227	960.8653	0.161146	-422.984302	-422.977331	-422.976387	-423.015361	28.692	
C	 0.0289359234	 1.5558280344	-0.1551422866	-0.417721
C	 0.053088017	 0.0558050776	 0.0613687631	 0.154197
O	 0.9316430612	-0.6538379193	-0.8598017664	-0.314227
C	 1.5694778209	-1.3633422864	 0.208548846	 0.135709
C	 2.9819979706	-0.8618168461	 0.5832019557	 0.034043
C	 2.9727124289	-1.0303806308	 2.1246596901	-0.235404
C	 1.9681658084	 0.1376745982	 1.931064529	 0.053918
O	 2.7678234812	 0.565820399	 0.7865650115	-0.28057
C	 0.7663733116	-0.5812993136	 1.2827767391	-0.124754
H	 1.0296737728	 1.9791933238	-0.0702744796	 0.149279
H	-0.3634253822	 1.7775374659	-1.1529582472	 0.122575
H	-0.6338994035	 2.0302960164	 0.5775067305	 0.107498
H	-0.9649692028	-0.3475189867	-0.0383929565	 0.071476
H	 1.4858894139	-2.4506175326	 0.1156887449	 0.076103
H	 3.8299077918	-1.098881013	-0.0578775726	 0.087702
H	 2.6237236604	-1.9704107898	 2.5621657292	 0.098637
H	 3.9077432734	-0.698743868	 2.5761718385	 0.117317
H	 1.8009959007	 0.9202676895	 2.6704895526	 0.084357
H	 0.1389468123	-1.1155401984	 1.9962665889	 0.079865
167.3316	197.6015	222.6579	314.2155	399.3655	445.5929	496.9381	621.4871	668.2091	767.2813	818.7313	837.1048	864.8289	867.8328	876.883	896.6611	938.917	954.4324	970.267	1019.9614	1046.5388	1065.3057	1074.8355	1088.2599	1099.5118	1155.3748	1180.4547	1185.9107	1216.4335	1236.2046	1265.6982	1276.8045	1293.4195	1317.7748	1334.698	1344.6834	1391.0415	1408.5876	1480.3182	1484.4423	1509.9475	2992.2329	3038.4729	3058.4995	3063.4966	3099.3607	3111.1366	3128.1507	3136.3633	3147.9409	3156.6997
CC1OC2C3CC(O3)C12	C[C@H]1O[C@H]2[C@@H]3C[C@@H](O3)[C@@H]12	
InChI=1S/C7H10O2/c1-3-6-4-2-5(9-4)7(6)8-3/h3-7H,2H2,1H3	InChI=1S/C7H10O2/c1-3-6-4-2-5(9-4)7(6)8-3/h3-7H,2H2,1H3/t3-,4-,5+,6-,7+/m1/s1
