17
gdb 77264	2.16209	1.35167	1.04801	3.8066	75.71	-0.2552	0.0016	0.2568	1199.0398	0.132763	-421.798663	-421.789175	-421.788231	-421.833359	33.787	
C	-0.1458607471	 1.5640152764	 0.0696286858	-0.407069
C	-0.0483068715	 0.0567051068	 0.0317673132	-0.06432
C	 0.4042706905	-0.6608087129	-1.1984783201	 0.083519
O	 0.734331472	 0.1381087755	-2.3053619847	-0.18736
C	 1.781995759	-0.2711093853	-3.0657730224	 0.181251
O	 2.1071621748	 0.3060405589	-4.0567447002	-0.270672
C	 1.3113127718	-0.6528272266	 0.033817639	-0.265961
C	 2.5343465142	 0.0895071217	 0.0184421248	 0.329426
C	 3.5725137555	 0.6970994833	-0.0055633106	-0.442252
H	 0.6435263054	 2.03045143	-0.520868713	 0.150472
H	-1.1096812615	 1.8928280178	-0.331101241	 0.127774
H	-0.0627071735	 1.9251376277	 1.0990968535	 0.125901
H	-0.8133002089	-0.4646904746	 0.6001943566	 0.1038
H	-0.0673828539	-1.6019581192	-1.4676576194	 0.116876
H	 2.2692060477	-1.1788054606	-2.6680795017	 0.091325
H	 1.3560117334	-1.5937039885	 0.5752272684	 0.121628
H	 4.4866126423	 1.2373522195	-0.0250176081	 0.205665
70.3166	110.12	129.2409	155.6756	161.6175	192.8231	267.6213	344.2315	378.0326	501.2035	574.6449	608.7318	625.4347	662.6517	706.2251	744.0566	793.438	905.4648	963.917	996.4647	1041.5504	1052.6404	1097.9211	1120.8325	1152.1241	1156.065	1182.2664	1254.5089	1360.1344	1366.5823	1414.9276	1422.1048	1435.7355	1490.2399	1498.6019	1872.2429	2235.7771	2987.3849	3047.921	3108.9586	3137.2743	3139.3231	3147.5611	3159.0519	3502.5049
CC1C(OC=O)C1C#C	C[C@H]1[C@@H](OC=O)[C@H]1C#C	
InChI=1S/C7H8O2/c1-3-6-5(2)7(6)9-4-8/h1,4-7H,2H3	InChI=1S/C7H8O2/c1-3-6-5(2)7(6)9-4-8/h1,4-7H,2H3/t5-,6+,7-/m1/s1
