23
gdb 121857	4.18819	0.52571	0.48266	1.8556	92.56	-0.2473	0.0415	0.2888	2359.7068	0.202336	-388.274807	-388.262787	-388.261843	-388.314567	41.061	
C	-0.1096855944	 1.5866360396	-0.0046948297	-0.378671
C	-0.057415726	 0.0566635616	 0.021152986	-0.171448
C	 0.7474562304	-0.4964359223	 1.2017167137	-0.159218
C	 0.8111584713	-2.0256158079	 1.2251949199	-0.186797
C	 1.5603366907	-2.5755181069	 2.4551534669	-0.072565
O	 0.9624410873	-2.1390632829	 3.6782435011	-0.417175
C	 1.6766428206	-4.0355392385	 2.4029337727	 0.034326
C	 1.7213139361	-5.2388083737	 2.3605585927	 0.096711
C	 1.7982299281	-6.6918726853	 2.3151278962	-0.499745
H	 0.8955812858	 2.015603892	-0.0828846562	 0.113184
H	-0.6947250276	 1.9533301892	-0.8540423117	 0.10922
H	-0.5652145156	 1.9820384715	 0.9100316834	 0.114502
H	-1.0791854768	-0.3441967384	 0.0608636671	 0.092477
H	 0.3739401001	-0.3117106273	-0.9193686244	 0.092269
H	 1.7692448687	-0.092243776	 1.1661058351	 0.089227
H	 0.3149346451	-0.1454654907	 2.1455828364	 0.109753
H	-0.2026117609	-2.4489843987	 1.2223784938	 0.09079
H	 1.3054184309	-2.4032602244	 0.3214728962	 0.102404
H	 2.5656512355	-2.1342991901	 2.473532805	 0.110339
H	 0.1688199054	-2.6697173436	 3.8096264477	 0.280717
H	 1.6253348423	-7.1284269413	 3.3049991718	 0.150683
H	 1.0530463407	-7.1126899079	 1.6311500924	 0.147749
H	 2.7855306323	-7.0245658079	 1.9762139738	 0.151266
17.2599	51.5591	62.5223	80.3036	120.6939	154.8531	175.0251	244.6537	268.7309	275.6454	298.3627	346.4063	387.4555	432.0577	548.9135	561.8636	737.825	776.7983	800.0815	896.4482	909.2557	967.0972	1023.6813	1051.6821	1054.2503	1066.1686	1072.2815	1108.5776	1126.8541	1172.9851	1230.4507	1255.0538	1277.5517	1316.0476	1329.4693	1336.8512	1373.8806	1395.7452	1412.765	1413.8043	1420.4415	1476.3433	1477.2883	1478.8711	1486.8516	1499.244	1499.9341	1513.4302	2365.5552	3006.2942	3010.1964	3016.8737	3026.7903	3027.6264	3028.9829	3038.3679	3054.8754	3077.1937	3088.5656	3089.3116	3095.9552	3100.3993	3804.1437
CCCCC(O)C#CC	CCCC[C@@H](O)C#CC	
InChI=1S/C8H14O/c1-3-5-7-8(9)6-4-2/h8-9H,3,5,7H2,1-2H3	InChI=1S/C8H14O/c1-3-5-7-8(9)6-4-2/h8-9H,3,5,7H2,1-2H3/t8-/m0/s1
