19
gdb 53684	6.21264	0.51391	0.4803	1.8015	82.17	-0.25	0.0164	0.2664	2264.2207	0.155482	-423.047186	-423.03591	-423.034965	-423.087418	36.624	
C	 0.0882561397	 1.4461716398	 0.0449673741	-0.496783
C	 0.0257672844	-0.0023304093	-0.088277722	 0.085473
C	-0.0153233284	-1.2000059098	-0.2019614793	 0.031187
C	-0.1018903255	-2.6500594307	-0.3273495749	-0.356796
C	-1.4822265118	-3.1709746793	 0.0764738679	-0.051279
O	-1.4515201521	-4.5990064984	-0.0855597216	-0.238686
C	-2.593731196	-5.2510083464	 0.2251170598	 0.425233
C	-2.4324021266	-6.7372489228	 0.0134627965	-0.4787
O	-3.5902638683	-4.6986848024	 0.6153550241	-0.346065
H	 0.8666941503	 1.7481675979	 0.754292156	 0.148272
H	 0.3099908607	 1.9257305418	-0.9148064259	 0.148271
H	-0.8631211307	 1.8525519552	 0.4055171547	 0.1498
H	 0.1054391321	-2.9591504831	-1.3593173213	 0.135288
H	 0.6570281095	-3.1354507718	 0.2986841274	 0.135289
H	-1.7145307728	-2.9228369048	 1.1157698824	 0.131003
H	-2.2693774069	-2.7455228831	-0.5520625484	 0.131003
H	-3.3627162022	-7.2426960618	 0.2691418569	 0.148625
H	-2.1698974469	-6.941776255	-1.0283653055	 0.149431
H	-1.6168659383	-7.1185425763	 0.634480919	 0.149434
13.8826	43.9766	48.0149	63.1497	63.6229	172.8597	176.6148	230.3577	277.879	324.299	392.0412	417.3773	509.0855	606.3755	648.4987	770.2592	785.204	920.2924	981.0924	1050.6965	1052.7387	1064.2257	1068.2251	1077.1996	1086.1074	1169.1926	1230.0953	1265.4845	1296.1292	1314.2077	1389.719	1413.3863	1415.5209	1469.6211	1476.1823	1478.3837	1479.0131	1479.329	1514.5467	1826.9579	2377.4846	3025.6476	3027.0166	3056.7695	3056.9546	3063.3161	3087.6116	3088.192	3113.4704	3121.4208	3169.0928
CC#CCCOC(C)=O	CC#CCCOC(=O)C	
InChI=1S/C7H10O2/c1-3-4-5-6-9-7(2)8/h5-6H2,1-2H3	InChI=1S/C7H10O2/c1-3-4-5-6-9-7(2)8/h5-6H2,1-2H3
