19
gdb 63593	4.51136	0.70174	0.66669	1.6882	102.6	-0.2259	-0.0103	0.2155	1727.8785	0.156218	-348.702209	-348.692275	-348.691331	-348.736893	37.188	
C	-0.0995564785	 1.5270463428	-0.0980285049	-0.454081
C	-0.0032796834	 0.0167761659	-0.0318726662	 0.3419
C	-1.2382464331	-0.7176366519	-0.5166393857	-0.44901
C	 1.33301612	-0.6266329321	-0.2597475432	-0.317543
C	 0.7407855275	-0.6221865808	 1.1501427671	-0.292301
C	 1.33206111	 0.1634532277	 2.1833735708	 0.405036
C	 1.8253612961	 0.8178156171	 3.0774770049	-0.227986
C	 2.3848414106	 1.5567871272	 4.071725161	 0.297614
C	 2.8815457146	 2.2133556536	 4.9563234908	-0.57508
H	 0.7987867742	 2.007772645	 0.2962366316	 0.131542
H	-0.2364873848	 1.8548337736	-1.1347539802	 0.115992
H	-0.9539410168	 1.8910352837	 0.4834943711	 0.122034
H	-1.4410492716	-0.47964064	-1.5673821553	 0.120173
H	-1.1203471677	-1.8028517657	-0.4381696128	 0.115621
H	-2.1212508522	-0.4312993031	 0.0656067527	 0.122944
H	 1.3766715558	-1.584011517	-0.7681256089	 0.116979
H	 2.1902473379	 0.015536934	-0.4276527289	 0.125544
H	 0.3338270363	-1.5721540326	 1.4873390418	 0.113786
H	 3.3197265448	 2.7899604027	 5.7322449844	 0.186837
70.6762	78.3221	189.6294	194.9299	212.2889	246.5437	303.9052	344.3288	364.7007	381.0682	468.9945	494.4001	531.6664	535.8111	592.2449	599.4611	690.9233	712.7137	833.8787	912.8746	925.5994	947.2067	974.9483	1046.0545	1060.152	1076.322	1104.8843	1149.5016	1225.5237	1278.8976	1332.6252	1400.7933	1414.1814	1426.3948	1480.4478	1482.1474	1491.4107	1502.1696	1511.1411	2178.0535	2348.297	3024.1212	3031.6277	3086.6288	3090.7137	3101.0402	3121.8086	3132.7924	3136.2953	3224.1151	3506.3677
CC1(C)CC1C#CC#C	CC1(C)C[C@H]1C#CC#C	
InChI=1S/C9H10/c1-4-5-6-8-7-9(8,2)3/h1,8H,7H2,2-3H3	InChI=1S/C9H10/c1-4-5-6-8-7-9(8,2)3/h1,8H,7H2,2-3H3/t8-/m1/s1
