19
gdb 114133	4.53742	0.88539	0.8325	2.1225	72.59	-0.2514	0.0674	0.3187	1428.1149	0.157201	-460.102835	-460.093552	-460.092608	-460.137445	33.642	
C	-0.2217080363	 1.2701034328	 0.0562209009	-0.236305
O	 0.213521919	-0.0576586555	-0.1379346444	-0.240327
C	 0.7723036612	-0.627622508	 1.005337762	 0.148052
C	-0.1620614832	-1.1015878078	 2.1889236334	-0.342912
C	 0.4396823803	-2.5024573057	 2.0027276621	 0.392952
C	 0.6506948105	-3.5958560372	 3.0000694436	-0.179403
O	-0.5773527483	-4.1696454805	 3.4194436514	-0.412428
O	 0.0829209509	-2.8994654392	 0.6659528942	-0.285703
C	 1.2382401179	-2.0734987431	 0.8349524097	-0.096011
H	 0.606956184	 1.92930118	 0.3602398086	 0.103838
H	-0.6223044679	 1.6222758296	-0.8969312151	 0.131573
H	-1.0117769525	 1.3361968248	 0.8189750858	 0.11117
H	 1.5902566228	-0.003677785	 1.4006966795	 0.070198
H	 0.0707473243	-0.6246217567	 3.1432705417	 0.107067
H	-1.2341408849	-1.0517828349	 1.9910793181	 0.118019
H	 1.3268018272	-4.347982933	 2.5665528365	 0.099431
H	 1.1225739067	-3.1961993744	 3.9037815833	 0.113696
H	-1.0121773997	-4.5088363973	 2.6289885757	 0.294325
H	 2.1741681979	-2.441622909	 0.4294432932	 0.102766
70.9507	77.3209	126.9301	153.8156	198.3999	278.6773	318.9883	344.4343	402.4712	449.7784	455.9021	617.8889	709.5612	728.4858	821.4216	897.5784	902.501	950.8028	971.5325	1009.2499	1026.2393	1059.1856	1076.159	1134.6289	1164.4341	1179.2189	1185.7855	1196.9977	1236.7774	1244.5565	1272.899	1302.9709	1370.4029	1385.6707	1418.3426	1451.1642	1474.967	1485.8684	1488.1362	1488.9457	1508.6832	2969.9957	2977.7957	2995.8447	3024.1776	3074.3161	3078.5788	3119.9438	3137.2246	3182.0703	3804.6836
COC1CC2(CO)OC12	CO[C@H]1C[C@@]2(CO)O[C@@H]12	
InChI=1S/C6H10O3/c1-8-4-2-6(3-7)5(4)9-6/h4-5,7H,2-3H2,1H3	InChI=1S/C6H10O3/c1-8-4-2-6(3-7)5(4)9-6/h4-5,7H,2-3H2,1H3/t4-,5-,6-/m0/s1
