19
gdb 32871	5.46348	0.77387	0.71909	1.1661	81.58	-0.2163	0.0157	0.232	1633.2385	0.158185	-423.047596	-423.038179	-423.037234	-423.082769	33.237	
C	 0.1889349114	 1.417425869	 0.1123737611	-0.220498
O	 0.0311025396	 0.0191475358	 0.0838576919	-0.230817
C	 0.5527271451	-0.5571942429	-1.101753951	-0.183655
C	 0.4221360231	-2.0344478057	-1.0517045316	 0.382437
C	-0.4175094125	-2.9153790003	-1.6592918156	-0.376758
C	-0.0482655259	-4.2294840469	-1.2092701206	 0.265632
C	-0.6730618505	-5.5351364076	-1.5915101674	-0.501091
C	 0.995318557	-4.028834159	-0.3594616673	-0.109263
O	 1.2982385493	-2.7082531522	-0.2533054619	-0.176937
H	 1.2496635576	 1.7119279948	 0.0608673854	 0.103413
H	-0.3413935695	 1.9086918726	-0.7197843812	 0.100818
H	-0.2308198709	 1.7731888774	 1.0562160001	 0.128683
H	 0.0116812524	-0.1836416239	-1.9859198599	 0.098375
H	 1.6127012029	-0.276123849	-1.2205573427	 0.099569
H	-1.2123139342	-2.6638378007	-2.345579038	 0.106691
H	-0.6095878024	-5.7106733487	-2.6714952337	 0.129109
H	-0.178612647	-6.371420537	-1.0894143319	 0.124448
H	-1.7350835062	-5.566552138	-1.3229542027	 0.130949
H	 1.6066303405	-4.6992728875	 0.223118117	 0.128895
49.9189	84.3092	100.534	131.8592	227.5905	244.4967	258.4968	339.9642	368.2935	403.5748	619.5216	627.0647	687.2374	754.1477	791.838	825.8567	942.7219	979.0977	987.0766	1010.5888	1020.743	1065.4147	1138.9415	1166.6145	1175.1215	1182.8224	1218.9886	1230.7018	1273.9304	1312.1377	1399.1262	1412.7979	1421.4964	1477.4228	1483.2321	1485.1482	1495.3348	1498.9435	1515.7237	1583.1793	1665.4496	2957.0273	2968.5362	2996.3394	3007.0217	3028.9774	3079.5045	3109.7295	3115.912	3246.141	3268.5933
COCC1=CC(C)=CO1	COCc1cc(C)co1	
InChI=1S/C7H10O2/c1-6-3-7(5-8-2)9-4-6/h3-4H,5H2,1-2H3	InChI=1S/C7H10O2/c1-6-3-7(5-8-2)9-4-6/h3-4H,5H2,1-2H3
