16
gdb 50951	3.01651	0.85039	0.70719	2.6871	75.6	-0.2624	-0.0394	0.223	1520.892	0.120962	-400.734522	-400.724706	-400.723761	-400.770575	33.64	
O	-0.5635813256	 0.7560932549	 0.9098593938	-0.233089
C	 0.0725020579	 0.9669775237	-0.0896456955	 0.150236
C	 1.3195457485	 1.8307459713	-0.1267391586	-0.290787
C	 1.2950204917	 2.8891561409	-1.2580859182	-0.1787
C	 2.5520368244	 3.7973780423	-1.1449976984	-0.346442
C	 2.5402181162	 4.9084440453	-2.0930668783	 0.269411
N	 2.5202210406	 5.7943760964	-2.8339404406	-0.295755
C	 1.2145771162	 2.2707405438	-2.579035764	 0.337552
C	 1.1788007179	 1.7523093969	-3.6623225801	-0.455768
H	-0.2175167532	 0.5247245564	-1.06658728	 0.100547
H	 1.4293648006	 2.3113359653	 0.8493688994	 0.12887
H	 2.1812257813	 1.1676911514	-0.28551239	 0.136059
H	 0.4147631303	 3.5284351297	-1.1138699222	 0.141686
H	 2.6121323533	 4.20499621	-0.1301113889	 0.158501
H	 3.4532491329	 3.1975758695	-1.3105232721	 0.163219
H	 1.133358007	 1.3095323422	-4.6270930862	 0.214461
49.0864	67.5341	87.4837	122.601	155.7692	221.9892	255.055	331.8387	393.3514	458.9707	482.8418	536.3075	613.3014	652.6238	665.0653	801.3365	819.6885	923.4989	938.7266	1015.5993	1049.4519	1086.3107	1107.359	1204.223	1228.5654	1274.6	1329.0297	1349.3123	1366.4563	1426.0692	1455.1937	1466.3445	1834.6969	2239.3347	2367.5529	2912.6756	3021.2027	3034.2521	3050.9233	3094.5391	3104.5139	3500.8489
O=CCC(CC#N)C#C	O=CC[C@@H](CC#N)C#C	
InChI=1S/C7H7NO/c1-2-7(3-5-8)4-6-9/h1,6-7H,3-4H2	InChI=1S/C7H7NO/c1-2-7(3-5-8)4-6-9/h1,6-7H,3-4H2/t7-/m1/s1
