19
gdb 35460	3.20649	1.44718	1.35897	0.7487	84.45	-0.2346	0.0187	0.2533	1028.7579	0.161588	-348.7309	-348.723607	-348.722663	-348.762338	30.343	
C	-0.083061372	-1.2374057015	-0.1773107212	-0.465792
C	-0.0425851971	-0.0405634606	-0.0642117609	 0.318273
C	 0.0079675379	 1.4063674445	 0.0628581462	-0.160098
C	-0.5837439015	 1.9764277172	 1.403890978	-0.227106
C	 0.5862057534	 2.8614461798	 1.9510357325	-0.053108
C	 1.1683933785	 3.4167231239	 0.630270585	-0.216104
C	 1.468818433	 2.0135093574	 0.0585877762	-0.06525
C	 2.2126003728	 1.3907724384	 1.2289230931	-0.06628
C	 1.6934279816	 1.89846536	 2.350943139	-0.074473
H	-0.122622388	-2.2936337562	-0.2762057592	 0.188851
H	-0.5368601787	 1.8436484764	-0.7819080565	 0.102254
H	-1.4748929608	 2.5784730039	 1.2045001105	 0.099376
H	-0.8601836291	 1.1817683823	 2.0982137608	 0.113393
H	 0.2780996388	 3.5853806092	 2.7060602174	 0.06089
H	 0.4449078204	 3.9863591492	 0.0365948183	 0.087617
H	 2.0723427691	 4.0112632186	 0.7807455563	 0.097682
H	 1.9540719848	 1.953743139	-0.9153479636	 0.066645
H	 2.9446485066	 0.5992546454	 1.1386408761	 0.099693
H	 1.9145734403	 1.606023443	 3.3699302619	 0.093536
108.6841	152.1767	282.9342	362.0902	447.3505	468.1836	506.99	539.5688	614.1162	620.3537	680.2932	743.2513	761.9023	794.341	828.7214	841.1193	915.7508	929.7812	938.3132	952.6271	967.4717	972.4538	1003.0286	1052.5422	1068.296	1119.1459	1137.0518	1157.7699	1183.0872	1207.2698	1256.734	1283.9807	1291.558	1299.2052	1321.9467	1345.246	1369.4167	1489.0143	1503.5653	1644.6655	2232.6652	3030.3221	3046.1868	3062.8618	3107.5319	3111.7633	3118.6323	3122.3189	3200.7478	3228.3618	3505.6521
C#CC1CC2CC1C=C2	C#C[C@H]1C[C@@H]2C[C@H]1C=C2	
InChI=1S/C9H10/c1-2-8-5-7-3-4-9(8)6-7/h1,3-4,7-9H,5-6H2	InChI=1S/C9H10/c1-2-8-5-7-3-4-9(8)6-7/h1,3-4,7-9H,5-6H2/t7-,8+,9-/m1/s1
