15
gdb 44891	4.32187	1.18945	1.12617	2.3007	71.76	-0.2783	-0.0097	0.2686	1069.2625	0.114864	-416.808666	-416.801774	-416.80083	-416.840082	26.849	
N	-0.0771630652	 1.2117883385	 0.0466903022	-0.56414
C	-0.0716290389	-0.0430488227	 0.0077249937	 0.442328
O	 1.0358770214	-0.8799671645	 0.0055016978	-0.257267
C	 0.4194000587	-2.1882630546	-0.0593787537	 0.091496
C	-0.6738544021	-2.002557268	-1.1324123718	-0.263217
C	-1.2258819055	-1.0128912408	-0.046897244	-0.124916
C	-0.6980296858	-2.0512580608	 1.0301100101	-0.171622
C	-1.536698145	-3.2150838129	 1.238942007	 0.273036
N	-2.1999028845	-4.1460286591	 1.4140957858	-0.322595
H	 0.8747928639	 1.5825558718	 0.0683048523	 0.233487
H	 1.1787571101	-2.9653225273	-0.052002932	 0.118644
H	-0.360392086	-1.5838768601	-2.0894365471	 0.130479
H	-1.3077494926	-2.8788870601	-1.2665546599	 0.149448
H	-2.2320831312	-0.6073871234	-0.0349852891	 0.123429
H	-0.3699029473	-1.6384288661	 1.9867820687	 0.141409
128.8663	151.566	207.0638	398.2819	426.6091	465.963	517.3006	543.0245	631.243	701.6033	806.949	855.6604	866.9622	889.753	906.5582	931.7854	957.8742	982.3125	1017.7736	1053.5264	1071.2928	1098.7015	1115.4232	1189.8733	1221.037	1229.5923	1243.188	1265.7753	1329.9852	1360.0288	1496.1505	1818.8636	2354.8488	3092.8875	3095.961	3163.013	3170.3462	3188.7695	3473.0613
N=C1OC2CC1C2C#N	[NH][C]1O[C@@H]2C[C@H]1[C@H]2C#N	
InChI=1S/C6H6N2O/c7-2-4-3-1-5(4)9-6(3)8/h3-5,8H,1H2	InChI=1S/C6H6N2O/c7-2-4-3-1-5(4)9-6(3)8/h3-5,8H,1H2/t3-,4+,5+/m0/s1
