19
gdb 111639	2.18247	1.50824	1.23388	2.1663	76.12	-0.2269	0.0193	0.2462	1112.4977	0.158849	-423.007545	-422.998804	-422.99786	-423.040967	33.498	
O	-0.1034605192	 1.3148281575	 0.5625062487	-0.428501
C	-0.0107222415	 0.0644860244	-0.1168347765	-0.108652
C	-1.3539430544	-0.6011056193	-0.0158747911	-0.068997
C	-1.5947922409	-2.1010584833	-0.0689656352	-0.134686
C	-0.4457250384	-3.0730622849	 0.1998568618	-0.283081
C	-0.0444108004	-2.7695407014	 1.6299901463	-0.073036
C	-0.8212480667	-1.8331089794	 2.1784015691	-0.145198
C	-1.8495727722	-1.3319664393	 1.2161308659	 0.375173
O	-3.1463693197	-1.0950509756	 1.6748082237	-0.473776
H	 0.7406770385	 1.7664606458	 0.4690588388	 0.284492
H	 0.2467331722	 0.2110127533	-1.1782583247	 0.083385
H	 0.7680176645	-0.5680438374	 0.329790076	 0.090729
H	-2.147108664	-0.0358550937	-0.5011102611	 0.09226
H	-2.4327554664	-2.4330571988	-0.6697068923	 0.094056
H	-0.7715908552	-4.1152624291	 0.0866990781	 0.112077
H	 0.3926109199	-2.9402428594	-0.4967621877	 0.108979
H	 0.799427304	-3.2504966503	 2.1121532966	 0.094295
H	-0.7402318995	-1.4451553211	 3.1872836209	 0.093869
H	-3.2005154307	-0.168961448	 1.9338731526	 0.286612
60.8734	126.7611	214.8133	223.67	260.7058	287.5359	325.718	378.7308	433.1663	508.5806	554.1971	613.9804	720.3944	752.4069	774.5484	848.9243	883.9572	926.3769	942.6477	958.6906	996.2259	1009.7533	1047.7163	1059.8259	1089.5695	1100.2925	1144.9461	1181.1831	1211.9732	1242.3201	1255.9165	1276.3993	1307.5271	1329.2198	1340.1749	1374.4459	1432.0439	1474.2825	1480.6895	1512.1355	1667.625	2970.7754	3017.7559	3021.7593	3042.6417	3133.1812	3185.1435	3186.0422	3210.7776	3803.894	3823.751
OCC1C2CC=CC12O	OC[C@H]1[C@H]2CC=C[C@@]12O	
InChI=1S/C7H10O2/c8-4-6-5-2-1-3-7(5,6)9/h1,3,5-6,8-9H,2,4H2	InChI=1S/C7H10O2/c8-4-6-5-2-1-3-7(5,6)9/h1,3,5-6,8-9H,2,4H2/t5-,6+,7+/m1/s1
