18
gdb 73114	2.70752	1.51762	1.24328	3.9831	72.03	-0.2422	0.0308	0.273	1057.5969	0.14844	-439.12099	-439.113003	-439.112059	-439.153599	30.736	
C	-0.1239817194	 1.5472783872	-0.0133567762	-0.464462
C	-0.0013304674	 0.0338579737	-0.0070252713	 0.241894
C	-1.2200960386	-0.8012213586	 0.465067521	-0.099196
O	-0.3965993331	-1.5574051353	 1.3760036646	-0.291691
C	 0.7468448162	-0.7045226609	 1.1464711052	 0.091708
C	 1.9282525525	-1.4417053413	 0.5386838435	-0.360398
C	 1.6959365354	-1.3679515763	-0.9772575269	 0.400863
O	 2.3149578538	-1.9411733476	-1.8432338668	-0.370654
N	 0.6548364245	-0.4935136809	-1.1834341621	-0.337792
H	 0.8567161662	 2.0152985128	-0.1414246643	 0.130437
H	-0.7668375136	 1.8848314621	-0.8345858684	 0.12308
H	-0.5633764995	 1.9064844142	 0.921790766	 0.127717
H	-1.9872516401	-0.2208190005	 0.9946690196	 0.097492
H	-1.6944212116	-1.4354244819	-0.2916685341	 0.106882
H	 0.9865999138	-0.1050572305	 2.0311248657	 0.079273
H	 2.8899944419	-0.9755458756	 0.7762593602	 0.129122
H	 1.9675742175	-2.4826254189	 0.8669874581	 0.148097
H	 0.3278940615	-0.3205517918	-2.1219259839	 0.247629
85.6674	111.7384	214.9193	253.177	322.6092	378.5072	417.7533	466.5548	495.6554	590.1203	596.1635	661.9539	692.0794	844.0523	863.032	887.3389	904.8788	968.1145	989.8114	1016.0767	1027.3708	1057.5485	1146.2311	1162.2998	1172.6588	1206.4401	1238.0557	1260.281	1293.8058	1307.1454	1353.8795	1363.26	1413.2533	1421.6162	1447.81	1491.1448	1494.1975	1514.4716	1834.6897	3009.3895	3032.3714	3046.3968	3067.1332	3071.0343	3098.4297	3116.9044	3122.3613	3627.1508
CC12COC1CC(=O)N2	C[C@]12CO[C@H]1CC(=O)N2	
InChI=1S/C6H9NO2/c1-6-3-9-4(6)2-5(8)7-6/h4H,2-3H2,1H3,(H,7,8)	InChI=1S/C6H9NO2/c1-6-3-9-4(6)2-5(8)7-6/h4H,2-3H2,1H3,(H,7,8)/t4-,6-/m0/s1
