19
gdb 119309	2.1365	1.17892	0.88155	2.2321	77.19	-0.253	0.037	0.29	1353.1829	0.156968	-422.95832	-422.948527	-422.947583	-422.9935	35.242	
O	-0.1963245914	 1.470931687	 0.1533704226	-0.418449
C	 0.0061570781	 0.067255001	 0.0924266829	-0.086102
C	-1.3633018636	-0.5787378879	-0.0805694415	-0.243692
C	-1.3344192521	-2.1159962051	-0.0838654674	 0.070157
C	-1.1681338929	-2.7450624818	 1.3367306158	-0.106693
O	-2.5650250227	-3.0760992632	 1.4031489617	-0.267648
C	-2.7606500159	-2.7401900338	 0.0190270347	-0.1136
C	-0.4828746123	-2.6590902352	-1.1281394349	 0.281722
C	 0.2130214205	-3.1200457533	-1.99432256	-0.457384
H	 0.6642190754	 1.8961971654	 0.2082774253	 0.287432
H	 0.6556990197	-0.2116267011	-0.7496571823	 0.103464
H	 0.4853972979	-0.3055840268	 1.0129555564	 0.085111
H	-2.0165143126	-0.2454411443	 0.7337975229	 0.119028
H	-1.8052577058	-0.2211029369	-1.0171773818	 0.115641
H	-0.5282013965	-3.6351080845	 1.3587660378	 0.108198
H	-0.8682096541	-2.0554011965	 2.1340124189	 0.108353
H	-3.5938249687	-2.0433807456	-0.1273018731	 0.109438
H	-2.9049011007	-3.627872671	-0.6080833536	 0.107915
H	 0.8277360979	-3.5276872363	-2.7584385745	 0.197107
72.0333	92.7204	110.9142	140.1881	181.789	211.5627	260.1829	330.4583	371.4424	398.5413	525.5151	535.5128	627.3428	634.0782	669.5192	804.2747	845.4103	918.8266	968.5189	973.178	992.6458	1026.6249	1045.8287	1065.7961	1103.4339	1160.7015	1164.6914	1182.595	1228.674	1252.8168	1283.2507	1307.1341	1324.9706	1341.6041	1374.7304	1464.1733	1486.866	1509.1281	1528.2457	1533.6958	2230.3174	2963.3452	3014.0345	3015.4529	3024.9678	3039.9222	3070.0589	3072.8454	3087.6136	3500.2792	3832.494
OCCC1(COC1)C#C	OCCC1(COC1)C#C	
InChI=1S/C7H10O2/c1-2-7(3-4-8)5-9-6-7/h1,8H,3-6H2	InChI=1S/C7H10O2/c1-2-7(3-4-8)5-9-6-7/h1,8H,3-6H2
