16
gdb 125354	2.99722	1.3095	1.03078	4.7115	76.13	-0.2491	-0.0006	0.2485	1152.7522	0.123867	-396.895697	-396.887126	-396.886181	-396.929506	30.811	
C	 0.2451401118	 1.4788384406	 0.1420266361	-0.508972
C	 0.0678728193	 0.0054563761	 0.0013825422	 0.315574
C	-0.0712579383	-0.816147262	-1.0944857567	-0.14478
N	-0.2133031415	-2.1044358625	-0.6790596307	-0.191741
N	-0.1684793352	-2.1363133405	 0.6182194333	-0.147624
N	 0.0005324111	-0.8618765099	 1.0476751425	 0.007226
C	 0.08476955	-0.6034711167	 2.4777138956	-0.307077
C	 1.3960822264	-0.1258901547	 2.9089580747	 0.317282
C	 2.4667218517	 0.2770928258	 3.2737266377	-0.446431
H	 1.1628097449	 1.7238536357	 0.6860657122	 0.155493
H	 0.2966455999	 1.9407989561	-0.8459407687	 0.145339
H	-0.5902926678	 1.9397651113	 0.6822912827	 0.138544
H	-0.0776644993	-0.5516903607	-2.1400071013	 0.12146
H	-0.6902087018	 0.1181066157	 2.7626798594	 0.153741
H	-0.1580122263	-1.5548981556	 2.9592946843	 0.178817
H	 3.4181523953	 0.6199337914	 3.5992650566	 0.213151
54.4184	103.3106	127.2202	232.3477	241.1934	276.8297	323.9118	403.2189	466.9256	631.1856	653.1941	679.7365	681.9333	716.2091	783.3601	842.5636	948.1447	959.8017	987.7156	1014.4112	1067.9632	1123.5369	1155.484	1223.7169	1290.2518	1325.3726	1347.7013	1376.3747	1421.6707	1449.1597	1464.7886	1481.4269	1510.3655	1596.852	2245.9637	3033.7111	3038.46	3090.3238	3100.4716	3132.3972	3265.4608	3502.2145
CC1=CN=NN1CC#C	Cc1cnnn1CC#C	
InChI=1S/C6H7N3/c1-3-4-9-6(2)5-7-8-9/h1,5H,4H2,2H3	InChI=1S/C6H7N3/c1-3-4-9-6(2)5-7-8-9/h1,5H,4H2,2H3
