14
gdb 133284	4.03277	1.13415	0.89018	2.2178	71.26	-0.2344	-0.08	0.1544	1206.6098	0.100596	-474.123416	-474.115724	-474.11478	-474.155901	28.147	
C	 0.0258814275	 1.4475325443	 0.0068406071	-0.349271
N	 0.080262478	-0.002260003	 0.002739111	-0.318747
C	-1.0145180969	-0.656638547	 0.0091984446	 0.481479
N	-2.3096406094	-0.0834025136	 0.020347845	-0.311925
N	-3.4926172506	-0.7135504234	 0.0274695	-0.029719
N	-3.5192803186	-1.9831437118	 0.0243500797	-0.254113
C	-2.3189179593	-2.6612996802	 0.0136880001	 0.412009
F	-2.4804963124	-3.9708982746	 0.0114948054	-0.050736
C	-1.0962559412	-2.0987760057	 0.0060801127	-0.373245
H	 1.0434743311	 1.8445490955	-0.0001311628	 0.136839
H	-0.488777277	 1.859061214	-0.8776372736	 0.112345
H	-0.4748107679	 1.8544861152	 0.9013874601	 0.112375
H	-2.413195103	 0.919948397	 0.0237573843	 0.283538
H	-0.1836141905	-2.6785053166	-0.0021991636	 0.149171
105.8115	143.4567	189.8027	213.2537	300.0364	379.606	419.5736	483.3672	542.0448	603.9783	645.2328	694.2291	756.0286	770.5416	893.5275	935.8525	1009.9054	1035.5639	1106.1904	1123.9496	1158.7431	1228.3154	1299.5612	1362.1204	1401.5907	1444.1809	1495.4676	1509.3731	1560.0706	1674.3473	1741.934	2951.3981	2994.7497	3105.3238	3237.4448	3640.1774
CN=C1NN=NC(F)=C1	C[N]c1[nH]nnc(F)c1	
InChI=1S/C4H5FN4/c1-6-4-2-3(5)7-9-8-4/h2H,1H3,(H,6,7,8)	InChI=1S/C4H10FN4/c1-6-4-2-3(5)7-9-8-4/h3-4,7-9H,2H2,1H3
