18
gdb 125919	4.38188	1.16372	0.95802	2.3593	81.39	-0.1923	0.0349	0.2272	1235.9956	0.149726	-398.121873	-398.113716	-398.112772	-398.154547	31.296	
C	-0.4931165705	 1.5965575435	-0.2685580225	-0.404155
C	 0.1427640405	 0.2536731949	 0.0335368772	 0.068885
C	 0.812131727	-0.5704224225	-1.143919532	-0.392188
C	 2.0713501729	-0.5225190338	-0.2924297727	 0.370775
C	 3.253618671	-0.9794539056	 0.2477860082	-0.459121
C	 3.265471477	-0.3473296782	 1.5357786809	 0.388748
N	 4.3149752567	-0.3733952098	 2.4531427811	-0.580923
N	 2.1702230372	 0.3842744601	 1.7887423224	-0.381198
N	 1.5053852145	 0.2958150916	 0.6100801156	 0.062344
H	 0.1761218918	 2.2162072111	-0.8727036784	 0.12815
H	-1.4309227817	 1.4561984744	-0.816125911	 0.121739
H	-0.7176765371	 2.1348194032	 0.6572679639	 0.138658
H	-0.5257373403	-0.376390664	 0.6310331056	 0.101247
H	 0.3853786203	-1.5643027406	-1.2963661231	 0.126453
H	 0.8536651792	-0.0435368576	-2.100894036	 0.121998
H	 4.0105285053	-1.61990121	-0.1732634078	 0.095956
H	 4.7779299819	-1.2703934244	 2.5074656716	 0.243209
H	 4.0154531143	-0.0669027924	 3.3699372871	 0.249423
69.669	172.9079	210.9001	252.7475	272.8949	316.6412	366.3942	409.7048	524.988	602.3737	650.3761	669.4437	729.154	746.4655	767.2071	809.8648	882.4555	913.4589	978.4881	1030.6346	1062.8545	1087.6603	1106.3933	1111.4602	1176.4713	1186.321	1218.1731	1248.0184	1302.4182	1367.5513	1408.1736	1427.3969	1465.6976	1485.2444	1493.3753	1495.7884	1511.0869	1596.7956	1643.45	3038.1502	3045.844	3064.555	3111.2485	3116.2914	3120.1183	3270.1164	3543.311	3641.578
CC1CC2=CC(N)=NN12	C[C@H]1Cc2cc(N)nn12	
InChI=1S/C6H9N3/c1-4-2-5-3-6(7)8-9(4)5/h3-4H,2H2,1H3,(H2,7,8)	InChI=1S/C6H9N3/c1-4-2-5-3-6(7)8-9(4)5/h3-4H,2H2,1H3,(H2,7,8)/t4-/m0/s1
