18
gdb 22926	2.4073	1.34478	1.11612	1.5181	76.73	-0.2259	0.0173	0.2432	1165.4241	0.14558	-439.012688	-439.003502	-439.002557	-439.046319	34.424	
C	-0.0680364827	 1.522113694	-0.0402548642	-0.495003
C	 0.0538990821	 0.0250349802	-0.0148129237	 0.170735
C	-0.789424289	-0.8733712607	 0.8725718411	 0.067575
O	-1.510018712	-1.9747478549	 0.4045201923	-0.419155
C	 0.6842691191	-0.9745503375	 1.0261913043	-0.148522
C	 1.2755894671	-1.8194033617	-0.1182055016	-0.326976
C	 0.6695846498	-0.8119436641	-1.0832720043	 0.396039
N	 0.7674435429	-0.5616627444	-2.3217513963	-0.274396
O	 1.51987713	-1.5591365385	-2.9779263027	-0.393047
H	 0.882817694	 1.9906297327	-0.31353085	 0.129675
H	-0.8143351296	 1.8412236874	-0.7763293826	 0.131588
H	-0.3724386931	 1.9094873949	 0.9369531815	 0.117724
H	-1.287094698	-0.3170532019	 1.669399072	 0.090018
H	-2.1813141251	-1.6581300694	-0.2088662272	 0.291242
H	 1.1917091425	-0.7396589558	 1.9536193988	 0.098628
H	 2.3676565142	-1.8001342529	-0.1623247834	 0.126043
H	 0.923217921	-2.8497866931	-0.190046719	 0.133657
H	 1.5326604068	-1.2358133844	-3.8847552853	 0.304175
82.0225	161.5096	179.4492	214.0615	234.3839	252.3026	272.1278	317.1886	363.1494	469.0252	515.5444	541.7586	588.4206	635.9342	747.2683	790.3653	858.3733	890.6462	945.3481	971.7504	1002.2448	1011.252	1055.3885	1098.5765	1111.4622	1135.6225	1163.797	1236.1632	1253.2929	1278.428	1324.5612	1340.556	1412.6375	1414.545	1448.867	1480.4292	1481.426	1498.1506	1782.7104	3030.9911	3073.0203	3085.5115	3093.5336	3106.3236	3126.8313	3192.4802	3812.1324	3820.6306
CC12C(O)C1CC2=NO	C[C@]12[C@@H](O)[C@H]1CC2=NO	
InChI=1S/C6H9NO2/c1-6-3(5(6)8)2-4(6)7-9/h3,5,8-9H,2H2,1H3	InChI=1S/C6H9NO2/c1-6-3(5(6)8)2-4(6)7-9/h3,5,8-9H,2H2,1H3/t3-,5+,6+/m1/s1
