21
gdb 41306	2.97827	2.0266	1.71859	0.15	84.7	-0.216	0.0833	0.2993	902.8753	0.186504	-349.87356	-349.867249	-349.866304	-349.903541	28.649	
C	-0.0090246421	 1.5468845328	-0.2625320429	-0.312633
C	 1.5015124453	 1.5916082931	 0.1847043056	-0.312633
C	 1.3098373532	 0.1888697747	 0.8257324638	 0.272071
C	 0.4712712724	 0.094201143	 2.1265748832	-0.282733
C	-0.4404389706	-0.8144146806	 1.2598966305	-0.11101
C	 0.5283653373	-2.0177287337	 1.0556656505	-0.196156
C	 1.6170294939	-1.2477797346	 0.2492872373	-0.11101
C	 0.7827993435	-0.8808332388	-1.0066340953	-0.282732
C	 0.0043269479	 0.01384444	-0.0076948126	 0.272071
H	-0.6688187101	 2.1046605954	 0.4063276001	 0.107973
H	-0.2293769445	 1.8546506023	-1.2880873183	 0.098308
H	 2.1960401731	 1.6056617812	-0.6586516411	 0.107973
H	 1.7891332581	 2.3912993512	 0.8723140983	 0.098308
H	 0.9121948421	-0.3387591262	 3.0302645826	 0.086007
H	 0.0232476266	 1.0584566813	 2.3780075484	 0.094051
H	-1.4725549051	-1.0512306106	 1.5261899449	 0.054755
H	 0.877848222	-2.4162403944	 2.0122870361	 0.091288
H	 0.1047614416	-2.8394845433	 0.4714126556	 0.091289
H	 2.6069711944	-1.7052853655	 0.1948692908	 0.054755
H	 1.3261123697	-0.2763258332	-1.736780728	 0.094051
H	 0.2663439312	-1.691376194	-1.5308641796	 0.086007
285.1647	307.9401	333.7378	445.4369	490.3623	516.5297	537.6186	677.6846	677.8269	772.2624	777.5625	802.5149	849.6292	865.4327	871.664	898.0399	916.8019	925.3638	951.1483	961.8728	983.6129	1010.9262	1014.941	1060.459	1072.4321	1146.644	1147.3528	1175.2567	1180.5185	1213.4954	1216.7932	1219.0655	1232.139	1233.104	1247.5768	1262.4392	1279.8382	1280.3848	1297.1554	1308.5174	1470.5978	1475.8933	1495.1485	1502.4235	1522.0594	3043.5244	3043.5476	3051.2441	3055.9036	3061.2257	3083.8009	3087.9905	3096.1314	3099.2761	3103.7184	3106.7266	3119.3616
C1CC23CC4CC2CC134	C1C[C@]23C[C@@H]4C[C@H]2C[C@]134	
InChI=1S/C9H12/c1-2-9-5-6-3-7(9)4-8(1,6)9/h6-7H,1-5H2	InChI=1S/C9H12/c1-2-9-5-6-3-7(9)4-8(1,6)9/h6-7H,1-5H2/t6-,7-,8-,9-/m0/s1
