23
gdb 103483	3.1919	1.09929	1.08123	1.2325	85.28	-0.2537	0.0747	0.3284	1276.6974	0.206566	-388.289615	-388.280072	-388.279128	-388.323851	36.11	
C	-0.0073569619	 1.6168033715	 0.136135493	-0.481247
C	 0.0229719512	 0.1002160834	 0.0758014981	 0.345903
C	-1.3041521769	-0.4806027445	-0.3725911853	-0.1379
O	-1.5594721136	-0.0575122649	-1.7082629339	-0.42411
C	 1.2290276948	-0.7016553188	-0.3722827229	-0.061457
C	 2.6130822273	-0.0660985929	-0.4107452521	-0.234494
C	 2.8970452223	 0.4777290038	 1.0171807136	-0.218039
C	 1.8500634517	-0.1759039132	 1.9615271649	-0.22911
C	 0.7672552306	-0.7712286716	 1.0699297812	-0.102515
H	 0.9700884221	 2.065181815	 0.3119973735	 0.115063
H	-0.3924550361	 2.0102595647	-0.8088902562	 0.135318
H	-0.6772583205	 1.9579672261	 0.9352579619	 0.106756
H	-1.2696389299	-1.5796319959	-0.3118355561	 0.078196
H	-2.1034663985	-0.137243526	 0.3049319265	 0.080084
H	-2.4604670907	-0.3064513164	-1.933553928	 0.284734
H	 1.0414303017	-1.5197203649	-1.0603724554	 0.078128
H	 3.3418856354	-0.8394351533	-0.6778130226	 0.09771
H	 2.7011766325	 0.7194635818	-1.1693993598	 0.100507
H	 3.9180607018	 0.2477210717	 1.3351439435	 0.094889
H	 2.8132797721	 1.5669201026	 1.0428965503	 0.107107
H	 2.3074113026	-0.9874671688	 2.538252905	 0.098127
H	 1.4589485971	 0.5421614812	 2.6910437103	 0.096535
H	 0.2463922849	-1.6463439406	 1.4475919905	 0.069815
91.5516	102.2443	147.3776	153.6415	202.5544	236.6991	257.4955	338.4413	358.5947	430.0347	524.413	663.6123	687.5995	694.6143	789.2945	824.3031	862.293	890.9873	900.5988	961.7368	974.8357	987.5546	988.9438	1048.2899	1070.4996	1073.7914	1089.6342	1120.4062	1135.0231	1180.4938	1199.5074	1222.2058	1246.2268	1253.5007	1258.1084	1302.3842	1324.036	1331.6174	1346.092	1357.7204	1409.4527	1441.4764	1457.4951	1484.4776	1488.7163	1496.2413	1508.9203	1516.7071	1520.615	2958.4173	2992.0583	3030.8169	3033.9074	3034.8345	3059.5795	3062.6796	3066.6992	3098.0604	3100.2197	3143.0705	3149.0549	3159.3709	3830.0163
CC1(CO)C2CCCC12	C[C@@]1(CO)[C@H]2CCC[C@@H]12	
InChI=1S/C8H14O/c1-8(5-9)6-3-2-4-7(6)8/h6-7,9H,2-5H2,1H3	InChI=1S/C8H14O/c1-8(5-9)6-3-2-4-7(6)8/h6-7,9H,2-5H2,1H3/t6-,7+,8+
