17
gdb 67153	2.59214	1.75824	1.63619	4.8346	71.81	-0.2301	-0.0138	0.2163	925.7854	0.137045	-417.956142	-417.948868	-417.947924	-417.987549	28.816	
C	 0.0199122882	 1.6045110924	 0.0177874564	-0.523854
C	-0.029745998	 0.1100648676	-0.0494996321	 0.394095
C	 0.564107111	-0.8738590414	-1.106906358	-0.092431
C	 1.4777440471	-1.4146912802	 0.0129324901	-0.177846
N	 0.6260896852	-0.7153048652	 1.0595307617	-0.227068
C	-0.6113126308	-1.4526264249	 1.2480283656	 0.451402
O	-0.8964498149	-2.2724188286	 2.0639499838	-0.312239
C	-1.270872123	-0.8322825671	 0.0049060101	-0.243884
N	-0.7162523579	-1.6538854291	-1.1417583884	-0.320065
H	 1.0547737226	 1.9620656325	 0.010797794	 0.133538
H	-0.5031191029	 2.0530918402	-0.8333172375	 0.124915
H	-0.4522155189	 1.9616492757	 0.9390248201	 0.137588
H	 0.9879418396	-0.6231254139	-2.0803653606	 0.079674
H	 1.5434673159	-2.4980435554	 0.1344359458	 0.136102
H	 2.4783885037	-0.9740679867	 0.0034305013	 0.119171
H	-2.3313480885	-0.5831722936	-0.0402065706	 0.090121
H	-1.2289696784	-1.4002529521	-1.9812259417	 0.230781
137.1802	214.1194	222.5337	269.7228	293.5292	408.5669	477.1624	588.6249	639.6531	641.717	753.5928	797.2854	812.2368	840.3458	862.3574	868.6007	921.3939	973.3659	985.8841	1013.4008	1043.3897	1086.7023	1135.6549	1154.1316	1158.6117	1166.9078	1186.4273	1220.1143	1294.8991	1317.8842	1353.3553	1379.3717	1414.3438	1482.8883	1485.4212	1491.3522	1911.0117	3031.8948	3059.0887	3101.4757	3103.2193	3104.4326	3112.1427	3126.6013	3513.3676
CC12C3CN1C(=O)C2N3	C[C@@]12[C@H]3CN1C(=O)[C@@H]2N3	
InChI=1S/C6H8N2O/c1-6-3-2-8(6)5(9)4(6)7-3/h3-4,7H,2H2,1H3	InChI=1S/C6H8N2O/c1-6-3-2-8(6)5(9)4(6)7-3/h3-4,7H,2H2,1H3/t3-,4+,6+/m1/s1
