18
gdb 10565	2.84527	1.4349	1.08394	2.547	68.94	-0.2532	-0.0204	0.2328	1113.6865	0.152266	-384.936392	-384.927601	-384.926657	-384.970026	31.663	
O	-0.0379607586	 1.4963739953	 0.2664687231	-0.41741
C	-0.0342314469	 0.0791446392	 0.3423708589	-0.065467
C	-1.3256904719	-0.5305493131	-0.2186657858	-0.303263
C	-1.382263804	-2.0415342425	-0.101366911	 0.260965
C	-1.6646104319	-2.6925902675	 1.2513421017	-0.300455
C	-2.7121380609	-2.7368862075	 0.1943871176	-0.313523
C	-0.4873863237	-2.8127104404	-0.9985967994	 0.118877
O	 0.2528490447	-2.329665851	-1.8213735136	-0.2752
H	 0.0270871545	 1.7378625667	-0.662904255	 0.283718
H	 0.8344767694	-0.3509969709	-0.1725879542	 0.113914
H	 0.0589476286	-0.1611924415	 1.4072427482	 0.105063
H	-2.1766607065	-0.0815540287	 0.3050523705	 0.101677
H	-1.415527875	-0.257551396	-1.2774955133	 0.106207
H	-1.1365475336	-3.6084168667	 1.4959507168	 0.12597
H	-1.797048831	-2.0150745574	 2.0872483065	 0.13369
H	-3.5760995008	-2.0885963868	 0.2846035941	 0.132255
H	-2.9099576077	-3.6833568162	-0.2978399997	 0.126073
H	-0.5531394146	-3.9191198951	-0.8663625052	 0.066911
83.3533	96.9704	141.159	161.3061	250.0292	297.2063	319.8458	331.1676	412.9212	460.659	549.3851	761.6366	788.1978	816.3049	850.4081	920.2282	941.441	982.5303	1040.3769	1048.9792	1055.7196	1074.0715	1089.9567	1091.0112	1170.4512	1197.2094	1276.9475	1320.	1328.8689	1360.7421	1406.7276	1420.6051	1440.5755	1466.1749	1474.8605	1497.9032	1513.2863	1810.3352	2847.3485	3021.1507	3031.9681	3064.515	3087.8259	3134.4625	3137.0546	3215.4037	3229.653	3817.9796
OCCC1(CC1)C=O	OCCC1(CC1)C=O	
InChI=1S/C6H10O2/c7-4-3-6(5-8)1-2-6/h5,7H,1-4H2	InChI=1S/C6H10O2/c7-4-3-6(5-8)1-2-6/h5,7H,1-4H2
