14
gdb 13752	3.51052	1.39088	1.23524	3.9434	59.82	-0.2588	-0.0595	0.1993	1003.1093	0.103423	-419.673865	-419.665569	-419.664625	-419.707641	28.206	
C	 0.1108547703	 1.3628945833	-0.7896294247	-0.492214
C	 0.0240677091	 0.0937878715	 0.0296550498	 0.378174
O	 0.9757108589	-0.4116202117	 0.574320477	-0.295141
C	-1.3623014557	-0.5147588539	 0.1261334408	-0.037352
O	-1.4518529945	-1.8889367164	 0.446176971	-0.214038
C	-1.9321634744	-0.9803048723	 1.4277497286	-0.051443
C	-1.1574792203	-0.9059631342	 2.7119758033	 0.130306
O	-1.6601760622	-0.5015500883	 3.7300714135	-0.243365
H	 1.1181300372	 1.7747220703	-0.7288166944	 0.154884
H	-0.1382495701	 1.1515863389	-1.8364154904	 0.151996
H	-0.617849394	 2.1003721985	-0.4330780425	 0.148957
H	-2.0842591342	-0.1669080573	-0.6141374471	 0.112532
H	-3.0140960107	-0.9244877307	 1.5469377158	 0.125056
H	-0.1128664996	-1.2589759976	 2.6440888392	 0.131647
46.7012	80.296	133.5478	200.6735	221.6659	314.7995	344.694	382.0727	495.7108	606.385	616.7433	785.9984	879.0934	899.5229	960.6138	985.6408	1037.3032	1063.221	1112.2489	1150.4668	1186.2907	1259.5734	1333.9267	1380.5866	1396.5981	1446.5171	1461.1507	1471.4089	1817.2308	1820.4749	2989.2232	3033.2272	3092.0084	3103.3566	3128.1694	3160.1712
CC(=O)C1OC1C=O	CC(=O)[C@H]1O[C@H]1C=O	
InChI=1S/C5H6O3/c1-3(7)5-4(2-6)8-5/h2,4-5H,1H3	InChI=1S/C5H6O3/c1-3(7)5-4(2-6)8-5/h2,4-5H,1H3/t4-,5+/m0/s1
