21
gdb 60922	2.08948	1.44889	1.01017	3.0326	79.11	-0.2417	-0.0403	0.2014	1254.7802	0.179989	-424.224918	-424.214795	-424.213851	-424.260106	36.927	
C	-0.8556995562	 0.9728412995	-0.1780760379	-0.421596
C	 0.0399199452	-0.2391790393	 0.1066705205	-0.088642
C	-0.7511864809	-1.373009017	 0.7487828004	 0.158619
O	-0.2909271753	-2.4535855058	 1.0370530469	-0.259693
C	 0.7688835197	-0.7285528441	-1.1396652668	-0.066451
C	 2.175548974	-0.2582182167	-1.4964169964	-0.058414
C	 2.9594547781	 0.7195784516	-0.6482352275	-0.411608
C	 1.9448152553	-1.6734381555	-1.0279999641	 0.080676
O	 2.4124190668	-2.0140299696	 0.2393041253	-0.431806
H	-0.2638050775	 1.8042788925	-0.5681327589	 0.133849
H	-1.6212032169	 0.7311661671	-0.9242450897	 0.122272
H	-1.3667301018	 1.3167970522	 0.727405144	 0.118297
H	 0.7874365244	 0.0358705154	 0.8609738338	 0.122105
H	-1.8208688199	-1.1553051745	 0.966630911	 0.089833
H	 0.102018154	-0.896836802	-1.9829930877	 0.080688
H	 2.3448418606	-0.150581818	-2.5647703982	 0.084718
H	 2.9648378329	 0.4217472532	 0.4017748021	 0.139404
H	 4.0034944499	 0.7465657212	-0.9773275356	 0.120699
H	 2.5625179015	 1.737969196	-0.7272349495	 0.10893
H	 2.0159567678	-2.4700736906	-1.7692554703	 0.080938
H	 1.6687858584	-2.4416557358	 0.6931598089	 0.297182
66.6957	83.7849	128.4368	186.2128	202.9169	209.9236	238.2429	253.7503	298.3424	375.8519	468.6693	553.3348	559.6905	622.7448	649.5924	761.5445	774.2961	851.8834	907.559	937.4216	966.2988	989.434	1020.2534	1074.5581	1105.6598	1112.1991	1142.5199	1152.4775	1181.6108	1196.0208	1260.6138	1265.481	1305.9442	1365.1073	1371.6905	1395.8416	1408.4936	1417.3792	1429.9602	1456.6452	1493.9321	1496.0873	1499.7292	1509.5127	1803.1434	2883.9408	3032.7626	3033.5637	3041.5958	3087.4195	3089.2116	3096.8521	3118.5524	3122.4591	3128.0657	3143.3654	3676.8219
CC(C=O)C1C(C)C1O	C[C@@H](C=O)[C@H]1[C@@H](C)[C@H]1O	
InChI=1S/C7H12O2/c1-4(3-8)6-5(2)7(6)9/h3-7,9H,1-2H3	InChI=1S/C7H12O2/c1-4(3-8)6-5(2)7(6)9/h3-7,9H,1-2H3/t4-,5+,6-,7+/m0/s1
