15
gdb 12442	3.67914	2.02936	1.40077	4.2645	62.9	-0.2521	0.0029	0.255	854.2981	0.120902	-399.833392	-399.826336	-399.825391	-399.865546	25.826	
O	 0.1137852371	-0.0025652834	-0.4593940341	-0.363647
C	 0.0707642975	 1.1551595456	-0.131425795	 0.413458
N	-1.0927237247	 1.8379375141	 0.1243564876	-0.339765
C	-1.2741912751	 3.2757967011	-0.0658063069	-0.216283
C	-0.4991146442	 4.1480667118	 0.8854863722	-0.043053
C	 0.6550841212	 3.8355260039	 1.4628391332	-0.049326
C	 1.4409571915	 2.5746262147	 1.2443154867	-0.136057
O	 1.2066946491	 1.9053043581	 0.0005944631	-0.235062
H	-1.9027340646	 1.267024026	-0.066450084	 0.256507
H	-1.0513895956	 3.5708707195	-1.1038956769	 0.13165
H	-2.341321371	 3.469599909	 0.0805305526	 0.121595
H	-0.945946093	 5.1182101196	 1.0856133391	 0.100053
H	 1.1119055577	 4.5376280544	 2.1566105403	 0.098612
H	 2.5084281135	 2.8161434042	 1.2249249502	 0.132421
H	 1.2917248906	 1.8681286914	 2.0738693216	 0.128896
32.4743	174.9465	204.359	311.9086	344.636	447.9944	528.62	601.2009	652.3636	734.3119	778.4528	819.9795	849.3607	903.1042	931.0245	993.9063	1021.2559	1039.7386	1110.179	1135.5648	1233.459	1280.2093	1290.0348	1300.4682	1394.9938	1415.2741	1423.4755	1472.7783	1484.6472	1497.948	1750.416	1843.8649	2975.5428	3002.8904	3072.1655	3075.0551	3149.4105	3173.2222	3618.3916
O=C1NCC=CCO1	O=C1NCC=CCO1	
InChI=1S/C5H7NO2/c7-5-6-3-1-2-4-8-5/h1-2H,3-4H2,(H,6,7)	InChI=1S/C5H7NO2/c7-5-6-3-1-2-4-8-5/h1-2H,3-4H2,(H,6,7)
