19
gdb 38197	2.68746	1.92105	1.39371	0.6806	90.25	-0.2102	-0.032	0.1782	974.7074	0.162039	-348.721848	-348.714906	-348.713962	-348.752603	29.374	
C	 0.0876874397	 2.0187156361	-0.1004192984	-0.285921
C	 1.4296361556	 1.2976046652	 0.2264889996	-0.055859
C	 0.6247804503	 0.458993807	 1.3048141045	-0.284129
C	-0.5202329318	 0.7105909629	 0.3295835349	 0.239475
C	-1.182590037	-0.1881082003	-0.3995634984	-0.209594
C	-1.2792598102	-0.0338592904	-1.8541906038	-0.120327
C	-0.146959706	 0.145018114	-2.5684087974	-0.08466
C	 1.903128148	 0.5287000278	-0.9869103941	-0.076009
C	 1.2553873601	 0.1408934087	-2.1072937786	-0.056083
H	-0.1047855228	 2.8049892394	 0.638171956	 0.099966
H	-0.0732173066	 2.396582325	-1.1078638307	 0.114427
H	 2.2429918752	 1.9089896486	 0.6304849886	 0.069819
H	 0.9167719339	-0.5763820592	 1.4826892576	 0.106361
H	 0.5687311084	 1.0130102417	 2.2479792094	 0.100283
H	-1.3928474181	-1.1722762595	 0.0207424643	 0.090392
H	-2.2192859329	-0.1769122178	-2.3830469678	 0.09148
H	-0.2424765895	 0.173910714	-3.6535529491	 0.086275
H	 2.971709962	 0.3187899909	-0.9798076477	 0.08677
H	 1.9107165716	-0.2892236741	-2.8659803188	 0.087334
199.3698	241.5844	280.0501	333.8539	390.6826	432.0928	478.436	605.8939	635.4467	699.3832	742.2244	764.6779	806.6838	826.1259	847.6522	855.7946	903.951	922.5502	948.5422	997.2201	1003.5423	1012.1751	1060.7355	1067.6142	1075.4649	1106.0035	1129.6711	1157.1452	1223.5319	1230.942	1247.9653	1301.3771	1328.0358	1363.6701	1419.368	1446.945	1472.9801	1498.8864	1629.2737	1665.2891	1729.9235	3039.8831	3041.5272	3053.5228	3102.1602	3111.7351	3123.8004	3130.5738	3138.3082	3149.8818	3152.8166
C1C2CC11C=CC3C2C13	C1[C@H]2C[C]1[CH]C=CC=C2	
InChI=1S/C9H10/c1-2-9-3-5(4-9)7-6(1)8(7)9/h1-2,5-8H,3-4H2	InChI=1S/C9H10/c1-2-4-8-6-9(7-8)5-3-1/h1-5,8H,6-7H2/b3-1-,4-2-,9-5?/t8-
