19
gdb 42396	2.98865	1.10941	0.93992	2.4852	77.	-0.2404	0.0094	0.2498	1301.1871	0.159798	-419.17596	-419.167107	-419.166163	-419.210457	32.114	
O	-0.338892811	-0.1531307072	 0.6827379176	-0.354064
C	-0.0888110084	 1.0329283468	 0.6863745269	 0.377978
C	 1.3043156646	 1.5719397833	 0.9919498161	-0.307316
C	 2.2885148585	 1.0384986591	-0.0294114731	 0.023403
N	 2.2667342764	 1.7055294139	-1.3444584171	-0.316675
C	 3.4585550365	 1.8260444255	-0.4819119379	-0.24851
N	-1.054473147	 2.0086257007	 0.4578244432	-0.081193
C	-1.0179284583	 2.9403993525	-0.6602863108	-0.240604
C	-2.0639881627	 1.8667052905	-0.5641926497	-0.21916
H	 1.3113605602	 2.664249348	 0.9908080942	 0.112792
H	 1.5897180125	 1.2251492427	 1.9914994794	 0.1282
H	 2.3847907267	-0.0441459136	-0.024957468	 0.108339
H	 2.4408905823	 1.0289264305	-2.0823800369	 0.236295
H	 3.6284733705	 2.8208427079	-0.0790119894	 0.120391
H	 4.3628275672	 1.2938199931	-0.7644983628	 0.116541
H	-1.2805513435	 3.9684586897	-0.4247057728	 0.122177
H	-0.2152603407	 2.8153534528	-1.3825672645	 0.159804
H	-1.9776955195	 1.0031483088	-1.2178840377	 0.136603
H	-3.0770943644	 2.1292500649	-0.2736469865	 0.124998
60.733	75.7424	115.9972	157.7882	222.2953	246.2835	343.6646	408.3974	428.2414	609.1229	648.4384	772.9275	804.2879	820.7161	872.8468	904.0329	941.2393	954.0479	973.0798	992.6652	1019.5841	1055.0686	1101.1927	1124.4144	1130.7946	1137.8508	1150.8584	1177.386	1179.125	1203.9797	1256.6387	1273.39	1285.5249	1313.6078	1398.3164	1434.6053	1465.4018	1500.472	1515.0475	1526.909	1785.1602	3051.2592	3106.9942	3109.7236	3111.7257	3116.6091	3148.7061	3194.7846	3196.3672	3209.4347	3509.6988
O=C(CC1NC1)N1CC1	O=C(C[C@H]1NC1)N1CC1	
InChI=1S/C6H10N2O/c9-6(8-1-2-8)3-5-4-7-5/h5,7H,1-4H2	InChI=1S/C6H10N2O/c9-6(8-1-2-8)3-5-4-7-5/h5,7H,1-4H2/t5-/m1/s1
