15
gdb 124381	5.01567	1.03632	0.86345	1.6548	68.9	-0.2393	0.0007	0.2401	1276.237	0.11301	-453.997787	-453.989548	-453.988603	-454.032215	29.088	
C	-0.026559237	 1.417251147	 0.2614764733	-0.482126
C	-0.5934073794	 0.1267063268	-0.2744804952	 0.420077
O	-1.2591447437	 0.00798149	-1.2669262537	-0.326161
O	-0.2311797144	-0.8972017751	 0.5484068501	-0.247989
C	-0.6082593134	-2.1922834257	 0.3056025631	 0.419836
N	-0.1824019884	-3.0803100097	 1.1925549576	-0.30071
N	-0.6787147006	-4.2458085772	 0.7324748324	-0.176235
C	-1.3955352284	-4.109405819	-0.4060123259	-0.022393
C	-1.3790109755	-2.7686700557	-0.7300799174	-0.309059
H	 1.0631271831	 1.3495811729	 0.3243763122	 0.156165
H	-0.3137567531	 2.2373464316	-0.3950699262	 0.149127
H	-0.3991242282	 1.5975801592	 1.2737200448	 0.156184
H	-0.4861763601	-5.0866712225	 1.2481176943	 0.280162
H	-1.8562201286	-4.9537471079	-0.8940912898	 0.138534
H	-1.8383795722	-2.2774512148	-1.5654309395	 0.144588
31.5216	71.9849	97.5521	182.5746	348.2905	352.7751	382.7029	480.6033	593.7752	599.068	662.4486	717.841	745.6721	772.808	853.7253	926.7786	944.9344	997.1053	1038.2139	1061.6426	1077.4171	1107.4646	1233.7272	1255.2999	1300.1889	1394.4587	1404.8538	1468.3368	1474.5686	1478.9227	1495.2012	1577.443	1837.989	3058.6358	3123.7999	3171.8334	3263.1443	3333.5481	3686.6587
CC(=O)OC1=NNC=C1	CC(=O)Oc1n[nH]cc1	
InChI=1S/C5H6N2O2/c1-4(8)9-5-2-3-6-7-5/h2-3H,1H3,(H,6,7)	InChI=1S/C5H6N2O2/c1-4(8)9-5-2-3-6-7-5/h2-3H,1H3,(H,6,7)
