18
gdb 38466	2.9344	2.2695	1.82042	0.8818	74.97	-0.2164	0.0298	0.2462	818.4931	0.149904	-401.761253	-401.755397	-401.754453	-401.790923	26.525	
C	-0.0480792555	 1.5824079132	-0.0519421385	-0.223559
C	 1.5694663342	 1.621351063	-0.0536871018	 0.013873
O	 2.4542912949	 1.5179477899	 1.1434749734	-0.379083
C	 1.6716182263	 0.2996934007	 1.4503568605	 0.37052
C	 1.3212549787	-1.2260152324	 1.7728304052	-0.322731
C	-0.1261184803	-0.5433768259	 1.4788791978	-0.003598
C	 0.4233015834	 0.6220303105	 2.2952544741	-0.231623
N	-0.1102019698	 0.03221571	 0.0393509396	-0.172624
C	 1.3538096822	 0.1467927501	-0.0488205225	 0.0136
H	-0.6801891302	 2.1691033489	 0.6144199402	 0.119907
H	-0.3189793386	 1.815698167	-1.085153494	 0.125081
H	 2.035194022	 2.2502384726	-0.809665346	 0.096776
H	 1.7129065386	-1.9849063317	 1.095175416	 0.114134
H	 1.3604996	-1.561985235	 2.8098956091	 0.114877
H	-1.033194399	-1.0887404847	 1.734666829	 0.086156
H	 0.6062833516	 0.3606347691	 3.3396772756	 0.09774
H	-0.0456235875	 1.5990266828	 2.2545904548	 0.101115
H	 1.9475951191	-0.5813473581	-0.6018339726	 0.07944
293.2317	343.7404	456.026	478.1865	553.5665	564.8162	635.3523	703.8236	735.9922	741.8878	764.8713	784.0753	837.9826	878.5596	880.6659	909.0238	950.2312	964.4471	986.8125	990.4741	1017.2459	1022.66	1049.949	1078.5638	1094.7672	1125.4704	1151.7884	1177.6005	1200.9489	1209.4751	1214.8527	1228.1897	1242.9782	1269.3645	1298.4004	1355.7696	1475.2005	1498.2675	1563.4089	3068.1248	3078.3454	3086.2701	3099.7833	3129.1914	3133.5672	3140.7488	3155.3413	3180.3312
C1C2OC34CC(C3)N1C24	C1[C@H]2O[C@@]34C[C@@H](C3)N1[C@@H]24	
InChI=1S/C7H9NO/c1-4-2-7(1)6-5(9-7)3-8(4)6/h4-6H,1-3H2	InChI=1S/C7H9NO/c1-4-2-7(1)6-5(9-7)3-8(4)6/h4-6H,1-3H2/t4-,5-,6+,7-/m1/s1
