21
gdb 67370	2.1738	1.88252	1.87198	0.2384	86.05	-0.2264	0.0224	0.2487	961.4369	0.184853	-349.948189	-349.940814	-349.93987	-349.97937	30.914	
C	-0.0156906022	 1.5178630536	 0.0205026105	-0.521482
C	 0.0063888368	 0.0104346597	-0.0011192997	 0.385013
C	 0.5963416592	-0.8757645751	-1.1543593391	-0.074323
C	 1.5617976302	-1.5409792979	-0.1383777923	-0.23404
C	 0.8558443063	-0.7844300255	 1.0492613501	-0.117277
C	-0.152410769	-1.5974837604	 1.8159744802	-0.080951
C	-1.3442455345	-1.6064199147	 1.2129895665	-0.080956
C	-1.33358687	-0.8006547567	-0.0582826418	-0.1173
C	-0.7862455613	-1.5582336409	-1.3262428155	-0.234027
H	 0.9976395106	 1.9333581726	-0.0283673376	 0.112832
H	-0.58156533	 1.9217130076	-0.8271738192	 0.11283
H	-0.4836917497	 1.889749823	 0.9402962084	 0.119147
H	 1.0490263677	-0.4567578001	-2.0552786074	 0.057836
H	 1.5508077452	-2.6333594715	-0.0859561878	 0.091825
H	 2.5945105837	-1.2099456003	-0.2808585605	 0.095194
H	 1.539304248	-0.2079200405	 1.6794883571	 0.061336
H	 0.0964247783	-2.147674703	 2.7175499579	 0.087996
H	-2.2113996129	-2.1649350515	 1.5499947027	 0.087997
H	-2.2529737978	-0.236022841	-0.2387983848	 0.061339
H	-1.287145176	-1.238400817	-2.2444951679	 0.095193
H	-0.8091660424	-2.6507079701	-1.2799684397	 0.091818
190.9352	191.2918	225.2991	287.7126	342.4603	364.7342	508.2692	567.9335	638.9253	649.3637	763.6355	766.1857	794.6707	807.9943	851.4602	880.5715	894.7812	925.1765	942.5453	974.1317	984.0496	1014.7201	1043.2204	1075.3687	1102.0781	1105.6586	1127.8414	1163.757	1169.2321	1175.0207	1196.9757	1207.5978	1247.1318	1273.2207	1288.3117	1306.1293	1321.548	1359.4002	1368.6986	1405.4371	1472.9307	1484.6388	1489.2312	1490.326	1663.9152	3014.6405	3044.7688	3044.8347	3057.4654	3060.4201	3079.4638	3079.7558	3082.1488	3099.2559	3103.2733	3172.5461	3198.1149
CC12C3CC1C=CC2C3	C[C@@]12[C@H]3C[C@@H]1C=C[C@@H]2C3	
InChI=1S/C9H12/c1-9-6-2-3-7(9)5-8(9)4-6/h2-3,6-8H,4-5H2,1H3	InChI=1S/C9H12/c1-9-6-2-3-7(9)5-8(9)4-6/h2-3,6-8H,4-5H2,1H3/t6-,7+,8-,9+
