17
gdb 128604	2.76121	1.32188	0.90417	2.5907	72.41	-0.1949	0.0353	0.2303	1269.4305	0.13579	-455.135558	-455.126361	-455.125417	-455.169885	32.307	
C	 0.0462892971	 1.3823615208	 0.0066373653	-0.247092
O	 0.0436285934	-0.0305458142	 0.0028128078	-0.257058
C	-1.185230318	-0.6002047953	 0.0106655509	 0.17063
C	-2.4484939805	-0.0445503978	 0.021327723	-0.149167
N	-3.3192681115	-1.0919762197	 0.0253358814	-0.226279
N	-2.7026221054	-2.296406578	 0.0180305213	-0.320642
C	-1.411501082	-2.0036557958	 0.0091070903	 0.368505
O	-0.4300629047	-2.9212327999	-0.0002953014	-0.264907
C	-0.8612083761	-4.2774779856	-0.0003663356	-0.232795
H	 1.0913714844	 1.6959782716	-0.0002294869	 0.135951
H	-0.4600683299	 1.7851759888	-0.8821545216	 0.116528
H	-0.4468934783	 1.7803018487	 0.9049773039	 0.116533
H	-2.7839113528	 0.9786389229	 0.0262066096	 0.133263
H	-4.3217574426	-1.0595557378	 0.0328904555	 0.271818
H	-1.4556351229	-4.501634925	 0.8920654334	 0.129432
H	-1.4691681438	-4.4972404464	-0.8847314182	 0.129445
H	 0.0476000134	-4.8809538874	-0.0087666487	 0.125835
71.9528	107.4392	162.9197	175.0627	193.695	228.8622	266.515	299.1617	359.5836	421.6664	590.6028	633.2966	645.1513	713.5838	746.311	775.6303	932.5547	1045.268	1072.4255	1093.2405	1181.5029	1182.0619	1199.0887	1218.2659	1219.4346	1268.6632	1329.4017	1428.0438	1457.7196	1476.2935	1479.1225	1485.857	1491.428	1503.344	1507.9855	1589.3834	1645.7646	2989.268	3027.5482	3041.9107	3091.0963	3134.1111	3141.4745	3274.9573	3706.3502
COC1=CNN=C1OC	COc1c[nH]nc1OC	
InChI=1S/C5H8N2O2/c1-8-4-3-6-7-5(4)9-2/h3H,1-2H3,(H,6,7)	InChI=1S/C5H8N2O2/c1-8-4-3-6-7-5(4)9-2/h3H,1-2H3,(H,6,7)
