19
gdb 92685	2.45927	1.46341	1.10576	3.1328	78.8	-0.2423	-0.0525	0.1897	1155.7258	0.159077	-423.071194	-423.062339	-423.061395	-423.104672	33.484	
C	 0.0471864055	 1.5133613009	 0.0746734983	-0.477412
C	 0.0313645044	 0.0112351279	 0.0105602208	 0.209522
C	 0.0148729303	-0.6848292699	-1.1397633013	-0.15242
C	 0.015924937	-2.1860786913	-1.2332586367	-0.277915
C	 0.5654011266	-2.8457850499	 0.0404398122	 0.099061
O	 1.9832634378	-2.7634629235	 0.1018872385	-0.435015
C	-0.0941373943	-2.2254113357	 1.2777430249	-0.324363
C	 0.0251209428	-0.7058758895	 1.3172508949	 0.309441
O	 0.0823798623	-0.0977744799	 2.3681244727	-0.318628
H	 0.9230682684	 1.8699141222	 0.6258830783	 0.14174
H	 0.0547063322	 1.953241245	-0.9256716835	 0.11416
H	-0.8255244293	 1.8875263808	 0.6198146037	 0.14108
H	-0.0033165171	-0.1382335963	-2.0815729909	 0.100836
H	-1.0084326444	-2.5397023334	-1.4249096138	 0.120209
H	 0.6144458804	-2.510360489	-2.0915337991	 0.120998
H	 0.3554329248	-3.9195533037	 0.0142161606	 0.092539
H	 2.2313044604	-1.832413147	 0.0716625705	 0.283082
H	-1.1673703847	-2.4650120309	 1.2744086952	 0.122387
H	 0.3296598367	-2.6312274268	 2.1991041245	 0.130699
75.4474	117.5729	149.9171	253.5353	295.0576	314.8586	338.3145	347.3676	379.4802	473.0664	528.7691	555.7881	646.0459	687.7642	804.2826	833.818	841.1932	905.6518	941.5303	972.0665	1035.1771	1064.7002	1077.3329	1089.9131	1117.488	1162.9834	1202.843	1236.9173	1297.2307	1312.099	1366.6595	1376.3176	1384.7077	1416.1434	1431.4021	1443.8922	1464.9674	1471.4271	1486.223	1697.2715	1770.0452	3001.0832	3017.6655	3041.4031	3064.039	3067.4772	3098.4184	3110.8838	3123.8285	3138.8695	3795.7979
CC1=CCC(O)CC1=O	CC1=CC[C@@H](O)CC1=O	
InChI=1S/C7H10O2/c1-5-2-3-6(8)4-7(5)9/h2,6,8H,3-4H2,1H3	InChI=1S/C7H10O2/c1-5-2-3-6(8)4-7(5)9/h2,6,8H,3-4H2,1H3/t6-/m1/s1
