21
gdb 122708	3.2665	0.58432	0.50177	1.8437	86.98	-0.2484	-0.0167	0.2317	2178.4931	0.181532	-420.443779	-420.433284	-420.43234	-420.480513	36.552	
C	-0.0552895017	 1.5187155018	-0.2268160868	-0.382143
C	 0.0730028706	 0.02689901	 0.0916840236	-0.176
C	 0.7350623599	-0.7741022918	-1.0359642057	-0.177081
C	 0.8506754741	-2.2629021601	-0.6910896813	-0.128325
N	 1.4571026079	-3.1684037367	-1.6548963833	-0.263297
C	 1.8830607189	-2.7337958857	-2.7627293554	 0.119588
N	 2.461310528	-3.6161215344	-3.6739385628	-0.30801
C	 2.9531957127	-3.2439636577	-4.9006929887	 0.157284
O	 2.9453512752	-2.1164370143	-5.3370434127	-0.30082
H	 0.926480217	 1.9721534916	-0.4024465477	 0.116176
H	-0.6588932587	 1.6812144827	-1.126583222	 0.116176
H	-0.5306870919	 2.0621101284	 0.5956634085	 0.112815
H	 0.6520445477	-0.1021460533	 1.0156599227	 0.097985
H	-0.9214729188	-0.3909079703	 0.2969406022	 0.097984
H	 0.1527565207	-0.64791042	-1.9587063894	 0.102371
H	 1.7315134898	-0.3582817003	-1.2375491665	 0.102371
H	 1.4143185851	-2.3753179313	 0.2459504967	 0.112072
H	-0.1489774549	-2.6621538605	-0.468221395	 0.112075
H	 1.8637184107	-1.7086830065	-3.1327640338	 0.138212
H	 2.5088914399	-4.5842734361	-3.3885890373	 0.261945
H	 3.3648109879	-4.1095136256	-5.4537293953	 0.088623
62.0345	71.8566	93.0312	123.0238	173.1915	175.1456	222.0727	252.7049	302.8503	338.1341	381.2589	431.301	598.2542	656.313	741.4563	789.064	789.8477	913.3584	942.2959	991.3258	1015.2241	1031.4784	1058.642	1063.1433	1095.9473	1132.0338	1168.2467	1242.0461	1256.196	1287.2658	1323.8791	1333.1655	1352.2682	1380.502	1403.4119	1414.7527	1437.9172	1474.8314	1487.4559	1499.164	1499.3534	1504.5961	1513.0403	1755.7137	1816.3343	2956.1884	3003.1966	3009.0231	3019.3061	3021.5925	3030.5475	3037.5675	3061.6481	3097.4851	3102.8636	3139.0996	3609.5777
CCCCN=CNC=O	CCCCN=CNC=O	
InChI=1S/C6H12N2O/c1-2-3-4-7-5-8-6-9/h5-6H,2-4H2,1H3,(H,7,8,9)	InChI=1S/C6H12N2O/c1-2-3-4-7-5-8-6-9/h5-6H,2-4H2,1H3,(H,7,8,9)
