14
gdb 17150	4.23419	2.0565	1.66605	4.3896	66.92	-0.257	-0.0012	0.2558	770.0896	0.108628	-341.494649	-341.48862	-341.487676	-341.524712	23.534	
N	 0.043358933	-1.0661193969	-0.0794579558	-0.342489
C	 0.0088200881	 0.0878365342	-0.0126464995	 0.176857
C	-0.0158268621	 1.523989457	 0.0919543901	 0.259825
C	-0.7630785037	 2.414176976	 1.0942300845	-0.295955
C	-0.1050189642	 3.3636949212	 0.0905924372	-0.021276
C	 1.1922631398	 2.5130341517	-0.0575945259	-0.095321
C	 0.997954132	 2.5033352984	-1.5683994344	-0.192441
N	-0.4569742541	 2.4277155008	-1.1053920935	-0.170241
H	-1.8526732285	 2.3509456699	 1.0601781749	 0.130797
H	-0.3792958396	 2.4226959425	 2.1160657852	 0.119467
H	-0.2025947185	 4.4426585118	-0.0199704195	 0.102983
H	 2.0958730007	 2.5371608685	 0.5583305727	 0.088622
H	 1.2231049267	 3.4217551629	-2.1178832883	 0.11343
H	 1.3240385305	 1.6232231121	-2.1293768377	 0.125742
147.6291	182.1616	401.315	409.1154	530.9455	535.1225	559.0647	704.4327	773.0002	842.5355	872.0521	883.8288	925.1418	939.2097	1004.1362	1025.2306	1048.1955	1079.9783	1098.9271	1143.4226	1157.1421	1169.328	1220.7256	1234.5413	1275.2287	1280.3583	1286.2135	1490.5979	1518.9588	2350.2484	3052.9403	3069.1839	3074.384	3117.8398	3134.7216	3144.2878
N#CC12CC3C1CN23	N#C[C@@]12C[C@H]3[C@@H]1CN23	
InChI=1S/C6H6N2/c7-3-6-1-5-4(6)2-8(5)6/h4-5H,1-2H2	InChI=1S/C6H6N2/c7-3-6-1-5-4(6)2-8(5)6/h4-5H,1-2H2/t4-,5-,6-/m0/s1
