18
gdb 63406	3.05553	1.14791	1.02647	5.698	75.59	-0.2523	-0.0355	0.2168	1233.1368	0.14565	-439.136854	-439.127419	-439.126475	-439.171255	33.57	
C	-0.0730046926	 1.5554321802	-0.0072452201	-0.441626
C	-0.0473414293	 0.0269748555	-0.012625588	 0.141954
C	-1.4309885478	-0.5790126543	 0.2223555437	-0.441619
C	 0.7704153133	-0.618966127	-1.181063331	-0.226349
N	 1.7286681709	-1.1219214346	-0.1766902366	-0.134267
C	 2.8812532419	-1.8723163984	-0.3235478608	 0.152702
O	 3.5957073802	-2.2306745955	 0.5749369659	-0.268021
C	 1.0361342921	-0.5616142717	 0.9221511304	 0.422841
O	 1.2440831472	-0.5685145896	 2.0966852923	-0.325142
H	 0.9215616024	 1.9761426442	-0.1854330918	 0.12674
H	-0.7484950664	 1.9338791041	-0.781734203	 0.122808
H	-0.4238334008	 1.9234638892	 0.9613156829	 0.142755
H	-2.1352197101	-0.2458622097	-0.5473291661	 0.122843
H	-1.4000480942	-1.6729608564	 0.207212878	 0.126775
H	-1.8183820848	-0.2682788507	 1.1970404692	 0.14277
H	 0.2526884192	-1.4136783539	-1.7249088689	 0.124416
H	 1.2111965633	 0.09098353	-1.8860902446	 0.124422
H	 3.0693348356	-2.1069161815	-1.3914935913	 0.085997
56.0918	148.7418	164.5382	190.6789	209.4794	226.4022	228.5501	282.6401	321.4638	377.8087	490.514	536.8193	677.9784	743.0301	755.7448	848.9149	933.6584	958.7882	968.2718	1027.6534	1027.9787	1040.281	1140.9899	1154.5839	1208.7437	1224.2781	1245.8431	1320.702	1358.9658	1400.1923	1422.0488	1434.4192	1483.2232	1485.598	1503.0209	1503.9705	1518.5727	1808.2658	1912.5652	2923.1744	3032.8929	3035.9775	3053.0278	3102.6678	3105.2101	3106.6538	3114.2494	3116.892
CC1(C)CN(C=O)C1=O	CC1(C)CN(C=O)C1=O	
InChI=1S/C6H9NO2/c1-6(2)3-7(4-8)5(6)9/h4H,3H2,1-2H3	InChI=1S/C6H9NO2/c1-6(2)3-7(4-8)5(6)9/h4H,3H2,1-2H3
