18
gdb 121603	4.58644	0.67324	0.59353	2.0857	70.38	-0.2432	-0.0648	0.1784	1823.3242	0.144712	-476.260848	-476.250391	-476.249447	-476.297782	35.616	
C	-0.0545093821	 1.3417147487	 0.0752797329	-0.228613
O	 0.0040110684	-0.0628763819	 0.0060717073	-0.23351
C	 0.6584568709	-0.5253501466	-1.153563726	-0.059932
C	 0.6554905334	-2.0451264206	-1.1099528889	-0.309048
C	 1.330016931	-2.6699449015	-2.3001602416	 0.286171
O	 1.8311794111	-2.0430367744	-3.2085773424	-0.315101
C	 1.3589281717	-4.2185351684	-2.3175151918	 0.332665
N	 1.9799443476	-4.7022977336	-3.4150445778	-0.518753
O	 0.8652701817	-4.8759705727	-1.4217862153	-0.347654
H	 0.9504780838	 1.7925852514	 0.0930483131	 0.104953
H	-0.6059492621	 1.770577253	-0.7765366082	 0.10495
H	-0.5748600287	 1.6021533743	 1.0000370971	 0.12823
H	 0.1492363579	-0.1671290552	-2.0627669491	 0.098605
H	 1.6917283063	-0.1454252897	-1.2009542156	 0.098675
H	 1.144328725	-2.414714537	-0.2002310806	 0.154675
H	-0.3671329382	-2.4363763502	-1.0451536623	 0.154682
H	 2.3489750955	-4.0520511707	-4.0899299225	 0.279055
H	 2.0665588667	-5.6951324949	-3.5491806383	 0.269949
48.3861	57.0795	89.8844	101.4145	123.726	231.5925	236.4803	298.7408	311.114	355.3974	416.0251	455.2584	545.0424	611.2815	629.2962	707.0271	809.5173	823.0113	994.8613	1037.1271	1063.9929	1093.5118	1107.0643	1167.7319	1178.2669	1214.0175	1233.6535	1290.2814	1320.2722	1380.247	1425.9182	1441.3887	1483.9291	1485.8936	1504.827	1527.0621	1587.0625	1792.371	1808.9198	2964.6462	2976.7179	2997.747	3014.0406	3050.2689	3077.8911	3115.7303	3596.9188	3738.4574
COCCC(=O)C(N)=O	COCCC(=O)C(=O)N	
InChI=1S/C5H9NO3/c1-9-3-2-4(7)5(6)8/h2-3H2,1H3,(H2,6,8)	InChI=1S/C5H9NO3/c1-9-3-2-4(7)5(6)8/h2-3H2,1H3,(H2,6,8)
