20
gdb 10310	2.39345	1.7488	1.07547	0.8016	77.57	-0.2621	0.0381	0.3002	1148.1266	0.173344	-348.966201	-348.956143	-348.955199	-349.000779	36.19	
C	 0.219475297	 0.6913135275	-1.2776372401	-0.239936
O	-0.165722398	 0.3085032922	 0.0256415736	-0.235945
C	-1.3645389108	-0.4500346595	 0.0799710286	-0.04583
C	-1.1867126286	-1.7690950516	-0.5458020991	 0.335105
C	-1.0178070609	-2.842152533	-1.0617179685	-0.463787
C	-1.7861120798	-0.5516497733	 1.5633786633	 0.021421
C	-1.9342538472	 0.8478502681	 2.1724012304	-0.396861
C	-3.0754421367	-1.3659654892	 1.7204326798	-0.400615
H	 1.1270445159	 1.2908593085	-1.1767204577	 0.127388
H	 0.4313570813	-0.1787641651	-1.9134100195	 0.120134
H	-0.5579444106	 1.2999413587	-1.7656155576	 0.102923
H	-2.1602105606	 0.0868495342	-0.4688097368	 0.085482
H	-0.873972601	-3.7908527838	-1.5172746922	 0.197406
H	-0.9715463437	-1.0756463073	 2.0787373868	 0.091276
H	-2.7438392592	 1.4023869867	 1.6818218678	 0.106278
H	-2.1806080701	 0.7757164276	 3.236365374	 0.108011
H	-1.0142333408	 1.4244336163	 2.0654692941	 0.13345
H	-3.3441217734	-1.4494650709	 2.7778880224	 0.113728
H	-3.9127693778	-0.8797145193	 1.2052128816	 0.111245
H	-2.9693528449	-2.3749605869	 1.3145610089	 0.129127
66.0004	105.6208	148.0068	182.2948	197.6146	217.5022	245.8828	265.2685	333.797	366.3626	424.3286	441.2747	526.654	594.2017	624.1943	667.2438	846.7539	896.7833	933.9999	960.7967	988.8987	1006.989	1131.6726	1140.6178	1160.1455	1184.5637	1192.7574	1229.2672	1295.6006	1341.6553	1357.6299	1373.987	1396.9482	1418.9124	1477.7336	1484.8077	1488.9876	1492.4225	1501.5884	1511.4166	1514.9078	2226.2312	2932.78	2981.3224	3028.2048	3029.2866	3038.5264	3044.1147	3091.8534	3099.3894	3119.5185	3122.099	3138.4441	3501.3209
COC(C#C)C(C)C	CO[C@@H](C#C)C(C)C	
InChI=1S/C7H12O/c1-5-7(8-4)6(2)3/h1,6-7H,2-4H3	InChI=1S/C7H12O/c1-5-7(8-4)6(2)3/h1,6-7H,2-4H3/t7-/m0/s1
