18
gdb 8480	2.85349	1.95781	1.59453	1.82	68.33	-0.2217	0.0614	0.2831	893.9433	0.15251	-384.909707	-384.901525	-384.900581	-384.941684	31.602	
C	-0.0426109358	 1.5470464232	 0.0845808585	-0.501492
C	-0.0357079864	 0.0470444785	 0.0865582689	 0.257452
C	 1.1661696742	-0.7731912003	-0.3593161752	-0.380053
C	 0.6336887016	-1.0011082095	 1.0099987412	 0.364556
O	 1.4284950083	-0.8976869619	 2.129106579	-0.457758
C	-0.6291499952	-1.8595643423	 0.9950460746	 0.072888
O	-1.2412328767	-1.8995085572	 2.2793312573	-0.447245
C	-1.2773189442	-0.8584103251	-0.0108634974	-0.327816
H	 0.9226858712	 1.9399145867	 0.4202623405	 0.128045
H	-0.2341661141	 1.9514526005	-0.9172640788	 0.120716
H	-0.8147958346	 1.9467861567	 0.7529261881	 0.107125
H	 1.0828218352	-1.5272186767	-1.1421905848	 0.099303
H	 2.1011822448	-0.2198344187	-0.3739652787	 0.119678
H	 0.8465888859	-1.098506549	 2.8756229083	 0.28524
H	-0.5225360581	-2.9042951457	 0.6843789491	 0.085237
H	-1.6494550107	-1.0417017087	 2.4424540804	 0.281813
H	-2.184989624	-0.4101225081	 0.40942557	 0.092844
H	-1.5196346416	-1.2516208923	-1.004710581	 0.099468
117.7489	173.133	197.9574	226.8765	291.4186	325.608	407.1702	428.3403	477.7289	508.76	529.6722	603.2587	711.0474	759.2033	834.6285	879.1416	917.7826	951.7468	986.5571	1017.6943	1039.3419	1066.9664	1101.6026	1131.7408	1159.1604	1224.6043	1239.4262	1250.2142	1286.9456	1344.6119	1357.4519	1414.6177	1417.4418	1438.0632	1481.07	1485.6055	1498.4806	1519.0071	3014.7797	3026.1715	3054.2936	3069.1509	3075.6437	3081.0899	3094.8946	3184.2535	3743.974	3797.9717
CC12CC1(O)C(O)C2	C[C@@]12C[C@]1(O)[C@@H](O)C2	
InChI=1S/C6H10O2/c1-5-2-4(7)6(5,8)3-5/h4,7-8H,2-3H2,1H3	InChI=1S/C6H10O2/c1-5-2-4(7)6(5,8)3-5/h4,7-8H,2-3H2,1H3/t4-,5+,6-/m0/s1
