20
gdb 103407	2.43256	1.41622	1.26621	1.4354	74.28	-0.2367	0.0641	0.3008	1108.8887	0.169304	-440.228498	-440.218995	-440.218051	-440.262325	35.836	
C	-0.1289335643	 1.6405475183	 0.0151020133	-0.457421
C	 0.008192549	 0.1269987089	-0.0130472313	 0.277041
C	-1.3546007361	-0.5608364622	-0.1613314546	-0.108949
O	-1.9451255901	-0.3608678723	-1.4347964073	-0.421378
C	 1.0634802949	-0.4993913258	-0.9701601665	 0.050596
O	 1.8178182364	 0.4514226666	-1.6922154901	-0.431692
C	 1.7020624202	-1.1196992768	 0.2743259618	-0.066074
C	 2.0650909146	-0.0700909235	 1.2445052071	-0.249054
N	 0.6603122013	-0.507830777	 1.2029102785	-0.157554
H	 0.8352341955	 2.1500095033	 0.0100161091	 0.136296
H	-0.6678490168	 1.9927330934	-0.871134183	 0.111729
H	-0.6858916319	 1.9465498965	 0.9076497326	 0.120263
H	-1.2200874067	-1.641516356	-0.054025072	 0.112282
H	-2.0134940838	-0.2324786583	 0.6561455904	 0.094954
H	-2.2284985397	 0.5560521811	-1.4954925712	 0.286673
H	 0.6130946394	-1.2377284606	-1.6430230857	 0.08419
H	 2.4591496899	-0.0169043459	-2.2362654159	 0.284294
H	 2.0136659815	-2.1540782771	 0.3813030178	 0.088709
H	 2.5679694679	-0.3852533862	 2.1536535477	 0.119933
H	 2.3468479688	 0.9150364035	 0.8869813892	 0.125161
93.8967	138.1279	156.9688	202.0524	219.9378	244.9989	276.4644	318.9242	342.1697	397.4332	452.0342	534.2993	586.0519	674.305	766.5214	775.5113	820.0191	892.373	938.9355	957.4992	965.1732	1014.3936	1060.0214	1076.3796	1100.5754	1108.1904	1125.2121	1136.8495	1161.8228	1173.9242	1227.9085	1267.9929	1296.6757	1317.4897	1358.8276	1378.3419	1400.9112	1411.113	1432.3275	1475.2399	1492.701	1501.244	1510.6811	2997.8621	3035.6069	3041.3054	3083.9478	3097.2748	3124.4731	3138.4199	3158.0841	3211.033	3815.173	3830.2591
CC1(CO)C(O)C2CN12	C[C@@]1(CO)[C@@H](O)[C@H]2CN12	
InChI=1S/C6H11NO2/c1-6(3-8)5(9)4-2-7(4)6/h4-5,8-9H,2-3H2,1H3	InChI=1S/C6H11NO2/c1-6(3-8)5(9)4-2-7(4)6/h4-5,8-9H,2-3H2,1H3/t4-,5+,6-,7?/m1/s1
