17
gdb 26446	3.59373	1.06588	0.94019	4.8282	74.67	-0.2228	-0.0116	0.2112	1255.395	0.136404	-418.059595	-418.051035	-418.050091	-418.093923	30.829	
C	 0.106767437	 1.4774828917	 0.5407108992	-0.401491
C	-0.0859954331	 0.0785818894	-0.0422842814	-0.175312
C	 0.839219754	-0.9458224533	 0.6151733569	 0.148942
O	 1.6719958034	-0.6801882449	 1.443251926	-0.246351
C	-1.496569609	-0.4394946693	 0.0329290126	 0.263221
C	-2.5411907305	-0.0047066966	 0.8104258012	-0.182647
N	-3.5907041224	-0.8482877671	 0.5174891857	-0.233616
C	-3.1443173455	-1.7456326288	-0.4034716885	 0.01122
N	-1.8884308853	-1.5301244171	-0.7177013477	-0.30618
H	 1.1503312356	 1.7863563947	 0.4528569483	 0.131044
H	-0.5232225924	 2.2041956208	 0.0210161142	 0.113549
H	-0.1429555227	 1.4954825268	 1.6058004636	 0.12529
H	 0.194658887	 0.0701895925	-1.1067933361	 0.113753
H	 0.6749269865	-1.9869277638	 0.2641195183	 0.098638
H	-2.6403289294	 0.8027296792	 1.5153806664	 0.135994
H	-4.5177811748	-0.7983020354	 0.9051760258	 0.269702
H	-3.7761439384	-2.5225589191	-0.8072727244	 0.134244
35.5831	79.7916	154.9386	205.7507	234.4267	265.569	365.3896	427.4103	526.9717	591.8067	661.4389	701.2488	718.4672	749.8992	823.1145	853.3709	935.5528	950.4206	969.6074	1061.7632	1095.822	1104.5	1126.9396	1141.0977	1230.1785	1249.9304	1293.7881	1341.2444	1354.5297	1401.9668	1421.7006	1455.962	1488.9017	1498.7357	1525.983	1590.6735	1826.2502	2911.5089	2997.4013	3049.4904	3117.2047	3133.6493	3253.429	3283.7648	3667.055
CC(C=O)C1=CNC=N1	C[C@@H](C=O)c1c[nH]cn1	
InChI=1S/C6H8N2O/c1-5(3-9)6-2-7-4-8-6/h2-5H,1H3,(H,7,8)	InChI=1S/C6H8N2O/c1-5(3-9)6-2-7-4-8-6/h2-5H,1H3,(H,7,8)/t5-/m0/s1
