12
gdb 131425	5.0769	0.92732	0.8757	4.4694	60.37	-0.2825	-0.0452	0.2373	1249.9708	0.078029	-468.817422	-468.809839	-468.808895	-468.851229	26.514	
O	 0.286173126	 1.3052496863	-0.1652655172	-0.393267
C	 0.125590563	-0.0110190158	-0.0884087383	 0.445197
N	-0.1632109982	-0.7326448094	-1.1423398059	-0.185175
O	-0.2327063394	-2.0316752935	-0.597874614	-0.190794
C	 0.0193719668	-1.9186412603	 0.7028580873	 0.442322
C	 0.0281913608	-3.1614398381	 1.5406718256	-0.434414
C	-1.2951077897	-3.7780764254	 1.6570231623	 0.271066
N	-2.3343374669	-4.2700421929	 1.7582746671	-0.283872
N	 0.2520921245	-0.7037883237	 1.0942005337	-0.382352
H	 0.4786798672	 1.6279854912	 0.7238472755	 0.325016
H	 0.7213515289	-3.8913060756	 1.1073418786	 0.19115
H	 0.3957419069	-2.8947167128	 2.5345589854	 0.195123
19.2237	98.3199	233.1931	275.2419	361.8292	371.2697	404.1646	443.8574	502.326	644.7544	737.5267	771.6493	813.8465	913.4853	947.6387	952.278	1043.1625	1070.5949	1203.7358	1220.3651	1326.7865	1353.0108	1442.0354	1447.0138	1609.2131	1678.9653	2375.7745	3057.9532	3119.9892	3811.6281
OC1=NOC(CC#N)=N1	Oc1noc(CC#N)n1	
InChI=1S/C4H3N3O2/c5-2-1-3-6-4(8)7-9-3/h1H2,(H,7,8)	InChI=1S/C4H3N3O2/c5-2-1-3-6-4(8)7-9-3/h1H2,(H,7,8)
