16
gdb 123665	4.07512	1.58974	1.25169	1.9657	74.58	-0.1898	0.0299	0.2197	965.346	0.128871	-396.925396	-396.918892	-396.917948	-396.955943	26.835	
C	 0.015386806	 1.5002486944	 0.096999276	-0.304671
C	 1.3205599548	 0.7414709619	 0.016789144	 0.002482
N	 2.0281568617	 0.3424273472	 1.2263830287	-0.398337
C	 1.1377957988	-0.4490860318	 1.9580822828	 0.374808
N	 1.1938094033	-0.9958210923	 3.1574009601	-0.356876
N	 0.0222816529	-1.7041387668	 3.1995193599	-0.197597
C	-0.731961134	-1.5958772074	 2.0662987671	-0.221409
C	-0.0303704136	-0.7629893847	 1.2300464706	 0.2509
C	-0.009472109	-0.0161330027	-0.0480734494	-0.216091
H	-0.2916825019	 1.9233764748	 1.0474520668	 0.116742
H	-0.2585592364	 2.0843113731	-0.775358799	 0.112518
H	 1.9444253125	 0.8653011624	-0.8613043573	 0.098447
H	 2.5108059168	 1.0753597719	 1.7286719101	 0.242677
H	-0.1722814502	-2.2592425781	 4.013328561	 0.269687
H	-1.6775044013	-2.106740603	 1.9743808432	 0.1308
H	-0.3641758603	-0.4514773689	-0.9746066945	 0.09592
166.8333	259.373	316.9647	392.1193	440.812	475.2379	561.4237	628.0884	656.5412	698.3308	761.4997	783.1187	796.4984	812.6777	839.3926	944.9933	965.2351	986.1779	1030.0334	1045.3794	1052.8358	1094.0442	1136.0582	1158.5568	1194.1057	1198.8153	1275.3409	1331.4966	1351.1452	1375.4626	1461.0079	1468.7844	1471.3792	1548.9886	1659.7162	3127.9652	3166.7063	3178.9434	3220.1681	3257.9189	3580.6575	3697.1895
C1C2NC3=NNC=C3C12	C1[C@H]2Nc3n[nH]cc3[C@@H]12	
InChI=1S/C6H7N3/c1-3-4-2-7-9-6(4)8-5(1)3/h2-3,5H,1H2,(H2,7,8,9)	InChI=1S/C6H7N3/c1-3-4-2-7-9-6(4)8-5(1)3/h2-3,5H,1H2,(H2,7,8,9)/t3-,5-/m1/s1
