15
gdb 126724	5.22554	0.90928	0.8285	7.1809	75.72	-0.275	-0.0322	0.2429	1359.0695	0.113878	-413.007318	-412.999199	-412.998255	-413.04107	28.658	
C	-0.0516831731	 1.5202752452	-0.366396943	-0.380168
C	-0.0490040478	 0.0939170469	 0.1823325852	-0.15239
N	-1.3597268379	-0.5428383384	 0.084503449	 0.074574
C	-1.8874055578	-1.2621114135	-0.9235899039	-0.180326
C	-3.1673815178	-1.5572048955	-0.4969545351	 0.213518
N	-3.3495123583	-1.0012866159	 0.7424906269	-0.243138
N	-2.2594236859	-0.3911641098	 1.0845852405	-0.12817
C	-4.1668492586	-2.3059928863	-1.1686073238	 0.23937
N	-4.9662455639	-2.919492097	-1.7374234881	-0.332258
H	 0.9429936632	 1.9601582389	-0.2524934389	 0.136063
H	-0.3144866234	 1.5363552713	-1.4280006999	 0.133914
H	-0.7692208943	 2.1381164225	 0.1789989504	 0.155464
H	 0.6645780859	-0.5384743021	-0.3523594257	 0.135457
H	 0.2146705148	 0.0829696202	 1.2418332824	 0.156914
H	-1.3484992552	-1.5081828967	-1.822561156	 0.171177
41.8545	100.3656	151.4993	198.7354	227.4671	359.8411	388.3025	527.2652	551.6895	572.3151	684.6633	708.9616	731.3305	795.4577	829.7281	970.7642	1021.6777	1054.1525	1090.4789	1109.5348	1156.0899	1236.3884	1274.6961	1329.4593	1378.8539	1389.9104	1414.8707	1475.0352	1490.3778	1498.3395	1504.9093	1558.3553	2359.3096	3049.8742	3075.2273	3117.019	3129.7754	3142.0963	3289.8161
CCN1C=C(N=N1)C#N	CCn1cc(nn1)C#N	
InChI=1S/C5H6N4/c1-2-9-4-5(3-6)7-8-9/h4H,2H2,1H3	InChI=1S/C5H6N4/c1-2-9-4-5(3-6)7-8-9/h4H,2H2,1H3
