17
gdb 16707	2.93147	2.243	1.78186	3.4584	67.23	-0.2411	-0.0107	0.2305	816.221	0.143862	-363.850921	-363.844032	-363.843088	-363.881802	26.96	
C	-0.0659585732	 1.5433241306	 0.0325887011	-0.414212
C	 0.0600854163	 0.0205396801	 0.0300031744	 0.014613
C	 1.0096630448	-0.567343889	-1.0824147738	-0.253868
C	 1.9964889936	-1.3495353823	-0.1785941191	-0.120585
N	 1.131480986	-1.9847228997	 0.8740620117	-0.326214
C	 0.7745124814	-0.5822952125	 1.2745713001	-0.130845
C	 2.2493485473	-0.2916889444	 0.9194085819	 0.483521
O	 3.1498808087	 0.3730857692	 1.3230845692	-0.319248
H	 0.9148292761	 2.0235062411	 0.1178311392	 0.134396
H	-0.5343851799	 1.8998304174	-0.8902658479	 0.12015
H	-0.6794089641	 1.8878289283	 0.8719669384	 0.119797
H	-0.9386937492	-0.4237482917	-0.0478769343	 0.07609
H	 0.4896912704	-1.2318770145	-1.7782397008	 0.105185
H	 1.5021780644	 0.2153855556	-1.6681473661	 0.114695
H	 2.783041831	-1.9482132124	-0.6343761635	 0.091388
H	 0.3358588104	-2.4795727309	 0.4684606656	 0.216838
H	 0.3430782359	-0.4174870548	 2.2607894241	 0.0883
127.9951	180.0114	234.3204	300.2399	408.8085	452.8378	484.594	632.618	644.8958	773.889	795.9095	820.26	863.7099	891.6688	927.6373	943.6119	1002.6461	1040.3336	1061.8986	1063.7397	1074.9182	1109.6406	1136.5494	1179.7715	1213.2904	1220.5838	1271.7923	1295.6604	1313.9227	1334.5014	1368.0343	1416.0776	1494.8251	1498.6721	1500.9068	1932.7268	3031.4068	3032.0647	3051.3251	3095.0698	3100.5376	3104.2846	3136.0364	3141.9017	3441.8566
CC1CC2NC1C2=O	C[C@H]1C[C@@H]2N[C@H]1C2=O	
InChI=1S/C6H9NO/c1-3-2-4-6(8)5(3)7-4/h3-5,7H,2H2,1H3	InChI=1S/C6H9NO/c1-3-2-4-6(8)5(3)7-4/h3-5,7H,2H2,1H3/t3-,4-,5+/m0/s1
