18
gdb 116434	2.49223	1.44448	0.95934	4.0871	69.96	-0.263	0.0106	0.2736	1197.0867	0.148602	-476.220017	-476.211538	-476.210594	-476.253631	31.495	
O	 0.0089789317	 1.4070090948	-0.0948672858	-0.424996
C	 0.0661742473	-0.00297328	-0.0507562691	-0.067985
C	-1.3393228577	-0.5967831979	 0.0169134791	-0.005855
O	-2.0292584867	-0.1215103232	-1.1378071679	-0.271358
C	-3.3220820385	-0.6839559682	-1.2342928882	-0.096809
C	-3.1861084151	-2.1788471469	-1.4429139609	-0.077631
O	-2.4069216524	-2.7876599733	-0.4028136402	-0.256851
C	-1.3417593599	-2.1144247973	 0.1198900655	 0.382543
N	-0.4306067712	-2.7088564785	 0.7641134955	-0.507189
H	-0.5877142258	 1.6311555302	-0.8181986861	 0.289433
H	 0.5843569959	-0.4228660597	-0.9260330703	 0.09582
H	 0.6241073012	-0.2909128889	 0.8405474355	 0.140473
H	-1.8459849303	-0.2044520655	 0.9156612794	 0.105962
H	-3.9090985076	-0.4681429719	-0.3272707799	 0.106185
H	-3.8201350302	-0.2218894075	-2.0915493042	 0.121012
H	-4.1569758132	-2.6815745335	-1.4271075753	 0.122371
H	-2.7005176892	-2.3748771151	-2.4071573612	 0.121143
H	-0.6079538084	-3.7154229376	 0.7842563043	 0.223731
60.5838	122.8197	143.3541	192.4288	309.3713	336.2747	399.193	428.8238	460.807	488.9763	515.3901	610.7857	677.8252	823.6224	888.3638	912.9991	929.8129	955.8008	1028.2758	1067.0245	1088.0621	1102.8711	1136.1529	1140.0154	1170.6588	1223.4682	1271.6502	1277.4069	1297.4991	1338.7597	1359.7722	1388.6207	1409.7296	1427.5272	1433.0661	1490.8418	1496.6914	1501.2204	1750.2504	2960.7566	2985.6527	2999.4622	3030.7594	3093.9615	3100.5396	3136.6608	3463.3765	3800.793
OCC1OCCOC1=N	OC[C@H]1OCCO[C]1[NH]	
InChI=1S/C5H9NO3/c6-5-4(3-7)8-1-2-9-5/h4,6-7H,1-3H2	InChI=1S/C5H9NO3/c6-5-4(3-7)8-1-2-9-5/h4,6-7H,1-3H2/t4-/m1/s1
