19
gdb 102966	2.91785	0.78834	0.68169	5.3819	74.4	-0.2592	-0.0322	0.2269	1662.6642	0.155558	-460.194192	-460.183664	-460.18272	-460.231896	35.216	
C	 0.279661858	 1.5298811501	-0.0294000489	-0.389883
C	-0.0037444634	 0.0274416659	-0.1118009704	-0.202582
C	 0.6339961039	-0.6535818979	-1.3473752701	-0.072213
C	 0.5476081632	-2.1736383381	-1.2222752533	-0.114827
O	 1.0689649292	-2.8082328378	-2.3948735067	-0.179098
C	 2.2416278135	-3.4679381459	-2.2963361927	 0.174761
O	 2.7621011701	-4.0031542674	-3.2255520043	-0.265168
C	-0.090836366	-0.1837404475	-2.5990392682	 0.180163
O	 0.3043916426	 0.6773702117	-3.3382072534	-0.243481
H	 1.3533120022	 1.7216860567	 0.064444392	 0.125558
H	-0.0709107178	 2.0550893389	-0.9221777677	 0.142732
H	-0.2177305205	 1.9681536263	 0.8404958696	 0.120467
H	 0.3723773974	-0.4704198643	 0.7906078072	 0.107271
H	-1.0877172588	-0.1502395333	-0.1250977966	 0.109031
H	 1.6821826407	-0.3471714294	-1.4368001122	 0.104141
H	 1.088309775	-2.5156922517	-0.3309954927	 0.118196
H	-0.4943645444	-2.4990850175	-1.128875104	 0.128852
H	 2.6492836749	-3.4591903391	-1.2656690734	 0.078325
H	-1.0773833699	-0.6796627095	-2.7643916742	 0.077755
31.466	50.9371	78.4767	97.9682	129.7874	196.5407	222.7211	258.3591	328.8618	342.5624	374.9235	440.9736	560.513	672.7573	776.3361	855.3938	908.5664	973.9859	1011.7141	1025.1	1041.9984	1052.4118	1109.7274	1135.4997	1152.4643	1174.3254	1263.1608	1295.9501	1307.2651	1356.9258	1371.603	1401.1665	1421.1338	1425.4393	1434.7523	1486.6165	1498.9132	1499.8048	1506.7226	1840.1445	1874.1551	2847.8051	2938.6698	3015.0128	3027.1167	3043.3216	3047.4467	3059.0469	3082.088	3111.7792	3121.6265
CCC(COC=O)C=O	CC[C@@H](COC=O)C=O	
InChI=1S/C6H10O3/c1-2-6(3-7)4-9-5-8/h3,5-6H,2,4H2,1H3	InChI=1S/C6H10O3/c1-2-6(3-7)4-9-5-8/h3,5-6H,2,4H2,1H3/t6-/m1/s1
