21
gdb 60127	2.67964	1.12327	0.96212	2.0814	75.19	-0.2236	0.0604	0.284	1329.2424	0.179495	-461.329538	-461.319303	-461.318359	-461.365334	37.84	
C	-0.0963606592	 1.4905249968	 0.0468182665	-0.392599
C	-0.0882007994	-0.032657756	 0.019390287	 0.149786
C	 0.1226514844	-0.6445471028	 1.4026261964	-0.378538
O	-1.3411764506	-0.419053955	-0.5675964214	-0.279387
C	-1.4656138374	-1.7523659321	-0.940284316	 0.016173
C	-2.1754746846	-2.7435070542	-0.0174100276	 0.064409
O	-2.6016125775	-2.3392981544	 1.2396273391	-0.426373
C	-2.8998126408	-2.1446832605	-1.2066181935	 0.002925
O	-3.8674243947	-1.1900701447	-0.8643297667	-0.434266
H	 0.8558250821	 1.8707722908	 0.4272495473	 0.118209
H	-0.2580698882	 1.8938536239	-0.9563214504	 0.12077
H	-0.8965996935	 1.8548456256	 0.6991660879	 0.122549
H	 0.7143780031	-0.376917848	-0.6529566507	 0.07032
H	 0.1323490288	-1.7354897841	 1.3617551681	 0.131701
H	 1.0810759374	-0.3082661253	 1.8117362466	 0.107635
H	-0.6782751118	-0.343631282	 2.0826530187	 0.127708
H	-0.6849483734	-2.1249544184	-1.6047947492	 0.088048
H	-1.8602566474	-3.7832002851	-0.0547382061	 0.097533
H	-3.3850259962	-1.7901750452	 1.0800099744	 0.289062
H	-3.1637179096	-2.7427126904	-2.0739239183	 0.100438
H	-3.4074385716	-0.3386326087	-0.8366307722	 0.303897
25.3265	104.9101	130.9345	182.7917	208.1014	237.2817	259.1223	298.6226	335.4883	351.6789	425.786	462.2296	557.1157	601.5946	645.1141	709.14	747.5553	789.6061	842.4823	927.344	928.1017	946.1043	983.9433	1047.5048	1079.6678	1105.5122	1144.7274	1152.8631	1163.2712	1173.9678	1199.0423	1234.4564	1324.4096	1334.1147	1359.1359	1370.5758	1395.1163	1401.1135	1410.8381	1418.5906	1454.8081	1476.8222	1479.7274	1492.6859	1506.209	2971.3651	3041.2343	3047.5192	3090.897	3113.3241	3119.8646	3124.294	3136.8127	3137.7582	3149.3726	3697.0301	3734.1969
CC(C)OC1C(O)C1O	CC(C)O[C@H]1[C@@H](O)[C@H]1O	
InChI=1S/C6H12O3/c1-3(2)9-6-4(7)5(6)8/h3-8H,1-2H3	InChI=1S/C6H12O3/c1-3(2)9-6-4(7)5(6)8/h3-8H,1-2H3/t4-,5+,6-
