17
gdb 74524	4.22553	1.12004	1.02373	3.2715	69.96	-0.2281	0.049	0.2771	1172.3201	0.137421	-455.144056	-455.136025	-455.135081	-455.177504	29.842	
N	 0.0789927625	 1.3654165442	-0.1666560831	-0.578142
C	-0.0185356804	 0.0075594629	-0.084745488	 0.462397
N	-1.0707827011	-0.6699149027	 0.1755175242	-0.379075
C	-0.7005641837	-2.0701700583	 0.0614749476	 0.240718
C	-1.1694313094	-3.0071915045	 1.2035275071	-0.112453
O	-1.8978607805	-3.8467584442	 0.288298017	-0.273393
C	-1.6184959595	-2.9628534812	-0.8139615703	-0.112338
C	 0.8138881215	-2.046788916	-0.2734312778	-0.173932
O	 1.1401661459	-0.6459677202	-0.3640184427	-0.251992
H	 0.9980375629	 1.7507557618	-0.0181536042	 0.265964
H	-0.6791713835	 1.8675439396	 0.266794172	 0.272041
H	-0.3826400519	-3.5601836268	 1.7343514535	 0.090667
H	-1.823793098	-2.50906703	 1.9285280362	 0.108298
H	-2.5139836697	-2.4410977315	-1.1710602831	 0.109658
H	-1.1360703941	-3.48570041	-1.650747133	 0.091469
H	 1.4340785137	-2.4955900197	 0.5091369355	 0.118425
H	 1.0538634453	-2.5182012933	-1.2311718809	 0.12169
53.1938	65.0272	179.3396	293.4637	308.6536	393.5694	436.0842	448.1965	472.3476	519.6257	701.0075	735.6149	824.2471	848.0184	901.2492	912.7297	947.5963	968.5969	993.1511	1040.3782	1051.1607	1125.7516	1141.5922	1155.4905	1156.7321	1218.0913	1229.2394	1234.9228	1301.4798	1356.3616	1377.679	1438.0153	1498.021	1519.6501	1527.4661	1617.1372	1746.4437	2998.1757	3009.6053	3045.5791	3061.4301	3063.9825	3092.6788	3598.2349	3714.0081
NC1=NC2(COC2)CO1	NC1=NC2(COC2)CO1	
InChI=1S/C5H8N2O2/c6-4-7-5(3-9-4)1-8-2-5/h1-3H2,(H2,6,7)	InChI=1S/C5H8N2O2/c6-4-7-5(3-9-4)1-8-2-5/h1-3H2,(H2,6,7)
