19
gdb 99617	2.13964	1.43946	1.02845	2.5214	76.33	-0.2543	0.0078	0.2621	1224.9937	0.157794	-419.182512	-419.172676	-419.171732	-419.217374	35.185	
C	 0.9549106971	 0.6702293209	 0.9193235543	-0.252092
O	 0.7650444052	-0.5963454352	 0.3075197465	-0.242225
C	 0.309737008	-0.5408330436	-1.0228656431	-0.078733
C	 1.3435250025	 0.0354204381	-1.9152809166	 0.281237
N	 2.1548974044	 0.4930971053	-2.5991797635	-0.330252
C	-0.081800612	-1.9488333804	-1.4902481675	 0.312699
C	-0.7747863364	-1.9791513428	-2.8339793542	-0.468739
C	 0.7480408795	-3.0860608492	-1.0253151953	-0.265074
N	-0.6067572026	-2.8641539863	-0.4738466276	-0.366654
H	 1.7381613097	 1.24770612	 0.4123419088	 0.142045
H	 0.023365614	 1.2538459234	 0.9200676317	 0.119516
H	 1.2593294971	 0.4760167734	 1.9489988477	 0.143164
H	-0.5781794735	 0.1111978063	-1.0921510542	 0.115388
H	-0.1232530487	-1.6017801659	-3.6287095943	 0.140209
H	-1.0609739952	-3.0047406865	-3.0753328452	 0.138781
H	-1.6869743019	-1.3713565987	-2.8195777136	 0.120664
H	 0.85046776	-3.963173121	-1.6576680347	 0.119619
H	 1.5988477415	-2.8700491216	-0.3871627019	 0.129174
H	-0.5086254286	-2.4316293462	 0.4423910627	 0.241273
65.4144	100.5369	136.3641	184.7713	190.0759	198.7856	267.3788	325.7052	348.6477	369.1886	397.0943	473.294	537.141	609.833	765.7555	852.553	895.2532	944.1453	977.3341	988.5633	995.3599	1046.2569	1096.3109	1116.0566	1139.8827	1148.5714	1186.3162	1217.5133	1280.6777	1312.8635	1335.7	1363.1987	1391.301	1424.1065	1480.203	1487.1206	1488.766	1494.0363	1508.5856	1511.4378	2351.37	2959.8577	3000.2427	3034.3436	3064.7012	3099.0266	3119.7193	3133.5235	3137.584	3211.036	3500.1508
COC(C#N)C1(C)CN1	CO[C@@H](C#N)[C@@]1(C)CN1	
InChI=1S/C6H10N2O/c1-6(4-8-6)5(3-7)9-2/h5,8H,4H2,1-2H3	InChI=1S/C6H10N2O/c1-6(4-8-6)5(3-7)9-2/h5,8H,4H2,1-2H3/t5-,6+/m0/s1
