18
gdb 8080	3.57521	2.18131	1.73557	1.3898	71.69	-0.2327	0.0179	0.2506	808.9814	0.155528	-347.801989	-347.795317	-347.794372	-347.832125	27.985	
O	-0.0166952707	 1.4246292195	-0.0300809345	-0.497846
C	 0.0159706932	 0.0229916715	 0.0258403523	 0.399145
C	 0.2521419102	-0.7130728626	 1.3834312905	-0.275198
C	-0.6791600817	-1.817189627	 0.7999035596	-0.030086
C	-1.360561421	-0.6836984682	-0.0264500058	-0.244693
C	 0.1177453267	-2.7593784255	-0.1217728872	-0.251637
C	 0.9633065875	-1.9520600347	-1.0810339941	-0.067728
C	 0.9148024391	-0.62207275	-1.0165323444	-0.133737
H	 0.8882619889	 1.7504701266	 0.0271065053	 0.273138
H	 1.2776961726	-0.9812267342	 1.651030874	 0.086182
H	-0.2304865557	-0.1758000585	 2.2039003117	 0.098362
H	-1.3035814059	-2.3731524197	 1.5012389622	 0.06545
H	-2.096097131	-0.1425905442	 0.5740502613	 0.102234
H	-1.7718301604	-0.9203448967	-1.0103919577	 0.093982
H	 0.7521526479	-3.4298569103	 0.4753202212	 0.104552
H	-0.5651534662	-3.4150003931	-0.6806345637	 0.105739
H	 1.5808761139	-2.4730853571	-1.8069634934	 0.088663
H	 1.4724626026	 0.0264470842	-1.6869081373	 0.083478
233.0331	262.3631	329.5761	339.2728	393.1129	456.3341	480.8939	501.6347	633.12	701.9195	708.7784	820.9361	857.2089	879.2182	913.5104	935.5202	963.8041	969.6424	979.7907	1021.3736	1030.8846	1075.7669	1094.5811	1150.1822	1157.11	1190.1348	1211.9293	1240.639	1267.033	1275.1875	1320.9066	1357.706	1369.1656	1400.217	1470.6286	1471.4264	1505.7509	1698.8169	3001.6446	3025.5468	3051.0904	3060.7329	3090.214	3115.3142	3122.3024	3154.2729	3178.7036	3799.8549
OC12CC(C1)CC=C2	O[C@@]12C[C@@H](C1)CC=C2	
InChI=1S/C7H10O/c8-7-3-1-2-6(4-7)5-7/h1,3,6,8H,2,4-5H2	InChI=1S/C7H10O/c8-7-3-1-2-6(4-7)5-7/h1,3,6,8H,2,4-5H2/t6-,7-
