19
gdb 56823	2.4492	1.22265	0.95201	4.2288	76.41	-0.2615	0.0321	0.2936	1274.6608	0.158561	-419.192238	-419.182211	-419.181267	-419.227399	36.223	
C	-0.3429120791	 1.4189216043	 0.1126806409	-0.415316
C	 0.0247281216	-0.0494140672	 0.0802889097	-0.074399
C	 1.414377814	-0.5068388582	-0.3121738522	 0.067176
O	 2.4216155083	 0.4448618144	-0.5040878628	-0.412163
C	 0.9469631311	-0.6841874546	 1.1080542749	-0.029364
C	 1.5662171124	 0.1393592333	 2.2247764534	-0.145488
N	 0.5593951485	 0.4921063155	 3.2341353664	-0.499474
C	 2.7189962694	-0.5926601553	 2.8008470103	 0.260127
N	 3.588860995	-1.1656835873	 3.3032356938	-0.329547
H	 0.5392954946	 2.0537521465	 0.2246310128	 0.122957
H	-0.8404360438	 1.7072413008	-0.8196767092	 0.110836
H	-1.0188295513	 1.6355204288	 0.9438096929	 0.141142
H	-0.7814893131	-0.7012319087	-0.2467136951	 0.089827
H	 1.5169657982	-1.4021185501	-0.9241173993	 0.094904
H	 2.2780598007	 0.868770935	-1.3568076049	 0.294928
H	 0.7066616849	-1.7011370581	 1.4059713889	 0.099063
H	 1.9611629762	 1.0664531099	 1.8019634394	 0.144731
H	 0.1943332056	-0.3549508436	 3.6620423129	 0.237942
H	 0.9958747168	 1.0223420447	 3.9835115774	 0.242118
48.5649	105.9758	155.2461	162.8828	195.1503	229.8187	256.872	292.0494	301.5736	324.1017	492.6264	510.4245	553.9839	579.9657	649.3077	777.3704	804.4531	856.598	899.7468	947.6147	984.7618	1010.5773	1057.5222	1086.6552	1120.0383	1137.8607	1154.6064	1178.9342	1221.4661	1251.1995	1293.7616	1307.233	1372.3778	1382.6607	1402.3318	1418.8675	1459.7149	1496.8231	1504.8721	1662.4837	2343.4959	3040.6951	3090.5769	3104.4429	3105.9099	3123.3387	3136.4415	3148.8803	3485.361	3564.2593	3807.6211
CC1C(O)C1C(N)C#N	C[C@H]1[C@@H](O)[C@H]1[C@@H](N)C#N	
InChI=1S/C6H10N2O/c1-3-5(6(3)9)4(8)2-7/h3-6,9H,8H2,1H3	InChI=1S/C6H10N2O/c1-3-5(6(3)9)4(8)2-7/h3-6,9H,8H2,1H3/t3-,4+,5-,6-/m1/s1
