19
gdb 81691	2.77131	1.56664	1.48131	1.9325	70.31	-0.2392	0.0755	0.3147	996.6836	0.159563	-460.138651	-460.130601	-460.129657	-460.170984	31.735	
C	-0.1396443501	 1.4574620028	-0.0066997318	-0.396484
C	 0.0371485652	-0.0544697228	-0.0901733766	 0.20864
O	 0.6567870806	-0.4386750323	-1.3099548572	-0.287408
C	 1.9859178231	-0.9283056151	-1.1968640889	 0.064558
C	 2.7946607651	-0.1135945047	-0.1532185207	-0.293381
C	 2.051923133	-0.9785667826	 0.8932793434	 0.056115
O	 0.6954614223	-0.5617124393	 1.0767149829	-0.314216
C	 2.0327912788	-2.1125378295	-0.16890724	 0.156048
O	 1.0107676196	-3.0534239234	-0.1197210423	-0.440563
H	 0.8183827429	 1.9803146355	 0.0143941885	 0.123646
H	-0.7068154325	 1.8029435328	-0.8756984443	 0.128028
H	-0.6955072221	 1.7093870394	 0.9009546237	 0.125346
H	-0.9569943422	-0.5224491164	-0.0926600965	 0.090433
H	 2.3522690627	-1.0608967889	-2.2151522932	 0.08379
H	 3.8587578498	-0.3604801013	-0.1800366107	 0.113806
H	 2.6704189555	 0.9677421694	-0.1293752853	 0.114738
H	 2.4596402687	-1.1387798917	 1.8923067459	 0.08345
H	 2.9909570909	-2.6364522114	-0.2292282974	 0.089855
H	 0.2708687886	-2.6316872904	 0.3348575705	 0.293599
87.645	181.5954	209.0287	217.3327	323.2184	389.4961	424.5501	436.7309	451.6595	556.881	643.0732	657.8324	757.5376	779.7749	821.7277	849.287	894.9227	934.3016	959.5445	972.7457	1032.912	1087.9958	1109.2347	1115.8578	1135.4641	1150.9426	1163.4084	1205.6534	1223.2719	1245.8529	1268.1966	1323.7203	1340.8651	1370.8557	1395.5637	1400.8651	1412.9861	1431.6896	1478.1217	1484.4327	1493.6907	3001.5314	3049.9168	3072.1607	3082.2872	3105.111	3112.872	3124.4307	3137.9858	3155.4929	3777.9868
CC1OC2CC(O1)C2O	C[C@H]1O[C@H]2C[C@@H](O1)[C@H]2O	
InChI=1S/C6H10O3/c1-3-8-4-2-5(9-3)6(4)7/h3-7H,2H2,1H3	InChI=1S/C6H10O3/c1-3-8-4-2-5(9-3)6(4)7/h3-7H,2H2,1H3/t3-,4-,5+,6-
