13
gdb 21112	3.5087	2.53571	1.48555	0.6145	64.44	-0.2506	-0.0916	0.159	783.0505	0.09732	-390.937173	-390.930561	-390.929616	-390.968078	24.087	
C	-0.0330497179	 1.4396433401	 0.0003767798	-0.309522
N	-0.0085961513	-0.0169315123	 0.0284698722	-0.010975
N	-0.0451576773	-0.6265108556	-1.1455328924	-0.040611
N	-0.0269464258	-1.9066394455	-1.2028357637	-0.217225
C	 0.0315619617	-2.5834578824	 0.0045776921	 0.109115
N	 0.0702209767	-2.0759267135	 1.1885052445	-0.287069
C	 0.0509647858	-0.6873227922	 1.2751202933	 0.447677
N	 0.0808247161	 0.0162713763	 2.3344196064	-0.555476
H	 0.8630416978	 1.8276923716	 0.4897004686	 0.164957
H	-0.0777044459	 1.7442092671	-1.044168257	 0.155052
H	-0.9013860692	 1.799525358	 0.556731922	 0.164902
H	 0.0453373802	-3.6659397857	-0.0994703086	 0.145332
H	 0.1225180391	-0.6068841558	 3.1400141226	 0.233844
96.3309	181.6799	242.1042	335.8025	365.6627	493.0059	553.8376	575.6543	643.8912	755.5667	781.5443	864.202	952.6627	974.251	1008.9873	1064.9577	1124.9143	1151.8543	1243.4146	1257.1892	1342.4199	1415.9656	1429.769	1464.8319	1485.5875	1501.4133	1631.8087	1726.9753	3063.7079	3133.6537	3170.3115	3178.8161	3505.7913
CN1N=NC=NC1=N	Cn1nncnc1[NH]	
InChI=1S/C3H5N5/c1-8-3(4)5-2-6-7-8/h2,4H,1H3	InChI=1S/C3H10N5/c1-8-3(4)5-2-6-7-8/h3-7H,2H2,1H3
