18
gdb 85245	2.67719	1.59078	1.15382	3.3184	71.87	-0.2452	0.0112	0.2564	1086.5235	0.148472	-439.120264	-439.111904	-439.11096	-439.152858	32.097	
C	 0.0424816485	 1.5258663805	-0.1015922623	-0.39649
C	 0.0063157578	 0.0160519024	 0.0666389319	 0.108165
O	 0.6220227073	-0.6070034502	-1.090158661	-0.242586
C	 1.3803876668	-1.6838181575	-0.7354477218	 0.382213
O	 1.7821295447	-2.484480974	-1.5317902625	-0.353206
C	 1.5880365988	-1.6914915048	 0.7563718252	 0.169536
N	 1.8095910919	-2.9133190597	 1.4627684067	-0.588617
C	 2.2359060626	-0.4194673684	 1.2686783028	-0.31344
C	 0.7419188862	-0.5496032573	 1.2730406876	-0.101119
H	 1.0703986057	 1.8977228041	-0.1114460827	 0.127921
H	-0.4405250106	 1.8153738585	-1.0384746942	 0.135288
H	-0.4913223856	 2.0045085473	 0.7252988199	 0.123377
H	-1.0378367635	-0.3229321121	 0.0868523036	 0.095331
H	 1.0833624873	-3.5868787365	 1.2340640361	 0.237303
H	 2.6828471665	-3.3287414169	 1.1483355448	 0.24508
H	 2.7312128943	-0.5280048478	 2.2264499007	 0.132419
H	 2.7222997879	 0.2476634921	 0.5651835099	 0.129559
H	 0.2164876533	-0.6299449695	 2.2160024255	 0.109265
130.6921	143.3315	221.7124	228.9022	241.469	299.6135	310.1834	399.7738	506.9765	516.7192	578.7437	678.5293	714.1314	781.0344	798.8301	866.6505	899.6107	914.4236	943.4513	983.465	1017.6835	1031.3575	1075.3763	1104.599	1113.7116	1133.6603	1161.2295	1270.9579	1285.7667	1314.5995	1360.7737	1382.7397	1409.0059	1417.9561	1483.8277	1487.7958	1498.1311	1669.2573	1870.8032	3018.9445	3046.9026	3120.1681	3129.0075	3137.4586	3199.3918	3231.4892	3486.2234	3554.6747
CC1OC(=O)C2(N)CC12	C[C@H]1OC(=O)[C@@]2(N)C[C@@H]12	
InChI=1S/C6H9NO2/c1-3-4-2-6(4,7)5(8)9-3/h3-4H,2,7H2,1H3	InChI=1S/C6H9NO2/c1-3-4-2-6(4,7)5(8)9-3/h3-4H,2,7H2,1H3/t3-,4+,6-/m1/s1
