25
gdb 86535	3.02492	0.932	0.89085	1.3469	88.85	-0.2526	0.076	0.3287	1485.6928	0.226825	-389.489617	-389.478968	-389.478024	-389.524853	41.025	
C	 0.1776397421	 1.5638413233	 0.3351201879	-0.415557
C	 0.0166805226	 0.0602565751	 0.0471656022	 0.241555
C	 0.6468231465	-0.7411797034	 1.20231974	-0.403182
C	-1.4846028743	-0.2737444954	-0.0463635881	-0.403323
C	 0.6935730132	-0.3681602947	-1.2704890393	 0.06109
C	 0.355539227	 0.3250625196	-2.6236131953	-0.276843
C	 1.8190439947	 0.1028408754	-3.0479856709	 0.146098
O	 2.3735770871	 1.1740947625	-3.7767318989	-0.433463
C	 2.1965428791	-0.0715832216	-1.5511683155	-0.304214
H	 1.2290350698	 1.8514941032	 0.4332501059	 0.111725
H	-0.2689864715	 2.1813738736	-0.4502859084	 0.113591
H	-0.3203070897	 1.8222552782	 1.2759573934	 0.107944
H	 0.1736317153	-0.4904464368	 2.1581366917	 0.106005
H	 0.5311505641	-1.819626484	 1.0460352968	 0.104952
H	 1.7173898052	-0.529494052	 1.2955123867	 0.112045
H	-1.9651697129	 0.2795127756	-0.8602680624	 0.113726
H	-1.6423583138	-1.3426101639	-0.2293577227	 0.105085
H	-2.0030492956	-0.0148206432	 0.8834493158	 0.105826
H	 0.5274612952	-1.4470658984	-1.3838577363	 0.062913
H	-0.4332158941	-0.0994680236	-3.2483743458	 0.095199
H	 0.1788875674	 1.397429034	-2.5021062005	 0.112763
H	 1.9313005342	-0.8468635342	-3.5913898009	 0.062889
H	 3.2869982059	 0.9554376076	-3.987269165	 0.27953
H	 2.5064192092	 0.8946418656	-1.1427655104	 0.105549
H	 2.9354991634	-0.8314823424	-1.2838215504	 0.0881
54.6921	82.56	181.3147	220.7596	256.7044	261.141	269.541	283.7215	308.6278	328.1164	372.6679	381.8201	457.5442	473.2151	501.5155	568.4862	727.3306	813.8218	823.3463	922.3072	931.1916	936.3024	946.3429	957.5487	998.9825	1006.1266	1029.3464	1032.0472	1072.6987	1119.1356	1125.3683	1190.2497	1212.215	1235.2163	1244.4566	1256.0621	1265.5593	1286.5374	1289.7968	1331.407	1380.2707	1397.1553	1398.8072	1425.8689	1435.5762	1468.5426	1482.6866	1484.6604	1485.711	1500.7875	1505.9403	1507.5937	1518.0228	2989.1585	3017.2965	3020.651	3024.7184	3034.6249	3052.5923	3063.4805	3087.5835	3090.7219	3092.8418	3094.174	3098.272	3105.3511	3112.0722	3119.8817	3813.9897
CC(C)(C)C1CC(O)C1	CC(C)(C)[C@H]1C[C@@H](O)C1	
InChI=1S/C8H16O/c1-8(2,3)6-4-7(9)5-6/h6-7,9H,4-5H2,1-3H3	InChI=1S/C8H16O/c1-8(2,3)6-4-7(9)5-6/h6-7,9H,4-5H2,1-3H3/t6-,7+
