15
gdb 112139	3.23472	1.20741	0.93357	5.0432	63.23	-0.284	-0.0738	0.2103	1217.6723	0.111859	-494.974478	-494.966294	-494.96535	-495.007998	29.144	
C	 0.0056579818	 1.5314559297	 0.0081658765	-0.394628
C	-0.0042565524	 0.0005584676	 0.002756618	-0.204209
C	-1.4083127858	-0.5701546601	 0.00613085	 0.220287
O	-2.1173648227	-0.2070149775	-1.1820016529	-0.221449
C	-2.5230105828	-1.3191035085	-1.8421308754	 0.316045
O	-3.1354980513	-1.3263455712	-2.8613958564	-0.296146
C	-2.0290365882	-2.5148343239	-1.0185235874	 0.312358
O	-2.1665617115	-3.6742520509	-1.2444347291	-0.295626
O	-1.3759565116	-1.998390932	 0.0507494781	-0.221733
H	 1.0327708988	 1.9040527214	 0.0162572583	 0.132821
H	-0.4951895901	 1.9316037981	-0.877039925	 0.146928
H	-0.5004731936	 1.9298098979	 0.8939058205	 0.126321
H	 0.517306283	-0.3934551191	-0.8767888496	 0.122922
H	 0.5061494109	-0.3966611667	 0.8868284545	 0.130127
H	-1.9934475646	-0.2188133448	 0.8636869399	 0.125982
72.9278	109.1039	119.1669	216.6883	248.2178	335.9384	389.2221	453.0318	468.7222	626.889	629.0443	731.2036	760.323	815.835	838.3289	909.8614	974.6008	1017.5765	1060.7811	1107.3369	1142.0823	1164.7421	1274.4812	1287.234	1333.1447	1384.4132	1409.7923	1420.82	1477.2892	1499.9317	1508.8805	1894.9956	1932.5512	3044.4629	3046.4776	3054.9998	3090.4758	3117.1019	3131.9583
CCC1OC(=O)C(=O)O1	CCC1OC(=O)C(=O)O1	
InChI=1S/C5H6O4/c1-2-3-8-4(6)5(7)9-3/h3H,2H2,1H3	InChI=1S/C5H6O4/c1-2-3-8-4(6)5(7)9-3/h3H,2H2,1H3
