27
gdb 117717	3.3268	0.70136	0.6757	0.9291	93.7	-0.2512	0.0781	0.3293	1885.8281	0.249064	-390.695861	-390.68375	-390.682805	-390.73326	43.834	
C	-0.1453315135	 1.6353387743	 0.0122970835	-0.375969
C	 0.0036114209	 0.1104663418	 0.0026308327	-0.189606
C	-1.3538241414	-0.6047189964	 0.0117012728	-0.180372
C	-1.3283421932	-2.1530492867	 0.003134352	 0.22771
C	-0.646189396	-2.6926974011	-1.2680926682	-0.409977
C	-0.6221089156	-2.7062637304	 1.2552369735	-0.409974
C	-2.7967906287	-2.6146360467	 0.0146751946	-0.06058
O	-2.863465943	-4.0256068444	 0.0078656223	-0.239343
C	-4.1811381637	-4.5143298127	 0.0178799174	-0.226173
H	 0.8301257114	 2.1317682636	 0.0056485257	 0.109683
H	-0.7029990662	 1.9850914798	-0.8638693008	 0.112334
H	-0.6861019626	 1.9755449383	 0.9026980632	 0.112335
H	 0.5784262735	-0.1886611244	-0.8815783199	 0.099162
H	 0.5951489259	-0.1981473228	 0.8724333215	 0.099163
H	-1.9152130178	-0.2706523618	 0.8962377267	 0.085627
H	-1.9319064047	-0.2612167625	-0.8583496757	 0.085627
H	 0.4214114743	-2.4555312711	-1.2809961772	 0.108535
H	-0.7541440095	-3.77835428	-1.3241283619	 0.128575
H	-1.0970419817	-2.26232069	-2.1700991711	 0.101118
H	-1.0555979946	-2.2856304483	 2.1702571769	 0.101117
H	-0.7291196314	-3.7924687036	 1.3016578223	 0.128579
H	 0.445576197	-2.4691769763	 1.2502996034	 0.108533
H	-3.3079791407	-2.2185363905	 0.9099498932	 0.077532
H	-3.3248977778	-2.2091488077	-0.8664655928	 0.077534
H	-4.1273479952	-5.6059412034	 0.0116591427	 0.124797
H	-4.7315066921	-4.1908986282	 0.9161399859	 0.102016
H	-4.7485094933	-4.1815783887	-0.8662870126	 0.102016
68.8523	76.7788	102.8403	115.5171	122.3856	224.7432	236.6545	248.408	258.2835	265.3968	309.5413	333.2881	334.4128	342.4539	417.6961	442.6727	599.0418	747.8602	763.3657	870.2734	883.4696	935.0137	942.4244	963.3783	992.4249	1008.9376	1016.8922	1054.4528	1109.4072	1111.0739	1158.3195	1183.3809	1211.0453	1227.8046	1231.7188	1267.1068	1268.0344	1311.3373	1329.7695	1357.4111	1396.9171	1397.9314	1402.5066	1414.8491	1431.033	1476.9982	1482.3648	1484.0283	1486.6221	1494.6181	1497.9401	1498.3546	1501.9086	1507.0532	1511.783	1517.5646	1526.9271	2937.0688	2967.1134	2967.8311	2994.4208	3008.2687	3026.1418	3027.7163	3030.2992	3033.226	3037.0292	3066.7843	3095.8209	3098.6122	3099.9362	3101.6762	3110.1783	3123.687	3127.3275
CCCC(C)(C)COC	CCCC(C)(C)COC	
InChI=1S/C8H18O/c1-5-6-8(2,3)7-9-4/h5-7H2,1-4H3	InChI=1S/C8H18O/c1-5-6-8(2,3)7-9-4/h5-7H2,1-4H3
