14
gdb 14632	2.82807	1.35886	0.98053	5.4954	56.45	-0.2891	-0.0031	0.286	1120.8051	0.104722	-456.849119	-456.840547	-456.839603	-456.885625	27.463	
O	 1.0061253993	 0.187474324	-0.6157360265	-0.261661
C	 0.8350136067	 1.3660969744	-0.6243565025	 0.177566
O	 1.2714151243	 2.1678654299	 0.3763262083	-0.184946
C	 1.0338239704	 3.5697156022	 0.274246287	-0.085938
C	 2.3513440395	 4.3044929921	 0.0941140095	-0.085958
O	 2.8915120931	 4.0210464389	-1.1943085988	-0.184938
C	 4.0319838565	 3.2941686476	-1.2688182344	 0.177551
O	 4.5368212194	 3.0074091397	-2.3087412572	-0.261689
H	 0.3109342616	 1.9252326186	-1.4223600146	 0.091748
H	 0.3645482283	 3.7892961774	-0.5663802981	 0.131074
H	 0.5501776906	 3.8944048065	 1.2010579224	 0.132169
H	 2.1866135163	 5.3849035983	 0.1562903731	 0.132189
H	 3.0548288112	 4.0108161468	 0.8825632056	 0.131083
H	 4.4264166128	 3.0144697634	-0.2736807238	 0.091749
10.2216	38.5055	103.163	147.2549	175.3193	264.3346	367.1679	401.6405	492.2906	621.5981	634.4183	903.6861	938.8407	1037.8285	1039.4303	1051.75	1053.5865	1116.0392	1145.6858	1212.0419	1301.2776	1320.6336	1399.1418	1402.5008	1427.8694	1433.1696	1490.6529	1496.5126	1869.6071	1881.7913	2962.6035	2964.4044	3036.2124	3037.4071	3092.6131	3096.3655
O=COCCOC=O	O=COCCOC=O	
InChI=1S/C4H6O4/c5-3-7-1-2-8-4-6/h3-4H,1-2H2	InChI=1S/C4H6O4/c5-3-7-1-2-8-4-6/h3-4H,1-2H2
