16
gdb 30764	3.14947	1.17546	0.89372	2.8769	69.1	-0.1897	0.0356	0.2253	1243.0801	0.123349	-475.037615	-475.028017	-475.027073	-475.07255	34.216	
O	 0.1232301859	 1.3288594067	 0.4092895888	-0.422236
C	-0.0234646566	 0.1366826397	-0.3703646009	-0.184815
C	-1.3529218649	-0.5061219672	-0.1852034897	 0.184429
C	-1.7070388772	-1.8023048066	 0.1218534953	 0.182629
O	-0.8506440757	-2.8495820127	 0.3012544199	-0.462758
C	-3.1248952426	-1.8621893778	 0.1920922331	 0.199876
O	-3.7616294504	-3.0447989238	 0.4650270195	-0.468125
C	-3.6139239613	-0.6016060298	-0.0646519242	-0.215741
N	-2.5290538052	 0.2058195925	-0.3240276266	-0.302997
H	-0.0085435885	 1.0768458482	 1.3300175433	 0.279408
H	 0.1257429855	 0.4701547245	-1.4046628403	 0.114895
H	 0.7592623998	-0.6009422054	-0.1487062144	 0.115813
H	-1.3869438577	-3.627381155	 0.491070174	 0.30387
H	-4.7131147615	-2.9139254245	 0.4298875365	 0.299607
H	-4.623709156	-0.2259230551	-0.0929700308	 0.112343
H	-2.5499117337	 1.2102624263	-0.3509535635	 0.263801
55.23	69.6769	116.5417	213.5466	242.1262	271.1254	295.5316	298.6798	365.5338	393.5089	445.8192	547.3114	590.8178	630.214	659.9141	701.9284	761.9622	773.2085	962.7235	987.5303	1047.2809	1109.4446	1145.7702	1193.533	1250.4359	1283.2638	1326.919	1343.7381	1384.1661	1418.2936	1470.8524	1501.9395	1520.3057	1602.3436	1687.4338	3015.9276	3052.7547	3260.3358	3683.0008	3800.465	3814.5953	3848.3854
OCC1=C(O)C(O)=CN1	OCc1c(O)c(O)c[nH]1	
InChI=1S/C5H7NO3/c7-2-3-5(9)4(8)1-6-3/h1,6-9H,2H2	InChI=1S/C5H7NO3/c7-2-3-5(9)4(8)1-6-3/h1,6-9H,2H2
