19
gdb 86800	4.80154	0.82576	0.75209	1.0282	83.24	-0.2476	0.0097	0.2573	1498.5688	0.158434	-385.865299	-385.85626	-385.855316	-385.899595	34.17	
O	 0.0700095465	 1.4737420356	 0.0648353199	-0.432474
C	 0.0697935227	 0.052136769	 0.0481832512	 0.108922
C	-1.345454959	-0.5846452622	-0.0159104068	-0.272714
C	-1.2242975974	-1.8192357477	-0.9443263283	-0.027243
C	-2.4518495678	-2.0210848611	-1.8647306852	-0.365315
C	-2.3494069721	-3.2058146093	-2.7080776448	 0.298329
C	-2.2375234522	-4.1902182834	-3.3892619027	-0.442601
C	 0.0689803867	-1.5563490212	-1.6832753387	-0.063243
C	 0.7671761157	-0.5582301153	-1.1459101047	-0.131654
H	-0.2756581737	 1.7695442413	-0.7849907232	 0.272381
H	 0.583258378	-0.2206899019	 0.9790107859	 0.095229
H	-1.7479406853	-0.8264874773	 0.9705721149	 0.105639
H	-2.0213515911	 0.1528007899	-0.4670872	 0.09533
H	-1.1178181474	-2.7343557388	-0.3458002562	 0.095957
H	-3.3554037628	-2.0905341136	-1.2454673636	 0.131541
H	-2.5773920186	-1.1299198413	-2.4937857399	 0.126092
H	-2.1528403672	-5.0569989402	-3.9965535472	 0.195559
H	 0.3725333615	-2.1620640821	-2.5301086168	 0.11062
H	 1.7395717135	-0.2072565606	-1.4739871838	 0.099644
47.0915	80.6156	137.2945	218.7482	274.8822	343.5192	351.183	378.4259	410.9087	481.6476	574.8765	620.4239	627.2224	642.3223	746.228	791.2588	842.1615	864.6578	907.3393	952.4395	989.0967	1014.9582	1024.2849	1049.9874	1086.2381	1111.9783	1144.7641	1170.6306	1209.396	1252.8366	1278.7327	1297.3484	1322.3305	1332.0313	1354.038	1381.022	1429.7413	1471.2147	1485.6402	1682.1219	2236.1564	3005.7154	3016.4223	3025.4311	3033.4495	3051.3267	3101.8907	3183.8418	3208.5099	3506.698	3793.2207
OC1CC(CC#C)C=C1	O[C@H]1C[C@@H](CC#C)C=C1	
InChI=1S/C8H10O/c1-2-3-7-4-5-8(9)6-7/h1,4-5,7-9H,3,6H2	InChI=1S/C8H10O/c1-2-3-7-4-5-8(9)6-7/h1,4-5,7-9H,3,6H2/t7-,8+/m0/s1
