18
gdb 75950	2.26508	1.84701	1.06459	4.4861	75.3	-0.2158	0.0048	0.2206	1119.6892	0.147988	-439.138861	-439.130116	-439.129171	-439.172416	32.083	
C	-0.0205110009	 1.4470813609	 0.0167855429	-0.350473
N	 0.0629572975	-0.0103995403	 0.0340884288	-0.225247
C	-0.0705587823	-0.6630704666	-1.1912053807	 0.468093
O	-0.2998977588	-0.089494377	-2.2270668127	-0.385685
O	 0.0242124687	-2.0091702446	-1.1639372611	-0.24059
C	 0.7164945322	-2.6483988874	-0.0748705995	-0.138655
C	 0.3487110922	-2.0296486301	 1.2324074897	-0.206944
C	 0.0533449675	-0.7276076353	 1.250686257	 0.374493
C	-0.3237547247	 0.02182335	 2.4956485817	-0.488345
H	 0.8040082163	 1.8864259417	 0.5852765814	 0.128284
H	 0.0451043338	 1.7638081082	-1.02155937	 0.17687
H	-0.9680375928	 1.8076191175	 0.4312748962	 0.129326
H	 0.427197832	-3.7004495093	-0.132885116	 0.129944
H	 1.7983041418	-2.589938014	-0.2750948392	 0.116875
H	 0.3106631788	-2.6302913402	 2.1310218493	 0.099005
H	-0.3110712712	-0.6577308089	 3.3493198663	 0.135161
H	 0.3707440673	 0.8421169438	 2.7062597233	 0.137443
H	-1.3257069176	 0.4583478517	 2.4185564126	 0.140446
75.6723	111.9322	163.4087	205.6169	225.4716	263.0736	335.129	389.4522	467.6402	533.7693	561.44	570.3682	698.8273	728.7012	746.6588	781.7754	940.2384	953.9605	1035.0975	1059.4484	1068.0706	1109.4311	1141.6498	1155.0687	1191.0397	1249.2766	1259.528	1310.3338	1385.6272	1419.0601	1433.9121	1454.5088	1477.6357	1489.3337	1506.1352	1507.3995	1517.6746	1744.1049	1822.9712	2974.5034	3033.8065	3041.7587	3087.9424	3094.189	3098.2289	3136.3622	3181.0498	3220.857
CN1C(=O)OCC=C1C	CN1C(=O)OCC=C1C	
InChI=1S/C6H9NO2/c1-5-3-4-9-6(8)7(5)2/h3H,4H2,1-2H3	InChI=1S/C6H9NO2/c1-5-3-4-9-6(8)7(5)2/h3H,4H2,1-2H3
