21
gdb 82791	2.47469	1.9501	1.59491	0.1955	85.54	-0.226	0.0206	0.2465	966.7087	0.185552	-349.942672	-349.935507	-349.934563	-349.973782	30.215	
C	-0.2870663527	 1.5708307136	 0.0609961405	-0.413354
C	 0.0145391599	 0.0819395709	-0.0159566071	 0.033775
C	 0.7307639278	-0.5230702653	-1.2615136728	-0.042928
C	 1.9613336737	 0.2323200464	-1.8363140919	-0.242211
C	 2.8945570413	-0.4499386172	-0.7673451962	-0.06315
C	 3.2084668571	 0.4106877817	 0.4286035189	-0.080162
C	 2.2389226338	 0.3597010021	 1.3447426771	-0.075433
C	 1.1152578348	-0.5550479328	 0.9295083767	-0.094902
C	 1.6800502243	-1.319935252	-0.309561764	-0.037043
H	 0.6224692779	 2.1733530495	-0.0194080032	 0.119352
H	-0.964824024	 1.875199432	-0.7448199872	 0.109948
H	-0.7682909104	 1.8255832602	 1.0123432093	 0.109034
H	-0.9168556241	-0.4775760727	 0.1285500444	 0.069491
H	 0.078735047	-0.997017018	-1.997483149	 0.057578
H	 2.1901228378	-0.0996730087	-2.8531380152	 0.096064
H	 1.9370189921	 1.3253370683	-1.8299339256	 0.094238
H	 3.7627148349	-0.9611748391	-1.1905012768	 0.063706
H	 4.0936692237	 1.0355147748	 0.4872811512	 0.088689
H	 2.2180203025	 0.937706129	 2.2626678505	 0.08882
H	 0.6999113775	-1.1396835576	 1.7545569654	 0.061264
H	 1.7664746649	-2.4058099951	-0.2835742448	 0.057226
146.0838	204.8196	233.4738	302.9673	375.6791	478.252	534.2539	609.3269	637.8028	737.8616	763.339	785.2013	806.9168	820.5719	870.9653	882.0327	908.0048	936.9978	955.7891	965.7197	970.8671	1000.8818	1029.0132	1078.0047	1108.6913	1111.2315	1134.1611	1141.1443	1159.04	1178.8982	1208.4589	1232.474	1249.4002	1257.9201	1286.924	1298.5262	1325.9522	1332.9814	1353.1624	1380.0426	1408.3856	1477.5765	1492.899	1505.0844	1667.4167	3024.8555	3030.6792	3048.5955	3065.1638	3069.8455	3081.2285	3086.1816	3101.3099	3106.9238	3114.1442	3174.1492	3199.8532
CC1C2CC3C=CC1C23	C[C@H]1[C@H]2C[C@H]3C=C[C@@H]1[C@@H]23	
InChI=1S/C9H12/c1-5-7-3-2-6-4-8(5)9(6)7/h2-3,5-9H,4H2,1H3	InChI=1S/C9H12/c1-5-7-3-2-6-4-8(5)9(6)7/h2-3,5-9H,4H2,1H3/t5-,6-,7+,8-,9+/m1/s1
