22
gdb 26650	2.17651	1.52837	0.91832	1.6277	92.82	-0.178	0.0539	0.232	1342.1702	0.192361	-367.278418	-367.267463	-367.266519	-367.314491	38.88	
C	 0.0162455265	 1.4972327331	 0.129381773	-0.507859
C	 0.0223875339	 0.0124852821	-0.0320245004	 0.211717
C	-0.0023154978	-0.7922717156	-1.1509638712	 0.137181
C	-0.0447205518	-0.3586660018	-2.5851809057	-0.508739
C	 0.0196206686	-2.1577655604	-0.703111345	 0.137183
C	 0.0033639249	-3.3574136017	-1.6016480309	-0.508739
C	 0.057073643	-2.1426145738	 0.6748007725	 0.211717
C	 0.0931779603	-3.2429293205	 1.6840397385	-0.507859
N	 0.0582663831	-0.8207917071	 1.0652590826	-0.363771
H	 0.9112166134	 1.8616545902	 0.6508431037	 0.121081
H	-0.0127365863	 1.9878219656	-0.845851152	 0.13453
H	-0.8550391635	 1.8494710247	 0.6972546321	 0.12111
H	 0.8231541604	-0.7250062963	-3.1484504967	 0.118446
H	-0.9355089547	-0.7398881254	-3.1007695137	 0.118453
H	-0.0565667376	 0.7307078221	-2.6814641314	 0.113321
H	 0.8646676967	-3.369873194	-2.2818434178	 0.118447
H	 0.0257421553	-4.2920572365	-1.0341227395	 0.113321
H	-0.8939856273	-3.3824135928	-2.2331743467	 0.118451
H	 0.9949441493	-3.2031887852	 2.3093046541	 0.121123
H	-0.7711843915	-3.2141003036	 2.3605876861	 0.121068
H	 0.0848100542	-4.2163287978	 1.1890444034	 0.13453
H	 0.0824131809	-0.5072457754	 2.020076925	 0.245287
76.2776	79.216	117.4406	121.4822	147.5795	171.5277	251.8279	268.623	278.9197	285.1745	326.5778	428.7642	499.2583	561.6249	595.3219	643.5701	676.304	718.5512	817.5537	963.3479	969.3075	1017.3327	1048.855	1051.7626	1063.6124	1073.546	1103.7977	1160.0546	1208.4906	1240.9605	1328.7526	1408.0024	1410.0569	1420.8538	1432.0042	1449.559	1475.5287	1476.604	1480.1706	1481.3007	1487.1003	1491.83	1494.8646	1503.9409	1509.7349	1587.3168	1663.333	3007.6171	3009.0961	3012.7402	3014.7278	3048.0251	3048.3877	3053.3784	3054.0051	3100.7033	3102.1697	3123.0029	3123.097	3671.9511
CC1=C(C)C(C)=C(C)N1	Cc1c(C)c(C)c(C)[nH]1	
InChI=1S/C8H13N/c1-5-6(2)8(4)9-7(5)3/h9H,1-4H3	InChI=1S/C8H13N/c1-5-6(2)8(4)9-7(5)3/h9H,1-4H3
