21
gdb 118822	2.57021	0.87635	0.74474	4.3542	81.41	-0.2455	-0.0196	0.2259	1603.0989	0.17934	-424.227093	-424.216712	-424.215768	-424.262918	37.583	
C	 0.0160563619	 1.5988455965	-0.1297667006	-0.384314
C	 0.177651783	 0.076603909	-0.119422661	-0.18133
C	 0.4990089049	-0.4768589223	 1.2767088636	-0.232052
C	 0.6731188032	-1.984537125	 1.2899622958	 0.396575
O	-0.4690811468	-2.6989095941	 0.8919198101	-0.466342
C	 1.9968857097	-2.6165864628	 1.0046249899	-0.358896
C	 1.4061244286	-2.7016462829	 2.4171431673	-0.147995
C	 2.0706569065	-1.9796588706	 3.5243941117	 0.159466
O	 2.0726499574	-2.3494932405	 4.6730304836	-0.26817
H	 0.9342567296	 2.0972150925	 0.2000642224	 0.117418
H	-0.2209071867	 1.9666290564	-1.1326683133	 0.115503
H	-0.7903596062	 1.9145798998	 0.5408221533	 0.121185
H	-0.7473293795	-0.3856602966	-0.4862416511	 0.09701
H	 0.9729103859	-0.2153078652	-0.8181253738	 0.097514
H	 1.4085730519	 0.0044747908	 1.6530214557	 0.0973
H	-0.3093560369	-0.2124008566	 1.9697525474	 0.113954
H	-0.5375701914	-2.6383330787	-0.0670911496	 0.288386
H	 2.0171797398	-3.5406463328	 0.4388033858	 0.127335
H	 2.8603173121	-1.9716259274	 0.8705255271	 0.121554
H	 0.9613507975	-3.6476764399	 2.7035543828	 0.121333
H	 2.6092692753	-1.0503439096	 3.2252991928	 0.064566
72.2164	85.9559	91.8074	134.069	204.4728	243.9087	248.5892	262.6352	324.1032	383.6751	406.68	413.1948	464.3372	569.8118	739.4153	758.9897	846.2258	873.6308	876.0612	913.4892	938.3365	978.0592	1035.8097	1046.901	1052.9293	1072.0959	1105.8379	1121.1219	1172.6123	1219.4885	1275.9091	1290.7675	1316.5534	1323.6192	1335.0907	1375.8264	1399.4622	1413.6427	1447.0374	1475.8952	1477.907	1494.5188	1499.2522	1510.3304	1815.2371	2854.4384	3015.8437	3030.0566	3034.063	3047.1044	3077.4503	3100.5273	3106.0388	3128.6419	3190.6192	3224.7336	3804.27
CCCC1(O)CC1C=O	CCC[C@@]1(O)C[C@H]1C=O	
InChI=1S/C7H12O2/c1-2-3-7(9)4-6(7)5-8/h5-6,9H,2-4H2,1H3	InChI=1S/C7H12O2/c1-2-3-7(9)4-6(7)5-8/h5-6,9H,2-4H2,1H3/t6-,7+/m0/s1
