22
gdb 121899	2.48314	0.94428	0.89172	4.0773	80.83	-0.2298	0.0392	0.269	1498.6132	0.191583	-441.501593	-441.490431	-441.489487	-441.539179	38.417	
C	-0.4534004771	 1.5687178402	-0.2681638891	-0.22549
O	-0.3673540467	 0.166680382	-0.1878089629	-0.219826
C	 0.3170230672	-0.4069311313	-1.2747795353	-0.059695
C	 0.3977184821	-1.9182983415	-1.0699825745	-0.195567
N	-0.9003560747	-2.5538859207	-0.8908897145	-0.067579
C	-1.8768207679	-2.3674669217	-1.9468239714	-0.341215
C	-1.1756476647	-3.1571197912	 0.3159544338	 0.415214
C	-2.583068507	-3.7061917348	 0.5109377188	-0.502932
O	-0.3367559004	-3.2689463444	 1.1938027885	-0.373748
H	 0.5420702437	 2.0403198826	-0.2684546366	 0.105641
H	-0.9857048586	 1.8956752316	-1.1762369666	 0.100063
H	-1.0063433105	 1.9134350013	 0.608834436	 0.130404
H	-0.1924099885	-0.1582762017	-2.2226143542	 0.079861
H	 1.3439123465	-0.0105120347	-1.3540502786	 0.090551
H	 0.9132767424	-2.3542773386	-1.9378108687	 0.095982
H	 0.975395864	-2.1414659343	-0.1730949733	 0.159043
H	-2.6492807599	-3.134400871	-1.9065774721	 0.135389
H	-2.3636316813	-1.3838906672	-1.8980282348	 0.130311
H	-1.3808593196	-2.4515802697	-2.9205746708	 0.125142
H	-2.7972688479	-4.5257638727	-0.1831020168	 0.136549
H	-2.6409451367	-4.0868876116	 1.5298782543	 0.146771
H	-3.3488731044	-2.9380259805	 0.3674085989	 0.135131
35.9544	58.7433	89.1854	112.3016	133.2369	189.5219	209.2715	244.8033	255.0167	325.4919	341.8908	395.8135	466.067	558.0234	589.2249	608.6879	732.1701	848.9161	911.2418	1004.7157	1039.679	1045.3774	1048.9787	1091.1634	1144.4464	1166.7436	1172.8032	1188.8466	1226.2988	1245.3923	1291.1392	1306.8938	1379.5577	1395.9978	1416.2981	1433.0861	1460.7677	1475.6497	1477.1255	1482.8127	1486.7078	1492.5484	1495.5768	1501.7552	1522.4136	1534.4624	1762.5749	2945.1591	2967.9673	2974.0908	3005.6112	3010.7348	3011.294	3043.6759	3065.0046	3107.0714	3115.8946	3142.8285	3147.7254	3162.5718
COCCN(C)C(C)=O	COCCN(C)C(=O)C	
InChI=1S/C6H13NO2/c1-6(8)7(2)4-5-9-3/h4-5H2,1-3H3	InChI=1S/C6H13NO2/c1-6(8)7(2)4-5-9-3/h4-5H2,1-3H3
