19
gdb 110626	2.42252	1.41972	1.08936	2.8345	74.74	-0.2251	0.0562	0.2814	1169.3668	0.157379	-422.934227	-422.925482	-422.924538	-422.967802	33.371	
C	-0.0831121724	 1.4924808801	 0.1091852306	-0.495665
C	 0.0137929718	-0.0032404471	 0.0232206036	 0.284567
C	-0.8412919998	-0.9685400161	 0.8085246106	-0.0913
C	-1.7834988547	-2.0782152696	 0.3256245824	-0.101349
O	-2.9259307006	-2.1751440156	 1.1738216321	-0.424599
C	 0.6598064302	-1.0055523308	 0.9943724743	-0.18664
C	 1.4022198167	-1.6441953948	-0.2155459726	 0.023238
O	 0.4410538481	-2.1007105844	-1.1836512141	-0.239673
C	 0.7821404144	-0.7081473999	-1.143048611	-0.038336
H	 0.882622471	 1.970939165	-0.0938470823	 0.117852
H	-0.8064541899	 1.8873925935	-0.6149838422	 0.125181
H	-0.4068911204	 1.8076692228	 1.105959212	 0.123764
H	-1.3117651293	-0.4362360779	 1.6358007286	 0.094559
H	-2.1734795598	-1.8453460629	-0.6680733094	 0.118495
H	-1.2622175654	-3.0373386444	 0.2533022004	 0.106115
H	-2.6391320358	-2.5669061135	 2.0044588224	 0.278677
H	 1.1469916868	-0.8004588678	 1.9400321931	 0.088875
H	 2.374755152	-2.1207258734	-0.2129788994	 0.110266
H	 1.136455007	-0.2470807931	-2.0578139794	 0.105972
49.5498	173.3264	193.9075	218.2865	223.4261	275.5338	319.724	385.5552	421.326	509.5906	570.8695	681.1879	747.1809	777.5457	814.7904	857.2322	881.618	913.3017	926.0929	956.2356	975.9935	1000.5158	1041.8641	1053.1446	1069.8785	1109.5273	1126.343	1185.3971	1217.6136	1224.0526	1251.2572	1282.1996	1306.8496	1357.9441	1391.7198	1407.2805	1416.0672	1456.8252	1484.1227	1488.3862	1498.1179	3017.3189	3052.1171	3072.2535	3098.8842	3105.662	3111.4112	3178.9489	3184.5121	3199.3453	3819.582
CC12C(CO)C1C1OC21	C[C@]12[C@@H](CO)[C@H]1[C@H]1O[C@@H]21	
InChI=1S/C7H10O2/c1-7-3(2-8)4(7)5-6(7)9-5/h3-6,8H,2H2,1H3	InChI=1S/C7H10O2/c1-7-3(2-8)4(7)5-6(7)9-5/h3-6,8H,2H2,1H3/t3-,4-,5+,6+,7-/m0/s1
