19
gdb 94046	5.02533	0.86614	0.78065	1.8621	78.06	-0.2491	0.0557	0.3048	1476.4703	0.157417	-423.000616	-422.991196	-422.990252	-423.035995	33.944	
C	-0.3722730744	 1.5319407909	 0.1426505085	-0.414017
C	 0.1999928753	 0.1317575611	 0.0415773332	 0.118758
C	 1.0554896316	-0.1554451181	-1.2034182563	-0.093703
O	 2.0597429933	-1.0516483075	-0.7418300765	-0.268262
C	 1.9505922575	-1.1493153103	 0.6697471094	 0.223045
C	 3.3210975837	-1.0215604943	 1.3392445927	-0.372088
C	 4.1999650578	-2.1459747526	 1.0527716954	 0.304959
C	 4.9145708486	-3.0837060047	 0.8224643889	-0.450099
O	 1.1368921826	-0.0864879249	 1.0955861098	-0.266846
H	 0.4284572742	 2.2755301376	 0.091075414	 0.128931
H	-1.0753003275	 1.71560891	-0.6758290377	 0.122867
H	-0.9068452687	 1.6621162988	 1.0872040872	 0.132941
H	-0.6072061446	-0.6153158748	 0.1145524687	 0.07617
H	 0.4830578352	-0.6221283562	-2.0124129374	 0.107891
H	 1.5219800875	 0.7630805768	-1.5854804063	 0.099338
H	 1.4871668619	-2.1187204875	 0.924892376	 0.076327
H	 3.768216328	-0.0800874089	 1.001562261	 0.137921
H	 3.1551018999	-0.9354380491	 2.4196607344	 0.140171
H	 5.5505805579	-3.9073415965	 0.6124480247	 0.195698
38.2196	60.3754	93.3476	160.2	219.2226	271.6898	343.6865	353.133	415.0319	458.0439	530.2629	621.2156	627.6458	648.3484	741.5538	832.6499	874.7973	917.129	955.6385	983.0365	1022.1811	1051.9375	1071.1239	1114.1795	1145.779	1161.7043	1178.8484	1223.5201	1234.9063	1301.2459	1334.1554	1364.2045	1380.5089	1405.9684	1409.7567	1435.7726	1455.5637	1484.9509	1498.6621	1528.0768	2245.0782	2947.5894	2969.5284	3007.5251	3038.3029	3043.9408	3066.1182	3082.0097	3117.4247	3124.5962	3507.8464
CC1COC(CC#C)O1	C[C@H]1CO[C@@H](CC#C)O1	
InChI=1S/C7H10O2/c1-3-4-7-8-5-6(2)9-7/h1,6-7H,4-5H2,2H3	InChI=1S/C7H10O2/c1-3-4-7-8-5-6(2)9-7/h1,6-7H,4-5H2,2H3/t6-,7+/m0/s1
