18
gdb 6881	2.91426	1.67467	1.47257	3.3263	73.57	-0.2444	0.0156	0.26	963.0061	0.151786	-343.978141	-343.96908	-343.968136	-344.011154	32.909	
C	-0.2495544595	 1.4850259506	 0.0005715529	-0.327888
N	 0.0296057263	 0.0555156116	 0.0853178253	-0.120801
C	 1.3557834297	-0.4494898622	-0.3034095097	-0.21579
C	 2.4095918676	 0.4589567967	-0.6796736367	 0.297973
N	 3.2470353761	 1.1916129524	-0.9986888739	-0.348107
C	 0.8795119732	-0.4970454355	 1.1343870331	 0.305918
C	 1.5337171175	 0.3915746886	 2.1758194648	-0.464459
C	 0.4086364805	-1.83832763	 1.6639933442	-0.436959
H	 0.6098576467	 2.1411905307	 0.1868139362	 0.129681
H	-0.6289934746	 1.7020516545	-1.0020818366	 0.137266
H	-1.0372192278	 1.7242589707	 0.7207713181	 0.130098
H	 1.3403349976	-1.3599521881	-0.8980670506	 0.128084
H	 1.9813843911	 1.2913143972	 1.7526975091	 0.146305
H	 0.7975404633	 0.6902448783	 2.9300844427	 0.126661
H	 2.3262298982	-0.1613000347	 2.6893691521	 0.133067
H	 1.2486344741	-2.4198368015	 2.0581916854	 0.123265
H	-0.3107132701	-1.6919486346	 2.4774060377	 0.125022
H	-0.0845659301	-2.4137502747	 0.8775260657	 0.130663
132.9172	144.6411	167.5252	173.8992	202.0607	235.6306	282.9402	350.6553	386.2221	407.9134	469.1548	559.7677	623.4031	704.1721	724.1738	863.2552	958.8765	970.5817	1009.4397	1032.2377	1075.4515	1136.1217	1154.557	1166.25	1185.1213	1274.9127	1329.9321	1392.6105	1410.0142	1423.8369	1455.651	1477.7025	1482.9614	1490.3248	1494.9708	1507.1466	1514.29	2343.0341	3019.8983	3034.184	3043.9702	3090.3332	3097.6208	3103.7981	3115.3981	3128.0338	3133.1777	3145.7705
CN1C(C#N)C1(C)C	CN1[C@@H](C#N)C1(C)C	
InChI=1S/C6H10N2/c1-6(2)5(4-7)8(6)3/h5H,1-3H3	InChI=1S/C6H10N2/c1-6(2)5(4-7)8(6)3/h5H,1-3H3/t5-,8?/m0/s1
