18
gdb 56003	3.7939	0.96815	0.86488	2.8157	73.01	-0.2401	-0.0111	0.229	1346.0298	0.147252	-439.120089	-439.111147	-439.110202	-439.155357	31.366	
C	 0.1267065995	 0.9157640892	-0.854398079	-0.481854
C	 0.0179361226	-0.0119219025	 0.3344630193	 0.402451
O	 0.8649820513	-0.0812622594	 1.1950353649	-0.311824
C	-1.2136865547	-0.9194097311	 0.3945129279	-0.300006
C	-0.8350047916	-2.3536151642	-0.013589229	 0.021159
C	-2.0010414346	-3.374703498	 0.0945284083	-0.130718
O	-2.1138732464	-3.9290917395	-1.2396815175	-0.218039
C	-1.187041095	-3.2771721952	-1.9771696686	 0.123927
N	-0.4373473885	-2.4109444424	-1.4368430922	-0.273472
H	 1.054189702	 1.4874889022	-0.8059867244	 0.137034
H	 0.095762689	 0.315120621	-1.7703469126	 0.164588
H	-0.7310258196	 1.5978926932	-0.8854926416	 0.131435
H	-1.5696590626	-0.9289514043	 1.4300473056	 0.123737
H	-2.0177605616	-0.556486948	-0.2542176039	 0.101674
H	 0.0196243887	-2.6572396304	 0.600035142	 0.115406
H	-1.8011037255	-4.1944829441	 0.7882916867	 0.128197
H	-2.9589277761	-2.912010386	 0.351802025	 0.119994
H	-1.1631619469	-3.5679884803	-3.0217146008	 0.146311
42.2377	62.1482	86.055	146.1859	175.812	289.9643	347.1527	386.9493	506.6397	552.8604	611.2158	728.6783	794.5434	844.6068	876.532	896.44	959.9736	964.0586	968.6495	1002.7687	1052.3482	1073.3287	1115.6314	1139.3478	1172.9036	1221.2098	1241.8934	1304.0528	1316.2722	1326.3671	1368.4095	1377.7539	1380.9201	1461.7319	1473.8088	1475.4969	1516.2234	1705.5937	1813.1752	3032.8257	3041.3652	3053.3997	3053.6997	3097.555	3099.9232	3108.5253	3152.8726	3215.8643
CC(=O)CC1COC=N1	CC(=O)C[C@H]1COC=N1	
InChI=1S/C6H9NO2/c1-5(8)2-6-3-9-4-7-6/h4,6H,2-3H2,1H3	InChI=1S/C6H9NO2/c1-5(8)2-6-3-9-4-7-6/h4,6H,2-3H2,1H3/t6-/m0/s1
