19
gdb 90997	3.61359	1.56125	1.44127	1.3783	73.09	-0.2426	0.0809	0.3235	968.5776	0.161854	-423.009398	-423.002641	-423.001697	-423.040203	28.313	
C	-0.1244181152	 1.552720318	-0.0396195731	-0.4086
C	 0.0403476134	 0.046040584	 0.0363409492	 0.14615
O	 0.6612716999	-0.4482573555	-1.1796949513	-0.292397
C	 1.4208628152	-1.5676536696	-0.8006056734	 0.102765
C	 2.7724550555	-1.3264878917	-0.0332119367	 0.037197
C	 2.4194912586	-0.1264471641	 0.8636253505	-0.223183
C	 0.941499973	-0.5406733864	 1.1355400507	-0.099818
C	 1.0666292222	-2.0215320163	 0.6273225616	 0.051796
O	 2.4277315677	-2.4491615574	 0.8329443558	-0.30024
H	 0.8362241613	 2.0702564098	-0.0962523589	 0.124275
H	-0.7034379337	 1.8171592665	-0.9292265745	 0.130441
H	-0.6655098301	 1.9168080449	 0.839657959	 0.116717
H	-0.9633375573	-0.4056546011	 0.1130844523	 0.070335
H	 1.4583271862	-2.3205048342	-1.5864764462	 0.093313
H	 3.7630421436	-1.3988075622	-0.4813120009	 0.077973
H	 3.0358149551	-0.1309277165	 1.7645758855	 0.108937
H	 2.5194968933	 0.8380412115	 0.3632863051	 0.106103
H	 0.5763716858	-0.3954770001	 2.1515029444	 0.073049
H	 0.3061245854	-2.7518652995	 0.8995853007	 0.085187
169.0641	222.6297	262.4521	375.2717	405.4773	487.2067	514.246	591.2911	697.6001	772.6468	790.078	819.7054	842.6952	871.8266	900.2804	910.2224	937.6055	957.5636	982.3296	996.4703	1036.2645	1058.8334	1095.7644	1103.5338	1135.648	1141.0548	1175.0572	1191.8582	1211.1818	1238.0919	1262.637	1291.8267	1307.9595	1322.6811	1341.1709	1372.5851	1398.2765	1416.2547	1473.0116	1488.5388	1501.0689	2953.3059	3045.0917	3080.8867	3113.7521	3121.4584	3125.347	3125.7939	3131.2501	3135.7908	3143.0298
CC1OC2C3CC1C2O3	C[C@H]1O[C@H]2[C@H]3C[C@@H]1[C@@H]2O3	
InChI=1S/C7H10O2/c1-3-4-2-5-7(8-3)6(4)9-5/h3-7H,2H2,1H3	InChI=1S/C7H10O2/c1-3-4-2-5-7(8-3)6(4)9-5/h3-7H,2H2,1H3/t3-,4+,5-,6+,7+/m1/s1
