22
gdb 63378	2.55044	1.2918	1.01335	4.0336	86.42	-0.2947	0.0383	0.333	1275.9455	0.192526	-367.236952	-367.227004	-367.22606	-367.271175	37.943	
C	-0.7489507261	 1.4280139084	-0.466127091	-0.449329
C	 0.0170361344	 0.12652866	-0.2469963056	 0.353865
C	-0.9140290984	-1.0833142595	-0.3675931636	-0.450744
C	 1.3176032065	-0.0367358512	-1.0962175575	-0.301878
C	 2.1296359531	-0.3978943182	 0.1973392147	 0.157903
C	 3.4410828872	 0.3638588129	 0.4164028385	-0.450595
C	 0.8952998617	 0.0749708696	 1.0434693185	-0.301879
C	 2.3619104614	-1.8350489282	 0.3182147602	 0.262042
N	 2.5495228634	-2.9726882641	 0.4146293638	-0.360285
H	-0.0918946646	 2.3004502009	-0.3819817061	 0.107056
H	-1.2091429728	 1.4508072609	-1.4607760459	 0.117354
H	-1.5512060013	 1.5412773056	 0.2722364209	 0.117354
H	-1.3757332021	-1.1201706035	-1.3608020378	 0.114555
H	-0.3783927327	-2.0248329862	-0.2127273022	 0.139757
H	-1.7182900192	-1.029559528	 0.3748809676	 0.114556
H	 1.3001086476	-0.7923277082	-1.8842993886	 0.117397
H	 1.6706488967	 0.9073834037	-1.5201244047	 0.1018
H	 3.262972413	 1.4393527416	 0.3251119259	 0.119414
H	 3.8500464863	 0.1652212101	 1.4116159677	 0.13623
H	 4.192643121	 0.0746087219	-0.3243057101	 0.13623
H	 1.0799829669	 1.0636231993	 1.4726054647	 0.101799
H	 0.565530108	-0.5980217179	 1.8375921006	 0.117397
66.3229	144.4573	176.6252	220.5105	231.7961	254.6986	287.9566	298.7768	332.8169	342.0592	418.2703	423.0503	503.7536	585.6674	609.3316	700.0765	813.1338	854.0843	886.3115	909.4892	925.9756	928.1108	960.8972	995.3921	1019.5672	1031.7723	1110.8236	1142.976	1144.868	1220.4386	1247.9605	1249.1557	1276.4102	1304.6591	1321.6823	1405.6964	1410.9484	1424.2698	1471.9976	1484.2085	1485.6913	1490.3398	1490.4206	1499.3844	1502.9213	1509.3661	2344.0237	3020.1395	3026.9053	3037.8242	3056.6969	3061.6623	3087.0727	3090.7197	3092.8385	3107.4711	3113.8395	3114.3001	3119.5057	3120.8908
CC1(C)CC(C)(C1)C#N	CC1(C)CC(C)(C1)C#N	
InChI=1S/C8H13N/c1-7(2)4-8(3,5-7)6-9/h4-5H2,1-3H3	InChI=1S/C8H13N/c1-7(2)4-8(3,5-7)6-9/h4-5H2,1-3H3
