15
gdb 24312	3.11034	2.30249	1.52385	1.9251	69.76	-0.2267	-0.0402	0.1865	824.6433	0.115803	-416.737619	-416.731573	-416.730629	-416.767889	24.286	
C	-0.1100354134	 1.5419931214	-0.0801478133	-0.203018
C	 1.4516355745	 1.6971736693	 0.0393816614	 0.067174
O	 2.0433649647	 2.1806046307	 1.2502981148	-0.29572
C	 2.4264696474	 1.0437298268	 2.0994306939	-0.144531
C	 1.6592950129	-0.1077911347	 1.497121571	 0.130917
C	 1.3777487181	 0.2253393205	 0.2155957651	 0.043437
N	-0.0002629042	-0.0182195945	-0.0202852442	-0.127895
C	-0.3593577706	-0.7254464293	 1.1412800043	-0.003115
N	 0.593649969	-0.8299446257	 2.0364191648	-0.244553
H	-0.6514163494	 1.9212860398	 0.7851064619	 0.151971
H	-0.5569677002	 1.8607740802	-1.0210376324	 0.139294
H	 1.9296398578	 2.1844957279	-0.8124784669	 0.099776
H	 3.5176638375	 0.9452238765	 2.0773915618	 0.120374
H	 2.1084195273	 1.2496348887	 3.1251820888	 0.13163
H	-1.3290979415	-1.1980166275	 1.2383799591	 0.134258
152.5998	265.8949	326.432	368.9607	499.534	620.3687	679.8444	711.2476	723.7367	755.8552	840.7991	859.9934	888.9889	895.5654	968.3212	987.3659	1006.364	1040.7686	1100.1686	1111.6934	1136.1414	1167.5359	1199.1883	1225.5148	1271.0105	1287.2673	1316.9148	1344.4627	1366.2042	1447.297	1470.8905	1510.2839	1566.9278	3035.2933	3088.7643	3095.039	3095.9403	3180.4643	3222.1768
C1C2OCC3=C2N1C=N3	C1[C@H]2OC[C]3[C]2N1[CH][N]3	
InChI=1S/C6H6N2O/c1-5-6-4(2-9-5)7-3-8(1)6/h3,5H,1-2H2	InChI=1S/C6H6N2O/c1-5-6-4(2-9-5)7-3-8(1)6/h3,5H,1-2H2/t5-/m1/s1
