15
gdb 20605	3.30195	2.04895	1.27846	3.7926	64.66	-0.203	0.0324	0.2354	911.8096	0.119452	-395.984621	-395.976483	-395.975539	-396.01682	29.862	
C	-0.07542698	 1.5616187214	 0.0542534455	-0.535262
C	-0.0183060026	 0.0680304205	 0.0096258665	 0.030309
C	-0.0301702606	-0.7700312376	-1.0697385577	 0.403367
N	-0.1170548883	-0.535053687	-2.4259109124	-0.596843
O	-0.0222311231	-2.0537006443	-0.6946123034	-0.224965
N	 0.003563021	-2.1134506353	 0.7243850153	-0.256475
C	-0.002348862	-0.8530268157	 1.1012715606	 0.353707
N	-0.0683659443	-0.514830389	 2.4458689987	-0.589762
H	 0.906491796	 2.0278959453	 0.2127531735	 0.12077
H	-0.4817422033	 1.968875778	-0.8774615328	 0.124988
H	-0.7300423265	 1.9017103555	 0.8644345046	 0.138465
H	 0.3577677795	 0.3003457228	-2.7353604784	 0.260473
H	 0.1294583196	-1.3399172285	-2.985518288	 0.264117
H	 0.1050681036	-1.3085623115	 3.0493202952	 0.257005
H	 0.5161284811	 0.2701548356	 2.6982829127	 0.250107
96.7913	167.0367	213.6998	225.5855	264.1215	286.3426	336.4749	387.7517	521.0488	580.7236	613.7489	657.5049	704.4166	710.4635	771.9141	801.271	928.7327	959.7922	1066.0402	1073.4218	1142.4823	1184.7516	1276.9679	1384.8557	1423.1523	1486.0295	1494.5336	1524.2198	1565.626	1637.0145	1648.5474	1711.2186	3008.4107	3063.8243	3095.0143	3546.5231	3564.2299	3644.1011	3665.0109
CC1=C(N)ON=C1N	Cc1c(N)onc1N	
InChI=1S/C4H7N3O/c1-2-3(5)7-8-4(2)6/h6H2,1H3,(H2,5,7)	InChI=1S/C4H7N3O/c1-2-3(5)7-8-4(2)6/h6H2,1H3,(H2,5,7)
