21
gdb 73400	2.55576	1.94775	1.48076	1.7336	80.7	-0.2273	0.0738	0.3011	980.302	0.185473	-387.08901	-387.081732	-387.080788	-387.120132	30.436	
C	 0.0299723687	 1.5558049851	-0.0677948333	-0.509934
C	 0.027420728	 0.0468053664	 0.0126786141	 0.292273
C	 0.4999773831	-0.7271943201	-1.22014462	-0.127561
O	 0.3581489369	-2.0873581768	-0.7723841532	-0.285442
C	-0.1363861306	-1.8978797689	 0.5480427313	 0.1189
C	 0.7100054988	-0.7584905999	 1.184185097	-0.070331
C	-0.039897861	-0.3585994627	 2.4552277409	-0.242262
C	-1.5043551361	-0.3852036467	 1.9105709054	-0.242264
C	-1.2285548942	-0.7936929919	 0.4632010096	-0.070335
H	 1.0386192398	 1.9390203564	-0.2615631732	 0.119198
H	-0.6178995381	 1.9089209236	-0.8785590709	 0.119192
H	-0.3240534769	 2.0145928544	 0.8603082456	 0.121213
H	-0.1254209135	-0.5514456544	-2.1052544417	 0.094446
H	 1.5456638131	-0.5211105736	-1.483773827	 0.094447
H	-0.2994329019	-2.8608946806	 1.0334483082	 0.074518
H	 1.7973335632	-0.8503267484	 1.2284234934	 0.05965
H	 0.1196809706	-1.0721070864	 3.2694121461	 0.098562
H	 0.2564298466	 0.6275861857	 2.8251442348	 0.098759
H	-2.1341656395	-1.1130741635	 2.4311481351	 0.098561
H	-2.0016531492	 0.5865527468	 1.9853584679	 0.098759
H	-2.0770465176	-0.9206853145	-0.21252599	 0.059651
192.5153	234.5657	244.6178	279.1892	364.0498	372.9296	381.4976	594.9142	625.8169	687.5079	692.9716	745.4812	833.9508	906.0025	909.5247	927.4358	947.9823	959.2216	965.262	1007.7806	1011.0057	1016.6766	1024.5859	1044.535	1108.8689	1111.6348	1166.5238	1192.7241	1200.9713	1224.4442	1231.3531	1254.418	1255.9925	1265.6611	1271.601	1310.8993	1320.5145	1351.614	1397.0099	1413.4475	1486.4287	1492.6804	1502.0669	1517.796	1525.5999	3006.149	3026.3259	3042.2631	3045.7016	3054.2446	3076.6668	3084.7313	3093.9765	3095.139	3096.8592	3100.9422	3117.8851
CC12COC3C1CCC23	C[C@@]12CO[C@H]3[C@@H]1CC[C@@H]23	
InChI=1S/C8H12O/c1-8-4-9-7-5(8)2-3-6(7)8/h5-7H,2-4H2,1H3	InChI=1S/C8H12O/c1-8-4-9-7-5(8)2-3-6(7)8/h5-7H,2-4H2,1H3/t5-,6+,7-,8+
