20
gdb 47789	2.30568	1.76026	1.19135	3.0488	81.	-0.2509	0.0162	0.2671	1091.3955	0.173857	-403.152962	-403.145116	-403.144171	-403.185402	31.121	
N	 0.0452962258	 1.1955110745	 0.6686369354	-0.495125
C	 0.046586055	 0.0460412886	 0.1333446781	 0.344099
O	 1.2179186065	-0.6499382733	-0.0845267916	-0.264465
C	 1.6296829764	-0.8659054781	-1.4399450129	-0.084229
C	 0.9565506441	-2.056945633	-2.1127541809	-0.209136
C	-0.515697492	-1.838149651	-2.4750755253	-0.228114
C	-1.4838280391	-1.5743371295	-1.3358335584	-0.018583
C	-1.3539417781	-2.1477823434	 0.0424939736	-0.305351
C	-1.2324444304	-0.6434636801	-0.1576019563	-0.044951
H	 1.0097222702	 1.4945538829	 0.8288759509	 0.216503
H	 1.4706685145	 0.0525271587	-2.0227685466	 0.103669
H	 2.7080341257	-1.036900415	-1.3750599358	 0.114982
H	 1.5103839009	-2.2711959337	-3.0356194752	 0.101405
H	 1.0753559341	-2.937513962	-1.4709160975	 0.11277
H	-0.5820750676	-1.0022690236	-3.1854962716	 0.103504
H	-0.8728648828	-2.7222074677	-3.0188076178	 0.10407
H	-2.5081045418	-1.4990305615	-1.6932547638	 0.094617
H	-2.2392573665	-2.5200497747	 0.5453400959	 0.116511
H	-0.4375289723	-2.6651848163	 0.3003677597	 0.128972
H	-2.0758592324	-0.0370245018	 0.14887619	 0.108852
66.0855	167.4069	224.94	287.1841	316.1023	363.1197	418.0889	468.3565	543.5921	606.4814	688.109	724.768	767.1186	833.1741	881.3835	890.5958	900.8849	943.5038	947.3513	972.1911	1025.1415	1057.553	1070.5951	1077.5151	1127.4119	1139.5368	1151.2943	1162.7723	1228.4793	1238.5876	1276.4585	1320.3281	1323.6562	1383.3049	1389.4012	1393.553	1416.1429	1429.3826	1477.5137	1483.7744	1495.5365	1500.4297	1725.9114	3007.2163	3008.9924	3028.3212	3044.2953	3072.8016	3088.3059	3130.892	3144.5639	3189.4608	3233.8265	3460.8836
N=C1OCCCC2CC12	[NH][C]1OCCC[C@H]2C[C@@H]12	
InChI=1S/C7H11NO/c8-7-6-4-5(6)2-1-3-9-7/h5-6,8H,1-4H2	InChI=1S/C7H11NO/c8-7-6-4-5(6)2-1-3-9-7/h5-6,8H,1-4H2/t5-,6+/m0/s1
