21
gdb 69544	2.5914	1.55471	1.35745	1.8521	81.98	-0.2366	0.0692	0.3058	1084.816	0.181984	-387.040372	-387.031927	-387.030982	-387.072709	33.667	
C	-0.0115821156	 1.546938585	 0.013903445	-0.506867
C	 0.0316630247	 0.0452550792	 0.003315172	 0.363002
C	-0.8625190229	-0.8264734505	 0.8333590225	-0.353056
C	 0.6271104785	-0.9590281971	 1.0124437772	-0.171989
C	 1.3146163268	-1.7517702527	-0.1300713763	 0.321754
C	 2.8103978509	-1.9239785904	-0.003532076	-0.496081
C	 0.4795465407	-2.8495823562	-0.8308389514	-0.150169
O	-0.1633227938	-1.8689583077	-1.6874024258	-0.300813
C	 0.6472897711	-0.7989417958	-1.1420884681	 0.001114
H	 0.9460910027	 1.9823880493	-0.2943211175	 0.114691
H	-0.7825600935	 1.9261885647	-0.6681096561	 0.124541
H	-0.2414127182	 1.9262656341	 1.0151862767	 0.117766
H	-1.3657328707	-0.311376912	 1.6463255393	 0.106478
H	-1.4557370507	-1.6047459706	 0.3657929881	 0.127392
H	 1.099970486	-0.7604800458	 1.9686252394	 0.080771
H	 3.0588576683	-2.6457097396	 0.7841100987	 0.120017
H	 3.2508974443	-2.2836856676	-0.9394222132	 0.118569
H	 3.2947150173	-0.9762168502	 0.2566270947	 0.11972
H	 1.0770958354	-3.5561422067	-1.4215735402	 0.095603
H	-0.2400022838	-3.4076614062	-0.2204721494	 0.099861
H	 1.1947602124	-0.2445369932	-1.9107027396	 0.067696
139.3918	189.578	215.3341	242.9637	254.3119	288.5098	322.4389	360.2153	467.557	502.6696	576.1876	645.5984	749.3513	794.6598	826.4585	886.7386	896.1998	934.0363	955.2165	976.0545	982.9037	990.1453	994.7647	1021.677	1064.3281	1085.5006	1111.0945	1145.5025	1159.5918	1190.0326	1216.8735	1246.5411	1256.3624	1283.0447	1302.4325	1374.5978	1397.8922	1410.8461	1419.2908	1484.6657	1489.2498	1494.2093	1497.5759	1499.7181	1521.7756	3008.4836	3017.8426	3021.6343	3058.7233	3060.9695	3075.6614	3083.6575	3093.2512	3095.9621	3128.6529	3162.3214	3210.6282
CC12CC1C1(C)COC21	C[C@]12C[C@H]1[C@@]1(C)CO[C@@H]21	
InChI=1S/C8H12O/c1-7-3-5(7)8(2)4-9-6(7)8/h5-6H,3-4H2,1-2H3	InChI=1S/C8H12O/c1-7-3-5(7)8(2)4-9-6(7)8/h5-6H,3-4H2,1-2H3/t5-,6+,7+,8-/m1/s1
