18
gdb 79047	3.73627	1.67288	1.4267	1.3266	75.29	-0.2195	0.0706	0.2901	941.2423	0.148829	-401.81711	-401.810446	-401.809502	-401.847743	27.804	
C	 0.063856626	 1.5209862606	-0.1244207942	-0.334151
N	-0.0116279642	 0.0631237504	-0.0769547681	-0.197911
C	-1.171872429	-0.5178914946	 0.7351656072	-0.081401
C	-0.3714433184	-1.8057560469	 1.033454356	-0.0798
C	-0.3072194448	-1.6865609437	 2.5558528807	 0.064574
O	 1.1039177139	-1.7857367797	 2.917540792	-0.29876
C	 1.8168114324	-1.0256667724	 1.9073950151	-0.182226
C	 0.6010140436	-0.5878851229	 1.1171080033	 0.303783
C	-0.5475147301	-0.2339306172	 2.1390838378	-0.105824
H	 1.0593283131	 1.819662855	-0.4685193731	 0.122939
H	-0.6639282985	 1.8878633733	-0.8551216641	 0.122101
H	-0.1321431582	 2.01991139	 0.8390304401	 0.097931
H	-2.2020143497	-0.4074681621	 0.3972203714	 0.086042
H	-0.2203975378	-2.6600157401	 0.3765717021	 0.089663
H	-0.8833399294	-2.2607955679	 3.27830188	 0.08363
H	 2.3766842962	-0.2112078612	 2.3790526424	 0.109316
H	 2.5037628875	-1.6780088573	 1.3574795589	 0.113409
H	-0.6128788227	 0.6556107267	 2.7621236525	 0.086685
210.3072	226.5423	241.4607	332.6781	411.8913	493.3408	548.7511	677.7082	708.23	743.742	773.1321	797.7491	865.8408	886.1616	896.5418	918.7202	937.2803	950.2627	991.904	1003.4237	1083.6826	1100.1504	1108.6346	1125.0679	1144.522	1166.3936	1175.3324	1178.2148	1183.3786	1218.4299	1235.4219	1255.3929	1304.7789	1324.4337	1357.8264	1445.1389	1490.6352	1496.8953	1523.7807	2969.8352	3033.2317	3067.0086	3079.3345	3102.3637	3114.866	3135.5787	3139.687	3152.5473
CN1C2C3C4OCC13C24	CN1[C@H]2[C@@H]3[C@H]4OC[C@@]13[C@@H]24	
InChI=1S/C7H9NO/c1-8-5-3-6-4(5)7(3,8)2-9-6/h3-6H,2H2,1H3	InChI=1S/C7H9NO/c1-8-5-3-6-4(5)7(3,8)2-9-6/h3-6H,2H2,1H3/t3-,4+,5+,6-,7-
