23
gdb 117335	4.64273	0.62846	0.57135	3.3911	83.65	-0.2501	-0.0218	0.2283	2024.3034	0.202641	-425.462902	-425.451796	-425.450852	-425.500238	39.676	
C	-0.1387871417	 1.5824609838	-0.1138768422	-0.387067
C	 0.1013204292	 0.081762539	 0.066466483	-0.163174
C	 0.5946188146	-0.5932916236	-1.2131859637	-0.278684
C	 0.8117667716	-2.0914952446	-1.0906455452	 0.373581
O	 0.4631856246	-2.7050494168	-0.0995195553	-0.321974
C	 1.4939831733	-2.78299303	-2.2628616286	-0.309017
C	 1.2406615428	-4.300019703	-2.3192560526	 0.143578
C	 1.9196302107	-4.943661901	-3.5217141681	-0.384718
O	 1.7357678186	-4.9398018316	-1.1581051715	-0.442884
H	 0.7784448988	 2.1018190594	-0.4137799332	 0.113851
H	-0.8937557079	 1.7763168566	-0.8842565587	 0.113921
H	-0.4894004721	 2.039592603	 0.8162467233	 0.118002
H	 0.8320122103	-0.0892658717	 0.8648629262	 0.11073
H	-0.8177307221	-0.4130692701	 0.3963812034	 0.117186
H	-0.1199538881	-0.4385249187	-2.0361937331	 0.125343
H	 1.5307588924	-0.140652599	-1.5705574741	 0.120077
H	 1.1935164531	-2.2951721555	-3.1983093479	 0.108004
H	 2.5744874292	-2.6060083868	-2.1559843273	 0.134232
H	 0.1507820308	-4.4547245856	-2.404113271	 0.064651
H	 1.7338951756	-6.0208918214	-3.5182818694	 0.126588
H	 1.5420899296	-4.5265939932	-4.4604606738	 0.106021
H	 3.00228809	-4.7861513108	-3.477869687	 0.119031
H	 1.2992620467	-4.4982079884	-0.415622793	 0.292722
36.9381	63.8677	92.0482	109.6482	136.9364	223.968	236.0902	244.4532	278.6198	349.8043	370.3165	442.9475	450.762	503.8619	607.782	689.2431	733.6509	810.4895	841.3353	880.3706	911.4661	920.846	954.7355	1037.08	1045.1477	1054.8397	1075.6133	1135.791	1145.016	1167.8644	1221.6779	1261.0334	1304.325	1315.1351	1325.0305	1350.3668	1384.2445	1397.0492	1402.2753	1414.6108	1432.2702	1448.8394	1460.6962	1484.286	1487.7753	1500.1051	1500.4144	1508.1563	1778.9711	2946.0227	3003.2902	3014.6246	3028.648	3032.5056	3039.1184	3048.899	3062.0763	3076.5237	3100.9913	3105.4331	3110.6762	3122.1176	3729.5983
CCCC(=O)CC(C)O	CCCC(=O)C[C@@H](C)O	
InChI=1S/C7H14O2/c1-3-4-7(9)5-6(2)8/h6,8H,3-5H2,1-2H3	InChI=1S/C7H14O2/c1-3-4-7(9)5-6(2)8/h6,8H,3-5H2,1-2H3/t6-/m1/s1
