14
gdb 56392	3.31686	0.71034	0.63839	3.7183	74.59	-0.2616	-0.0305	0.2311	1693.7268	0.097413	-436.634671	-436.624387	-436.623443	-436.67215	34.752	
N	 0.0108225574	 1.3178194265	-0.2406536151	-0.520883
C	 0.0739442839	-0.0192168775	 0.017444847	 0.269155
O	 1.1093418638	-0.617864042	 0.232046723	-0.330273
C	-1.2252727662	-0.6816530781	 0.0126524705	 0.045943
C	-2.2683153744	-1.2849161299	 0.0246598984	 0.075234
C	-3.5139245227	-2.0676786266	 0.0489988361	-0.235194
O	-3.2809249708	-3.4546734718	-0.148582509	-0.383163
C	-4.265217058	-1.792336669	 1.2832430295	 0.32485
C	-4.8763268381	-1.5971419856	 2.2984393321	-0.445342
H	 0.8681220674	 1.8457182058	-0.2401294836	 0.269091
H	-0.8639246192	 1.7868599606	-0.3968179308	 0.269118
H	-4.1300009305	-1.7693373414	-0.809362761	 0.155227
H	-2.71663698	-3.7606047109	 0.5716786221	 0.296868
H	-5.4201871325	-1.42191912	 3.1941110907	 0.209368
16.2464	67.4099	86.7518	103.5045	177.5211	204.2122	218.5612	316.442	363.5925	390.0713	505.771	558.0851	572.5634	582.4073	635.6497	648.6851	681.2834	754.0579	773.085	904.2261	1047.1087	1082.4513	1089.8519	1262.6084	1303.8672	1347.1203	1414.5552	1608.898	1777.3238	2239.6828	2346.7039	3030.4934	3501.1612	3603.3387	3745.397	3798.4717
NC(=O)C#CC(O)C#C	NC(=O)C#C[C@@H](O)C#C	
InChI=1S/C6H5NO2/c1-2-5(8)3-4-6(7)9/h1,5,8H,(H2,7,9)	InChI=1S/C6H5NO2/c1-2-5(8)3-4-6(7)9/h1,5,8H,(H2,7,9)/t5-/m0/s1
