23
gdb 91191	2.97979	1.35983	1.05782	0.2934	90.84	-0.2316	0.0299	0.2615	1226.8359	0.208459	-351.168807	-351.160532	-351.159588	-351.201301	33.519	
C	-0.1746408102	 1.5837843182	-0.0885718007	-0.414247
C	 0.0282476936	 0.0784652773	 0.0074303454	 0.036275
C	 1.0383432544	-0.6233372924	-0.9448540558	-0.257727
C	 1.3927808209	-1.5950758935	 0.2270469255	-0.010545
C	 2.8052797097	-2.0125222073	 0.4798153831	-0.076556
C	 3.4965336615	-1.5899323867	 1.5397575135	-0.055549
C	 2.9413285589	-0.5968571273	 2.5329761129	-0.259693
C	 1.8631560579	 0.287990986	 1.8848089758	-0.208925
C	 0.7777251901	-0.5645684837	 1.2208080656	-0.024608
H	 0.7703075705	 2.1307675656	-0.0116439936	 0.113845
H	-0.6300717226	 1.8509502746	-1.0489169975	 0.111411
H	-0.8377594065	 1.950067898	 0.7036310871	 0.111348
H	-0.9448281751	-0.4175926228	-0.088902347	 0.068612
H	 0.6486133603	-1.0579909048	-1.8689797589	 0.090459
H	 1.8826559475	 0.0269422027	-1.1945600787	 0.097743
H	 0.7522840465	-2.4828991677	 0.1564196552	 0.073649
H	 3.2582994036	-2.7056175458	-0.2268542801	 0.078768
H	 4.5087578792	-1.9509468358	 1.7059453767	 0.081262
H	 2.527524085	-1.1234696669	 3.4061106587	 0.105188
H	 3.752537969	 0.0285243332	 2.9245121749	 0.096677
H	 1.4214291544	 0.9659143475	 2.6237848049	 0.089111
H	 2.357318681	 0.918486248	 1.1364826253	 0.098381
H	 0.1320293602	-0.9946369564	 1.9939041279	 0.055124
99.3	178.0497	192.2991	226.568	281.8622	338.684	421.5314	466.0198	488.8197	512.3133	621.0432	721.6904	732.0786	769.9397	807.3001	883.4747	893.1175	910.4535	934.4304	980.5734	1000.1833	1005.8345	1006.4251	1034.1007	1059.6517	1091.2904	1130.2587	1137.9263	1160.7951	1167.406	1219.0455	1237.0646	1253.3649	1260.6183	1276.9889	1297.1114	1331.1067	1344.4865	1358.5046	1382.6673	1397.5346	1409.4195	1419.0755	1478.8928	1486.3796	1492.6765	1497.8467	1501.4424	1712.4455	2996.5356	3018.7429	3024.0579	3025.5934	3030.479	3042.816	3047.7284	3050.1438	3073.0439	3086.8001	3098.5597	3105.0551	3133.3012	3160.1672
CC1CC2C=CCCC12	C[C@H]1C[C@H]2C=CCC[C@@H]12	
InChI=1S/C9H14/c1-7-6-8-4-2-3-5-9(7)8/h2,4,7-9H,3,5-6H2,1H3	InChI=1S/C9H14/c1-7-6-8-4-2-3-5-9(7)8/h2,4,7-9H,3,5-6H2,1H3/t7-,8+,9-/m0/s1
