15
gdb 35214	3.49885	1.24692	1.0707	3.8916	70.42	-0.2597	-0.0006	0.2591	1098.7139	0.113664	-416.818174	-416.810665	-416.809721	-416.850702	27.797	
N	-0.0767403489	-1.162156362	 0.0841161491	-0.3363
C	-0.0697659176	-0.0052176924	 0.054559268	 0.296789
C	-0.0134209839	 1.4261686014	 0.0152093699	-0.255624
C	 0.5429057501	 2.210033909	 1.210937196	-0.348913
C	 1.342129905	 2.1161792637	-0.0344829057	 0.414537
C	 2.6876505807	 1.4054993331	-0.2195083641	-0.26558
N	 3.3705530476	 2.2009274303	-1.2532205405	-0.249668
C	 2.597680202	 3.1660508818	-1.5160985606	 0.111188
O	 1.4028703468	 3.2705713337	-0.8648909259	-0.248968
H	-0.8061527494	 1.909017524	-0.5456510946	 0.149135
H	 0.050321862	 3.1497579902	 1.4314800411	 0.147012
H	 0.8753170364	 1.6413618657	 2.0723459067	 0.14975
H	 3.2857699219	 1.3995277919	 0.6984278807	 0.132047
H	 2.571742064	 0.3674056653	-0.5461358488	 0.152834
H	 2.7849375234	 3.9606297944	-2.2283709213	 0.15176
75.4408	123.4881	151.2796	300.4357	322.3865	406.1263	486.2887	534.4715	547.8424	611.86	794.6812	812.7836	859.191	885.27	927.6433	949.2401	956.7674	981.9444	1041.459	1067.5619	1083.3301	1109.3506	1127.0485	1197.3383	1219.2243	1292.4499	1332.627	1339.4803	1401.0447	1477.8657	1495.6717	1712.5547	2351.0704	3043.9296	3083.7079	3142.6102	3178.1309	3229.8399	3239.1041
N#CC1CC11CN=CO1	N#C[C@H]1C[C@]21CN=CO2	
InChI=1S/C6H6N2O/c7-2-5-1-6(5)3-8-4-9-6/h4-5H,1,3H2	InChI=1S/C6H6N2O/c7-2-5-1-6(5)3-8-4-9-6/h4-5H,1,3H2/t5-,6-/m1/s1
