17
gdb 29478	3.0381	1.67191	1.09295	0.6683	82.73	-0.189	-0.0068	0.1821	1079.6907	0.137465	-384.731428	-384.724041	-384.723097	-384.763087	28.937	
C	-0.0191101605	 1.5087828153	 0.0899323024	-0.505257
C	-0.0069175166	 0.0155435794	 0.0233642532	 0.19037
C	-0.0258961242	-0.785188914	-1.0684199812	-0.181053
C	-0.0031556168	-2.2631762961	-0.6953733796	-0.422907
C	 0.0326101355	-2.203253281	 0.8046710517	 0.226194
C	 0.0290223584	-0.8882212641	 1.162137034	 0.293375
O	 0.0601328079	-0.7232509966	 2.5026313929	-0.208431
C	 0.0837685725	-1.9977056681	 3.0170708911	-0.024644
C	 0.069369638	-2.9395827034	 2.0258647025	-0.355503
H	 0.8696197127	 1.8891690202	 0.606936132	 0.134756
H	-0.0477975822	 1.9480534686	-0.9102231925	 0.126186
H	-0.8881995682	 1.8728882381	 0.6502264824	 0.13475
H	-0.0538926088	-0.4410145397	-2.0944247145	 0.093635
H	-0.8862180333	-2.7862431334	-1.0857219118	 0.128738
H	 0.8696058046	-2.7698894239	-1.1281516385	 0.128741
H	 0.1099119845	-2.0595853725	 4.0921505525	 0.130542
H	 0.0832145166	-4.0078926388	 2.1784366535	 0.110508
146.0812	174.1192	215.2531	227.4286	289.0024	491.3399	501.1005	583.8711	603.4401	643.731	692.7701	725.5523	752.2629	760.3255	821.6534	914.3923	927.9403	942.6708	1007.9913	1041.8109	1066.1407	1074.4341	1130.5879	1132.7702	1170.2236	1237.4243	1261.3872	1298.938	1406.8503	1420.4591	1437.5538	1475.9975	1478.2503	1492.1464	1501.0777	1579.2082	1658.8202	3026.2413	3028.6699	3053.041	3078.0734	3119.379	3215.1358	3248.4318	3286.0124
CC1=CCC2=C1OC=C2	CC1=CCc2c1occ2	
InChI=1S/C8H8O/c1-6-2-3-7-4-5-9-8(6)7/h2,4-5H,3H2,1H3	InChI=1S/C8H8O/c1-6-2-3-7-4-5-9-8(6)7/h2,4-5H,3H2,1H3
