19
gdb 109245	2.60806	1.36886	1.02713	1.1299	76.76	-0.2261	0.0208	0.2469	1192.1667	0.158881	-423.013835	-423.005134	-423.004189	-423.046938	33.623	
O	 0.1867182869	 1.3318641098	 0.0120918055	-0.410448
C	 0.017023975	-0.070666955	-0.0836363562	-0.177602
C	-1.4135223565	-0.5158618621	-0.0387779448	 0.222057
C	-2.5071543887	 0.2503249806	-0.100142149	-0.19052
C	-3.7855446874	-0.5528372513	 0.0283723922	-0.274444
C	-3.2954306334	-1.9962593416	 0.0959172354	-0.085044
C	-2.5282488261	-2.5525632218	-1.0884117241	-0.343805
C	-1.781656791	-1.9673073429	 0.0881441474	 0.300492
O	-1.0291287869	-2.7874427502	 0.9339800261	-0.464816
H	-0.2297031263	 1.6109849041	 0.8346659886	 0.282701
H	 0.4760945974	-0.3610126763	-1.0388690848	 0.118438
H	 0.5775345425	-0.6042967817	 0.7016687903	 0.10303
H	-2.4981912755	 1.3214907079	-0.2638891467	 0.097553
H	-4.3495728699	-0.2730772469	 0.9282413254	 0.108512
H	-4.4605747273	-0.3850463477	-0.821102607	 0.110634
H	-3.8101895742	-2.7123675215	 0.7245833515	 0.096033
H	-2.5252238268	-3.6350974375	-1.1739916182	 0.109285
H	-2.5263009525	-2.0131969742	-2.030724975	 0.112756
H	-0.3658241991	-3.2398039017	 0.4029082035	 0.285188
88.8257	157.5326	178.7105	250.8875	275.3199	298.3972	314.864	344.5392	431.7282	472.3731	556.8172	605.3642	717.1757	743.3004	822.3941	830.2179	840.2637	910.4035	953.6483	967.3076	995.2974	1014.5966	1041.5461	1064.7173	1077.3782	1088.1331	1139.9202	1186.3521	1209.8098	1230.3748	1237.5102	1303.339	1322.5532	1340.3749	1383.0912	1393.1341	1421.47	1467.1909	1481.798	1498.167	1703.977	2970.5245	3013.9946	3025.482	3040.7345	3115.4436	3187.3444	3202.6331	3208.4954	3806.7552	3808.6023
OCC1=CCC2CC12O	OCC1=CC[C@H]2C[C@@]12O	
InChI=1S/C7H10O2/c8-4-6-2-1-5-3-7(5,6)9/h2,5,8-9H,1,3-4H2	InChI=1S/C7H10O2/c8-4-6-2-1-5-3-7(5,6)9/h2,5,8-9H,1,3-4H2/t5-,7-/m0/s1
