15
gdb 46648	2.45872	1.5749	1.43521	2.9361	69.19	-0.2616	-0.0474	0.2141	966.965	0.113611	-416.814787	-416.807374	-416.80643	-416.846953	27.827	
O	 0.0676636053	 0.028051172	 0.2037389127	-0.30254
C	-0.0386799509	 1.2055728542	-0.007466722	 0.428239
C	-1.3119901984	 1.9729724394	-0.3823611102	-0.364459
C	-0.8101691517	 3.323720558	-0.9276765497	-0.174894
N	 0.6473202678	 3.4628490085	-0.6159067896	-0.108957
C	 0.9718855562	 3.4294377576	 0.8152061655	-0.156595
C	-0.0376414372	 3.5621273302	 1.8363046843	 0.30823
N	-0.8446992625	 3.7164175991	 2.6505868967	-0.338199
C	 1.1026179719	 2.1940938434	-0.0369484636	-0.166233
H	-1.8751048123	 1.3959173145	-1.1188124054	 0.145619
H	-1.9406284421	 2.0696389015	 0.5075957873	 0.169973
H	-0.8865971318	 3.3638950415	-2.0164859007	 0.132545
H	-1.3463809161	 4.1833922852	-0.5203410338	 0.141085
H	 1.8947811812	 3.9475354654	 1.0625075202	 0.154546
H	 2.0960952106	 1.8288761397	-0.2746992017	 0.131642
87.0704	147.2379	159.2561	268.7044	357.2907	444.2946	484.9211	574.8593	609.7168	632.4277	703.8345	727.1917	779.2967	820.0271	876.0689	928.9661	964.7603	1004.1308	1046.4147	1071.1675	1109.3373	1175.8337	1190.6989	1247.9399	1250.0715	1285.5305	1314.5294	1351.3278	1377.6508	1453.4738	1502.2232	1852.9025	2349.8093	3073.1955	3076.7623	3114.467	3129.3911	3147.8042	3178.8986
O=C1CCN2C(C#N)C12	O=C1CCN2[C@@H](C#N)[C@@H]12	
InChI=1S/C6H6N2O/c7-3-4-6-5(9)1-2-8(4)6/h4,6H,1-2H2	InChI=1S/C6H6N2O/c7-3-4-6-5(9)1-2-8(4)6/h4,6H,1-2H2/t4-,6-,8?/m0/s1
