16
gdb 46644	2.25861	1.7417	1.47122	3.8432	73.86	-0.2497	-0.0163	0.2335	970.3745	0.123981	-400.721837	-400.713929	-400.712985	-400.75492	29.752	
O	-0.034024924	 0.0037872869	 0.225971536	-0.298339
C	-0.0623801479	 1.1875620865	 0.0557127424	 0.385357
C	-1.3072612596	 2.0666600273	-0.1178104651	-0.312944
C	-0.8186333577	 3.5213675759	 0.0242255801	-0.263426
C	 0.7085090634	 3.405114071	 0.0054995873	-0.03307
C	 1.4149889456	 2.8060714951	 1.1821376563	-0.216457
C	 0.7220747144	 2.555402975	 2.4130486494	 0.36211
C	 0.1522688879	 2.354745023	 3.453003472	-0.455717
N	 1.1245629288	 2.0019155923	-0.0484061175	-0.148853
H	-1.7297568904	 1.8702046662	-1.1089781355	 0.141286
H	-2.0559178443	 1.7660974511	 0.6172237597	 0.14451
H	-1.1543036308	 4.1501716781	-0.8024179024	 0.115889
H	-1.1684314793	 3.9804408262	 0.9528681006	 0.129955
H	 1.2737747563	 4.0859515033	-0.624197522	 0.107787
H	 2.4773786981	 3.0081173709	 1.2941812509	 0.131137
H	-0.3433422605	 2.1656651312	 4.3734044179	 0.210775
47.8748	102.3174	141.2188	246.0972	330.202	467.493	494.7332	563.156	597.4473	620.0475	646.0372	675.6937	717.0565	720.7037	801.9219	813.5504	864.0227	951.5951	976.9445	1009.6539	1049.89	1077.9902	1121.6727	1132.662	1181.9929	1241.4243	1269.8527	1281.4575	1324.9559	1355.7522	1386.2478	1452.3793	1495.9574	1868.0302	2235.357	3060.1583	3069.2297	3110.7248	3126.5145	3136.6938	3153.8353	3500.9991
O=C1CCC2C(C#C)N12	O=C1CC[C@H]2[C@@H](C#C)N12	
InChI=1S/C7H7NO/c1-2-5-6-3-4-7(9)8(5)6/h1,5-6H,3-4H2	InChI=1S/C7H7NO/c1-2-5-6-3-4-7(9)8(5)6/h1,5-6H,3-4H2/t5-,6+,8?/m1/s1
