21
gdb 89064	3.94446	0.87734	0.79388	1.5805	79.58	-0.2377	0.087	0.3247	1516.4536	0.180246	-424.177789	-424.168068	-424.167124	-424.21368	35.244	
C	 0.529940295	 1.2170396928	-0.3391320328	-0.420262
C	 0.5492351309	-0.1519362423	 0.2952650355	 0.079052
O	 1.7546617118	-0.5694013826	 0.9439080164	-0.255162
C	 0.5768346951	-0.4152948693	 1.7447335253	 0.046628
C	 0.5681077407	 0.6617969817	 2.8055866372	-0.106936
O	 1.0263196837	 0.2065872459	 4.067969155	-0.250952
C	 2.4143761232	 0.0615524925	 4.1594003512	 0.153132
C	 2.914651078	-0.7804437385	 5.2873772425	-0.296717
C	 3.062170926	-1.2624611251	 3.856748414	-0.268476
H	 0.9905499121	 1.9719433917	 0.3004390323	 0.128212
H	 1.076799182	 1.1981636941	-1.2876362939	 0.131253
H	-0.499940228	 1.5219008417	-0.5545825933	 0.123756
H	 0.1006191535	-0.9326424045	-0.3235235668	 0.088378
H	 0.1504630531	-1.3589630875	 2.0917530223	 0.092158
H	 1.1572083004	 1.5262220907	 2.4705915906	 0.096519
H	-0.4640229191	 0.9914524991	 2.973107551	 0.109201
H	 2.9665229894	 0.9666236871	 3.9034626784	 0.082109
H	 3.7938538928	-0.4525022256	 5.8304098619	 0.112142
H	 2.1589404043	-1.264483182	 5.8957105775	 0.122484
H	 2.4114111737	-2.0671340622	 3.5368137804	 0.118528
H	 4.0437847714	-1.2636126075	 3.3965588654	 0.114955
39.79	57.0732	84.4448	146.3134	185.5465	246.7893	281.2759	366.2205	408.7044	445.6572	469.4156	560.834	740.339	764.7685	807.3974	816.9792	847.9149	906.9158	954.6313	971.9497	991.1852	1028.18	1053.0466	1069.772	1086.8182	1101.9646	1116.1933	1127.2579	1170.9233	1177.2914	1190.1131	1199.5744	1241.7133	1297.8818	1312.9341	1365.9098	1394.7827	1411.9079	1421.5995	1453.1085	1464.1103	1478.2135	1489.2419	1498.3125	1512.0298	3009.4992	3040.2261	3066.0621	3076.8116	3093.0587	3094.5696	3099.6988	3138.1215	3138.2506	3145.3604	3222.2096	3238.04
CC1OC1COC1CC1	C[C@H]1O[C@H]1COC1CC1	
InChI=1S/C7H12O2/c1-5-7(9-5)4-8-6-2-3-6/h5-7H,2-4H2,1H3	InChI=1S/C7H12O2/c1-5-7(9-5)4-8-6-2-3-6/h5-7H,2-4H2,1H3/t5-,7+/m1/s1
