16
gdb 80223	2.27123	1.5566	1.21725	4.5706	72.02	-0.2518	-0.0426	0.2092	1071.6156	0.121949	-437.862537	-437.854008	-437.853063	-437.895993	30.824	
C	-0.0508998639	 1.563047817	 0.0067676822	-0.432837
C	 0.0810915326	 0.0585947294	 0.1123025959	-0.014247
N	 1.2414588228	-0.7359193503	-0.2439539027	-0.169659
C	 2.4738683801	 0.0549190644	 0.1113077734	-0.287035
C	 2.0540662495	 0.0811238454	 1.5933253417	 0.345417
O	 2.5909432863	 0.3866435257	 2.6136637295	-0.279057
C	 0.7851818529	-0.6601705478	 1.2427723912	 0.083028
C	 0.1572781047	-1.8046527331	 1.9410563548	 0.0622
O	 0.2289015753	-2.0015094689	 3.1262480084	-0.236524
H	 0.7948996983	 2.1106092217	 0.4243229839	 0.143661
H	-0.1688115798	 1.8526373342	-1.0427808845	 0.140899
H	-0.9484303667	 1.8823373781	 0.5442966971	 0.145606
H	-0.8266173964	-0.4632696107	-0.1922937446	 0.118669
H	 3.3634008489	-0.5633263718	-0.0347361753	 0.153594
H	 2.593427614	 0.9999420218	-0.4226546598	 0.137809
H	-0.3976789884	-2.4854047851	 1.2556089789	 0.088475
81.0665	114.2308	158.6162	165.987	224.2189	302.1676	365.7349	436.2147	447.7702	527.4162	584.649	644.6934	715.5152	754.9674	820.0588	928.0465	941.7476	998.1274	1026.121	1030.7483	1068.8789	1113.055	1143.1634	1183.3806	1241.9292	1284.981	1313.1985	1409.998	1415.502	1431.1275	1463.3409	1493.4309	1498.3153	1811.5195	1907.699	2872.1873	3047.3242	3071.9824	3105.3825	3111.37	3129.0743	3144.5363
CC1N2CC(=O)C12C=O	C[C@H]1N2CC(=O)[C@@]12C=O	
InChI=1S/C6H7NO2/c1-4-6(3-8)5(9)2-7(4)6/h3-4H,2H2,1H3	InChI=1S/C6H7NO2/c1-4-6(3-8)5(9)2-7(4)6/h3-4H,2H2,1H3/t4-,6-,7?/m1/s1
