23
gdb 107420	2.56649	1.40477	1.27186	0.295	87.95	-0.237	0.0813	0.3182	1166.4238	0.207554	-351.143554	-351.135154	-351.13421	-351.176217	34.151	
C	 0.1095858338	 1.5268135905	 0.3073765128	-0.375567
C	-0.0447025438	 0.0740604894	-0.1617537592	-0.286773
C	-1.4596770606	-0.4649582748	-0.0627884641	 0.385749
C	-1.9503063391	-1.4542469869	-1.0947983516	-0.361682
C	-2.5525645079	-0.0696209072	-1.0431780784	-0.070545
C	-3.8536774994	 0.1745893967	-0.27234333	-0.250215
C	-3.5528188561	-0.1005617374	 1.2058245671	-0.027013
C	-3.1902611866	-1.4965046754	 1.6448715517	-0.307935
C	-2.0962145704	-0.5063054472	 1.3227843237	-0.089839
H	 1.1442218196	 1.8660484747	 0.1952990218	 0.109379
H	-0.5303204487	 2.1964583401	-0.2767845675	 0.115292
H	-0.1638314161	 1.6458188444	 1.3605068796	 0.116943
H	 0.2867899821	-0.0004960101	-1.2045442336	 0.091498
H	 0.6311676278	-0.5718163263	 0.4153284557	 0.095837
H	-1.2833204849	-1.6624691008	-1.9263994675	 0.101143
H	-2.5417369809	-2.3124253965	-0.7979203353	 0.106853
H	-2.3331724562	 0.5934363084	-1.8747660749	 0.077076
H	-4.1469448487	 1.2236991157	-0.3889431406	 0.100027
H	-4.6886526739	-0.4280426928	-0.6502334979	 0.099408
H	-4.0156198123	 0.5507210651	 1.9399473423	 0.079078
H	-3.3400967152	-1.7328605736	 2.6937918288	 0.104246
H	-3.379161196	-2.3364440607	 0.9865427646	 0.109736
H	-1.4826729865	-0.1578570855	 2.1461088326	 0.077305
93.6519	131.4699	205.7557	250.4495	266.122	325.7724	401.1361	436.7455	511.5464	567.652	670.493	693.435	771.5763	792.9052	806.3755	833.101	854.8691	884.409	905.192	939.0645	988.2209	994.3054	1021.0402	1031.9439	1048.5913	1066.7331	1070.3597	1078.4154	1107.3395	1108.953	1117.3124	1133.7899	1206.3927	1224.9225	1233.4829	1261.3883	1305.0011	1316.9707	1352.9657	1368.2795	1382.7804	1410.057	1410.8727	1480.2013	1485.7538	1489.5744	1499.0883	1506.7051	1514.2559	3012.4385	3029.5949	3034.6458	3049.2077	3065.414	3102.958	3104.2963	3124.7996	3132.1314	3147.784	3155.7598	3168.1739	3206.1428	3214.6976
CCC12CC1CC1CC21	CC[C@]12C[C@H]1C[C@H]1C[C@@H]21	
InChI=1S/C9H14/c1-2-9-5-7(9)3-6-4-8(6)9/h6-8H,2-5H2,1H3	InChI=1S/C9H14/c1-2-9-5-7(9)3-6-4-8(6)9/h6-8H,2-5H2,1H3/t6-,7+,8+,9-/m0/s1
