20
gdb 88371	2.08494	1.3813	1.22071	3.4414	78.78	-0.2822	0.0192	0.3014	1176.9418	0.168747	-403.150399	-403.140387	-403.139443	-403.1849	37.297	
C	-1.2075076483	 1.2830842209	 0.6771299263	-0.433651
C	-0.3706642387	 0.0986686901	 0.2404875906	 0.000641
C	 0.9592088746	 0.2692565772	-0.4546510709	-0.336823
C	 0.9007706163	-0.3675999889	 0.9165721796	-0.040834
C	 1.5756877735	 0.2279182229	 2.1512275873	 0.184772
C	 0.8446730879	-0.1640789995	 3.440852123	-0.395428
O	 2.891927306	-0.3109504121	 2.2721056769	-0.434957
C	 1.6975145055	 1.7061870134	 2.077679982	 0.271773
N	 1.8395015549	 2.8519070363	 2.0172413304	-0.359875
H	-0.5999390433	 2.1263316198	 1.009640099	 0.153209
H	-1.8256159009	 1.6308058361	-0.1576063554	 0.122102
H	-1.8849838603	 1.0096014796	 1.4938240773	 0.11788
H	-0.9709360317	-0.7292604163	-0.1296458149	 0.091787
H	 1.2002440654	-0.3541995764	-1.3086119253	 0.115305
H	 1.3495363888	 1.2810587842	-0.5147761182	 0.137277
H	 1.0331672277	-1.4461261138	 0.9461305397	 0.102197
H	 0.7677260404	-1.2534142052	 3.4833895526	 0.131718
H	 1.4054119076	 0.1831895048	 4.311365639	 0.143264
H	-0.1580380142	 0.2671123542	 3.4627051094	 0.138174
H	 3.3465690987	-0.1636681772	 1.4340519116	 0.291469
61.5119	142.4666	162.775	192.9923	210.5572	235.115	242.9386	331.7385	345.4587	366.4811	377.4212	445.0565	510.5278	600.2308	644.4875	655.9161	772.7493	853.5654	883.1987	917.4378	938.6695	956.7406	1027.8003	1075.1811	1080.832	1086.7053	1119.6039	1153.7069	1158.5453	1203.7167	1219.9422	1278.0699	1351.3446	1388.8757	1407.188	1412.5284	1428.2999	1480.5346	1490.1149	1493.4162	1500.3336	1508.5054	2347.7333	3035.7824	3056.4238	3089.0109	3123.6464	3127.0311	3136.5609	3140.8282	3145.4736	3147.0541	3213.5506	3795.1625
CC1CC1C(C)(O)C#N	C[C@H]1C[C@H]1[C@@](C)(O)C#N	
InChI=1S/C7H11NO/c1-5-3-6(5)7(2,9)4-8/h5-6,9H,3H2,1-2H3	InChI=1S/C7H11NO/c1-5-3-6(5)7(2,9)4-8/h5-6,9H,3H2,1-2H3/t5-,6+,7-/m0/s1
