21
gdb 58091	2.21679	1.4111	1.10256	5.2647	74.29	-0.2395	0.0293	0.2688	1198.1999	0.181971	-457.58064	-457.570344	-457.5694	-457.615284	38.706	
C	 0.0460168714	 1.6022375032	-0.0519082124	-0.394676
C	-0.0055066839	 0.0750966733	 0.064042734	-0.005668
N	 0.7175749487	-0.4296148786	 1.2563101057	-0.538209
H	 1.7163891728	-0.2848362026	 1.146617348	 0.247521
H	 0.4372539759	 0.0939310062	 2.0813791247	 0.244435
H	 0.0689469879	-2.013288917	 1.134606452	 0.318447
C	-1.4511049431	-0.5093416878	 0.0358542078	 0.103607
C	-2.2715511607	-0.106933608	 1.2786550498	-0.41439
N	-2.1327839616	 0.0247060952	-1.1463319054	-0.528556
C	-1.4458502254	-2.0736222996	-0.0052711715	 0.385511
O	-0.5368623131	-2.7014544022	 0.7411183503	-0.382901
O	-2.2661702977	-2.6748200333	-0.6547580935	-0.354184
H	 1.0854475103	 1.9363332382	-0.1389145941	 0.10641
H	-0.5129396677	 1.9509309506	-0.9213148462	 0.149395
H	-0.3842015382	 2.0801417811	 0.8348308602	 0.116832
H	 0.5184270224	-0.3537343997	-0.8010599725	 0.095386
H	-2.370591149	 0.9793296874	 1.3395309351	 0.127904
H	-3.2768390705	-0.5313486447	 1.2019340528	 0.139581
H	-1.8287299733	-0.4872358884	 2.2040350356	 0.116411
H	-1.5841656007	-0.210811691	-1.9722735163	 0.224053
H	-2.9854808945	-0.5202178922	-1.2614683939	 0.243089
72.2412	100.8011	192.8413	213.5221	242.2628	254.8193	264.8107	290.6189	333.6727	354.3803	375.5318	407.1227	414.019	478.8326	567.5859	623.8847	735.1229	766.9009	846.0069	909.7976	934.6282	944.2275	965.905	1010.7122	1033.1854	1052.9724	1088.8757	1145.8596	1157.7654	1183.0595	1256.3755	1280.1661	1352.7132	1362.7518	1402.0108	1404.3	1416.5068	1482.5313	1491.573	1499.9213	1504.8828	1514.1133	1648.0316	1676.4975	1835.759	3015.7785	3036.1159	3046.6271	3096.9799	3114.5978	3128.7949	3140.0008	3147.61	3463.7721	3493.1602	3530.5862	3571.9323
CC([NH3+])C(C)(N)C([O-])=O	C[C@@H](N)[C@@](C)(N)C(=O)O	
InChI=1S/C5H12N2O2/c1-3(6)5(2,7)4(8)9/h3H,6-7H2,1-2H3,(H,8,9)	InChI=1S/C5H12N2O2/c1-3(6)5(2,7)4(8)9/h3H,6-7H2,1-2H3,(H,8,9)/t3-,5-/m1/s1
