13
gdb 9459	2.9948	1.80401	1.66804	1.3948	61.14	-0.2723	-0.0054	0.2669	836.4222	0.093542	-398.546925	-398.539182	-398.538238	-398.57896	28.125	
O	 0.0675074168	 1.4176604838	 0.0544221637	-0.442945
C	 0.0493791431	 0.00835591	 0.0356847112	 0.095746
C	-1.3935441486	-0.5277287729	-0.1477130131	-0.102288
O	-1.0370401002	-1.0743181029	-1.4556828606	-0.250336
C	 0.2508938157	-0.6053677865	-1.3607033751	 0.395886
N	 1.2160755647	-0.6295042487	-2.1546270048	-0.546175
C	 0.8401140324	-0.5900621848	 1.1021825471	 0.304008
C	 1.5051997004	-1.0700274838	 1.9800624079	-0.474678
H	 0.9763550586	 1.6965350413	-0.1112759065	 0.300136
H	-1.7097383915	-1.3136033135	 0.5384683632	 0.135875
H	-2.138211419	 0.2648407973	-0.2359318338	 0.139412
H	 0.9775706149	-1.0840931823	-3.0375106114	 0.235871
H	 2.0964747726	-1.495566587	 2.753468702	 0.209489
106.1827	127.4995	179.6436	201.7266	317.866	356.7118	403.2262	517.2909	582.3478	642.0988	646.1316	678.1031	709.3089	773.7628	860.5334	933.8433	955.8282	998.6909	1014.3871	1149.5511	1152.3443	1211.6444	1229.2088	1344.8137	1380.7409	1500.1557	1831.1605	2238.234	3083.7582	3157.6509	3480.1195	3498.2394	3797.2267
OC1(COC1=N)C#C	O[C@]1(CO[C]1[NH])C#C	
InChI=1S/C5H5NO2/c1-2-5(7)3-8-4(5)6/h1,6-7H,3H2	InChI=1S/C5H5NO2/c1-2-5(7)3-8-4(5)6/h1,6-7H,3H2/t5-/m0/s1
