17
gdb 50222	3.98595	1.36507	1.30708	3.3422	72.26	-0.2422	-0.0257	0.2165	1004.908	0.136733	-421.78315	-421.776262	-421.775317	-421.814862	26.936	
O	-0.131949165	 0.0413918251	-0.3041133386	-0.238214
C	 0.0034488649	 1.1763634693	 0.0659916127	 0.147766
C	 1.2964462566	 1.9689193057	-0.0066755	-0.002934
O	 2.4376976237	 1.1447142404	-0.2135031838	-0.269075
C	 2.9340451127	 1.6048771313	-1.4590921538	 0.148936
C	 2.8618795336	 3.1585647835	-1.5270619654	-0.089296
C	 2.6001476407	 3.0566678607	-3.0468070429	-0.257349
C	 1.7669517228	 1.9032474515	-2.4423524989	-0.079491
C	 1.3480648205	 2.8538977486	-1.2657059831	-0.074157
H	-0.8520466922	 1.7648612444	 0.4760426806	 0.070765
H	 1.4034858314	 2.5552866493	 0.918351927	 0.094138
H	 3.819681418	 1.0454586876	-1.7551802644	 0.093195
H	 3.4820011782	 3.8742944584	-0.9865525448	 0.078051
H	 2.0376316529	 3.87668005	-3.4990240364	 0.100979
H	 3.4498987395	 2.7737395195	-3.6743171963	 0.099494
H	 1.1338540976	 1.1780403985	-2.9515163211	 0.094294
H	 0.5912520541	 3.6242163262	-1.4125362309	 0.082899
71.0349	150.2117	225.5411	343.8236	411.011	444.7893	668.2643	710.1614	748.7983	787.8574	804.5836	857.3434	891.5055	894.0476	914.2437	963.0703	975.6455	991.083	1014.7414	1019.3815	1075.6514	1085.4076	1102.8014	1119.167	1122.036	1166.0731	1183.7388	1230.5196	1237.2106	1255.1126	1263.9379	1269.8673	1334.1668	1370.4482	1420.8652	1522.1252	1842.4236	2845.8509	2999.2676	3055.6514	3109.9858	3116.2368	3123.2519	3130.8675	3149.1486
O=CC1OC2C3CC2C13	O=C[C@H]1O[C@@H]2[C@H]3C[C@@H]2[C@@H]13	
InChI=1S/C7H8O2/c8-2-5-6-3-1-4(6)7(3)9-5/h2-7H,1H2	InChI=1S/C7H8O2/c8-2-5-6-3-1-4(6)7(3)9-5/h2-7H,1H2/t3-,4+,5-,6-,7+/m1/s1
