14
gdb 27458	2.49481	1.65062	0.99338	4.4844	77.3	-0.2408	-0.1005	0.1403	1095.6295	0.102576	-436.728814	-436.721562	-436.720618	-436.761136	27.29	
O	 0.0052977976	 1.343385589	 0.00819257	-0.390547
C	-0.0079200224	-0.0076906074	 0.0009812867	 0.403641
C	-1.2377744377	-0.6021631405	 0.0050407073	-0.236949
C	-1.6104302639	-2.0038991066	-0.0004168432	 0.343355
O	-2.7892944501	-2.3466015216	 0.0043960023	-0.377688
C	-0.5756219797	-3.0608989971	-0.0118887344	-0.140239
C	 0.7714765306	-2.9611996947	-0.0192965376	-0.086796
C	 1.5825873484	-1.7727938879	-0.0179069023	 0.02487
N	 1.2630104772	-0.5218758706	-0.0093745091	-0.345955
H	 0.9379918526	 1.5995007142	 0.0040257842	 0.300194
H	-2.0865723677	 0.0742878326	 0.0136819438	 0.128647
H	-1.0182420618	-4.0541597803	-0.0144447136	 0.133587
H	 1.3424577868	-3.8864591339	-0.0274643449	 0.116557
H	 2.6585483601	-1.9581539552	-0.0253131893	 0.127323
53.7889	152.561	273.7185	337.4341	392.5221	436.787	468.4649	515.9383	520.4967	605.5424	653.2622	749.7955	806.9071	853.9389	875.25	921.7946	956.4197	1001.1802	1023.198	1049.2995	1212.5401	1224.2049	1259.9769	1324.1531	1406.5648	1436.1734	1475.2094	1583.6465	1661.1555	1680.2474	1712.1737	3108.8561	3156.4884	3177.337	3189.3742	3769.14
OC1=CC(=O)C=CC=N1	Oc1cc(=O)cccn1	
InChI=1S/C6H5NO2/c8-5-2-1-3-7-6(9)4-5/h1-4,9H	InChI=1S/C6H5NO2/c8-5-2-1-3-7-6(9)4-5/h1-4,9H
