16
gdb 50443	3.03664	1.45528	0.9957	5.8152	72.24	-0.2406	-0.0306	0.2101	1127.0452	0.124562	-437.941092	-437.932856	-437.931912	-437.975695	29.177	
O	-0.2700607784	 0.0371055869	 0.4132313826	-0.259887
C	-0.0623836039	 1.2035637904	 0.2393015008	 0.170453
N	 1.1741193083	 1.8416141414	 0.0356968473	-0.167718
C	 1.0650808274	 3.3016374201	-0.1464690641	-0.208132
C	 2.3614541379	 4.0067442385	-0.3636407431	-0.075698
C	 3.5363380223	 3.3933291378	-0.396319124	-0.057998
C	 3.6726279795	 1.9173122328	-0.2160443983	-0.375756
C	 2.3888178034	 1.1245009711	 0.0128465263	 0.411939
O	 2.4381642396	-0.0692594961	 0.165663746	-0.307537
H	-0.8771773216	 1.9575379413	 0.2185439599	 0.079687
H	 0.3979496067	 3.5012500897	-0.9973802655	 0.136832
H	 0.5638541954	 3.7294695466	 0.7336709837	 0.136837
H	 2.2820982317	 5.0812907535	-0.4969443306	 0.10726
H	 4.4482986051	 3.9609939449	-0.558551305	 0.105711
H	 4.1628353883	 1.4558812106	-1.0831662633	 0.152004
H	 4.3296008184	 1.6805206705	 0.6309439873	 0.152002
31.5349	38.495	154.2529	240.5615	253.9798	374.8833	402.6087	486.0884	509.6741	581.2902	626.3733	694.2125	704.2197	889.6651	961.876	966.4068	1007.5096	1009.8875	1016.2514	1036.987	1130.9749	1176.2067	1204.6227	1217.235	1270.797	1290.1111	1356.2142	1414.5453	1424.212	1447.3632	1482.931	1508.2504	1762.1986	1786.5278	1869.907	2907.0818	2994.9225	3015.1725	3029.7839	3051.672	3162.4543	3186.283
O=CN1CC=CCC1=O	O=CN1CC=CCC1=O	
InChI=1S/C6H7NO2/c8-5-7-4-2-1-3-6(7)9/h1-2,5H,3-4H2	InChI=1S/C6H7NO2/c8-5-7-4-2-1-3-6(7)9/h1-2,5H,3-4H2
