18
gdb 51605	4.36683	0.65127	0.61917	2.6941	74.83	-0.2471	-0.0333	0.2138	1754.1827	0.143943	-439.059655	-439.049873	-439.048929	-439.096636	33.117	
O	 1.7375379725	 2.6498229387	 2.2221557881	-0.229708
C	 1.0167473953	 2.9189092874	 1.2978788087	 0.163041
C	 0.8585757519	 2.0672147724	 0.0530805392	-0.310909
C	 1.1078685788	 2.8960615735	-1.1977972288	 0.005108
C	 2.4710688006	 2.9864133258	-1.7969965204	-0.253217
N	 1.3888772247	 2.3002719269	-2.5008845144	-0.102442
C	 1.4697578849	 0.8573634252	-2.652465791	-0.232386
C	 1.9758528092	 0.5139048902	-4.0475575825	 0.157401
O	 2.5503750675	-0.5063629366	-4.3198424552	-0.235331
H	 0.4000234556	 3.8477061585	 1.3022593187	 0.078687
H	 1.5351923798	 1.2147123157	 0.1363370989	 0.129429
H	-0.1750811593	 1.6900017135	 0.0386047273	 0.127568
H	 0.464394953	 3.7726192393	-1.2708983123	 0.102956
H	 2.8257095396	 3.9090841806	-2.2475038072	 0.126458
H	 3.2477218742	 2.3723538369	-1.3418951123	 0.124497
H	 2.1002134329	 0.3338014652	-1.9193124044	 0.120904
H	 0.4561360019	 0.437393733	-2.5741577289	 0.13518
H	 1.749446777	 1.2925248736	-4.8087757437	 0.092763
38.417	59.8765	67.2579	82.8083	112.1459	232.2041	278.4149	318.7793	421.4639	498.8049	502.3639	556.7309	720.0623	759.7364	814.2243	891.2594	908.6075	974.5942	1033.0655	1049.4306	1055.877	1109.2461	1116.055	1129.5485	1168.3359	1177.1959	1216.0878	1258.2746	1290.953	1331.1123	1342.2473	1402.6989	1423.7584	1431.7196	1454.755	1464.4324	1508.7749	1837.8365	1842.318	2863.0577	2899.5927	2991.8622	3007.3827	3038.1032	3091.5404	3102.0038	3124.8415	3183.8931
O=CCC1CN1CC=O	O=CC[C@H]1CN1CC=O	
InChI=1S/C6H9NO2/c8-3-1-6-5-7(6)2-4-9/h3-4,6H,1-2,5H2	InChI=1S/C6H9NO2/c8-3-1-6-5-7(6)2-4-9/h3-4,6H,1-2,5H2/t6-,7?/m0/s1
