23
gdb 81652	2.68813	1.49797	1.22919	0.31	90.12	-0.2276	0.0234	0.251	1148.3639	0.208697	-351.158484	-351.150325	-351.149381	-351.190584	33.427	
C	-0.1948667355	 1.4561380339	 0.0449276598	-0.419553
C	 0.0302217344	-0.0505051037	-0.0222496574	 0.044054
C	 0.9018290381	-0.5228769701	-1.2270765078	 0.00505
C	 2.1368251104	-0.4935396458	-0.2821239554	-0.244431
C	 1.1588512912	-0.5879513294	 0.92879933	-0.048991
C	 0.8891713671	-1.9936300641	 1.3916498654	-0.068009
C	 0.7651128995	-3.0669631793	 0.6072222251	-0.05479
C	 0.9507062602	-3.1346566278	-0.8933616343	-0.255063
C	 0.5212637124	-1.919794924	-1.7489604099	-0.217291
H	 0.7443437384	 2.0121834311	-0.0514190428	 0.112906
H	-0.8589799577	 1.789164867	-0.7608435404	 0.11164
H	-0.6541112567	 1.7447279526	 0.9969590304	 0.111797
H	-0.9254095144	-0.5742329294	 0.0832077921	 0.061091
H	 0.9303618034	 0.1780488428	-2.068112601	 0.056226
H	 2.8832525384	-1.2842338623	-0.3824177393	 0.096322
H	 2.6511565237	 0.4701983177	-0.3099994536	 0.094337
H	 1.3943258487	 0.0543393348	 1.7820767857	 0.054731
H	 0.7507922156	-2.1268101183	 2.4623892753	 0.078479
H	 0.556492967	-4.0219663888	 1.0854995748	 0.081855
H	 2.0107967853	-3.3489256062	-1.0938243904	 0.114344
H	 0.416664806	-4.0140995963	-1.2716723969	 0.097531
H	-0.5675478286	-1.944214998	-1.8865903551	 0.097194
H	 0.9545085631	-2.0614901665	-2.7466013943	 0.09057
129.4307	202.8122	226.6726	240.3025	281.9453	339.5819	363.9488	395.8157	487.8769	567.8683	671.9287	736.4811	759.7625	792.2158	817.529	858.2226	870.5366	888.8532	911.7803	975.7851	984.8533	1001.0712	1042.0858	1053.6723	1083.6273	1091.5258	1104.7221	1125.5147	1145.5042	1169.1274	1219.9755	1240.5994	1244.3431	1266.4209	1276.4589	1298.2021	1322.2561	1344.0309	1364.5679	1386.1558	1391.7333	1406.8218	1422.8813	1474.0555	1488.2875	1494.7342	1495.4511	1502.0032	1715.3665	2996.7528	3013.6698	3022.6241	3038.4691	3044.9559	3049.1055	3055.7519	3056.6931	3068.8074	3088.549	3092.9213	3114.3964	3132.3002	3157.1795
CC1C2CC1C=CCC2	C[C@H]1[C@H]2C[C@@H]1C=CCC2	
InChI=1S/C9H14/c1-7-8-4-2-3-5-9(7)6-8/h2,4,7-9H,3,5-6H2,1H3	InChI=1S/C9H14/c1-7-8-4-2-3-5-9(7)6-8/h2,4,7-9H,3,5-6H2,1H3/t7-,8+,9-/m1/s1
