17
gdb 92420	2.21203	1.66329	1.33897	1.816	69.04	-0.2545	-0.05	0.2046	1030.4179	0.133966	-458.928512	-458.920189	-458.919245	-458.96163	30.5	
C	-0.4321438859	 1.5382328525	 0.2261872773	-0.41226
C	 0.031141643	 0.1050759239	 0.129688093	 0.105823
O	 1.0481248554	-0.1144395221	-0.8989785962	-0.31053
C	 1.9312805985	-0.7422308575	 0.0275899558	 0.027284
C	 2.880144786	 0.2344258443	 0.7398058274	-0.106731
O	 1.8952936004	 0.4962185084	 1.7775849426	-0.333637
C	 0.9751789019	-0.4547892533	 1.2235917489	 0.259842
C	 0.4564879484	-1.4489495013	 2.2166150803	 0.084281
O	-0.4482369593	-2.2110565184	 1.9821892956	-0.253951
H	-0.8102682005	 1.8701639558	-0.7451867256	 0.133279
H	-1.242708225	 1.6250321292	 0.9572071549	 0.127477
H	 0.3876586492	 2.1917498248	 0.5326971269	 0.135047
H	-0.80152714	-0.5902017565	-0.0293303367	 0.106671
H	 2.2948386181	-1.7176106385	-0.2996513021	 0.105217
H	 3.7843364157	-0.2185215615	 1.1640604791	 0.113487
H	 3.1351124442	 1.128505279	 0.1632399067	 0.122696
H	 0.98846107	-1.4330258086	 3.192353592	 0.096006
90.4892	119.2415	180.2158	206.9833	218.1583	253.2059	393.3258	397.5273	487.8376	568.3068	660.9522	699.7756	821.7127	857.1517	873.3168	896.8619	972.888	999.8801	1044.2124	1066.5473	1095.2598	1107.771	1140.1056	1156.5096	1164.0626	1180.5478	1224.5613	1301.0391	1334.8764	1342.4261	1378.8016	1397.4385	1408.707	1482.2519	1491.0547	1502.1286	1815.0325	2906.6925	3027.9098	3042.9435	3047.1434	3095.0349	3104.1858	3114.4241	3134.6329
CC1OC2COC12C=O	C[C@H]1O[C@H]2CO[C@@]12C=O	
InChI=1S/C6H8O3/c1-4-6(3-7)5(9-4)2-8-6/h3-5H,2H2,1H3	InChI=1S/C6H8O3/c1-4-6(3-7)5(9-4)2-8-6/h3-5H,2H2,1H3/t4-,5+,6+/m1/s1
