19
gdb 24611	4.89497	1.05613	0.89725	1.4075	83.72	-0.1666	0.0556	0.2222	1296.3502	0.161821	-382.077494	-382.069468	-382.068524	-382.110522	30.75	
C	-0.1881247706	 1.534375159	 0.0896026305	-0.235263
C	 1.325647338	 1.5317186397	-0.2432855666	-0.161715
N	 1.419949373	 0.186745712	 0.3404302327	-0.154135
C	-0.0418688398	 0.0089394455	 0.3278321005	-0.163636
C	 2.3019987331	-0.7771684741	-0.138972573	 0.309103
C	 3.4920478416	-0.5527241945	-0.8058517305	-0.195488
N	 4.062432464	-1.7853796471	-1.0570921602	-0.238139
C	 3.2578155436	-2.7778786033	-0.5764633893	-0.065693
C	 2.1549484255	-2.1910159119	 0.002111423	-0.256537
H	-0.4282912924	 2.0911811112	 0.9969349956	 0.111866
H	-0.8629224827	 1.8397767645	-0.7101909441	 0.106238
H	 1.5308582224	 1.5429458678	-1.3259707869	 0.087727
H	 1.9537965447	 2.2886782149	 0.2399183547	 0.099589
H	-0.4628014828	-0.4005195185	 1.2526786546	 0.101162
H	-0.3965617722	-0.5969762526	-0.5197621769	 0.093348
H	 3.9793646365	 0.3621442286	-1.09755577	 0.105235
H	 4.9360616126	-1.9260695951	-1.5304998037	 0.257429
H	 3.5274728239	-3.8163224814	-0.6827260928	 0.11282
H	 1.3356501915	-2.7062687946	 0.4787393122	 0.08609
63.4857	106.3358	161.7568	197.8106	344.9906	400.2081	447.2462	475.5715	609.7253	625.94	680.9706	732.6917	745.5796	800.5502	853.4502	870.0917	900.3138	929.8875	940.9083	984.5724	1053.7297	1081.6422	1118.1831	1119.6787	1135.2706	1157.7095	1168.5667	1201.7087	1220.5835	1267.0634	1280.9346	1301.0687	1345.772	1359.5306	1410.3738	1482.3082	1489.6955	1510.2738	1527.1769	1535.9391	1624.8639	2968.7757	2985.9137	3045.764	3051.5167	3086.5787	3141.3979	3247.3295	3268.6012	3272.6183	3698.3935
C1CN(C1)C1=CNC=C1	C1CN(C1)c1c[nH]cc1	
InChI=1S/C7H10N2/c1-4-9(5-1)7-2-3-8-6-7/h2-3,6,8H,1,4-5H2	InChI=1S/C7H10N2/c1-4-9(5-1)7-2-3-8-6-7/h2-3,6,8H,1,4-5H2
