18
gdb 74247	3.2437	1.2898	1.07154	1.8835	83.73	-0.2231	0.0114	0.2345	1167.5982	0.14689	-364.758421	-364.750054	-364.749109	-364.791171	32.336	
C	-0.0833295849	 1.5131593282	 0.0941592816	-0.498676
C	-0.0074358637	 0.0219181392	 0.0173655798	 0.327772
C	 0.0906995335	-0.7486082369	-1.0669356139	-0.199302
C	 0.104181959	-2.2255906984	-0.6929233673	-0.193868
C	 1.2441949036	-2.9593350444	-1.2382659048	 0.356183
C	 2.1837388439	-3.5491410998	-1.7007037039	-0.480356
N	 0.0546242022	-2.2564466699	 0.802453994	-0.103057
C	 1.2154677347	-1.6489800848	 1.4638524051	-0.236471
C	-0.0181861426	-0.8432169309	 1.2376643646	-0.121911
H	 0.7534308197	 1.921945581	 0.6737573388	 0.133556
H	-0.0685154449	 1.9686181948	-0.8989413953	 0.129497
H	-1.0013744487	 1.8336695233	 0.6022654748	 0.131437
H	 0.1805926173	-0.4098789686	-2.0919188218	 0.105712
H	-0.8136676609	-2.7162716027	-1.0489622677	 0.118213
H	 3.0096076824	-4.0792266166	-2.1065507825	 0.198063
H	 1.4277598552	-2.0630766346	 2.4457512152	 0.116587
H	 2.0881916909	-1.4057907184	 0.8634603866	 0.123957
H	-0.6896373268	-0.6080615506	 2.0604970969	 0.092664
96.0826	137.7567	175.3838	208.0236	294.7679	315.3439	369.1029	485.7305	534.0109	570.6546	603.8711	618.8742	655.5252	726.5348	783.6875	828.731	838.1809	867.0981	948.0022	1005.7079	1013.4236	1029.6637	1051.351	1072.2349	1092.8645	1108.859	1157.7626	1193.4652	1245.3751	1273.0152	1298.0943	1330.3071	1378.168	1413.6488	1478.579	1487.7825	1494.6918	1714.0835	2236.0928	2987.7599	3022.648	3070.0806	3106.0082	3118.7917	3132.3614	3196.4364	3207.5048	3503.3251
CC1=CC(C#C)N2CC12	CC1=C[C@@H](C#C)N2C[C@@H]12	
InChI=1S/C8H9N/c1-3-7-4-6(2)8-5-9(7)8/h1,4,7-8H,5H2,2H3	InChI=1S/C8H9N/c1-3-7-4-6(2)8-5-9(7)8/h1,4,7-8H,5H2,2H3/t7-,8+,9?/m1/s1
