18
gdb 42421	2.95798	1.01657	0.88459	3.0106	79.64	-0.225	-0.0573	0.1677	1359.5609	0.145707	-401.892874	-401.883667	-401.882723	-401.928282	32.819	
O	-1.0346637001	 1.2964976696	 1.8859010019	-0.278732
C	-0.2656210103	 1.5787169546	 0.9935410117	 0.235151
C	 1.1700278644	 2.0241212191	 1.2677183502	-0.2637
N	 2.1120548501	 1.4946043355	 0.3162481559	-0.067235
C	 2.554015607	 0.0882139749	 0.4370078081	-0.163047
C	 3.9651558857	 0.5319150851	-0.0177698816	-0.225882
C	 3.5112843938	 1.9666044868	 0.3474172056	-0.157934
C	-0.6752764718	 1.5421961989	-0.4006917499	 0.312888
C	-1.0642951585	 1.5179612218	-1.5395515761	-0.462014
H	 1.1772726287	 3.12089136	 1.1864859007	 0.131348
H	 1.3913908249	 1.7685660644	 2.3197337093	 0.103643
H	 2.5467792765	-0.2748940298	 1.4780198932	 0.091799
H	 2.0042433989	-0.6217350989	-0.188582615	 0.110647
H	 4.8152656101	 0.1253663364	 0.5296877179	 0.108256
H	 4.1232753029	 0.400572168	-1.0893414841	 0.116887
H	 3.7364738326	 2.7795353583	-0.3509185736	 0.105259
H	 3.8474187238	 2.2605899713	 1.3551513378	 0.087988
H	-1.4054879887	 1.4955784943	-2.5459209622	 0.214678
31.9675	70.7605	98.8906	156.4686	212.6841	248.9939	341.0761	343.7295	423.0498	580.4206	637.7037	642.5858	711.9152	717.5225	749.5311	802.092	848.5227	927.696	938.5535	967.4931	1003.9775	1090.3397	1132.045	1136.9561	1185.6608	1211.6056	1213.7245	1239.8351	1262.9734	1271.329	1300.9561	1341.7287	1370.4961	1459.279	1488.6396	1506.7286	1534.5465	1769.6033	2210.8605	2945.6193	2965.9824	2974.4801	3027.9013	3060.0212	3068.6548	3090.2858	3146.2622	3495.8823
O=C(CN1CCC1)C#C	O=C(CN1CCC1)C#C	
InChI=1S/C7H9NO/c1-2-7(9)6-8-4-3-5-8/h1H,3-6H2	InChI=1S/C7H9NO/c1-2-7(9)6-8-4-3-5-8/h1H,3-6H2
