20
gdb 92181	2.71959	1.87033	1.66276	0.4002	77.31	-0.2151	0.0832	0.2983	933.2314	0.173776	-403.096252	-403.089252	-403.088307	-403.127191	29.351	
C	-0.014803665	 1.5480362042	-0.0268813375	-0.42001
C	 0.0406892782	 0.0193664384	 0.0353401218	 0.138789
O	 0.6464384035	-0.5649989682	-1.1348015911	-0.290268
C	 1.9518878014	-1.0629999575	-0.8884274984	 0.090732
C	 2.7867233962	-0.0430351244	-0.0896053785	-0.19994
N	 2.2511733329	-0.6321000454	 1.1859797322	-0.156195
C	 2.0103696604	-1.9315537637	 0.4192610799	 0.001885
C	 0.6709745072	-2.119413835	 1.1241103507	-0.247419
C	 0.7174313447	-0.5784067187	 1.2735900993	-0.023881
H	 0.9451784041	 2.02867409	 0.1694421081	 0.125715
H	-0.3620494868	 1.8619306911	-1.0153096178	 0.127566
H	-0.7287722464	 1.915738487	 0.7182994303	 0.11463
H	-0.9987883268	-0.3373722367	 0.0284447442	 0.083186
H	 2.3133904338	-1.4732018893	-1.8344845309	 0.075652
H	 3.8606338995	-0.2551768921	-0.1218662966	 0.10855
H	 2.6299286878	 1.0197022141	-0.2775190444	 0.106661
H	 2.7934780862	-2.6937423341	 0.4549629318	 0.070232
H	-0.1630168017	-2.5441976071	 0.5616294309	 0.107815
H	 0.7948143706	-2.6424280687	 2.0742813723	 0.110718
H	 0.3532386403	-0.1220208838	 2.1970569638	 0.075583
156.4159	232.7277	251.3439	344.1408	400.6321	440.032	478.4913	552.3421	667.0152	730.737	740.3897	775.4815	817.7774	851.6147	860.6005	943.9722	951.6905	968.1568	978.4466	991.8052	1026.7091	1043.5886	1061.9815	1111.0655	1127.9167	1135.7431	1155.8628	1200.3139	1204.568	1233.4289	1242.8824	1263.1556	1286.0926	1316.517	1329.357	1341.9776	1375.7651	1400.4147	1404.9731	1480.319	1485.4708	1496.4929	1512.8241	3000.575	3043.701	3051.1443	3065.1055	3073.1319	3079.2725	3086.3449	3109.9981	3123.3378	3130.6993	3144.0872
CC1OC2CN3C2CC13	C[C@H]1O[C@H]2CN3[C@H]2C[C@H]13	
InChI=1S/C7H11NO/c1-4-5-2-6-7(9-4)3-8(5)6/h4-7H,2-3H2,1H3	InChI=1S/C7H11NO/c1-4-5-2-6-7(9-4)3-8(5)6/h4-7H,2-3H2,1H3/t4-,5-,6+,7+/m1/s1
