19
gdb 86298	2.13191	1.44679	1.17857	0.7188	72.89	-0.2579	-0.0475	0.2104	1154.7812	0.156023	-460.164915	-460.155259	-460.154315	-460.199779	35.159	
C	-0.2577172709	 1.290051055	-1.2869124597	-0.396254
C	 0.2558213816	-0.0801939354	-0.8995480852	 0.096123
O	 1.6223068094	-0.3168092592	-1.2997473264	-0.309362
C	 2.0544937926	-0.5734579492	 0.0533268842	 0.096138
C	 3.1554848796	 0.3540067459	 0.5212428595	-0.396264
C	 0.6152824939	-0.2984961279	 0.6106370267	 0.221191
O	 0.4766731132	 0.8053417322	 1.4437620417	-0.465214
C	-0.0434175578	-1.5032985093	 1.2302465332	 0.109262
O	-0.5964207001	-1.446706525	 2.3030910809	-0.277683
H	 0.3356277033	 2.0794083913	-0.8222737154	 0.138382
H	-0.2092123902	 1.399202369	-2.3747530189	 0.127034
H	-1.2994028759	 1.4101540809	-0.9728677968	 0.121031
H	-0.4006220194	-0.8626351367	-1.307597891	 0.072961
H	 2.3686836116	-1.6220986962	 0.1594892443	 0.072961
H	 2.8297446317	 1.3953741026	 0.4993509917	 0.138388
H	 3.4538202474	 0.1064792685	 1.5449050389	 0.12103
H	 4.0265348434	 0.2377616651	-0.131003543	 0.127039
H	-0.0197607427	 0.4901168079	 2.2172049893	 0.295579
H	 0.0074798596	-2.4446605293	 0.6470411461	 0.107661
40.1416	91.9771	189.9779	193.2037	211.812	229.802	285.8508	300.6454	356.2139	431.5543	464.544	487.5393	529.8572	567.2155	764.3053	835.5042	842.0048	878.4884	930.0146	1001.1541	1011.5738	1057.3921	1080.8936	1093.4399	1118.9745	1133.3084	1159.2736	1275.0748	1280.1815	1323.9932	1356.1949	1376.42	1400.346	1402.0828	1414.3707	1442.3079	1478.2093	1481.7051	1486.4488	1488.2576	1804.7113	2936.7779	2986.1737	2993.5242	3045.292	3045.907	3113.6745	3113.9507	3141.3031	3143.5331	3669.092
CC1OC(C)C1(O)C=O	C[C@H]1O[C@@H](C)[C@]1(O)C=O	
InChI=1S/C6H10O3/c1-4-6(8,3-7)5(2)9-4/h3-5,8H,1-2H3	InChI=1S/C6H10O3/c1-4-6(8,3-7)5(2)9-4/h3-5,8H,1-2H3/t4-,5+,6+
