17
gdb 54665	3.41985	1.2788	0.9879	3.9544	75.48	-0.2385	-0.0285	0.21	1169.7722	0.137925	-418.02432	-418.016477	-418.015533	-418.056989	30.349	
N	-0.0583338175	 1.3292529295	 0.1262528867	-0.541867
C	 0.0413516345	-0.0400195829	 0.014876022	 0.295859
O	 1.1137677297	-0.6056052418	-0.0966579021	-0.360888
C	-1.2601217964	-0.7592988996	 0.0063674675	 0.300939
C	-1.3689143155	-2.0862761056	 0.1578770216	-0.14401
C	-2.8027867365	-2.5599916969	 0.1256391646	-0.266624
C	-3.5928770689	-1.2618814028	-0.0156093209	-0.032422
N	-3.4381637326	-0.335423876	 1.1256854724	-0.336007
C	-2.6195558331	-0.1399136355	-0.1088629617	-0.222499
H	 0.8100567351	 1.8135556689	 0.2966455494	 0.257737
H	-0.8855128402	 1.7343018993	 0.5338774793	 0.260013
H	-0.5215658085	-2.7421787125	 0.3167780591	 0.126558
H	-2.9817675537	-3.2382450243	-0.719075684	 0.11644
H	-3.0728420177	-3.1077636606	 1.0363724308	 0.129178
H	-4.5272185355	-1.2534849392	-0.5661131839	 0.093324
H	-4.2194189232	 0.3188777165	 1.1050992014	 0.228358
H	-2.7922325699	 0.7369800634	-0.7243254123	 0.095909
61.8076	137.7548	190.2023	296.5486	375.3172	397.1547	408.6037	448.5476	534.4174	611.9901	650.7286	732.3317	769.622	811.2385	831.9387	860.8382	877.4724	919.003	936.6588	979.4997	1005.2624	1074.0718	1098.2189	1115.052	1139.7536	1167.3453	1191.4239	1244.6277	1266.1265	1320.2828	1362.4611	1380.4289	1414.7454	1457.3701	1616.9752	1676.279	1781.0792	3024.4888	3062.1339	3162.0579	3173.2236	3218.3716	3471.9307	3580.1452	3706.6928
NC(=O)C1=CCC2NC12	NC(=O)C1=CC[C@H]2N[C@@H]12	
InChI=1S/C6H8N2O/c7-6(9)3-1-2-4-5(3)8-4/h1,4-5,8H,2H2,(H2,7,9)	InChI=1S/C6H8N2O/c7-6(9)3-1-2-4-5(3)8-4/h1,4-5,8H,2H2,(H2,7,9)/t4-,5+/m1/s1
