22
gdb 122492	4.40318	0.59178	0.54633	3.0231	86.62	-0.2389	-0.029	0.2099	2058.2437	0.191968	-404.330907	-404.320543	-404.319599	-404.367462	36.739	
C	-0.1005273543	 1.7034931494	-0.3362208623	-0.379552
C	-0.0135903978	 0.2238673262	 0.0474235438	-0.167787
C	-1.3619457501	-0.4975439728	-0.0490066083	-0.159489
C	-1.2722829967	-1.9756293454	 0.3338269512	-0.154675
N	-2.6023006552	-2.5872481888	 0.2612891988	-0.073486
C	-2.9625452282	-3.3201399781	-0.9233793075	-0.252042
C	-2.7788868491	-4.0424088341	 0.3874433714	-0.091389
C	-1.6349997653	-4.9820995029	 0.5101982642	 0.157227
O	-1.6918181469	-6.0188352238	 1.1257626501	-0.265502
H	 0.8748968125	 2.1936185903	-0.259515249	 0.113465
H	-0.4544745839	 1.8250371731	-1.3659746332	 0.114753
H	-0.7963445855	 2.2411494535	 0.3170982588	 0.117087
H	 0.7176204077	-0.2794425524	-0.5992316578	 0.095449
H	 0.3743946923	 0.1326639103	 1.0706169134	 0.098408
H	-2.0991416652	-0.0117164614	 0.6012575406	 0.109279
H	-1.7522543061	-0.4150497033	-1.0722494049	 0.096655
H	-0.5334176885	-2.4729657844	-0.3151095151	 0.090955
H	-0.9153616768	-2.0733207381	 1.3661412447	 0.11308
H	-3.9701248228	-3.1832067132	-1.3065470773	 0.132271
H	-2.197297873	-3.4783740755	-1.6848664082	 0.117341
H	-3.6546814338	-4.346481735	 0.9551725969	 0.113831
H	-0.7055089233	-4.6788631236	-0.0189922302	 0.074118
50.0574	76.195	85.1228	122.4966	140.1723	219.7007	243.9878	269.7139	336.5963	361.492	415.4988	458.5865	559.2897	741.6968	768.4903	809.833	866.4548	906.8073	913.8789	954.2732	994.5189	1030.7664	1036.6181	1068.109	1079.6058	1114.1197	1123.4051	1135.8748	1180.7121	1202.5962	1257.5766	1289.565	1308.3943	1324.5669	1327.3309	1340.8965	1381.3889	1405.4452	1414.8992	1446.1916	1484.4972	1488.0246	1498.67	1499.6417	1507.7508	1515.7721	1811.5354	2889.981	2968.4559	3012.1703	3021.3573	3031.0863	3039.7325	3050.437	3074.4403	3079.6905	3098.0317	3103.7262	3148.9296	3177.4119
CCCCN1CC1C=O	CCCCN1C[C@H]1C=O	
InChI=1S/C7H13NO/c1-2-3-4-8-5-7(8)6-9/h6-7H,2-5H2,1H3	InChI=1S/C7H13NO/c1-2-3-4-8-5-7(8)6-9/h6-7H,2-5H2,1H3/t7-,8?/m0/s1
