19
gdb 9353	5.46975	0.9084	0.85559	1.5141	69.15	-0.2242	0.0151	0.2393	1409.6375	0.163927	-402.224593	-402.214763	-402.213819	-402.260391	33.261	
C	-0.2995073025	 1.2908523059	-0.3215880371	-0.387057
C	-0.1413785862	-0.1767733186	-0.7053293346	-0.108157
N	 1.2253358302	-0.633979634	-0.4402643991	-0.267845
C	 1.4694171076	-2.0052996813	-0.8305423992	-0.289961
C	 1.5601191707	-2.2302498146	-2.340457941	 0.432314
O	 1.6988972847	-1.35436707	-3.1580204141	-0.363376
O	 1.5048738775	-3.5405609977	-2.643101308	-0.226468
C	 1.6428493253	-3.8596012884	-4.0346909276	-0.238802
H	-0.0314331959	 1.4473630433	 0.7272937457	 0.124532
H	 0.3473827947	 1.9278460992	-0.9356215342	 0.11719
H	-1.3307821037	 1.6228824452	-0.4736586084	 0.113855
H	-0.8184507918	-0.7923765285	-0.0983081444	 0.097994
H	-0.4392303634	-0.3166882862	-1.7582073846	 0.093197
H	 1.8691765412	-0.0379543671	-0.9535620372	 0.222992
H	 2.4190825391	-2.3552830917	-0.4032481355	 0.131496
H	 0.6940235434	-2.6601433453	-0.4195988348	 0.131612
H	 0.8441958129	-3.3933401455	-4.6169816701	 0.141594
H	 2.605282857	-3.5097759694	-4.4166773596	 0.140701
H	 1.5783454791	-4.9457682254	-4.0988715462	 0.134192
43.8385	66.5714	97.4588	110.1624	170.6548	210.5394	251.8303	277.8987	313.7341	365.6811	532.6834	578.5062	682.6888	772.7659	820.689	881.6576	905.9704	996.7378	1013.6417	1053.8726	1139.18	1156.4967	1177.8093	1188.9861	1206.0632	1228.0607	1278.0098	1319.0376	1364.9538	1396.0333	1415.3361	1454.0832	1471.9091	1481.2173	1486.2892	1496.867	1498.7149	1515.8144	1520.4201	1816.0543	2962.9302	3022.621	3028.9115	3035.3879	3051.9621	3083.173	3101.186	3118.1218	3126.7074	3159.3127	3506.5711
CCNCC(=O)OC	CCNCC(=O)OC	
InChI=1S/C5H11NO2/c1-3-6-4-5(7)8-2/h6H,3-4H2,1-2H3	InChI=1S/C5H11NO2/c1-3-6-4-5(7)8-2/h6H,3-4H2,1-2H3
