19
gdb 121665	4.1346	0.73607	0.67282	3.5638	75.2	-0.2485	0.0199	0.2685	1677.0602	0.159924	-456.344371	-456.334803	-456.333858	-456.380222	34.005	
O	 0.1685267152	 1.3647199028	-0.318918813	-0.417926
C	-0.0308257696	-0.0058982018	 0.0133390397	-0.077333
C	-1.5115993635	-0.3323834794	 0.1898559469	-0.165043
N	-2.2530452966	 0.0748445651	-0.9869237128	-0.33186
C	-3.2173404132	-0.6889238075	-1.5611991983	 0.445031
O	-3.5889673391	-1.7622990513	-1.1048444103	-0.406725
C	-3.8200047911	-0.1248535578	-2.8165901908	-0.124797
C	-4.0379323296	-1.0885215271	-3.9360363669	-0.220916
N	-5.169873939	-0.5939477669	-3.1571184532	-0.306159
H	-0.0197443381	 1.8915321657	 0.4650859844	 0.288666
H	 0.3776430631	-0.5745871778	-0.8277858608	 0.125728
H	 0.5260428125	-0.2894661959	 0.9173754511	 0.101469
H	-1.6687407889	-1.4045602963	 0.3319581654	 0.147432
H	-1.8978329883	 0.1765271937	 1.0866654955	 0.101747
H	-1.9620550314	 0.9370663573	-1.421542386	 0.253232
H	-3.6204551899	 0.9199265935	-3.0413200619	 0.088129
H	-3.9821381569	-0.7294344612	-4.9596263769	 0.120186
H	-3.704226625	-2.1086557514	-3.7707872438	 0.131564
H	-5.4061770406	-1.3029850838	-2.4611975883	 0.247576
33.3566	80.3539	99.037	121.1944	204.4762	278.3902	310.4114	318.0973	356.8014	415.5435	526.5238	566.9614	692.3555	768.5686	824.4355	858.6288	876.0907	909.4839	957.2604	991.2293	1025.1023	1056.026	1089.3558	1114.1232	1124.0357	1136.6521	1184.0131	1206.917	1232.3579	1275.4161	1293.7241	1326.4637	1379.5739	1388.5319	1410.4319	1416.6331	1495.782	1496.652	1500.9634	1543.7796	1755.8377	2986.2837	3011.7233	3089.6231	3111.027	3114.4833	3137.801	3208.5716	3459.148	3628.6205	3809.8274
OCCNC(=O)C1CN1	OCCNC(=O)[C@H]1CN1	
InChI=1S/C5H10N2O2/c8-2-1-6-5(9)4-3-7-4/h4,7-8H,1-3H2,(H,6,9)	InChI=1S/C5H10N2O2/c8-2-1-6-5(9)4-3-7-4/h4,7-8H,1-3H2,(H,6,9)/t4-/m1/s1
