19
gdb 43078	2.55282	2.00166	1.69066	3.1093	77.44	-0.2296	-0.0087	0.2209	901.3202	0.163442	-385.922184	-385.915805	-385.914861	-385.952668	27.258	
O	-0.0244617724	 0.0203936873	-0.0136068469	-0.343085
C	-0.0370923054	 1.2236976152	-0.0006009135	 0.429871
C	-1.2744537502	 2.1334369941	-0.006869728	-0.133078
C	-1.4976254038	 2.6541205727	 1.4435468488	-0.234061
C	-0.3628935313	 3.6709123717	 1.1746979561	-0.023398
C	 1.028567969	 3.0077714338	 1.3257000608	-0.233372
C	 1.164097713	 2.177084645	 0.0166128579	-0.123039
C	 0.7078256721	 3.2115094633	-1.0383049932	-0.243503
C	-0.6370045243	 3.5172968766	-0.3698284228	-0.019833
H	-2.113470627	 1.7133982335	-0.5618122955	 0.08189
H	-2.4720339545	 3.1417540429	 1.5356165004	 0.104718
H	-1.373890439	 1.9434863451	 2.2668325441	 0.105266
H	-0.4316667928	 4.6528889778	 1.6443759405	 0.066387
H	 1.8207572133	 3.7633171375	 1.3538784846	 0.103809
H	 1.1130275225	 2.4004778156	 2.2319624275	 0.107686
H	 2.1212612436	 1.6785448362	-0.1286032944	 0.077488
H	 1.3738345443	 4.0783789934	-1.0969471534	 0.100496
H	 0.5995208497	 2.7832807217	-2.0406666445	 0.105934
H	-1.2925393667	 4.2529646369	-0.8328740185	 0.069825
138.8742	268.6019	375.6441	415.265	463.6924	508.7822	573.8361	703.693	745.3641	755.9439	814.4263	837.7339	857.9453	886.4448	903.1069	925.1677	949.8809	952.1723	966.6876	998.7234	1023.2564	1062.6964	1080.3296	1108.6874	1118.454	1163.5726	1173.617	1200.388	1210.7515	1240.7067	1250.1022	1267.5205	1294.5244	1298.9238	1315.0647	1330.9145	1343.1082	1481.569	1494.538	1504.1976	1852.6361	3041.9716	3044.1472	3045.5062	3088.874	3091.8354	3095.4293	3102.2198	3112.3641	3129.8499	3133.1285
O=C1C2CC3CC1CC23	O=C1[C@H]2C[C@H]3C[C@@H]1C[C@@H]23	
InChI=1S/C8H10O/c9-8-5-1-4-2-7(8)6(4)3-5/h4-7H,1-3H2	InChI=1S/C8H10O/c9-8-5-1-4-2-7(8)6(4)3-5/h4-7H,1-3H2/t4-,5-,6-,7+/m1/s1
