18
gdb 85727	2.1898	1.3781	0.95502	4.9978	76.9	-0.2601	-0.0394	0.2206	1239.5321	0.146461	-401.962963	-401.953793	-401.952849	-401.997687	32.806	
C	 0.0870975185	 1.584031359	-0.0455297935	-0.41873
C	 0.1138158047	 0.0667323621	 0.0561640458	 0.024474
C	 1.0472129717	-0.7456609801	-0.8796114052	-0.248152
C	 1.3253590664	-1.7212123389	 0.3031486545	-0.160675
C	 2.6743727628	-2.2379656125	 0.4720744169	 0.270863
N	 3.7537519192	-2.6335392408	 0.5979555606	-0.323128
C	 0.7954275688	-0.6294150614	 1.2988766347	-0.130907
C	 1.8663969922	 0.2191729374	 1.9431399317	 0.165775
O	 1.7392560847	 0.7311615782	 3.0253935296	-0.250743
H	 1.0935564124	 2.014077139	-0.0230750299	 0.125743
H	-0.384633653	 1.8946958499	-0.9835961331	 0.125162
H	-0.4821341976	 2.0251589688	 0.7788327173	 0.137815
H	-0.9065041126	-0.323341367	-0.0177369105	 0.095857
H	 0.6212899881	-1.1810749753	-1.7850196052	 0.121967
H	 1.9451484478	-0.1825493071	-1.1474828192	 0.127334
H	 0.6284152643	-2.563075953	 0.2845117634	 0.135733
H	 0.1195604057	-0.9764995218	 2.0815351651	 0.106258
H	 2.7918960058	 0.3699714734	 1.344365857	 0.095354
52.5694	71.2063	125.82	194.7294	229.0135	242.9167	316.6962	335.6444	426.3577	463.1189	521.7772	560.4251	661.9787	745.2383	870.9244	875.6162	923.2184	955.8083	991.5838	1022.0255	1045.6453	1088.0869	1133.7802	1142.9766	1155.5125	1227.6619	1236.3401	1258.9278	1272.5469	1317.8706	1338.4056	1383.6302	1418.721	1439.5003	1490.9715	1495.7213	1500.7366	1826.8907	2351.8478	2886.3892	3036.2902	3050.2821	3070.6332	3079.6361	3104.4064	3108.203	3110.0951	3130.4353
CC1CC(C#N)C1C=O	C[C@H]1C[C@@H](C#N)[C@H]1C=O	
InChI=1S/C7H9NO/c1-5-2-6(3-8)7(5)4-9/h4-7H,2H2,1H3	InChI=1S/C7H9NO/c1-5-2-6(3-8)7(5)4-9/h4-7H,2H2,1H3/t5-,6-,7-/m0/s1
