16
gdb 29080	3.09385	1.45565	0.99603	4.2332	78.84	-0.2016	-0.0308	0.1709	1145.5912	0.125615	-434.100478	-434.092303	-434.091359	-434.133317	30.819	
C	 0.048593504	 1.5225119204	 0.194625413	-0.471773
C	-0.0808391759	 0.0475861122	 0.0437444635	 0.33015
C	-1.1632745109	-0.6380838236	-0.3293277124	-0.128417
N	-1.1378109588	-2.0209248707	-0.4269221434	-0.357994
C	-0.0198488278	-2.7758040136	-0.1530109273	 0.321219
N	-0.0434595197	-4.0448703069	-0.2571631475	-0.52447
C	 1.1915539358	-1.9829746813	 0.2668207996	 0.328772
N	 2.2660574678	-2.5918947776	 0.5396455405	-0.510325
O	 1.098354445	-0.6216192264	 0.342421864	-0.272459
H	 0.8266570279	 1.9215307438	-0.4667492144	 0.139082
H	-0.8963109725	 2.0131428989	-0.0489106892	 0.132918
H	 0.325015684	 1.7927779251	 1.2205624352	 0.139083
H	-2.0953796927	-0.1479153489	-0.5684060676	 0.132676
H	-1.9574024406	-2.5344478779	-0.7093139548	 0.264656
H	 0.8776713175	-4.407666107	-0.0117271336	 0.245554
H	 2.9995585967	-1.9350076566	 0.8073020343	 0.231328
81.4951	115.1037	183.9744	275.0833	286.0463	362.2769	407.4106	474.9986	507.2423	536.2377	562.359	573.0674	693.6668	771.8228	793.3665	803.03	869.0677	898.8618	955.9155	991.9686	1069.736	1085.5264	1112.0404	1187.6678	1263.9616	1279.8948	1356.9755	1423.1611	1443.568	1465.1821	1473.211	1496.125	1719.7913	1732.9676	1775.1666	3026.7721	3075.972	3129.1237	3243.3812	3492.5556	3498.4878	3644.2234
CC1=CNC(=N)C(=N)O1	CC1=CNC(=C([NH])O1)[NH]	
InChI=1S/C5H7N3O/c1-3-2-8-4(6)5(7)9-3/h2,7H,1H3,(H2,6,8)	InChI=1S/C5H7N3O/c1-3-2-8-4(6)5(7)9-3/h2,7H,1H3,(H2,6,8)
