20
gdb 22562	2.33039	1.24037	1.04366	0.6713	78.95	-0.2365	0.0068	0.2432	1260.9364	0.167356	-440.222468	-440.21215	-440.211206	-440.258059	37.357	
C	-1.7627542127	-0.0827676849	-0.5339567371	-0.250773
O	-0.3889238374	-0.0578386865	-0.1840686018	-0.279686
C	 0.4368793026	-0.7162252214	-1.105819188	 0.362788
C	 1.6199424006	-1.4089228252	-0.4773284452	-0.308019
C	 0.4814409399	-2.2202136168	-1.0541490896	-0.325547
C	 0.6362030135	 0.0235867287	-2.3937639083	 0.277079
C	 0.8531036556	 1.5119691709	-2.3372496235	-0.478047
N	 0.6514065441	-0.6661344566	-3.470496213	-0.175874
O	 0.9288806235	 0.1329061929	-4.5913765441	-0.399288
H	-1.9522944416	 0.4222275867	-1.4912411669	 0.114538
H	-2.1416023257	-1.1113980892	-0.6055049261	 0.11235
H	-2.2996231171	 0.444093928	 0.2580935243	 0.126363
H	 2.5616655611	-1.3877920225	-1.0136312558	 0.119757
H	 1.6938152478	-1.3367538358	 0.6018712545	 0.123005
H	-0.1919946759	-2.6934129438	-0.3486703238	 0.116408
H	 0.6387587608	-2.7549652983	-1.9816376104	 0.135655
H	 1.8709280282	 1.7564164851	-2.6601254942	 0.143641
H	 0.177458408	 2.0222566288	-3.0299453609	 0.14252
H	 0.6935751949	 1.8846542834	-1.3257938668	 0.138187
H	 0.8903205299	-0.5073993936	-5.3095996434	 0.304944
47.6837	95.499	109.1399	162.3007	186.4736	215.3302	250.9126	300.6187	340.8279	363.939	413.6546	464.7222	514.3857	548.3513	605.8208	738.6348	777.7999	860.4566	912.2992	950.255	970.1625	976.4108	1040.8495	1049.4253	1055.0025	1080.4147	1099.3034	1163.7055	1184.0185	1192.8997	1223.6778	1278.5676	1339.2655	1394.1194	1407.8002	1448.038	1475.0413	1477.7359	1484.2353	1486.9019	1490.0087	1508.1429	1718.438	2996.7914	3045.8393	3050.3142	3101.0905	3121.573	3138.7506	3148.8564	3157.6723	3229.5165	3247.3072	3819.755
COC1(CC1)C(C)=NO	COC1(CC1)C(=NO)C	
InChI=1S/C6H11NO2/c1-5(7-8)6(9-2)3-4-6/h8H,3-4H2,1-2H3	InChI=1S/C6H11NO2/c1-5(7-8)6(9-2)3-4-6/h8H,3-4H2,1-2H3
