17
gdb 96832	3.26922	1.03376	0.95149	3.2274	77.05	-0.2671	-0.0029	0.2642	1302.7801	0.133999	-418.019787	-418.010448	-418.009504	-418.054348	33.137	
C	 0.4803479287	 1.4762330951	 0.1095327313	-0.343332
N	 0.4373937933	 0.0204288438	 0.1301264931	-0.318883
C	 0.4629168676	-0.6166293484	-0.9391822669	 0.468528
C	 0.4426810585	-2.0796719505	-1.3157932605	-0.42692
C	 0.4860344554	-1.5393359795	-2.77600475	 0.255745
C	-0.7384865697	-1.7791775651	-3.6456198642	-0.436338
O	 0.5189273768	-0.1675144555	-2.2628529354	-0.283818
C	 1.728930918	-1.8401812485	-3.4960557404	 0.263661
N	 2.6984834127	-2.1009056346	-4.0675585053	-0.324822
H	 1.3446453681	 1.8126166455	 0.6914839354	 0.136496
H	 0.5406509334	 1.9088048547	-0.895446623	 0.130854
H	-0.4132209335	 1.8645390942	 0.6095738916	 0.133283
H	 1.3146855556	-2.6505616703	-0.9961255571	 0.15923
H	-0.4700846273	-2.6190397827	-1.0583251448	 0.146237
H	-1.6407643851	-1.5431343558	-3.0759470724	 0.138833
H	-0.7042271967	-1.1440170821	-4.5340426246	 0.154571
H	-0.7796333657	-2.8243392304	-3.9652442269	 0.146674
63.0236	85.7224	157.7882	173.2942	205.732	225.1537	252.6686	337.5856	388.9143	478.2748	533.4632	561.0723	589.762	627.8485	775.1193	874.5643	906.4671	942.0521	966.4862	1033.2922	1072.9452	1083.3043	1134.9868	1155.3254	1176.4151	1222.4971	1253.2455	1264.0474	1411.0905	1440.5758	1465.064	1480.1746	1489.7993	1493.2901	1497.6957	1866.7439	2360.1753	3022.7297	3050.1671	3091.6292	3093.4779	3095.2481	3129.999	3136.5664	3153.0926
CN=C1CC(C)(O1)C#N	CN=C1C[C@@](C)(O1)C#N	
InChI=1S/C6H8N2O/c1-6(4-7)3-5(8-2)9-6/h3H2,1-2H3	InChI=1S/C6H8N2O/c1-6(4-7)3-5(8-2)9-6/h3H2,1-2H3/t6-/m1/s1
