19
gdb 113344	2.60533	1.00148	0.82714	1.6562	79.35	-0.2515	0.0406	0.2921	1421.6823	0.156356	-422.962791	-422.952514	-422.95157	-422.998321	37.223	
O	-0.1206229534	 1.359454347	-0.5311956498	-0.41721
C	-0.0007107496	 0.0942509804	 0.1055510504	-0.110234
C	-1.360263539	-0.5567418718	 0.0519071298	-0.025068
C	-1.8106774242	-1.3455135365	-1.1420964106	-0.300922
C	-1.5583497551	-2.066276907	 0.1747742868	 0.079839
C	-0.3758142241	-3.0287439925	 0.2803634071	-0.122958
O	-0.6995028012	-4.3236273465	-0.1848398591	-0.41764
C	-2.7000240423	-2.5209946106	 0.9264150932	 0.261892
C	-3.6229564921	-2.9596796803	 1.5635781878	-0.457526
H	 0.7164484931	 1.8232896202	-0.4334837342	 0.287661
H	 0.7512020604	-0.5299317946	-0.3994418074	 0.088157
H	 0.3170580322	 0.2083723969	 1.1541633837	 0.094254
H	-2.1265939161	 0.0356093069	 0.5424464952	 0.106446
H	-2.8345319733	-1.2412804511	-1.4797035936	 0.126357
H	-1.0875405914	-1.528860691	-1.9302271591	 0.124362
H	 0.4507539262	-2.6829542015	-0.3450384992	 0.104588
H	-0.021656945	-3.0555318178	 1.3228961846	 0.093559
H	-1.4825527956	-4.6107461362	 0.3001582319	 0.287194
H	-4.4493218994	-3.3189166339	 2.1255080025	 0.197248
65.0599	84.5202	135.6812	138.5234	151.1244	240.8199	254.2765	322.8604	324.3465	382.0173	419.4654	465.0498	544.155	584.567	640.058	661.8707	696.5128	840.5533	887.935	929.9539	942.7008	970.52	1046.37	1070.1358	1075.3967	1077.5669	1098.7944	1167.5924	1190.7426	1251.6112	1269.6126	1286.2583	1304.1689	1374.7659	1404.9784	1429.0883	1472.6762	1488.3558	1504.1173	1521.6496	2224.5896	2971.2668	2980.6407	3004.6972	3095.5728	3138.7361	3160.5506	3230.8589	3500.7333	3783.3936	3824.8088
OCC1CC1(CO)C#C	OC[C@H]1C[C@]1(CO)C#C	
InChI=1S/C7H10O2/c1-2-7(5-9)3-6(7)4-8/h1,6,8-9H,3-5H2	InChI=1S/C7H10O2/c1-2-7(5-9)3-6(7)4-8/h1,6,8-9H,3-5H2/t6-,7+/m1/s1
