16
gdb 72348	2.50921	1.70468	1.36273	4.1266	73.38	-0.2622	-0.0255	0.2367	985.4949	0.124966	-396.926504	-396.918673	-396.917728	-396.958732	29.362	
C	-0.0025387627	 1.5036622345	 0.031298945	-0.484136
C	-0.0060058946	-0.002769988	-0.0035235134	 0.295453
C	-0.6356340894	-0.7348631444	-1.1974364261	-0.244559
N	-1.3582238803	-1.8808827236	-0.6247109846	-0.174842
C	-1.1951534751	-1.8384695908	 0.6322309158	 0.034651
N	-0.4585263203	-0.7397675688	 1.1972123306	-0.162657
C	 0.9910037146	-0.7691041564	 0.8156691611	-0.222548
C	 1.6168381231	-1.9653373174	 0.3156928161	 0.321703
N	 2.1557005429	-2.9084050994	-0.0819397118	-0.333972
H	 0.6480767764	 1.905016329	-0.752594531	 0.137099
H	-1.0132989196	 1.8895711716	-0.1354232045	 0.137802
H	 0.349713354	 1.8759446141	 0.9964780074	 0.137358
H	-1.3398240853	-0.0793445241	-1.7222213655	 0.127697
H	 0.0901858242	-1.0921571882	-1.935460121	 0.144616
H	-1.6089888674	-2.570185366	 1.3182897756	 0.142805
H	 1.6169535695	-0.210667442	 1.5062156564	 0.143531
130.0206	135.3756	181.651	212.3109	309.263	331.4007	394.3087	471.1297	554.8119	594.8511	636.4215	742.6612	778.1057	826.2069	911.6242	939.2566	966.0278	976.4081	996.3819	1023.0328	1055.2139	1098.9751	1116.7809	1209.7136	1243.8784	1301.7899	1320.8894	1325.2826	1403.6366	1419.3164	1478.9287	1487.5959	1491.6198	1685.56	2352.1353	3039.0018	3044.994	3081.4824	3107.2163	3123.9343	3151.5334	3203.219
CC12CN=CN1C2C#N	C[C@]12CN=CN1[C@H]2C#N	
InChI=1S/C6H7N3/c1-6-3-8-4-9(6)5(6)2-7/h4-5H,3H2,1H3	InChI=1S/C6H7N3/c1-6-3-8-4-9(6)5(6)2-7/h4-5H,3H2,1H3/t5-,6+,9?/m0/s1
