21
gdb 83571	2.52858	1.67303	1.57115	1.671	81.55	-0.2352	0.0144	0.2496	1006.8632	0.185581	-387.111402	-387.103797	-387.102853	-387.142953	31.09	
C	-0.017781845	 1.5539090662	 0.024568815	-0.42755
C	 0.0159228609	 0.0256247563	 0.0013855954	 0.024243
C	 0.895972897	-0.5753095883	-1.11930781	-0.046184
C	 2.3164313888	-0.3960065378	-0.5231975	-0.080952
O	 2.1518477855	-0.2485268094	 0.8937283846	-0.271095
C	 0.785086853	-0.5842587423	 1.18648041	 0.061698
C	 0.594195934	-2.0916567305	 1.2000650531	-0.070794
C	 0.4897378665	-2.7628329429	 0.0526609386	-0.048655
C	 0.5455453198	-2.0668969948	-1.2875548815	-0.278204
H	 0.9837063173	 1.9708477121	 0.1624500954	 0.132526
H	-0.4294951726	 1.9516638986	-0.9092276143	 0.108525
H	-0.6445301272	 1.9180859174	 0.8457196849	 0.112035
H	-1.0044033916	-0.3671714989	-0.0502914585	 0.071359
H	 0.7909481748	-0.0480424389	-2.0717066318	 0.064696
H	 2.9576374975	-1.259785718	-0.7419902342	 0.095507
H	 2.8173025841	 0.5023652783	-0.9016847529	 0.099811
H	 0.5503605325	-0.1345876557	 2.1545130447	 0.068252
H	 0.5812580395	-2.6061922876	 2.1561843038	 0.087858
H	 0.3657837285	-3.8432239483	 0.0504620998	 0.088645
H	-0.4179419507	-2.1770014277	-1.8074654208	 0.103952
H	 1.2857900172	-2.5603473077	-1.9322885411	 0.104326
163.0143	200.2594	213.4897	275.6193	298.1668	349.1301	461.9655	489.3774	523.3609	698.8141	713.3641	750.1567	788.4212	817.6306	899.9403	915.6404	919.261	948.2722	973.9558	982.6913	997.2832	1012.6068	1046.4495	1081.5399	1093.0615	1100.1619	1131.687	1156.681	1202.786	1212.5199	1264.636	1286.5929	1304.0968	1326.644	1334.9052	1359.6285	1379.6318	1396.2606	1406.0276	1411.9716	1475.7023	1494.9477	1504.3853	1522.753	1705.2349	2996.2855	3012.6643	3025.843	3033.0706	3051.8794	3057.8384	3070.8117	3082.9935	3094.5349	3117.1965	3149.0549	3177.8927
CC1C2COC1C=CC2	C[C@H]1[C@H]2CO[C@@H]1C=CC2	
InChI=1S/C8H12O/c1-6-7-3-2-4-8(6)9-5-7/h2,4,6-8H,3,5H2,1H3	InChI=1S/C8H12O/c1-6-7-3-2-4-8(6)9-5-7/h2,4,6-8H,3,5H2,1H3/t6-,7+,8+/m0/s1
