18
gdb 110006	1.98134	1.43417	0.89555	4.7153	70.73	-0.2367	0.0283	0.265	1271.7229	0.146166	-476.215871	-476.206111	-476.205166	-476.251597	33.853	
O	 0.1330845465	 1.2881810731	 0.3531416868	-0.424542
C	 0.1386735242	-0.1105388933	 0.1007286119	-0.078415
C	-1.3168247618	-0.5456928066	 0.0701718963	 0.016308
C	-1.5967603309	-2.0744665503	-0.0510459892	 0.067339
O	-0.4071423006	-2.8197795844	-0.1445392637	-0.424598
C	-2.2774262584	-2.010710667	 1.3530448316	-0.199126
N	-1.9886290639	-0.5797084661	 1.3743096974	-0.044755
C	-2.4160753858	 0.3740302724	 2.2348671154	 0.11782
O	-3.0694544986	 0.1405505364	 3.2329872249	-0.337827
H	 1.0324285117	 1.5648296555	 0.5504816137	 0.292967
H	 0.60536858	-0.3492996619	-0.8665883759	 0.101143
H	 0.6741524017	-0.665470143	 0.8806984841	 0.10601
H	-1.8476568289	 0.0640190525	-0.6709234406	 0.097261
H	-2.290537235	-2.3234049225	-0.8621166764	 0.085504
H	-0.6316314949	-3.7553197282	-0.159400329	 0.293629
H	-3.3454960996	-2.2488848971	 1.3884269236	 0.121296
H	-1.7514304955	-2.5831427912	 2.1250983538	 0.119478
H	-2.0911355003	 1.3847561316	 1.9264262755	 0.090508
46.6726	64.2839	109.6615	163.9242	195.734	236.7445	240.1598	302.2514	319.1623	404.7041	437.1937	497.211	614.8406	761.2678	844.5155	884.3056	899.4183	1019.2985	1036.3671	1045.4015	1068.8979	1096.7014	1137.8002	1158.1442	1190.4249	1203.7224	1245.0774	1258.1336	1282.6434	1310.3155	1315.7507	1370.9699	1399.3382	1423.4122	1447.5148	1457.7504	1504.9073	1510.974	1781.2803	2973.3596	2995.2576	3026.6524	3033.9309	3040.4189	3055.6811	3085.8227	3824.9807	3836.3549
OCC1C(O)CN1C=O	OC[C@H]1[C@@H](O)CN1C=O	
InChI=1S/C5H9NO3/c7-2-4-5(9)1-6(4)3-8/h3-5,7,9H,1-2H2	InChI=1S/C5H9NO3/c7-2-4-5(9)1-6(4)3-8/h3-5,7,9H,1-2H2/t4-,5-/m0/s1
