20
gdb 112254	2.51365	1.13324	0.85258	1.21	76.59	-0.263	0.0213	0.2843	1388.9562	0.170337	-440.286223	-440.276602	-440.275658	-440.321206	34.937	
C	 0.1650997247	 1.7162960599	 0.0388136604	-0.391047
C	-0.1634985526	 0.2205572606	 0.1057755474	-0.200277
C	 0.5884214396	-0.4768651741	 1.24135964	-0.153465
C	 0.5129042763	-2.0159428789	 1.4341317471	 0.078632
C	-0.1493669148	-2.893482598	 0.3901610844	-0.071408
O	 0.1881452522	-4.2519596227	 0.5943239243	-0.419859
O	 1.9787027396	-2.0995763109	 1.2902786737	-0.285355
C	 2.071267863	-0.7413017465	 1.0534320566	 0.443481
N	 3.0663044849	-0.0328301555	 0.7695588149	-0.542304
H	 1.2393829937	 1.8684543917	-0.0947063156	 0.158169
H	-0.3605004749	 2.1932653595	-0.7935894097	 0.11268
H	-0.1345814419	 2.2261178003	 0.9611336291	 0.113912
H	-1.2412083518	 0.0794670841	 0.2550731117	 0.102287
H	 0.0853702492	-0.2505600824	-0.8513026017	 0.108316
H	 0.4009424261	 0.0513257602	 2.1819883139	 0.108995
H	 0.2304967755	-2.3488501395	 2.4369609856	 0.100803
H	-1.2386700349	-2.8201491605	 0.4790733017	 0.118072
H	 0.1307101665	-2.5560187939	-0.6185372112	 0.096332
H	 1.1508323251	-4.3039282184	 0.5696910762	 0.294293
H	 3.9203827743	-0.5905608548	 0.7137681212	 0.227743
75.4423	93.3813	113.614	133.3592	177.5348	247.729	294.1428	315.496	405.4814	430.6545	456.3694	539.0779	652.8048	755.9456	777.847	823.0269	858.9266	869.4915	926.5824	984.8767	1002.2378	1032.3937	1049.7805	1081.3832	1103.1688	1139.6931	1163.3261	1207.5193	1229.9665	1241.1826	1285.2982	1309.0218	1335.9633	1358.2712	1385.0211	1403.1148	1414.0746	1434.299	1486.6038	1495.9495	1499.1658	1512.0623	1818.2347	2998.2849	3029.3452	3037.0226	3053.312	3070.6537	3072.0862	3085.5351	3105.1549	3127.1003	3473.5758	3797.5468
CCC1C(CO)OC1=N	CC[C@H]1[C@@H](CO)O[C]1[NH]	
InChI=1S/C6H11NO2/c1-2-4-5(3-8)9-6(4)7/h4-5,7-8H,2-3H2,1H3	InChI=1S/C6H11NO2/c1-2-4-5(3-8)9-6(4)7/h4-5,7-8H,2-3H2,1H3/t4-,5+/m0/s1
