20
gdb 80602	2.79804	1.44499	1.2116	1.9885	78.82	-0.2371	-0.0005	0.2366	1108.2305	0.172216	-403.141668	-403.133395	-403.132451	-403.174141	32.487	
C	-0.089594053	 1.5458785444	-0.1175157653	-0.411016
C	 0.0368462972	 0.0257109156	-0.0189956103	 0.019153
C	 0.9276769085	-0.5785730949	-1.1244008767	-0.141926
N	 2.3096307617	-0.3119576536	-0.5519790173	-0.318829
C	 1.9170525456	-1.3251528891	 0.5100319731	-0.141925
C	 0.803217217	-0.5525913324	 1.2470368512	 0.019153
C	 1.3450633171	 0.4632863017	 2.2525210207	-0.411016
C	 1.1670198927	-2.0230158421	-0.6418997833	 0.422589
O	 1.0972702297	-3.1245922253	-1.1028578728	-0.335451
H	 0.8912012974	 2.0250777404	-0.1635650042	 0.135906
H	-0.6426504501	 1.8195907681	-1.0223919232	 0.111286
H	-0.6343303845	 1.9592464382	 0.7364911943	 0.11617
H	-0.9635891984	-0.4158837954	-0.076082995	 0.082472
H	 0.7366919113	-0.3103467619	-2.162645361	 0.086276
H	 3.0070906431	-0.7328167752	-1.1664154299	 0.235049
H	 2.7071396152	-1.7972405651	 1.0924990234	 0.086276
H	 0.1571013669	-1.2615555369	 1.7752795593	 0.082472
H	 2.0731462055	 1.1331846234	 1.7890091095	 0.135906
H	 0.5424911368	 1.0712038654	 2.6806012712	 0.11617
H	 1.8409668804	-0.0545375652	 3.0804877964	 0.111286
120.5931	144.8839	223.1996	263.595	277.8666	281.1491	300.5273	464.8056	503.4831	504.5986	663.7389	687.5695	727.5113	759.6933	816.0781	871.3149	873.3596	914.1375	997.9927	1017.8283	1039.062	1041.5107	1060.3427	1077.8714	1084.9736	1128.1407	1137.3639	1171.1446	1187.2332	1226.7089	1253.75	1288.249	1315.3252	1333.5028	1371.9722	1379.606	1404.8578	1413.2721	1485.5508	1498.7074	1507.0531	1516.9031	1885.764	3036.8546	3040.6452	3041.756	3056.7791	3098.2065	3103.81	3123.8597	3132.0353	3134.859	3137.2573	3465.145
CC1C2NC(C1C)C2=O	C[C@H]1[C@H]2N[C@@H]([C@H]1C)C2=O	
InChI=1S/C7H11NO/c1-3-4(2)6-7(9)5(3)8-6/h3-6,8H,1-2H3	InChI=1S/C7H11NO/c1-3-4(2)6-7(9)5(3)8-6/h3-6,8H,1-2H3/t3-,4+,5-,6+
