18
gdb 38912	3.59737	1.53313	1.21092	2.4841	77.89	-0.2274	0.0077	0.2351	1028.2113	0.150659	-401.920122	-401.913291	-401.912346	-401.951372	27.644	
C	-0.0617059485	 1.4598709078	 0.0144095161	-0.113062
O	 1.2855359676	 1.9296506411	 0.163838959	-0.28016
C	 2.1535423881	 0.862078552	-0.1672428921	 0.091157
C	 3.3712652032	 0.5851904967	 0.7479982056	-0.259594
C	 3.499167104	-0.9477300255	 0.6865985399	-0.033991
N	 2.5952150891	-1.6476867851	 1.6196918651	-0.320939
C	 2.2173980828	-1.5420235872	 0.1830315503	-0.208051
C	 1.3140907185	-0.3876872557	-0.0559479368	 0.37055
C	 0.0348298172	-0.0526652958	 0.0370291282	-0.272903
H	-0.6659870379	 1.8536081643	 0.8420800085	 0.114274
H	-0.5006050644	 1.8429565471	-0.9232422347	 0.098535
H	 2.5231790372	 0.9858915704	-1.2030647399	 0.069884
H	 4.2790230873	 1.0865441384	 0.4037185759	 0.098541
H	 3.1549415848	 0.9075059854	 1.7700179642	 0.124656
H	 4.4588504932	-1.4002168613	 0.4595935864	 0.089098
H	 2.9535357131	-2.5871582408	 1.7857794207	 0.229844
H	 2.1852038807	-2.4431221098	-0.4194613302	 0.097162
H	-0.8228294762	-0.6984023121	 0.1745816537	 0.104999
119.2234	151.385	288.1049	369.9324	413.9994	444.5146	587.391	657.0994	674.0791	761.3125	806.9641	823.7862	840.7431	851.899	898.6606	931.612	943.453	978.0921	1011.1871	1015.1559	1042.6976	1085.428	1118.6263	1130.1188	1157.1268	1187.2565	1194.5474	1200.8116	1223.8247	1262.4648	1277.1109	1328.522	1344.4505	1377.1968	1383.5576	1400.9861	1481.6747	1515.5076	1750.9854	2910.9233	2951.9082	3031.1447	3064.3924	3116.8663	3161.3875	3171.3744	3217.9454	3474.3523
C1OC2CC3NC3C2=C1	C1O[C@H]2C[C@H]3N[C@H]3C2=C1	
InChI=1S/C7H9NO/c1-2-9-6-3-5-7(8-5)4(1)6/h1,5-8H,2-3H2	InChI=1S/C7H9NO/c1-2-9-6-3-5-7(8-5)4(1)6/h1,5-8H,2-3H2/t5-,6+,7+/m1/s1
