17
gdb 94250	1.93555	1.50732	1.286	3.0657	73.75	-0.2515	-0.0529	0.1985	1100.6498	0.134836	-418.003568	-417.994494	-417.99355	-418.037716	32.444	
C	-0.518905408	 1.338415269	 0.0256624981	-0.408792
C	 0.1839595657	-0.0032858176	-0.0752074911	 0.018386
N	 1.5409530562	 0.0249750991	-0.6566565559	-0.313714
C	 2.0459690677	-0.963357753	 0.3191801183	-0.202395
C	 0.8154705842	-0.6732616809	 1.2234890567	 0.031857
C	 1.088463572	 0.3403574995	 2.3384336707	 0.12336
O	 2.1477321107	 0.8761709905	 2.5089771725	-0.228249
C	 0.0771685165	-1.8005667958	 1.7612335193	 0.218977
N	-0.5194662041	-2.6873905113	 2.2033923223	-0.330782
H	 0.1218073785	 2.0855940529	 0.501276351	 0.142341
H	-0.7604647409	 1.6984022201	-0.9798645379	 0.131164
H	-1.4570664155	 1.2538642445	 0.5841400943	 0.128047
H	-0.4826469145	-0.7422884352	-0.54218776	 0.093258
H	 1.5989101785	-0.2536396626	-1.6295105129	 0.228802
H	 2.0590987644	-2.0033242993	-0.0272190499	 0.116041
H	 3.0069528439	-0.7012811305	 0.7674067049	 0.142791
H	 0.2102207448	 0.5533108906	 2.9828101997	 0.108909
70.3311	96.8604	145.2129	168.6605	222.5439	244.7432	283.3407	337.8921	468.7632	504.1884	538.5492	552.0775	599.8613	721.8	821.9771	869.8065	922.1052	964.3087	1011.2344	1036.76	1062.7687	1094.3793	1126.4058	1166.9549	1186.3159	1214.6538	1275.7936	1341.4239	1374.7928	1389.1603	1413.1955	1423.1467	1483.8589	1496.3455	1506.6548	1837.9439	2348.5625	2918.3064	2996.7186	3032.8554	3037.5415	3105.0919	3108.8932	3124.6283	3538.7885
CC1NCC1(C=O)C#N	C[C@H]1NC[C@]1(C=O)C#N	
InChI=1S/C6H8N2O/c1-5-6(2-7,4-9)3-8-5/h4-5,8H,3H2,1H3	InChI=1S/C6H8N2O/c1-5-6(2-7,4-9)3-8-5/h4-5,8H,3H2,1H3/t5-,6+/m1/s1
