19
gdb 37970	2.64171	1.9913	1.45128	2.1762	73.89	-0.2413	0.0839	0.3252	941.9294	0.162562	-422.992027	-422.985248	-422.984304	-423.022896	28.13	
C	 0.0238977596	 1.5769452528	-0.0143544072	-0.254855
C	 1.5561755599	 1.5534264261	-0.0634489081	-0.088421
C	 2.1012623679	 0.8933963947	 1.1605501925	 0.111224
O	 1.5098909853	 1.0739607948	 2.4200861907	-0.245053
C	 0.7872886226	-0.0126453357	 2.9434235387	 0.013262
O	-0.5354834009	-0.0709261651	 2.490699909	-0.225723
C	-0.7165235456	-0.6763987395	 1.2189725118	-0.107188
C	 0.0160786103	 0.0138419796	 0.0727527656	-0.010043
C	 1.5539015547	 0.009167596	 0.083649219	-0.14611
H	-0.3974579385	 2.0986682832	 0.8478438401	 0.121842
H	-0.4371993924	 1.9494457893	-0.9301767018	 0.100944
H	 2.1743411204	 2.1794742973	-0.6954315136	 0.086616
H	 3.1887741782	 0.8928863336	 1.2177443511	 0.093309
H	 1.3104707086	-0.9598751812	 2.7315608514	 0.07922
H	 0.7315721815	 0.1596216611	 4.0209609562	 0.11252
H	-0.4065700671	-1.7349038099	 1.2587448759	 0.087797
H	-1.7977900973	-0.6535888136	 1.0458464593	 0.108555
H	-0.3495486071	-0.4152697593	-0.8659130973	 0.079569
H	 2.1715287598	-0.736374404	-0.4051529231	 0.082537
173.9199	204.2242	285.1799	342.8629	402.8537	457.1953	525.9273	614.9543	669.3098	723.4605	744.105	789.3093	845.9048	898.3655	912.466	951.7688	972.5341	991.2854	1020.9556	1042.4185	1060.2232	1078.2794	1085.6153	1113.7745	1144.0072	1152.4351	1191.6946	1232.9209	1241.8525	1261.6115	1287.197	1312.932	1340.3171	1349.0433	1358.1991	1408.1637	1420.8057	1452.5564	1483.4621	1485.5841	1500.816	2958.9231	2967.6787	3051.2264	3070.7124	3075.4093	3103.3711	3117.3894	3130.3569	3164.7411	3186.139
C1C2C3OCOCC1C23	C1[C@H]2[C@H]3OCOC[C@@H]1[C@@H]23	
InChI=1S/C7H10O2/c1-4-2-8-3-9-7-5(1)6(4)7/h4-7H,1-3H2	InChI=1S/C7H10O2/c1-4-2-8-3-9-7-5(1)6(4)7/h4-7H,1-3H2/t4-,5-,6+,7-/m1/s1
