21
gdb 114857	4.32427	1.00556	0.8915	0.8515	87.26	-0.2283	0.0203	0.2486	1374.2486	0.183172	-387.06352	-387.055018	-387.054073	-387.096864	32.663	
C	-0.0003832634	 1.4044154202	 0.1162797207	-0.23635
O	-0.0100007945	 0.0209423668	-0.1418046441	-0.240309
C	-1.2930484599	-0.5766029906	-0.0336842369	 0.119795
C	-1.2506073587	-1.9708064613	-0.7274763703	-0.281712
C	-2.1991795297	-2.8355828897	 0.1230799127	-0.039214
C	-1.8192199287	-4.1094692781	 0.9610134036	-0.238872
C	-2.3837253254	-3.3863947111	 2.2446230442	-0.318528
C	-2.2398334023	-2.1146948135	 1.4418694187	 0.315357
C	-1.688349212	-0.9078861261	 1.4102586378	-0.28175
H	 1.0237130039	 1.7559627887	-0.0339084915	 0.124229
H	-0.6675960551	 1.9510994294	-0.5692996349	 0.102459
H	-0.3034931854	 1.6430045818	 1.1471934236	 0.103544
H	-2.0283817926	 0.0895717552	-0.5192049015	 0.062348
H	-1.5081824262	-1.9199695748	-1.7886667383	 0.094063
H	-0.218536204	-2.3281701352	-0.6460431503	 0.115654
H	-3.181018342	-2.9692545966	-0.3462458419	 0.074623
H	-2.288723746	-5.0556767279	 0.6813665173	 0.098617
H	-0.7364955797	-4.2431461002	 1.0250447812	 0.111055
H	-3.4253681911	-3.6700238347	 2.4294713191	 0.111417
H	-1.8245297341	-3.4685910209	 3.1796047106	 0.110712
H	-1.442873573	-0.2629885114	 2.2456716502	 0.092862
73.71	105.5911	171.9148	205.9965	262.9278	306.4863	354.5326	446.866	468.7609	593.4372	642.3687	686.5076	787.5631	809.4826	834.2233	868.9577	905.7986	933.0379	951.3069	977.2646	1028.42	1041.751	1078.8174	1103.2544	1109.4994	1152.7486	1174.2051	1183.0181	1191.7424	1217.5779	1232.9735	1240.6183	1253.1013	1256.2303	1302.0295	1320.015	1337.1792	1384.6936	1472.4336	1478.8551	1482.0166	1486.7328	1488.4371	1510.0812	1737.6169	2933.5218	2971.1806	3015.6509	3030.7496	3046.5241	3052.5242	3060.9866	3102.5445	3105.0988	3108.4904	3124.4412	3200.5439
COC1CC2CCC2=C1	CO[C@H]1C[C@H]2CC[C]2[CH]1	
InChI=1S/C8H12O/c1-9-8-4-6-2-3-7(6)5-8/h4,7-8H,2-3,5H2,1H3	InChI=1S/C8H12O/c1-9-8-4-6-2-3-7(6)5-8/h4,7-8H,2-3,5H2,1H3/t7-,8-/m1/s1
