18
gdb 65054	2.32185	1.51463	1.21935	2.5069	75.89	-0.2833	0.0263	0.3097	1095.0521	0.146216	-401.935754	-401.926864	-401.92592	-401.969341	33.23	
C	-0.006767393	 1.3872312645	-0.725919457	-0.474721
C	-0.0156530575	 0.0192898663	-0.0831803219	 0.312186
C	 1.2056177157	-0.7961312326	-0.0293423701	-0.215648
O	 0.7273112761	-0.0989044956	 1.1310849807	-0.275607
C	-1.3666023294	-0.6767373522	-0.0435665049	 0.135961
C	-1.661491825	-1.6777601445	 1.0611356057	-0.303827
C	-2.3212191839	-0.3338800158	 1.0943641303	-0.293737
C	-1.9417941058	-0.929140246	-1.3401979822	 0.234771
N	-2.3865248105	-1.1243084967	-2.3906383163	-0.349696
H	 0.9969789039	 1.8164901656	-0.6933307586	 0.131334
H	-0.3318768828	 1.3258324685	-1.7688728419	 0.150016
H	-0.6893472097	 2.0614321411	-0.1984784751	 0.132027
H	 1.1278499916	-1.8806169235	 0.0169978789	 0.121503
H	 2.1301385491	-0.4081581504	-0.4524897804	 0.124474
H	-2.2584114154	-2.5428433442	 0.7996574521	 0.138423
H	-0.850524185	-1.8517596901	 1.7575543276	 0.148857
H	-1.9522286377	 0.3887726938	 1.8133149909	 0.142716
H	-3.3764478707	-0.2615716181	 0.8612735224	 0.140967
59.3224	139.7902	191.7779	198.6607	222.7996	256.3221	344.0271	375.4042	427.8217	478.8768	549.1443	593.0515	602.3082	785.1988	805.5238	863.2325	899.6497	912.1358	925.567	964.3659	989.4043	1035.7172	1075.8182	1103.4123	1109.4944	1135.0475	1166.96	1190.1092	1202.9286	1298.3326	1322.1631	1392.1965	1417.9189	1453.6886	1481.4474	1486.8845	1495.2427	1528.8659	2347.5295	3043.6113	3093.4061	3111.5288	3132.3173	3146.7141	3152.4452	3184.0678	3236.9395	3252.061
CC1(CO1)C1(CC1)C#N	C[C@]1(CO1)C1(CC1)C#N	
InChI=1S/C7H9NO/c1-6(5-9-6)7(4-8)2-3-7/h2-3,5H2,1H3	InChI=1S/C7H9NO/c1-6(5-9-6)7(4-8)2-3-7/h2-3,5H2,1H3/t6-/m0/s1
