18
gdb 17846	4.59254	1.89566	1.6288	1.5507	71.8	-0.2353	0.0984	0.3337	841.4653	0.155549	-347.736865	-347.730348	-347.729404	-347.767594	26.038	
C	-0.0250317299	 1.381840084	-0.3054656903	-0.085811
C	 1.4395664072	 1.5585209587	 0.1357789128	-0.385681
C	 1.2705150862	 0.1518822565	 0.7378172779	 0.550646
O	-0.0912159219	 0.0692393527	 0.2891671041	-0.337149
C	 2.2200290975	-1.0558827956	 0.544500035	-0.12205
C	 3.0975125038	-0.4121440518	 1.6576507831	-0.229017
C	 1.635402784	-0.286811889	 2.1772755296	-0.12205
C	 1.4149634859	-1.7512068576	 1.6859288082	-0.232461
H	-0.7470272377	 2.0708588535	 0.1482438986	 0.103041
H	-0.1970139437	 1.3473394148	-1.387644031	 0.10304
H	 2.1678767455	 1.6360680705	-0.673843593	 0.11333
H	 1.6194004729	 2.3574884739	 0.8577550455	 0.113331
H	 2.5543338417	-1.4918935457	-0.3982496214	 0.069262
H	 3.7381033633	-1.1015918808	 2.2117630003	 0.095359
H	 3.6263170072	 0.5124372076	 1.4114963914	 0.092174
H	 1.2972194652	 0.1618293924	 3.1126871948	 0.069262
H	 0.3900028989	-2.0427872415	 1.456274863	 0.117245
H	 1.9477801338	-2.5270319826	 2.2421375712	 0.08753
79.753	231.4537	235.207	385.1174	446.2076	560.4907	587.4578	750.0301	796.3498	807.4946	867.1569	882.7566	899.6603	903.9577	970.7441	985.9268	1014.9847	1019.2767	1020.9141	1054.3448	1083.4416	1116.8796	1120.824	1135.1443	1167.1524	1188.3343	1194.993	1198.2548	1216.0578	1248.4137	1251.1792	1253.5931	1326.9911	1354.6792	1485.7174	1496.1011	1530.0143	1535.8567	3021.1859	3057.3133	3060.9123	3063.1462	3073.7305	3099.3864	3105.8445	3122.818	3126.8162	3143.9019
C1CC2(O1)C1CC2C1	C1C[C@@]2(O1)[C@H]1C[C@@H]2C1	
InChI=1S/C7H10O/c1-2-8-7(1)5-3-6(7)4-5/h5-6H,1-4H2	InChI=1S/C7H10O/c1-2-8-7(1)5-3-6(7)4-5/h5-6H,1-4H2/t5-,6+,7-
