21
gdb 65139	3.39322	1.22827	1.14604	1.2975	82.89	-0.2262	0.0648	0.291	1180.8123	0.182233	-387.032264	-387.023523	-387.022579	-387.066144	34.013	
O	 0.1776994574	 1.4487691864	 0.0070198655	-0.467758
C	 0.1008628723	 0.0456072361	 0.0011073809	 0.398308
C	 1.1351659023	-0.7357700603	-0.7709399464	-0.326806
C	 1.1464883793	-0.742825866	 0.7503928682	-0.326823
C	-1.3112460686	-0.4728765799	 0.009165242	 0.000164
C	-2.5012862932	 0.0139079777	 0.791380438	-0.095769
C	-2.6469781928	 1.5439086095	 0.8085124619	-0.216795
C	-2.6579201612	 1.5505698763	-0.7537767068	-0.216813
C	-2.5123584358	 0.0204693573	-0.7516911381	-0.09574
H	 1.1048310346	 1.7041766269	 0.0014622126	 0.280024
H	 0.8308640169	-1.6355165986	-1.295318973	 0.116282
H	 1.9137533299	-0.1732906349	-1.2780243623	 0.104369
H	 1.9325748398	-0.1850166067	 1.2510281762	 0.104367
H	 0.8499849357	-1.6474242159	 1.2708785757	 0.116283
H	-1.2891803113	-1.5622699514	 0.0043588545	 0.079434
H	-3.0202245703	-0.6555550924	 1.4692692277	 0.074519
H	-3.6104610445	 1.8521922722	 1.2218279343	 0.090521
H	-1.8506509301	 2.103639218	 1.2996953759	 0.108599
H	-3.6270128183	 1.8624807048	-1.1509315517	 0.09051
H	-1.8684066036	 2.1143769591	-1.2512790855	 0.10861
H	-3.0410440686	-0.6432017383	-1.4277395397	 0.074515
35.6	104.3801	187.8837	199.5552	281.2956	286.449	348.7113	388.0487	529.7474	544.8906	731.6057	731.9014	762.9821	786.0821	792.006	812.9007	884.2877	895.123	933.6122	956.807	967.9533	970.9555	980.9364	1024.409	1028.7243	1051.2646	1059.1453	1079.4534	1122.9412	1126.2509	1151.8613	1183.7267	1200.9041	1231.0234	1249.4737	1268.823	1299.1334	1307.4606	1366.35	1388.1517	1463.0358	1475.506	1482.2292	1496.65	1511.5783	3063.6145	3073.4173	3111.7092	3118.4954	3120.4653	3123.3674	3135.0011	3154.8232	3167.2516	3198.1961	3213.3884	3829.5013
OC1(CC1)C1C2CCC12	OC1(CC1)[C@H]1[C@H]2CC[C@@H]12	
InChI=1S/C8H12O/c9-8(3-4-8)7-5-1-2-6(5)7/h5-7,9H,1-4H2	InChI=1S/C8H12O/c9-8(3-4-8)7-5-1-2-6(5)7/h5-7,9H,1-4H2/t5-,6+,7-
