19
gdb 10825	4.14351	1.47911	1.18836	2.6437	71.82	-0.211	-0.0146	0.1965	1036.5229	0.166873	-365.091446	-365.083563	-365.082619	-365.123626	30.117	
C	-0.0158567689	 1.5670405375	 0.0357050488	-0.405348
C	 0.0007697172	 0.0401911629	-0.0083747104	 0.062833
C	 0.6623824126	-0.4956429193	-1.2913633038	-0.200393
C	 0.7296049777	-2.0356681999	-1.2931614285	-0.310227
C	 1.2829689844	-2.5855705261	 0.0142193773	 0.384786
O	 2.1225120699	-3.4546205849	 0.0629057217	-0.306787
C	 0.6867095339	-1.9403342943	 1.2662130729	-0.263247
N	 0.6415704119	-0.4753858695	 1.208744442	-0.288931
H	 1.0050172629	 1.9681012705	 0.016060407	 0.111938
H	-0.5494933242	 1.9792343183	-0.8257885953	 0.116912
H	-0.4996819645	 1.9186368856	 0.9503526318	 0.127849
H	-1.0389728657	-0.3210673428	 0.0171877586	 0.078471
H	 0.1240195896	-0.1435752977	-2.1795856372	 0.099473
H	 1.6796324169	-0.0853131575	-1.3578689479	 0.098754
H	-0.2890378723	-2.4373872529	-1.4015101092	 0.11821
H	 1.3254179126	-2.4261904143	-2.1219467326	 0.118767
H	-0.3426304994	-2.3107850499	 1.3860607019	 0.117773
H	 1.258241469	-2.2652349208	 2.1391124397	 0.123243
H	 1.5897713964	-0.1107998149	 1.2627518231	 0.215924
72.0284	180.4472	201.4643	233.2282	303.6019	377.5954	426.3857	452.5367	491.4702	497.8974	688.6008	741.767	763.5633	836.9705	847.9375	919.2002	943.1924	975.7213	1008.7514	1079.0333	1099.2587	1129.1383	1153.0256	1182.2938	1208.9808	1256.4247	1290.5725	1320.722	1330.0502	1346.5669	1375.2907	1385.6694	1409.1023	1455.195	1467.4576	1477.1255	1486.9405	1497.6686	1505.5586	1818.431	2987.0769	2999.2882	3007.6249	3013.5454	3030.9924	3057.6437	3098.2066	3100.4999	3104.9772	3124.4978	3487.4329
CC1CCC(=O)CN1	C[C@H]1CCC(=O)CN1	
InChI=1S/C6H11NO/c1-5-2-3-6(8)4-7-5/h5,7H,2-4H2,1H3	InChI=1S/C6H11NO/c1-5-2-3-6(8)4-7-5/h5,7H,2-4H2,1H3/t5-/m0/s1
