16
gdb 74070	3.55521	1.20655	0.90642	7.792	78.26	-0.2257	-0.0153	0.2104	1223.9232	0.125521	-434.113015	-434.104557	-434.103612	-434.14626	31.156	
N	 0.1533596614	 1.3145438786	 0.1311214734	-0.581378
C	-0.0243795851	-0.0382295272	 0.0418915631	 0.356893
C	-1.1550560711	-0.7693685195	 0.023707851	-0.350928
C	-0.8364023824	-2.2038401371	-0.0045099458	 0.451615
O	-1.587560551	-3.1447484679	-0.0292809316	-0.355568
N	 0.593305674	-2.2760783828	-0.0029902785	-0.129343
C	 1.1786778531	-0.9484407004	 0.0333845981	-0.255815
C	 1.4036426811	-3.3976615738	-0.0303851171	 0.089075
N	 0.9851314587	-4.5958348108	-0.0654175972	-0.424874
H	 1.0265950459	 1.6955236491	-0.1979460373	 0.259819
H	-0.6452866423	 1.898045626	-0.0631399448	 0.266359
H	-2.1754525516	-0.4160719216	 0.0277785585	 0.110561
H	 1.8159522614	-0.7572165885	-0.8427438158	 0.125967
H	 1.7936892734	-0.7920560447	 0.9305277158	 0.137619
H	 2.463985649	-3.1055183868	-0.0175785412	 0.077784
H	 1.7818890855	-5.2305550426	-0.0789302706	 0.222214
73.8002	137.6583	174.7111	207.5473	232.1373	318.0341	367.8309	453.7829	466.4384	513.9448	547.5128	601.8209	735.2756	744.5213	769.6792	809.0692	837.5253	915.608	1021.7212	1059.2983	1087.6168	1114.3591	1164.7095	1202.906	1250.1197	1262.7908	1308.4345	1396.5277	1429.2556	1439.5839	1501.4943	1647.4053	1704.6214	1720.8614	1842.5292	2990.8321	3003.3739	3026.144	3246.1853	3495.6738	3583.9841	3690.0288
NC1=CC(=O)N(C1)C=N	NC1=CC(=O)N(C1)[CH][NH]	
InChI=1S/C5H7N3O/c6-3-8-2-4(7)1-5(8)9/h1,3,6H,2,7H2	InChI=1S/C5H7N3O/c6-3-8-2-4(7)1-5(8)9/h1,3,6H,2,7H2
