15
gdb 29091	3.12679	1.44161	0.99281	5.0347	73.09	-0.2159	-0.0464	0.1695	1130.6695	0.113512	-453.999459	-453.991486	-453.990542	-454.032059	29.813	
C	-0.1290914135	 1.5379985512	 0.0568999192	-0.49299
C	-0.0223462817	 0.0483834118	-0.0387706327	 0.302424
C	 0.2171805927	-0.610977265	-1.1757902307	-0.067387
O	 0.3104321112	-1.9893278334	-1.2331821883	-0.213829
C	 0.162071383	-2.7548715377	-0.1240029812	 0.383693
O	 0.2453005571	-3.9489967593	-0.1981457302	-0.320144
C	-0.112551903	-2.0518489779	 1.1929127739	 0.235811
N	-0.2677435856	-2.6804771517	 2.2886456124	-0.513877
N	-0.1845540926	-0.6777647065	 1.1327369233	-0.398112
H	 0.625673678	 1.9446325768	 0.7404387717	 0.142931
H	 0.0159820394	 1.997224348	-0.9222738772	 0.14705
H	-1.1136413226	 1.8397332672	 0.433554481	 0.142951
H	 0.3592290191	-0.1535648288	-2.1415013352	 0.140389
H	-0.174905314	-3.6797555401	 2.1039293212	 0.246591
H	-0.3668514876	-0.2050081145	 2.005820073	 0.264501
97.7398	119.9788	182.5908	285.3304	312.6688	361.9569	410.162	465.6336	516.2052	552.4135	598.203	598.9319	657.4404	751.5321	791.6148	807.3604	890.0842	1002.0924	1033.7393	1068.7804	1115.8397	1163.6838	1184.9589	1244.2596	1372.5557	1420.3599	1429.1991	1474.6452	1479.8554	1504.6879	1721.7417	1741.3843	1843.3038	3028.0037	3079.158	3138.0992	3268.5289	3493.2534	3617.8648
CC1=COC(=O)C(=N)N1	CC1=COC(=O)[C]([NH])N1	
InChI=1S/C5H6N2O2/c1-3-2-9-5(8)4(6)7-3/h2H,1H3,(H2,6,7)	InChI=1S/C5H6N2O2/c1-3-2-9-5(8)4(6)7-3/h2H,1H3,(H2,6,7)
