18
gdb 45688	3.57135	1.34655	1.03486	3.7869	79.45	-0.2331	0.0084	0.2415	1139.7606	0.150162	-401.981551	-401.974048	-401.973104	-402.013683	29.531	
O	 0.000699473	-0.0577786131	-0.3895281721	-0.373544
C	-0.0141788525	 1.1287599135	-0.1236403502	 0.385745
C	-1.3375538531	 1.872737008	 0.1174087241	-0.366279
C	-1.209226243	 3.1979935172	 0.8274805397	-0.241478
C	-0.0675451545	 3.8598336738	 0.7313231382	 0.327202
C	 0.7063640254	 4.913141367	 1.4966492075	-0.317268
C	 1.9566366247	 3.9904036144	 1.2910371368	-0.241927
C	 1.1849239286	 3.2949149632	 0.1169177782	-0.017952
N	 1.1416818574	 1.8629441596	-0.026679021	-0.321467
H	-1.8212240653	 1.9805533707	-0.8640758013	 0.140298
H	-1.9733196544	 1.1805118814	 0.6770479278	 0.139169
H	-2.034689071	 3.5454581327	 1.442466581	 0.097154
H	 0.8062179712	 5.8599605215	 0.9551646569	 0.115436
H	 0.3918135003	 5.1253025711	 2.5201770676	 0.118576
H	 2.9074185284	 4.4689029158	 1.0477097351	 0.103577
H	 2.0852029842	 3.3025900671	 2.1291019905	 0.119129
H	 1.4490836927	 3.7873868235	-0.8316746123	 0.089831
H	 1.9749151879	 1.3561589727	-0.2909281365	 0.243797
81.4397	129.1374	243.6872	331.2359	346.326	449.0893	464.0714	509.8873	573.9938	636.4751	662.7507	735.9458	750.0739	813.7862	855.3568	871.3908	922.6924	957.0159	979.2965	1011.3351	1061.5418	1085.7391	1114.5969	1159.7047	1187.7657	1204.2166	1227.6081	1250.0872	1264.3204	1298.1756	1320.4917	1363.0559	1389.7074	1451.4865	1462.1757	1474.935	1488.7923	1783.1122	1790.084	2974.3082	3014.1067	3048.5721	3071.4956	3087.5043	3111.8909	3137.7224	3165.385	3599.905
O=C1CC=C2CCC2N1	O=C1C[CH][C]2CC[C@H]2N1	
InChI=1S/C7H9NO/c9-7-4-2-5-1-3-6(5)8-7/h2,6H,1,3-4H2,(H,8,9)	InChI=1S/C7H9NO/c9-7-4-2-5-1-3-6(5)8-7/h2,6H,1,3-4H2,(H,8,9)/t6-/m1/s1
