23
gdb 63587	3.03113	1.21944	1.02594	1.7232	85.63	-0.2478	0.0791	0.327	1288.4732	0.205085	-388.307211	-388.297712	-388.296768	-388.341457	36.549	
C	-0.1124401936	 1.5292126531	 0.0592349233	-0.456212
C	-0.0867554983	 0.0146033793	 0.1164715622	 0.306502
C	-1.2538059011	-0.6510237495	-0.5843657901	-0.455344
O	 1.1951279876	-0.5859329547	-0.1469407841	-0.333468
C	 0.6563951151	-0.6887610588	 1.1827369472	 0.38597
C	 1.4249581491	 0.0273430228	 2.2995294792	-0.28093
C	 1.9546787114	-1.112238134	 3.1857825697	-0.213844
C	 0.8140886426	-2.1436017647	 3.1479658448	-0.208103
C	 0.3258375082	-2.1049255308	 1.6848667778	-0.29066
H	 0.7568779235	 1.9675952973	 0.5511538202	 0.125137
H	-0.1195928362	 1.8660288142	-0.9833522729	 0.121953
H	-1.0169884764	 1.9193407703	 0.5393203371	 0.11592
H	-1.314752636	-0.3060643237	-1.6226090916	 0.121041
H	-1.1461234225	-1.7366715877	-0.5958235554	 0.12719
H	-2.2008426203	-0.3972556363	-0.0947232421	 0.115231
H	 2.2099288851	 0.667613469	 1.8925904179	 0.111178
H	 0.7402984331	 0.6613398028	 2.8778964652	 0.098766
H	 2.8593481346	-1.540964434	 2.7380150593	 0.105237
H	 2.210743029	-0.7877570563	 4.1980118437	 0.093264
H	 1.1236960696	-3.1435849348	 3.4633082492	 0.097199
H	 0.0091887574	-1.8265288248	 3.8223370875	 0.096848
H	-0.7343237664	-2.3542060119	 1.5914943146	 0.10023
H	 0.8818405247	-2.8189421471	 1.0679795171	 0.116894
47.5688	146.2342	158.7582	182.9188	213.617	251.6769	298.0697	359.9955	433.2798	440.1533	483.1085	524.3284	563.938	691.9185	710.1348	837.7186	856.6815	870.3794	912.8436	933.0154	939.9852	945.2254	973.683	1002.7836	1031.0438	1043.9743	1118.568	1140.609	1167.4285	1187.7919	1194.0591	1242.5071	1247.0589	1262.5445	1307.8341	1329.1582	1340.5098	1349.0957	1406.5535	1416.5667	1451.2506	1473.1912	1476.7072	1481.9164	1487.9169	1491.0544	1501.7055	1508.8667	1518.3886	3023.663	3030.9356	3031.4362	3037.1116	3038.7904	3050.2274	3088.7403	3088.783	3093.1611	3094.5371	3101.8929	3110.8189	3137.9857	3139.5342
CC1(C)OC11CCCC1	CC1(C)OC21CCCC2	
InChI=1S/C8H14O/c1-7(2)8(9-7)5-3-4-6-8/h3-6H2,1-2H3	InChI=1S/C8H14O/c1-7(2)8(9-7)5-3-4-6-8/h3-6H2,1-2H3
