22
gdb 59974	2.68359	1.01798	0.84107	2.5067	80.32	-0.2275	0.0389	0.2664	1474.8816	0.191452	-441.519064	-441.507779	-441.506834	-441.556108	39.824	
C	-0.5416957946	 1.1139459782	 0.372390198	-0.401118
C	-0.2462076706	-0.381726153	 0.2690386145	 0.124656
O	-1.4351223252	-1.1579299522	 0.4396941271	-0.435313
C	 0.3267088961	-0.7471804948	-1.1020453106	-0.161274
N	 0.7567661119	-2.1372732475	-1.2062997651	-0.069123
C	-0.2153764681	-3.0938686766	-1.7098880549	-0.348914
C	 2.0312192995	-2.4344541532	-0.8019208796	 0.398816
C	 2.5084553224	-3.8741240673	-0.942885274	-0.498711
O	 2.7690889043	-1.5721637914	-0.3444249988	-0.391897
H	 0.3734725372	 1.7039190259	 0.2603493064	 0.126483
H	-1.2559104567	 1.4205685424	-0.3989682619	 0.120773
H	-0.9756604709	 1.3547519083	 1.3492117067	 0.10558
H	 0.5010112698	-0.6612169581	 1.0249477056	 0.092952
H	-1.7524793317	-1.0219695526	 1.3376058737	 0.2826
H	-0.43641281	-0.564281851	-1.8671163029	 0.099404
H	 1.1913094644	-0.1110342046	-1.2997077794	 0.132494
H	 0.179515221	-4.1070654457	-1.6644293723	 0.130981
H	-1.1285234577	-3.0461455546	-1.1108693271	 0.154971
H	-0.4736841839	-2.8762408639	-2.7553646814	 0.119174
H	 2.4334055307	-4.2358506556	-1.9729181093	 0.134372
H	 3.5518704914	-3.8976437407	-0.6304468412	 0.145438
H	 1.934141181	-4.5556038721	-0.3070394934	 0.137658
47.7985	72.6266	89.6319	104.5665	156.6534	211.8124	229.4853	265.978	275.8442	299.993	344.5291	396.9785	441.5546	462.6732	537.0145	592.9847	608.0145	754.864	845.0372	908.1772	934.4879	986.997	1035.8821	1049.6671	1064.6837	1116.2224	1130.6791	1158.7815	1174.5146	1217.3392	1281.2412	1336.4212	1354.83	1384.6595	1398.244	1404.6119	1428.4063	1434.5621	1452.3622	1468.4815	1479.1143	1492.6446	1495.5149	1499.3769	1502.1753	1534.7281	1742.6568	3010.6368	3011.8048	3029.3535	3044.4828	3046.4441	3096.6852	3097.4336	3107.6033	3110.5752	3123.4944	3159.5789	3170.2651	3823.8328
CC(O)CN(C)C(C)=O	C[C@@H](O)CN(C)C(=O)C	
InChI=1S/C6H13NO2/c1-5(8)4-7(3)6(2)9/h5,8H,4H2,1-3H3	InChI=1S/C6H13NO2/c1-5(8)4-7(3)6(2)9/h5,8H,4H2,1-3H3/t5-/m1/s1
