19
gdb 41357	2.80177	1.84873	1.67113	1.4483	73.36	-0.2448	0.059	0.3038	904.3696	0.162669	-422.968214	-422.961704	-422.96076	-422.998707	27.781	
C	 0.0913580404	 1.5243254529	 0.276508959	-0.173947
O	 1.5029814128	 1.4075113314	-0.1109984163	-0.357903
C	 1.1277207485	 0.2634339045	-0.9151830891	 0.41095
C	 0.5931128289	 0.661464927	-2.3261410736	-0.270061
C	-0.7746461677	-0.0804596886	-2.4065707888	-0.206932
C	-0.7354517894	-0.8928505301	-1.1115044082	 0.047341
O	 0.3810756534	-1.8474354481	-1.2318026791	-0.308035
C	 1.6586307242	-1.1558667408	-1.0109141685	-0.148418
C	-0.1148067085	 0.0230203159	-0.0644778257	-0.030767
H	-0.0099648118	 1.7996206315	 1.3284460421	 0.118035
H	-0.4391555311	 2.2469541378	-0.3529811976	 0.110084
H	 0.4879889977	 1.7450341627	-2.4003859518	 0.110875
H	 1.2847266063	 0.3453227697	-3.1104576266	 0.104589
H	-1.6238102047	 0.6118108589	-2.4180469173	 0.096567
H	-0.85840277	-0.7347233492	-3.2767182578	 0.110119
H	-1.6198099975	-1.4827144463	-0.8708961405	 0.077643
H	 2.310560521	-1.3674460297	-1.8643325355	 0.101865
H	 2.127980296	-1.5134238144	-0.087501364	 0.106297
H	 0.1261461513	-0.5581375451	 0.8280608293	 0.101699
176.3567	294.0033	334.3204	382.3404	408.4348	473.2106	547.8962	614.3492	689.5498	737.8584	791.1864	817.6907	850.7585	879.6566	897.0379	923.6672	946.4773	981.6874	990.023	1010.0915	1036.6462	1070.2921	1103.1351	1112.8058	1140.8273	1160.434	1183.4659	1216.7753	1231.9274	1250.7709	1282.188	1299.24	1307.1357	1327.8187	1336.0242	1357.425	1390.1319	1480.2991	1498.1151	1517.5056	1531.2731	3029.8635	3041.1618	3045.3029	3072.7203	3080.8324	3086.2271	3105.4975	3112.9635	3122.1075	3125.7118
C1OC23CCC(OC2)C13	C1O[C@@]23CC[C@@H](OC2)[C@H]13	
InChI=1S/C7H10O2/c1-2-7-4-8-6(1)5(7)3-9-7/h5-6H,1-4H2	InChI=1S/C7H10O2/c1-2-7-4-8-6(1)5(7)3-9-7/h5-6H,1-4H2/t5-,6+,7-/m0/s1
