15
gdb 43405	2.86014	1.50969	1.02064	3.3901	74.78	-0.239	-0.0625	0.1765	1106.4913	0.111298	-420.601535	-420.593547	-420.592603	-420.634317	29.836	
O	-0.073491904	-0.0628158295	-0.0387762225	-0.3053
C	-0.0694605468	 1.138365698	 0.0957158411	 0.359074
C	-1.2983806714	 1.9493181137	 0.1832813209	-0.146276
C	-1.2369143663	 3.2805348759	 0.2945184603	-0.069313
C	 0.0707656866	 3.9946244761	 0.4585230576	-0.120246
O	 1.1129745509	 3.1428017146	 0.8803205271	-0.254445
C	 1.2412725212	 1.9715893432	 0.0782763856	-0.192413
C	 2.3942848436	 1.2120009015	 0.5323006104	 0.322171
C	 3.3469861648	 0.580975054	 0.897645962	-0.402729
H	-2.235113252	 1.4087642395	 0.0948021869	 0.120086
H	-2.1360835883	 3.8915383972	 0.2663741297	 0.120486
H	 0.3326369112	 4.5054801263	-0.4886594611	 0.113558
H	-0.0131674052	 4.7735009946	 1.2239822245	 0.135393
H	 1.3959445324	 2.2618871316	-0.9796000456	 0.118201
H	 4.1855019631	 0.0171903033	 1.2249172231	 0.201752
68.1843	136.6861	167.8266	270.9377	314.1703	372.8788	422.1478	462.4462	529.4162	551.5527	627.6148	628.941	680.3743	726.3028	806.2534	893.4446	914.3654	973.3874	1013.7182	1039.6928	1073.1381	1109.1531	1166.3035	1225.7412	1261.0954	1302.0079	1345.5465	1390.9643	1403.9396	1472.619	1686.2808	1799.5334	2253.7003	2912.4798	2922.9759	3069.6118	3160.3114	3193.9808	3504.5675
O=C1C=CCOC1C#C	O=C1C=CCO[C@H]1C#C	
InChI=1S/C7H6O2/c1-2-7-6(8)4-3-5-9-7/h1,3-4,7H,5H2	InChI=1S/C7H6O2/c1-2-7-6(8)4-3-5-9-7/h1,3-4,7H,5H2/t7-/m0/s1
