17
gdb 15077	3.12258	1.51375	1.14211	2.9177	64.4	-0.2487	-0.0355	0.2132	1045.5913	0.140675	-400.962994	-400.954178	-400.953234	-400.997414	30.577	
O	 0.054707566	 1.3866077969	 0.0140431031	-0.422917
C	 0.0538287566	-0.0324975481	 0.0042926229	-0.100573
C	-1.4056261502	-0.4731921577	 0.0944512446	-0.082998
C	-2.1840443288	 0.0758941858	-1.0985786157	 0.143541
O	-3.386613893	 0.0947332738	-1.1732033167	-0.253022
C	-1.5210293731	-1.9914464266	 0.2171048466	-0.003477
C	-2.793958722	-2.7172733081	 0.0068606939	-0.25199
N	-1.6807817792	-2.8806328577	-0.9495465381	-0.325605
H	 0.9515622774	 1.6963706514	-0.1424295458	 0.293651
H	 0.5041183678	-0.4303495911	-0.9199006737	 0.098645
H	 0.6223154164	-0.4457005615	 0.8503352531	 0.099714
H	-1.8446653767	-0.0200037922	 0.9929260072	 0.12269
H	-1.5571230809	 0.4574204143	-1.9345465651	 0.09132
H	-0.8311561332	-2.3988751471	 0.9549988107	 0.095094
H	-3.0129427788	-3.597787869	 0.6041660597	 0.11855
H	-3.656965639	-2.1351996661	-0.30016468	 0.145761
H	-1.8799336293	-2.3379002671	-1.7874593365	 0.231616
41.4687	71.4417	123.7081	188.1976	211.2717	255.46	299.1342	385.5229	396.3195	514.0006	598.555	776.9056	840.0045	876.7625	927.5129	951.7768	988.2109	1047.6722	1059.2337	1085.1047	1113.6546	1137.8608	1156.9368	1201.286	1229.1345	1245.768	1261.4823	1298.9163	1306.623	1334.2571	1402.1191	1442.9582	1455.6559	1509.819	1523.3687	1822.7632	2887.7809	2972.0547	3009.249	3036.2989	3111.15	3118.9057	3211.8294	3488.6004	3832.4788
OCC(C=O)C1CN1	OC[C@@H](C=O)[C@H]1CN1	
InChI=1S/C5H9NO2/c7-2-4(3-8)5-1-6-5/h2,4-6,8H,1,3H2	InChI=1S/C5H9NO2/c7-2-4(3-8)5-1-6-5/h2,4-6,8H,1,3H2/t4-,5-/m1/s1
