15
gdb 24243	4.1228	1.62112	1.26976	1.8455	69.89	-0.1907	0.0299	0.2206	945.0297	0.115123	-420.618848	-420.612657	-420.611713	-420.649255	25.473	
C	 0.0078900462	 1.4878996233	 0.101231578	-0.318114
C	 1.3045230492	 0.7357774453	 0.0455953361	 0.082159
O	 1.9804300733	 0.4040491034	 1.2713570515	-0.26569
C	 1.1129413738	-0.4305526721	 1.8746405471	 0.419168
C	-0.021979901	-0.776798416	 1.2266235572	 0.167252
C	-0.6961120197	-1.6591779359	 2.1358091509	-0.354118
C	 0.1047554574	-1.7450476701	 3.236000867	-0.025495
O	 1.248546651	-0.9632359179	 3.0865097191	-0.201621
C	-0.0255773018	-0.0291746146	-0.0567608807	-0.222527
H	-0.3202350887	 1.9069709502	 1.0458291012	 0.129508
H	-0.21478982	 2.0912836968	-0.7728070617	 0.120132
H	 2.0074007338	 0.873535231	-0.7648448615	 0.115531
H	-1.6390239435	-2.1681151633	 2.0086532704	 0.115736
H	 0.0435266795	-2.2799434528	 4.1671854497	 0.136977
H	-0.3668060095	-0.4691147374	-0.9869202041	 0.101103
147.9675	262.4221	366.4086	446.2484	465.6947	601.9531	623.3779	643.5247	698.3769	730.5817	765.9501	778.8143	817.4849	821.5642	916.6122	943.1003	957.8324	1015.9457	1036.1132	1063.3936	1081.329	1117.6999	1132.5072	1170.2108	1185.0304	1236.6078	1305.13	1348.2941	1418.9919	1461.4817	1498.72	1530.2954	1652.7309	3131.6976	3170.6617	3207.4939	3225.3055	3253.5505	3302.0811
C1C2OC3=C(C=CO3)C12	C1[C@H]2Oc3c(cco3)[C@@H]12	
InChI=1S/C7H6O2/c1-2-8-7-4(1)5-3-6(5)9-7/h1-2,5-6H,3H2	InChI=1S/C7H6O2/c1-2-8-7-4(1)5-3-6(5)9-7/h1-2,5-6H,3H2/t5-,6-/m1/s1
