17
gdb 96060	2.62285	1.22068	0.95992	3.2257	65.43	-0.2736	-0.0022	0.2714	1226.6442	0.135579	-496.12788	-496.119184	-496.11824	-496.162409	30.837	
O	 0.4912786412	 1.0252737667	 0.6023163666	-0.433949
C	-0.0018916969	-0.1532374941	 0.0308357127	 0.10449
C	-1.4114749908	-0.0793110728	-0.5930610058	-0.273199
C	-1.4065130794	-1.2560491473	-1.5734830576	-0.082814
O	-0.0135250569	-1.5492430067	-1.8561486934	-0.250686
C	 0.8089692308	-0.6794542352	-1.1669604865	 0.177902
O	 1.1300666681	 0.4881743439	-1.959806143	-0.225536
C	 2.1107408099	 0.3649500362	-2.882072936	 0.174524
O	 2.4079377983	 1.2507125825	-3.6236882761	-0.26949
H	 0.6918582806	 1.627928035	-0.1250276267	 0.295138
H	 0.0227182831	-0.9160193075	 0.8160644754	 0.105965
H	-2.2049074915	-0.1492526231	 0.1524126825	 0.118877
H	-1.5153001212	 0.8742975327	-1.1193151563	 0.12338
H	-1.8493219104	-2.1601303016	-1.1423889742	 0.1171
H	-1.9157564118	-1.0376109745	-2.5160734746	 0.123937
H	 1.7392516747	-1.1957747507	-0.9121296798	 0.103148
H	 2.5966597721	-0.6277383335	-2.8610187771	 0.091213
44.809	102.4179	134.108	138.1489	193.7102	294.7032	375.9823	423.2943	453.512	562.417	589.1391	661.0686	767.2497	848.2304	900.948	931.856	956.7453	1000.0591	1043.1369	1046.0437	1113.1703	1129.5127	1144.2638	1171.4111	1207.8679	1226.1944	1278.5859	1307.1433	1323.4284	1357.1705	1378.7576	1400.6846	1438.8308	1447.5596	1490.3158	1528.714	1869.5167	2973.8937	3046.7564	3059.4453	3068.9604	3077.4974	3092.2896	3130.8347	3782.1314
OC1CCOC1OC=O	O[C@H]1CCO[C@H]1OC=O	
InChI=1S/C5H8O4/c6-3-9-5-4(7)1-2-8-5/h3-5,7H,1-2H2	InChI=1S/C5H8O4/c6-3-9-5-4(7)1-2-8-5/h3-5,7H,1-2H2/t4-,5-/m0/s1
