19
gdb 90856	3.80334	1.46234	1.35377	1.4515	78.71	-0.2163	0.0147	0.231	998.3555	0.161977	-385.864635	-385.857789	-385.856845	-385.895484	28.987	
O	-0.0738733413	 1.3993014735	-0.0246903296	-0.444055
C	-0.029909885	-0.0201205176	 0.0158916213	 0.111419
C	 0.5205935192	-0.6063234454	 1.3565350031	-0.2807
C	-0.7362195943	-1.3175853792	 1.8500700027	-0.000815
C	-1.3363958406	-2.0420845629	 0.5830125394	-0.086457
C	-2.7622605148	-2.3677844345	 1.0171495704	-0.104072
C	-3.1532493567	-1.2594338434	 1.650250466	-0.102579
C	-1.9386696583	-0.3420615564	 1.5515082116	-0.065683
C	-1.4526194894	-0.5588498366	 0.0689505607	-0.000418
H	 0.8310456201	 1.7260054959	-0.0090932464	 0.280627
H	 0.5176007137	-0.409618342	-0.8551590608	 0.060949
H	 1.3630412688	-1.2907068263	 1.2107263513	 0.092683
H	 0.842088572	 0.1991824121	 2.0248112877	 0.095947
H	-0.6978688254	-1.8474037654	 2.8040740627	 0.059132
H	-0.7610113601	-2.7901313041	 0.0338085779	 0.053555
H	-3.2894222327	-3.2941048102	 0.8392664123	 0.098847
H	-4.0916918473	-1.0270859038	 2.133185079	 0.098909
H	-1.9793637472	 0.656953906	 1.9840695025	 0.067874
H	-2.1141936108	-0.3160910397	-0.7638862519	 0.064837
144.3392	258.5402	274.0515	339.439	423.3507	471.4513	531.5338	608.892	671.0543	710.1471	745.4731	812.3686	850.8099	905.3842	907.7769	918.1254	920.0974	930.5637	964.3685	973.6668	1000.5709	1015.3866	1041.5445	1054.1445	1091.1129	1134.544	1158.4538	1175.1087	1203.1882	1211.1768	1232.7121	1239.5357	1245.5818	1267.5943	1283.4017	1321.8269	1331.9886	1359.3278	1425.3705	1486.014	1632.4518	2984.7489	3040.5664	3086.8745	3091.7468	3098.3634	3111.8764	3127.0482	3220.6076	3247.93	3817.6269
OC1CC2C3C=CC2C13	O[C@H]1C[C@@H]2[C@H]3C=C[C@@H]2[C@@H]13	
InChI=1S/C8H10O/c9-7-3-6-4-1-2-5(6)8(4)7/h1-2,4-9H,3H2	InChI=1S/C8H10O/c9-7-3-6-4-1-2-5(6)8(4)7/h1-2,4-9H,3H2/t4-,5+,6-,7-,8+/m0/s1
