17
gdb 33614	3.43691	1.6245	1.4306	0.7504	82.85	-0.2314	0.0365	0.2679	948.2104	0.136723	-347.44934	-347.442635	-347.441691	-347.480126	28.284	
C	 0.0113006689	-1.2184549785	 0.0127573232	-0.324835
C	-0.016131952	-0.0143788859	 0.0336725527	-0.03988
C	-0.049989973	 1.4067952002	 0.0608045865	 0.376987
C	-0.694521667	 2.3512894927	 1.1322448428	-0.185813
C	-0.9347833131	 3.3352975311	 0.0124339786	-0.074679
C	 0.383614628	 3.3518422974	 0.7909382444	-0.074678
C	 1.2176454465	 2.3656422772	-0.0565177023	-0.118582
C	 0.88062039	 2.6340494773	-1.541272984	-0.248987
C	-0.5770725439	 2.3431180522	-1.1162832011	-0.118581
H	 0.0362453185	-2.2795039759	-0.0070064887	 0.173775
H	-1.2329071806	 2.1505306016	 2.0482677577	 0.096229
H	-1.611843137	 4.1778646347	-0.0165299941	 0.090087
H	 0.7201513962	 4.2071288646	 1.3604960936	 0.090087
H	 2.2069863779	 2.0717135462	 0.2890606541	 0.077969
H	 1.1139591439	 3.6185807875	-1.9573585923	 0.094134
H	 1.2742277236	 1.8466748142	-2.1911147686	 0.108799
H	-1.3517887268	 2.0270499232	-1.8123649025	 0.077969
139.5198	155.2439	374.4285	468.3277	489.6858	527.6108	550.5586	598.1321	638.677	713.5171	741.6426	788.3236	795.9968	817.9759	864.2648	899.3497	926.7571	934.4453	942.6992	968.2876	998.6085	1016.3524	1036.6935	1037.9328	1073.4515	1092.5951	1135.1226	1149.338	1196.447	1223.3803	1229.1828	1267.7215	1292.4197	1313.8393	1351.6267	1483.6186	2225.4355	3048.9599	3107.7122	3134.6375	3136.7232	3201.8107	3203.2708	3218.6984	3503.4788
C#CC12C3C4C3C1CC24	C#C[C@@]12[C@@H]3[C@H]4[C@@H]3[C@@H]1C[C@@H]24	
InChI=1S/C9H8/c1-2-9-4-3-5(9)7-6(4)8(7)9/h1,4-8H,3H2	InChI=1S/C9H8/c1-2-9-4-3-5(9)7-6(4)8(7)9/h1,4-8H,3H2/t4-,5+,6-,7+,8-,9+
