13
gdb 53786	2.36246	1.31671	1.18787	3.8761	62.4	-0.2439	-0.0986	0.1453	1086.6101	0.085654	-489.903234	-489.893653	-489.892708	-489.938593	31.97	
N	 0.0758110745	 1.1149595557	-0.3892031672	-0.547867
C	 0.022963398	-0.2246787602	-0.2032217751	 0.302677
N	 0.8616857704	-1.1594846672	-0.463596148	-0.51619
C	-1.2458462768	-0.7036032869	 0.4521354725	 0.330792
O	-2.1460722474	 0.0270670491	 0.7810395901	-0.303883
C	-1.284119273	-2.2270405456	 0.7018826638	 0.244397
O	-1.1902735243	-2.6988212008	 1.8048890874	-0.264269
C	-1.5728506014	-3.098193589	-0.5189676526	 0.094276
O	-1.9681615956	-2.6313698171	-1.5539861252	-0.22132
H	 0.8129396278	 1.5493344092	-0.9159772879	 0.26556
H	-0.7510706611	 1.6484174802	-0.1693465296	 0.279666
H	 1.7193689343	-0.8259466655	-0.9058198181	 0.220938
H	-1.4283714754	-4.1831213121	-0.3391905301	 0.11522
52.0973	81.1946	118.5627	134.7455	154.4659	183.4715	301.378	303.8681	393.3887	441.873	514.8115	539.1402	570.3211	628.9083	687.983	837.0043	882.7558	984.2439	1040.9373	1078.6818	1136.9976	1216.6021	1361.0492	1440.0019	1608.7287	1721.3904	1809.4296	1817.2802	1827.2251	2937.6196	3468.9231	3593.5759	3729.2894
NC(=N)C(=O)C(=O)C=O	NC(=N)C(=O)C(=O)C=O	
InChI=1S/C4H4N2O3/c5-4(6)3(9)2(8)1-7/h1H,(H3,5,6)	InChI=1S/C4H4N2O3/c5-4(6)3(9)2(8)1-7/h1H,(H3,5,6)
