16
gdb 38514	2.66827	2.58807	2.3845	3.4988	69.52	-0.2074	-0.0604	0.147	723.7023	0.126845	-400.653491	-400.648193	-400.647249	-400.682655	24.148	
C	-0.0685563189	 1.5442556789	 0.0872054003	-0.187208
C	 1.4119216726	 1.9576148968	-0.08543552	 0.054412
O	 1.9277672191	 1.6464275323	-1.4962177284	-0.264444
C	 1.6349939403	 0.3064401927	-1.3352324423	 0.191086
N	 0.4048571766	-0.0486941508	-1.467719971	-0.211954
C	 0.0154268017	-0.0298553543	-0.0286916743	-0.04851
C	 1.2730353605	-0.3325416019	 0.8418853928	-0.074442
C	 2.1375533253	 0.932416082	 0.8201395579	-0.076499
C	 2.4076398029	-0.2073482794	-0.1102645286	-0.10307
H	-0.3670959126	 1.8269449147	 1.106380579	 0.106615
H	-0.744983641	 1.9896127197	-0.642464242	 0.128565
H	 1.6423375529	 3.0087079374	 0.0656401617	 0.107105
H	-0.8954546965	-0.5787894836	 0.2124539333	 0.081362
H	 1.2459012361	-1.0140124905	 1.6814797796	 0.096006
H	 2.7873846064	 1.2332470101	 1.6313022938	 0.097257
H	 3.3069896745	-0.8045710142	-0.1654085517	 0.103719
392.819	440.8085	533.8252	545.0298	619.518	652.1024	659.999	750.9792	777.4291	780.7297	791.9828	822.5563	849.7039	863.9011	885.3842	903.971	933.6974	954.6034	991.2155	1007.088	1034.7053	1057.8448	1072.6496	1096.7739	1134.2922	1173.6885	1240.5563	1245.0891	1255.344	1268.7163	1273.1042	1308.7463	1354.9317	1448.3739	1499.8164	3026.0268	3108.9082	3138.1891	3166.9696	3197.7216	3203.2814	3215.2774
C1C2OC3=NC1C1C2C31	C1[C@@H]2O[C]3[N][C@H]1[C@@H]1[C@H]2[C@H]31	
InChI=1S/C7H7NO/c1-2-4-5-3(1)9-7(8-2)6(4)5/h2-6H,1H2	InChI=1S/C7H7NO/c1-2-4-5-3(1)9-7(8-2)6(4)5/h2-6H,1H2/t2-,3+,4-,5+,6-/m1/s1
