18
gdb 38007	3.02011	2.27796	1.98295	0.5636	80.67	-0.1963	-0.0165	0.1798	796.9301	0.150924	-364.699039	-364.693321	-364.692377	-364.728595	25.53	
C	-0.028327328	 1.4523324633	 0.1625085521	-0.154175
C	 1.5358615322	 1.5641124033	 0.0060950088	-0.099328
C	 1.9908246309	 1.3507688001	 1.4329601752	-0.146357
C	 1.9865719153	 0.0405949519	 1.7243339702	 0.099458
C	 0.8389366434	-0.6530226939	 2.4551789447	-0.290219
C	 0.4115181201	-1.0407306259	 0.9808833267	 0.014368
C	 1.8835057075	-0.8643037282	 0.5004612948	-0.084278
C	 1.4293801103	 0.107140048	-0.5776166192	 0.007687
N	 0.0020145737	-0.0234165523	-0.096522363	-0.153794
H	-0.4535780378	 1.7678638337	 1.1213621763	 0.103447
H	-0.5852160719	 1.9413119951	-0.6470814305	 0.106059
H	 1.9417496041	 2.3907923799	-0.5820318331	 0.066847
H	 1.7608322348	 2.1149975895	 2.1721654306	 0.093179
H	 1.0745308461	-1.5821776606	 2.9883623416	 0.108194
H	 0.1909956709	-0.0257842797	 3.071643977	 0.10832
H	-0.1736802023	-1.9602632426	 0.8846556826	 0.082788
H	 2.5914721765	-1.682609276	 0.3677206544	 0.070417
H	 1.6102216541	-0.0566453155	-1.6417038993	 0.067385
257.3045	356.4853	434.494	474.9307	578.2582	616.8169	669.7908	719.3159	789.3938	820.8885	844.5901	860.8055	866.8378	882.5104	911.684	922.7559	936.4015	951.0164	975.289	982.9288	1030.8664	1058.2138	1069.2818	1108.7527	1128.7581	1184.2164	1186.1716	1204.6375	1212.1956	1220.79	1244.0146	1254.5257	1279.7583	1293.348	1300.4097	1331.7544	1477.4209	1487.8238	1634.6969	3012.4322	3028.2183	3053.8081	3069.1591	3073.8378	3087.2727	3106.3588	3107.3856	3149.5895
C1C2C=C3CC4C3C2N14	C1[C@H]2[CH][C]3C[C@@H]4[C@H]3[C@H]2N14	
InChI=1S/C8H9N/c1-4-2-6-7(4)8-5(1)3-9(6)8/h1,5-8H,2-3H2	InChI=1S/C8H9N/c1-4-2-6-7(4)8-5(1)3-9(6)8/h1,5-8H,2-3H2/t5-,6-,7+,8+/m1/s1
