23
gdb 61256	3.73504	0.82014	0.71666	0.7963	92.15	-0.2565	0.057	0.3135	1634.8197	0.204316	-351.11975	-351.10967	-351.108726	-351.154967	37.916	
C	-0.1658656376	 1.5115384244	 0.0704059601	-0.399171
C	-0.0114886549	-0.0100731363	-0.03274552	 0.003775
C	 0.7418892171	-0.4188676357	-1.324026687	-0.365293
C	 0.0519755935	-0.0437345868	-2.552277063	 0.301491
C	-0.5381209264	 0.267317492	-3.5528223548	-0.444201
C	 0.6952119102	-0.5869623359	 1.1916123714	 0.075789
C	 0.0029022228	-0.4852212899	 2.5818464922	-0.242529
C	 0.5316474423	-1.9073152025	 2.9083222942	-0.219236
C	 0.7577077646	-2.1306756303	 1.389021313	-0.237131
H	 0.8142269542	 1.9999768245	 0.1346285374	 0.108904
H	-0.6842970175	 1.9133966279	-0.8043259434	 0.128857
H	-0.7352223903	 1.7894566741	 0.962536877	 0.115586
H	-1.014175946	-0.456910939	-0.0859051054	 0.07665
H	 1.7421529863	 0.0363699032	-1.313480004	 0.123688
H	 0.9015958638	-1.5043674986	-1.320254887	 0.130678
H	-1.04889769	 0.53866581	-4.4430388876	 0.191297
H	 1.7082677453	-0.1672112805	 1.255629854	 0.064096
H	 0.2951084265	 0.3351788423	 3.2416510966	 0.095809
H	-1.0876856354	-0.4758359376	 2.4789453554	 0.098629
H	 1.477397877	-1.8714405808	 3.4566218175	 0.101844
H	-0.1420671258	-2.5930013069	 3.4272564936	 0.096538
H	-0.102261428	-2.624676057	 0.922901948	 0.099193
H	 1.6662039184	-2.6532484706	 1.0791192316	 0.094737
63.4355	93.2116	111.5469	143.5276	188.1783	235.1106	294.1038	335.5256	357.5855	391.6379	430.7126	533.5205	612.8171	632.6014	647.2066	769.9523	785.4245	858.0814	891.4051	893.3606	936.0222	949.9566	952.9766	979.0298	1002.9314	1031.1216	1077.6408	1121.5438	1130.6368	1187.6413	1204.7624	1224.0783	1252.0646	1257.4582	1262.7258	1277.0361	1292.4717	1302.2635	1342.8782	1360.0304	1395.119	1410.1359	1469.9088	1478.3862	1486.1375	1497.5728	1501.2417	1510.371	2235.0175	3001.5577	3010.5972	3019.0535	3030.0042	3040.6667	3046.2807	3051.3886	3057.7121	3094.0738	3095.7129	3099.334	3115.8508	3116.9971	3507.003
CC(CC#C)C1CCC1	C[C@@H](CC#C)C1CCC1	
InChI=1S/C9H14/c1-3-5-8(2)9-6-4-7-9/h1,8-9H,4-7H2,2H3	InChI=1S/C9H14/c1-3-5-8(2)9-6-4-7-9/h1,8-9H,4-7H2,2H3/t8-/m0/s1
