20
gdb 89905	5.13188	0.86587	0.82431	3.254	82.19	-0.2554	0.0233	0.2787	1455.6381	0.170114	-403.117179	-403.108147	-403.107203	-403.151407	33.702	
C	-0.1010859842	 1.6005766896	 0.2049830113	-0.403972
C	 0.0205101594	 0.087952487	 0.0758725949	 0.038113
C	 0.9631401974	-0.5069904027	-1.0340733499	-0.327078
C	 1.7134425002	-1.2682089958	 0.0609699424	 0.442644
C	 2.2933042658	-0.3409275873	 1.086337344	-0.340252
C	 0.8185565836	-0.6904281639	 1.1388651108	-0.14925
O	 2.1176719688	-2.5955402469	-0.072613754	-0.228134
C	 3.3941112662	-2.8035657652	-0.4735082863	 0.102398
N	 3.7955935806	-3.9776767245	-0.6982598087	-0.439963
H	 0.8765841771	 2.0806886088	 0.3173863724	 0.114676
H	-0.5803906002	 2.030507704	-0.6811305599	 0.117447
H	-0.7062901316	 1.8723432897	 1.0765593182	 0.118459
H	-0.9767891995	-0.3497201866	-0.0274234371	 0.084546
H	 0.433328172	-1.1752053069	-1.7155959403	 0.119861
H	 1.5543361451	 0.2063104089	-1.6185450038	 0.094203
H	 2.8844795135	-0.8311750571	 1.8533428636	 0.124225
H	 2.6388517024	 0.6549292371	 0.819642591	 0.110119
H	 0.399763409	-1.1804550371	 2.0091808482	 0.100069
H	 3.9771984162	-1.8777537747	-0.5544149435	 0.092654
H	 4.7750915482	-3.9600603465	-0.9751568934	 0.229235
54.7411	105.6534	107.5689	212.8238	229.8015	252.5982	356.556	391.5221	405.169	502.9729	524.9553	657.5426	755.5456	801.3946	824.7696	850.8618	906.3219	925.4529	966.8952	972.331	990.7017	1021.024	1049.9001	1067.3481	1076.3332	1096.3161	1111.8489	1133.6254	1185.4231	1227.7594	1242.95	1262.7051	1286.8928	1304.3611	1365.702	1382.6109	1413.2394	1417.5533	1476.8795	1494.2552	1496.7976	1503.2952	1744.5546	3030.6455	3043.187	3045.3211	3056.6116	3096.5898	3100.6606	3111.9987	3118.6445	3189.3934	3204.6498	3515.9524
CC1CC2(CC12)OC=N	C[C@H]1C[C@]2(C[C@@H]12)O[CH][NH]	
InChI=1S/C7H11NO/c1-5-2-7(9-4-8)3-6(5)7/h4-6,8H,2-3H2,1H3	InChI=1S/C7H11NO/c1-5-2-7(9-4-8)3-6(5)7/h4-6,8H,2-3H2,1H3/t5-,6-,7+/m0/s1
