21
gdb 42034	3.21588	1.35671	1.0193	1.1028	77.9	-0.243	0.0879	0.3309	1178.3665	0.186425	-424.234057	-424.226487	-424.225543	-424.266067	30.129	
C	 0.0073514293	 1.5620596717	 0.0948292429	-0.10938
O	 1.3723574065	 1.9193238108	-0.1573942747	-0.271698
C	 2.2251696632	 0.7787061539	 0.0199244292	-0.10663
C	 1.3496270743	-0.27686947	 0.6890345904	 0.019099
C	 1.6430798813	-1.7640999118	 0.5530898251	-0.127487
O	 0.608526842	-2.5048671886	 1.190626165	-0.247319
C	-0.6858948443	-2.2605016108	 0.6610755561	-0.063952
C	-1.1034772195	-0.779438	 0.7390505611	-0.258965
C	-0.0139105269	 0.0374808693	 0.056030699	 0.030942
H	-0.3086358369	 1.9412257271	 1.0797561204	 0.088916
H	-0.6198560525	 2.0329935023	-0.6695997308	 0.101293
H	 2.5951615106	 0.4363662588	-0.9593935354	 0.089962
H	 3.0889175736	 1.0776459163	 0.6235690028	 0.102693
H	 1.2863511519	-0.0536831458	 1.7629158706	 0.085823
H	 1.721798028	-2.0438964856	-0.5121574145	 0.08587
H	 2.5713086333	-2.0597139512	 1.0510161459	 0.108681
H	-0.7297576144	-2.5913661397	-0.3912965511	 0.085642
H	-1.3658917022	-2.8925615546	 1.238893316	 0.10899
H	-2.0817784519	-0.6526689431	 0.2606782211	 0.096788
H	-1.2052640314	-0.4791476561	 1.7891466586	 0.10505
H	 0.0335972359	-0.2684649229	-1.0008495978	 0.075683
118.7131	172.2762	202.2608	320.8885	333.1097	341.7709	429.7019	495.9441	503.5931	635.7226	680.2401	805.382	858.1211	910.0469	919.6013	960.1363	966.1041	982.7414	1005.1205	1052.3232	1087.1391	1104.0046	1119.3849	1143.4821	1158.2176	1172.1827	1187.6677	1210.5018	1236.4478	1275.4527	1303.8722	1316.604	1323.5703	1340.1418	1359.4453	1369.2702	1382.9399	1404.392	1418.4425	1422.2794	1482.7896	1493.4657	1503.1184	1522.7931	1531.9031	2952.7369	2957.8051	2973.0483	2980.6271	2987.3327	3019.0665	3029.4696	3060.2314	3062.8834	3074.369	3080.937	3089.3358
C1OCC2COCCC12	C1OC[C@@H]2COCC[C@@H]12	
InChI=1S/C7H12O2/c1-2-8-4-7-5-9-3-6(1)7/h6-7H,1-5H2	InChI=1S/C7H12O2/c1-2-8-4-7-5-9-3-6(1)7/h6-7H,1-5H2/t6-,7-/m0/s1
