21
gdb 106819	2.45487	1.5394	1.15248	2.2579	78.2	-0.2322	0.0828	0.315	1150.7822	0.182115	-424.215425	-424.206383	-424.205439	-424.248735	35.01	
C	-0.4074232075	 1.1448928734	 0.0383192523	-0.253364
O	 0.265214934	-0.0986406055	-0.0619389697	-0.306733
C	 0.8377098115	-0.5524135116	 1.1248892503	 0.361166
C	-0.0724507626	-1.1521188283	 2.1863451282	-0.421661
C	 0.8137818012	-2.041100317	 1.3272643936	 0.394998
O	 0.2262262896	-2.8724782049	 0.3787327405	-0.488104
C	 2.1556966866	-2.4692546698	 1.8885425827	-0.261967
C	 2.7776454066	-1.159731531	 2.4339788912	-0.230283
C	 2.1939282574	-0.0203062003	 1.5596163143	-0.278878
H	 0.2852097395	 1.9584459624	 0.2926109827	 0.115417
H	-0.8489275189	 1.3494510659	-0.9397465161	 0.127405
H	-1.2024672645	 1.1116141304	 0.7953185338	 0.114317
H	 0.1350172303	-0.9948762174	 3.2404645392	 0.106668
H	-1.1255473101	-1.1949665592	 1.9297716736	 0.113473
H	-0.0749788113	-2.295813798	-0.3366404522	 0.287879
H	 2.082991653	-3.2483793443	 2.6538148938	 0.101331
H	 2.7495740064	-2.8731373073	 1.0606649644	 0.106933
H	 2.4904527858	-1.0124365281	 3.4799004894	 0.107139
H	 3.8697883137	-1.1791381711	 2.4087735983	 0.103523
H	 2.8002394293	 0.1331340735	 0.6587726124	 0.106837
H	 2.15239068	 0.9326236884	 2.0982343872	 0.093905
95.8013	151.2083	166.6749	209.3486	229.4701	300.431	320.6598	360.1006	403.4462	465.5304	499.5725	585.4504	602.8871	684.5703	751.4295	821.8891	898.1231	902.7722	912.6912	923.9537	960.1799	1007.9431	1023.1634	1041.8305	1105.0833	1122.779	1178.2381	1182.9018	1199.0884	1216.4287	1234.0549	1244.7132	1263.4904	1301.3016	1330.2166	1340.5591	1385.7358	1413.5868	1471.0462	1482.5681	1487.992	1493.1265	1494.2517	1507.8686	1516.0734	2999.4116	3031.7711	3041.7225	3050.0584	3055.509	3073.522	3083.724	3104.2826	3120.6124	3122.1492	3215.6511	3750.5226
COC12CC1(O)CCC2	CO[C@@]12C[C@]1(O)CCC2	
InChI=1S/C7H12O2/c1-9-7-4-2-3-6(7,8)5-7/h8H,2-5H2,1H3	InChI=1S/C7H12O2/c1-9-7-4-2-3-6(7,8)5-7/h8H,2-5H2,1H3/t6-,7+/m1/s1
