14
gdb 34075	4.12642	1.48924	1.47935	5.1756	63.7	-0.2684	0.0017	0.2701	891.8251	0.102573	-436.672851	-436.666673	-436.665729	-436.70334	25.021	
N	 0.040446706	-1.0732639846	-0.0414424197	-0.321649
C	 0.027884576	 0.0798250267	-0.02568831	 0.230308
C	-0.0187780691	 1.5317519042	 0.0506794794	 0.363203
C	-0.6928904558	 2.2077944444	 1.2752511819	-0.25912
C	-0.4185299317	 3.6133721112	 0.7668441205	-0.190668
C	 0.8765083583	 3.4738196201	-0.0254625949	 0.041527
O	 1.2800826752	 2.1157050321	 0.0270839345	-0.275018
C	-0.4452577835	 3.4694993962	-0.7506995033	 0.041527
O	-0.6995664204	 2.1092356369	-1.0591147214	-0.275024
H	-1.7526740829	 1.9575637478	 1.3398874797	 0.13528
H	-0.1768418817	 1.9627025952	 2.2045310969	 0.135282
H	-0.7082116887	 4.5131154262	 1.2894395898	 0.115855
H	 1.680636576	 4.1880580595	-0.1126347663	 0.129249
H	-0.8072951477	 4.1799276842	-1.4777330171	 0.129249
161.3977	169.3982	416.1294	498.8953	534.5633	538.6225	568.7921	618.9395	718.8418	739.0184	799.2976	800.8367	833.6053	876.2152	970.8955	993.6257	1005.6909	1017.9007	1036.9914	1046.6785	1049.7877	1073.1168	1093.634	1168.5574	1197.6325	1267.2681	1284.8302	1327.7217	1381.169	1476.8009	2390.6909	3089.9124	3152.7674	3229.1787	3242.9109	3251.9458
N#CC12CC3C(O1)C3O2	N#C[C@@]12C[C@H]3[C@@H](O1)[C@H]3O2	
InChI=1S/C6H5NO2/c7-2-6-1-3-4(8-6)5(3)9-6/h3-5H,1H2	InChI=1S/C6H5NO2/c7-2-6-1-3-4(8-6)5(3)9-6/h3-5H,1H2/t3-,4+,5-,6-
