17
gdb 99352	5.59477	0.65423	0.6177	5.6935	70.34	-0.2539	-0.003	0.251	1748.5718	0.134661	-455.172837	-455.16281	-455.161866	-455.209542	33.486	
C	-0.1331629654	 1.1801032196	 0.4816458011	-0.241671
O	-0.1016701735	-0.1603868734	-0.0344713836	-0.226111
C	-1.2938316412	-0.7623788027	-0.1607685606	 0.433329
O	-2.3485355938	-0.2571295142	 0.135986045	-0.358544
C	-1.1418325977	-2.164035523	-0.7537900633	-0.296306
N	-2.3655818103	-2.9378683878	-0.8028317947	-0.275099
C	-2.855782193	-3.335439527	 0.5177267573	-0.272224
C	-4.0535754077	-4.1710355286	 0.3955449114	 0.262479
N	-5.0089396811	-4.813986186	 0.3085764758	-0.298433
H	 0.904778659	 1.5101472695	 0.5110715057	 0.140252
H	-0.7241806829	 1.8275626317	-0.1703955684	 0.146266
H	-0.5694552875	 1.1943484763	 1.4832455577	 0.145263
H	-0.7431145159	-2.0510564755	-1.7688865592	 0.147325
H	-0.3757527694	-2.7067677454	-0.1888217019	 0.141643
H	-3.0870537634	-2.3958730213	-1.2682876649	 0.242988
H	-2.0769304387	-3.9279125416	 1.0139767537	 0.152249
H	-3.0948987776	-2.4886862507	 1.1793006787	 0.156595
39.5669	48.5368	102.0451	114.9021	160.457	184.8141	209.6667	288.4838	350.2086	392.7603	455.4665	576.0795	579.099	681.3243	776.6079	893.5434	920.4144	980.995	997.6218	1014.5673	1109.6985	1172.6333	1177.8484	1205.8455	1223.67	1245.6149	1299.1731	1368.4225	1389.5286	1451.2065	1473.6149	1482.4722	1489.8522	1496.2043	1515.9531	1814.4057	2369.5138	2995.5152	3043.2133	3052.384	3055.9563	3084.0664	3132.5473	3165.6784	3527.0115
COC(=O)CNCC#N	COC(=O)CNCC#N	
InChI=1S/C5H8N2O2/c1-9-5(8)4-7-3-2-6/h7H,3-4H2,1H3	InChI=1S/C5H8N2O2/c1-9-5(8)4-7-3-2-6/h7H,3-4H2,1H3
