21
gdb 83308	2.36908	1.48931	1.25505	2.5594	81.56	-0.243	-0.0157	0.2273	1118.0478	0.183142	-387.103184	-387.094363	-387.093419	-387.136975	33.11	
C	-0.1668696137	 1.6828046727	 0.0943306361	-0.426133
C	 0.0559432887	 0.1881337306	-0.0172023277	 0.002758
C	 1.3513517688	-0.4820664343	-0.4123890568	-0.058648
C	 2.672475009	 0.2705344964	-0.2885389694	-0.226205
C	 2.7877832448	 0.7340098279	 1.1866202389	-0.247427
C	 1.7626225395	-0.0960767184	 1.9924547336	-0.088716
C	 1.0508231179	 0.6693000986	 3.0901492942	 0.160236
O	 1.2158543862	 1.8332638076	 3.3552424118	-0.250736
C	 0.7818358557	-0.6996747195	 0.9763408855	-0.092477
H	 0.688452394	 2.2241794326	 0.499093997	 0.136309
H	-0.3879648344	 2.104160753	-0.8927885373	 0.115076
H	-1.0225432857	 1.9000264359	 0.7428694173	 0.121633
H	-0.8116314533	-0.3165324109	-0.4389778184	 0.084808
H	 1.2996009092	-1.2714453843	-1.1554338338	 0.080949
H	 3.4882957117	-0.4165440414	-0.5381972984	 0.100782
H	 2.7499319782	 1.1122045371	-0.9856727459	 0.102689
H	 3.8003440158	 0.596202732	 1.57490843	 0.102284
H	 2.5622853335	 1.7956327069	 1.3038872326	 0.133946
H	 2.2522941258	-0.9440911861	 2.4942219208	 0.092504
H	 0.3151561372	 0.0568262708	 3.6619998342	 0.073207
H	 0.3093410712	-1.637841727	 1.2477266654	 0.08316
70.626	110.9135	134.8643	168.8156	204.6396	271.5424	302.1933	441.5922	492.0846	612.6274	674.434	679.7152	739.1797	752.6596	821.0618	846.2383	909.8075	935.5443	957.901	979.4322	1002.0041	1036.9228	1063.6426	1075.2631	1091.7839	1123.0676	1139.6362	1143.6824	1196.455	1234.0095	1245.6987	1271.6949	1293.2387	1324.1918	1333.8665	1360.5814	1371.9152	1421.4727	1427.0317	1445.6655	1488.4523	1493.9787	1505.6571	1520.9874	1824.4808	2859.1488	2995.4274	3036.1533	3037.9397	3068.1152	3072.87	3087.8493	3112.7541	3115.9444	3148.9757	3150.6199	3163.0492
CC1C2CCC(C=O)C12	C[C@H]1[C@H]2CC[C@@H](C=O)[C@@H]12	
InChI=1S/C8H12O/c1-5-7-3-2-6(4-9)8(5)7/h4-8H,2-3H2,1H3	InChI=1S/C8H12O/c1-5-7-3-2-6(4-9)8(5)7/h4-8H,2-3H2,1H3/t5-,6-,7+,8+/m0/s1
