20
gdb 111984	4.05988	1.0671	0.94282	2.221	80.3	-0.2308	0.0089	0.2397	1292.2802	0.171372	-403.126571	-403.117779	-403.116835	-403.159816	33.857	
C	-0.0568974351	 1.5436743124	 0.0156239931	-0.497454
C	 0.0909668263	 0.0456168004	-0.0293087041	 0.30654
N	-0.7873868378	-0.8187165291	 0.816537706	-0.366937
C	 0.6788027444	-0.7898194641	 1.0542983469	-0.124281
C	 1.432214647	-1.9636474946	 0.4262402585	-0.049637
C	 0.9707373053	-3.3326381528	 0.9579916078	-0.079124
O	 1.6374899884	-4.4194753124	 0.3297948236	-0.423624
C	 1.1739181143	-1.7542474371	-1.0561338733	-0.098923
C	 0.4589910988	-0.6553661809	-1.3026450081	-0.111889
H	 0.8282524436	 2.0394127724	-0.3971925886	 0.128481
H	-0.92473843	 1.8729042251	-0.567768864	 0.126203
H	-0.191045194	 1.8964222711	 1.0435620981	 0.114675
H	-1.2286478163	-0.2321429915	 1.5246864195	 0.220912
H	 1.0406266807	-0.3492790195	 1.9779530465	 0.083988
H	 2.5078120055	-1.8786464385	 0.6353847052	 0.084058
H	 1.2144827003	-3.4079824386	 2.0234057314	 0.102705
H	-0.1187501016	-3.4071661165	 0.8572625409	 0.114426
H	 1.2430269375	-4.5406334921	-0.5387275353	 0.283901
H	 1.5310855963	-2.4487142302	-1.8090007633	 0.091649
H	 0.1519907964	-0.3004040238	-2.2801256107	 0.094331
86.4827	140.1093	172.8328	207.156	257.3298	302.1638	308.006	376.6513	421.6999	502.864	572.6932	623.8045	715.2547	764.2916	801.5276	836.8896	851.502	913.6603	948.6169	956.967	971.5482	1034.0822	1049.3509	1060.9628	1070.864	1093.417	1116.1803	1131.1551	1163.1376	1192.1964	1278.6686	1290.9575	1320.4939	1340.9666	1371.8918	1389.9462	1409.6189	1416.796	1437.9781	1484.2259	1500.5354	1508.2683	1668.2996	3009.1308	3024.9847	3029.2216	3079.4282	3087.6134	3099.0524	3158.4728	3179.485	3205.0388	3458.602	3830.7363
CC12NC1C(CO)C=C2	C[C@]12N[C@H]1[C@@H](CO)C=C2	
InChI=1S/C7H11NO/c1-7-3-2-5(4-9)6(7)8-7/h2-3,5-6,8-9H,4H2,1H3	InChI=1S/C7H11NO/c1-7-3-2-5(4-9)6(7)8-7/h2-3,5-6,8-9H,4H2,1H3/t5-,6+,7-/m1/s1
