17
gdb 67802	2.3759	1.9654	1.58817	0.7707	72.13	-0.2168	-0.0007	0.216	922.2858	0.135154	-421.775935	-421.76831	-421.767366	-421.807388	30.667	
C	-0.1004586388	 1.5372724418	-0.0086640107	-0.521979
C	-0.0198489119	 0.044116874	 0.0366416505	 0.221208
C	-0.177151965	-1.0540313178	-0.959530048	-0.013856
O	 0.9980708214	-1.7408475412	-0.6173333456	-0.301062
C	 1.09820745	-0.8887304586	 0.6113455934	-0.017609
C	 0.4555637342	-1.6894981268	 1.7102910464	-0.103206
C	-0.8605157293	-1.7479511671	 1.4544529237	-0.133068
C	-1.1695603374	-0.9102095361	 0.2713546373	 0.26229
O	-2.4466568906	-0.4347787346	-0.0044994905	-0.475247
H	 0.7409123469	 1.9704625778	-0.5596772314	 0.122534
H	-1.0284604621	 1.8429765557	-0.499788615	 0.141184
H	-0.1025420763	 1.9624559022	 1.001410225	 0.126932
H	-0.539539835	-1.1110911754	-1.9804190066	 0.109228
H	 2.1170447057	-0.524998853	 0.7372499719	 0.084315
H	 1.0042872522	-2.269081618	 2.4406189058	 0.10509
H	-1.5965033189	-2.3660763603	 1.9549048287	 0.102862
H	-2.9406164551	-1.1273607626	-0.4554205649	 0.290384
189.2318	195.8599	209.134	279.7872	326.2794	376.9743	402.7174	444.5681	561.3045	630.4536	660.0732	692.9786	743.1318	774.2809	806.918	824.5866	887.914	910.6719	922.9268	975.9579	1000.1303	1051.4719	1070.3997	1119.5966	1140.005	1185.4226	1202.7593	1231.3202	1246.23	1298.4239	1322.3503	1386.6124	1410.8373	1464.6042	1488.5533	1496.0289	1622.1354	3030.3236	3090.692	3116.0415	3127.4172	3176.1634	3198.2625	3227.9194	3806.2534
CC12C3OC1C=CC23O	C[C@@]12[C@H]3O[C@@H]1C=C[C@@]23O	
InChI=1S/C7H8O2/c1-6-4-2-3-7(6,8)5(6)9-4/h2-5,8H,1H3	InChI=1S/C7H8O2/c1-6-4-2-3-7(6,8)5(6)9-4/h2-5,8H,1H3/t4-,5-,6+,7+/m1/s1
