17
gdb 88491	2.55877	1.29199	1.13959	3.7659	73.42	-0.2685	0.0022	0.2707	1148.6153	0.135097	-417.966512	-417.957769	-417.956825	-418.000299	31.997	
C	 0.8374146498	 1.3145576293	-0.7192969665	-0.414896
C	 0.1746547511	 0.0947800431	-0.1275475984	 0.016592
N	 1.0295022674	-1.0592424572	 0.208445476	-0.340317
C	 0.327513622	-0.3630570678	 1.2844091655	-0.139809
C	 1.1844166531	 0.3143352565	 2.3256518358	 0.283551
C	 2.4747187802	-0.2743147695	 2.750405847	-0.203975
O	 2.4262899906	 0.8860585786	 1.9258250015	-0.243876
C	 0.4332193922	 1.1037103827	 3.2901970677	 0.247463
N	-0.194967448	 1.7114300696	 4.0461901161	-0.326094
H	 1.8277883383	 1.4668835265	-0.2917844625	 0.15979
H	 0.9389353095	 1.1947879716	-1.8030859286	 0.120995
H	 0.2305069221	 2.2075253933	-0.5360071466	 0.124364
H	-0.7967454276	-0.1419543066	-0.5616024321	 0.093233
H	 0.5713397056	-1.9397874461	-0.0072170887	 0.238849
H	-0.5415736449	-0.8421333973	 1.7335960498	 0.102135
H	 2.8327718712	-0.1135443053	 3.7646166285	 0.137523
H	 2.7933212574	-1.1824907313	 2.2447483456	 0.144472
51.4671	137.4917	163.1305	205.5171	236.3338	248.2323	311.1085	388.1239	480.7001	496.4159	571.8242	598.2836	707.4368	793.5662	831.1727	883.0944	902.9044	956.0866	959.9166	1017.5732	1035.4991	1081.4381	1131.8638	1144.9135	1172.8732	1194.2904	1201.7746	1252.1709	1268.9598	1364.855	1399.664	1428.9247	1467.2949	1497.6035	1501.8651	1503.853	2359.0077	3042.1168	3099.7372	3102.4694	3103.6643	3118.5785	3165.666	3206.7719	3514.3571
CC1NC1C1(CO1)C#N	C[C@H]1N[C@H]1[C@]1(CO1)C#N	
InChI=1S/C6H8N2O/c1-4-5(8-4)6(2-7)3-9-6/h4-5,8H,3H2,1H3	InChI=1S/C6H8N2O/c1-4-5(8-4)6(2-7)3-9-6/h4-5,8H,3H2,1H3/t4-,5-,6-/m1/s1
