18
gdb 97415	3.95265	0.84447	0.72419	3.2955	78.42	-0.2374	-0.0391	0.1983	1571.62	0.144985	-439.080777	-439.071327	-439.070383	-439.116348	33.007	
C	 0.2224731696	 1.3090073879	-0.1650240491	-0.315369
N	-0.2083969778	-0.0230913807	 0.2048083154	-0.205369
C	 0.5567902181	-0.6945005822	 0.9388711785	 0.134156
O	 0.2010270293	-1.9465395312	 1.3257082797	-0.211841
C	 1.1352074637	-2.639758431	 2.1165733691	 0.02916
C	 0.7465125899	-4.095491895	 2.4793092558	-0.269175
C	 2.1916521666	-4.5747105548	 2.1373419158	-0.345133
C	 2.3963397219	-3.2248229442	 1.4293098379	 0.373872
O	 3.1245260119	-2.8159578197	 0.5749358931	-0.283645
H	 1.2012971586	 1.596649236	 0.2518901808	 0.098811
H	 0.2785984858	 1.3852634801	-1.256695482	 0.13127
H	-0.5227964466	 2.0407578576	 0.1669956198	 0.12755
H	 1.5311509629	-0.3591905443	 1.3216122164	 0.087339
H	 1.418791165	-2.0587400164	 3.006749886	 0.106427
H	 0.3941244641	-4.2615833937	 3.4967284246	 0.119852
H	 0.0102379519	-4.4755294386	 1.7689574072	 0.140961
H	 2.838274892	-4.6765675985	 3.0145682735	 0.138657
H	 2.3059677433	-5.4631625313	 1.5134476676	 0.142476
43.7875	73.7514	86.8516	152.9039	198.7698	221.6256	309.9884	314.8353	388.1511	439.2382	555.1765	578.6862	687.6182	764.5887	773.7759	919.0777	938.9019	968.8	1011.9924	1047.9914	1075.3302	1089.4888	1130.0519	1141.593	1170.2118	1190.5082	1227.5636	1232.6767	1252.7771	1264.4869	1360.1345	1415.4369	1443.8268	1450.6161	1481.43	1487.9896	1505.2016	1781.2777	1897.9672	2971.2106	2995.8317	3020.1535	3060.7343	3065.4565	3080.0408	3092.401	3125.5778	3154.7101
CN=COC1CCC1=O	CN=CO[C@H]1CCC1=O	
InChI=1S/C6H9NO2/c1-7-4-9-6-3-2-5(6)8/h4,6H,2-3H2,1H3	InChI=1S/C6H9NO2/c1-7-4-9-6-3-2-5(6)8/h4,6H,2-3H2,1H3/t6-/m0/s1
