16
gdb 44788	2.47368	2.207	1.58152	4.6326	68.81	-0.2362	0.0033	0.2395	868.315	0.125712	-437.786936	-437.780361	-437.779417	-437.817527	27.237	
O	 0.006044622	 0.0783850014	 0.0535582419	-0.364612
C	-0.0090824412	 1.2788689123	 0.088322812	 0.360513
N	-1.0904656399	 2.1354774144	 0.3024665937	-0.299879
C	-0.5065715016	 3.4418577873	-0.0000594987	-0.074675
C	 0.7981784102	 3.3817844113	 0.9380677626	-0.305054
C	 1.1375883382	 2.3059066309	-0.1659590327	 0.273991
O	 2.1252077023	 1.7930682219	-1.0812773583	-0.33568
C	 1.1846851007	 2.185785511	-2.1692328903	-0.16963
C	 0.5461082249	 3.2275857695	-1.1840235772	-0.051218
H	-2.0014640064	 1.870365056	-0.044961596	 0.253836
H	-1.205303899	 4.2744790844	 0.0441503771	 0.100224
H	 1.414137161	 4.2787377597	 0.8832879681	 0.126245
H	 0.6278927938	 3.0625573943	 1.968351584	 0.124182
H	 1.7214767213	 2.5982502991	-3.0253906524	 0.123581
H	 0.5694157504	 1.3303189739	-2.4597803263	 0.138004
H	 1.1482060032	 4.1357679427	-1.2571461775	 0.100171
171.7396	248.5802	317.3117	396.728	424.8258	477.5928	564.0439	611.9017	632.0798	663.5789	734.9423	748.104	797.6891	849.2254	874.8565	942.7604	989.1824	996.5577	1012.434	1053.3279	1064.9843	1092.2567	1121.2672	1140.0945	1153.2416	1183.6405	1192.9744	1224.4141	1289.5349	1312.9677	1369.926	1395.5216	1492.8326	1499.7893	1875.9301	3064.3606	3073.9087	3080.702	3136.5103	3145.9533	3159.9476	3602.8933
O=C1NC2CC11OCC21	O=C1N[C@H]2C[C@]31OC[C@@H]23	
InChI=1S/C6H7NO2/c8-5-6-1-4(7-5)3(6)2-9-6/h3-4H,1-2H2,(H,7,8)	InChI=1S/C6H7NO2/c8-5-6-1-4(7-5)3(6)2-9-6/h3-4H,1-2H2,(H,7,8)/t3-,4-,6-/m0/s1
