20
gdb 58919	2.80812	1.55819	1.20647	1.4529	77.93	-0.2341	0.0572	0.2913	1092.2771	0.169908	-403.037848	-403.02946	-403.028516	-403.070956	32.664	
C	-0.0382023737	 1.5557425953	-0.031314785	-0.39925
C	-0.0483979051	 0.0195589322	 0.0120412284	-0.126834
C	 0.7524914474	-0.5151519544	 1.2086236923	-0.388783
C	-1.4580114513	-0.5095535869	 0.0140113977	 0.355381
N	-2.4568508507	-0.2335145927	-1.0812326977	-0.393181
C	-3.2288870981	-1.0956149042	-0.1324298287	-0.078536
C	-1.9884085934	-1.9742154121	 0.1802417462	 0.041289
O	-2.1362697812	-1.8932732472	 1.6278988098	-0.328485
C	-2.5370815463	-0.5706357974	 1.1654282435	 0.025409
H	 0.9886561335	 1.9327870117	-0.0649576171	 0.117076
H	-0.5616144001	 1.9365806082	-0.913767491	 0.120523
H	-0.5179053124	 1.9768350284	 0.8599179958	 0.113537
H	 0.4178393388	-0.3473582687	-0.9130894397	 0.089676
H	 0.3270352575	-0.1679553846	 2.1557091604	 0.122876
H	 0.7610703754	-1.6077899688	 1.2344855826	 0.126855
H	 1.7880708682	-0.1646237248	 1.1563277932	 0.108595
H	-2.788036935	 0.7327276294	-1.0222848265	 0.209578
H	-4.2631733569	-1.4009397931	-0.2901529188	 0.091055
H	-1.6482667105	-2.9059024632	-0.2695738882	 0.101111
H	-2.8567823662	 0.170235303	 1.9005002827	 0.092106
49.7437	169.0638	184.4615	225.9077	261.9719	314.8384	363.4203	443.1146	491.3529	546.3639	649.3256	762.8274	786.7027	825.408	834.4549	873.5278	888.1839	903.5224	929.6914	938.1498	967.2676	990.9362	1020.243	1084.5501	1102.9552	1118.4947	1139.0397	1163.6642	1167.804	1183.2799	1195.1211	1263.7672	1265.1858	1303.6027	1341.9382	1346.9258	1390.5753	1400.3097	1424.8027	1483.4684	1492.3025	1504.4723	1510.4581	3009.9853	3028.9322	3039.8811	3096.8857	3102.2863	3105.694	3107.2962	3119.0274	3121.8575	3138.5488	3407.3915
CC(C)C12NC3C1OC23	CC(C)[C@@]12N[C@H]3[C@@H]1O[C@@H]23	
InChI=1S/C7H11NO/c1-3(2)7-5-4(8-7)6(7)9-5/h3-6,8H,1-2H3	InChI=1S/C7H11NO/c1-3(2)7-5-4(8-7)6(7)9-5/h3-6,8H,1-2H3/t4-,5-,6+,7+
