17
gdb 48784	2.97206	1.5027	1.25533	2.6653	72.46	-0.2569	-0.0371	0.2198	1028.2724	0.136314	-421.814342	-421.807077	-421.806133	-421.846027	28.639	
O	-0.8070229492	 0.9627287754	 0.4208706048	-0.259665
C	 0.2281085689	 0.9382103785	-0.1965150861	 0.088528
C	 1.3720687267	 1.8526161739	 0.056229173	 0.309772
O	 2.2693151083	 2.0225991844	-1.061541214	-0.286124
C	 2.7726940094	 1.3392738781	 0.0789918092	-0.017354
C	 3.5798374762	 2.1800897061	 1.0598049213	-0.263187
C	 2.6350378851	 3.2727084833	 1.5706298922	-0.04679
C	 2.0450900649	 4.2634250345	 0.6019238791	-0.289193
C	 1.2536252842	 3.0353750472	 0.9812438779	-0.121249
H	 0.4181357231	 0.2116234287	-1.0165002096	 0.0875
H	 3.0306435891	 0.2952807363	-0.0912875362	 0.105969
H	 3.8956464046	 1.5367556545	 1.8886611283	 0.11519
H	 4.4877561062	 2.574566017	 0.5901956741	 0.123726
H	 2.7448181956	 3.5834432337	 2.603508725	 0.093415
H	 1.7085917314	 5.209107426	 1.0125747456	 0.113368
H	 2.440997194	 4.3148249791	-0.4048283887	 0.135219
H	 0.3403088014	 3.1125650131	 1.5558147342	 0.110875
107.9755	187.1445	229.3567	268.062	348.7184	433.6096	464.5805	566.2178	644.2549	698.655	722.2248	798.2008	821.4949	844.0821	854.8134	906.7702	961.6944	972.8446	1010.2041	1037.1719	1054.0443	1087.4608	1102.8073	1107.4	1116.9499	1193.0389	1218.0963	1229.8855	1276.968	1310.0381	1352.9625	1389.4354	1395.2271	1430.9392	1473.5468	1486.4269	1818.4649	2900.9119	3043.302	3082.3405	3129.5696	3142.12	3170.634	3209.3607	3234.819
O=CC12OC1CC1CC21	O=C[C@]12O[C@H]1C[C@H]1C[C@@H]21	
InChI=1S/C7H8O2/c8-3-7-5-1-4(5)2-6(7)9-7/h3-6H,1-2H2	InChI=1S/C7H8O2/c8-3-7-5-1-4(5)2-6(7)9-7/h3-6H,1-2H2/t4-,5-,6+,7-/m1/s1
