20
gdb 22358	2.74798	1.12352	0.9353	0.9801	77.75	-0.2424	0.0073	0.2497	1304.1369	0.170092	-440.261535	-440.252199	-440.251255	-440.295517	35.61	
C	 0.2199031547	 1.6022333251	 0.0908647902	-0.415786
C	 0.0509669343	 0.0824580955	-0.0173524091	-0.022627
C	 0.8104427137	-0.5109550039	-1.2238181713	-0.304264
C	 2.2132185628	-0.7251823986	-0.6919453069	 0.4086
C	 2.1933542188	-0.7840095089	 0.8173697265	-0.339408
C	 0.6940822563	-0.678487893	 1.1778239538	 0.134139
O	 0.425393544	-0.1471627258	 2.4587727965	-0.439307
N	 3.2189327076	-0.7952975763	-1.4671364077	-0.228853
O	 4.4075310635	-0.9895182691	-0.7363346937	-0.396852
H	 1.2753379866	 1.8997295779	 0.1040178283	 0.119393
H	-0.2456426356	 2.1031260744	-0.7631912191	 0.122203
H	-0.2570192672	 1.9848505535	 0.9985759573	 0.119854
H	-1.0176825533	-0.1461635371	-0.0714271197	 0.075674
H	 0.3741020503	-1.4797005842	-1.5015750658	 0.117348
H	 0.7947076602	 0.1181034599	-2.1169212225	 0.119014
H	 2.6745569231	-1.6850934753	 1.2064682285	 0.133363
H	 2.7602348985	 0.0630588357	 1.2274939226	 0.118631
H	 0.2653088129	-1.6868490166	 1.2046399477	 0.093658
H	 0.8743820109	 0.7016897236	 2.530842477	 0.279898
H	 5.0709424578	-1.0179445269	-1.4337431326	 0.30532
62.0981	127.2975	193.0855	225.7901	260.7918	280.4866	304.1982	350.5692	383.9291	399.2429	480.0586	505.6669	536.2948	605.1482	691.2375	784.4821	829.3355	855.6924	911.8837	949.8998	978.371	995.3436	1044.6373	1074.2196	1105.3271	1113.3256	1155.0577	1209.0039	1227.4322	1245.0643	1266.0915	1315.0336	1324.1486	1334.5998	1380.2731	1401.9766	1409.7745	1436.5366	1460.0261	1475.661	1499.7925	1508.6944	1756.4333	3021.0237	3022.0091	3030.3056	3042.6954	3062.1364	3094.0804	3097.6778	3100.8288	3107.4461	3809.0843	3820.2494
CC1CC(CC1O)=NO	C[C@H]1CC(=NO)C[C@H]1O	
InChI=1S/C6H11NO2/c1-4-2-5(7-9)3-6(4)8/h4,6,8-9H,2-3H2,1H3	InChI=1S/C6H11NO2/c1-4-2-5(7-9)3-6(4)8/h4,6,8-9H,2-3H2,1H3/t4-,6+/m0/s1
