25
gdb 118960	2.32763	1.02102	0.9389	1.6174	88.94	-0.2382	0.0817	0.3199	1491.4433	0.227044	-389.491683	-389.480844	-389.479899	-389.527662	40.024	
C	 0.0132418166	 1.4840631667	 0.416902816	-0.383353
C	 0.0380466645	-0.0180829262	 0.1210423136	-0.175008
C	-1.3673371181	-0.6051137345	-0.0682308801	-0.208718
C	-1.3990898845	-2.1340172114	-0.1725992567	 0.41688
C	-0.61240548	-2.672092964	-1.3604773081	-0.443122
O	-0.914798675	-2.7293907064	 1.0727235784	-0.32598
C	-2.2321869206	-3.1869000689	 1.4274812888	-0.083654
C	-2.798389979	-2.8014934031	 0.0473032822	-0.072831
C	-4.0889388755	-1.9985226103	-0.0238191858	-0.420712
H	 1.025201482	 1.8808818527	 0.5457726553	 0.110528
H	-0.4617839763	 2.0431099861	-0.3974812296	 0.109905
H	-0.5471976634	 1.6988489343	 1.3337478614	 0.113024
H	 0.6450456933	-0.1970670368	-0.7740746907	 0.094424
H	 0.5270286406	-0.5530769565	 0.9428712437	 0.118063
H	-1.9831876737	-0.3038893197	 0.7874854341	 0.091448
H	-1.8410294105	-0.1718196102	-0.9598316661	 0.08833
H	 0.4429524867	-2.3936488789	-1.2954312086	 0.126983
H	-0.6695082105	-3.7637148608	-1.3896387091	 0.114697
H	-1.0131628042	-2.2775630397	-2.3013274903	 0.11101
H	-2.241992783	-4.2502750127	 1.6939828311	 0.098039
H	-2.6556188318	-2.612228109	 2.2645919035	 0.089988
H	-2.8872120596	-3.6816415841	-0.5970729445	 0.07527
H	-4.0714377745	-1.1260752309	 0.6357130938	 0.120204
H	-4.2869839671	-1.646940534	-1.0421107446	 0.118209
H	-4.9388615866	-2.6206523115	 0.2777909823	 0.116376
68.6284	84.2328	100.9933	137.072	195.5071	217.6979	246.4426	268.3688	288.4295	319.6084	354.0486	396.0219	479.6824	509.1856	666.9594	746.6851	749.5827	854.9634	883.4954	895.9968	910.6857	924.9888	954.4939	1015.8905	1034.8646	1041.8176	1052.042	1101.3768	1130.4135	1148.5166	1175.1052	1177.1781	1218.8486	1233.9673	1269.331	1301.7033	1321.0239	1336.8893	1351.4458	1392.3183	1396.3056	1405.3589	1411.9384	1418.0396	1470.4555	1484.0084	1493.4124	1497.2681	1499.1222	1500.3534	1502.0743	1510.216	1530.4946	2989.8864	3013.1915	3026.6999	3032.5613	3033.7108	3035.5273	3041.7102	3053.3184	3059.0851	3073.0078	3093.2328	3097.748	3099.8701	3105.4906	3111.3251	3119.0046
CCCC1(C)OCC1C	CCC[C@@]1(C)OC[C@H]1C	
InChI=1S/C8H16O/c1-4-5-8(3)7(2)6-9-8/h7H,4-6H2,1-3H3	InChI=1S/C8H16O/c1-4-5-8(3)7(2)6-9-8/h7H,4-6H2,1-3H3/t7-,8-/m1/s1
