20
gdb 100847	1.97565	1.21162	0.79818	3.4265	80.65	-0.2753	-0.0526	0.2227	1444.7871	0.167951	-403.178497	-403.167812	-403.166868	-403.215476	37.043	
C	 0.1286705308	 1.5197970152	 0.033305347	-0.398404
C	 0.0155218615	-0.0026934361	-0.0961328137	-0.186455
C	-1.4310086213	-0.5302818282	-0.0276096869	 0.016164
C	-2.2689106673	-0.0957529231	-1.2371769902	-0.416753
C	-1.4194279203	-2.0920251263	 0.1082750373	-0.22796
C	-0.7871460836	-2.5067865353	 1.445117772	 0.162684
O	 0.3202768661	-2.9556861434	 1.5476625659	-0.232797
C	-2.7660791031	-2.6596350897	 0.050193556	 0.265804
N	-3.8293075565	-3.113598085	 0.0459482468	-0.319834
H	 1.1789616332	 1.8254618948	 0.0351759318	 0.12404
H	-0.3631663297	 2.0438405059	-0.7911187821	 0.124252
H	-0.3201476826	 1.8718940329	 0.9687775302	 0.119556
H	 0.4629049448	-0.3284463869	-1.044803671	 0.104808
H	 0.615587503	-0.4679344531	 0.6926920909	 0.12151
H	-1.9056109492	-0.1342339738	 0.8813712082	 0.093491
H	-3.2956253828	-0.4635407251	-1.168909874	 0.148065
H	-2.3097776323	 0.9939050503	-1.3057934965	 0.128194
H	-1.8335347156	-0.4746836628	-2.1690079103	 0.122668
H	-0.8104315124	-2.5222120139	-0.6944611307	 0.142861
H	-1.4387843127	-2.3289403663	 2.3276895195	 0.108108
31.5363	68.7249	81.1116	136.5176	181.2039	211.8466	216.9364	267.8628	284.3729	351.2785	386.7576	427.4049	484.9371	539.7406	573.0565	775.4362	837.8548	889.1708	943.78	979.5933	988.8834	1010.9881	1043.4301	1065.8714	1131.4964	1155.1056	1174.4004	1229.6421	1276.8157	1309.8987	1342.7435	1367.7711	1386.8796	1415.4392	1420.3424	1422.4199	1484.3499	1496.589	1499.0206	1509.0732	1511.2744	1840.2964	2352.7817	2904.7233	3006.8517	3025.7421	3038.2151	3040.9609	3065.2329	3073.9288	3105.1146	3111.0762	3115.9554	3129.5087
CCC(C)C(C=O)C#N	CC[C@@H](C)[C@@H](C=O)C#N	
InChI=1S/C7H11NO/c1-3-6(2)7(4-8)5-9/h5-7H,3H2,1-2H3	InChI=1S/C7H11NO/c1-3-6(2)7(4-8)5-9/h5-7H,3H2,1-2H3/t6-,7-/m1/s1
