23
gdb 110106	1.82634	1.3926	1.01291	1.8912	84.62	-0.2183	0.0716	0.2899	1355.0022	0.201559	-425.388435	-425.377047	-425.376103	-425.425356	40.032	
C	 0.5577598918	 1.0126639817	 0.378958674	-0.236612
O	-0.1073163535	-0.0994540818	-0.1792828288	-0.231878
C	 0.5748816233	-0.686530104	-1.2381128338	 0.052241
C	 1.4342846381	-1.9336082476	-1.0112906998	 0.052302
O	 1.5424077914	-2.4929382027	 0.2562733625	-0.231897
C	 2.7135905963	-2.1150027532	 0.9463945728	-0.236585
C	 0.091624778	-2.0434867027	-1.697752136	 0.188446
C	-1.0461897329	-2.6875179095	-0.9275008653	-0.436743
C	 0.0872171881	-2.3179794655	-3.1899978726	-0.452394
H	 1.5344805811	 0.744562018	 0.8056422878	 0.109287
H	 0.7161588267	 1.8047147985	-0.3693398343	 0.10495
H	-0.082033112	 1.4023524783	 1.1743093057	 0.127702
H	 0.9068668781	 0.0212432505	-2.0020261806	 0.071795
H	 2.3309937884	-2.0455397236	-1.6261837593	 0.071782
H	 3.6194680771	-2.4149992904	 0.3970348218	 0.104991
H	 2.7634465745	-1.0313400109	 1.1227922125	 0.109155
H	 2.6985041457	-2.6309913039	 1.9093542146	 0.127703
H	-0.9897278494	-2.4553322943	 0.1349445666	 0.143105
H	-2.0105297096	-2.3332422326	-1.3078901934	 0.109824
H	-1.0160413866	-3.7762578924	-1.0453908459	 0.109817
H	 0.1574503497	-3.3938709939	-3.3885638717	 0.117195
H	-0.8371751222	-1.9507820794	-3.6510431372	 0.117201
H	 0.9270752878	-1.8312231085	-3.6963626196	 0.108612
32.9783	128.6869	132.9638	138.9766	157.979	173.3651	179.8924	209.4899	262.8477	268.9203	303.9175	322.3937	394.7557	497.3629	532.2679	673.7573	700.5141	841.9591	862.9342	975.21	996.37	1008.6654	1035.7344	1061.909	1074.3602	1096.1953	1154.4876	1179.4243	1179.5097	1181.4518	1187.5542	1234.8177	1239.1648	1281.6779	1324.2427	1364.6687	1405.9202	1419.462	1447.0229	1477.5398	1481.5407	1485.0562	1485.4792	1487.5499	1491.5509	1497.5676	1503.886	1509.8773	1516.8936	2979.5722	2982.43	3020.8308	3030.1096	3034.681	3035.6746	3057.3222	3067.8074	3084.5276	3091.0276	3095.1718	3116.2656	3117.035	3161.0408
COC1C(OC)C1(C)C	CO[C@H]1[C@@H](OC)C1(C)C	
InChI=1S/C7H14O2/c1-7(2)5(8-3)6(7)9-4/h5-6H,1-4H3	InChI=1S/C7H14O2/c1-7(2)5(8-3)6(7)9-4/h5-6H,1-4H3/t5-,6+
