15
gdb 97098	2.53962	1.23944	1.10951	3.0668	69.25	-0.277	-0.0224	0.2546	1163.2698	0.110705	-453.934185	-453.92496	-453.924016	-453.968742	31.733	
C	-0.0848909718	 1.3961148674	-0.0286822037	-0.345269
N	-0.1973044919	-0.0416613767	-0.2371730154	-0.324047
C	 0.5773655098	-0.6217312583	-1.0196975003	 0.428255
O	 1.6191144702	-0.1818133472	-1.8122389826	-0.261284
C	 1.9429105879	-1.5415274379	-2.2310195502	-0.099892
C	 0.7719675134	-2.0980967615	-1.3817100721	 0.104061
O	 1.2069177289	-2.9220916868	-0.3347292348	-0.438763
C	-0.3328590853	-2.6996946244	-2.1420122302	 0.242619
N	-1.2029538481	-3.1786375489	-2.7320664773	-0.325398
H	 0.7638257557	 1.8558257769	-0.54677935	 0.134537
H	-1.0092407869	 1.8745979689	-0.368515321	 0.143596
H	 0.0029052618	 1.5904758788	 1.0447740532	 0.137761
H	 1.8597097506	-1.656946811	-3.3120200641	 0.147672
H	 2.918833568	-1.857048002	-1.8590191143	 0.14762
H	 0.5436014977	-2.8814607774	 0.3661638928	 0.308532
86.7537	88.8814	110.5684	151.7855	192.2124	223.3073	260.1221	351.056	383.0567	429.5361	540.6858	617.7757	681.4657	715.2072	767.0613	924.6931	952.8668	995.5427	1050.6478	1108.871	1129.7253	1147.1228	1157.5095	1200.9667	1214.0061	1340.4286	1371.6285	1439.0937	1491.4677	1496.2345	1501.984	1858.524	2358.2341	3025.9416	3085.2035	3097.0543	3100.8416	3158.6133	3787.2566
CN=C1OCC1(O)C#N	CN=C1OC[C@]1(O)C#N	
InChI=1S/C5H6N2O2/c1-7-4-5(8,2-6)3-9-4/h8H,3H2,1H3	InChI=1S/C5H6N2O2/c1-7-4-5(8,2-6)3-9-4/h8H,3H2,1H3/t5-/m1/s1
