21
gdb 117810	2.72197	0.89291	0.82158	3.4261	75.27	-0.2543	-0.0355	0.2188	1487.976	0.179356	-461.361985	-461.351111	-461.350166	-461.398258	38.767	
C	 0.1048608343	 1.5494467721	-0.0818537319	-0.433845
C	 0.0271288667	 0.0094783054	-0.0029926623	 0.111369
C	 0.6653425325	-0.4859970276	 1.3159408002	-0.084457
O	 2.0124956153	-0.0949094257	 1.469273318	-0.431043
C	-1.43333847	-0.5082697934	-0.0597843422	-0.208634
C	-2.3145451594	 0.0019270099	-1.1985501733	-0.097785
O	-3.5890339033	-0.5962979058	-1.0167903889	-0.41517
C	 0.8066159099	-0.5496158533	-1.1836675994	 0.157026
O	 1.8161092861	-1.2103813175	-1.1032581113	-0.274565
H	 1.1085497464	 1.877481984	 0.1977453247	 0.14712
H	-0.1201238837	 1.9281155206	-1.0842018047	 0.114782
H	-0.61157027	 1.9981622205	 0.6143107304	 0.124536
H	 0.1141495436	-0.0528117131	 2.1580769163	 0.106056
H	 0.5548841972	-1.5792107398	 1.3767914241	 0.09492
H	 2.4992735106	-0.575201083	 0.7871006742	 0.294869
H	-1.4361656648	-1.6045219935	-0.0951825952	 0.117321
H	-1.924515741	-0.2319314015	 0.8815639823	 0.117481
H	-2.3838855072	 1.0992157826	-1.1653218916	 0.094395
H	-1.8903866737	-0.2696761986	-2.1779043129	 0.088607
H	-4.1755577296	-0.2740201618	-1.7073609588	 0.288694
H	 0.3915244003	-0.2982005405	-2.1852247276	 0.088324
60.437	70.3691	117.4709	148.4896	176.2854	241.6509	249.5181	263.573	291.6888	316.0354	347.5101	353.195	388.8319	494.8954	572.8674	668.8165	788.7963	796.6063	891.4623	931.8453	971.8078	985.5476	1018.146	1052.8542	1073.8056	1097.4389	1164.9733	1181.481	1201.5939	1231.6992	1262.2734	1296.7159	1334.6663	1354.3898	1384.9789	1403.2175	1430.5795	1442.1548	1466.8613	1485.7046	1489.4098	1499.8366	1509.5545	1529.7423	1804.4925	2881.6873	2976.2365	2990.8723	3006.661	3027.7908	3034.8585	3064.6243	3072.3802	3098.6583	3129.7455	3770.4637	3829.8658
CC(CO)(CCO)C=O	C[C@@](CO)(CCO)C=O	
InChI=1S/C6H12O3/c1-6(4-8,5-9)2-3-7/h4,7,9H,2-3,5H2,1H3	InChI=1S/C6H12O3/c1-6(4-8,5-9)2-3-7/h4,7,9H,2-3,5H2,1H3/t6-/m1/s1
