19
gdb 109574	2.61086	1.33744	1.02197	2.3347	72.68	-0.2316	-0.0274	0.2042	1220.1617	0.156364	-460.154339	-460.144369	-460.143425	-460.189437	35.323	
C	 0.3559651543	 1.769921801	-0.5317005736	-0.251097
O	 0.8361956953	 0.5093219596	-0.0818066789	-0.263996
C	 0.7519169848	-0.5094099979	-1.0322736873	 0.003545
C	 1.0741096756	-1.9197696691	-0.4485853742	 0.065114
O	 0.7646117146	-1.970086047	 0.9228240152	-0.43488
C	-0.0843642353	-2.5314235457	-1.3083289844	-0.111746
C	-0.9825017104	-3.6101862819	-0.7245408691	-0.407449
C	-0.6304576303	-1.0975560078	-1.4202477903	 0.347968
O	-1.723164192	-0.6266361735	-1.5570336408	-0.305488
H	 0.9526696487	 2.1355733167	-1.3800823601	 0.112162
H	-0.695267461	 1.7095627229	-0.8310845855	 0.151011
H	 0.46314533	 2.4644329045	 0.303908674	 0.133315
H	 1.3482287112	-0.2896395794	-1.9329914461	 0.09232
H	 2.0796731172	-2.3071766402	-0.6451444353	 0.073862
H	 0.8389740434	-1.0662521213	 1.2575244276	 0.300829
H	 0.3133726292	-2.8298324883	-2.287619363	 0.101179
H	-1.2552843754	-3.35673928	 0.30159199	 0.144021
H	-1.8973418672	-3.6995734393	-1.3173623704	 0.130224
H	-0.4809100127	-4.5824085234	-0.7173238079	 0.119105
67.7594	91.0534	149.4175	161.3868	180.7676	200.7626	234.5816	237.8565	345.4982	352.1862	469.8896	524.5424	552.1886	609.2398	751.3643	808.9985	864.3539	919.5321	929.8018	1004.8005	1042.4465	1067.3298	1112.6988	1152.2338	1158.6027	1181.9199	1194.2428	1234.493	1246.1254	1258.2247	1319.8754	1367.78	1370.2326	1398.6788	1404.3987	1482.08	1485.8469	1487.5318	1501.9723	1512.9547	1881.3754	2973.6651	2999.849	3025.2722	3045.4452	3048.8433	3083.6486	3114.0871	3133.783	3139.6659	3754.3901
COC1C(O)C(C)C1=O	CO[C@H]1[C@@H](O)[C@@H](C)C1=O	
InChI=1S/C6H10O3/c1-3-4(7)6(9-2)5(3)8/h3-4,6-7H,1-2H3	InChI=1S/C6H10O3/c1-3-4(7)6(9-2)5(3)8/h3-4,6-7H,1-2H3/t3-,4+,6+/m1/s1
