17
gdb 55426	2.61069	1.45576	0.99546	2.4149	68.76	-0.2339	-0.0373	0.1966	1151.8172	0.137505	-455.198477	-455.190191	-455.189246	-455.231957	31.092	
N	-0.1069255221	 1.3606633058	 0.0180888274	-0.522709
C	 0.0868727462	 0.0182411052	-0.0962953331	 0.389958
O	 1.1547402029	-0.5022341349	-0.3518324131	-0.354983
C	-1.1917072615	-0.8161915171	 0.0632176943	-0.235443
C	-0.9704105366	-2.3342918883	 0.1970850817	-0.195249
N	-2.1031500663	-2.8587287721	 0.988323531	-0.295761
C	-2.4395665034	-1.8044221432	 1.9449491284	-0.272466
C	-2.035171369	-0.4740533108	 1.3009370272	 0.381757
O	-2.3189040652	 0.6335983392	 1.6912540261	-0.326249
H	 0.7204575396	 1.9367184485	 0.0376632533	 0.2587
H	-0.9343482884	 1.6851952273	 0.5025484262	 0.27505
H	-1.8299615397	-0.592299096	-0.8035130514	 0.133799
H	-0.9047052964	-2.8487730389	-0.7619271393	 0.121115
H	-0.0307290713	-2.5158839057	 0.7282353603	 0.137489
H	-2.8956475742	-3.0032147099	 0.3706765526	 0.224171
H	-3.4929023616	-1.8094010516	 2.2346478295	 0.137371
H	-1.8496260729	-1.9168615876	 2.8673213189	 0.14345
59.4298	84.082	192.9217	211.2383	278.2387	396.8635	415.4839	497.6816	530.8988	549.8056	599.0794	629.4599	668.3864	716.6098	762.7186	818.1336	902.6905	930.3395	983.7573	992.935	1068.8954	1102.3268	1130.7892	1148.7504	1181.2065	1206.5091	1253.7496	1292.5892	1310.3071	1352.7622	1359.988	1455.2997	1465.6851	1503.058	1626.8099	1801.4289	1822.3441	3002.4576	3018.7816	3067.5102	3108.3287	3130.9991	3514.5324	3531.3198	3680.4235
NC(=O)C1CNCC1=O	NC(=O)[C@H]1CNCC1=O	
InChI=1S/C5H8N2O2/c6-5(9)3-1-7-2-4(3)8/h3,7H,1-2H2,(H2,6,9)	InChI=1S/C5H8N2O2/c6-5(9)3-1-7-2-4(3)8/h3,7H,1-2H2,(H2,6,9)/t3-/m0/s1
