14
gdb 124039	3.78499	1.64664	1.16892	3.5723	71.75	-0.2118	-0.0488	0.163	967.5728	0.103348	-436.673937	-436.667564	-436.66662	-436.704776	24.862	
C	 0.0645148592	 1.4605354464	 0.2161440759	-0.145777
O	 0.9297893448	 2.2009549896	-0.6734115293	-0.280248
C	 2.0278289795	 1.4962995692	-1.0296105239	 0.201813
C	 2.0861372952	 0.1327499835	-1.0429560378	 0.312646
O	 3.2826600402	-0.2666657218	-1.506260841	-0.223215
N	 4.0361670961	 0.8634289388	-1.8231806901	-0.136819
C	 3.2783661035	 1.9055098696	-1.543255691	-0.086666
C	 0.9504665562	-0.6775822739	-0.6937347448	-0.172554
C	-0.068489443	-0.0082722117	-0.1308703284	-0.10421
H	 0.4476229575	 1.5708459506	 1.2459744578	 0.118387
H	-0.9007173985	 1.9688826961	 0.1646257363	 0.132426
H	 3.6591263804	 2.9008428068	-1.7174650775	 0.141318
H	 0.9142348707	-1.7341343803	-0.9290072489	 0.125679
H	-0.9978652919	-0.5005132927	 0.1331363727	 0.117218
137.7375	172.5921	346.9602	401.1805	437.6937	513.477	602.5954	633.3404	672.6637	718.308	759.1366	836.8737	893.6496	906.1085	922.0665	960.4687	971.9446	1022.8932	1035.0896	1170.7766	1188.9012	1227.71	1274.2693	1298.1682	1374.0336	1402.9942	1445.565	1491.6818	1527.5924	1633.088	1675.8831	2945.1978	3101.613	3191.5415	3215.7196	3254.8039
C1OC2=C(ON=C2)C=C1	C1Oc2c(onc2)C=C1	
InChI=1S/C6H5NO2/c1-2-5-6(8-3-1)4-7-9-5/h1-2,4H,3H2	InChI=1S/C6H5NO2/c1-2-5-6(8-3-1)4-7-9-5/h1-2,4H,3H2
