16
gdb 34833	3.53656	1.16879	0.97944	3.9252	80.77	-0.271	0.0155	0.2865	1182.3257	0.124624	-363.540378	-363.532725	-363.53178	-363.572553	29.663	
C	-0.0480960831	-1.2774312787	-0.070427543	-0.409823
C	-0.0128964909	-0.0766231231	-0.0145841951	 0.284846
C	 0.0009858653	 1.3695536476	 0.0257805322	-0.184075
C	 0.0653562412	 2.1073502912	 1.4118656606	-0.047943
C	 1.5481123914	 1.6504043346	 1.5238758597	-0.252212
C	 1.3745074173	 2.1326364627	 0.0551263246	-0.047947
C	 0.6049547156	 3.361932549	 0.6456980601	-0.155488
C	-0.2937126554	 4.1236401658	-0.2072521612	 0.269199
N	-0.9997745733	 4.7485142264	-0.8769023093	-0.335969
H	-0.0795632842	-2.3379031952	-0.1198122956	 0.197882
H	-0.7310586308	 1.7838581732	-0.6728633578	 0.127191
H	-0.7022316938	 2.1071205268	 2.1848468453	 0.101186
H	 2.198501237	 2.2522900781	 2.1626695322	 0.102487
H	 1.7129741666	 0.5827861095	 1.6630550402	 0.128679
H	 2.1193329161	 2.1616179639	-0.7392830615	 0.101186
H	 1.215457271	 4.0387261182	 1.2473990686	 0.1208
113.8516	144.6896	192.8421	197.7375	396.7125	451.5671	493.7735	516.5054	539.876	609.3406	634.4759	647.716	779.8235	831.8604	845.0172	884.2925	905.4709	925.2477	1011.187	1022.529	1059.469	1069.7906	1092.7484	1100.8083	1131.6676	1189.8238	1193.0041	1223.4423	1232.1968	1244.13	1371.85	1389.0667	1518.5463	2234.5424	2351.8741	3074.0235	3075.7961	3092.8016	3126.4561	3129.4628	3155.2916	3502.144
C#CC1C2CC1C2C#N	C#C[C@H]1[C@H]2C[C@@H]1[C@H]2C#N	
InChI=1S/C8H7N/c1-2-5-6-3-7(5)8(6)4-9/h1,5-8H,3H2	InChI=1S/C8H7N/c1-2-5-6-3-7(5)8(6)4-9/h1,5-8H,3H2/t5-,6+,7-,8-
