21
gdb 72164	2.29612	2.15571	1.65271	1.5245	80.57	-0.2338	0.089	0.3228	944.2709	0.185845	-387.091146	-387.084061	-387.083117	-387.122059	30.038	
C	-0.0080223879	 1.5189569378	 0.0283281801	-0.512365
C	-0.0195770084	 0.0099050162	-0.0301324994	 0.348414
C	 0.2190162456	-0.8057465003	-1.3257734259	-0.286601
C	-0.4229607113	-1.9601937271	-0.512089608	-0.046784
C	 0.6798492496	-2.2046083197	 0.5400765246	-0.238758
C	 0.7147974808	-0.7598115524	 1.1088639116	 0.071777
O	-0.1755935335	-0.6796180691	 2.2267798979	-0.275141
C	-1.4823297402	-0.9671575818	 1.700663635	-0.12041
C	-1.3026618801	-0.8590888771	 0.1888491006	-0.066376
H	 0.9885278036	 1.9138556616	-0.2022452654	 0.114976
H	-0.7102905484	 1.9549073685	-0.6903329402	 0.110427
H	-0.2813202859	 1.8709949514	 1.0283557706	 0.130086
H	-0.4155767556	-0.4519751329	-2.1433414499	 0.093412
H	 1.2443272663	-0.9408826363	-1.6861959083	 0.085881
H	-0.8692038576	-2.8284071991	-0.9974313736	 0.059949
H	 0.4245423702	-2.9210463737	 1.3247711629	 0.102933
H	 1.6200424453	-2.5186343128	 0.0765521224	 0.093112
H	 1.6851212145	-0.3788658882	 1.4295127431	 0.069971
H	-1.8173760717	-1.9637217579	 2.021596901	 0.094204
H	-2.1904084009	-0.2289015875	 2.0952925107	 0.101671
H	-2.1825302744	-0.5602056796	-0.3819797598	 0.069618
205.0237	222.8068	253.5834	271.834	403.9566	427.9183	481.7048	586.0012	617.1886	699.6692	732.5238	816.6999	835.3463	867.7829	890.1153	900.9139	924.959	942.5793	971.5009	978.039	1005.4632	1029.256	1046.5077	1069.7216	1086.2051	1122.0253	1136.9052	1169.7488	1178.5689	1211.0472	1224.2079	1232.4034	1245.7655	1275.3586	1298.6131	1321.1787	1334.9129	1348.8394	1383.4114	1411.5664	1492.7147	1493.5024	1495.6535	1515.2931	1526.0644	3000.1801	3025.0908	3039.9362	3047.157	3053.6863	3086.0313	3096.9477	3101.2736	3103.4013	3107.6426	3112.5699	3117.5269
CC12CC3CC1OCC23	C[C@@]12C[C@H]3C[C@@H]1OC[C@@H]23	
InChI=1S/C8H12O/c1-8-3-5-2-7(8)9-4-6(5)8/h5-7H,2-4H2,1H3	InChI=1S/C8H12O/c1-8-3-5-2-7(8)9-4-6(5)8/h5-7H,2-4H2,1H3/t5-,6-,7+,8+/m1/s1
