20
gdb 81243	2.88127	1.54707	1.40971	1.2995	79.09	-0.2244	0.0701	0.2944	1028.7067	0.17277	-403.038854	-403.03126	-403.030316	-403.070694	30.502	
C	-0.0966853278	 1.5461382663	 0.0889648724	-0.455428
C	 0.0715781499	 0.0385590024	 0.0576520443	 0.081831
N	 1.2614300287	-0.5594243053	-0.7255498037	-0.189937
C	 2.1132855371	-0.197168877	 0.5195684007	-0.270696
C	 0.821151373	-0.7731766294	 1.1571239424	 0.249432
C	 0.133713998	-1.4323507388	 2.3245174154	-0.203425
O	-0.7649385733	-2.3406569497	 1.6464385981	-0.28513
C	-0.3227335096	-2.6666892222	 0.2997877085	-0.129527
C	 0.9614032084	-1.8642287008	 0.1038822908	 0.019926
H	 0.7404380128	 2.0890249003	 0.5326302828	 0.119634
H	-0.2379433013	 1.9211399766	-0.9304677437	 0.133494
H	-0.9953524409	 1.7993105004	 0.6615613182	 0.123949
H	-0.8674603189	-0.4005205416	-0.2836188519	 0.082823
H	 3.0267977582	-0.7901741511	 0.6063323221	 0.10791
H	 2.3296389543	 0.8660606609	 0.6090392109	 0.107825
H	 0.8353572334	-1.9810779612	 2.9700559239	 0.096012
H	-0.4828794109	-0.7758072075	 2.9453083613	 0.109196
H	-0.117657237	-3.7418025819	 0.2475715387	 0.103029
H	-1.1395130063	-2.4445850582	-0.3937893045	 0.118789
H	 1.8545460522	-2.4920653322	 0.1415049233	 0.08029
117.6488	159.0855	214.7795	264.572	332.6577	397.2305	447.3232	524.8496	587.351	679.9243	703.6845	762.8753	790.9064	808.6719	861.6931	883.3756	899.3358	974.4785	1006.1761	1011.2607	1044.1676	1057.6474	1066.1382	1105.8503	1139.0708	1144.8475	1156.7778	1173.8743	1193.0736	1205.8379	1229.822	1238.3208	1295.4706	1340.436	1370.1235	1396.8517	1407.1335	1433.4397	1492.5472	1494.742	1511.6101	1525.2981	1541.6731	2994.3727	3035.288	3039.6129	3065.6525	3074.2753	3081.1613	3085.2452	3092.061	3099.8343	3124.9577	3152.3254
CC1N2CC11COCC21	C[C@H]1N2C[C@]31COC[C@@H]23	
InChI=1S/C7H11NO/c1-5-7-3-8(5)6(7)2-9-4-7/h5-6H,2-4H2,1H3	InChI=1S/C7H11NO/c1-5-7-3-8(5)6(7)2-9-4-7/h5-6H,2-4H2,1H3/t5-,6-,7-/m1/s1
