16
gdb 81723	3.26132	1.30594	1.05537	3.7364	78.95	-0.2369	0.0036	0.2405	1142.8457	0.122614	-400.706487	-400.697884	-400.69694	-400.739671	31.8	
C	-0.1251099991	 1.3608638137	-0.309147942	-0.347609
N	-0.0267979549	 0.0262617882	 0.2447464785	-0.09106
C	-1.0361363855	-1.0293452283	 0.2240546256	-0.059699
C	-0.938964429	-1.8431041029	-1.0242022581	-0.324138
C	 0.0752362854	-2.075700732	 0.1162783695	 0.017841
C	 0.2470726258	-3.3156255301	 0.7813389027	 0.176514
C	 0.4188497134	-4.3665542325	 1.341012949	-0.399124
C	 1.0346216408	-0.8658992785	 0.0893342956	 0.360704
O	 2.2115511218	-0.6930396079	-0.0453388757	-0.347747
H	 0.8885701444	 1.7597933281	-0.3923402285	 0.161951
H	-0.5896163344	 1.3633984227	-1.3047400206	 0.122258
H	-0.7052380038	 2.0136515318	 0.3499623988	 0.133633
H	-1.8688853339	-1.0282826682	 0.9147277735	 0.1301
H	-1.6551522645	-2.6500912258	-1.1460806155	 0.141395
H	-0.6021893863	-1.3825194379	-1.9482676837	 0.132811
H	 0.5746492997	-5.2906889704	 1.8399667309	 0.192171
100.3971	125.7044	152.7758	198.0497	212.5857	256.1135	385.4016	455.8915	504.7108	536.2378	583.35	602.5251	649.7965	710.1592	766.5411	806.2609	880.6337	923.1541	940.6918	975.8341	1016.275	1044.9827	1090.0031	1150.5187	1198.6442	1228.2319	1265.0711	1358.7688	1374.4015	1446.5546	1478.7906	1484.9436	1512.8732	1892.17	2239.7512	3009.2922	3082.5594	3120.6801	3132.2088	3208.3748	3216.9228	3502.6395
CN1C2CC2(C#C)C1=O	CN1[C@H]2C[C@@]2(C#C)C1=O	
InChI=1S/C7H7NO/c1-3-7-4-5(7)8(2)6(7)9/h1,5H,4H2,2H3	InChI=1S/C7H7NO/c1-3-7-4-5(7)8(2)6(7)9/h1,5H,4H2,2H3/t5-,7+/m0/s1
