20
gdb 83545	2.27315	1.94184	1.36828	1.4896	78.74	-0.2186	0.0816	0.3002	1021.1784	0.172006	-403.090023	-403.082226	-403.081282	-403.121835	31.27	
C	 0.0719779221	 1.4255185873	-0.3944539311	-0.330986
N	 0.0331164978	 0.0029094311	-0.0707635724	-0.097928
C	-1.1567023951	-0.4421287824	 0.7511967494	-0.11543
C	-0.9067020006	-1.9622635266	 0.7884264474	-0.209209
C	 0.6312588287	-1.9324994362	 1.1038838093	-0.209209
C	 0.8191089047	-0.4038912223	 1.1564608834	-0.11543
C	-0.3916369101	 0.0231276355	 1.9981639719	 0.531587
C	-0.609038164	 1.096262909	 2.9568440991	-0.303086
O	-0.6625213396	-0.2904156014	 3.3484193115	-0.297667
H	 1.0550473897	 1.6643245781	-0.8134947577	 0.120388
H	-0.6749653404	 1.6308342114	-1.1683858946	 0.120389
H	-0.1139005801	 2.1116342512	 0.4469130797	 0.100279
H	-2.1433494058	-0.0730178846	 0.4709462243	 0.070885
H	-1.4902628639	-2.4543734852	 1.5699519361	 0.109235
H	-1.1283670402	-2.4260839717	-0.1741205451	 0.104674
H	 0.8780206804	-2.4085435634	 2.0557177691	 0.109235
H	 1.2308778558	-2.3804222029	 0.3097909619	 0.104674
H	 1.8219873942	 0.003724754	 1.2842868514	 0.070885
H	 0.2373096572	 1.656981273	 3.3520465628	 0.118357
H	-1.5628011309	 1.6221484962	 2.9828263137	 0.118357
153.524	196.2728	245.3353	250.9053	255.0351	308.3204	392.1325	455.2154	546.7098	617.5224	719.1994	743.065	821.1924	842.0154	892.0381	893.6885	905.1914	941.7215	951.973	1006.9774	1007.9463	1037.8482	1085.7663	1117.0159	1145.4045	1159.093	1164.8369	1166.8197	1190.461	1193.5324	1227.8626	1242.8308	1259.145	1286.2537	1309.2737	1317.6656	1449.0268	1461.705	1474.7046	1492.0311	1494.3962	1504.4709	1549.542	2978.9599	3062.1152	3069.8108	3077.973	3079.3351	3096.5069	3118.2766	3120.6514	3124.0183	3135.2626	3163.3276
CN1C2CCC1C21CO1	CN1[C@H]2CC[C@@H]1[C@]12CO1	
InChI=1S/C7H11NO/c1-8-5-2-3-6(8)7(5)4-9-7/h5-6H,2-4H2,1H3	InChI=1S/C7H11NO/c1-8-5-2-3-6(8)7(5)4-9-7/h5-6H,2-4H2,1H3/t5-,6+,7+
