23
gdb 102532	2.14756	1.1409	0.79537	3.0627	83.01	-0.2459	-0.0174	0.2285	1494.471	0.202803	-425.43724	-425.425958	-425.425014	-425.474452	40.064	
C	-0.0793676933	 1.2810837804	 0.7844525269	-0.394778
C	-0.0636437655	-0.1607161461	 0.2585348879	-0.19118
C	 0.6066893877	-0.3419944649	-1.1182489533	 0.007869
C	 2.091765138	 0.0645278533	-1.0653657274	-0.085224
O	 2.7096490079	 0.0750914308	-2.344773245	-0.423581
C	 0.4551335016	-1.7898886913	-1.6574925823	-0.055443
C	-1.0079028209	-2.2755058399	-1.7370707678	-0.427901
C	 1.0216947156	-1.9264886799	-3.060389938	 0.154438
O	 1.9083615521	-2.6830429952	-3.3769558214	-0.281196
H	 0.9203260167	 1.652751976	 1.025730406	 0.124793
H	-0.5198579787	 1.9641790579	 0.0496587672	 0.119011
H	-0.6782266899	 1.3471690681	 1.6980334699	 0.116095
H	 0.4325180794	-0.8145371259	 0.9894725455	 0.096851
H	-1.0991119526	-0.5082825048	 0.1985469628	 0.103393
H	 0.1159912467	 0.3365202123	-1.8324130363	 0.079701
H	 2.1779103883	 1.0844733006	-0.6806747039	 0.110729
H	 2.6305464673	-0.5916283682	-0.3648955872	 0.093912
H	 3.0818002635	-0.7940447929	-2.5211293211	 0.300248
H	 1.0285498846	-2.4752360168	-1.0204848284	 0.086082
H	-1.4535736925	-2.3666983508	-0.7446258417	 0.132744
H	-1.6236034993	-1.5839465069	-2.3232466163	 0.123934
H	-1.0623224551	-3.259950188	-2.2123273091	 0.130879
H	 0.5035476885	-1.300296118	-3.822279657	 0.078623
40.4541	61.9102	87.728	138.0414	171.3062	200.4162	219.2521	247.7883	289.2458	319.7873	330.0658	381.0592	441.3692	451.5696	516.3774	563.7564	765.6575	828.6259	886.5948	919.4504	954.4797	970.5218	986.9408	1039.6109	1069.0004	1073.8023	1110.4646	1133.8204	1149.8348	1165.9409	1223.2187	1258.2127	1298.7983	1321.0068	1342.8421	1360.2564	1387.0726	1401.6568	1405.7618	1411.408	1419.9375	1427.1728	1486.8236	1496.2198	1497.8439	1504.1578	1508.854	1510.8201	1810.6773	2872.7212	2989.3509	3000.4511	3017.6844	3035.4845	3036.5835	3038.5305	3073.6603	3087.1986	3101.1992	3102.7157	3114.5097	3126.6869	3835.9494
CCC(CO)C(C)C=O	CC[C@@H](CO)[C@@H](C)C=O	
InChI=1S/C7H14O2/c1-3-7(5-9)6(2)4-8/h4,6-7,9H,3,5H2,1-2H3	InChI=1S/C7H14O2/c1-3-7(5-9)6(2)4-8/h4,6-7,9H,3,5H2,1-2H3/t6-,7-/m0/s1
