21
gdb 111064	2.26715	1.50062	1.0894	1.4965	79.77	-0.2409	0.0939	0.3349	1206.0426	0.181444	-424.157916	-424.148664	-424.14772	-424.192261	34.201	
C	-0.0260188276	 1.3867099448	-0.3715364079	-0.241556
O	-0.0700828687	 0.1667976442	 0.3378137222	-0.257928
C	-1.2893766212	-0.5085020245	 0.2065041594	 0.10068
C	-1.5573637605	-1.3985933339	-1.0504543865	-0.109463
C	-0.4561964255	-2.3702398862	-0.5343499789	-0.297217
C	-1.3216281858	-1.9795428549	 0.7176728547	 0.404606
C	-2.5750005451	-2.1723039746	-0.1637160013	-0.286362
O	-1.2327044446	-2.4373887848	 2.0092112893	-0.293606
C	 0.0190243972	-2.1842917006	 2.630965055	-0.264178
H	 0.942119439	 1.8487614127	-0.1644478008	 0.12738
H	-0.1231861368	 1.233717217	-1.4562061724	 0.10951
H	-0.8239060419	 2.0722318203	-0.04687089	 0.107375
H	-2.127869921	 0.1312113809	 0.5198993452	 0.061481
H	-1.7109050305	-1.0675225695	-2.074343118	 0.079179
H	-0.5375036506	-3.408468964	-0.8650647477	 0.090258
H	 0.5684101877	-2.0023209282	-0.5645116578	 0.107942
H	-3.4804238148	-1.640651493	 0.1420905882	 0.093586
H	-2.7883062112	-3.1984434347	-0.4680410056	 0.100847
H	-0.0510413638	-2.5735305691	 3.6489134908	 0.122883
H	 0.8368702502	-2.6976874037	 2.1068658313	 0.112742
H	 0.2438934454	-1.1119372481	 2.6618713409	 0.131841
78.0693	82.8342	144.4316	165.8306	184.1488	238.0657	319.2419	336.482	425.1992	480.195	550.1046	609.6624	656.2333	774.5763	827.9296	906.706	924.765	950.329	974.4436	1006.8448	1047.9712	1065.5301	1074.5477	1084.187	1131.9052	1152.5705	1159.744	1165.1768	1182.9836	1184.3681	1205.9117	1222.3063	1237.9552	1239.4764	1248.6713	1323.5086	1404.3938	1480.6713	1484.5576	1486.608	1488.5838	1491.9146	1507.642	1509.1719	1539.1005	2979.6424	2997.2172	3005.5837	3030.667	3058.5096	3070.4042	3072.6507	3116.3141	3125.3475	3129.9017	3148.8486	3154.1266
COC1C2CC1(C2)OC	CO[C@H]1[C@H]2C[C@@]1(C2)OC	
InChI=1S/C7H12O2/c1-8-6-5-3-7(6,4-5)9-2/h5-6H,3-4H2,1-2H3	InChI=1S/C7H12O2/c1-8-6-5-3-7(6,4-5)9-2/h5-6H,3-4H2,1-2H3/t5-,6-,7-/m0/s1
