20
gdb 7378	4.00322	1.04192	0.93242	1.6588	72.5	-0.2409	-0.0113	0.2296	1323.2874	0.173424	-386.155318	-386.144983	-386.144039	-386.191474	35.09	
C	-0.0305420018	 1.3863093493	 0.0091111293	-0.22768
O	 0.0338560321	-0.019400401	 0.0070032055	-0.24024
C	 0.6330976645	-0.5378955645	-1.1621153365	-0.053087
C	 0.6169925996	-2.0634845805	-1.0691562179	-0.102243
C	-0.8263124285	-2.6069720126	-1.0213965897	-0.398718
C	 1.3670774809	-2.6791356587	-2.2489866681	 0.382204
C	 1.9474741357	-4.0664066111	-2.0408366932	-0.480315
O	 1.4913858572	-2.0881283697	-3.2988664749	-0.307494
H	 0.9712642429	 1.8411511348	-0.0462192824	 0.104518
H	-0.6257024615	 1.7698549305	-0.8346601966	 0.105863
H	-0.505386081	 1.6918402995	 0.9447806256	 0.125153
H	 0.0910679968	-0.2101706827	-2.0620402443	 0.104051
H	 1.6678063231	-0.1715955937	-1.260909195	 0.090101
H	 1.1224576655	-2.3580584105	-0.1403764263	 0.088719
H	-0.8494919704	-3.6898483511	-0.8693048316	 0.114329
H	-1.3644514053	-2.1303490347	-0.1997852029	 0.144137
H	-1.3515552276	-2.3814963572	-1.9554690578	 0.127947
H	 1.2184335802	-4.7419868067	-1.5825722413	 0.137341
H	 2.291924581	-4.4734414291	-2.9922391509	 0.141786
H	 2.7963421865	-4.0008825306	-1.3492002713	 0.143627
39.0301	82.0447	96.8149	122.2987	144.538	210.34	227.3733	245.466	305.9071	331.4764	354.6417	507.8556	591.2957	602.547	792.4881	893.4128	931.1227	953.0988	985.8673	1005.4546	1079.4321	1127.8449	1145.2378	1168.3091	1179.8225	1198.8202	1232.4644	1265.988	1326.0773	1345.9758	1382.7207	1401.0715	1422.1618	1462.4515	1475.5271	1481.3952	1484.3646	1493.1788	1503.7972	1507.1681	1524.0369	1803.1877	2965.9433	2977.3531	3008.3309	3014.7771	3031.6773	3037.81	3042.9921	3098.9139	3111.1237	3112.4622	3136.437	3152.4648
COCC(C)C(C)=O	COC[C@@H](C)C(=O)C	
InChI=1S/C6H12O2/c1-5(4-8-3)6(2)7/h5H,4H2,1-3H3	InChI=1S/C6H12O2/c1-5(4-8-3)6(2)7/h5H,4H2,1-3H3/t5-/m1/s1
