20
gdb 120174	4.98317	0.78334	0.75999	2.0282	81.13	-0.2475	0.0024	0.25	1565.3221	0.170966	-403.096821	-403.088016	-403.087072	-403.13091	32.796	
C	 0.0310601936	 1.5664447896	 0.0287288708	-0.379924
C	-0.0272865616	 0.0393969761	 0.1213358811	-0.164269
C	-1.4320160107	-0.5185620255	-0.1442842107	-0.219417
C	-1.4784902788	-2.0402950251	-0.0992875509	 0.043034
C	-1.4858453263	-2.7630650374	 1.289290263	-0.166709
N	-2.9243223686	-2.2683865387	 1.4420302104	-0.31417
C	-2.8669440341	-2.7505250843	-0.0087623151	-0.183422
C	-2.1152503876	-3.9739806261	 0.5630260392	 0.439812
O	-2.1474767148	-5.1649243755	 0.5859772148	-0.326899
H	 1.0409561093	 1.9400490224	 0.2240277074	 0.112484
H	-0.2661305011	 1.9138749371	-0.967043665	 0.11449
H	-0.6438947772	 2.0320758961	 0.7551964554	 0.117428
H	 0.6827908389	-0.39875509	-0.5928806034	 0.0942
H	 0.3074279347	-0.2800110238	 1.1167165148	 0.098168
H	-2.1418559647	-0.1072532809	 0.5784391871	 0.123673
H	-1.7658847619	-0.1929961886	-1.138968649	 0.094464
H	-0.7942217649	-2.485573747	-0.828102336	 0.085325
H	-0.7663482784	-2.7039076338	 2.1038130288	 0.100372
H	-3.4732997419	-2.9103478819	 2.0207717565	 0.231954
H	-3.7228473239	-2.6716878324	-0.676883649	 0.099406
80.073	88.27	107.0863	175.1159	244.3	286.2437	331.9292	377.6044	482.7503	570.0399	698.1497	733.9283	770.0642	784.7784	803.4586	841.1076	879.9805	903.027	936.918	991.9837	1041.5181	1058.6112	1066.8065	1087.6661	1124.2092	1133.1476	1135.7795	1179.2131	1195.1327	1204.3422	1258.7622	1272.4203	1278.236	1309.17	1331.5464	1386.439	1411.7056	1418.5859	1485.3498	1494.5228	1499.5197	1511.0542	1905.6942	3012.7829	3019.6754	3030.719	3046.0147	3065.0261	3094.6092	3102.2617	3104.123	3139.7456	3144.0942	3409.9599
CCCC1C2NC1C2=O	CCC[C@H]1[C@H]2N[C@@H]1C2=O	
InChI=1S/C7H11NO/c1-2-3-4-5-7(9)6(4)8-5/h4-6,8H,2-3H2,1H3	InChI=1S/C7H11NO/c1-2-3-4-5-7(9)6(4)8-5/h4-6,8H,2-3H2,1H3/t4-,5+,6-
