19
gdb 96265	2.29349	1.54385	0.99681	2.369	72.27	-0.2402	-0.0223	0.2179	1193.0295	0.158939	-460.180002	-460.171336	-460.170392	-460.213634	32.356	
C	-0.191913916	 1.5035932411	 0.038755371	-0.39292
C	-0.0580916836	-0.0142598674	 0.069656173	 0.09756
C	 0.516763587	-0.5634393846	-1.2437165097	-0.283123
C	 0.8214451732	-2.0588378698	-1.3259866556	 0.367448
O	 0.8414721447	-2.628594144	-2.3917547516	-0.296868
C	 1.1634910254	-2.8257268439	-0.0407604631	-0.179712
O	 0.2048298057	-2.5960069438	 0.9791577484	-0.23262
C	 0.5018236004	-1.5187083748	 1.8286096658	-0.008512
O	 0.8357660904	-0.3471235506	 1.1404903816	-0.253891
H	 0.7882372467	 1.96904996	-0.1052210073	 0.126899
H	-0.8490949192	 1.8195938696	-0.7768615525	 0.119682
H	-0.6077025148	 1.8677630088	 0.9818578802	 0.123164
H	-1.0402454256	-0.4658043843	 0.2613832513	 0.093254
H	-0.1261356351	-0.316019098	-2.0934680166	 0.126583
H	 1.4776951249	-0.0570875164	-1.4196635539	 0.13367
H	 1.1477233521	-3.890987424	-0.2807827102	 0.133017
H	 2.1771923179	-2.5507138658	 0.2881816849	 0.118072
H	-0.4005441509	-1.3938610868	 2.4443781238	 0.103996
H	 1.3701559469	-1.7343500553	 2.4679903004	 0.104302
58.0128	113.8088	204.2459	226.5325	261.5497	312.7336	352.4703	357.7815	433.1153	445.5758	513.2063	618.3758	680.0603	804.4336	820.0651	843.1634	937.1937	961.5678	973.4968	1066.0701	1088.9043	1124.1823	1132.7024	1162.0987	1168.1981	1216.0581	1256.106	1282.0185	1294.8934	1314.312	1361.5712	1374.8702	1391.3302	1411.3782	1436.0042	1442.3139	1467.9209	1485.8841	1496.9933	1516.9497	1808.0546	2990.815	2996.9047	3009.7237	3025.8928	3036.8216	3042.0316	3094.6166	3114.1284	3116.6132	3122.5054
CC1CC(=O)COCO1	C[C@H]1CC(=O)COCO1	
InChI=1S/C6H10O3/c1-5-2-6(7)3-8-4-9-5/h5H,2-4H2,1H3	InChI=1S/C6H10O3/c1-5-2-6(7)3-8-4-9-5/h5H,2-4H2,1H3/t5-/m0/s1
