21
gdb 103180	1.9102	1.50968	1.16923	2.2563	74.55	-0.2491	0.0668	0.3159	1188.6737	0.179648	-461.346118	-461.335699	-461.334755	-461.38074	39.028	
C	 0.0340880899	 1.5937743478	 0.0625623452	-0.425723
C	-0.0183537203	 0.0605620325	 0.0574820048	-0.199158
C	-1.44084057	-0.5114931486	 0.0188712957	 0.34401
O	-2.2633308427	 0.0112452058	 1.0444697137	-0.489377
C	-2.083781037	-0.5620510966	-1.4055065067	 0.073064
O	-1.575200128	 0.3718347625	-2.3328638203	-0.428316
C	-1.6517278509	-2.0479355133	-1.5240098966	-0.330182
C	-1.4826840984	-2.0613130788	 0.0197190045	 0.097885
O	-0.3493810356	-2.6808040534	 0.5784663245	-0.428235
H	 1.0725351649	 1.9380999151	 0.0483600378	 0.114257
H	-0.473869469	 2.0104605788	-0.8105174509	 0.140428
H	-0.4183634146	 2.013485757	 0.9691901251	 0.104673
H	 0.5399680015	-0.316808773	-0.804220395	 0.105717
H	 0.4741662862	-0.3366428689	 0.9499956269	 0.115567
H	-2.216825897	 0.9722495184	 1.0067293146	 0.279029
H	-3.1732991041	-0.4697262611	-1.3004663826	 0.071382
H	-1.9936315875	 0.2111559289	-3.1844236248	 0.2851
H	-2.3518934306	-2.7558718872	-1.9732980965	 0.091581
H	-0.6782009634	-2.1270251012	-2.0153242165	 0.1131
H	-2.4050961872	-2.3827950008	 0.5201348931	 0.079571
H	-0.4987306661	-3.630822214	 0.590916664	 0.285626
99.4637	123.1903	164.3273	194.1812	220.408	227.6916	253.3563	260.9613	305.579	319.2212	352.6554	419.0159	482.2641	510.2956	575.1392	616.0508	712.8397	779.1513	848.3241	889.941	929.7664	993.4783	1033.3885	1058.9616	1065.8481	1092.6463	1129.1427	1140.9353	1168.5294	1185.6417	1196.1298	1221.9536	1282.7631	1296.8011	1310.2622	1319.9422	1349.7044	1387.6888	1405.1735	1415.5274	1447.9903	1474.5753	1487.4218	1510.7897	1513.2784	3008.4591	3023.0377	3030.4934	3058.4047	3061.9049	3087.1694	3103.0558	3122.7866	3130.8936	3813.2957	3816.7246	3827.7225
CCC1(O)C(O)CC1O	CC[C@@]1(O)[C@@H](O)C[C@H]1O	
InChI=1S/C6H12O3/c1-2-6(9)4(7)3-5(6)8/h4-5,7-9H,2-3H2,1H3	InChI=1S/C6H12O3/c1-2-6(9)4(7)3-5(6)8/h4-5,7-9H,2-3H2,1H3/t4-,5+,6+
