14
gdb 129852	7.43505	0.84217	0.75875	3.8425	69.48	-0.2282	-0.0047	0.2235	1403.893	0.101077	-469.993231	-469.985065	-469.98412	-470.026685	29.378	
N	 0.0296382494	 1.3393763275	 0.1726278455	-0.592344
C	-0.0845315646	-0.0169616376	 0.0275720965	 0.526771
C	-1.1433817878	-0.880494892	 0.0779689511	-0.495607
C	-0.5104725718	-2.137581595	-0.0743263738	 0.5351
O	-1.1937620571	-3.3036174234	-0.0919584068	-0.224849
C	-0.4895076485	-4.4748426677	 0.020542209	 0.10906
N	-1.1130502774	-5.553594711	-0.1460106918	-0.424306
N	 0.7926846496	-2.0701350643	-0.2154402739	-0.262675
O	 1.0660516997	-0.6845373962	-0.1411204134	-0.224936
H	 0.8781732784	 1.7322964257	-0.2089432449	 0.271462
H	-0.7963684321	 1.8697284654	-0.0573453908	 0.270842
H	-2.1899479266	-0.6736391453	 0.2117623348	 0.124923
H	 0.5630251414	-4.3217706268	 0.2642377876	 0.14747
H	-0.4819828926	-6.3408887291	-0.0075186391	 0.239089
57.1316	83.1454	168.6824	225.77	276.8614	348.9332	403.8949	442.9802	519.2417	552.9639	678.7398	708.5989	718.0345	761.5031	812.6889	840.7001	940.52	1007.5734	1029.055	1056.1038	1067.6957	1089.7802	1210.5636	1268.7631	1369.8743	1403.6768	1507.287	1555.5422	1628.3808	1681.9309	1750.4735	3125.2895	3295.2847	3516.0537	3578.2004	3685.7197
NC1=CC(OC=N)=NO1	Nc1cc(O[CH][NH])no1	
InChI=1S/C4H5N3O2/c5-2-8-4-1-3(6)9-7-4/h1-2,5H,6H2	InChI=1S/C4H5N3O2/c5-2-8-4-1-3(6)9-7-4/h1-2,5H,6H2
