23
gdb 110060	1.8973	1.71075	1.02207	1.4964	81.41	-0.2445	0.0645	0.309	1255.6038	0.205862	-425.433047	-425.423222	-425.422278	-425.468163	36.952	
C	 0.213276981	 1.2719369444	 0.1923527009	-0.249494
O	 0.0666755024	-0.1341062963	 0.292873431	-0.263933
C	-1.2624560564	-0.6020173823	 0.0624404498	 0.06763
C	-1.2019296274	-1.9674104972	-0.6459068491	 0.026103
C	-0.2337871587	-2.0429733922	-1.8236478418	-0.410261
C	-0.9225711006	-2.9406327917	 0.5142547399	-0.214235
C	-1.8551494589	-2.4378789209	 1.6299245412	-0.247563
C	-1.9571416019	-0.89439406	 1.4403457549	 0.129109
O	-1.3703946957	-0.1512317466	 2.4904270967	-0.435811
H	 1.2672029278	 1.4976184455	 0.3756668403	 0.125681
H	-0.0551751883	 1.628871399	-0.8123882765	 0.112143
H	-0.40283264	 1.7975020666	 0.9327545566	 0.127034
H	-1.809466819	 0.1445195626	-0.5260898486	 0.059472
H	-2.220983005	-2.1676367497	-1.0091246697	 0.071074
H	 0.7831009133	-1.8044747215	-1.5029527061	 0.129088
H	-0.2318923089	-3.0471562473	-2.2598964902	 0.109284
H	-0.5106166054	-1.3377614589	-2.615166365	 0.105896
H	-1.098322832	-3.9854809061	 0.2422994837	 0.090448
H	 0.1285249973	-2.8527068838	 0.8144979607	 0.104634
H	-2.8464255171	-2.8921975193	 1.5216525997	 0.094603
H	-1.5033970489	-2.6665552545	 2.6388181159	 0.103801
H	-3.0049165895	-0.5817662881	 1.4071738769	 0.082281
H	-0.4192613679	-0.1804111117	 2.3210206791	 0.283017
31.6477	104.0188	165.3386	187.2107	215.2905	225.4434	287.0832	320.0392	359.0021	433.6804	456.7903	504.4141	553.2677	580.617	743.5961	777.7505	837.7034	871.3109	913.6342	956.6826	971.2381	982.1221	1025.4707	1046.3045	1089.5141	1123.2143	1141.1059	1155.8185	1181.2971	1184.0304	1208.8376	1229.8022	1259.2031	1289.601	1305.9081	1324.0061	1341.5745	1354.0572	1379.4958	1394.9812	1407.0719	1442.5965	1479.4501	1485.4578	1487.9844	1494.7956	1501.7411	1504.3995	1514.7755	2993.0998	2994.5638	3026.9896	3035.0999	3038.2508	3040.1562	3057.6165	3067.0251	3087.3043	3094.9862	3105.667	3112.8032	3124.1412	3754.9339
COC1C(C)CCC1O	CO[C@H]1[C@@H](C)CC[C@H]1O	
InChI=1S/C7H14O2/c1-5-3-4-6(8)7(5)9-2/h5-8H,3-4H2,1-2H3	InChI=1S/C7H14O2/c1-5-3-4-6(8)7(5)9-2/h5-8H,3-4H2,1-2H3/t5-,6+,7-/m0/s1
