17
gdb 76062	2.70395	1.27828	1.12006	4.2669	74.33	-0.2322	0.0251	0.2573	1141.2585	0.135831	-417.973707	-417.965032	-417.964088	-418.007327	31.873	
O	-0.0050222541	 1.4186242475	-0.0498554563	-0.40464
C	 0.0149793026	 0.0334441785	-0.004423978	 0.014948
C	-0.4912618029	-0.6976063535	 1.2547070616	-0.318341
C	-0.9139230348	 0.0743043415	 2.3811816406	 0.298872
N	-1.2503581927	 0.7165019673	 3.2842700333	-0.3471
C	-1.3025281945	-0.6539272914	-0.0426352083	 0.342323
C	-2.6579889476	 0.0046516491	-0.2823720084	-0.310914
C	-2.8892226273	-1.1317810898	-1.3168720271	-0.1595
N	-1.6699536123	-1.8317032946	-0.8118469304	-0.367867
H	 0.5827245423	 1.7664631726	 0.6309347077	 0.303944
H	 0.8587415935	-0.4490827234	-0.5023622762	 0.099477
H	-0.0119849271	-1.6433894043	 1.487881119	 0.135343
H	-3.3235538541	-0.0261060174	 0.5816766067	 0.133495
H	-2.6139218511	 1.0213611872	-0.6714921267	 0.135105
H	-3.8022712506	-1.7224555076	-1.203919392	 0.115005
H	-2.8121708835	-0.7896337263	-2.3546545034	 0.107518
H	-1.0016469158	-2.1024221952	-1.5263510321	 0.222332
80.496	112.2522	128.0614	187.8457	234.2384	280.1772	366.991	402.0666	461.8139	512.0027	621.6617	650.4165	714.1447	784.8003	808.8986	858.4851	924.4838	942.8847	954.4959	1001.8288	1042.2445	1085.7289	1117.8	1131.0897	1158.1774	1210.6157	1214.5956	1247.5475	1274.7632	1296.065	1339.7017	1349.7353	1383.506	1465.8711	1486.9975	1524.6434	2343.5774	3037.4775	3080.0298	3087.3106	3093.7252	3151.3962	3164.4516	3515.4091	3792.4035
OC1C(C#N)C11CCN1	O[C@H]1[C@@H](C#N)[C@]21CCN2	
InChI=1S/C6H8N2O/c7-3-4-5(9)6(4)1-2-8-6/h4-5,8-9H,1-2H2	InChI=1S/C6H8N2O/c7-3-4-5(9)6(4)1-2-8-6/h4-5,8-9H,1-2H2/t4-,5+,6+/m1/s1
