16
gdb 49094	3.54755	1.5452	1.28167	3.0447	69.47	-0.221	-0.0307	0.1903	969.0204	0.124943	-437.836616	-437.82956	-437.828616	-437.868122	27.459	
O	-0.3087367161	 0.5522061019	-0.7786377861	-0.275158
C	 0.204044293	 1.0547327735	 0.196979377	 0.049251
C	 1.3396181829	 1.9859547525	 0.1390302808	 0.216604
N	 1.8010557907	 2.6471760206	 1.3521342116	-0.372247
C	 2.5306807918	 3.8602280627	 0.9036901548	-0.164023
C	 2.8363404156	 3.5597664675	-0.5584968956	 0.055323
O	 3.6304581744	 2.3222360496	-0.5769080555	-0.296097
C	 2.4520142124	 1.6060478823	-0.880887849	 0.110234
C	 1.6082666568	 2.8044461461	-1.1178058744	-0.199847
H	-0.1471157617	 0.8142109549	 1.2258083558	 0.077533
H	 1.0019016221	 2.9093191648	 1.918981824	 0.225693
H	 1.9293855765	 4.777533416	 0.9885001659	 0.097598
H	 3.4547782187	 3.9925648557	 1.4744884157	 0.12603
H	 3.3018109195	 4.3553104244	-1.1392014588	 0.098698
H	 2.5118133944	 0.6335299779	-1.3533080517	 0.131041
H	 0.8957666688	 3.0731036496	-1.8848297443	 0.119365
119.453	186.3441	187.6835	261.8377	392.0368	460.248	532.1467	632.8197	673.9863	728.7098	734.9284	838.5613	857.1493	874.4766	895.7582	914.1807	949.7465	999.6876	1024.68	1045.2874	1056.7132	1064.7928	1118.529	1169.6945	1187.3612	1216.7918	1233.9662	1275.1344	1293.5029	1341.4113	1384.1909	1431.4804	1444.0326	1497.4532	1792.4268	2877.3623	2996.9073	3080.9604	3129.8942	3199.8812	3216.3314	3525.0978
O=CC12NCC3OC1C23	O=C[C@@]12NC[C@H]3O[C@@H]1[C@@H]23	
InChI=1S/C6H7NO2/c8-2-6-4-3(1-7-6)9-5(4)6/h2-5,7H,1H2	InChI=1S/C6H7NO2/c8-2-6-4-3(1-7-6)9-5(4)6/h2-5,7H,1H2/t3-,4+,5-,6+/m1/s1
