17
gdb 67481	2.52673	1.62969	1.25483	3.7385	77.36	-0.2431	0.0141	0.2572	1038.6839	0.135792	-380.795995	-380.788114	-380.78717	-380.828135	30.54	
C	 0.0054774141	 1.4816928977	 0.0335343469	-0.474616
C	 0.0301945205	-0.0144304541	 0.0094130198	 0.326528
C	-0.9276236663	-0.8605934242	 0.8474310418	-0.210604
C	-1.9423661435	-1.8098962046	 0.4709718468	 0.285119
N	-2.8004219564	-2.5464135619	 0.2226905382	-0.357802
C	 0.5740287987	-1.059215589	 0.9559846086	-0.152329
C	 1.2206430033	-1.7216491823	-0.2687969084	-0.032466
C	 0.320917777	-2.044965615	-1.3922761581	-0.274476
N	 0.7192907621	-0.6356966648	-1.1911708926	-0.178229
H	 0.9993612417	 1.878034248	-0.1937188588	 0.140215
H	-0.6884996301	 1.863858785	-0.723493392	 0.140241
H	-0.309121887	 1.8597655973	 1.0104545379	 0.122355
H	-1.2795663817	-0.2553736017	 1.6812261052	 0.143063
H	 1.0791423828	-0.9466748977	 1.9068479998	 0.109956
H	 2.2715499047	-1.9903787997	-0.2659737018	 0.111836
H	 0.799125556	-2.4600213377	-2.2755445734	 0.13164
H	-0.7016953159	-2.3656038853	-1.25388529	 0.169569
120.8583	172.8588	197.4185	205.707	309.8948	375.8263	383.969	461.3583	551.5112	606.4101	658.9377	698.4175	752.9291	767.2533	850.8812	894.1187	924.2804	946.3651	970.3895	989.3438	1036.0451	1051.5536	1104.1051	1110.3493	1114.8234	1151.5481	1194.1211	1230.1529	1264.2684	1335.1945	1351.0159	1412.8792	1454.0771	1473.4755	1496.456	1510.1758	2340.3704	3035.7799	3102.496	3119.0875	3130.8177	3136.0444	3169.127	3195.6353	3247.3201
CC12C(C#N)C1C1CN21	C[C@]12[C@@H](C#N)[C@H]1[C@H]1CN21	
InChI=1S/C7H8N2/c1-7-4(2-8)6(7)5-3-9(5)7/h4-6H,3H2,1H3	InChI=1S/C7H8N2/c1-7-4(2-8)6(7)5-3-9(5)7/h4-6H,3H2,1H3/t4-,5+,6-,7-,9?/m0/s1
