13
gdb 127755	7.32308	0.87532	0.79168	4.7441	63.32	-0.2856	-0.0425	0.243	1346.5893	0.089129	-486.06432	-486.056327	-486.055383	-486.098061	26.683	
C	 0.0736024342	 1.3737677374	 0.0935326143	-0.317561
N	-0.0424689036	-0.0707569602	 0.0434353131	 0.161183
N	-0.2533713706	-0.7303721821	-1.081785441	-0.117997
N	-0.3250689654	-2.0017777347	-0.7555955202	-0.286884
C	-0.1383546995	-2.0369325116	 0.5794361079	 0.507022
O	-0.162544052	-3.1505702084	 1.335924758	-0.209775
C	 0.175249168	-4.3503653763	 0.738917216	 0.169986
O	 0.0832413602	-5.3689615757	 1.340191272	-0.240359
N	 0.0436079648	-0.8427935417	 1.1242034381	-0.3253
H	 1.0454260927	 1.6488810952	 0.5076067819	 0.1692
H	-0.0225962074	 1.740136088	-0.9275230602	 0.177935
H	-0.7196656498	 1.784075299	 0.7214588547	 0.169953
H	 0.5209923984	-4.2209706589	-0.2958361848	 0.142598
55.026	108.0598	113.1312	159.3951	212.363	326.2994	398.8927	465.2633	538.1849	695.4084	727.4354	774.0677	872.6791	1036.2979	1046.512	1057.1478	1069.3596	1134.4812	1152.8773	1250.0802	1318.8889	1407.0523	1420.4701	1441.8563	1451.8436	1475.03	1508.536	1558.3754	1889.7376	3062.063	3069.4208	3145.3291	3181.4906
CN1N=NC(OC=O)=N1	Cn1nnc(OC=O)n1	
InChI=1S/C3H4N4O2/c1-7-5-3(4-6-7)9-2-8/h2H,1H3	InChI=1S/C3H4N4O2/c1-7-5-3(4-6-7)9-2-8/h2H,1H3
