14
gdb 132162	3.31444	1.31828	0.94402	5.2098	69.52	-0.1973	-0.0111	0.1863	1121.3229	0.102088	-478.028554	-478.02102	-478.020076	-478.060308	29.433	
N	 0.0050822926	 1.3891768481	 0.1552694237	-0.580699
C	-0.0640834227	 0.0147425088	 0.0577627971	 0.166711
C	-1.2066411718	-0.7192565971	 0.0344249164	-0.096042
N	-1.1503556456	-2.1063110648	-0.0107031833	-0.386179
C	 0.0351373712	-2.7462987742	-0.027038054	 0.417303
F	-0.0740271592	-4.069194324	-0.0647461736	-0.061226
C	 1.2256621174	-2.0977146487	-0.0122816987	-0.445018
C	 1.2631577439	-0.6546605159	 0.019452259	 0.37954
O	 2.2904527746	 0.0266415467	 0.0049720918	-0.423138
H	 0.9462193329	 1.7060147928	-0.0539250802	 0.264102
H	-0.7289902464	 1.9265014235	-0.2783591408	 0.244024
H	-2.2016693655	-0.2959476204	 0.0547330694	 0.122788
H	-1.9939793177	-2.6552693806	-0.0228741202	 0.274019
H	 2.1501591063	-2.6573254043	-0.0404463064	 0.123813
134.2203	199.8091	318.1336	329.0826	366.818	380.4932	421.5661	446.255	451.507	515.0838	599.7855	650.6044	654.3606	740.4679	774.4772	789.9945	804.9696	851.3376	989.2774	1101.9807	1198.8809	1209.9573	1246.0024	1314.4107	1361.3022	1428.8451	1578.637	1598.3223	1655.4969	1691.865	1711.1305	3219.1229	3234.5636	3517.5838	3661.8948	3663.0909
NC1=CNC(F)=CC1=O	Nc1c[nH]c(F)cc1=O	
InChI=1S/C5H5FN2O/c6-5-1-4(9)3(7)2-8-5/h1-2H,7H2,(H,8,9)	InChI=1S/C5H5FN2O/c6-5-1-4(9)3(7)2-8-5/h1-2H,7H2,(H,8,9)
