18
gdb 117480	5.76759	0.57016	0.52387	3.5489	70.83	-0.2517	-0.0333	0.2184	1999.1245	0.144909	-476.259849	-476.249371	-476.248427	-476.298076	34.932	
O	-0.1705997489	 1.4543871557	 0.0107755575	-0.4221
C	 0.0240327682	 0.049399432	 0.001939948	-0.076089
C	-1.359336296	-0.586157709	 0.0121935181	-0.284192
C	-1.3256947867	-2.0977770366	 0.0042755092	 0.350695
O	-0.2906142901	-2.7301294969	-0.0094851622	-0.311344
C	-2.6731974462	-2.8076243665	 0.0145907008	-0.223063
N	-2.4750118814	-4.2330557123	 0.0065046746	-0.282477
C	-3.5092598844	-5.1074602177	 0.0069553991	 0.154365
O	-4.6801027743	-4.7859556808	 0.0166089205	-0.328675
H	 0.6931975349	 1.8767763946	 0.0044293732	 0.290784
H	 0.5758373159	-0.2824131023	-0.8889552366	 0.105245
H	 0.5929560245	-0.2911412641	 0.8786707833	 0.105217
H	-1.9214810675	-0.2459191712	 0.8917663704	 0.141398
H	-1.9382806791	-0.2373076911	-0.8530114003	 0.14144
H	-3.245750321	-2.4856605137	 0.8958045158	 0.148014
H	-3.2628523341	-2.4783360105	-0.8525587376	 0.148139
H	-1.5134129301	-4.5431774179	-0.0049279086	 0.263265
H	-3.1655279839	-6.1604571517	-0.002030095	 0.079378
18.1176	48.7265	70.6903	97.4586	114.3708	195.5414	274.0269	274.8322	301.7232	345.8774	420.3052	465.028	583.8131	670.9788	750.2097	801.7414	915.3649	919.7096	982.1535	1036.6227	1052.3569	1083.3905	1100.613	1123.6912	1201.4851	1227.293	1246.637	1256.1392	1306.0432	1336.9254	1378.9734	1423.5129	1447.5422	1469.4605	1481.2414	1516.2323	1523.9901	1788.4987	1806.7649	2943.6593	2997.0345	3013.8959	3025.2035	3033.0168	3034.1362	3067.928	3601.4535	3833.0974
OCCC(=O)CNC=O	OCCC(=O)CNC=O	
InChI=1S/C5H9NO3/c7-2-1-5(9)3-6-4-8/h4,7H,1-3H2,(H,6,8)	InChI=1S/C5H9NO3/c7-2-1-5(9)3-6-4-8/h4,7H,1-3H2,(H,6,8)
