17
gdb 44864	3.32833	1.6888	1.52731	4.5921	70.82	-0.2356	0.0195	0.2551	905.5671	0.140071	-418.008319	-418.002018	-418.001073	-418.038683	26.745	
O	-0.003778965	 0.0101986304	 0.1342073994	-0.374311
C	 0.0018362089	 1.2084403593	 0.0109978133	 0.44467
N	-1.1026404921	 2.052816173	-0.0475683977	-0.30232
C	-0.6204185341	 3.4479244632	-0.0152042951	-0.039176
C	 0.5918299894	 3.2879667595	-0.9558366473	-0.25308
C	 1.2029500428	 2.1877312749	-0.0664774305	-0.113663
N	 1.2210892306	 2.7294069004	 1.3363942524	-0.097424
C	 1.4151225875	 4.1851598604	 1.4705601836	-0.26549
C	 0.0412379961	 3.6318169969	 1.360766138	-0.012259
H	-1.9660322603	 1.7663880643	 0.3898916334	 0.250144
H	-1.391970149	 4.1628544429	-0.297970147	 0.086546
H	 0.2889287179	 2.9191647438	-1.93629679	 0.123624
H	 1.1992494889	 4.1819960101	-1.0844149509	 0.111472
H	 2.1473071185	 1.7265448027	-0.3445291207	 0.095624
H	 1.7768198266	 4.4708383945	 2.4542508856	 0.126718
H	 1.8459902696	 4.7646683425	 0.6617120191	 0.119842
H	-0.6002844862	 3.5705290812	 2.2361581944	 0.099081
165.5012	291.8061	391.0377	434.8122	480.4223	515.0536	529.9257	602.2251	695.6926	721.5329	761.1453	816.6208	834.0079	866.3408	909.3058	932.1489	965.4093	979.4869	993.2634	1018.4491	1053.4188	1085.9633	1110.0553	1118.9214	1152.4982	1192.3657	1212.4863	1244.7898	1255.9702	1273.474	1291.1342	1330.2302	1347.2742	1399.8499	1486.8634	1530.6072	1860.0792	3099.8107	3125.4491	3127.5624	3143.1658	3151.933	3157.8	3207.7935	3620.3646
O=C1NC2CC1N1CC21	O=C1N[C@@H]2C[C@H]1N1C[C@@H]21	
InChI=1S/C6H8N2O/c9-6-4-1-3(7-6)5-2-8(4)5/h3-5H,1-2H2,(H,7,9)	InChI=1S/C6H8N2O/c9-6-4-1-3(7-6)5-2-8(4)5/h3-5H,1-2H2,(H,7,9)/t3-,4-,5+,8?/m1/s1
