16
gdb 25609	5.65853	0.8087	0.73795	6.0516	72.48	-0.234	0.0174	0.2514	1466.0563	0.126759	-434.130485	-434.122257	-434.121313	-434.165695	29.113	
O	-0.2217291589	 0.2587363041	 0.4450812349	-0.336226
C	-0.016876666	 1.2483980926	-0.2298799362	 0.157557
N	 1.2038349858	 1.7040599876	-0.5946625262	-0.269918
C	 2.4412580126	 1.0685645134	-0.1710878619	-0.258677
C	 3.5077679399	 2.102454736	 0.0261550925	 0.288219
C	 4.4933995245	 2.1686820476	 0.9745779991	-0.193705
N	 5.2132055184	 3.3059443418	 0.6750614098	-0.232621
C	 4.6361177416	 3.8749597622	-0.4174148597	 0.01784
N	 3.6077385812	 3.1745489206	-0.8368577611	-0.318136
H	-0.8300212975	 1.8916404936	-0.6222065846	 0.070442
H	 1.2959242881	 2.5525455932	-1.1327293222	 0.262162
H	 2.2401189737	 0.5162357442	 0.7499311036	 0.142833
H	 2.7616911078	 0.3307603874	-0.9215037644	 0.123047
H	 4.743337663	 1.5364949731	 1.809996832	 0.138648
H	 6.0087539331	 3.6558054684	 1.1820660386	 0.271921
H	 5.0040184226	 4.7901298241	-0.8563406843	 0.136615
15.2688	50.6477	137.0853	230.8112	266.889	313.6207	414.9527	532.1279	581.5524	651.7538	674.8646	713.8716	741.863	819.6946	834.9961	952.4007	979.9754	992.9013	1034.7887	1040.6927	1095.8946	1138.2812	1214.5647	1231.8547	1256.4154	1294.2637	1338.9315	1388.1923	1425.7244	1459.4937	1505.9362	1522.6721	1530.096	1606.818	1798.7118	2931.6983	2991.7909	3104.2772	3254.3487	3278.0114	3624.2478	3667.8021
O=CNCC1=CNC=N1	O=CNCc1c[nH]cn1	
InChI=1S/C5H7N3O/c9-4-7-2-5-1-6-3-8-5/h1,3-4H,2H2,(H,6,8)(H,7,9)	InChI=1S/C5H7N3O/c9-4-7-2-5-1-6-3-8-5/h1,3-4H,2H2,(H,6,8)(H,7,9)
