16
gdb 45111	2.83321	1.86103	1.30853	3.6228	68.44	-0.2432	-0.0015	0.2417	947.5911	0.125789	-437.865836	-437.85897	-437.858026	-437.897236	27.239	
O	 0.0108364949	 0.1824883037	-0.8179365699	-0.324306
C	 0.0730937622	 1.1584048069	-0.1230495504	 0.418605
O	-0.9970307638	 1.5019785567	 0.6496994105	-0.234284
C	-1.1612325603	 2.8091898753	 1.1564341653	 0.098924
C	-0.6281084788	 3.1274354418	 2.5230564901	-0.325803
C	 0.0465055753	 3.6912473985	 1.2905488714	-0.018433
N	 1.3178380922	 3.2362462256	 0.7744259871	-0.097597
C	 1.9835437007	 2.0718658936	 1.3178022739	-0.248965
C	 1.3016620015	 2.0012096714	-0.0166798878	-0.159158
H	-2.1126138846	 3.2219438003	 0.8381565752	 0.118749
H	-1.1885152532	 3.8147279237	 3.1466219762	 0.128083
H	-0.1474348098	 2.3209619889	 3.063884687	 0.133539
H	-0.1000836062	 4.7500819594	 1.1023389421	 0.115589
H	 3.0675357217	 2.1297776726	 1.350499949	 0.136306
H	 1.5330251654	 1.5206277644	 2.1387117286	 0.13122
H	 1.8962881928	 2.0011635071	-0.9239289583	 0.127531
81.7899	215.1516	261.196	381.3304	411.1095	479.1321	507.272	546.1565	688.1272	711.6694	739.7931	794.8791	814.3606	877.1672	900.9168	943.7095	981.208	1019.7162	1041.1386	1064.4794	1086.5697	1114.896	1127.5213	1131.1833	1155.9455	1165.5907	1229.5597	1247.6294	1324.4123	1371.8857	1379.8691	1401.9155	1472.7426	1512.357	1847.5427	3114.1161	3145.2967	3152.0153	3166.726	3172.8724	3200.396	3233.584
O=C1OC2CC2N2CC12	O=C1O[C@H]2C[C@H]2N2C[C@@H]12	
InChI=1S/C6H7NO2/c8-6-4-2-7(4)3-1-5(3)9-6/h3-5H,1-2H2	InChI=1S/C6H7NO2/c8-6-4-2-7(4)3-1-5(3)9-6/h3-5H,1-2H2/t3-,4+,5+,7?/m1/s1
