19
gdb 15253	2.8217	1.61199	1.4196	1.5591	74.25	-0.2289	-0.0335	0.1954	1006.0204	0.163437	-365.045391	-365.03638	-365.035436	-365.078817	32.501	
C	 3.6371606023	-0.159051334	 0.5489575499	-0.377273
C	 2.1818770969	 0.1896577898	 0.2426065297	-0.125201
N	 1.7602999941	-0.5157928832	-0.972284717	-0.096866
C	 1.1426775788	-1.8163731783	-0.9257834235	 0.010828
C	 0.8402753782	-2.5781373893	 0.3448622605	-0.434389
C	 0.3453338041	-0.5899546122	-1.3643612607	-0.128077
C	-0.7772891696	-0.0857093399	-0.5354582872	 0.148471
O	-0.7996555035	 0.0226879385	 0.6715538738	-0.278353
H	 3.7493396311	-1.2217644046	 0.7872366441	 0.117388
H	 4.2782686449	 0.06341071	-0.3087030166	 0.124917
H	 3.9914213574	 0.4161039276	 1.4098607893	 0.115341
H	 1.5418499563	-0.0087549091	 1.1078031267	 0.126393
H	 2.0947578745	 1.2604260166	 0.0272549985	 0.105564
H	 1.4490622882	-2.4554411933	-1.7548069514	 0.101016
H	 0.351515964	-1.9587779693	 1.0968574844	 0.163602
H	 0.1825145382	-3.4227902808	 0.1163256919	 0.123252
H	 1.7642073421	-2.9867762548	 0.7683799864	 0.127097
H	 0.1773764303	-0.4515322409	-2.4314762796	 0.095058
H	-1.6633547883	 0.2098739072	-1.1417700693	 0.081233
77.7151	145.322	161.4676	183.3383	218.662	226.2826	278.0977	288.8994	384.4281	449.5024	524.2741	691.5227	764.641	801.3643	815.8353	826.0332	926.7511	983.2598	1006.996	1050.054	1066.7007	1099.0195	1124.2564	1142.0543	1164.6606	1193.7607	1302.49	1345.8064	1373.1845	1382.0211	1401.6674	1409.1359	1421.556	1435.962	1487.9494	1492.7763	1496.8537	1505.763	1524.7905	1790.2131	2873.8032	3039.2928	3041.913	3044.5165	3080.4327	3092.5164	3098.986	3109.7888	3117.3736	3120.8553	3156.1951
CCN1C(C)C1C=O	CCN1[C@@H](C)[C@H]1C=O	
InChI=1S/C6H11NO/c1-3-7-5(2)6(7)4-8/h4-6H,3H2,1-2H3	InChI=1S/C6H11NO/c1-3-7-5(2)6(7)4-8/h4-6H,3H2,1-2H3/t5-,6+,7?/m0/s1
