18
gdb 84542	3.72916	1.28997	1.08829	3.7809	77.77	-0.2339	0.0079	0.2418	1128.8258	0.149033	-401.987383	-401.979514	-401.97857	-402.01982	30.381	
C	-0.0275998349	 1.5744713139	 0.0117087641	-0.397356
C	-0.0252255882	 0.038025515	-0.0066234065	-0.040408
C	 0.725042173	-0.5300917155	-1.1936027222	-0.065759
C	 1.8191962146	-1.2141028386	-0.8541182136	-0.081605
C	 1.9841550478	-1.3221300415	 0.6333068869	-0.239619
C	 0.7256460822	-0.5780525207	 1.1986557707	 0.01739
N	 0.2560274116	-1.8855834817	 1.6669829163	-0.328746
C	 1.3414394858	-2.6124403795	 1.2408322988	 0.428541
O	 1.6319783536	-3.77408638	 1.3159727198	-0.360553
H	 0.994624223	 1.9647147063	 0.0573465907	 0.122343
H	-0.4967757111	 1.9778840031	-0.8910041128	 0.118508
H	-0.5783330179	 1.9572246377	 0.8778363074	 0.114
H	-1.0678578348	-0.3099359716	-0.0038423598	 0.080961
H	 0.3892399485	-0.3658619463	-2.2125278911	 0.096305
H	 2.5027033081	-1.6907543348	-1.5468468523	 0.108226
H	 2.9728173331	-1.0765619001	 1.0260855431	 0.09959
H	 0.8947400823	 0.1352008542	 2.010669648	 0.082181
H	-0.6100850268	-2.17514455	 2.0981434523	 0.246001
82.8775	128.2461	228.0312	272.7092	289.4894	341.5298	390.7235	479.5057	542.1274	657.4775	703.748	729.1274	789.2926	820.8719	853.0636	867.7004	941.1046	951.2115	977.0652	1016.7584	1024.6556	1046.5301	1097.2969	1118.6466	1133.1029	1159.189	1174.8015	1226.2856	1281.8056	1305.9869	1312.5284	1338.3313	1381.9207	1386.9123	1410.3632	1494.2071	1499.6001	1671.973	1895.538	3007.0037	3029.6321	3062.3044	3098.7567	3099.8951	3105.9818	3179.9639	3211.47	3600.7046
CC1C=CC2C1NC2=O	C[C@H]1C=C[C@H]2[C@@H]1NC2=O	
InChI=1S/C7H9NO/c1-4-2-3-5-6(4)8-7(5)9/h2-6H,1H3,(H,8,9)	InChI=1S/C7H9NO/c1-4-2-3-5-6(4)8-7(5)9/h2-6H,1H3,(H,8,9)/t4-,5-,6+/m0/s1
