22
gdb 16366	2.51699	2.02299	1.37393	0.1742	82.11	-0.2587	0.0872	0.3459	1023.0756	0.199831	-313.05627	-313.047603	-313.046659	-313.088989	33.693	
C	-0.0244286965	 1.5943444016	-0.0341648336	-0.411573
C	 0.0361667971	 0.0762431712	 0.0393039127	-0.028213
C	 1.0355136658	-0.6742751322	-0.8897427406	-0.247394
C	 1.4053107881	-1.6213053444	 0.2898686819	-0.028213
C	 2.8666660435	-1.9902116049	 0.4949292865	-0.411573
C	 0.7293067708	-0.6077378082	 1.234225507	 0.361337
C	 1.3913672742	 0.096256939	 2.3860593547	-0.319293
C	 0.2113647763	-0.8205870398	 2.6223497409	-0.332957
H	 0.9723553511	 2.035407576	 0.0737932241	 0.113002
H	-0.4331243441	 1.9223791374	-0.9964528725	 0.112184
H	-0.6631550063	 2.0126233862	 0.7526789519	 0.111002
H	-0.9727109369	-0.3370610125	-0.0859256829	 0.067454
H	 0.6357514931	-1.1308661321	-1.7987032827	 0.090281
H	 1.880741472	-0.0329275986	-1.1632043511	 0.093037
H	 0.8004837304	-2.5355761997	 0.2385837573	 0.067454
H	 3.4980432074	-1.0960947826	 0.536016034	 0.113002
H	 3.0162981936	-2.5493887339	 1.426048434	 0.111002
H	 3.2293569431	-2.6185876034	-0.3261895396	 0.112184
H	 2.3720791134	-0.2426142551	 2.7045023727	 0.108267
H	 1.2368898322	 1.1648630299	 2.4967530753	 0.108267
H	-0.7398247724	-0.3699182386	 2.890700068	 0.105372
H	 0.3966895841	-1.7790382954	 3.0986917723	 0.105372
67.6896	201.3762	210.6989	227.9253	228.5212	242.4774	316.9327	396.2101	454.339	489.7744	534.0583	662.3113	761.2241	802.4312	867.5169	874.4287	892.0324	916.7423	923.8563	965.9974	977.4779	1042.0154	1047.2653	1076.5169	1090.5754	1111.5485	1145.0766	1176.547	1179.511	1190.7597	1217.7112	1261.4944	1276.9448	1294.1779	1359.5788	1361.2236	1392.474	1406.0985	1409.859	1464.0792	1487.9113	1493.0547	1494.3529	1496.3267	1499.3228	1507.3282	3016.4401	3018.5442	3022.0842	3023.0025	3041.4267	3085.1368	3085.4023	3093.9284	3095.0834	3101.7547	3113.3135	3124.2955	3190.6194	3208.7611
CC1CC(C)C11CC1	C[C@H]1C[C@@H](C)C21CC2	
InChI=1S/C8H14/c1-6-5-7(2)8(6)3-4-8/h6-7H,3-5H2,1-2H3	InChI=1S/C8H14/c1-6-5-7(2)8(6)3-4-8/h6-7H,3-5H2,1-2H3/t6-,7+
