17
gdb 41102	3.01839	1.94709	1.81609	1.8362	70.64	-0.2322	0.0486	0.2807	838.7145	0.137271	-421.712214	-421.705943	-421.704998	-421.742415	26.444	
C	 0.0217012593	 1.5379716429	 0.0804041379	-0.160948
O	 1.4756666092	 1.5482063056	-0.1802828796	-0.319403
C	 1.4783992822	 0.1411313655	-0.2675188124	 0.339665
C	 1.7447179116	-1.0485240317	 0.7073666534	 0.02151
C	 0.2863834735	-0.8902864709	 1.2391441623	-0.306918
C	-0.0165346763	-0.0034004825	-0.0077478243	 0.167847
C	-0.1840581732	-0.7289172646	-1.3783784061	-0.306918
C	 1.3644502893	-0.91808578	-1.4084312392	 0.021511
O	 1.7577899009	-1.9255415243	-0.4451426631	-0.293802
H	-0.2028100335	 1.9759087024	 1.0593233058	 0.113314
H	-0.5190615193	 2.0843852662	-0.7002909245	 0.113314
H	 2.5824901264	-1.2512038504	 1.3776102336	 0.084599
H	-0.2843129779	-1.8131122864	 1.3660202938	 0.112145
H	 0.2507989297	-0.3104856156	 2.1673462519	 0.108671
H	-0.7829228583	-1.6420812865	-1.4082380842	 0.112145
H	-0.5270452371	-0.0436726272	-2.1605507297	 0.108671
H	 1.9131228135	-1.0215982326	-2.3467336255	 0.084599
220.183	289.8212	326.127	375.7748	416.2237	466.6398	593.9877	700.7346	724.1605	795.1881	819.9594	835.4627	897.3345	903.0445	910.4784	930.2984	952.503	953.5869	980.006	1062.926	1094.1627	1099.4613	1140.2857	1140.7885	1166.8083	1180.9522	1225.567	1240.064	1254.7749	1273.0957	1281.2502	1299.6217	1320.3765	1343.8543	1451.9201	1463.28	1507.7636	3024.971	3048.6719	3050.1057	3080.6872	3088.0195	3094.0017	3113.996	3116.2363
C1OC23C4CC12CC3O4	C1O[C@@]23[C@H]4C[C@@]12C[C@@H]3O4	
InChI=1S/C7H8O2/c1-4-7-5(9-4)2-6(1,7)3-8-7/h4-5H,1-3H2	InChI=1S/C7H8O2/c1-4-7-5(9-4)2-6(1,7)3-8-7/h4-5H,1-3H2/t4-,5+,6-,7-
