20
gdb 79139	2.31735	1.9515	1.44324	1.9179	76.65	-0.2309	0.0605	0.2914	987.9506	0.172941	-403.113283	-403.105395	-403.104451	-403.145241	31.484	
C	-0.3342003566	 1.5967215449	-0.0178732753	-0.414556
C	 0.0381030426	 0.1180194269	-0.0253375855	 0.034804
C	 0.6864409343	-0.5441790464	-1.2366133806	-0.063116
C	 2.166093368	-0.4155675587	-1.2735456898	-0.014341
C	 2.8846007663	 0.6726760339	-0.4938996441	-0.29978
C	 2.4435403421	 0.3840454132	 0.9678562718	 0.135196
O	 2.1276341753	 1.5185648822	 1.7546367541	-0.43492
C	 1.2135328186	-0.5038377502	 0.7915728353	-0.043432
N	 1.5591794667	-1.4323355993	-0.3688767164	-0.16273
H	 0.510339282	 2.2479622059	-0.2453082155	 0.121254
H	-1.120857992	 1.7844219637	-0.7580686134	 0.10501
H	-0.7176102062	 1.8952422118	 0.9625318676	 0.122438
H	-0.8548968042	-0.4671568445	 0.2208359957	 0.085413
H	 0.1440285649	-0.9548640319	-2.0847433934	 0.084765
H	 2.6573633136	-0.8498757946	-2.1391782075	 0.089256
H	 3.9687962228	 0.5903919108	-0.6180397205	 0.100297
H	 2.5922387747	 1.6823276935	-0.7960916946	 0.112541
H	 3.2216374297	-0.2175603181	 1.4624012073	 0.078589
H	 2.9407575095	 2.003365443	 1.9244329597	 0.286612
H	 0.9352410577	-1.0400038862	 1.698534575	 0.076701
144.8758	161.3674	201.7786	259.8576	262.0267	329.2811	416.266	509.5593	532.2743	613.0802	684.7192	728.5734	759.2888	808.4368	813.3229	879.9511	916.878	960.428	972.3388	1020.5382	1028.9538	1062.0246	1068.3725	1100.6051	1122.6243	1128.1675	1161.8535	1184.175	1189.9098	1211.7613	1246.2582	1266.3813	1296.0368	1323.5588	1350.3431	1373.3454	1388.8601	1417.2028	1423.916	1436.5168	1487.666	1490.0604	1505.3129	2978.907	3034.6825	3041.4996	3050.8577	3092.5733	3099.0127	3114.8165	3135.1648	3142.1327	3157.5356	3826.2712
CC1C2C3CC(O)C1N23	C[C@H]1[C@H]2[C@H]3C[C@@H](O)[C@@H]1N23	
InChI=1S/C7H11NO/c1-3-6-4-2-5(9)7(3)8(4)6/h3-7,9H,2H2,1H3	InChI=1S/C7H11NO/c1-3-6-4-2-5(9)7(3)8(4)6/h3-7,9H,2H2,1H3/t3-,4+,5+,6-,7+,8?/m0/s1
