15
gdb 124239	2.67088	1.5387	0.98818	1.5047	70.57	-0.2771	-0.0858	0.1913	1136.4718	0.110145	-453.953956	-453.945212	-453.944268	-453.988216	30.303	
C	-0.0028440437	 1.5411105983	-0.0932360371	-0.484776
C	 0.0007621443	 0.038171874	 0.059658066	 0.30911
O	 0.002280651	-0.5208297018	 1.1365815628	-0.294682
C	 0.0002907402	-0.7647521397	-1.1882236966	 0.238305
C	 0.0022767044	-2.1134126279	-1.4198709998	 0.183254
C	 0.0056470894	-3.2750196551	-0.4910821819	-0.505056
N	 0.0003190295	-2.2603053326	-2.7922807228	-0.163766
N	-0.0012913315	-1.1388184302	-3.3673014189	-0.002713
O	-0.0028936218	-0.1335175304	-2.3740581534	-0.217791
H	 0.8740340201	 1.868095532	-0.6619250041	 0.157808
H	-0.8819219163	 1.8641668807	-0.6607709067	 0.157861
H	-0.0032008526	 2.001385067	 0.8947239278	 0.149009
H	-0.8749468101	-3.9030521609	-0.6602312188	 0.151176
H	 0.8876959272	-3.9002245363	-0.6630864682	 0.151159
H	 0.00674982	-2.9267160171	 0.5410443016	 0.171102
60.4289	84.5806	127.1942	177.4704	178.8669	286.852	295.1273	408.0998	474.0177	555.1651	637.2842	675.8812	693.6229	729.4892	731.1609	954.7493	991.3215	1029.6035	1044.2233	1071.109	1104.8427	1225.6926	1251.6356	1371.6313	1390.5751	1410.582	1448.1636	1458.3972	1468.4011	1478.6981	1489.457	1629.2095	1782.226	3045.3791	3047.3756	3101.624	3107.3	3162.9481	3167.8033
CC(=O)C1=C(C)N=NO1	CC(=O)c1c(C)nno1	
InChI=1S/C5H6N2O2/c1-3-5(4(2)8)9-7-6-3/h1-2H3	InChI=1S/C5H6N2O2/c1-3-5(4(2)8)9-7-6-3/h1-2H3
