23
gdb 100328	2.14123	1.16665	0.99614	1.5503	87.53	-0.249	0.0551	0.3041	1373.0297	0.201263	-388.254445	-388.243035	-388.24209	-388.290775	41.718	
C	-0.1238698788	 1.5660582003	-0.0848683417	-0.395137
C	 0.0733968243	 0.0471786159	-0.0794573136	-0.201444
C	 0.7291949963	-0.5313948979	 1.1973946549	 0.354583
C	 0.8234087729	-2.0594599255	 1.0876917605	-0.436149
C	 2.1388142281	 0.0839367708	 1.3967740273	-0.3871
C	 2.8965401045	-0.4865226313	 2.5034960591	 0.321845
C	 3.5418606345	-0.9510535405	 3.4049120058	-0.447976
O	 0.0188780212	-0.1142127701	 2.3690096033	-0.272091
C	-1.2546189113	-0.6716677947	 2.6041945467	-0.244168
H	 0.8267321284	 2.1053797609	-0.1397062812	 0.118135
H	-0.7201512775	 1.8721832625	-0.9496973189	 0.109407
H	-0.6409472141	 1.893778981	 0.8209618562	 0.131848
H	-0.8984683346	-0.4426071132	-0.2123384598	 0.094916
H	 0.6755059992	-0.2597216121	-0.9434278816	 0.095023
H	 1.5081529325	-2.3347124982	 0.279548101	 0.115896
H	 1.2053093329	-2.4882673506	 2.016950624	 0.138484
H	-0.14756881	-2.5086217219	 0.8611517243	 0.111521
H	 2.7071988933	-0.030459302	 0.465512878	 0.121822
H	 2.0167957638	 1.1583767547	 1.5668269173	 0.138767
H	 4.1065870294	-1.3558027791	 4.2075188454	 0.190261
H	-1.9608648874	-0.4914099922	 1.780802338	 0.10327
H	-1.2136212704	-1.7524152805	 2.7948627129	 0.110612
H	-1.6426609473	-0.1797322562	 3.4999421521	 0.127675
69.4103	72.9544	103.978	138.2565	183.3103	215.1865	237.5028	262.0934	287.0262	322.3702	352.0816	370.2501	388.3638	429.9896	518.7163	588.1617	607.6228	636.4291	728.4388	777.6963	852.974	899.7242	921.8821	979.6319	1004.1363	1055.7849	1062.2573	1115.4038	1145.5437	1176.638	1185.0572	1205.9049	1240.2661	1280.8227	1319.3205	1342.2253	1373.2424	1406.275	1411.7355	1459.6192	1470.5296	1478.4208	1491.1333	1498.1191	1500.2517	1504.9598	1510.0859	1512.8372	2238.2338	2990.629	3028.2285	3033.0926	3042.4446	3043.6756	3047.4139	3059.2158	3081.4657	3106.5288	3107.3103	3111.4765	3121.1164	3131.7555	3507.1951
CCC(C)(CC#C)OC	CC[C@@](C)(CC#C)OC	
InChI=1S/C8H14O/c1-5-7-8(3,6-2)9-4/h1H,6-7H2,2-4H3	InChI=1S/C8H14O/c1-5-7-8(3,6-2)9-4/h1H,6-7H2,2-4H3/t8-/m0/s1
