19
gdb 106335	4.73511	0.94764	0.91338	4.7524	82.15	-0.2581	0.0113	0.2694	1332.9692	0.159883	-382.025152	-382.016595	-382.015651	-382.058448	32.455	
C	-0.0493226318	 1.5257441998	-0.0034836551	-0.380419
C	-0.0826104962	-0.0051501377	 0.0628302791	-0.319771
C	-1.4724963302	-0.5702144711	-0.0199153131	 0.335656
C	-2.557299027	-0.3477464786	-1.1173666361	-0.26446
C	-3.2013777818	-1.1806218124	 0.0219589231	 0.23472
C	-1.9215330988	-2.0621225365	 0.0519476341	-0.312743
N	-2.5668162953	-0.1964463245	 0.9922301209	-0.366483
C	-4.5743166032	-1.6094553665	 0.1445614126	 0.16381
N	-5.6678897896	-1.9727736682	 0.2366988994	-0.348136
H	 0.9733490661	 1.8969283315	 0.1065575432	 0.116844
H	-0.4365094444	 1.887960864	-0.9610747414	 0.122181
H	-0.6624652635	 1.9623460408	 0.7895986515	 0.140345
H	 0.5133790493	-0.4358502572	-0.7518807475	 0.109986
H	 0.3798879147	-0.3522626363	 0.9962162817	 0.105771
H	-2.938565559	 0.6681894876	-1.2129349214	 0.125511
H	-2.4147894915	-0.8528281463	-2.0732185101	 0.110157
H	-1.7276153962	-2.7057109711	-0.8113803478	 0.108882
H	-1.7295764677	-2.5785095582	 0.9967585533	 0.107026
H	-2.3829648638	-0.684366929	 1.8762936037	 0.211122
85.5792	114.9525	139.1966	208.8144	219.7267	327.3655	389.5501	512.4598	521.2548	535.8961	568.1958	610.6266	636.1482	742.0579	807.3232	821.2429	939.8113	949.7301	971.5338	987.1863	1027.0187	1058.4504	1080.7892	1102.8744	1126.4255	1135.4791	1164.2097	1168.0805	1231.2331	1257.7529	1290.4991	1306.1672	1338.9486	1393.2104	1414.2168	1477.6393	1480.8579	1496.9638	1507.6103	1529.9732	2355.329	3020.897	3044.3425	3044.5973	3054.3208	3089.1194	3112.4969	3116.5438	3123.3557	3171.0117	3371.4226
CCC12CC(C1)(N2)C#N	CC[C@@]12C[C@@](C1)(N2)C#N	
InChI=1S/C7H10N2/c1-2-6-3-7(4-6,5-8)9-6/h9H,2-4H2,1H3	InChI=1S/C7H10N2/c1-2-6-3-7(4-6,5-8)9-6/h9H,2-4H2,1H3/t6-,7+
