18
gdb 106895	2.8953	1.28243	1.06201	3.076	72.37	-0.2388	-0.0175	0.2213	1178.0691	0.145961	-439.064871	-439.055717	-439.054773	-439.099029	33.299	
C	 0.1264689879	 1.529170952	 0.2311173291	-0.379943
C	-0.0032722331	 0.0385271785	-0.1144475895	-0.298253
C	-1.4284192982	-0.4285421587	-0.0533614008	 0.346588
C	-2.0679634551	-0.9970349845	 1.1392272393	-0.281663
N	-1.800471605	-1.9352512359	-0.0064575521	-0.225288
C	-2.874220196	-1.6469855574	-0.9350150942	 0.368762
O	-3.6962772854	-2.3728826172	-1.4014717928	-0.303836
C	-2.4802223905	-0.1633500434	-1.1283955693	-0.080802
O	-3.4167917427	 0.8440324454	-0.8399062977	-0.42966
H	 1.1667714137	 1.8564771781	 0.1502590487	 0.119811
H	-0.4765074909	 2.1452514648	-0.4434272344	 0.132923
H	-0.2139857825	 1.7280779407	 1.2521346675	 0.124207
H	 0.3952525896	-0.1481345112	-1.1192926485	 0.108672
H	 0.5964021718	-0.5648314142	 0.5759532586	 0.115665
H	-1.4372668273	-1.2185164943	 1.9941845018	 0.13799
H	-3.0987776965	-0.756247527	 1.3814343183	 0.14514
H	-2.0110882457	-0.026262455	-2.115351256	 0.099989
H	-4.1441451841	 0.7597561596	-1.4668762781	 0.299701
70.8221	90.4611	152.6512	195.6674	204.4722	253.1959	290.8161	339.9905	372.2528	507.1152	519.596	642.4506	691.6327	740.8299	765.3788	791.8802	866.1162	927.2474	970.6407	997.462	1042.8314	1061.0048	1088.9803	1131.2626	1146.4178	1147.4765	1179.479	1248.1954	1295.2031	1314.6845	1357.5469	1394.5285	1414.4347	1435.4923	1482.9513	1498.498	1508.6251	1512.5377	1915.0622	2987.7094	3031.0748	3040.5087	3070.7341	3111.594	3115.8967	3125.2684	3215.3893	3805.5313
CCC12CN1C(=O)C2O	CC[C@]12CN1C(=O)[C@H]2O	
InChI=1S/C6H9NO2/c1-2-6-3-7(6)5(9)4(6)8/h4,8H,2-3H2,1H3	InChI=1S/C6H9NO2/c1-2-6-3-7(6)5(9)4(6)8/h4,8H,2-3H2,1H3/t4-,6-,7?/m1/s1
