18
gdb 18913	3.87376	2.29333	2.03741	0.1422	73.91	-0.2124	0.0968	0.3092	762.9599	0.155766	-310.632434	-310.626216	-310.625272	-310.662237	26.19	
C	-0.0887797792	 1.5215886603	 0.0405729216	-0.516413
C	 0.0307421363	 0.0290212246	 0.0089070103	 0.360381
C	-0.0348445816	-0.8492300899	-1.2285324843	-0.122099
C	 1.0369732881	-1.9227865071	-1.1998355808	-0.233502
C	 1.1014942568	-2.1374847483	 0.3009261522	-0.070768
C	-0.2604366552	-1.9155428559	 0.9341254733	-0.077449
C	 0.806194309	-0.8446934777	 1.0368836519	-0.142389
C	-1.0294453422	-1.0520840137	-0.0946831496	-0.137325
H	 0.8774073709	 2.0052141075	-0.1506980507	 0.116412
H	-0.7922680959	 1.8749201703	-0.7208085433	 0.116427
H	-0.4488377763	 1.8755809885	 1.0137767941	 0.117346
H	-0.3834501134	-0.414014806	-2.1584746883	 0.077653
H	 0.7373991888	-2.828710256	-1.7394524423	 0.095998
H	 1.9903529292	-1.5724482397	-1.6123995965	 0.095537
H	 1.7787361095	-2.8560029807	 0.7480500171	 0.080306
H	-0.6872956947	-2.5409660815	 1.7058341708	 0.08162
H	 1.3493195269	-0.487812863	 1.9018703132	 0.079531
H	-2.1025432272	-0.9617196619	-0.1978988289	 0.078732
209.4692	220.2677	281.1825	400.2447	539.0465	579.9583	700.4747	731.1583	745.8261	764.9366	830.3569	841.2727	866.1747	879.3574	921.1049	943.6649	946.7439	980.7047	993.7313	1016.5231	1029.2348	1046.0387	1068.4425	1078.0837	1116.0409	1180.8854	1193.5921	1211.312	1235.9455	1270.4961	1278.7533	1308.7046	1372.1801	1414.1135	1447.3551	1485.0002	1491.908	1501.0972	3015.7542	3032.126	3071.3984	3072.3704	3091.6587	3178.3036	3183.3908	3194.7156	3200.1451	3211.9757
CC12C3CC4C(C14)C23	C[C@@]12[C@H]3C[C@@H]4[C@@H]([C@H]14)[C@@H]23	
InChI=1S/C8H10/c1-8-4-2-3-5(6(3)8)7(4)8/h3-7H,2H2,1H3	InChI=1S/C8H10/c1-8-4-2-3-5(6(3)8)7(4)8/h3-7H,2H2,1H3/t3-,4+,5+,6-,7+,8-/m1/s1
