21
gdb 102386	1.77198	1.5351	1.09323	2.1917	80.27	-0.2554	0.0371	0.2925	1246.4628	0.178098	-424.173086	-424.161917	-424.160973	-424.209271	40.174	
C	-0.0981768622	 1.5343241174	 0.0437802763	-0.391559
C	 0.024860207	 0.0092006204	 0.0286562375	-0.224144
C	 0.7560814462	-0.5561633201	-1.2086554439	 0.090852
C	 0.8054441756	-2.1034080995	-1.1563597883	-0.062688
O	 1.3293304543	-2.6460227222	-2.3439228799	-0.430995
O	 0.1466053272	-0.1575652226	-2.4573140888	-0.289154
C	-1.2347895336	-0.4354925996	-2.6241479838	-0.25615
C	 2.1240495865	-0.0275193286	-1.2767838306	 0.371118
C	 3.2493254974	 0.3920004447	-1.2886807399	-0.461078
H	 0.8890689431	 2.0034975287	 0.0358838152	 0.136189
H	-0.6447076243	 1.9003446148	-0.8298201147	 0.127029
H	-0.6282687645	 1.8664662591	 0.9411006128	 0.112763
H	 0.5760019372	-0.330461505	 0.9126821776	 0.114765
H	-0.9660952524	-0.4546131508	 0.0907412345	 0.100509
H	 1.4452681824	-2.415200808	-0.3249035407	 0.1149
H	-0.2093732004	-2.4826290242	-0.9523554199	 0.082017
H	 1.0810863235	-2.0343419678	-3.0492325012	 0.291453
H	-1.4690834448	-1.503509348	-2.5280667484	 0.12104
H	-1.8634063709	 0.1274525197	-1.9236380104	 0.119119
H	-1.4804814291	-0.1176192159	-3.6402701452	 0.135822
H	 4.2463108918	 0.7574089477	-1.314776158	 0.198193
55.236	103.5149	118.2847	141.6268	151.5909	180.9771	205.9939	248.3228	306.8699	323.6853	393.9171	413.783	435.2893	462.7042	539.7192	627.4991	638.7281	665.849	710.5985	776.2391	874.2596	967.0764	995.5388	1044.9329	1085.4356	1098.9233	1108.9381	1144.8211	1177.7007	1191.9143	1227.9426	1252.7106	1314.4556	1354.1315	1371.2803	1410.2366	1436.6991	1468.7235	1479.2741	1492.0336	1497.6676	1502.1754	1512.6254	1518.2876	2240.6657	2966.6849	3009.9716	3039.9966	3047.0473	3067.2263	3072.4384	3079.529	3115.84	3117.345	3124.8866	3501.246	3765.0923
CCC(CO)(OC)C#C	CC[C@@](CO)(OC)C#C	
InChI=1S/C7H12O2/c1-4-7(5-2,6-8)9-3/h1,8H,5-6H2,2-3H3	InChI=1S/C7H12O2/c1-4-7(5-2,6-8)9-3/h1,8H,5-6H2,2-3H3/t7-/m0/s1
