15
gdb 49615	2.99659	1.57661	1.1188	6.6507	67.48	-0.2508	-0.0125	0.2383	1034.4644	0.113798	-453.990533	-453.983026	-453.982082	-454.022819	28.054	
O	-0.2099190782	 0.0369217127	-0.0409827274	-0.272775
C	-0.0462430114	 1.225685877	 0.002221028	 0.15599
N	 1.1699369888	 1.8914745849	-0.0012771669	-0.143018
C	 1.2695683822	 3.3285183993	 0.0268474191	-0.009346
C	 1.9532360099	 3.9633886795	 1.2199965201	-0.325133
C	 2.7416332076	 3.6287139427	-0.0319051128	-0.010479
N	 3.3599780412	 2.3427703651	-0.119271209	-0.362872
C	 2.4671868148	 1.2891650903	-0.0063322129	 0.467114
O	 2.7306529143	 0.1226487048	 0.0894978767	-0.358128
H	-0.8803565447	 1.9562519914	 0.0446753262	 0.079765
H	 0.5358117086	 3.8736149556	-0.5534704719	 0.126831
H	 1.737438517	 5.0109680154	 1.3989287503	 0.129969
H	 2.1100938907	 3.3583173156	 2.1061344349	 0.135336
H	 3.1485567568	 4.4128959803	-0.6594105138	 0.121474
H	 4.3211614824	 2.1721106452	 0.1280440993	 0.26527
80.0381	157.6057	208.8189	211.4236	347.7329	436.7125	470.9919	487.4454	500.6535	705.9622	725.4772	764.6113	791.7492	822.0069	837.39	960.9082	1008.0594	1026.4665	1038.4165	1059.9987	1094.9843	1137.3719	1199.1659	1222.137	1235.4085	1283.271	1382.4885	1399.5621	1418.9605	1452.6227	1470.411	1809.3331	1894.7831	2918.4557	3136.3679	3176.7644	3190.4709	3233.359	3653.3652
O=CN1C2CC2NC1=O	O=CN1[C@H]2C[C@H]2NC1=O	
InChI=1S/C5H6N2O2/c8-2-7-4-1-3(4)6-5(7)9/h2-4H,1H2,(H,6,9)	InChI=1S/C5H6N2O2/c8-2-7-4-1-3(4)6-5(7)9/h2-4H,1H2,(H,6,9)/t3-,4+/m1/s1
