15
gdb 73738	2.047	1.83018	0.978	7.4948	75.7	-0.2641	-0.0645	0.1996	1138.9209	0.11293	-416.882373	-416.873813	-416.872869	-416.915941	30.317	
C	-0.0052609207	 1.4811979067	 0.0756437129	-0.50819
C	 0.011092965	-0.0053311429	-0.0053030558	 0.190844
C	-0.013691242	-0.7912544189	-1.0984160539	-0.002989
C	-0.0622856455	-0.3638945372	-2.4492870848	 0.232337
N	-0.1019564657	 0.0013644081	-3.5471581527	-0.342194
C	 0.0175362479	-2.244345982	-0.6993276716	 0.37367
O	 0.0070973688	-3.2206688976	-1.4094713191	-0.356822
N	 0.061390569	-2.2125141389	 0.6754529463	-0.353468
C	 0.0615146924	-0.8799774398	 1.2248098582	-0.235991
H	 0.8870583749	 1.8517247835	 0.5943290194	 0.14882
H	-0.0426912689	 1.9319335519	-0.9178489824	 0.165229
H	-0.8717885288	 1.8293890385	 0.650482614	 0.148814
H	 0.0886695179	-3.0571759973	 1.2203394204	 0.26431
H	 0.9625863702	-0.6663787811	 1.8187250816	 0.137816
H	-0.8053451645	-0.689315073	 1.8748141275	 0.137812
87.6868	127.8382	132.7053	154.567	212.368	281.6255	409.2882	428.404	438.4456	517.4043	582.9407	592.1662	660.3938	759.8643	787.2362	918.2294	946.7685	1050.2227	1076.3228	1077.274	1155.6882	1194.1072	1194.4031	1329.0403	1347.8251	1416.8484	1426.8451	1476.3682	1478.6809	1495.6922	1689.0933	1839.5951	2347.8447	2995.6532	3018.1702	3030.1725	3080.561	3136.669	3675.5372
CC1=C(C#N)C(=O)NC1	CC1=C(C#N)C(=O)NC1	
InChI=1S/C6H6N2O/c1-4-3-8-6(9)5(4)2-7/h3H2,1H3,(H,8,9)	InChI=1S/C6H6N2O/c1-4-3-8-6(9)5(4)2-7/h3H2,1H3,(H,8,9)
