20
gdb 120287	3.42379	1.01204	0.98055	2.037	80.52	-0.2164	0.0103	0.2267	1324.2856	0.171238	-403.107135	-403.098548	-403.097604	-403.141105	31.977	
C	-0.3263382155	 1.5500323914	-0.4011270532	-0.225154
O	-0.3753993281	 0.1640967451	-0.1656540866	-0.233492
C	-1.2905051263	-0.5016534901	-1.0127890467	-0.091115
C	-1.1850595608	-1.9759523148	-0.7150500591	-0.008837
C	-2.127104483	-2.743046828	 0.1625573543	-0.08142
C	-3.4577340277	-2.1464419666	 0.4486902699	-0.068474
C	-4.1503635348	-1.9945160966	-0.6811749254	-0.089786
C	-3.3530727741	-2.5098535522	-1.8592617456	-0.205798
N	-2.0648979783	-2.9948403899	-1.3042168338	-0.13512
H	 0.4070440072	 1.9735636086	 0.2894581365	 0.126982
H	-0.0162254552	 1.7795018969	-1.4334509639	 0.102744
H	-1.3011370728	 2.0319919153	-0.2233502734	 0.102734
H	-2.309645984	-0.1197833067	-0.8584999677	 0.095324
H	-1.0277468613	-0.3234923565	-2.0716892745	 0.087016
H	-0.1460407128	-2.3020070902	-0.7007740116	 0.099715
H	-1.730435463	-3.512534596	 0.8206563065	 0.092633
H	-3.785650159	-1.878640826	 1.4453565774	 0.103474
H	-5.1342176282	-1.5495487055	-0.7767367776	 0.100191
H	-3.8563120764	-3.3472997923	-2.3605551478	 0.115071
H	-3.1854016357	-1.7446259957	-2.6293948776	 0.113312
57.7466	85.1419	131.704	211.0185	249.4721	284.8286	338.9102	431.768	510.9535	570.3768	716.6789	736.65	756.587	782.816	861.7217	922.2927	934.2267	955.4354	980.1685	991.4705	1028.1474	1062.3818	1076.5159	1110.7659	1128.9896	1151.2297	1164.3107	1187.0071	1203.265	1228.0915	1267.5853	1278.563	1312.2095	1343.6756	1373.2068	1381.4947	1449.5037	1479.6316	1484.0048	1495.8242	1502.4583	1529.1741	1665.851	2938.1952	2966.7757	3008.2487	3009.6301	3014.9007	3033.5933	3113.0894	3116.3024	3135.0899	3193.6784	3221.4736
COCC1C2C=CCN12	COC[C@H]1[C@H]2C=CCN12	
InChI=1S/C7H11NO/c1-9-5-7-6-3-2-4-8(6)7/h2-3,6-7H,4-5H2,1H3	InChI=1S/C7H11NO/c1-9-5-7-6-3-2-4-8(6)7/h2-3,6-7H,4-5H2,1H3/t6-,7+,8?/m1/s1
