18
gdb 19936	3.57567	2.32715	1.90345	1.759	69.7	-0.2534	0.0848	0.3382	773.5111	0.156552	-347.788802	-347.782576	-347.781632	-347.818925	25.507	
C	 0.3721581836	 1.5698264429	 0.4370279127	-0.220392
C	 1.5578862435	 1.543909541	-0.5693843598	-0.219203
C	 1.3847890128	 0.0026337993	-0.7142620975	-0.046454
C	 2.2681052706	-0.8543079298	 0.1687627334	 0.029441
O	 2.3981071758	-0.3534578847	 1.5107581604	-0.257673
C	 1.4805219393	-1.4293019492	 1.2738456361	 0.055234
C	 0.0333816272	-0.9836507602	 1.1721640053	-0.263959
C	 0.0282611358	 0.0948776372	 0.0675455297	-0.001499
H	 0.7010206106	 1.675958161	 1.4719528956	 0.113838
H	-0.4121647799	 2.3043981789	 0.2368528233	 0.088488
H	 1.3398442436	 2.0739833502	-1.4998410004	 0.095673
H	 2.5241274398	 1.8837027725	-0.1913263472	 0.106963
H	 1.3615900656	-0.3948852861	-1.7328354812	 0.064006
H	 3.161714831	-1.332186644	-0.226986649	 0.088756
H	 1.7391192508	-2.3696067258	 1.7567479535	 0.089358
H	-0.5874039404	-1.844320411	 0.8943703826	 0.098769
H	-0.3450716889	-0.6048545544	 2.1282941488	 0.110246
H	-0.8588247206	 0.0239077721	-0.5651647963	 0.068408
137.5352	218.4262	324.9843	375.2013	488.4817	629.0008	682.3734	727.9431	751.8438	816.6947	828.4136	866.8347	882.4368	889.9775	952.4079	954.841	963.6522	1016.5504	1046.9104	1067.2311	1092.7326	1098.3729	1136.7826	1180.6428	1210.7908	1229.2924	1251.9125	1265.0609	1267.3182	1277.1545	1308.0679	1317.6951	1339.6522	1361.5055	1427.235	1470.7729	1477.1006	1491.9472	3030.9942	3058.8016	3063.2612	3068.1562	3072.9549	3085.1119	3112.2142	3128.7766	3130.54	3141.9992
C1CC2C3OC3CC12	C1C[C@H]2[C@H]3O[C@H]3C[C@@H]12	
InChI=1S/C7H10O/c1-2-5-4(1)3-6-7(5)8-6/h4-7H,1-3H2	InChI=1S/C7H10O/c1-2-5-4(1)3-6-7(5)8-6/h4-7H,1-3H2/t4-,5-,6+,7-/m1/s1
