16
gdb 34546	4.30236	1.30182	1.1846	1.5866	83.48	-0.2253	-0.0308	0.1946	1049.0957	0.125357	-363.533121	-363.526249	-363.525305	-363.564212	28.092	
C	 0.0783934609	-1.1691288559	 0.0960941514	-0.411738
C	-0.0148901282	 0.0306860909	 0.0309750622	 0.185891
C	-0.0766053482	 1.4388476518	-0.0677138001	 0.217428
C	-1.1717673485	 2.2289552829	-0.0588893042	-0.203873
C	-0.7375495938	 3.6652130008	 0.002593024	-0.115422
C	-0.0230562283	 3.8338809121	 1.3962353435	-0.142472
N	 1.3057650299	 3.4835951613	 0.8237048314	-0.156567
C	 0.7219921128	 3.6676244529	-0.5435714689	-0.039235
C	 1.1381173062	 2.309415259	-0.1471881537	-0.144761
H	 0.147337059	-2.2265240718	 0.1619974172	 0.191704
H	-2.1905258971	 1.8942181639	 0.0893337395	 0.111456
H	-1.4550374747	 4.4235065913	-0.3031488819	 0.080514
H	 0.0227354656	 4.8811431023	 1.7031864297	 0.118683
H	-0.3716686588	 3.2091134195	 2.2247078489	 0.107504
H	 1.1672141803	 4.2949852715	-1.3088472359	 0.097541
H	 2.099701323	 1.8985749876	-0.426097463	 0.103345
124.367	154.3484	343.4054	388.2383	478.2125	495.07	549.4035	580.741	622.9406	642.8381	684.8445	739.8658	789.8301	817.7772	861.9562	872.9149	891.2845	915.6004	950.3695	994.9708	1014.9832	1061.7631	1076.858	1162.5434	1171.3335	1192.8628	1205.2506	1250.5288	1270.7192	1291.5421	1326.8208	1361.6561	1493.3514	1630.2486	2223.5307	3048.5674	3114.907	3137.5205	3163.9521	3206.7725	3217.2885	3503.4727
C#CC1=CC2CN3C2C13	C#CC1=C[C@H]2CN3[C@H]2[C@H]13	
InChI=1S/C8H7N/c1-2-5-3-6-4-9-7(5)8(6)9/h1,3,6-8H,4H2	InChI=1S/C8H7N/c1-2-5-3-6-4-9-7(5)8(6)9/h1,3,6-8H,4H2/t6-,7-,8+,9?/m0/s1
