19
gdb 91679	3.23816	1.26599	1.11973	1.9964	81.66	-0.2477	0.0551	0.3028	1142.9541	0.160065	-385.843039	-385.83505	-385.834106	-385.875173	32.23	
O	-0.1396201693	 1.4081645365	 0.0113047599	-0.439902
C	-0.0326797082	-0.0057389309	 0.0258423197	 0.118649
C	 0.4801733594	-0.6014905944	 1.3845571273	-0.27394
C	-0.7747972797	-1.3922011098	 1.7917410523	-0.018091
C	-1.1531265693	-2.0853143719	 0.4510751045	-0.24822
C	-1.4355056673	-0.6256733713	-0.0000281739	-0.02114
C	-1.9143727737	-0.3548271366	 1.4728105721	-0.174017
C	-3.260920143	-0.7830126759	 1.789093254	 0.292788
C	-4.3820329612	-1.1205043188	 2.0663880589	-0.429918
H	 0.7451416476	 1.7774870044	 0.0913386479	 0.283014
H	 0.5671968833	-0.3522974623	-0.8273165299	 0.066297
H	 1.3554911195	-1.2466433763	 1.2640965435	 0.096641
H	 0.7299003648	 0.1988351403	 2.0878921314	 0.097927
H	-0.7592242131	-1.9286757882	 2.7399305456	 0.070859
H	-0.3711434803	-2.643216982	-0.0731162046	 0.087807
H	-2.063862425	-2.6800977603	 0.5215634402	 0.120929
H	-2.0667310591	-0.3828025712	-0.8533785412	 0.076522
H	-1.7436622964	 0.6648753328	 1.8282772207	 0.106593
H	-5.372186459	-1.415946424	 2.3098657619	 0.187202
127.3353	153.0201	196.2584	274.4761	314.5989	416.0006	437.6172	489.4177	504.5751	527.3219	607.4815	630.4217	668.2322	817.4126	837.285	861.4175	887.534	899.9689	945.934	961.4538	988.9293	1011.5233	1040.8532	1060.4737	1086.4082	1090.0724	1138.191	1179.2877	1179.9212	1226.1967	1235.0059	1255.5615	1269.318	1282.1114	1308.8922	1339.0276	1368.0455	1422.2234	1484.6832	1507.4586	2231.1934	2997.6884	3048.8348	3057.628	3073.9002	3097.712	3121.1335	3132.712	3140.0839	3505.2474	3822.3896
OC1CC2CC1C2C#C	O[C@H]1C[C@@H]2C[C@H]1[C@H]2C#C	
InChI=1S/C8H10O/c1-2-6-5-3-7(6)8(9)4-5/h1,5-9H,3-4H2	InChI=1S/C8H10O/c1-2-6-5-3-7(6)8(9)4-5/h1,5-9H,3-4H2/t5-,6-,7-,8-/m0/s1
