18
gdb 51064	4.05217	1.11236	1.05012	3.0796	78.34	-0.2511	0.0176	0.2687	1195.6592	0.1484	-401.88521	-401.877566	-401.876622	-401.917991	29.373	
N	-0.1213124405	 1.3345978464	-0.0126676245	-0.436678
C	-0.1297439402	 0.0950825602	-0.2346039238	 0.1046
O	-1.0635129292	-0.6858757972	 0.3687727893	-0.226914
C	-0.939170158	-2.0459170797	 0.1980758508	 0.414637
C	-0.8583020268	-2.9527961003	-1.0032809935	-0.149921
C	 0.3408979068	-3.7024889726	-0.4263946312	-0.220755
C	-0.1133072429	-3.1788323886	 0.9656809376	-0.129456
C	-1.4681131385	-3.9018520083	 1.2111522732	-0.225796
C	-2.0082867223	-3.0778119203	 0.0439802954	-0.131106
H	 0.6190989113	 1.7788563661	-0.5519504868	 0.232515
H	 0.5383083572	-0.4704786205	-0.8954096849	 0.096947
H	-1.0931808776	-2.728133241	-2.0356573355	 0.094543
H	 0.3840145283	-4.7902425719	-0.549393234	 0.09565
H	 1.2876998337	-3.2594228711	-0.7479649167	 0.09848
H	 0.6014050003	-3.0302223966	 1.7716888418	 0.08173
H	-1.4671332646	-4.9943669702	 1.1310572767	 0.092399
H	-1.9287058176	-3.5995077294	 2.1550215758	 0.110502
H	-3.0332809594	-2.9175623553	-0.2635575096	 0.098623
66.2931	102.6109	136.8235	319.5526	349.7937	407.0299	476.6683	502.4742	690.189	712.6209	753.187	807.2116	826.0078	881.199	910.1531	946.2742	953.6446	969.2925	1001.0193	1010.8493	1039.6342	1048.2982	1049.9581	1067.8295	1117.3003	1123.2614	1129.0063	1177.1109	1213.5963	1220.158	1248.6767	1274.4815	1292.3055	1308.3918	1405.9286	1450.1048	1489.3312	1508.759	1747.4557	3036.7728	3043.9078	3048.9222	3095.7635	3106.2403	3146.3888	3200.0031	3209.835	3517.8681
N=COC12C3CC1CC23	[NH][CH]O[C@@]12[C@H]3C[C@@H]1C[C@@H]23	
InChI=1S/C7H9NO/c8-3-9-7-4-1-5(7)6(7)2-4/h3-6,8H,1-2H2	InChI=1S/C7H9NO/c8-3-9-7-4-1-5(7)6(7)2-4/h3-6,8H,1-2H2/t4-,5+,6-,7-
