17
gdb 22148	2.15921	1.25258	1.00491	2.9458	71.39	-0.2566	-0.0132	0.2434	1234.4578	0.133162	-455.101019	-455.09098	-455.090036	-455.13723	34.497	
C	 1.1973388103	 0.0260138799	 0.0406849312	-0.480449
C	-0.2241971873	-0.450410999	 0.1237159716	 0.345604
C	-0.9087540745	-0.5469412615	 1.4632165093	-0.165727
O	-0.2391094514	-1.4050483887	 2.3895517272	-0.224689
C	-0.3287799852	-2.7773639882	 2.0934680688	-0.194932
C	 0.69024344	-3.2444110792	 1.1318337274	 0.264901
N	 1.5028877433	-3.6200556102	 0.4013505427	-0.310901
N	-0.9495445994	-0.7873965779	-0.8751981769	-0.154687
O	-0.2695771887	-0.6328352348	-2.0834160014	-0.385652
H	 1.7969352863	-0.6806976855	-0.5391859619	 0.170749
H	 1.2477127286	 0.991267665	-0.4752143711	 0.143023
H	 1.6310791541	 0.1277627124	 1.0368208137	 0.131963
H	-0.9090377635	 0.4303174441	 1.9579882625	 0.124621
H	-1.9471287293	-0.8693571124	 1.3141300531	 0.116377
H	-0.174594463	-3.3151687149	 3.0346190095	 0.161575
H	-1.3218630626	-3.0486529232	 1.7074130579	 0.147984
H	-0.9120085577	-0.9514982959	-2.7267218137	 0.310242
46.7623	60.8043	85.3332	103.5212	169.6886	262.9368	285.799	308.5847	366.3714	391.4866	418.9974	470.1412	549.7502	587.4401	673.5732	817.6001	897.3602	932.7417	963.1096	997.9053	1033.6758	1050.2076	1096.9548	1123.0286	1264.1358	1281.0944	1321.9354	1379.0103	1392.726	1400.8172	1413.2306	1463.482	1474.4869	1481.5205	1485.658	1726.5363	2356.3773	3011.2698	3024.6266	3044.7787	3082.2103	3083.3372	3110.0261	3143.9692	3816.2475
CC(COCC#N)=NO	CC(=NO)COCC#N	
InChI=1S/C5H8N2O2/c1-5(7-8)4-9-3-2-6/h8H,3-4H2,1H3	InChI=1S/C5H8N2O2/c1-5(7-8)4-9-3-2-6/h8H,3-4H2,1H3
