14
gdb 44270	3.24903	1.49714	1.22057	2.7539	61.28	-0.2497	-0.0562	0.1935	977.1975	0.102122	-473.849151	-473.84208	-473.841136	-473.881158	26.248	
O	-0.3452081535	 0.3850521256	 0.7386070782	-0.309597
C	-0.0992949908	 1.4015637613	 0.1788504754	 0.438179
O	-0.9860124014	 2.2479343104	-0.4574934342	-0.256874
C	 0.0811708161	 3.2065937408	-0.7864651053	 0.008904
C	 1.1217046756	 2.3142350428	-0.0922531832	-0.196372
N	 1.6445952329	 3.0817772742	 1.0337192258	-0.308146
C	 0.6448590224	 4.0766108921	 1.4378987016	-0.295828
C	-0.0490179546	 4.4364736522	 0.1216208433	 0.424547
O	-0.5807722178	 5.4731724432	-0.1607545434	-0.285455
H	 0.1206081987	 3.4161690691	-1.8531971772	 0.12416
H	 1.9157543123	 1.8551416341	-0.683334974	 0.124914
H	 1.9511507948	 2.4864923298	 1.7940572231	 0.247055
H	-0.1223678237	 3.7039995629	 2.138365805	 0.138179
H	 1.109362339	 4.9585052215	 1.8850926648	 0.146334
84.4122	126.2823	230.2073	240.3721	425.1613	466.9694	532.7737	565.5268	651.7933	726.7387	755.3091	794.488	818.1155	894.3037	941.646	956.8397	980.3211	1045.7485	1097.1687	1126.4436	1172.3846	1194.0293	1217.7669	1253.0817	1270.8543	1295.1786	1351.6943	1436.865	1488.1673	1871.4431	1941.5073	2963.075	3099.6423	3103.9755	3151.5436	3554.6963
O=C1OC2C1NCC2=O	O=C1O[C@@H]2[C@H]1NCC2=O	
InChI=1S/C5H5NO3/c7-2-1-6-3-4(2)9-5(3)8/h3-4,6H,1H2	InChI=1S/C5H5NO3/c7-2-1-6-3-4(2)9-5(3)8/h3-4,6H,1H2/t3-,4+/m1/s1
