22
gdb 69848	2.21494	2.04624	1.50147	1.5387	85.	-0.2241	0.0841	0.3082	1012.7501	0.195383	-367.169808	-367.161784	-367.160839	-367.201466	33.568	
C	 0.0999816521	 1.4416859016	-0.0096119049	-0.473575
C	-0.0687227661	-0.0579751755	-0.0287838834	 0.307049
C	-0.6445503559	-0.7736420335	 1.1431490199	-0.310534
N	 0.798412908	-0.8947721765	 0.8507616119	-0.144959
C	 1.1697632445	-1.9669414456	-0.1303874697	 0.007876
C	-0.0818938561	-2.300114978	-0.983428944	-0.287456
C	 0.0534285095	-0.8037030279	-1.3848758495	 0.276574
C	-0.6458403807	-0.2278218637	-2.5953324296	-0.507929
C	 1.6090035734	-1.0803975616	-1.3305630844	-0.246922
H	 0.937253613	 1.7608314573	-0.6399745679	 0.116814
H	-0.8039559212	 1.9443762887	-0.372457417	 0.11521
H	 0.2972124942	 1.7895694175	 1.0077677165	 0.125634
H	-0.8435320539	-0.1901984826	 2.0387587327	 0.109256
H	-1.3046686806	-1.6245585374	 1.027947782	 0.111519
H	 1.8047130651	-2.7348453591	 0.3099930663	 0.069711
H	 0.1747818307	-2.9557301138	-1.8181897408	 0.095971
H	-0.9997509855	-2.6642139393	-0.5206657257	 0.091818
H	-1.7340176002	-0.237730654	-2.4631104603	 0.117933
H	-0.3448431696	 0.8085956102	-2.7815940592	 0.120182
H	-0.4138670716	-0.8075535215	-3.4944737465	 0.114634
H	 2.2728357075	-0.2433954264	-1.1016622651	 0.100373
H	 1.9753322831	-1.645098959	-2.191236971	 0.090821
186.1384	194.4362	220.6556	249.5988	300.851	346.5297	425.8459	478.5491	526.6423	560.4587	589.5541	613.7936	714.6643	768.2821	789.8596	833.8278	862.3457	901.2019	921.2685	950.731	958.3014	992.7471	1015.4638	1036.9527	1050.8704	1092.7516	1097.4935	1113.9822	1126.8856	1145.2641	1192.1072	1200.8561	1220.82	1239.1885	1269.6534	1287.4641	1320.5535	1355.6624	1413.0615	1415.865	1475.9456	1485.7539	1490.0969	1495.6426	1499.4438	1502.7318	1543.5094	3026.603	3029.1393	3061.7325	3076.5623	3087.7949	3090.781	3099.1193	3114.6026	3117.7214	3122.1662	3126.6055	3127.7961	3208.1726
CC12CN1C1CC2(C)C1	C[C@]12CN1[C@H]1C[C@]2(C)C1	
InChI=1S/C8H13N/c1-7-3-6(4-7)9-5-8(7,9)2/h6H,3-5H2,1-2H3	InChI=1S/C8H13N/c1-7-3-6(4-7)9-5-8(7,9)2/h6H,3-5H2,1-2H3/t6-,7+,8-,9?/m1/s1
