20
gdb 68314	2.95236	1.2125	1.01852	3.8395	83.66	-0.3049	0.0382	0.3432	1227.1355	0.171386	-365.986843	-365.978266	-365.977322	-366.020488	32.798	
C	 0.0346997473	 1.3569528041	 0.1147947461	-0.512949
C	 0.0426621002	-0.1473921371	 0.0591448663	 0.334625
C	 0.6493728678	-1.0537695314	-1.0601211318	-0.255858
C	 0.0510124454	-2.0394751987	-0.0178670124	-0.075022
C	 0.6969900871	-1.1409840551	 1.0744079767	-0.268274
C	-1.1982785739	-1.10894575	 0.0042459253	 0.021891
C	-2.2108332886	-1.1895175115	 1.1551387961	-0.401116
C	-3.1052446044	-0.0321310555	 1.1783589561	 0.26791
N	-3.800890107	 0.8909913007	 1.1801804417	-0.315629
H	 1.0569247561	 1.750438772	 0.1290827693	 0.118632
H	-0.4779966196	 1.7793556001	-0.7558046167	 0.127389
H	-0.4798415646	 1.7211909954	 1.0099413203	 0.13281
H	 0.1653851814	-1.0151661305	-2.0403961583	 0.091968
H	 1.7388306615	-1.0461111592	-1.1491370499	 0.092438
H	 0.053794528	-3.129069279	-0.0657077016	 0.074115
H	 1.7899392534	-1.1367751492	 1.1075239966	 0.094828
H	 0.2899804736	-1.1817807981	 2.086929117	 0.089601
H	-1.7435044895	-1.066114958	-0.9448973217	 0.080217
H	-2.8231683295	-2.092278195	 1.0412760022	 0.152125
H	-1.7241603049	-1.265740214	 2.1316439787	 0.150298
47.5209	101.4964	185.7463	218.5678	292.5444	321.9547	364.9877	389.9569	463.815	570.3392	593.526	637.2587	744.9841	780.3824	841.605	904.1012	905.1295	944.4313	955.7902	969.8211	1005.1212	1022.0979	1040.5102	1077.4873	1093.0346	1127.9773	1142.4359	1174.3989	1200.2937	1214.4161	1223.9579	1233.4173	1257.8358	1307.2951	1334.0197	1413.0376	1422.2005	1462.1743	1486.677	1487.9856	1504.5687	1547.7459	2358.8123	3030.7913	3043.0221	3043.6831	3048.8041	3060.0982	3093.4002	3098.5963	3102.4092	3106.6694	3113.9334	3116.867
CC12CC(C1)C2CC#N	C[C@@]12C[C@@H](C1)[C@H]2CC#N	
InChI=1S/C8H11N/c1-8-4-6(5-8)7(8)2-3-9/h6-7H,2,4-5H2,1H3	InChI=1S/C8H11N/c1-8-4-6(5-8)7(8)2-3-9/h6-7H,2,4-5H2,1H3/t6-,7-,8+/m1/s1
