18
gdb 98639	5.44488	0.7761	0.76724	5.0139	75.5	-0.2432	-0.016	0.2272	1513.4405	0.146214	-439.128249	-439.118777	-439.117832	-439.16407	33.308	
C	-0.5463976659	 1.423875267	-0.0296368285	-0.335521
N	-0.2056991827	 0.0158231857	 0.0437004549	-0.325457
C	 0.8584065959	-0.4479673984	 0.7559235696	 0.42695
O	 1.6097496642	 0.2780860684	 1.3880205537	-0.38751
C	 1.0657542799	-1.9515098025	 0.7212549802	-0.124737
C	 2.5173338284	-2.403423131	 0.349352687	-0.338831
C	 2.479135292	-3.3281156455	 1.573281813	 0.396959
O	 3.1057148788	-4.2894381711	 1.9079618174	-0.288764
C	 1.234224316	-2.6213283449	 2.1257099429	-0.338833
H	-0.5108081341	 1.7888043935	-1.0620003564	 0.128537
H	-1.5468056237	 1.613091932	 0.3748708348	 0.128547
H	 0.1883393955	 1.9659195835	 0.5664571628	 0.174808
H	-0.778609977	-0.6466924117	-0.4515031106	 0.247367
H	 0.3148932662	-2.4654078949	 0.115857494	 0.070111
H	 2.6935757914	-2.8621564687	-0.6256673942	 0.125767
H	 3.2231225054	-1.5811502052	 0.5078724368	 0.157418
H	 1.5147652592	-1.8713127342	 2.8728123052	 0.157421
H	 0.4271923306	-3.2472412319	 2.5118584973	 0.125767
30.1035	67.7858	83.4424	128.7793	220.7555	234.6695	303.4292	370.9237	434.4852	460.1201	495.5947	629.9324	658.4253	709.8545	770.8264	804.2526	907.9189	922.4283	977.7953	1011.0401	1064.6109	1086.0564	1102.6481	1153.9539	1169.9371	1195.9827	1202.5178	1222.9609	1242.4763	1244.5785	1380.0136	1419.2122	1438.4454	1439.702	1493.3233	1499.7294	1562.336	1768.7557	1900.4657	3029.8421	3057.7221	3062.5764	3072.1131	3082.746	3128.5049	3129.2453	3156.6081	3650.8974
CNC(=O)C1CC(=O)C1	CNC(=O)C1CC(=O)C1	
InChI=1S/C6H9NO2/c1-7-6(9)4-2-5(8)3-4/h4H,2-3H2,1H3,(H,7,9)	InChI=1S/C6H9NO2/c1-7-6(9)4-2-5(8)3-4/h4H,2-3H2,1H3,(H,7,9)
