20
gdb 55648	3.05435	1.02758	0.93104	3.208	76.92	-0.2534	-0.0278	0.2256	1349.5062	0.166259	-440.312053	-440.301225	-440.300281	-440.348657	38.2	
C	-0.0820928243	 1.5015035388	-0.1808918651	-0.456726
C	-0.0457259932	 0.0308946991	 0.1579411865	 0.398087
N	-0.1230716128	-0.507555299	 1.3052297757	-0.515191
O	 0.0880781126	-0.6820089614	-0.9804075607	-0.297747
C	 0.1615481569	-2.129402267	-0.9925873979	 0.280015
C	 1.3977653715	-2.6597367853	-0.2620532645	-0.4232
C	-1.1426225858	-2.7733129983	-0.497151033	-0.425666
C	 0.2834697946	-2.4303850847	-2.4921164534	 0.145284
O	 0.5545624689	-3.5148616002	-2.9334863492	-0.257942
H	 0.8372121833	 1.7910806697	-0.6987974591	 0.147671
H	-0.9145336698	 1.7109707769	-0.859394384	 0.147002
H	-0.1923414348	 2.1077275928	 0.7194716695	 0.127503
H	-0.21923886	 0.2061358503	 2.0237149283	 0.221424
H	 1.2766747009	-2.5653033545	 0.8160964484	 0.151642
H	 1.5347980926	-3.7088322706	-0.5353855774	 0.138624
H	 2.2895984127	-2.1063109346	-0.571158091	 0.117397
H	-2.0053413793	-2.3519523781	-1.0228413869	 0.117119
H	-1.1036170348	-3.8462122867	-0.7031422785	 0.136626
H	-1.2618102024	-2.6055643462	 0.5726074674	 0.158219
H	 0.0765777032	-1.554768971	-3.1453708953	 0.08986
32.165	76.2999	115.5376	125.1709	163.5394	212.3008	249.7972	285.7129	301.0946	312.0093	362.9685	414.4152	424.0853	558.9946	573.1877	678.5446	764.2877	849.3585	850.2185	921.6553	948.9972	961.3648	990.1068	1044.3101	1050.3267	1067.3378	1117.3518	1192.9759	1209.0699	1265.5305	1372.042	1381.3072	1389.6637	1408.5631	1416.0973	1470.8711	1474.2963	1481.556	1493.0729	1494.7775	1515.9495	1725.1502	1840.9693	2899.8371	3047.595	3048.9538	3053.4084	3113.0974	3118.9395	3125.1704	3144.0939	3162.5806	3167.1657	3515.4295
CC(=N)OC(C)(C)C=O	C[C]([NH])OC(C)(C)C=O	
InChI=1S/C6H11NO2/c1-5(7)9-6(2,3)4-8/h4,7H,1-3H3	InChI=1S/C6H11NO2/c1-5(7)9-6(2,3)4-8/h4,7H,1-3H3
