17
gdb 44686	3.29625	1.45011	1.11674	4.5034	72.9	-0.2651	-0.0069	0.2581	1070.4755	0.138505	-421.8699	-421.862736	-421.861792	-421.901792	27.773	
O	-0.1713663406	 0.1193984119	 0.3524378618	-0.330245
C	-0.0441771076	 1.2557696603	 0.0255440171	 0.453528
O	-1.0125487304	 2.1043667564	-0.446496772	-0.263194
C	-0.0326902987	 3.204347049	-0.6052384555	 0.095258
C	-0.3566777276	 4.4381803606	 0.1616453086	-0.086173
C	 0.5027148377	 4.9469148268	 1.0456503284	-0.043711
C	 1.7921478897	 4.2590431679	 1.4209098137	-0.264229
C	 1.6463085898	 2.7301298329	 1.3344415395	-0.225173
C	 1.0768723553	 2.2985798484	-0.0281185583	-0.229447
H	 0.0647250939	 3.4121555061	-1.675774248	 0.104887
H	-1.28980999	 4.9409120045	-0.0756326607	 0.106213
H	 0.275395017	 5.890922095	 1.5339427321	 0.10211
H	 2.6082980743	 4.6048793871	 0.7702911659	 0.118418
H	 2.0825440258	 4.542459433	 2.4379471879	 0.114329
H	 2.6039168055	 2.2346512633	 1.5143357605	 0.114669
H	 0.9690818255	 2.4062638969	 2.1312376568	 0.124704
H	 1.8657167902	 2.0491611898	-0.7407746278	 0.108057
84.6786	152.3099	224.0467	294.812	391.7913	465.3533	486.1893	554.474	680.3382	712.0106	749.4087	790.8761	814.0934	876.5983	909.3215	914.3371	977.6664	994.4852	1006.3349	1060.9238	1070.6476	1120.9813	1135.9217	1161.156	1190.3637	1234.616	1253.837	1304.6884	1330.87	1351.5817	1361.2763	1383.7237	1418.2974	1480.1211	1497.7273	1712.0114	1931.9259	3008.6251	3051.8873	3054.142	3070.6534	3087.9179	3105.0674	3157.679	3180.906
O=C1OC2C=CCCC12	O=C1O[C@H]2C=CCC[C@@H]12	
InChI=1S/C7H8O2/c8-7-5-3-1-2-4-6(5)9-7/h2,4-6H,1,3H2	InChI=1S/C7H8O2/c8-7-5-3-1-2-4-6(5)9-7/h2,4-6H,1,3H2/t5-,6+/m1/s1
