15
gdb 133680	3.12622	0.9547	0.86352	1.9843	58.11	-0.3331	0.023	0.3561	1287.5925	0.107995	-548.344593	-548.335485	-548.334541	-548.37939	31.96	
C	-0.0194409475	 1.5799790651	-0.0472108876	-0.419588
C	-0.0005860045	 0.0495731515	 0.0170402421	-0.133138
C	 0.7610483193	-0.4897776535	 1.2515062496	-0.356752
C	 2.1715836814	-0.1146018898	 1.2360112249	 0.263559
N	 3.2858761247	 0.1893609472	 1.2077878898	-0.3032
C	-1.4162879359	-0.5161075772	 0.0301464907	 0.293435
F	-2.1122012151	-0.114381335	-1.0403136762	-0.074292
F	-1.4078636891	-1.8599337194	 0.0240585584	-0.083374
F	-2.0932344864	-0.127853432	 1.1248827821	-0.086545
H	 1.0017961846	 1.9667275283	-0.0723762852	 0.15311
H	-0.5411770231	 1.922110187	-0.9432180936	 0.142934
H	-0.5266134724	 1.9993672075	 0.8266964435	 0.137835
H	 0.4712066159	-0.3521892278	-0.8857962399	 0.129525
H	 0.301226347	-0.1043176211	 2.1679469195	 0.166957
H	 0.6879978112	-1.5808982307	 1.289009032	 0.169534
58.819	69.0467	131.8855	214.2531	217.0327	255.9177	312.7898	386.2714	393.108	434.5276	499.7012	570.2209	581.1007	670.8293	813.1238	875.8976	904.7745	968.0392	1031.5581	1102.2929	1124.9385	1171.1063	1212.3246	1247.0203	1281.2225	1312.0821	1355.1525	1395.3216	1419.8848	1470.2607	1497.2985	1507.2642	2365.811	3054.8015	3055.9075	3068.8571	3102.964	3129.8789	3140.8608
CC(CC#N)C(F)(F)F	C[C@@H](CC#N)C(F)(F)F	
InChI=1S/C5H6F3N/c1-4(2-3-9)5(6,7)8/h4H,2H2,1H3	InChI=1S/C5H6F3N/c1-4(2-3-9)5(6,7)8/h4H,2H2,1H3/t4-/m0/s1
