16
gdb 101989	3.34462	0.69971	0.59578	4.1003	85.85	-0.2732	-0.0645	0.2087	1776.0985	0.121678	-400.747973	-400.738061	-400.737116	-400.784259	33.481	
C	-0.0143601268	 1.561309454	 0.0581034792	-0.396822
C	-0.0192063611	 0.0344439311	-0.0348132471	-0.191754
C	-1.4563450408	-0.5697852752	 0.0226447646	-0.27747
C	-2.2179518718	-0.1811465802	-1.2555378902	 0.170323
O	-3.0485710316	 0.6824748314	-1.2965623499	-0.229791
C	-1.4235698721	-2.0156926755	 0.1512918099	 0.060393
C	-1.3995007877	-3.2222437409	 0.2215129965	 0.091544
C	-1.3676855796	-4.5840687429	 0.311489905	 0.207032
N	-1.3388499173	-5.7429595491	 0.3868289601	-0.331382
H	 1.0100212613	 1.939145261	-0.0010235374	 0.127524
H	-0.5912936271	 2.0219598981	-0.7487493778	 0.141055
H	-0.4432878075	 1.8998848801	 1.0066783129	 0.130287
H	 0.4630534674	-0.3006841472	-0.9606723355	 0.122507
H	 0.5567201248	-0.400135993	 0.7877463259	 0.130345
H	-2.0002021443	-0.1309258131	 0.8673607469	 0.141856
H	-1.9048650859	-0.7487129087	-2.1586978132	 0.104354
49.6876	71.4625	80.3753	110.2362	200.4958	217.8102	232.2852	300.4245	341.6779	449.0989	465.5941	492.9124	577.0735	581.6388	771.9533	784.3018	870.111	945.0694	1009.1475	1050.7102	1098.5494	1131.66	1179.64	1239.6583	1294.2927	1317.2773	1358.1075	1415.7802	1420.3534	1488.654	1496.7008	1504.1749	1840.4103	2263.3136	2397.4701	2901.3176	3040.4969	3044.4817	3053.2939	3085.1529	3115.0332	3122.6505
CCC(C=O)C#CC#N	CC[C@@H](C=O)C#CC#N	
InChI=1S/C7H7NO/c1-2-7(6-9)4-3-5-8/h6-7H,2H2,1H3	InChI=1S/C7H7NO/c1-2-7(6-9)4-3-5-8/h6-7H,2H2,1H3/t7-/m1/s1
