17
gdb 35050	2.33818	1.6717	1.56024	4.6107	76.86	-0.2227	-0.0022	0.2205	964.5263	0.139076	-380.866939	-380.85948	-380.858536	-380.898808	29.113	
N	 0.2531965245	-1.2593153282	 0.2620795064	-0.355437
C	 0.164183578	-0.1069286615	 0.2021584609	 0.320081
C	 0.0228801649	 1.3153920031	 0.1033912076	-0.214534
C	 0.4504382059	 2.2915474626	 1.1821565933	-0.001649
N	 1.0314773763	 1.883840368	 2.4314516084	-0.30488
C	 2.1479537078	 0.91784664	 2.34948998	-0.247158
C	 3.0439135981	 1.1048318177	 1.1515222737	-0.062401
C	 2.6241244245	 1.6999275612	 0.0329356025	-0.057316
C	 1.2524197534	 2.2417383589	-0.0984431162	-0.117335
H	-0.8667345544	 1.609601833	-0.4450919994	 0.136818
H	-0.2318805004	 3.1254476767	 1.312887932	 0.110387
H	 1.3704690054	 2.7264513693	 2.8835572909	 0.229517
H	 2.7231088154	 1.0095141138	 3.2766736641	 0.110475
H	 1.7364576141	-0.0983803196	 2.3517459602	 0.15696
H	 4.055067139	 0.7139798923	 1.2183937687	 0.099733
H	 3.2883819371	 1.8119371755	-0.8182788363	 0.096874
H	 1.1032885402	 3.0137960173	-0.8458255768	 0.099865
115.9343	136.7206	177.8113	281.732	374.8989	441.9593	497.6034	541.2273	609.0224	634.7306	721.8248	744.575	765.2666	785.9924	827.5965	884.0216	916.8165	965.995	988.803	1007.9766	1037.8651	1057.5023	1078.4738	1123.5875	1160.6289	1198.5935	1250.9366	1270.7243	1352.8055	1359.6223	1379.4047	1418.6999	1429.2287	1490.823	1504.4674	1707.002	2348.455	3038.9515	3072.1917	3154.0491	3155.3719	3162.7463	3169.2349	3184.7365	3520.569
N#CC1C2NCC=CC12	N#C[C@H]1[C@H]2NCC=C[C@@H]12	
InChI=1S/C7H8N2/c8-4-6-5-2-1-3-9-7(5)6/h1-2,5-7,9H,3H2	InChI=1S/C7H8N2/c8-4-6-5-2-1-3-9-7(5)6/h1-2,5-7,9H,3H2/t5-,6+,7-/m0/s1
