18
gdb 109455	2.30377	1.4968	1.01112	1.8049	73.58	-0.2295	-0.0327	0.1968	1189.5135	0.145778	-439.043235	-439.034281	-439.033337	-439.077332	32.561	
C	-0.2939587871	 1.4722853874	-0.1140975376	-0.248081
O	-0.2861203785	 0.1966857682	 0.5102264183	-0.246411
C	-1.3249435989	-0.6313831192	 0.0916629636	-0.034903
C	-1.2252865732	-1.3741414303	-1.2715894409	 0.37161
O	-0.8466144682	-1.0493320041	-2.3592713483	-0.297515
C	-1.6421200852	-2.7088742554	-0.6227773124	-0.425214
C	-1.3859782575	-2.0274234967	 0.7311945963	 0.300626
C	-0.5164054922	-2.4768514823	 1.8356159193	-0.287085
N	-1.9853634171	-2.399485868	 2.001842882	-0.374583
H	 0.5452321527	 2.0334649349	 0.3020066332	 0.131555
H	-0.1743098667	 1.3871190773	-1.2000398233	 0.143729
H	-1.2288784815	 2.0128551422	 0.0998531505	 0.107183
H	-2.3045557451	-0.1193480207	 0.1585480713	 0.085714
H	-2.6953565052	-2.9532991436	-0.7990799263	 0.140732
H	-1.0285090725	-3.574827995	-0.8812881853	 0.140066
H	-0.111903003	-3.4853334467	 1.8286269531	 0.122641
H	 0.1054576146	-1.727684286	 2.3162844916	 0.133843
H	-2.2286309254	-1.5654870019	 2.532466165	 0.236093
68.7921	91.5151	152.7837	173.634	235.2229	257.9208	313.2838	366.4267	417.0467	502.1839	522.6503	606.9844	729.6702	788.2433	829.5088	909.5099	944.6693	963.4562	986.8928	1024.0647	1055.6496	1070.8223	1100.8312	1125.8689	1163.9277	1178.0191	1185.5863	1235.1036	1240.6731	1265.8792	1289.5826	1370.321	1414.3944	1442.284	1479.3763	1485.8179	1512.4313	1513.1726	1891.6451	2918.0083	2988.2467	3054.8757	3069.7798	3113.7468	3116.4915	3129.2551	3205.7013	3487.4102
COC1C(=O)CC11CN1	CO[C@H]1C(=O)C[C@]21CN2	
InChI=1S/C6H9NO2/c1-9-5-4(8)2-6(5)3-7-6/h5,7H,2-3H2,1H3	InChI=1S/C6H9NO2/c1-9-5-4(8)2-6(5)3-7-6/h5,7H,2-3H2,1H3/t5-,6+/m0/s1
