17
gdb 98001	6.5939	0.43527	0.42129	4.878	76.57	-0.2587	0.0044	0.2632	2449.4227	0.132854	-458.942752	-458.932205	-458.931261	-458.981739	34.321	
O	 0.2343625255	 0.2468470132	 1.1923023754	-0.409248
C	-0.2337480331	 0.3301432758	-0.1480499065	-0.213865
C	-1.492158915	-0.3949873837	-0.271306606	 0.127032
C	-2.5395834122	-0.9751943848	-0.3914589194	 0.029167
C	-3.7815420959	-1.7256461563	-0.5166809773	-0.346612
C	-3.5659850289	-3.2232309128	-0.2547425395	-0.082267
O	-4.7908777191	-3.9327220024	-0.4565898169	-0.170795
C	-5.4325312386	-4.4141363743	 0.6265633431	 0.169075
O	-6.4758621794	-4.9885036898	 0.5567932022	-0.269868
H	 1.0600522956	 0.7396813673	 1.2389770859	 0.291536
H	-0.3943392072	 1.3774888496	-0.4517734555	 0.120485
H	 0.4978809142	-0.0961039075	-0.8538086522	 0.118076
H	-4.5330387627	-1.3434266598	 0.1855660804	 0.140459
H	-4.2045955542	-1.6031817426	-1.5208093869	 0.150439
H	-2.8377102295	-3.6341343776	-0.9578178586	 0.138204
H	-3.1900416412	-3.3843891572	 0.762456188	 0.1276
H	-4.8820025383	-4.2232028672	 1.5691877239	 0.080581
16.9021	41.6829	45.8854	87.9881	144.1319	166.1741	227.9622	279.53	324.4367	347.0456	391.3209	459.6933	560.7402	676.5592	780.4991	791.3009	1027.164	1034.5804	1039.9012	1047.6569	1050.6637	1078.3793	1152.257	1158.1003	1246.754	1256.0755	1267.2785	1311.9622	1326.645	1403.5249	1431.6384	1460.6386	1473.4748	1503.1092	1506.4139	1869.6733	2375.688	2941.5915	2963.6107	2982.0204	3028.3222	3041.5868	3065.4877	3112.3103	3817.9619
OCC#CCCOC=O	OCC#CCCOC=O	
InChI=1S/C6H8O3/c7-4-2-1-3-5-9-6-8/h6-7H,3-5H2	InChI=1S/C6H8O3/c7-4-2-1-3-5-9-6-8/h6-7H,3-5H2
