13
gdb 10590	3.09961	1.7886	1.32609	3.0803	60.58	-0.2875	-0.072	0.2155	906.7922	0.09263	-398.593002	-398.585043	-398.584099	-398.62534	27.696	
C	 0.147837061	 1.5290841398	 0.0218694484	-0.442224
C	 0.039464727	 0.0336445264	 0.1160541008	 0.045878
O	 1.1950304201	-0.7427158074	-0.1427341511	-0.244109
C	 0.698616421	-0.7905773494	 1.1907795529	 0.146591
C	 1.534675069	-0.1349046592	 2.2696718727	 0.099665
O	 2.3718064544	 0.6953956131	 2.0453006416	-0.233674
C	 0.0655658807	-2.03255353	 1.5935911321	 0.23766
N	-0.4335963095	-3.0086447952	 1.959332583	-0.311847
H	 1.0790590244	 1.8869743195	 0.4603628517	 0.172721
H	 0.1207296908	 1.8199572725	-1.03331201	 0.147318
H	-0.703407234	 2.0013371463	 0.5218555102	 0.137428
H	-0.8790224542	-0.406158801	-0.2765392633	 0.127321
H	 1.2950779594	-0.4823155152	 3.2954641912	 0.117272
131.5222	148.361	162.2892	187.7988	217.8239	272.7969	358.4821	462.0651	524.3959	539.9523	584.8547	748.2364	815.06	868.2612	980.3592	1033.2891	1038.1924	1120.9752	1148.68	1204.131	1319.6998	1396.6511	1419.4927	1440.3343	1487.9521	1497.8062	1833.6692	2357.2848	2930.2728	3048.5214	3104.2598	3111.3142	3165.0055
CC1OC1(C=O)C#N	C[C@H]1O[C@]1(C=O)C#N	
InChI=1S/C5H5NO2/c1-4-5(2-6,3-7)8-4/h3-4H,1H3	InChI=1S/C5H5NO2/c1-4-5(2-6,3-7)8-4/h3-4H,1H3/t4-,5+/m1/s1
