18
gdb 93182	2.49113	1.56563	1.15509	5.5265	74.65	-0.231	-0.0267	0.2042	1097.6193	0.1506	-435.320135	-435.311815	-435.310871	-435.353071	31.773	
C	-0.2038126365	 1.562244816	-0.0775000906	-0.388295
C	 0.0149964142	 0.0433027698	 0.0046314705	 0.01049
C	 0.7746598456	-0.5210926174	-1.1995862945	-0.160339
N	 2.1780029167	-0.1416592186	-1.1258926479	-0.334595
C	 2.896247566	-0.0838818469	 0.0308346272	 0.369297
O	 4.1015262031	 0.0762855681	 0.0585720548	-0.369803
C	 2.0946412012	-0.1980569676	 1.3268729248	 0.261132
N	 2.6668094673	-0.1694902206	 2.464191181	-0.5127
N	 0.7319845321	-0.3785220726	 1.202594992	-0.329052
H	 0.7468999595	 2.0948219814	-0.1693916763	 0.138341
H	-0.8286114368	 1.8191030719	-0.9395143242	 0.117261
H	-0.7076534498	 1.9220249322	 0.8244433181	 0.123262
H	-0.9628926977	-0.450446781	 0.0257896137	 0.095522
H	 0.6630716486	-1.6138450396	-1.2177731899	 0.121619
H	 0.3528748312	-0.1238133715	-2.1271237905	 0.119064
H	 2.7330048833	-0.135423023	-1.9697756896	 0.253982
H	 3.6727325418	-0.0845848353	 2.3043277275	 0.239111
H	 0.2430955502	-0.2908073253	 2.0837052339	 0.245704
91.8503	96.2298	206.9237	225.2075	339.0576	356.8966	399.7548	422.7294	496.6351	517.0365	552.1133	607.1357	645.5129	707.6159	802.6708	806.6092	830.7138	915.5027	930.616	1009.1272	1045.2013	1063.0995	1132.9148	1141.4859	1203.1311	1270.243	1307.8743	1322.1705	1376.5292	1395.3014	1410.5739	1449.6131	1462.9989	1474.3161	1491.6212	1501.9391	1514.3568	1720.5788	1795.4433	3008.9863	3037.6876	3047.1978	3086.3053	3108.7133	3122.2907	3467.8227	3582.1354	3605.2137
CC1CNC(=O)C(=N)N1	C[C@H]1CNC(=O)[C]([NH])N1	
InChI=1S/C5H9N3O/c1-3-2-7-5(9)4(6)8-3/h3H,2H2,1H3,(H2,6,8)(H,7,9)	InChI=1S/C5H9N3O/c1-3-2-7-5(9)4(6)8-3/h3H,2H2,1H3,(H2,6,8)(H,7,9)/t3-/m0/s1
