15
gdb 21522	3.56302	1.83655	1.2745	2.5225	63.54	-0.2007	0.0355	0.2362	911.5074	0.121612	-395.991304	-395.983793	-395.982849	-396.022967	28.107	
N	-0.3225604313	 1.1880747299	-0.4880504624	-0.606376
C	-0.1910179903	-0.1454522199	-0.1214434401	 0.320629
C	-1.156637869	-1.0371476147	 0.3323351592	 0.113101
C	-2.6126942302	-0.7356559703	 0.4751439241	-0.204777
O	-3.1353270049	-0.0222647241	-0.6575698114	-0.416578
C	-0.4263984638	-2.2178259144	 0.606101533	-0.0891
N	 0.8693501643	-2.0937303511	 0.358205618	-0.246188
N	 0.9884195941	-0.809607053	-0.0873032934	-0.255793
H	 0.3052839433	 1.4847480075	-1.2241922587	 0.244471
H	-1.2858050019	 1.385003521	-0.7381961595	 0.265529
H	-3.1772752133	-1.6622793894	 0.6521997153	 0.103127
H	-2.8143231796	-0.0716095059	 1.3241280764	 0.121004
H	-2.9596951325	-0.5686556115	-1.4319688765	 0.281335
H	-0.8098797311	-3.1582149159	 0.9780966189	 0.104266
H	 1.899392796	-0.4611918382	-0.3320016231	 0.265349
98.637	173.6558	222.592	282.5259	330.9364	393.5745	412.3634	450.5999	458.2718	667.1135	671.8044	724.4087	744.9394	799.8408	888.3719	948.7208	971.5155	1018.2084	1090.3474	1115.3538	1184.0375	1244.5505	1247.4952	1338.6746	1362.0371	1393.6875	1424.8236	1457.508	1507.264	1576.501	1625.6177	1667.2204	3002.3283	3049.8858	3229.9332	3518.0754	3614.807	3674.5254	3798.8642
NC1=C(CO)C=NN1	Nc1c(CO)cn[nH]1	
InChI=1S/C4H7N3O/c5-4-3(2-8)1-6-7-4/h1,8H,2H2,(H3,5,6,7)	InChI=1S/C4H7N3O/c5-4-3(2-8)1-6-7-4/h1,8H,2H2,(H3,5,6,7)
