23
gdb 36847	4.19687	0.90199	0.8549	0.2415	89.82	-0.2413	0.0885	0.3298	1473.3976	0.206671	-351.115369	-351.106602	-351.105658	-351.149422	34.255	
C	-0.0500320772	 1.4632363318	-0.3454962346	-0.351943
C	-0.1279995276	-0.0364600376	-0.1189458569	 0.048719
C	-0.3391613754	-0.5951668228	 1.2648977932	-0.249568
C	-1.4384285502	-0.6915431907	 0.233643859	-0.280519
C	 1.3391501561	 2.0196143525	-0.1743018579	 0.411668
C	 1.9098948006	 2.4273125624	 1.1568756624	-0.312241
C	 1.816682516	 3.4583952476	 0.0630874887	-0.11689
C	 2.969130779	 3.268474565	-0.9282072773	-0.217926
C	 2.4954283169	 1.7967818736	-1.1664387974	-0.285082
H	-0.4129102131	 1.6947882503	-1.3575217408	 0.09252
H	-0.7351092204	 1.9679498457	 0.348795842	 0.088234
H	 0.5281954657	-0.6160813337	-0.7640030154	 0.082251
H	 0.1849177818	-1.5016560204	 1.5472205291	 0.107744
H	-0.4717633014	 0.109227959	 2.0797020706	 0.107617
H	-2.3064333654	-0.0515793476	 0.3580814168	 0.107062
H	-1.6646132367	-1.6635800919	-0.1909035538	 0.107792
H	 1.1839866549	 2.5338394889	 1.9573361623	 0.10323
H	 2.8809574139	 2.0614834954	 1.4865307804	 0.097205
H	 1.2286697763	 4.3613705043	 0.1838026435	 0.078542
H	 2.8738351449	 3.8823886952	-1.8267132998	 0.099984
H	 3.9773978591	 3.4037025969	-0.5217368661	 0.092595
H	 3.2024700107	 0.999540654	-0.9130115317	 0.091345
H	 2.1480635817	 1.6378510521	-2.1911555762	 0.097659
55.2141	78.0178	119.6618	212.0801	295.2105	337.1129	345.4477	405.1434	438.638	670.2971	724.7365	772.1527	786.3145	800.4339	828.6953	851.3775	881.3409	894.2616	928.4865	948.8343	968.927	971.9789	981.3254	1024.2876	1032.8781	1053.2073	1076.5851	1081.2142	1090.09	1124.3984	1139.8461	1159.1887	1197.6279	1216.9157	1223.4259	1234.6247	1241.7031	1264.6924	1277.7122	1317.6242	1338.2555	1395.1631	1419.7437	1468.3613	1478.1249	1482.3567	1486.1187	1507.4477	1513.3445	2996.9113	3035.9902	3038.4196	3044.4381	3085.5259	3095.8054	3106.5996	3126.316	3130.5406	3134.6827	3169.289	3190.1428	3203.5857	3219.0296
C(C1CC1)C12CC1CC2	C(C1CC1)[C@]12C[C@H]1CC2	
InChI=1S/C9H14/c1-2-7(1)5-9-4-3-8(9)6-9/h7-8H,1-6H2	InChI=1S/C9H14/c1-2-7(1)5-9-4-3-8(9)6-9/h7-8H,1-6H2/t8-,9-/m1/s1
