20
gdb 126930	3.17617	1.01295	0.78057	2.4029	83.26	-0.1851	0.0378	0.2229	1484.0071	0.171729	-399.351161	-399.341515	-399.340571	-399.386113	35.025	
C	-0.0515783661	 1.5484751111	 0.0209926917	-0.401657
C	-0.0562328693	 0.0263846298	-0.0712702413	-0.105871
N	 0.8088973906	-0.432546201	-1.1475963485	-0.404489
C	 0.8642835965	-1.8087763945	-1.3892475913	 0.182892
C	 0.4220765899	-2.8516997215	-0.5965468887	-0.118114
N	 0.7711705797	-3.99420395	-1.2555605167	-0.199635
N	 1.397314849	-3.7634462362	-2.418937321	-0.283259
C	 1.4652259881	-2.4365209936	-2.5159969668	 0.278304
C	 2.1079404102	-1.7692152174	-3.6885316472	-0.508877
H	 0.9641541587	 1.9243655224	 0.1740163602	 0.130099
H	-0.4466235273	 2.0006807344	-0.8963567157	 0.114848
H	-0.6774360854	 1.8869518356	 0.8513953565	 0.120009
H	 0.322126008	-0.4003423202	 0.8667489831	 0.109008
H	-1.0916210189	-0.3426276107	-0.1857874335	 0.086746
H	 0.6679482879	 0.0973024314	-1.9987877104	 0.225921
H	-0.0893847635	-2.8735455441	 0.3510911723	 0.120416
H	 0.6188239317	-4.9424789556	-0.961996398	 0.268144
H	 1.3895111942	-1.1741101432	-4.2677178217	 0.115914
H	 2.908263559	-1.0897237826	-3.3727453062	 0.128446
H	 2.5340270471	-2.521546804	-4.3555012368	 0.141152
69.0403	82.5711	121.7474	130.93	248.0571	255.1594	263.6787	329.9688	344.9193	413.7524	483.8819	594.0075	649.3386	667.7455	698.9926	743.2342	812.0161	829.0055	928.4444	945.5107	1001.8964	1064.9861	1069.9528	1089.2585	1138.2684	1156.5623	1207.5618	1232.5828	1290.7518	1337.0208	1371.2053	1400.5015	1412.2658	1417.6712	1469.1071	1477.1358	1482.0444	1493.1402	1496.198	1500.9145	1527.0769	1549.6215	1635.3861	2936.4073	3016.1936	3028.0675	3035.6193	3064.9429	3101.2379	3121.7398	3129.9203	3273.4322	3548.9296	3690.9188
CCNC1=CNN=C1C	CCNc1c[nH]nc1C	
InChI=1S/C6H11N3/c1-3-7-6-4-8-9-5(6)2/h4,7H,3H2,1-2H3,(H,8,9)	InChI=1S/C6H11N3/c1-3-7-6-4-8-9-5(6)2/h4,7H,3H2,1-2H3,(H,8,9)
