13
gdb 46029	2.53305	1.4663	1.19119	2.8973	64.68	-0.2416	-0.107	0.1347	1033.6017	0.086744	-456.534339	-456.526288	-456.525344	-456.56756	28.916	
O	 0.0162511783	 0.0999592733	 0.3764589548	-0.261042
C	 0.0225898497	 1.2822293074	 0.1830475979	 0.302379
C	-1.1004804293	 2.2927442934	 0.3335878653	-0.201667
O	-0.6667236251	 3.4412606285	-0.397271034	-0.245442
C	 0.7537627386	 3.5752410649	-0.2646378542	-0.206607
C	 1.1505572442	 4.2438294733	 0.9721532154	 0.332659
C	 1.4681030017	 4.7467078841	 2.0165723177	-0.440581
C	 1.2548243773	 2.1165946605	-0.2757251602	 0.313835
O	 2.3332154124	 1.6945338792	-0.5696926329	-0.260742
H	-2.0358216921	 1.9359782763	-0.102501659	 0.157257
H	-1.2670104564	 2.5239790258	 1.3970475145	 0.142812
H	 1.1174289616	 4.114628421	-1.1434234963	 0.150726
H	 1.755677329	 5.2103502622	 2.928574291	 0.216415
58.6649	113.8498	142.3271	236.487	302.3488	339.7337	424.9954	465.8964	541.964	627.8267	644.7074	663.0437	669.8651	691.4397	763.8633	921.7575	956.0312	1000.9527	1053.8404	1072.7395	1145.3081	1210.298	1234.854	1312.9724	1344.9574	1467.2518	1863.2123	1880.2773	2230.5433	2995.9267	3083.6406	3116.2105	3498.5524
O=C1COC(C#C)C1=O	O=C1CO[C@@H](C#C)C1=O	
InChI=1S/C6H4O3/c1-2-5-6(8)4(7)3-9-5/h1,5H,3H2	InChI=1S/C6H4O3/c1-2-5-6(8)4(7)3-9-5/h1,5H,3H2/t5-/m0/s1
