19
gdb 118393	1.62964	1.22502	0.73091	2.8905	77.59	-0.2438	-0.0435	0.2003	1529.9307	0.156971	-419.221572	-419.211139	-419.210195	-419.258641	35.708	
C	-0.0839826985	 1.8227381282	-0.3898686774	-0.388736
C	-0.3012730882	 0.3483786581	-0.7165885759	-0.123293
N	 0.98714497	-0.3464600953	-0.8102056918	-0.302791
C	 0.9694379415	-1.7851280176	-0.9709614938	-0.079631
C	 0.6829220767	-2.3598226094	-2.3840701805	-0.346596
C	-0.7078246401	-2.2304681039	-2.8025549208	 0.264239
N	-1.8142744308	-2.1345519468	-3.1236922521	-0.313758
C	 2.3057037682	-2.3319680518	-0.4571166466	 0.155919
O	 2.9251716739	-3.2275666258	-0.9680556241	-0.241074
H	 0.4816553681	 1.9353140364	 0.5393180483	 0.126756
H	 0.4728138334	 2.3259894508	-1.1888857441	 0.115002
H	-1.043243301	 2.3372166748	-0.2838813809	 0.124701
H	-0.8709964167	-0.1303885729	 0.0891871737	 0.111032
H	-0.9096956482	 0.2552657815	-1.6281756726	 0.118963
H	 1.5732204109	 0.0880481	-1.5161691171	 0.219177
H	 0.212976494	-2.177820554	-0.274491417	 0.129061
H	 1.3282076579	-1.8629325558	-3.1175509405	 0.149815
H	 0.9675984911	-3.4170527214	-2.3954152544	 0.176054
H	 2.6617799879	-1.800040335	 0.4500120674	 0.105159
41.0158	69.7898	77.2977	90.362	148.2882	211.1153	241.3234	259.414	346.021	391.2714	393.838	443.3509	535.8881	653.9246	716.6162	808.9346	834.3145	867.3673	927.6774	970.6607	1037.6756	1053.564	1075.312	1132.8083	1163.7142	1168.5855	1245.1353	1262.2351	1298.7163	1329.4506	1345.5357	1385.5686	1401.1235	1418.6654	1453.9081	1485.0444	1496.6922	1509.0073	1522.5445	1830.3153	2357.8446	2923.1669	2998.5016	3008.7372	3034.7721	3049.2867	3050.9378	3093.6558	3102.7138	3123.662	3515.095
CCNC(CC#N)C=O	CCN[C@@H](CC#N)C=O	
InChI=1S/C6H10N2O/c1-2-8-6(5-9)3-4-7/h5-6,8H,2-3H2,1H3	InChI=1S/C6H10N2O/c1-2-8-6(5-9)3-4-7/h5-6,8H,2-3H2,1H3/t6-/m0/s1
