14
gdb 75133	3.17045	1.31729	0.99257	4.2415	69.59	-0.2611	-0.0802	0.1809	1123.0338	0.101983	-432.91603	-432.907931	-432.906987	-432.949117	29.473	
N	 0.0105225236	 1.3480052203	 0.2130591873	-0.567107
C	-0.0657070178	 0.0040590572	 0.0737256733	 0.303127
N	-1.1208513207	-0.7238728258	 0.118712564	-0.277443
C	-0.7702765938	-2.1317555241	-0.0671760078	-0.184788
C	 0.7848752683	-2.240966903	-0.0808317129	-0.285763
C	 1.343688241	-3.055671519	-1.1456519682	 0.286196
N	 1.7665945868	-3.707139449	-2.0013965694	-0.316165
C	 1.2133441715	-0.7580694582	-0.1423216993	 0.347276
O	 2.3053276436	-0.2904468945	-0.3122709953	-0.298416
H	 0.8828886559	 1.782594566	-0.0423687999	 0.277519
H	-0.8314332739	 1.8949271963	 0.1438868689	 0.272791
H	-1.2061067901	-2.7331925704	 0.7361533346	 0.131793
H	-1.1961502191	-2.4963428728	-1.0078208115	 0.145212
H	 1.1465486747	-2.626989113	 0.8805206561	 0.165768
52.7178	136.8329	201.9818	252.6668	280.806	339.2143	403.9094	442.2701	492.6313	511.9045	586.5505	617.7477	680.4869	715.5085	830.2515	914.0372	972.5747	1016.0332	1035.8043	1097.5958	1160.8422	1192.0337	1225.6281	1292.7424	1345.4107	1418.7092	1499.1058	1610.7633	1729.0903	1849.0932	2361.6875	3042.3898	3050.6668	3086.9244	3597.2462	3721.7107
NC1=NCC(C#N)C1=O	NC1=NC[C@@H](C#N)C1=O	
InChI=1S/C5H5N3O/c6-1-3-2-8-5(7)4(3)9/h3H,2H2,(H2,7,8)	InChI=1S/C5H5N3O/c6-1-3-2-8-5(7)4(3)9/h3H,2H2,(H2,7,8)/t3-/m1/s1
