20
gdb 87009	5.40009	0.65413	0.62274	2.9117	77.65	-0.2493	0.032	0.2813	1766.2429	0.170654	-440.296996	-440.287352	-440.286408	-440.333593	34.618	
O	 0.1724093497	 1.1794538912	-0.3947307048	-0.430804
C	 0.1326533721	-0.1635483441	 0.0243700106	 0.152414
C	 0.1156727802	-0.4844653031	 1.5455016078	-0.287919
C	-0.992886573	-1.5351644598	 1.2565072476	 0.039804
C	-2.1313106131	-1.6644380147	 2.2612132358	-0.190115
N	-3.1848134126	-2.5660119545	 1.8174517661	-0.271761
C	-3.3599949098	-3.8137414007	 2.3291674948	 0.154594
O	-2.7068159029	-4.3031507528	 3.2264418195	-0.323249
C	-1.2589798141	-0.8142890452	-0.0978156294	-0.261348
H	 1.074668852	 1.5013015066	-0.3007274905	 0.282771
H	 0.8945164935	-0.7655155078	-0.4915676961	 0.069305
H	 1.0385160149	-0.822829911	 2.0224862885	 0.098673
H	-0.285001182	 0.372643922	 2.097324683	 0.104751
H	-0.5555321318	-2.5238099522	 1.0856420554	 0.086826
H	-1.7621393243	-2.068709556	 3.2072048071	 0.147731
H	-2.5646532116	-0.6760606279	 2.4614434932	 0.10272
H	-3.7648789204	-2.2883263773	 1.0416690488	 0.248541
H	-4.194366336	-4.3464612655	 1.8300392639	 0.07178
H	-2.027011478	-0.0399043488	 0.0078001025	 0.105552
H	-1.4717065529	-1.4146872186	-0.9849389538	 0.099734
15.9937	56.4142	86.8329	159.1838	248.1615	262.7907	281.2412	364.8393	399.3457	429.3869	467.1214	537.1441	614.3152	742.8917	801.1376	812.627	906.2535	936.5019	955.3203	977.0364	1026.795	1031.3928	1065.2027	1086.3934	1120.5479	1168.5673	1197.2883	1216.0269	1220.2508	1254.0684	1265.8518	1269.8678	1301.7927	1328.7995	1358.6932	1399.997	1431.0109	1433.0513	1469.8701	1476.4861	1502.0566	1533.5364	1806.2037	2930.8231	2994.8069	3022.9278	3045.4099	3050.6553	3062.2983	3109.4638	3110.0403	3114.9073	3633.7283	3815.1532
OC1CC(CNC=O)C1	O[C@H]1C[C@@H](CNC=O)C1	
InChI=1S/C6H11NO2/c8-4-7-3-5-1-6(9)2-5/h4-6,9H,1-3H2,(H,7,8)	InChI=1S/C6H11NO2/c8-4-7-3-5-1-6(9)2-5/h4-6,9H,1-3H2,(H,7,8)/t5-,6+
