22
gdb 81965	2.455	1.62619	1.24269	1.5755	80.99	-0.2186	0.0622	0.2808	1115.6711	0.194816	-404.33555	-404.326549	-404.325605	-404.368445	35.513	
C	 0.0210675341	 1.5991908758	-0.0176104785	-0.399808
C	 0.1164015366	 0.072997607	 0.0084923104	 0.014257
C	 0.8645848847	-0.5547570072	-1.164516136	-0.033613
C	 2.3496603431	-0.5800013149	-1.1253285482	-0.259935
N	 1.5702352514	-1.7727440463	-0.7315754274	-0.112538
C	 1.3405971992	-1.8979253268	 0.7254608081	 0.046292
C	 2.5566272092	-2.4568596376	 1.4552577674	-0.422168
C	 0.811151389	-0.532122533	 1.2515497141	 0.035208
O	 1.8368570902	 0.3549701444	 1.6942552572	-0.416557
H	 1.0118528728	 2.0554282738	 0.0233024876	 0.134579
H	-0.4763190067	 1.9338736891	-0.9338213812	 0.108396
H	-0.5568222584	 1.9743910095	 0.8329823786	 0.111873
H	-0.9020725219	-0.3382007839	-0.0092151	 0.077354
H	 0.3486955764	-0.607007786	-2.120329547	 0.081609
H	 2.9054995083	-0.7055844588	-2.0504205388	 0.107014
H	 2.8503702429	-0.0011591976	-0.3574002422	 0.135744
H	 0.5155253991	-2.6164074332	 0.826177505	 0.07914
H	 3.4093067269	-1.7746900579	 1.3885027586	 0.122379
H	 2.3349226673	-2.6329719186	 2.514265717	 0.106405
H	 2.8543965533	-3.4103975253	 1.0117382265	 0.132985
H	 0.0886329446	-0.6858904775	 2.0658016157	 0.06435
H	 2.2487834178	-0.0341018452	 2.4714929533	 0.287032
118.173	194.1659	216.5657	220.5611	236.4599	282.7238	288.6939	304.4678	405.0412	440.4807	476.3593	581.9962	642.4107	727.844	744.1077	815.6139	856.2367	865.3418	895.9476	956.7961	987.3165	1009.2805	1035.3402	1062.1415	1087.3893	1113.0358	1119.3705	1145.8696	1159.4344	1174.083	1192.9444	1211.5111	1268.5554	1305.2351	1331.4693	1342.7257	1360.9123	1372.6558	1393.7561	1399.942	1408.3291	1428.9087	1492.2837	1494.1357	1499.1636	1500.5648	1503.6248	2986.7736	3008.2892	3019.5828	3034.1917	3040.7746	3100.3639	3101.5074	3116.9508	3121.1752	3133.0872	3135.8057	3215.9269	3829.8083
CC1C2CN2C(C)C1O	C[C@H]1[C@H]2CN2[C@@H](C)[C@H]1O	
InChI=1S/C7H13NO/c1-4-6-3-8(6)5(2)7(4)9/h4-7,9H,3H2,1-2H3	InChI=1S/C7H13NO/c1-4-6-3-8(6)5(2)7(4)9/h4-7,9H,3H2,1-2H3/t4-,5-,6+,7-,8?/m0/s1
