17
gdb 73437	2.99336	1.98964	1.46554	1.4605	69.99	-0.2116	0.0645	0.2761	893.5016	0.136966	-421.748631	-421.741819	-421.740875	-421.779516	28.269	
O	-0.0799075071	 1.3047297067	-0.0955808365	-0.471212
C	 0.0028650402	-0.090745332	-0.0319514268	 0.341255
C	 1.1631085176	-0.6510554899	-0.8231422036	-0.120626
O	 1.2498410059	-2.0696949152	-0.7871341058	-0.273823
C	 0.224213059	-2.7154575575	-0.0981529148	 0.128424
C	-0.3576863672	-2.2642877821	 1.2086182233	-0.144701
C	-1.2156989497	-2.2894770605	-0.0757074754	-0.148219
C	-1.3441690958	-0.7479834079	-0.0084516799	-0.111522
C	-0.4891378859	-0.7214117579	 1.2519085741	-0.156664
H	 0.6367484391	 1.6692656336	 0.4369240674	 0.285303
H	 1.0731876462	-0.3212224283	-1.8680376257	 0.107702
H	 2.1057687354	-0.239562368	-0.4281223722	 0.08705
H	 0.3749263854	-3.7875417503	-0.179839361	 0.10724
H	-0.4112372411	-2.8964237038	 2.0867002701	 0.089444
H	-2.0325110084	-2.9468297844	-0.3473197947	 0.090588
H	-2.2431649092	-0.1889362018	-0.2292768355	 0.09948
H	-0.6333333544	-0.1363377207	 2.150862707	 0.090282
113.4973	272.3037	321.1691	358.404	412.6158	474.9848	510.9776	554.4253	653.2129	680.4356	717.6836	798.2694	806.6482	847.5128	878.9891	932.7595	944.4997	972.1644	999.3968	1004.9158	1031.9045	1052.3223	1080.2282	1088.9184	1091.7078	1158.537	1193.0752	1220.6328	1240.1146	1261.0667	1290.851	1311.2827	1335.7018	1382.1493	1448.2778	1457.1902	1521.5779	2971.8227	3013.0095	3162.4912	3175.1343	3186.3393	3196.0492	3210.9297	3784.9497
OC12COC3C4C3C1C24	O[C@]12CO[C@H]3[C@@H]4[C@H]3[C@H]1[C@H]24	
InChI=1S/C7H8O2/c8-7-1-9-6-2-3(6)5(7)4(2)7/h2-6,8H,1H2	InChI=1S/C7H8O2/c8-7-1-9-6-2-3(6)5(7)4(2)7/h2-6,8H,1H2/t2-,3+,4-,5+,6+,7+
