19
gdb 32981	3.39009	1.0932	0.87453	4.1159	79.61	-0.219	0.0245	0.2435	1343.8281	0.159918	-419.23166	-419.2224	-419.221456	-419.266392	32.501	
C	 0.7087232998	 1.3714549102	-0.3570380939	-0.223866
O	 0.9189664433	-0.0218776152	-0.3732570847	-0.232916
C	-0.1699877922	-0.7290743347	-0.9540274059	-0.204402
C	 0.1088522187	-2.1876398276	-0.9509068562	 0.276268
C	-0.5366832142	-3.2378421196	-0.3455985058	-0.165677
N	 0.072581741	-4.4306878457	-0.6429160005	-0.275482
C	 1.0826199427	-4.1054040053	-1.4188766339	 0.000673
N	 1.1576301547	-2.7640304132	-1.6464758339	-0.042308
C	 2.1424672496	-2.0766938188	-2.4602241556	-0.345982
H	 0.5767975869	 1.7789502394	-1.3723671395	 0.102935
H	-0.1780894636	 1.6421106169	 0.2370751185	 0.108834
H	 1.5906764455	 1.8294136473	 0.0966271009	 0.130255
H	-1.0963640206	-0.5478749009	-0.3875425906	 0.109101
H	-0.3428003885	-0.3515435518	-1.9782434023	 0.091472
H	-1.4090521901	-3.1906857129	 0.2899422443	 0.106439
H	 1.8030458568	-4.7904887237	-1.8429379371	 0.122881
H	 1.7043974504	-1.7277773656	-3.4020886645	 0.136577
H	 2.5367550321	-1.2181061717	-1.9142368937	 0.16414
H	 2.9556155976	-2.7673241371	-2.6913626354	 0.141058
71.5443	97.8665	109.4267	126.3669	208.6639	228.106	263.4292	331.595	381.2674	413.9377	643.6131	678.5672	702.2559	786.9803	816.0631	852.4583	932.0126	971.1175	1008.4495	1079.9706	1132.5869	1150.1508	1156.9492	1182.3165	1213.5761	1224.2112	1245.0495	1279.2451	1301.1052	1385.4694	1406.2065	1421.061	1450.599	1477.7987	1482.4185	1485.1454	1499.1483	1516.5508	1521.0661	1536.9419	1604.4965	2936.3127	2969.9156	3002.1157	3015.144	3037.9466	3112.562	3117.7532	3150.0558	3237.2743	3241.0052
COCC1=CN=CN1C	COCc1cncn1C	
InChI=1S/C6H10N2O/c1-8-5-7-3-6(8)4-9-2/h3,5H,4H2,1-2H3	InChI=1S/C6H10N2O/c1-8-5-7-3-6(8)4-9-2/h3,5H,4H2,1-2H3
