15
gdb 69573	2.99205	1.48355	1.1817	3.9727	66.99	-0.2402	-0.0419	0.1984	1046.5447	0.109866	-457.708789	-457.700705	-457.699761	-457.741482	29.652	
C	-0.1320848634	 1.53589873	 0.076519402	-0.514954
C	 0.1449766631	 0.0743492957	-0.0131333795	 0.288756
O	-0.7224636918	-0.8676831736	 0.6638244254	-0.269757
C	 0.6758010142	-0.9232457373	 0.9608180659	-0.189252
C	 1.2952910144	-1.7624099571	-0.1390474926	 0.363808
C	 2.5873527015	-2.4527058641	-0.2194289794	-0.266027
O	 1.3449572202	-3.1645468014	-0.2159820625	-0.254259
C	 0.7228559432	-0.7600045085	-1.1686701445	 0.309489
O	 0.8210914304	-0.6189510516	-2.3495556381	-0.30119
H	 0.7477702256	 2.1122188621	-0.2247788899	 0.140299
H	-0.9564043371	 1.807163042	-0.5903614419	 0.152716
H	-0.4076229183	 1.8127602537	 1.0971731999	 0.142746
H	 0.9944497891	-0.7625862286	 1.9832937926	 0.127559
H	 3.1253402777	-2.4540801979	-1.1654824925	 0.141574
H	 3.1933556811	-2.5628462135	 0.6785564851	 0.128493
95.3391	159.9983	183.4624	223.283	230.4596	278.9041	331.989	463.6383	541.8981	565.4032	682.6309	754.1748	786.8252	803.6871	872.4606	908.6395	931.746	980.677	981.5027	1033.8457	1090.0078	1124.377	1147.7553	1164.8696	1222.8914	1227.0828	1397.9392	1433.2385	1448.2962	1478.3159	1488.97	1526.5291	1903.0474	3044.93	3089.0851	3112.4265	3128.3957	3184.0024	3202.7906
CC12OC1C1(CO1)C2=O	C[C@]12O[C@H]1[C@]1(CO1)C2=O	
InChI=1S/C6H6O3/c1-5-3(7)6(2-8-6)4(5)9-5/h4H,2H2,1H3	InChI=1S/C6H6O3/c1-5-3(7)6(2-8-6)4(5)9-5/h4H,2H2,1H3/t4-,5-,6+/m1/s1
