21
gdb 102460	2.21114	1.03909	0.84258	3.1261	75.73	-0.2397	-0.0208	0.2189	1479.0846	0.178879	-461.367799	-461.356678	-461.355734	-461.405097	38.459	
C	-0.6670820792	 1.4486900231	-0.5168994777	-0.379433
C	-1.3165811296	 0.0710769493	-0.6185892216	-0.279436
C	-0.8133984052	-0.9035724749	 0.4320842639	 0.350874
O	 0.0800906614	-0.6349461872	 1.2033503735	-0.309192
C	-1.5274854529	-2.2570463345	 0.5565984805	-0.012167
C	-2.5309973942	-2.2042148479	 1.7218091663	-0.065927
O	-3.2043529367	-3.4328235519	 1.8606507448	-0.420595
O	-2.2763081463	-2.6232683588	-0.5925264643	-0.252646
C	-1.5305449206	-3.3128724144	-1.5776945064	-0.246654
H	-1.0441280677	 2.1119065018	-1.3001733642	 0.110659
H	-0.8730322455	 1.9077963237	 0.4536421055	 0.130067
H	 0.4188296399	 1.3759192738	-0.6153092302	 0.132778
H	-2.4099558119	 0.1240027528	-0.5372114879	 0.129577
H	-1.1417618294	-0.3778547151	-1.6055743972	 0.128512
H	-0.7735765203	-3.0220586496	 0.7879026141	 0.100442
H	-1.9884930928	-2.0090626629	 2.649946058	 0.133833
H	-3.235616406	-1.3730787196	 1.5535017235	 0.0914
H	-3.541254313	-3.644154103	 0.9812496568	 0.287502
H	-1.1060206867	-4.2446713713	-1.1781572302	 0.122251
H	-2.217838994	-3.5524518006	-2.3922773181	 0.134412
H	-0.7085809092	-2.7019948827	-1.9776421793	 0.113741
44.1739	56.2332	111.9794	120.4967	155.3003	169.9289	201.0937	223.1073	269.0545	301.4625	330.5155	453.0277	485.588	518.6862	559.475	657.5666	760.5894	802.7405	856.6609	999.4101	1012.2553	1056.9198	1079.5286	1080.2315	1113.9906	1138.127	1177.4127	1188.1768	1199.8476	1250.1064	1261.1123	1281.3487	1359.4336	1371.2725	1390.5979	1413.767	1426.5742	1437.1486	1482.3149	1490.4552	1492.8282	1497.6206	1500.7967	1509.1554	1801.6941	2971.3126	2990.5107	3022.2644	3030.1037	3043.8711	3051.5038	3054.553	3108.7151	3121.551	3122.5879	3127.1665	3784.9133
CCC(=O)C(CO)OC	CCC(=O)[C@@H](CO)OC	
InChI=1S/C6H12O3/c1-3-5(8)6(4-7)9-2/h6-7H,3-4H2,1-2H3	InChI=1S/C6H12O3/c1-3-5(8)6(4-7)9-2/h6-7H,3-4H2,1-2H3/t6-/m1/s1
