22
gdb 120333	3.06667	0.94652	0.9132	1.8551	81.41	-0.218	0.0757	0.2936	1412.9051	0.19567	-404.322862	-404.313637	-404.312693	-404.357984	34.085	
O	-0.6813204987	 1.4571441246	 1.1831166696	-0.421771
C	-0.7709572434	 0.0436069627	 1.2729300949	-0.07338
C	-1.3214269661	-0.470183932	-0.0551113206	-0.215355
C	-1.4125958759	-1.9821689911	-0.0632920545	-0.001187
C	-2.6444532571	-2.7733896151	 0.2199635291	-0.039364
C	-4.010074227	-2.0987702962	 0.1880843795	-0.229664
C	-4.1326292503	-1.4768508433	-1.2277301448	-0.230328
C	-2.9528104679	-2.0803645176	-2.0394869029	-0.151471
N	-2.0395767229	-2.7910048848	-1.1264690332	-0.1284
H	-0.3295587704	 1.7901173436	 2.0137380133	 0.285973
H	 0.215558573	-0.4079098901	 1.4672929976	 0.087206
H	-1.4371465682	-0.2648901535	 2.0948372995	 0.089606
H	-2.2850333765	 0.0128260881	-0.2271751345	 0.112306
H	-0.6505080188	-0.1332478343	-0.8556165304	 0.112861
H	-0.4771366818	-2.4437985152	 0.2571053619	 0.083504
H	-2.5595426377	-3.6922701906	 0.7958306327	 0.082053
H	-4.7835026961	-2.8549063568	 0.3542749077	 0.106178
H	-4.1275022293	-1.3485052039	 0.9771168647	 0.105734
H	-5.0947849104	-1.7174230348	-1.6881151206	 0.10054
H	-4.0717765732	-0.3868496685	-1.1888196958	 0.112909
H	-3.3165018734	-2.820468963	-2.7594770908	 0.105602
H	-2.4067971477	-1.3207985682	-2.6085750925	 0.106449
38.1898	81.8024	119.9283	145.3623	211.8145	261.1113	265.5879	382.6061	458.2051	530.5229	693.4419	709.9929	724.7491	776.2386	806.8889	845.6947	887.3281	897.632	930.7011	981.157	1015.3712	1019.4521	1041.9957	1074.8553	1106.703	1131.4337	1134.7551	1162.15	1195.1009	1227.8754	1234.6045	1242.2353	1257.4628	1292.6082	1303.3055	1315.496	1327.268	1330.895	1342.6118	1388.8197	1444.677	1459.1794	1487.6553	1493.5652	1503.602	1520.1459	1528.2465	2962.2963	2988.699	3035.8644	3042.5414	3044.8354	3065.4567	3072.0909	3079.3773	3081.7557	3106.7631	3119.8901	3127.9978	3830.699
OCCC1C2CCCN12	OCC[C@H]1[C@H]2CCCN12	
InChI=1S/C7H13NO/c9-5-3-7-6-2-1-4-8(6)7/h6-7,9H,1-5H2	InChI=1S/C7H13NO/c9-5-3-7-6-2-1-4-8(6)7/h6-7,9H,1-5H2/t6-,7+,8?/m1/s1
