19
gdb 18474	3.29936	1.62987	1.42522	1.7772	71.07	-0.2292	0.0587	0.2879	974.6762	0.165685	-365.010872	-365.002765	-365.00182	-365.04322	30.758	
C	-1.0418236034	 1.203689044	-0.3884523841	-0.374626
C	-0.1388739101	 0.0403063489	 0.040296141	-0.22159
C	 0.5850547903	-0.5810167682	-1.1372942781	 0.032113
C	 1.0424268547	-1.9808545588	-1.2767659877	-0.079299
C	 0.0812156519	-3.0043080039	-0.6976181454	 0.103019
O	 0.0220865229	-3.0357878648	 0.7139034054	-0.425614
C	-1.0379857222	-2.3114945937	-1.5249816589	-0.211635
N	-0.0432247583	-1.4008673503	-2.1970837409	-0.154468
H	-0.4699160605	 1.9773089558	-0.9124827868	 0.115274
H	-1.830114941	 0.8647550674	-1.068639087	 0.123371
H	-1.5203408844	 1.6704774535	 0.4778620044	 0.110746
H	 0.6271644545	 0.404552146	 0.7364525136	 0.101239
H	-0.7045952951	-0.7095894615	 0.5952557365	 0.120233
H	 1.2696357349	 0.1208184996	-1.6153360162	 0.091729
H	 2.0329272238	-2.2234798534	-1.6497384658	 0.089896
H	 0.2945351396	-4.0033960802	-1.0978387667	 0.082678
H	-0.5323772626	-3.7775051476	 0.9765594871	 0.284732
H	-1.504931835	-2.9591747511	-2.2700274387	 0.105701
H	-1.8172668199	-1.7985384219	-0.9550242019	 0.106501
90.1582	136.2583	194.4553	229.8062	269.899	299.3532	368.9749	435.6664	505.9839	600.4312	695.72	745.5788	776.6927	808.0615	874.6474	892.0777	969.6496	978.6729	1010.2874	1029.0843	1060.5568	1086.5158	1121.9808	1134.3359	1166.5013	1198.3417	1211.7606	1257.1305	1282.9322	1294.5783	1313.8199	1341.4348	1372.8614	1413.1496	1436.7152	1457.5643	1483.6397	1498.1462	1503.2075	1514.875	3020.9454	3033.1805	3036.3121	3060.5894	3093.7324	3098.7239	3106.7542	3115.0304	3130.0403	3155.8908	3814.7359
CCC1C2C(O)CN12	CC[C@H]1[C@H]2[C@@H](O)CN12	
InChI=1S/C6H11NO/c1-2-4-6-5(8)3-7(4)6/h4-6,8H,2-3H2,1H3	InChI=1S/C6H11NO/c1-2-4-6-5(8)3-7(4)6/h4-6,8H,2-3H2,1H3/t4-,5-,6-,7?/m0/s1
