18
gdb 6597	5.40943	1.31764	1.28653	2.9887	74.16	-0.2441	-0.0251	0.219	1009.6468	0.153162	-347.77245	-347.764743	-347.763799	-347.804502	29.15	
C	-0.0266858502	 1.4687963967	 0.0018317575	-0.507442
C	 0.0035847674	-0.0357111757	 0.0019129592	 0.330503
C	 0.6298341364	-0.969215435	-1.0831440011	-0.294717
C	 0.0478177781	-1.9225910445	 0.0124734348	 0.25791
C	 0.6524773799	-0.9714203484	 1.0745380641	-0.28954
C	-1.2207151663	-1.0062144867	 0.0043028226	-0.294324
C	 0.0657419594	-3.4100100095	-0.0053226122	 0.030469
O	 0.5695850637	-4.099294686	 0.8468072461	-0.248025
H	 0.9882055293	 1.8810497837	-0.0054167674	 0.122346
H	-0.5528447701	 1.8539305833	-0.878461733	 0.119748
H	-0.5370180772	 1.8503409894	 0.8928881984	 0.12235
H	 0.1392841527	-0.9844746704	-2.0604636453	 0.094327
H	 1.7191861963	-0.9572612298	-1.1770769595	 0.099865
H	 1.7427695238	-0.9546239592	 1.1468485939	 0.097731
H	 0.1849536902	-0.9858419553	 2.0621573213	 0.097896
H	-1.8326394919	-1.0287151621	 0.9102015626	 0.100034
H	-1.8352341675	-1.0242529439	-0.900178105	 0.094376
H	-0.4370386941	-3.8660993667	-0.8909929769	 0.066492
71.4632	151.459	203.7096	219.9459	311.1547	347.6937	450.9037	537.4056	542.1536	621.6712	709.5766	756.9058	809.0952	910.0907	925.9981	959.5007	978.5995	996.8086	1021.7114	1077.0922	1083.2108	1101.883	1137.1296	1144.6338	1168.6958	1169.2934	1203.1689	1206.3856	1296.8901	1349.9067	1412.935	1425.1099	1488.818	1489.251	1495.1842	1497.0131	1556.9806	1817.3997	2851.3655	3027.297	3045.6287	3049.5085	3060.3564	3096.0883	3096.3194	3113.746	3118.391	3124.6109
CC12CC(C1)(C2)C=O	C[C@@]12C[C@@](C1)(C2)C=O	
InChI=1S/C7H10O/c1-6-2-7(3-6,4-6)5-8/h5H,2-4H2,1H3	InChI=1S/C7H10O/c1-6-2-7(3-6,4-6)5-8/h5H,2-4H2,1H3/t6-,7-
