21
gdb 61603	2.94683	0.87152	0.79965	3.1048	83.8	-0.2361	0.0338	0.2699	1522.4654	0.181513	-383.256312	-383.246261	-383.245316	-383.292084	36.366	
C	 0.0590463138	 1.3701187647	-0.4170465267	-0.39455
C	-0.0340420193	-0.05445547	 0.1643900771	-0.135525
C	 0.6536758545	-0.2042910318	 1.5487672997	-0.227266
C	 2.1525786465	 0.0145536709	 1.5078707639	 0.008686
C	 3.0444995903	-0.6488069277	 2.5031459452	-0.263956
N	 3.1199079476	-1.0075209741	 1.0932452359	-0.077622
C	 2.6783762705	-2.3414382337	 0.7132428698	-0.319784
C	-1.4384282632	-0.4658655246	 0.2681518699	 0.264333
N	-2.5451736764	-0.7856126491	 0.363671962	-0.323053
H	 1.1035533883	 1.6484514021	-0.5737097694	 0.135162
H	-0.4578366575	 1.4316387154	-1.3775937715	 0.139733
H	-0.3971112427	 2.0957896601	 0.2626810799	 0.136334
H	 0.4472882189	-0.7485128172	-0.5356231927	 0.132539
H	 0.2103906476	 0.5249379404	 2.2379540987	 0.121778
H	 0.4184525027	-1.1905135239	 1.9566083331	 0.121787
H	 2.4449432701	 1.0095929662	 1.1757166553	 0.095626
H	 3.9050126556	-0.1290082819	 2.9166817216	 0.117908
H	 2.5753810788	-1.3592817059	 3.1844109674	 0.108147
H	 1.8317943561	-2.736634597	 1.2959557982	 0.105117
H	 2.4022493616	-2.3486577048	-0.3465847931	 0.123664
H	 3.5183997263	-3.0311356681	 0.8422676656	 0.130939
36.5856	74.1417	122.8083	185.6943	212.6276	233.8637	248.3134	299.8846	326.4266	374.0625	416.3014	520.9781	545.4283	576.9327	744.5775	787.5983	817.8367	893.697	922.1924	941.8646	1030.0656	1046.3897	1068.4861	1099.3825	1117.0064	1125.6569	1133.0329	1164.1475	1189.6351	1205.8784	1254.6107	1290.4859	1335.0512	1340.7811	1359.7908	1412.1914	1427.2797	1449.2822	1477.739	1491.0792	1496.3737	1500.2723	1505.7936	1515.6394	2355.4848	2979.2014	3034.2411	3046.2051	3051.8042	3065.0104	3082.6815	3095.8028	3099.1047	3115.3226	3126.3612	3134.75	3171.0926
CC(CC1CN1C)C#N	C[C@@H](C[C@H]1CN1C)C#N	
InChI=1S/C7H12N2/c1-6(4-8)3-7-5-9(7)2/h6-7H,3,5H2,1-2H3	InChI=1S/C7H12N2/c1-6(4-8)3-7-5-9(7)2/h6-7H,3,5H2,1-2H3/t6-,7-,9?/m0/s1
