15
gdb 27216	3.5289	1.60688	1.11176	3.7501	75.18	-0.189	-0.0062	0.1829	1028.5035	0.114933	-416.844668	-416.837341	-416.836397	-416.876567	27.593	
C	 0.1136033512	 1.517723598	 0.0154730531	-0.496501
C	-0.0668314385	 0.0439864406	 0.0413104844	 0.246799
C	-1.1182982291	-0.8178790661	-0.0250235829	 0.198681
N	-2.491136722	-0.9666912348	-0.1390759174	-0.447834
C	-2.7242303133	-2.3329708378	-0.1207478349	 0.010434
N	-1.6624185991	-3.0792584777	-0.0083549862	-0.348408
C	-0.6187282521	-2.1593783483	 0.0556763136	 0.231058
C	 0.7366137545	-2.0538392045	 0.1694191189	-0.137358
O	 1.0665554575	-0.7281378419	 0.1605943273	-0.191125
H	 0.738387172	 1.8385341509	-0.8266190603	 0.139447
H	-0.8578673259	 2.0094258187	-0.0824263136	 0.120822
H	 0.5861189048	 1.8880684092	 0.9330647396	 0.139437
H	-3.1908835022	-0.2510839953	-0.2193396808	 0.264777
H	-3.7351678751	-2.711953443	-0.1971555674	 0.132677
H	 1.5559340173	-2.7449096878	 0.2593789364	 0.137095
84.1718	171.2577	252.4719	260.1271	289.8517	379.9747	538.2222	592.6234	596.8541	634.4684	686.9351	706.5651	767.2928	816.0202	881.4151	934.6987	949.9151	1059.6584	1065.6077	1106.4552	1148.3944	1155.7156	1243.0056	1295.0002	1338.9636	1379.8539	1414.1783	1422.7226	1469.544	1496.0006	1549.0197	1608.9487	1736.2042	3021.694	3069.3508	3114.815	3228.7659	3292.668	3690.2163
CC1=C2NC=NC2=CO1	Cc1c2[nH]cnc2co1	
InChI=1S/C6H6N2O/c1-4-6-5(2-9-4)7-3-8-6/h2-3H,1H3,(H,7,8)	InChI=1S/C6H6N2O/c1-4-6-5(2-9-4)7-3-8-6/h2-3H,1H3,(H,7,8)
