17
gdb 69036	2.89059	1.36901	1.14122	1.3384	75.66	-0.2537	-0.0533	0.2004	1094.3682	0.133814	-421.83826	-421.829591	-421.828646	-421.871651	31.826	
C	-0.0337012066	 1.4622581779	 0.264199125	-0.498465
C	 0.0247499088	-0.0197557939	 0.0426001277	 0.175537
C	-0.8461358364	-0.9951489584	 0.7904844182	-0.363073
C	 0.6246970514	-1.1796020641	 0.9794784009	 0.199998
C	 1.2130000567	-1.9022034739	-0.2372124975	-0.439104
C	 0.7064121899	-0.7184745217	-1.1022952756	 0.377989
O	 0.9626933056	-0.3591835678	-2.2161084434	-0.305898
C	 1.3048394254	-0.8633175851	 2.2442212271	 0.060799
O	 0.7944916916	-0.2431421418	 3.1506426888	-0.269609
H	 0.8524044012	 1.9559267601	-0.1445038408	 0.137585
H	-0.9142871167	 1.891208589	-0.2254771787	 0.141043
H	-0.0981952397	 1.6835222877	 1.3337872489	 0.153427
H	-1.3657391895	-0.555141681	 1.63573349	 0.15407
H	-1.3987507766	-1.7669352465	 0.2615554304	 0.128311
H	 2.3063660781	-1.9425104532	-0.2606872784	 0.138953
H	 0.8125164568	-2.8974419812	-0.4499617444	 0.127429
H	 2.3604246701	-1.207853626	 2.3059256118	 0.081009
82.6117	117.6204	173.0306	187.1616	221.0251	270.779	356.1501	384.4262	460.9183	529.6501	575.541	637.5275	673.2103	704.1081	788.8231	871.4207	957.2105	971.1382	990.5146	1032.4073	1037.6143	1079.4415	1092.1634	1112.0748	1175.6532	1213.0717	1246.5732	1339.0023	1374.4184	1412.481	1432.2154	1458.313	1484.9954	1489.2943	1493.8781	1784.8488	1875.2927	2890.6441	3038.6191	3055.6395	3104.7338	3109.4617	3117.4956	3121.1054	3213.436
CC12CC1(CC2=O)C=O	C[C@]12C[C@]1(CC2=O)C=O	
InChI=1S/C7H8O2/c1-6-3-7(6,4-8)2-5(6)9/h4H,2-3H2,1H3	InChI=1S/C7H8O2/c1-6-3-7(6,4-8)2-5(6)9/h4H,2-3H2,1H3/t6-,7-/m1/s1
