17
gdb 74969	2.50713	1.66419	1.44393	3.0508	73.97	-0.228	-0.0105	0.2175	989.5073	0.136684	-421.841062	-421.833562	-421.832618	-421.872907	29.1	
C	-0.0689643247	 1.476823054	 0.0459243249	-0.512445
C	-0.0202461855	-0.0131590531	-0.011875403	 0.325032
C	-0.0486699145	-0.8211419249	-1.0939951355	-0.183553
C	 0.0302297924	-2.2391912344	-0.6019627115	-0.043595
O	 1.3355047732	-2.4938047857	-0.0118712717	-0.281676
C	 1.4543296575	-1.6398857367	 1.1396664823	-0.077231
C	 0.0949878655	-0.8961760576	 1.2158162204	-0.258026
C	-0.8036609122	-2.0539166491	 0.6843636456	 0.434073
O	-1.7832993577	-2.5742647872	 1.1202765172	-0.32222
H	 0.8413515939	 1.8884435929	 0.4990681658	 0.135812
H	-0.179998064	 1.9098523535	-0.9518178553	 0.132974
H	-0.9082889364	 1.8174428623	 0.6645860208	 0.139397
H	-0.1074382448	-0.5151345376	-2.1308258602	 0.108844
H	-0.2155834466	-3.0553139054	-1.2751293842	 0.096656
H	 1.6230748844	-2.2536579184	 2.0329963084	 0.112353
H	 2.3016078653	-0.9563187158	 1.0093602848	 0.103492
H	-0.1602338459	-0.462083647	 2.1802496512	 0.090114
123.9501	171.4898	203.4854	237.0344	297.2591	407.2362	471.0001	536.6325	574.452	658.5909	732.8655	768.3989	800.818	817.4678	885.9756	915.2218	932.1086	965.2388	981.3213	1010.6439	1049.2792	1077.2706	1095.1103	1144.7818	1183.3589	1217.0361	1223.8366	1267.3665	1280.9588	1334.3404	1371.3703	1412.5655	1476.558	1482.8153	1524.029	1652.9228	1901.4438	3015.9793	3022.007	3057.1617	3071.6082	3114.323	3146.5432	3172.6199	3210.784
CC1=CC2OCC1C2=O	CC1=C[C@H]2OC[C@@H]1C2=O	
InChI=1S/C7H8O2/c1-4-2-6-7(8)5(4)3-9-6/h2,5-6H,3H2,1H3	InChI=1S/C7H8O2/c1-4-2-6-7(8)5(4)3-9-6/h2,5-6H,3H2,1H3/t5-,6+/m0/s1
