18
gdb 19176	3.41221	1.79192	1.38262	1.4236	68.2	-0.247	0.0697	0.3167	928.2743	0.153238	-384.874804	-384.866875	-384.865931	-384.906399	30.876	
C	-0.3794185865	 1.5436701776	-0.0693475637	-0.450545
C	-0.0432593609	 0.0586578433	-0.0090490024	 0.049864
C	 1.1474494477	-0.6044493734	-0.791422214	-0.147504
C	 2.1230292233	-0.0969448992	 0.2978094644	 0.163598
O	 2.4931497766	 1.2578467817	 0.2519078216	-0.433957
C	 0.8676634345	-0.587983774	 1.0935497847	-0.178798
C	 0.9684799738	-1.8396134042	 0.1587752994	 0.18954
O	-0.0785460908	-2.750349968	 0.0119634144	-0.447309
H	 0.4943752926	 2.1797960008	 0.0453465996	 0.146298
H	-0.8560754568	 1.7772781641	-1.0285733758	 0.1107
H	-1.1028260598	 1.791894215	 0.7164966175	 0.10697
H	-0.9898901783	-0.4818494938	-0.1450648754	 0.035323
H	 1.3173298358	-0.6148753223	-1.8691579828	 0.073123
H	 3.0150416528	-0.7249382042	 0.4364464954	 0.064586
H	 2.972684339	 1.4594830429	 1.0614696926	 0.285145
H	 0.7179108707	-0.5802868944	 2.175261899	 0.065824
H	 1.8648738068	-2.4496733195	 0.2947473466	 0.081243
H	-0.9067416206	-2.2748790125	-0.1079441811	 0.285898
172.5496	206.9426	246.1747	253.7841	268.7871	290.6595	302.0686	417.3822	460.9883	531.426	663.7205	713.5914	786.0925	793.8426	836.0511	905.9374	938.9783	1006.9341	1057.9705	1062.524	1069.5639	1098.4128	1119.0737	1125.1236	1145.8407	1207.8856	1214.4236	1234.5257	1238.2957	1282.0384	1291.3089	1329.2542	1404.2987	1433.5773	1468.9558	1485.118	1497.3855	1514.1886	2989.1684	2989.9557	3031.1945	3079.4477	3080.6612	3092.8338	3106.7498	3183.0462	3815.3706	3819.6354
CC1C2C(O)C1C2O	C[C@H]1[C@H]2[C@@H](O)[C@@H]1[C@H]2O	
InChI=1S/C6H10O2/c1-2-3-5(7)4(2)6(3)8/h2-8H,1H3	InChI=1S/C6H10O2/c1-2-3-5(7)4(2)6(3)8/h2-8H,1H3/t2-,3-,4+,5+,6-
