15
gdb 44287	4.00934	1.77406	1.55477	1.6121	67.56	-0.2605	0.012	0.2724	843.1752	0.116298	-416.759554	-416.753896	-416.752952	-416.789494	23.714	
N	-0.0458642451	 1.3157526597	-0.0334890751	-0.54783
C	-0.0015981384	 0.0566038915	-0.0151485628	 0.42703
O	 1.1523372859	-0.7029083283	-0.0189360582	-0.257913
C	 0.7624263871	-2.0792635347	 0.0356356108	 0.079455
C	 0.0699697678	-2.5082017429	 1.3257938856	-0.071742
C	-1.2095146548	-1.741493288	 1.3121878519	-0.045832
C	-1.1667546211	-0.8991998936	 0.0211447218	-0.142052
C	-0.6420051653	-2.2211475064	-0.5857809751	-0.030894
N	-1.1386711903	-3.0623294541	 0.6122542313	-0.175997
H	 0.8963869783	 1.711342644	-0.0363063166	 0.225772
H	 1.5752155457	-2.7017589155	-0.330648969	 0.10556
H	 0.4835882308	-2.9772260628	 2.2092882986	 0.108839
H	-1.8183901339	-1.5854782041	 2.1934962287	 0.115208
H	-2.1156392896	-0.4950902937	-0.3186147135	 0.110097
H	-0.8258425371	-2.5407872312	-1.6078892382	 0.100298
149.8316	351.1362	405.4641	502.1989	610.1552	666.9066	705.8863	786.9465	797.7272	836.5726	839.8957	880.6502	890.1362	904.671	923.6282	935.9457	964.336	1014.8719	1026.8923	1040.1273	1043.1957	1074.2992	1134.5018	1156.5453	1201.507	1224.3609	1236.265	1254.0487	1286.8474	1323.9414	1360.5857	1369.8662	1789.3659	3152.1144	3160.8296	3173.315	3197.1594	3208.3339	3468.0547
N=C1OC2C3C4C1C2N34	[NH][C]1O[C@H]2[C@H]3[C@H]4[C@@H]1[C@@H]2N34	
InChI=1S/C6H6N2O/c7-6-1-2-4-5(9-6)3(1)8(2)4/h1-5,7H	InChI=1S/C6H6N2O/c7-6-1-2-4-5(9-6)3(1)8(2)4/h1-5,7H/t1-,2-,3+,4-,5-,8?/m1/s1
