17
gdb 100628	2.13576	1.22096	0.81154	1.9236	76.12	-0.26	0.0255	0.2854	1363.1331	0.131744	-421.73875	-421.728555	-421.727611	-421.774054	37.135	
O	 0.1332584277	 1.4123161775	-0.1644781521	-0.421525
C	 0.1089499098	 0.0154557733	 0.0180184311	-0.070053
C	-1.3350719559	-0.4929592698	 0.0602145952	 0.099734
O	-2.0293628727	-0.035136569	-1.0927896171	-0.427853
C	-1.4220524047	-2.044170284	 0.1966219325	-0.418805
C	-0.7678753151	-2.5072674407	 1.4240428731	 0.333092
C	-0.2263288732	-2.86691478	 2.4336641851	-0.436147
C	-2.8092397928	-2.5110171793	 0.1226732941	 0.34232
C	-3.9453453409	-2.8933643215	 0.0609201908	-0.427845
H	-0.5500038802	 1.6020649489	-0.8206402456	 0.285881
H	 0.6474798704	-0.510794492	-0.793911097	 0.070446
H	 0.6259642579	-0.2090078545	 0.9543390613	 0.128627
H	-1.855894633	-0.0362191813	 0.9065616632	 0.121865
H	-1.6910294084	-0.5101569281	-1.8618814084	 0.286279
H	-0.8720717642	-2.4682237445	-0.6600296699	 0.127322
H	 0.2476346724	-3.1927847073	 3.3266617403	 0.205153
H	-4.951659087	-3.2288344877	 0.0091872534	 0.201509
55.8574	110.3962	123.6341	129.3693	186.9515	257.3683	306.6665	340.0217	342.4855	401.5859	448.7222	487.2871	509.1224	562.6567	610.3383	640.0936	646.7625	648.8771	657.8289	875.9664	922.1435	1022.5036	1029.096	1077.6994	1096.0387	1119.9857	1194.9287	1217.6704	1288.3916	1318.7605	1336.6501	1380.1992	1418.3742	1441.8547	1506.8593	2241.1526	2247.3539	2917.924	2966.3244	3086.0895	3102.9061	3501.8991	3504.3714	3766.3407	3781.3746
OCC(O)C(C#C)C#C	OC[C@@H](O)C(C#C)C#C	
InChI=1S/C7H8O2/c1-3-6(4-2)7(9)5-8/h1-2,6-9H,5H2	InChI=1S/C7H8O2/c1-3-6(4-2)7(9)5-8/h1-2,6-9H,5H2/t7-/m1/s1
