19
gdb 74018	2.359	1.96574	1.25693	1.4377	82.24	-0.2247	0.0075	0.2322	1039.536	0.160124	-385.856148	-385.848505	-385.847561	-385.888037	30.243	
C	 0.0422509493	 1.4343903252	-0.0285200392	-0.499477
C	-0.1637820567	-0.0470243694	-0.002865575	 0.180812
C	-0.3032838724	-0.8986345037	-1.0272528463	 0.14746
C	 0.242821	-1.1057301211	-2.4238032379	-0.305847
C	 0.8743857554	-2.4184554	-1.8249995134	-0.238527
C	-0.1634620798	-2.3531524453	-0.6451446206	-0.074031
C	 0.1457735124	-2.2969768299	 0.8399087851	 0.012496
O	 1.3073283894	-1.5592173475	 1.2076733832	-0.25765
C	 0.0250811534	-0.8721495321	 1.2400473243	-0.055452
H	 1.0148159347	 1.7079451773	 0.3996059235	 0.133445
H	-0.006285686	 1.8257876354	-1.0482935357	 0.124525
H	-0.7207184627	 1.9557057086	 0.5637141433	 0.125851
H	-0.5230907695	-1.3403058276	-3.1705077973	 0.109264
H	 0.9172639208	-0.3470860637	-2.8273483657	 0.108909
H	 0.8465879636	-3.3099364302	-2.4551622378	 0.10204
H	 1.8871141745	-2.240850861	-1.4602808116	 0.128116
H	-1.0398686883	-2.9779748199	-0.8490540511	 0.076761
H	-0.116728392	-3.1123842067	 1.5089110693	 0.089737
H	-0.2798701961	-0.5473737986	 2.231602413	 0.091569
148.5915	168.7031	199.3633	213.5972	238.683	411.845	510.2691	549.1973	588.3566	690.062	711.061	721.3879	806.7895	819.7787	870.9424	883.0014	891.9254	933.983	992.3014	1002.9016	1051.7071	1058.5892	1075.9136	1104.2848	1117.5653	1135.04	1184.8706	1219.299	1225.6049	1242.8471	1249.7489	1252.8792	1326.6307	1334.6836	1391.3773	1411.3508	1470.1741	1480.2128	1485.9023	1490.0034	1728.2196	3016.6954	3045.4159	3048.3485	3062.9655	3071.1995	3105.3977	3109.9557	3141.1265	3142.8272	3152.7698
CC1=C2CCC2C2OC12	C[C]1[C]2CC[C@H]2[C@H]2O[C@@H]12	
InChI=1S/C8H10O/c1-4-5-2-3-6(5)8-7(4)9-8/h6-8H,2-3H2,1H3	InChI=1S/C8H10O/c1-4-5-2-3-6(5)8-7(4)9-8/h6-8H,2-3H2,1H3/t6-,7+,8-/m1/s1
