13
gdb 20657	7.61163	1.31331	1.12788	5.3285	63.68	-0.2706	-0.0683	0.2023	992.8995	0.095308	-394.795798	-394.788579	-394.787635	-394.827837	24.906	
C	-0.0129062237	 1.5238109568	 0.0679039634	-0.482079
C	 0.036312469	 0.0385722188	-0.0553490075	 0.299506
C	-0.067389416	-0.7690099122	-1.1497570227	-0.16252
N	 0.0504218133	-2.044770086	-0.6604966526	-0.001958
C	 0.0095201977	-3.2472910544	-1.3964186238	 0.197263
O	 0.1170626595	-4.3378825612	-0.9239034074	-0.236725
N	 0.2212741787	-2.0122586724	 0.6968324322	-0.100725
N	 0.2119940544	-0.7753418361	 1.04872565	-0.214327
H	 0.9143709872	 1.9081590783	 0.504006572	 0.151211
H	-0.1564992919	 1.9952072808	-0.9070088436	 0.129087
H	-0.8324630597	 1.8320599487	 0.7244667242	 0.151199
H	-0.2092805288	-0.5657798605	-2.19795492	 0.160193
H	-0.1360667195	-3.0369924407	-2.4716057143	 0.109874
72.6054	101.5653	199.0957	230.5573	305.1695	341.002	499.0789	640.7761	699.6186	713.5453	785.982	792.7833	972.1669	1008.8618	1026.0919	1048.9549	1067.6315	1163.6587	1223.1955	1273.0228	1395.1243	1400.6165	1429.426	1454.7254	1476.1924	1493.0232	1622.955	1860.1622	2975.7168	3045.8904	3104.9029	3129.4324	3281.9136
CC1=CN(C=O)N=N1	Cc1cn(C=O)nn1	
InChI=1S/C4H5N3O/c1-4-2-7(3-8)6-5-4/h2-3H,1H3	InChI=1S/C4H5N3O/c1-4-2-7(3-8)6-5-4/h2-3H,1H3
