17
gdb 72879	2.95476	1.33192	1.08875	0.9107	69.33	-0.2489	-0.0322	0.2167	1112.6139	0.134479	-458.931235	-458.923004	-458.922059	-458.964711	30.608	
O	 0.6240082418	 1.3038017489	-0.2059887126	-0.467468
C	 0.1294417671	 0.0289967801	 0.0233377706	 0.371387
C	 0.3151497329	-0.9187221758	-1.1730134432	-0.11241
O	-1.0745972068	-1.3330148393	-1.1285975884	-0.284194
C	-1.3663757691	-0.4484932492	-0.0441945928	 0.020419
C	-1.1777129134	-1.1402260412	 1.3592595803	-0.103033
C	 0.2864883642	-0.6239889118	 1.4163439262	-0.338906
C	-2.1036884952	-0.5675077625	 2.3965181096	 0.13024
O	-1.8222347017	 0.3332627757	 3.1492605677	-0.247365
H	 0.5147720551	 1.8270473763	 0.5953966036	 0.290434
H	 0.5426035144	-0.3843211505	-2.1017985554	 0.120016
H	 1.0084139646	-1.7576371733	-1.0436045191	 0.105477
H	-2.2522439771	 0.1690176937	-0.2131459108	 0.090647
H	-1.3236067287	-2.2200626867	 1.2799240903	 0.102233
H	 1.0758770364	-1.3715789604	 1.520447806	 0.110039
H	 0.3885022866	 0.1206337282	 2.2120562343	 0.125941
H	-3.1262194912	-1.0068256721	 2.3931181436	 0.086544
49.5329	89.1862	212.5551	241.6724	306.9633	345.7027	358.0392	395.2492	417.3213	622.5763	668.3397	690.0673	805.6505	854.2166	899.9234	914.862	937.5749	986.6476	997.7944	1028.2864	1081.4115	1087.8043	1113.9726	1116.8677	1151.4297	1156.5138	1198.4315	1238.7623	1282.6494	1311.709	1329.5139	1357.7705	1408.2087	1420.9896	1475.0085	1514.7232	1812.0819	2884.4645	3028.0421	3055.4208	3080.4493	3083.8319	3089.2659	3116.9682	3810.995
OC12COC1C(C2)C=O	O[C@]12CO[C@H]1[C@@H](C2)C=O	
InChI=1S/C6H8O3/c7-2-4-1-6(8)3-9-5(4)6/h2,4-5,8H,1,3H2	InChI=1S/C6H8O3/c7-2-4-1-6(8)3-9-5(4)6/h2,4-5,8H,1,3H2/t4-,5-,6+/m0/s1
