23
gdb 116182	2.15028	1.34731	1.0474	2.4563	80.87	-0.2392	0.0724	0.3116	1271.8715	0.205073	-425.429621	-425.419529	-425.418585	-425.464517	37.702	
C	 0.2359805727	 1.5235084578	-0.2948387943	-0.428652
C	 0.0258235775	 0.0239849862	-0.0161126575	 0.246785
C	-1.4644153841	-0.2828249592	 0.1572388863	-0.447599
C	 0.6650713164	-0.8000069817	-1.1503312199	-0.092968
O	 2.0589825292	-0.7885143228	-0.8976573996	-0.264134
C	 2.2557956096	-0.808081497	 0.5180751275	-0.085571
C	 0.8889274795	-0.4930331145	 1.1718457638	-0.000753
C	 0.9975054347	 0.4135777833	 2.3879046318	-0.118089
O	 1.7280076494	-0.3037239837	 3.3760716159	-0.425029
H	 1.2909079867	 1.75102199	-0.4725282331	 0.128791
H	-0.3235762581	 1.8224631752	-1.187881628	 0.110406
H	-0.1165097288	 2.1463361312	 0.5334843272	 0.110287
H	-2.031774483	 0.0077152326	-0.7341835361	 0.113539
H	-1.6341560465	-1.3508690292	 0.3303107452	 0.11439
H	-1.8888478365	 0.2655035197	 1.0051969711	 0.114757
H	 0.268034987	-1.8300895745	-1.1454127929	 0.076772
H	 0.4978607435	-0.373769589	-2.1447898808	 0.099948
H	 2.6380678088	-1.7859835524	 0.8359353885	 0.102566
H	 3.0157094338	-0.0575216374	 0.7669671772	 0.100002
H	 0.444053711	-1.4321090323	 1.5225505383	 0.081259
H	 1.5136718307	 1.3480429548	 2.121169267	 0.089871
H	-0.0064914133	 0.6813183034	 2.7555828646	 0.086504
H	 1.8668421396	 0.2771838894	 4.129692508	 0.286917
56.8004	101.3666	170.9696	189.839	219.9946	251.5811	271.9479	284.2036	315.2316	342.241	369.6091	473.3492	486.0654	574.3065	682.2937	775.3345	857.2584	926.6137	943.144	950.7463	955.6665	985.9529	1016.5652	1036.466	1067.0991	1078.7634	1112.1728	1144.9398	1183.4616	1211.3533	1230.1913	1247.2616	1255.8778	1270.2322	1293.3551	1330.0859	1354.9696	1379.4704	1396.5515	1404.3908	1426.6827	1460.5608	1485.5138	1489.7363	1505.6776	1507.822	1513.7351	1521.7322	1530.5068	2949.7694	2964.5551	3000.8758	3017.6699	3024.201	3031.3449	3034.7362	3056.8289	3071.6359	3088.995	3096.3395	3096.7179	3113.7773	3829.6855
CC1(C)COCC1CO	CC1(C)COC[C@H]1CO	
InChI=1S/C7H14O2/c1-7(2)5-9-4-6(7)3-8/h6,8H,3-5H2,1-2H3	InChI=1S/C7H14O2/c1-7(2)5-9-4-6(7)3-8/h6,8H,3-5H2,1-2H3/t6-/m1/s1
