14
gdb 131537	2.93329	1.51165	1.0475	2.1968	65.49	-0.233	-0.0054	0.2276	1065.1319	0.102275	-469.952346	-469.945015	-469.944071	-469.984349	27.518	
O	 0.293431594	 1.3391729202	 0.38201078	-0.408172
C	 0.0812379808	-0.0079202102	 0.0934149337	-0.021153
C	-1.4259699005	-0.5290835613	 0.0129408953	-0.202427
N	-1.084797217	-0.9274078489	-1.3685913966	 0.097589
N	-1.4347070585	-1.5925260292	-2.4570846522	-0.183729
N	-0.3423256347	-1.5701903341	-3.2144040605	-0.276287
C	 0.6738917362	-0.9301990879	-2.5774077812	 0.202761
O	 1.8878172255	-0.7847153048	-3.132493484	-0.419245
C	 0.1943785335	-0.496541989	-1.3546091565	 0.19095
H	-0.044897663	 1.8666243026	-0.350562767	 0.291865
H	 0.6782005828	-0.5748850849	 0.810860285	 0.128373
H	-1.6861813144	-1.3701205061	 0.6582315485	 0.14862
H	-2.1816547644	 0.2567266173	 0.071923666	 0.140815
H	 1.8471478197	-1.2059980136	-4.0011996605	 0.310041
110.57	133.6712	228.0586	335.0276	367.309	405.6021	417.1057	473.532	531.3603	664.9823	673.821	700.5278	765.512	793.2702	878.9911	998.0166	1071.0469	1122.2055	1133.4093	1144.6241	1191.3692	1199.4692	1247.3947	1294.7873	1296.2184	1341.7471	1382.7786	1437.7084	1479.1045	1512.382	1655.8612	3076.769	3098.5579	3144.3963	3785.2656	3801.1891
OC1CN2N=NC(O)=C12	O[C@H]1Cn2nnc(O)c12	
InChI=1S/C4H5N3O2/c8-2-1-7-3(2)4(9)5-6-7/h2,8-9H,1H2	InChI=1S/C4H5N3O2/c8-2-1-7-3(2)4(9)5-6-7/h2,8-9H,1H2/t2-/m0/s1
