15
gdb 78151	2.34836	1.80686	1.32509	2.1349	66.06	-0.267	-0.0332	0.2338	971.0997	0.113821	-454.000228	-453.992742	-453.991798	-454.032272	28.223	
C	-0.0677040395	 1.5469744633	 0.0645068562	-0.426097
C	 0.0120750324	 0.0478471062	-0.0869372667	 0.004978
C	 0.6932939108	-0.6742779007	-1.2075938141	-0.198314
N	 1.2510791534	-0.7331953221	 0.160107718	-0.160893
C	 2.4457245987	 0.0616396579	 0.1406095414	 0.421631
O	 3.1100163474	 0.3534574015	 1.0940434367	-0.338143
N	 2.7004450248	 0.4227055701	-1.1852075904	-0.36353
C	 1.6912060152	 0.0541796485	-2.0695028966	 0.436192
O	 1.6716191554	 0.2435171831	-3.2578085547	-0.346697
H	 0.7724810342	 2.0713805472	-0.3942450509	 0.140672
H	-0.9883235261	 1.9078214941	-0.4037935343	 0.140712
H	-0.0997163529	 1.8141471747	 1.1251388216	 0.150994
H	-0.8531515704	-0.4758045909	 0.3139032791	 0.1242
H	 0.2582548655	-1.5779591538	-1.6204967978	 0.135312
H	 3.5006788012	 0.9780244009	-1.4508075575	 0.278982
126.1153	137.7642	189.9501	215.2723	369.5632	387.8566	475.088	531.2435	632.2957	641.193	654.6948	741.7808	758.6676	795.6006	827.843	897.7698	935.9911	988.8666	1026.4397	1080.5928	1112.2292	1147.3465	1177.4148	1275.4104	1316.693	1350.0794	1352.5261	1411.8992	1425.6722	1489.445	1498.2389	1848.9963	1891.0544	3050.4129	3114.6688	3128.6428	3146.2012	3180.2984	3629.8922
CC1C2N1C(=O)NC2=O	C[C@H]1[C@@H]2N1C(=O)NC2=O	
InChI=1S/C5H6N2O2/c1-2-3-4(8)6-5(9)7(2)3/h2-3H,1H3,(H,6,8,9)	InChI=1S/C5H6N2O2/c1-2-3-4(8)6-5(9)7(2)3/h2-3H,1H3,(H,6,8,9)/t2-,3-,7?/m0/s1
