20
gdb 113004	3.39503	0.94399	0.83626	4.1283	76.43	-0.2308	-0.0218	0.209	1432.3346	0.169071	-440.266751	-440.256818	-440.255874	-440.302308	35.556	
C	 0.1095177332	 1.4392202368	-0.0390696598	-0.386034
C	 0.0403558314	-0.0741033519	 0.1845323622	-0.184891
C	-1.3845663066	-0.6034800935	 0.1185421684	 0.029984
N	-2.0413768435	-0.4766302702	-1.2078598264	-0.334031
C	-2.5843582803	-1.8481520027	-1.1338153007	-0.082767
C	-2.3804362092	-2.670889397	-2.3943982985	 0.175416
O	-3.0844647966	-3.5939525446	-2.7118201733	-0.253144
C	-1.6091613264	-2.1484379142	 0.0432185351	 0.075043
O	-0.5148947711	-2.9155399059	-0.4056200261	-0.414973
H	 1.1428156621	 1.7972838671	-0.0114562773	 0.115599
H	-0.3090021218	 1.7004664559	-1.01613454	 0.128078
H	-0.4531215861	 1.98424555	 0.7276473732	 0.108911
H	 0.6355269651	-0.5932699972	-0.5730654555	 0.112648
H	 0.4679495732	-0.3268802163	 1.165038241	 0.082592
H	-1.9828890436	-0.1746295614	 0.9378022195	 0.059477
H	-2.7312710781	 0.2602662339	-1.2953149384	 0.222528
H	-3.632857126	-1.9379416138	-0.8235186412	 0.084795
H	-1.5176491148	-2.3368534778	-3.0083595442	 0.088347
H	-2.0761934643	-2.5995469668	 0.9253687116	 0.079891
H	 0.0810340634	-3.0651954005	 0.3346412005	 0.292532
55.6073	67.1681	103.3821	166.196	220.0176	229.4364	235.691	283.0373	322.5569	429.0469	436.1961	521.6119	573.3136	682.6524	769.9191	817.9474	849.8532	930.971	965.4997	973.7164	991.6347	1043.0832	1054.6535	1096.5448	1111.3994	1153.3319	1171.4579	1175.7095	1236.2575	1270.145	1283.0316	1303.5282	1314.6642	1357.8121	1381.7852	1394.0509	1405.4414	1418.1475	1423.3975	1483.3799	1499.9597	1509.867	1831.1859	2916.5191	2972.367	3014.2852	3027.0294	3031.5106	3045.7134	3079.4709	3102.8163	3110.3921	3541.1338	3828.184
CCC1NC(C=O)C1O	CC[C@H]1N[C@@H](C=O)[C@H]1O	
InChI=1S/C6H11NO2/c1-2-4-6(9)5(3-8)7-4/h3-7,9H,2H2,1H3	InChI=1S/C6H11NO2/c1-2-4-6(9)5(3-8)7-4/h3-7,9H,2H2,1H3/t4-,5+,6+/m1/s1
