15
gdb 12992	2.82546	2.70661	1.61693	3.1067	62.33	-0.2634	0.0079	0.2713	797.4971	0.1192	-399.801999	-399.795001	-399.794057	-399.833019	26.342	
C	-0.1468243076	 1.5035149526	-0.002696397	-0.487603
C	 0.1149221144	 0.0296483861	-0.0040380635	 0.320426
O	-0.6834843326	-0.8048895888	 0.8718407735	-0.283148
C	 0.7297387051	-0.7845137446	 1.0541599697	-0.046854
C	 1.3987383662	-1.9639804313	 0.3867725412	-0.116161
O	 1.01241584	-1.891546027	-0.9981804623	-0.252973
C	 0.3983718015	-0.7028542575	-1.281462468	 0.398445
N	 0.1186088503	-0.2793997112	-2.4364808111	-0.545291
H	 0.7177732328	 2.0485985063	-0.3918891955	 0.135842
H	-0.9986601316	 1.728714688	-0.6497829363	 0.155937
H	-0.3648552543	 1.8481444494	 1.0105237679	 0.128979
H	 1.1026167269	-0.3799181715	 1.9907108634	 0.111582
H	 2.4910823335	-1.9035246396	 0.4608304771	 0.119702
H	 1.0612108107	-2.9250205612	 0.785698211	 0.133939
H	 0.4286299749	-0.9399523098	-3.1515274001	 0.227177
140.7321	174.2538	223.3894	269.7963	307.8425	440.9315	468.589	584.4612	679.1384	713.1978	767.0142	820.5762	877.6565	908.4215	933.9573	964.9977	1004.8102	1054.9973	1092.1471	1104.1002	1116.4309	1210.632	1229.1834	1290.8621	1335.8951	1392.3671	1412.6935	1463.2691	1480.3433	1494.2435	1503.208	1781.8034	3037.6879	3052.5067	3094.0315	3123.114	3137.7184	3162.0804	3473.5462
CC12OC1COC2=N	C[C@]12O[C@H]1CO[C]2[NH]	
InChI=1S/C5H7NO2/c1-5-3(8-5)2-7-4(5)6/h3,6H,2H2,1H3	InChI=1S/C5H7NO2/c1-5-3(8-5)2-7-4(5)6/h3,6H,2H2,1H3/t3-,5-/m0/s1
