20
gdb 120232	2.98179	1.03151	0.85873	3.5242	79.9	-0.2338	-0.0181	0.2157	1414.8334	0.170174	-403.122398	-403.113287	-403.112343	-403.156963	33.562	
C	 0.0041776914	 1.5841397023	 0.03037607	-0.381785
C	 0.1208596022	 0.0579881895	 0.014048229	-0.166319
C	 0.5868373198	-0.4859822759	-1.343316994	-0.198564
C	 0.7400482674	-2.0039699672	-1.3482091234	-0.118492
C	 1.3770789285	-2.7119022565	-2.560074673	-0.077496
N	 2.7504494649	-2.2056511714	-2.6543854823	-0.325966
C	 2.4471321866	-3.3495805202	-1.7190180689	-0.18738
C	 1.8586409634	-2.6854968047	-0.4924521406	 0.447423
O	 2.062947226	-2.76603489	 0.6836316821	-0.315021
H	 0.9694703209	 2.0564230899	-0.1831046679	 0.116141
H	-0.7090550957	 1.9364162332	-0.7235884989	 0.1097
H	-0.3353701166	 1.9472344787	 1.005368932	 0.112163
H	 0.8170590554	-0.2732154216	 0.7928114484	 0.124517
H	-0.850456464	-0.3871966217	 0.2687588408	 0.090288
H	-0.1322601506	-0.196233154	-2.1222435676	 0.090393
H	 1.5453192793	-0.0344154258	-1.6207928348	 0.119402
H	-0.2034881055	-2.4940724173	-1.0716040046	 0.099802
H	 0.8656672063	-3.1428892749	-3.4110020407	 0.106587
H	 3.1892556576	-2.6305908357	-3.471782621	 0.240007
H	 2.9669278226	-4.2939465668	-1.8171812447	 0.114598
76.9227	77.7843	100.3947	170.4688	223.4135	247.2451	286.0807	370.8368	464.748	536.1436	615.1208	729.051	740.4258	769.7598	822.3587	833.4693	887.0912	897.6122	911.0619	956.6642	985.2511	1043.1094	1046.5624	1069.4782	1098.399	1110.2946	1122.3727	1151.7346	1181.4974	1240.7728	1283.4055	1297.8674	1315.4894	1332.2388	1347.8155	1365.9599	1394.8264	1409.8312	1489.1433	1496.7576	1498.8101	1513.0662	1890.1312	3009.8956	3017.7079	3027.0443	3028.104	3062.3303	3078.53	3097.5581	3102.2052	3197.352	3208.7781	3466.9521
CCCC1C2NC2C1=O	CCC[C@H]1[C@H]2N[C@H]2C1=O	
InChI=1S/C7H11NO/c1-2-3-4-5-6(8-5)7(4)9/h4-6,8H,2-3H2,1H3	InChI=1S/C7H11NO/c1-2-3-4-5-6(8-5)7(4)9/h4-6,8H,2-3H2,1H3/t4-,5+,6+/m0/s1
