21
gdb 98523	3.61518	1.04781	0.94498	2.6151	83.76	-0.2358	-0.0139	0.2219	1345.0701	0.18206	-387.065551	-387.056515	-387.055571	-387.101177	33.487	
C	-0.0475349107	 1.4970219457	 0.0709209176	-0.378937
C	 0.0350296636	-0.0224281801	-0.0504071512	-0.292644
C	 0.7530044143	-0.4929957535	-1.3082699934	 0.215341
O	 1.2086102566	 0.2815663254	-2.1216309882	-0.306009
C	 0.8751885385	-1.9782478626	-1.502583488	 0.305236
C	-0.2831193165	-3.0280614876	-1.6260509097	-0.256602
C	 1.0393899008	-3.8338211039	-1.766400586	-0.051732
C	 1.559982283	-2.6981240984	-2.695569137	-0.253447
C	 1.5841183491	-3.0139836819	-0.5626010931	-0.256678
H	 0.9509016127	 1.941365735	 0.086059848	 0.13088
H	-0.5791865897	 1.9275215296	-0.7814736704	 0.130832
H	-0.5698692777	 1.7850526804	 0.9875340379	 0.10735
H	 0.5495684162	-0.4642457515	 0.8141736648	 0.123173
H	-0.9648902323	-0.4780177627	-0.0449019914	 0.123109
H	-0.8789191731	-3.2119285645	-0.7277505021	 0.092905
H	-0.9105483194	-2.9462498843	-2.5175577509	 0.100145
H	 1.1366238766	-4.9082532825	-1.9229073026	 0.076854
H	 1.0736568407	-2.5926257838	-3.6680194099	 0.09862
H	 2.6432037759	-2.5808081788	-2.7741813631	 0.098585
H	 2.6699762403	-2.9193020626	-0.4783358923	 0.100113
H	 1.1175546311	-3.1969167675	 0.409297251	 0.092904
15.9683	57.2507	136.5539	166.2706	213.2769	273.2995	344.6205	453.1127	518.7513	555.9328	572.0322	703.761	764.578	804.9042	822.51	878.2302	902.0866	940.0329	961.4895	963.0916	991.9342	997.5985	1032.7457	1070.6493	1100.5464	1102.1142	1111.5608	1136.4281	1140.2678	1164.8286	1168.1002	1232.8668	1232.9137	1244.3197	1275.9042	1300.8434	1379.9756	1413.2114	1451.3442	1492.5138	1496.6332	1497.5936	1499.0719	1551.7347	1791.7144	3017.9479	3043.4241	3046.7969	3050.3663	3050.5783	3062.5429	3110.0017	3114.0111	3118.19	3121.317	3126.4629	3128.2905
CCC(=O)C12CC(C1)C2	CCC(=O)[C@@]12C[C@@H](C1)C2	
InChI=1S/C8H12O/c1-2-7(9)8-3-6(4-8)5-8/h6H,2-5H2,1H3	InChI=1S/C8H12O/c1-2-7(9)8-3-6(4-8)5-8/h6H,2-5H2,1H3/t6-,8-
