17
gdb 69817	3.1732	1.63108	1.28696	1.167	72.71	-0.2427	-0.0024	0.2403	981.2069	0.136649	-421.799907	-421.792654	-421.79171	-421.83115	29.594	
O	 0.0046257441	 1.3783250697	 0.0582475305	-0.472939
C	 0.0505927073	-0.0238897594	-0.0162857391	 0.354654
C	-0.5372360243	-0.6652565073	-1.2560382422	-0.349629
C	-1.2987027432	-0.7220056353	 0.0464040411	-0.102857
C	-1.3876570004	-2.0159432452	 0.796401013	 0.026521
O	-0.711969418	-3.1431139085	 0.2445517886	-0.255704
C	-0.1852588864	-2.5647202371	 1.4632013832	-0.007407
C	 1.0789534969	-1.8024001159	 1.3861218752	-0.075356
C	 1.1743172797	-0.6491908029	 0.7140616019	-0.130774
H	 0.580585851	 1.7311279762	-0.6288589456	 0.284246
H	-0.9091722793	 0.0176119935	-2.0121324647	 0.113196
H	-0.1030493532	-1.5915952049	-1.6115368909	 0.140189
H	-2.1482950053	-0.0575768954	 0.1505564376	 0.100822
H	-2.3620158632	-2.2424778058	 1.2268528296	 0.093963
H	-0.3087671748	-3.2144551116	 2.3278911602	 0.092217
H	 1.9366035381	-2.1941078759	 1.9243943238	 0.095297
H	 2.1072116309	-0.0906477442	 0.7152629079	 0.09356
162.2649	198.345	246.2249	340.1511	383.2706	390.8931	475.2794	502.1312	563.4384	647.5383	690.6485	725.5054	783.4221	817.2879	863.744	888.2988	920.8145	940.5961	951.8257	975.3207	1016.8722	1048.4154	1067.2135	1086.5467	1103.2176	1137.3846	1198.5103	1212.2319	1281.1642	1283.5524	1335.9678	1377.6464	1389.0118	1425.9748	1443.5996	1473.7809	1693.1453	3115.6587	3126.8588	3139.0951	3153.0589	3179.502	3187.002	3242.5545	3796.8089
OC12CC1C1OC1C=C2	O[C@]12C[C@H]1[C@H]1O[C@H]1C=C2	
InChI=1S/C7H8O2/c8-7-2-1-5-6(9-5)4(7)3-7/h1-2,4-6,8H,3H2	InChI=1S/C7H8O2/c8-7-2-1-5-6(9-5)4(7)3-7/h1-2,4-6,8H,3H2/t4-,5-,6+,7+/m0/s1
