12
gdb 42618	2.75258	2.16513	1.50093	5.9628	57.93	-0.2822	-0.0448	0.2373	821.993	0.07835	-472.625447	-472.619405	-472.618461	-472.656082	23.425	
O	-0.0691445961	 0.0651177455	 0.256779641	-0.279743
C	-0.1218431565	 1.2305937619	 0.0625055484	 0.431708
C	-1.1471267616	 2.2701237042	-0.2010750438	-0.255482
C	-0.6796414181	 3.5748728851	 0.5077751235	 0.08461
O	 0.1946451012	 3.4978737149	 1.6082890162	-0.220125
C	 1.2774479838	 2.7265712283	 1.2195390201	 0.440153
O	 2.1987898974	 2.4855048837	 1.9223922843	-0.304621
N	 1.0150844393	 2.2235331934	-0.1191614445	-0.262657
C	 0.0106831229	 3.1552840718	-0.7088928094	-0.068607
H	-2.1619088476	 2.145999214	-0.55493747	 0.13652
H	-1.3888217526	 4.3884332984	 0.5736845724	 0.153433
H	 0.1661693679	 3.6313668689	-1.6658185284	 0.144811
142.2745	146.3908	417.3416	445.4878	508.9577	598.9636	663.6752	711.7788	773.5756	782.1281	819.5272	844.2215	860.0519	868.5582	910.7299	985.5762	1016.4452	1029.8199	1052.6178	1070.9006	1118.4777	1136.8261	1250.4305	1285.7386	1396.9862	1913.1571	1964.8131	3214.3612	3225.2698	3236.7114
O=C1C2C3OC(=O)N1C23	O=C1[C@H]2[C@H]3OC(=O)N1[C@@H]23	
InChI=1S/C5H3NO3/c7-4-1-2-3(1)9-5(8)6(2)4/h1-3H	InChI=1S/C5H3NO3/c7-4-1-2-3(1)9-5(8)6(2)4/h1-3H/t1-,2+,3-/m1/s1
