18
gdb 79020	3.71725	1.77765	1.59896	1.0469	73.08	-0.2351	0.0751	0.3102	877.1863	0.151397	-401.913383	-401.907118	-401.906174	-401.943633	26.815	
O	-0.0185182005	 1.4796133336	-0.086692055	-0.433944
C	 0.016226316	 0.084309178	 0.0309349281	 0.143665
C	 0.1270659378	-0.5933488713	 1.4305969402	-0.093059
C	-0.9874184247	 0.0714453332	 2.2621356521	-0.05585
C	-2.1138044235	-0.931443059	 2.3873672721	-0.092944
C	-1.5773021635	-2.2395794687	 1.8349034878	-0.183844
N	-0.6460738879	-1.7389397458	 0.8123519766	-0.132734
C	-1.3528365568	-0.6243025064	 0.0673405635	-0.064155
C	-2.1037535814	 0.0487849161	 1.2352217451	-0.05522
H	 0.8840975834	 1.7996598506	-0.1732515988	 0.286417
H	 0.6914288846	-0.3836714908	-0.6933241646	 0.083695
H	 1.0786324726	-0.8261755307	 1.9110564269	 0.061994
H	-0.8236484018	 0.8859245371	 2.9524980383	 0.086341
H	-2.8473534618	-0.8694998398	 3.1814920959	 0.083751
H	-1.0344244721	-2.8378464068	 2.5742819646	 0.102926
H	-2.3447800501	-2.8658217447	 1.3676940707	 0.103551
H	-1.9068499271	-0.8849082024	-0.8348584101	 0.068136
H	-2.8228279332	 0.8448465677	 1.1102419066	 0.091275
212.8147	238.4759	265.9989	423.5668	535.9656	544.79	729.7697	743.4908	754.0049	768.0316	798.5343	806.683	844.6015	852.8619	898.4588	947.5848	960.8533	965.4815	985.4817	1019.7233	1028.5195	1059.2865	1060.8407	1075.8206	1093.8139	1148.8813	1174.2425	1180.8374	1230.617	1238.4522	1241.1066	1256.457	1279.2051	1291.5008	1299.9867	1308.9175	1381.0014	1436.8359	1495.4219	3043.4982	3053.565	3089.5755	3102.3425	3113.3653	3195.184	3218.8086	3229.3462	3831.1566
OC1C2C3C4CN2C1C34	O[C@H]1[C@H]2[C@@H]3[C@@H]4CN2[C@H]1[C@H]34	
InChI=1S/C7H9NO/c9-7-5-3-2-1-8(5)6(7)4(2)3/h2-7,9H,1H2	InChI=1S/C7H9NO/c9-7-5-3-2-1-8(5)6(7)4(2)3/h2-7,9H,1H2/t2-,3+,4-,5+,6-,7-
