22
gdb 89157	2.27483	1.44334	1.24874	0.9412	82.97	-0.2071	0.073	0.2801	1173.2469	0.192948	-404.307177	-404.297751	-404.296807	-404.340882	36.276	
C	-0.5828541952	 1.3721768645	-0.0640093877	-0.411542
C	-0.0477657369	-0.0532891119	-0.040154241	-0.03878
C	 1.2264122439	-0.3509217511	-0.9060806711	-0.23819
C	 2.0125107811	-0.6673956584	 0.3836437468	-0.029154
N	 2.512869446	 0.5636756617	 1.0518365843	-0.079394
C	 3.891339401	 0.5990438456	 1.4847701856	-0.321273
C	 1.4598923376	 0.4978492646	 2.0903198865	-0.242725
C	 0.7187648064	-0.5553183618	 1.2363395634	 0.378287
O	 0.1939992502	-1.6783801465	 1.883012425	-0.481378
H	 0.2176114344	 2.0964895392	 0.1149674068	 0.134392
H	-1.0226453458	 1.6010710787	-1.0409314875	 0.113617
H	-1.3615243069	 1.5272956247	 0.6922396303	 0.103459
H	-0.8529930142	-0.7610753949	-0.2628917537	 0.069876
H	 1.1005207646	-1.2140517696	-1.5653713251	 0.09622
H	 1.6188856299	 0.491374359	-1.4804512649	 0.098517
H	 2.6777847085	-1.5352952906	 0.4254234641	 0.064116
H	 4.5554895624	 0.5528435123	 0.614919088	 0.118772
H	 4.0904248621	 1.541553743	 2.0067854107	 0.117721
H	 4.1620774037	-0.229189792	 2.1672584852	 0.090756
H	 1.7998178272	 0.0297347289	 3.0277939838	 0.088618
H	 0.9764666254	 1.4551467146	 2.3185216171	 0.090548
H	-0.6977929155	-1.4662403699	 2.1809239233	 0.277538
71.7692	164.7641	185.6586	219.7145	230.6649	272.2219	305.1307	318.353	333.5313	415.9997	418.8925	491.7179	580.4761	665.2464	743.748	774.0728	871.3772	898.6033	943.5287	960.7682	987.4746	991.6473	1046.0921	1085.3462	1094.9097	1109.786	1140.0224	1169.0198	1175.8812	1195.7161	1216.0773	1227.8939	1236.1029	1260.3686	1280.5595	1313.1872	1330.3852	1351.1371	1394.8192	1410.1948	1452.3091	1468.3929	1485.4734	1492.1936	1502.9412	1504.8331	1519.4578	2923.8025	2976.8559	3024.9981	3044.4103	3048.383	3050.8988	3054.4917	3065.3155	3086.2133	3093.4122	3108.009	3117.1914	3792.0193
CC1CC2N(C)CC12O	C[C@H]1C[C@H]2N(C)C[C@@]12O	
InChI=1S/C7H13NO/c1-5-3-6-7(5,9)4-8(6)2/h5-6,9H,3-4H2,1-2H3	InChI=1S/C7H13NO/c1-5-3-6-7(5,9)4-8(6)2/h5-6,9H,3-4H2,1-2H3/t5-,6+,7+/m0/s1
