17
gdb 55552	2.39258	1.40866	0.94916	3.3086	73.6	-0.2373	-0.0106	0.2267	1212.4709	0.137914	-451.340189	-451.331259	-451.330314	-451.374658	32.696	
N	 0.2361690944	 1.0445114217	 0.1594406452	-0.550926
C	-0.6481044923	 0.0189189886	 0.4168992906	 0.479055
O	-1.391098154	 0.0493605427	 1.3842848751	-0.395235
N	-0.5440853588	-1.0190817228	-0.4871875584	-0.386732
C	-1.2418226189	-2.2266930452	-0.68523595	 0.378078
N	-0.9311079859	-2.7987684161	-1.78740533	-0.526745
C	-2.2024361363	-2.8332363186	 0.2851330486	-0.049792
C	-2.010278009	-2.8707017242	 1.7660564041	-0.244342
N	-3.1397082765	-2.147855313	 1.1876980034	-0.324115
H	 0.0593389448	 1.8767091214	 0.698649801	 0.272408
H	 0.5991187659	 1.1926517297	-0.7681242766	 0.260214
H	 0.1121170462	-0.9018523201	-1.2475301205	 0.252941
H	-1.4352553953	-3.6763027179	-1.8929569168	 0.226595
H	-2.6435909562	-3.7188921041	-0.1658585762	 0.094707
H	-2.2491126446	-3.7928738107	 2.2889746365	 0.119225
H	-1.2031097803	-2.2828609428	 2.1903285512	 0.132524
H	-2.9025664131	-1.1568862485	 1.2288041227	 0.26214
39.2302	100.1544	116.8906	222.4903	239.6297	287.1735	339.2203	403.1598	481.6285	496.5426	523.8307	635.6826	682.6682	722.3833	763.8859	783.4417	844.7733	869.0259	905.8462	980.3551	996.2137	1046.5461	1107.3383	1118.6997	1146.267	1179.4608	1228.4888	1297.7412	1324.4826	1337.6467	1410.0025	1430.0922	1498.8761	1533.7864	1629.2913	1680.2282	1788.9685	3116.2086	3130.3545	3213.2056	3470.8634	3513.6269	3585.9476	3598.878	3716.0177
NC(=O)NC(=N)C1CN1	NC(=O)NC(=N)[C@H]1CN1	
InChI=1S/C4H8N4O/c5-3(2-1-7-2)8-4(6)9/h2,7H,1H2,(H4,5,6,8,9)	InChI=1S/C4H8N4O/c5-3(2-1-7-2)8-4(6)9/h2,7H,1H2,(H4,5,6,8,9)/t2-/m1/s1
