16
gdb 9334	5.19802	0.93311	0.81059	4.7012	65.54	-0.2343	-0.0642	0.17	1340.898	0.12948	-417.060971	-417.052036	-417.051092	-417.095395	30.826	
O	-0.0002025829	 1.3689751793	-0.31774592	-0.424345
C	-0.0191912795	-0.0188631757	 0.0036943681	-0.096911
C	-1.4767845413	-0.4270266985	 0.1346790234	-0.118613
N	-2.1816152861	-0.1095152157	-1.0915519123	-0.324731
C	-3.4206511236	-0.6174423043	-1.3568400786	 0.289511
N	-3.9798449754	-1.5212269737	-0.6444851081	-0.519369
C	-4.0586093204	-0.0402368724	-2.6028496424	 0.108373
O	-5.1365951814	-0.3907554806	-3.0039412784	-0.236406
H	 0.9035958781	 1.6244178803	-0.522414265	 0.29535
H	 0.4613562765	-0.6123254535	-0.787848981	 0.101084
H	 0.5023617357	-0.2200339477	 0.9504710693	 0.100913
H	-1.5613659165	-1.5013486921	 0.3178154446	 0.142222
H	-1.9310254617	 0.0839167016	 0.996337932	 0.119251
H	-1.9178037174	 0.7681658583	-1.5141773675	 0.251043
H	-4.8694722055	-1.765945023	-1.0835411499	 0.232896
H	-3.4662666486	 0.7388300777	-3.135054034	 0.079732
47.9978	93.1832	111.1176	175.5481	220.0683	281.8338	295.6555	316.1632	448.8473	487.6569	523.0007	583.5951	740.6491	858.4714	879.923	913.7237	957.0355	1025.4456	1073.5255	1098.1477	1126.0178	1186.2788	1211.4371	1262.3793	1291.9627	1329.3905	1388.2718	1431.8631	1458.4411	1499.3602	1515.4794	1543.6606	1701.3615	1833.8414	2872.1533	2990.1661	3001.9286	3032.1007	3103.7811	3467.578	3616.5955	3839.4999
OCCNC(=N)C=O	OCCNC(=N)C=O	
InChI=1S/C4H8N2O2/c5-4(3-8)6-1-2-7/h3,7H,1-2H2,(H2,5,6)	InChI=1S/C4H8N2O2/c5-4(3-8)6-1-2-7/h3,7H,1-2H2,(H2,5,6)
