18
gdb 11915	4.49352	1.58577	1.35489	0.9993	68.37	-0.2454	0.0896	0.335	962.1671	0.153398	-384.931974	-384.924238	-384.923293	-384.964373	29.025	
C	 0.0255239386	 1.5303396025	 0.0467457641	-0.406566
C	 0.2016248415	 0.0338490489	 0.1515087786	 0.222722
O	 0.5664747491	-0.5130498594	-1.1068358772	-0.270524
C	 1.4114799499	-1.6321175629	-0.8577696815	-0.154677
C	 1.6584090179	-1.5765688351	 0.6490995565	 0.413872
C	 1.3888007765	-2.7314742577	 1.5762867644	-0.327526
C	 2.8008059233	-2.2016959765	 1.3666823311	-0.343813
O	 1.2616928946	-0.2834476545	 1.031526661	-0.278384
H	 0.9604273669	 1.9874409621	-0.2857902724	 0.131408
H	-0.7628471074	 1.7601349042	-0.6742470826	 0.129472
H	-0.2542960343	 1.9442496546	 1.0188873547	 0.126134
H	-0.7244587627	-0.4568825556	 0.5056555272	 0.060611
H	 0.9244012084	-2.5679028521	-1.1612649998	 0.102952
H	 2.3328583004	-1.5095330052	-1.4397221879	 0.109534
H	 0.9103772619	-2.5042037341	 2.5222999661	 0.123743
H	 1.1291161114	-3.6940852236	 1.1471770866	 0.113147
H	 3.5020048358	-2.8008241074	 0.7949188508	 0.117888
H	 3.2454243783	-1.630296138	 2.1737617302	 0.130006
54.9026	117.4274	209.5513	241.5081	292.0944	375.5672	425.2494	505.2312	549.0877	704.6676	767.3087	807.6168	856.7334	868.9794	885.7842	938.5153	943.0328	1000.5141	1050.8924	1052.3003	1077.1386	1098.0508	1123.7953	1144.5437	1165.6342	1189.1176	1209.9497	1268.9019	1336.7928	1360.1084	1393.7311	1403.2753	1439.8041	1451.9207	1483.8941	1486.8077	1504.4719	1527.744	2924.4295	3012.039	3049.9924	3054.8253	3128.0032	3133.4186	3134.3197	3140.3421	3214.9389	3228.8079
CC1OCC2(CC2)O1	C[C@H]1OCC2(CC2)O1	
InChI=1S/C6H10O2/c1-5-7-4-6(8-5)2-3-6/h5H,2-4H2,1H3	InChI=1S/C6H10O2/c1-5-7-4-6(8-5)2-3-6/h5H,2-4H2,1H3/t5-/m0/s1
