17
gdb 66137	2.63568	1.43717	1.41964	1.4315	67.67	-0.2473	-0.0369	0.2103	1014.9437	0.133841	-458.95364	-458.945263	-458.944319	-458.987041	30.763	
C	 0.1847386914	 1.5350708816	-0.2153364641	-0.435237
C	 0.0183496294	 0.0182110193	-0.0989376879	 0.259
O	 0.7469464723	-0.5939214349	-1.170101457	-0.304272
C	 1.366815764	-1.8042988904	-0.7336371755	-0.122394
C	 1.4460878976	-1.7037728523	 0.77229762	 0.030686
O	 2.0242649794	-0.4716211907	 1.2215523185	-0.257274
C	 0.6000482597	-0.5804165276	 1.1729197937	-0.011124
C	-1.4652581257	-0.3412876344	-0.2205923459	 0.118026
O	-2.2411016395	-0.3365965916	 0.699771871	-0.254395
H	 1.2407277314	 1.7821374848	-0.0860050904	 0.14906
H	-0.1404806607	 1.8797989653	-1.2008065225	 0.131847
H	-0.4078184399	 2.0437117891	 0.5499785337	 0.134784
H	 0.773391269	-2.6881382077	-1.015360125	 0.104012
H	 2.3455761045	-1.871905867	-1.2194425275	 0.125922
H	 1.6273289969	-2.5794412706	 1.3885460594	 0.111338
H	 0.0558772988	-0.5129633565	 2.1083117931	 0.124265
H	-1.7712177987	-0.5990998763	-1.2595404238	 0.095757
50.7045	126.7947	171.4909	228.0207	266.2047	282.7352	335.6777	389.1479	476.8184	555.8615	632.4362	769.1908	805.3313	845.0887	882.7841	896.4917	939.9017	963.1469	971.1779	1002.4814	1057.1593	1093.8912	1120.1037	1152.5717	1191.7728	1216.3691	1226.2923	1262.2361	1315.351	1370.9709	1387.2587	1397.3294	1438.9968	1484.1143	1491.8313	1507.5093	1826.9037	2886.81	2988.2257	3048.2507	3075.7116	3125.7326	3139.4693	3163.9138	3189.0801
CC1(OCC2OC12)C=O	C[C@]1(OC[C@H]2O[C@@H]12)C=O	
InChI=1S/C6H8O3/c1-6(3-7)5-4(9-5)2-8-6/h3-5H,2H2,1H3	InChI=1S/C6H8O3/c1-6(3-7)5-4(9-5)2-8-6/h3-5H,2H2,1H3/t4-,5-,6+/m1/s1
