18
gdb 90532	4.65491	1.06057	0.97971	2.1004	78.83	-0.2327	0.0278	0.2606	1235.6801	0.146753	-401.866272	-401.857839	-401.856894	-401.899362	32.206	
C	 0.4287174137	 1.5631795859	-0.2032303909	-0.406513
C	 0.0672290153	 0.1131437563	 0.01253358	 0.162596
O	 0.8792643341	-0.8135465317	-0.7806078027	-0.317839
C	 1.1571730805	-1.6317009278	 0.3597899833	 0.106413
C	 2.516205293	-1.2865984773	 1.0501679449	-0.173447
N	 1.8250764806	-0.1800746901	 1.8021048873	-0.330248
C	 0.4938069278	-0.6142210241	 1.3108299745	-0.079258
C	 3.0530158476	-2.3449748261	 1.8847532622	 0.320357
C	 3.4652166766	-3.223730095	 2.5957336264	-0.454885
H	 1.4499336995	 1.7555047456	 0.1319027827	 0.140805
H	 0.3413990037	 1.8169756474	-1.264185173	 0.124846
H	-0.2539427441	 2.2104359201	 0.3584746009	 0.112701
H	-0.9941058889	-0.0660744413	-0.2113678493	 0.074972
H	 0.9047897829	-2.6844187374	 0.2223117364	 0.093163
H	 3.273219518	-0.9113996157	 0.3531862424	 0.115117
H	 1.9344676642	-0.273896972	 2.8047963929	 0.230007
H	-0.2634477704	-0.831668534	 2.0643597049	 0.07913
H	 3.8455714161	-3.9979208427	 3.2153653773	 0.202083
71.3401	129.1255	167.1281	200.4437	265.5444	341.206	382.0375	446.1255	509.0992	565.7873	630.4966	654.9799	708.2701	713.2837	801.0216	855.1998	861.167	905.3089	948.6077	990.3797	1019.635	1047.7199	1056.7651	1072.4166	1098.84	1155.0723	1190.8647	1193.4405	1236.4063	1273.8738	1281.2049	1322.3371	1344.4459	1371.4287	1400.8552	1410.3634	1479.1811	1493.576	2227.6512	3000.038	3039.6561	3050.8558	3094.622	3105.4786	3109.6109	3137.6296	3502.0346	3554.6863
CC1OC2C(NC12)C#C	C[C@H]1O[C@H]2[C@@H](N[C@@H]12)C#C	
InChI=1S/C7H9NO/c1-3-5-7-6(8-5)4(2)9-7/h1,4-8H,2H3	InChI=1S/C7H9NO/c1-3-5-7-6(8-5)4(2)9-7/h1,4-8H,2H3/t4-,5+,6+,7+/m1/s1
