17
gdb 10099	2.42792	1.61224	1.08424	3.3022	71.97	-0.2538	0.0195	0.2733	1107.0173	0.139961	-363.857497	-363.84816	-363.847216	-363.892396	32.651	
C	-0.2248924734	 1.4816803535	 0.3542959493	-0.38996
C	-0.1185332134	-0.027270391	 0.1310824314	-0.169172
C	 0.6970396862	-0.4029173659	-1.1282125389	-0.154399
N	 2.0777899195	 0.0800620018	-1.0639635078	-0.273328
C	 2.5402082927	 1.0844949057	-1.8575156824	 0.160341
O	 1.863568686	 1.7388242043	-2.6218235614	-0.322781
C	 0.6791011077	-1.8485937857	-1.3559132008	 0.303082
C	 0.6689657189	-3.0416296374	-1.5004737644	-0.426304
H	 0.7600868972	 1.9316867056	 0.5068973573	 0.124609
H	-0.686424408	 1.9792967459	-0.504157673	 0.13329
H	-0.8324197574	 1.6956296847	 1.2384558979	 0.114083
H	 0.3373856191	-0.5143942692	 1.0016086778	 0.100714
H	-1.1153238603	-0.4674093785	 0.0180793489	 0.11559
H	 0.2616521061	 0.1109258167	-1.9929451835	 0.149808
H	 2.7396248706	-0.4509765108	-0.5194838595	 0.252882
H	 3.6263342031	 1.2500702267	-1.7163226618	 0.080675
H	 0.6524954853	-4.0927922365	-1.651887229	 0.20087
31.2336	91.5751	137.3513	151.6094	193.2874	236.9765	288.786	315.6539	450.4924	516.3799	525.4929	542.5533	631.2569	661.5495	730.8305	790.2957	899.3558	973.1026	997.2852	1030.8802	1067.6432	1113.853	1141.7754	1199.9403	1286.6674	1309.8502	1351.2422	1376.7787	1411.7402	1427.0707	1478.8303	1493.6359	1504.6279	1517.3209	1802.1504	2237.7352	2941.4923	3033.3931	3043.5247	3057.9318	3077.1341	3113.5905	3118.7303	3502.556	3630.487
CCC(NC=O)C#C	CC[C@@H](NC=O)C#C	
InChI=1S/C6H9NO/c1-3-6(4-2)7-5-8/h1,5-6H,4H2,2H3,(H,7,8)	InChI=1S/C6H9NO/c1-3-6(4-2)7-5-8/h1,5-6H,4H2,2H3,(H,7,8)/t6-/m0/s1
