15
gdb 30964	2.36195	1.48368	0.93876	5.2516	65.8	-0.2046	0.0364	0.241	1194.7207	0.112973	-491.119334	-491.110808	-491.109864	-491.152778	30.824	
C	-0.1252463182	 1.4600067589	 0.1596881955	-0.338716
N	-0.141860033	 0.1477361165	-0.4919308406	-0.391762
C	-1.1800804253	-0.7042680497	-0.2088538778	 0.385884
C	-1.2434309112	-2.0155544682	 0.048180535	 0.133433
N	-0.2509227322	-2.9671343334	 0.1887057824	-0.603278
O	-2.6243776364	-2.3616737546	 0.1124668822	-0.239687
C	-3.3370634232	-1.2294902043	-0.0615412782	 0.494805
O	-4.5213443018	-1.1156502996	-0.0391940125	-0.378358
O	-2.4566438041	-0.187836226	-0.2739230356	-0.239625
H	 0.695638904	 2.0451715822	-0.2596989619	 0.133718
H	-1.0609870613	 1.9779519502	-0.0568899629	 0.162254
H	-0.0020741995	 1.4033168685	 1.2509536191	 0.119806
H	 0.7389681815	-0.3466866991	-0.4302386271	 0.254229
H	-0.2693558106	-3.4391943289	 1.087369221	 0.253535
H	-0.2542446287	-3.6695386123	-0.5450046685	 0.253763
83.3457	136.3165	171.1381	191.8525	239.1582	285.5006	323.9281	385.3086	418.5528	603.495	623.6565	657.4159	676.3082	715.077	778.9233	781.6064	842.204	935.8837	998.8018	1061.8468	1145.2604	1157.5648	1202.7985	1219.4757	1282.323	1403.3969	1471.3043	1480.8895	1496.9018	1523.2961	1662.8309	1823.9123	1939.6339	2999.823	3104.1192	3147.0034	3487.8039	3550.246	3580.6133
CNC1=C(N)OC(=O)O1	CNc1c(N)oc(=O)o1	
InChI=1S/C4H6N2O3/c1-6-3-2(5)8-4(7)9-3/h6H,5H2,1H3	InChI=1S/C4H6N2O3/c1-6-3-2(5)8-4(7)9-3/h6H,5H2,1H3
