21
gdb 75176	4.46274	0.93482	0.80287	0.854	91.79	-0.2324	0.0278	0.2603	1456.7047	0.182475	-349.951497	-349.942356	-349.941411	-349.98506	35.358	
C	-0.0014746511	 1.5464614336	 0.0542201852	-0.475396
C	-0.0134260303	 0.0439765116	-0.0246403143	 0.332374
C	-0.0446900434	-0.6104574165	-1.1882450245	-0.159136
C	-0.0227757284	-2.1090620549	-1.3323610093	-0.244508
C	 0.4127367397	-2.8122127629	-0.0266932776	-0.179368
C	-0.3248920806	-2.1789401877	 1.1724673699	-0.20066
C	 0.0216014143	-0.6907120771	 1.2973633517	-0.309052
C	 0.207112766	-4.2547123973	-0.098255294	 0.298698
C	 0.0156681982	-5.4403108362	-0.1602746959	-0.436649
H	 0.8811436084	 1.9066825805	 0.5992696881	 0.120534
H	 0.003098416	 2.005087939	-0.9381837646	 0.11871
H	-0.8760017762	 1.9225372775	 0.601096879	 0.120563
H	-0.0852074104	-0.0407367387	-2.1148385274	 0.074815
H	-1.0147236008	-2.4796395043	-1.6273014716	 0.11634
H	 0.6520574232	-2.3997793266	-2.1462284293	 0.111054
H	 1.4876209284	-2.6246779522	 0.1094959841	 0.103057
H	-1.4038529356	-2.300900177	 1.0201976115	 0.108498
H	-0.0716281144	-2.7117811067	 2.0937087395	 0.104249
H	 1.0180776945	-0.5706748246	 1.7497190532	 0.106071
H	-0.6712626937	-0.2092588897	 2.0003215362	 0.100902
H	-0.1420956236	-6.4888351796	-0.2135838599	 0.188904
76.9644	136.6508	170.3336	187.2883	256.2888	300.8615	326.2191	370.4907	436.854	486.5798	514.3011	546.6615	623.5598	632.0825	648.5654	764.1888	810.8783	821.1974	920.9446	932.7077	967.1874	1017.6902	1032.1904	1043.7269	1065.9855	1093.9677	1121.3332	1162.7223	1173.6312	1233.1813	1268.4576	1309.4547	1319.9465	1339.7717	1352.898	1385.075	1397.7785	1413.3012	1473.9403	1479.4853	1480.2111	1491.714	1496.5555	1743.0229	2234.3494	2991.5404	2997.9197	3011.9741	3012.4397	3027.0433	3044.3432	3051.5636	3057.0564	3088.0467	3109.3715	3139.1924	3505.5829
CC1=CCC(CC1)C#C	CC1=CC[C@@H](CC1)C#C	
InChI=1S/C9H12/c1-3-9-6-4-8(2)5-7-9/h1,4,9H,5-7H2,2H3	InChI=1S/C9H12/c1-3-9-6-4-8(2)5-7-9/h1,4,9H,5-7H2,2H3/t9-/m0/s1
