17
gdb 111558	2.64821	1.67554	1.27058	2.0031	66.52	-0.2169	0.0565	0.2733	1000.6137	0.135401	-458.87468	-458.866892	-458.865948	-458.906851	30.594	
O	 0.541456772	 0.218949655	 0.7647982059	-0.42307
C	-0.1319953706	 0.317705946	-0.4990508772	-0.113218
C	-1.5089732296	-0.3212081487	-0.4118996346	-0.097007
C	-2.1747648136	-0.982450328	-1.6599397256	 0.036254
O	-1.144640433	-1.8529767045	-2.2065824146	-0.287427
C	-1.3480934625	-2.6642824631	-1.0453153003	 0.005653
C	-2.7156111423	-2.1383339316	-0.7314716961	-0.209668
C	-1.5675866864	-1.7309289594	 0.1702801963	 0.367339
O	-1.3461809302	-2.0989693623	 1.4754763032	-0.468067
H	 0.0944852225	 0.8101007054	 1.3797839959	 0.286841
H	-0.1782952027	 1.3626173111	-0.8376889361	 0.09023
H	 0.4814904518	-0.2425900855	-1.2079984293	 0.134166
H	-2.238965787	 0.3186399171	 0.097903863	 0.075355
H	-2.7161278414	-0.4136184413	-2.4125268787	 0.088834
H	-0.9188051433	-3.6557649935	-0.9935585055	 0.11506
H	-3.6830016493	-2.5933941746	-0.5732047145	 0.107719
H	-0.4491960743	-1.800439492	 1.6790458481	 0.291006
102.789	142.0867	217.8267	292.7965	320.9688	357.6361	407.8835	483.8823	547.5918	599.1008	689.7417	728.8936	758.029	801.0958	834.4531	898.9183	928.6602	949.3508	964.9529	977.0771	1017.508	1031.5008	1071.8829	1101.057	1118.4646	1140.711	1184.2187	1198.5156	1207.5754	1267.3032	1296.2385	1326.9045	1373.0374	1399.7089	1408.2455	1467.0871	1508.6158	3001.8248	3045.3602	3115.3331	3145.8843	3209.9094	3222.4436	3760.0419	3810.8733
OCC1C2OC3C2C13O	OC[C@H]1[C@H]2O[C@@H]3[C@H]2[C@]13O	
InChI=1S/C6H8O3/c7-1-2-4-3-5(9-4)6(2,3)8/h2-5,7-8H,1H2	InChI=1S/C6H8O3/c7-1-2-4-3-5(9-4)6(2,3)8/h2-5,7-8H,1H2/t2-,3-,4+,5+,6+/m0/s1
