18
gdb 39584	3.48325	1.53664	1.11791	2.0712	76.78	-0.2447	0.0115	0.2562	1056.7734	0.151325	-401.962217	-401.955368	-401.954424	-401.993389	27.649	
C	-0.0433463064	 1.5628473918	 0.0386295805	-0.312228
C	 1.437347964	 1.9003639598	-0.0288930445	-0.061514
C	 2.2030438572	 0.8919140898	 0.4021706476	-0.128476
C	 1.3230429589	-0.2362980977	 0.8871188876	-0.026731
C	 1.6469202999	-1.7073283887	 0.7262920253	-0.106654
O	 0.470593234	-2.4809043753	 1.0840761872	-0.24309
C	-0.7519112723	-1.8877547936	 1.0425387528	 0.13103
N	-1.0857770299	-0.7392975636	 0.6198928072	-0.29624
C	 0.0310562099	 0.0272640259	 0.0958964562	 0.085211
H	-0.5017965339	 1.970041653	 0.9511729724	 0.115941
H	-0.622335335	 1.9392070853	-0.8099874292	 0.107405
H	 1.8064129383	 2.8642549617	-0.3610426654	 0.097943
H	 3.2838402017	 0.9077987635	 0.4865127487	 0.095075
H	 1.1042431788	-0.0762297571	 1.9565394971	 0.097628
H	 1.9215339617	-1.9574310928	-0.3053046509	 0.116383
H	 2.4393494686	-2.0597218906	 1.3926896469	 0.116622
H	-1.4925546467	-2.5726894966	 1.45084144	 0.122867
H	 0.2174602211	-0.302851445	-0.9379433195	 0.088828
131.0712	187.8755	288.6725	361.7801	403.053	465.8734	513.1356	550.3827	592.8197	723.8109	763.0528	816.9773	854.8092	899.2613	938.0459	962.6173	964.3138	970.7226	1032.7682	1054.5944	1092.3108	1105.2132	1138.7735	1154.9071	1168.9407	1189.3548	1228.8996	1266.8065	1285.0203	1333.9921	1342.8658	1371.3983	1382.313	1405.0601	1414.7134	1487.196	1516.9213	1652.1574	1696.9261	2959.2312	2980.2755	3015.4218	3035.6066	3080.8698	3090.1252	3162.7229	3183.079	3207.3888
C1C=CC2COC=NC12	C1C=C[C@@H]2CO[CH][N][C@@H]12	
InChI=1S/C7H9NO/c1-2-6-4-9-5-8-7(6)3-1/h1-2,5-7H,3-4H2	InChI=1S/C7H9NO/c1-2-6-4-9-5-8-7(6)3-1/h1-2,5-7H,3-4H2/t6-,7+/m1/s1
