15
gdb 48405	2.18662	1.71957	1.1945	1.9704	65.62	-0.2549	-0.0518	0.2031	1026.819	0.109506	-457.728377	-457.72	-457.719056	-457.762811	29.358	
O	-0.1701047957	-0.0740888869	 0.53937853	-0.254954
C	 0.073727448	 0.8033961995	-0.2510328018	 0.089472
C	 1.1950864415	 1.8049232403	-0.0543182413	 0.107391
C	 2.6151026194	 1.2846731605	-0.5873853846	-0.302716
C	 2.5873143439	 2.4356112881	-1.5961547559	 0.05464
O	 1.3932886723	 2.2996237706	-2.3749597789	-0.251736
C	 1.3025695827	 2.9362402048	-1.0958389464	-0.032799
C	 1.3076961188	 2.2490597702	 1.3859410146	 0.086843
O	 1.5821613629	 3.3782231121	 1.7069400027	-0.255216
H	-0.5031159008	 0.9249149587	-1.1902138628	 0.113491
H	 3.3902650341	 1.3901089955	 0.175019173	 0.138922
H	 2.6333703797	 0.2746621989	-1.0016595849	 0.135612
H	 3.4213643312	 2.9556039822	-2.0499781888	 0.122898
H	 0.8969130202	 3.9376591141	-1.0416739369	 0.130145
H	 1.1271434219	 1.4468849514	 2.128750942	 0.118006
26.1618	90.6421	143.4842	197.3888	212.3226	296.3944	361.081	403.0666	556.1643	636.385	690.3003	807.7046	828.9656	857.2168	886.6726	908.1535	970.7209	986.3432	1011.0466	1043.4641	1090.1568	1119.359	1160.8	1215.7274	1229.9099	1254.9984	1278.3247	1384.6444	1403.3718	1419.8845	1469.6939	1799.9416	1821.5756	2930.1131	2944.7504	3073.0213	3135.4944	3202.4293	3219.778
O=CC1(CC2OC12)C=O	O=CC1(C[C@H]2O[C@@H]12)C=O	
InChI=1S/C6H6O3/c7-2-6(3-8)1-4-5(6)9-4/h2-5H,1H2	InChI=1S/C6H6O3/c7-2-6(3-8)1-4-5(6)9-4/h2-5H,1H2/t4-,5-/m1/s1
