17
gdb 94343	2.87186	1.28128	1.06965	5.7918	73.9	-0.2627	0.0069	0.2696	1148.6386	0.136108	-417.977412	-417.969047	-417.968103	-418.010604	31.438	
O	 0.4730545078	 0.8019039437	-0.6477371162	-0.432836
C	 0.1903665645	-0.2896613311	 0.1673144281	 0.111364
C	-0.0424707798	-0.0874493343	 1.7026874957	-0.254721
C	-1.2647210024	-1.0534141423	 1.6214191078	-0.323126
C	-1.2391868748	-0.8503664092	 0.1065364614	 0.308609
N	-2.213620903	-0.0816124968	-0.6562761006	-0.365398
C	-1.9861981027	-1.5089581107	-0.999655125	-0.290026
C	-1.3699046958	-1.7829177946	-2.2753092401	 0.33706
N	-0.8715460513	-2.0395333353	-3.2861963859	-0.330569
H	-0.380353225	 1.1612960878	-0.9303888662	 0.294435
H	 0.9407635669	-1.0669280058	-0.0158758855	 0.101382
H	 0.7730493055	-0.3657775648	 2.3715560204	 0.111385
H	-0.3477446028	 0.9410766667	 1.9092966334	 0.114646
H	-1.0171079782	-2.0790294356	 1.9076109867	 0.124456
H	-2.1795290544	-0.7549496963	 2.1400877591	 0.110704
H	-3.0966690485	 0.0138387085	-0.1596033957	 0.247642
H	-2.7559823059	-2.2239946397	-0.7202034574	 0.134994
84.6019	96.6622	167.8617	224.2149	276.97	352.9996	395.8952	419.4708	457.7833	555.4763	589.5616	648.448	720.7582	769.3348	831.5858	899.3909	913.5697	925.5391	951.1648	999.7276	1039.0429	1071.0815	1102.1762	1156.5338	1181.733	1195.6	1219.4706	1238.5331	1262.7407	1280.0227	1337.7249	1354.1622	1438.995	1447.3437	1473.9815	1495.325	2361.692	3049.6085	3060.9205	3075.6368	3110.0124	3139.0126	3144.973	3497.2673	3730.0925
OC1CCC11NC1C#N	O[C@H]1CC[C@]21N[C@H]2C#N	
InChI=1S/C6H8N2O/c7-3-4-6(8-4)2-1-5(6)9/h4-5,8-9H,1-2H2	InChI=1S/C6H8N2O/c7-3-4-6(8-4)2-1-5(6)9/h4-5,8-9H,1-2H2/t4-,5-,6-/m0/s1
