15
gdb 44017	4.45966	1.58097	1.37081	1.5705	68.41	-0.2481	-0.0266	0.2214	895.8694	0.113285	-420.530929	-420.524901	-420.523956	-420.561167	25.189	
O	-0.0704235762	 0.0216840539	 0.0055744684	-0.303226
C	 0.0133392727	 1.2151291106	-0.0013201398	 0.418619
C	-1.2035830408	 2.2394039965	-0.0669192	-0.469174
C	-0.3090323462	 3.4412219725	-0.0362357196	 0.473951
O	-0.2650852947	 4.8865288893	-0.0471688545	-0.390044
C	 1.1667315322	 4.4362406796	 0.0232553508	 0.004796
C	 0.8577841866	 3.2628064973	 0.9801203847	-0.098706
C	 1.2850664419	 2.0947159828	 0.0497566348	-0.208759
C	 0.9466645276	 3.2456004413	-0.9369189906	-0.098708
H	-1.7766779531	 2.0932240007	-0.9859758961	 0.138807
H	-1.8593617105	 2.1092306085	 0.7976503771	 0.138809
H	 1.9183368633	 5.2229791542	 0.0510405161	 0.105954
H	 0.7653531544	 3.2820956823	 2.064896519	 0.098522
H	 2.241194051	 1.5788502285	 0.0987174816	 0.090637
H	 0.9550111317	 3.245381232	-2.0257647718	 0.098521
136.2377	342.5973	357.4283	484.5041	521.9056	578.644	618.8307	694.539	716.032	751.0982	765.0916	801.5353	858.0165	884.1927	917.5942	942.4032	981.673	983.0541	1028.515	1056.4398	1101.2092	1106.6281	1138.4855	1145.7489	1173.1438	1188.2789	1198.9934	1220.6458	1280.1135	1293.9473	1358.692	1476.5743	1873.8969	3068.9349	3121.9794	3128.0271	3133.5251	3143.2037	3153.999
O=C1CC23OC4C2C1C34	O=C1C[C@@]23O[C@H]4[C@@H]2[C@@H]1[C@@H]34	
InChI=1S/C7H6O2/c8-2-1-7-4-3(2)5(7)6(4)9-7/h3-6H,1H2	InChI=1S/C7H6O2/c8-2-1-7-4-3(2)5(7)6(4)9-7/h3-6H,1H2/t3-,4+,5-,6+,7-
