18
gdb 47763	1.99851	1.67129	1.24116	2.4894	77.74	-0.2184	-0.0241	0.1943	1090.7836	0.148344	-401.930697	-401.922272	-401.921328	-401.963789	32.199	
O	 0.0459557299	-0.0307891368	-0.0845858142	-0.310594
C	-0.0117566672	 1.1713885756	-0.0024755127	 0.394427
C	-1.307705685	 1.9633555487	 0.0241119615	-0.29985
C	-1.3082357239	 3.0543945246	-1.0697849967	-0.208753
C	-0.0168200109	 3.8831086745	-1.0119145229	-0.163342
N	 1.2047920893	 3.072898848	-1.0650837422	-0.288158
C	 1.2673640947	 2.0496129222	-0.002191695	-0.26447
C	 1.4613559393	 2.6523878661	 1.3153207634	 0.358447
C	 1.5836396263	 3.1129987407	 2.4190810969	-0.466991
H	-2.1453096522	 1.2700362471	-0.0814480999	 0.120043
H	-1.3799842018	 2.4439753494	 1.0085030864	 0.134049
H	-1.3886306761	 2.5775579825	-2.0555508547	 0.104037
H	-2.1877558397	 3.6993382241	-0.9578957539	 0.104092
H	 0.0189534903	 4.5993579318	-1.8388162512	 0.10817
H	 0.0139924633	 4.4646879459	-0.0827527756	 0.123163
H	 1.2591018804	 2.5960157783	-1.9609838735	 0.22573
H	 2.1064508165	 1.3806047525	-0.2192667912	 0.125327
H	 1.7130576469	 3.5233291148	 3.3902668953	 0.204674
79.8526	127.8654	137.3458	222.1864	318.2383	355.0952	399.0527	443.8377	489.6084	541.0037	604.2139	628.1754	661.2364	707.0364	752.686	777.1531	859.9749	890.8341	910.3636	968.5811	1007.7682	1033.3193	1093.6625	1121.5558	1163.8838	1196.9541	1237.4359	1257.3822	1282.3258	1336.4455	1351.914	1374.4312	1379.5322	1465.3586	1480.0496	1489.1751	1494.753	1822.7208	2231.3687	3019.3175	3033.0401	3038.3439	3062.1922	3065.7385	3087.1316	3109.0244	3501.4408	3504.7607
O=C1CCCNC1C#C	O=C1CCCN[C@H]1C#C	
InChI=1S/C7H9NO/c1-2-6-7(9)4-3-5-8-6/h1,6,8H,3-5H2	InChI=1S/C7H9NO/c1-2-6-7(9)4-3-5-8-6/h1,6,8H,3-5H2/t6-/m0/s1
