15
gdb 18549	4.34269	1.96815	1.55274	2.5435	66.54	-0.2309	-0.0267	0.2041	807.4034	0.120075	-362.658472	-362.652169	-362.651225	-362.689025	24.381	
O	 0.0592124267	 0.1189010075	-0.9130626116	-0.281489
C	 0.0226905599	 1.1469225036	-0.3103603664	 0.392807
C	-1.0655800548	 1.965059401	 0.4019059407	-0.299852
N	-0.0865012731	 3.069670133	 0.5923998738	-0.098183
C	 0.2184296995	 3.4124778783	 1.9937183027	-0.222634
C	 1.4409909231	 2.5924379473	 2.3366145448	-0.069423
C	 1.9074235299	 1.9472728519	 1.2678708471	-0.084478
C	 1.0506370562	 2.2389768072	 0.0659687702	-0.152685
H	-1.9340579686	 2.228651209	-0.2112789538	 0.135105
H	-1.4202480264	 1.4941283455	 1.3302688432	 0.12464
H	 0.4141789491	 4.4884656257	 2.1068691705	 0.115589
H	-0.6443272161	 3.1865896496	 2.6355345649	 0.110564
H	 1.8832789043	 2.5769302072	 3.3259193065	 0.106772
H	 2.7830215025	 1.3121405061	 1.2258207517	 0.115485
H	 1.6056117376	 2.662611607	-0.7807858741	 0.107783
98.0226	176.9835	323.3804	423.2535	448.8208	548.9794	611.462	693.8975	732.7309	777.6694	823.7362	871.2891	939.3815	957.798	976.503	993.8132	1025.0113	1051.0756	1087.2639	1098.814	1121.2647	1177.8659	1214.0652	1229.1528	1254.5911	1273.2982	1328.0419	1348.3543	1460.6949	1504.9747	1666.5193	1912.5377	2998.7087	3005.436	3026.8344	3028.005	3069.9368	3199.3968	3227.1601
O=C1CN2CC=CC12	O=C1CN2CC=C[C@@H]12	
InChI=1S/C6H7NO/c8-6-4-7-3-1-2-5(6)7/h1-2,5H,3-4H2	InChI=1S/C6H7NO/c8-6-4-7-3-1-2-5(6)7/h1-2,5H,3-4H2/t5-/m0/s1
