22
gdb 88579	3.37608	1.07309	0.90981	1.3232	88.79	-0.2163	0.0215	0.2378	1369.7296	0.195203	-367.193434	-367.184498	-367.183554	-367.227793	33.849	
C	-0.4902553244	-1.9065731301	 3.0786824001	-0.306397
N	-0.1738330321	-1.6664316684	 1.6778059529	-0.087791
C	-0.9326244541	-0.6129596747	 1.0143263896	-0.247707
C	 0.5285763565	-0.4410475159	 1.2814686376	-0.112285
C	 1.0341729274	 0.6091134259	 2.2089586569	 0.311258
C	 1.7454169416	 0.4501523613	 3.328704376	-0.162007
C	 2.1924545788	 1.7603795083	 3.9291422468	-0.246892
C	 1.364922158	 2.8084031105	 3.1413169589	-0.207283
C	 0.9046210675	 2.081699075	 1.8543343787	-0.2922
H	-0.7373512862	-0.9993734788	 3.6487166652	 0.104113
H	-1.3463531317	-2.5879183794	 3.1228864389	 0.118172
H	 0.3568990739	-2.398841268	 3.5672392182	 0.118866
H	-1.2971054908	-0.8335128891	 0.0140051062	 0.110234
H	-1.6139487944	-0.0229653298	 1.6275817305	 0.102799
H	 1.1911217857	-0.6115122639	 0.4304366036	 0.097701
H	 2.0236246792	-0.5074023907	 3.7543129	 0.089515
H	 2.0230239105	 1.8179273091	 5.0105568871	 0.100972
H	 3.2738404592	 1.8989604267	 3.7837637161	 0.104593
H	 0.4871603992	 3.0936692416	 3.7298960521	 0.103966
H	 1.9252665157	 3.7237552255	 2.9355386554	 0.096856
H	 1.5474549646	 2.3216923531	 0.9945966986	 0.102746
H	-0.1136155042	 2.3543015615	 1.5550880706	 0.100771
35.3344	114.1809	147.0981	168.1085	255.0073	274.4034	336.3478	385.1093	462.1127	514.0993	611.2413	679.192	771.4838	814.0891	833.8421	872.8944	898.7292	906.9315	921.9923	962.642	981.5323	1039.4647	1040.8162	1068.1034	1082.2191	1118.6931	1138.5302	1148.822	1160.2994	1180.9535	1208.1812	1227.3794	1235.5367	1279.7948	1316.9335	1326.8655	1332.7788	1351.3685	1393.7428	1451.6117	1483.8216	1487.7017	1493.598	1499.2657	1506.7439	1512.8002	1709.1884	2994.1338	3000.4183	3001.0543	3042.5649	3051.7402	3062.5037	3069.7274	3074.7142	3082.4486	3097.5102	3101.341	3169.0756	3195.4262
CN1CC1C1=CCCC1	CN1C[C@H]1C1=CCCC1	
InChI=1S/C8H13N/c1-9-6-8(9)7-4-2-3-5-7/h4,8H,2-3,5-6H2,1H3	InChI=1S/C8H13N/c1-9-6-8(9)7-4-2-3-5-7/h4,8H,2-3,5-6H2,1H3/t8-,9?/m0/s1
