17
gdb 79981	2.271	1.7845	1.47397	2.1525	73.28	-0.245	-0.0081	0.2369	972.465	0.135083	-421.816278	-421.808213	-421.807269	-421.848506	31.336	
C	 0.0501557917	 1.5660430392	 0.0364303472	-0.516182
C	 0.0610152975	 0.0588052038	 0.0563511816	 0.126403
C	 0.458355133	-0.7440744501	-1.1713644531	-0.152546
C	 0.3454723207	-2.0377667735	-0.8020347475	-0.118648
C	-0.1143981686	-1.9812798211	 0.639996287	-0.238498
C	 0.7593180978	-0.7935577753	 1.1956367586	 0.139475
O	 2.14186459	-0.8955759195	 1.2291570576	-0.437424
C	-1.1896763282	-0.8402441505	 0.4293539508	 0.406079
O	-2.361287554	-0.7011166651	 0.5404206051	-0.301019
H	 1.0714938476	 1.9591403256	-0.0061443695	 0.131334
H	-0.4966884411	 1.9500589946	-0.8305265722	 0.129828
H	-0.4276838555	 1.9671114932	 0.9352210609	 0.129637
H	 0.6579228394	-0.32927999	-2.150009577	 0.111844
H	 0.4290163112	-2.9290228515	-1.407431639	 0.115933
H	-0.3047143749	-2.8960090655	 1.1949693221	 0.087648
H	 0.4368036936	-0.4771475039	 2.1926366961	 0.104529
H	 2.4224533097	-1.1864302205	 0.3501152414	 0.281607
134.3645	146.3457	188.9397	243.2396	261.7136	324.4659	418.499	475.4831	537.849	598.5713	620.8737	677.1028	723.9851	768.1331	800.2385	809.3428	836.4771	897.4558	912.7924	952.9582	984.1119	1074.8405	1092.5248	1115.5425	1143.8116	1149.9564	1194.9038	1241.5958	1275.5985	1304.7515	1363.7018	1414.6247	1447.0822	1490.363	1491.3694	1576.4829	1917.8984	3035.8517	3076.0523	3102.4276	3108.8098	3161.9598	3217.3108	3242.2191	3741.9984
CC12C=CC(C1O)C2=O	C[C@@]12C=C[C@@H]([C@H]1O)C2=O	
InChI=1S/C7H8O2/c1-7-3-2-4(5(7)8)6(7)9/h2-5,8H,1H3	InChI=1S/C7H8O2/c1-7-3-2-4(5(7)8)6(7)9/h2-5,8H,1H3/t4-,5+,7+/m0/s1
