16
gdb 9837	3.94324	1.45177	1.17042	3.1869	62.27	-0.2599	-0.0278	0.2321	1012.9176	0.128085	-420.874041	-420.865692	-420.864748	-420.906903	30.806	
O	 0.1349541525	 1.3172320614	-0.0198637906	-0.42293
C	 0.0613581455	-0.0753800569	-0.0652701915	-0.131358
C	-1.380581292	-0.5467046404	 0.0546237976	 0.288465
O	-2.2693029148	 0.277093311	 0.1739685089	-0.35275
C	-1.6487359667	-2.0124006598	 0.0078379903	 0.279566
O	-0.5302828557	-2.8408265843	-0.1335241327	-0.454349
C	-2.8677676782	-2.5278724078	 0.7558672949	-0.303538
C	-2.8941462168	-2.4502137056	-0.7381015918	-0.268411
H	-0.7844652055	 1.6139933403	 0.0805450183	 0.292797
H	 0.4807203924	-0.4802401166	-0.9994072526	 0.131328
H	 0.6474632809	-0.5359282438	 0.7480985492	 0.101896
H	-0.1521415811	-2.998487658	 0.738476824	 0.291678
H	-2.7595486007	-3.5059210802	 1.2111827863	 0.124076
H	-3.4350946933	-1.7951662531	 1.3175688604	 0.144009
H	-3.4829663922	-1.6670865188	-1.2000967929	 0.143642
H	-2.7879458446	-3.3708887273	-1.2991168677	 0.135877
62.0645	126.4512	186.8382	251.3898	308.9798	324.6246	348.4884	395.703	447.7442	457.0719	568.8442	583.1366	781.4807	794.017	851.5849	866.1012	946.4096	998.6708	1021.323	1050.51	1083.4293	1091.6832	1148.4439	1204.821	1236.8996	1263.2925	1289.9722	1341.9321	1353.474	1439.5089	1452.9428	1473.5866	1480.6543	1771.0932	2969.0354	3002.8887	3140.3088	3148.9039	3235.5486	3251.6302	3671.5213	3799.6621
OCC(=O)C1(O)CC1	OCC(=O)C1(O)CC1	
InChI=1S/C5H8O3/c6-3-4(7)5(8)1-2-5/h6,8H,1-3H2	InChI=1S/C5H8O3/c6-3-4(7)5(8)1-2-5/h6,8H,1-3H2
