17
gdb 56619	1.99401	1.35928	0.99601	1.7391	78.39	-0.2574	-0.0249	0.2324	1241.1402	0.133974	-417.999345	-417.989694	-417.988749	-418.034292	34.429	
C	 0.2108875069	 1.0734972894	 0.4061305859	-0.389994
C	-0.0687569449	-0.313373455	-0.2006547405	-0.148787
C	-1.5003981748	-0.5739567702	-0.3411932385	 0.307074
C	-2.6839689288	-0.7692501036	-0.4103737278	-0.434345
N	 0.65013281	-0.493625124	-1.4810827985	-0.082895
C	 1.9274513221	-1.0459832392	-1.4609069993	 0.097882
N	 2.4780006298	-1.399013636	-0.3707794362	-0.471891
C	 0.1128995985	-0.0657994388	-2.686305577	 0.163711
O	 0.6764997835	-0.1380994895	-3.7531715638	-0.319845
H	 1.2876366494	 1.2013366613	 0.5377886687	 0.145145
H	-0.1710504566	 1.8674310652	-0.2415005434	 0.127895
H	-0.2765128243	 1.1586168673	 1.3806031355	 0.135839
H	 0.3639063354	-1.0672243043	 0.4642022398	 0.163898
H	-3.727880981	-0.9552571752	-0.4759734869	 0.207577
H	 2.3447396501	-1.1187795477	-2.4659000376	 0.149317
H	 3.3993178009	-1.7920910619	-0.5514012703	 0.236111
H	-0.9011515561	 0.3456755621	-2.56020429	 0.113308
40.1572	114.8841	159.2033	183.0281	223.723	237.1633	254.6497	280.4945	321.3941	421.6291	462.1918	545.6201	626.7388	632.3385	671.9136	696.765	828.5485	836.7699	899.8942	1012.8305	1037.0529	1082.4634	1088.93	1121.4972	1151.4445	1249.7879	1325.8057	1342.1593	1391.8431	1403.3606	1427.1827	1451.2439	1489.3773	1493.467	1709.2135	1804.6283	2239.0918	3014.9477	3049.507	3070.1756	3128.6783	3133.9687	3138.741	3500.9503	3512.2448
CC(C#C)N(C=N)C=O	C[C@@H](C#C)N(C=N)C=O	
InChI=1S/C6H8N2O/c1-3-6(2)8(4-7)5-9/h1,4-7H,2H3	InChI=1S/C6H8N2O/c1-3-6(2)8(4-7)5-9/h1,4-7H,2H3/t6-/m0/s1
