21
gdb 94088	4.09205	0.87515	0.76607	2.8872	79.58	-0.2468	-0.0204	0.2264	1475.1531	0.183026	-424.258013	-424.248966	-424.248022	-424.292144	34.202	
O	-0.05422468	 1.4412055421	-0.0155759956	-0.439023
C	 0.0219097893	 0.0227465005	-0.0028729558	 0.146063
C	 0.7719070387	-0.5029893881	 1.2262332428	-0.232781
C	 0.7503583227	-2.0368674703	 1.2924529227	-0.224264
C	-0.693632416	-2.5827918526	 1.2634293494	-0.048396
C	-1.4531376682	-2.0362587521	 0.0349350773	-0.229115
C	-1.4113693465	-0.5034446938	-0.0240733673	-0.199113
C	-0.6710864626	-4.0947343283	 1.2259201718	 0.149208
O	-1.1432382393	-4.8224309356	 2.0604427616	-0.250149
H	 0.842713285	 1.7891509473	 0.0183746244	 0.279308
H	 0.5397483507	-0.3372279344	-0.9102155781	 0.059986
H	 1.809982529	-0.1458751915	 1.2132981685	 0.085369
H	 0.2999479728	-0.0797166613	 2.1219010656	 0.108553
H	 1.3072169975	-2.4494463604	 0.4390627028	 0.099822
H	 1.2635094071	-2.3830655121	 2.1959170063	 0.111401
H	-1.2164495157	-2.2890117539	 2.1808019394	 0.092238
H	-1.0037293552	-2.4522568652	-0.8780687786	 0.099516
H	-2.4920115063	-2.3820640302	 0.0554752533	 0.111935
H	-1.9438579641	-0.0782787523	 0.8359555129	 0.107827
H	-1.91919702	-0.1403951411	-0.9232499502	 0.105944
H	-0.1602095491	-4.5143912967	 0.3244611268	 0.06567
55.815	84.1573	222.3459	223.674	270.2235	282.078	323.4781	345.6451	379.7841	465.494	476.8722	540.0092	590.6807	794.1769	798.1211	889.0607	893.067	937.4263	954.273	1015.6282	1020.9154	1054.5346	1068.3889	1085.8806	1117.6909	1133.0474	1164.3024	1210.8171	1238.816	1270.3914	1282.712	1307.323	1326.8625	1340.2751	1354.297	1369.4307	1385.5909	1400.1957	1428.2766	1441.0453	1483.5264	1486.6899	1493.0159	1505.0661	1835.2385	2830.1841	2935.1664	3008.5003	3011.878	3017.2588	3034.5351	3050.4486	3060.3089	3070.6152	3075.3968	3084.6885	3813.6432
OC1CCC(CC1)C=O	O[C@H]1CC[C@@H](CC1)C=O	
InChI=1S/C7H12O2/c8-5-6-1-3-7(9)4-2-6/h5-7,9H,1-4H2	InChI=1S/C7H12O2/c8-5-6-1-3-7(9)4-2-6/h5-7,9H,1-4H2/t6-,7-
