14
gdb 5645	5.16811	2.07096	1.49205	1.1442	69.98	-0.2066	-0.0065	0.2001	788.8542	0.110294	-345.436517	-345.430916	-345.429971	-345.465974	22.75	
C	-0.0568335283	 1.5213105031	 0.0107751208	-0.421072
C	 1.4143617468	 1.9200944731	-0.0011317421	-0.079534
C	 2.2344816287	 0.8525750224	-0.0148506355	-0.209223
C	 1.430147341	-0.3623348256	-0.0138341256	 0.245376
C	 1.4606166533	-1.7197437157	-0.0215937547	-0.167438
O	 0.1800084234	-2.2015643966	-0.0119513162	-0.158364
C	-0.6710995089	-1.1279255945	 0.0021076426	-0.154267
C	 0.0426894441	 0.0199719836	 0.0015655636	 0.211915
H	-0.5740623586	 1.9149242793	 0.8955509373	 0.129013
H	-0.5908820006	 1.9245773638	-0.8595430125	 0.129012
H	 1.7321053073	 2.9557694877	 0.001514264	 0.100373
H	 3.3162902462	 0.8876475899	-0.025023445	 0.10279
H	 2.2364449193	-2.466706125	-0.0331424622	 0.135899
H	-1.7197167137	-1.3756937655	 0.0107991154	 0.13552
225.4071	264.883	440.5274	451.076	597.5767	657.5517	681.773	700.5206	721.4696	753.968	766.9129	851.6481	919.5226	941.4757	954.5366	960.2564	1051.8012	1085.3181	1133.8959	1153.549	1158.0778	1242.8177	1271.8961	1289.4849	1345.3157	1393.8738	1455.9865	1607.2179	1609.2237	1676.2229	3023.4533	3047.1137	3202.2244	3225.8754	3272.2002	3278.9949
C1C=CC2=COC=C12	C1C=Cc2cocc12	
InChI=1S/C7H6O/c1-2-6-4-8-5-7(6)3-1/h1-2,4-5H,3H2	InChI=1S/C7H6O/c1-2-6-4-8-5-7(6)3-1/h1-2,4-5H,3H2
