20
gdb 95648	2.40103	1.55544	1.14044	2.0772	76.33	-0.2614	0.0166	0.278	1140.3095	0.171582	-440.306817	-440.29794	-440.296996	-440.34022	33.543	
C	-0.0691631353	 1.5309146128	-0.1105712835	-0.420753
C	 0.0492171921	 0.0190191532	-0.0255692585	 0.104634
O	 0.7690633699	-0.4311315344	-1.1801724546	-0.236817
C	 0.7331861826	-1.8116530967	-1.2748171388	 0.011508
O	 1.3075114214	-2.4779504788	-0.145886323	-0.257064
C	 0.9496977165	-2.0219497384	 1.0975878303	 0.358218
N	 0.888085899	-2.7903271651	 2.0999201193	-0.50454
C	 0.7627209205	-0.5211237376	 1.2308255289	-0.045306
C	 2.1343652866	 0.1364739369	 1.4803521546	-0.403601
H	 0.9156299669	 1.9985184019	-0.1816435958	 0.135955
H	-0.6445822688	 1.8114767406	-0.9965199724	 0.127499
H	-0.5798371291	 1.9230862877	 0.7740791716	 0.122801
H	-0.962070685	-0.4220367654	-0.0603958114	 0.075233
H	-0.304651053	-2.169767709	-1.3862926715	 0.094966
H	 1.3330480437	-2.108880039	-2.1364764151	 0.127668
H	 1.0862714669	-3.7524715761	 1.8155438433	 0.218654
H	 0.1243097323	-0.363217085	 2.1043303194	 0.102186
H	 2.7762932836	 0.0431707626	 0.6004163039	 0.13369
H	 2.023641225	 1.1981811525	 1.7158556558	 0.117846
H	 2.6289275545	-0.3481165926	 2.3252432576	 0.137224
80.1066	130.5467	209.6799	219.892	233.2696	295.0313	297.4669	317.3186	415.2951	467.2795	503.2299	627.8985	701.8282	731.2051	779.9535	832.8429	886.8393	926.1723	966.3123	997.6977	1020.4283	1040.1259	1094.9266	1118.357	1128.9443	1156.3568	1174.4833	1209.2339	1295.2022	1300.7547	1328.9604	1335.1259	1374.2565	1395.9419	1403.3074	1418.0344	1457.9457	1483.4509	1493.2213	1503.7693	1510.2246	1518.9133	1752.7894	2951.2202	2959.1309	3048.9892	3052.0124	3079.6572	3120.4436	3122.5055	3123.1358	3132.6415	3133.7631	3457.6006
CC1OCOC(=N)C1C	C[C@H]1OCO[C]([NH])[C@H]1C	
InChI=1S/C6H11NO2/c1-4-5(2)8-3-9-6(4)7/h4-5,7H,3H2,1-2H3	InChI=1S/C6H11NO2/c1-4-5(2)8-3-9-6(4)7/h4-5,7H,3H2,1-2H3/t4-,5+/m0/s1
