16
gdb 34632	2.39369	1.69524	1.08106	4.9417	77.67	-0.265	-0.0491	0.2159	1088.2406	0.124873	-400.760352	-400.7525	-400.751556	-400.793308	29.126	
N	 0.0901014074	-1.1348029543	-0.0248529934	-0.344252
C	 0.0203265298	 0.0208473093	 0.0041900662	 0.214104
C	-0.0236690625	 1.4402227745	 0.0594583211	 0.166809
C	-1.1257408946	 2.2030647218	 0.0584793425	-0.169528
C	-0.8063270463	 3.6728776861	 0.1013538534	-0.270102
C	 0.7316065176	 3.7225126791	 0.293233779	-0.314333
C	 1.2164762448	 2.2839244807	 0.0871316805	 0.340187
C	 2.5459531045	 1.7840595374	 0.4523614211	-0.258529
O	 2.2013440695	 2.0196502861	-0.9172342182	-0.26477
H	-2.1380203863	 1.8191974386	 0.0144767197	 0.129324
H	-1.1332775542	 4.159105715	-0.8267569479	 0.133609
H	-1.3440248803	 4.1770611294	 0.9118836479	 0.126854
H	 1.2302900903	 4.3873615408	-0.4147507821	 0.133323
H	 0.9802507767	 4.0630779052	 1.3021743204	 0.12283
H	 3.2718297712	 2.4763931886	 0.8780749272	 0.118975
H	 2.6787015426	 0.7385128418	 0.7263655327	 0.1355
54.1025	133.6893	154.7153	255.4377	319.6587	349.2399	445.7345	478.1205	563.016	628.8214	667.7284	731.5811	777.8023	838.0818	887.0936	908.1397	925.6948	972.8836	1024.5497	1050.0511	1085.598	1127.5663	1166.5125	1179.1726	1226.4871	1247.7952	1292.6668	1327.3303	1329.3492	1415.1057	1469.4749	1489.0715	1525.3297	1675.2142	2342.6394	3030.3345	3060.4227	3071.5502	3080.4976	3121.1034	3170.8403	3212.7383
N#CC1=CCCC11CO1	N#CC1=CCC[C@]21CO2	
InChI=1S/C7H7NO/c8-4-6-2-1-3-7(6)5-9-7/h2H,1,3,5H2	InChI=1S/C7H7NO/c8-4-6-2-1-3-7(6)5-9-7/h2H,1,3,5H2/t7-/m1/s1
