20
gdb 37196	2.61219	2.02084	1.70976	1.5689	80.58	-0.2034	0.0602	0.2636	915.0918	0.17262	-365.905823	-365.898846	-365.897902	-365.936537	29.939	
C	 0.0718994345	 1.4195162686	 0.0017229068	-0.248611
C	 1.3180867349	 0.6339507858	 0.0134168265	-0.103218
N	-0.0950155751	-0.0416984646	 0.0445295522	-0.194022
C	 0.2477704107	-0.5643523954	-1.3351499391	 0.322424
C	-0.1180431496	 0.1476156496	-2.6702742993	-0.315964
C	 1.3348945596	 0.7694757466	-2.6904266987	-0.307817
C	 1.6464972623	 0.031845479	-1.3501159563	 0.257525
C	 2.2612683059	-1.3958257517	-1.3589697287	-0.292302
C	 0.8105379163	-2.0033665139	-1.3152842601	-0.281324
H	-0.2162432188	 1.8857642887	 0.9395489353	 0.122079
H	-0.2333432148	 1.9853496879	-0.8742593362	 0.113226
H	 1.9657071475	 0.612653155	 0.8859703269	 0.089387
H	-0.3362326258	-0.5382142423	-3.4932233115	 0.102477
H	-0.9348814526	 0.8717881203	-2.6135027262	 0.110654
H	 1.9531274444	 0.4512565331	-3.5338944492	 0.102041
H	 1.3672150919	 1.861011296	-2.6378285371	 0.104554
H	 2.8199107842	-1.627835558	-2.2693627517	 0.101398
H	 2.8971311234	-1.6359989517	-0.5026955586	 0.103573
H	 0.5640278545	-2.547422047	-0.4013455378	 0.115119
H	 0.5404047765	-2.6201729861	-2.1762911372	 0.098802
168.5633	287.7928	299.6401	312.626	329.6916	505.8103	511.3696	640.397	656.6168	700.3369	714.6772	719.3333	726.0043	797.2206	873.8295	885.6139	896.4726	912.4992	937.4028	973.136	1006.3246	1021.6698	1054.0876	1111.2974	1124.6296	1136.8937	1171.9387	1180.552	1217.301	1219.6808	1224.936	1242.0947	1245.2459	1258.4266	1266.842	1281.7444	1285.2317	1358.057	1460.3494	1468.6536	1469.3842	1485.1804	1510.9155	3052.4593	3054.2638	3057.4226	3063.0184	3098.3433	3102.4608	3114.5337	3116.7467	3125.8708	3142.5616	3193.4114
C1C2N1C13CCC21CC3	C1[C@H]2N1[C@@]13CC[C@@]21CC3	
InChI=1S/C8H11N/c1-3-8-4-2-7(1,8)6-5-9(6)8/h6H,1-5H2	InChI=1S/C8H11N/c1-3-8-4-2-7(1,8)6-5-9(6)8/h6H,1-5H2/t6-,7-,8-,9?/m1/s1
