20
gdb 119343	3.98948	1.04898	1.0061	1.9937	80.02	-0.2341	0.0812	0.3154	1289.5902	0.171292	-403.067095	-403.05875	-403.057806	-403.100663	31.277	
C	-0.2592181352	 1.3790391712	-0.1058675393	-0.218072
O	-0.1644442798	-0.0245234814	-0.0656408607	-0.236778
C	 0.7074112606	-0.5411834608	-1.0514737537	-0.244426
C	 0.739897664	-2.0198734797	-0.9358816459	 0.387419
C	 1.1278720789	-3.1200069663	-1.8514576834	-0.100432
C	 1.8996516626	-3.8492056978	-0.7533336425	-0.242385
C	 1.0175655953	-3.0442161817	 0.2399287483	-0.122769
C	-0.3908159573	-3.5693208761	-0.073496534	-0.147716
N	-0.3138629836	-2.9476670623	-1.4381337732	-0.182258
H	 0.7178985027	 1.860901529	 0.0610609824	 0.101498
H	-0.6548389724	 1.7349608635	-1.0703975868	 0.106057
H	-0.9430808841	 1.6836839668	 0.6898755885	 0.127956
H	 0.3644369823	-0.2695956856	-2.0642122011	 0.100358
H	 1.7204124728	-0.1200868547	-0.9222279979	 0.087519
H	 1.3179421215	-3.0911934771	-2.9167369009	 0.097338
H	 1.8515449043	-4.9426617049	-0.7043535304	 0.09446
H	 2.9429369672	-3.5232924598	-0.7336206897	 0.104864
H	 1.3576993481	-2.8249513226	 1.2496717443	 0.077497
H	-0.5549577535	-4.6535990938	-0.0595141494	 0.090916
H	-1.1795404844	-3.0601901058	 0.4843018056	 0.118955
71.8544	96.4766	101.6082	227.3011	279.0692	325.7499	357.0895	442.5622	494.6078	687.6332	703.8782	756.6565	829.8106	837.1423	919.7009	947.6174	962.8286	973.3187	989.477	999.5074	1033.9835	1061.581	1085.0472	1122.1322	1138.6947	1151.3074	1169.0762	1186.85	1193.1718	1223.078	1229.0061	1253.2929	1265.9008	1282.2198	1318.0819	1381.9097	1461.186	1482.9628	1485.3469	1491.2535	1495.3292	1510.7335	1517.2162	2942.9438	2968.0813	2979.9139	3011.1612	3030.1004	3041.1934	3102.51	3113.148	3115.4756	3140.9045	3200.0121
COCC12C3CC1CN23	COC[C@@]12[C@H]3C[C@@H]1CN23	
InChI=1S/C7H11NO/c1-9-4-7-5-2-6(7)8(7)3-5/h5-6H,2-4H2,1H3	InChI=1S/C7H11NO/c1-9-4-7-5-2-6(7)8(7)3-5/h5-6H,2-4H2,1H3/t5-,6-,7+,8?/m1/s1
