16
gdb 128515	3.06587	1.3478	0.94643	1.2596	67.47	-0.2047	0.0501	0.2548	1179.3507	0.124812	-471.20239	-471.193045	-471.192101	-471.237777	33.031	
C	-0.4684322216	 0.5659291692	 0.4449916536	-0.229685
O	 0.5543380065	 0.7578885896	-0.532464991	-0.273811
C	 0.9159384724	-0.2982084772	-1.2735329523	 0.478225
C	 0.5347880407	-1.6343531029	-1.3538342109	-0.100229
N	-0.4513432	-2.3157770188	-0.5854661984	-0.628607
C	 1.372459807	-2.1354880693	-2.3863167528	 0.379599
O	 1.349895797	-3.4173288064	-2.8140640036	-0.434985
N	 2.1862241261	-1.236591782	-2.9019861745	-0.345584
N	 1.8848278984	-0.1012065185	-2.1946224498	-0.301334
H	-1.4034229839	 0.2424901191	-0.0196339804	 0.13748
H	-0.1721604118	-0.1814771276	 1.1854622582	 0.137497
H	-0.5999986953	 1.538639147	 0.9216156661	 0.128026
H	-0.0383743177	-3.1002625135	-0.0891173982	 0.240315
H	-1.1642404524	-2.7130480297	-1.1906731511	 0.240316
H	 2.0104157068	-3.4898078771	-3.5147239779	 0.300723
H	 2.3672742478	 0.7583442181	-2.3854304669	 0.272055
13.2839	149.554	173.7468	192.4738	219.0749	252.0559	266.1852	291.2549	388.9399	416.474	464.2894	533.6585	626.0343	681.7895	724.7018	739.4073	801.4487	878.7831	1028.5149	1094.4538	1142.3097	1178.9303	1214.9568	1230.1776	1232.3893	1304.629	1325.9951	1463.4888	1476.8639	1482.7088	1490.6092	1555.4609	1588.8114	1647.3656	1686.7835	3045.8804	3121.7781	3144.366	3484.6497	3542.2715	3698.1519	3791.2142
COC1=C(N)C(O)=NN1	COc1c(N)c(O)n[nH]1	
InChI=1S/C4H7N3O2/c1-9-4-2(5)3(8)6-7-4/h5H2,1H3,(H2,6,7,8)	InChI=1S/C4H7N3O2/c1-9-4-2(5)3(8)6-7-4/h5H2,1H3,(H2,6,7,8)
