19
gdb 116936	6.62633	0.50925	0.49428	1.0333	82.65	-0.2445	0.0272	0.2718	2206.7425	0.157816	-422.968336	-422.95824	-422.957296	-423.006551	34.185	
O	-0.1566734474	 1.5445545071	-0.4483535793	-0.415244
C	-0.2897999617	 0.1478428223	-0.6482234502	-0.063848
C	-0.8220659548	-0.4398866381	 0.6638980384	-0.326527
C	-1.0009986891	-1.8836625103	 0.5995201942	 0.036549
C	-1.1421440054	-3.0775697303	 0.5162495011	 0.107331
C	-1.3122258768	-4.5167562632	 0.4351557831	-0.030614
C	-1.8326363105	-5.2597617229	 1.6979529619	-0.283499
C	-2.9732323323	-5.7305166471	 0.7769365369	-0.058438
O	-2.4842343184	-4.930228054	-0.3203094154	-0.280092
H	 0.1531531778	 1.9389734976	-1.2685410178	 0.289729
H	-0.9917723709	-0.0839589341	-1.4626147066	 0.102905
H	 0.67317965	-0.3234552347	-0.8951885889	 0.098348
H	-0.1233449881	-0.1792829127	 1.4684729776	 0.138946
H	-1.7706080674	 0.0544012245	 0.9064257308	 0.139606
H	-0.4090273399	-4.9746666614	 0.0086005274	 0.098107
H	-1.1718661488	-6.0328481828	 2.0914052995	 0.113959
H	-2.1384823964	-4.5922365693	 2.5032436138	 0.123057
H	-2.9666584512	-6.8007814181	 0.5347028693	 0.101087
H	-3.9876551085	-5.4402194425	 1.0731525543	 0.108636
12.0807	52.3552	69.9118	85.0724	150.5536	175.7177	237.0633	320.4159	356.4163	445.7514	500.6187	556.5767	705.9182	792.9552	799.9996	847.1832	934.1189	946.2382	998.0478	1009.3067	1031.6006	1080.8633	1086.9855	1087.6658	1163.3387	1182.4171	1214.3589	1221.2179	1238.5534	1255.9349	1261.9326	1304.1838	1331.8665	1352.4091	1369.0741	1454.6405	1474.6958	1488.1761	1527.5367	1531.3868	2361.6238	2985.5289	3000.8013	3017.0608	3017.3758	3030.8925	3059.7221	3068.6357	3090.5097	3150.8717	3835.2343
OCCC#CC1CCO1	OCCC#C[C@H]1CCO1	
InChI=1S/C7H10O2/c8-5-2-1-3-7-4-6-9-7/h7-8H,2,4-6H2	InChI=1S/C7H10O2/c8-5-2-1-3-7-4-6-9-7/h7-8H,2,4-6H2/t7-/m0/s1
