18
gdb 126303	4.19406	0.87481	0.78485	2.4725	75.98	-0.2471	-0.0034	0.2437	1492.2349	0.14698	-439.08488	-439.075648	-439.074703	-439.120027	32.659	
C	 0.084438557	 1.5596911217	 0.1682602837	-0.375042
C	-0.0285521134	 0.0361931118	-0.0147422898	-0.295629
C	-1.4373292097	-0.4324030237	-0.1599110808	 0.451739
C	-2.1308030156	-1.0344023226	-1.1628887858	-0.419671
C	-3.4421416723	-1.1825419231	-0.6305283913	 0.40161
C	-4.6316187397	-1.819119268	-1.2789557207	-0.189723
O	-4.6516066953	-1.4240000296	-2.6430200789	-0.416716
N	-3.5303079262	-0.7037965771	 0.5867622743	-0.213552
O	-2.2551393365	-0.2325248305	 0.8936784854	-0.218654
H	 1.1313367693	 1.8535292014	 0.2853209478	 0.11773
H	-0.3259798603	 2.0888017059	-0.6967607559	 0.127636
H	-0.4654182286	 1.8846032921	 1.0551266932	 0.141194
H	 0.5275413129	-0.2835422768	-0.901030106	 0.119623
H	 0.4272471689	-0.469031797	 0.8456929252	 0.127686
H	-1.779642239	-1.3203156688	-2.1394750391	 0.122905
H	-4.5469310565	-2.9140987837	-1.187579548	 0.10674
H	-5.5371047501	-1.5110358916	-0.7385543269	 0.119124
H	-5.3663848449	-1.8988029604	-3.0773497963	 0.293
45.5246	62.8457	122.0746	164.9652	217.124	240.7755	282.1503	327.1971	429.9689	462.5856	593.0106	668.0556	722.1958	750.2008	789.9033	825.7472	945.2635	960.6369	1008.1635	1024.3263	1035.7699	1072.9331	1085.2602	1091.5159	1147.8039	1234.6026	1244.4207	1260.0361	1323.4261	1349.9537	1409.2032	1433.9939	1475.5789	1481.4756	1497.1345	1505.6473	1510.703	1535.6116	1644.1177	2971.831	3028.1981	3035.6546	3046.3722	3087.2403	3118.1716	3129.613	3286.3065	3831.4058
CCC1=CC(CO)=NO1	CCc1cc(CO)no1	
InChI=1S/C6H9NO2/c1-2-6-3-5(4-8)7-9-6/h3,8H,2,4H2,1H3	InChI=1S/C6H9NO2/c1-2-6-3-5(4-8)7-9-6/h3,8H,2,4H2,1H3
