19
gdb 41200	2.85201	1.7713	1.56756	2.0582	75.12	-0.2367	0.0433	0.2801	932.9393	0.161524	-422.902951	-422.896159	-422.895214	-422.933731	28.529	
C	 0.0089514929	 1.6038494546	-0.1657368806	-0.184558
O	 1.4740234641	 1.4558914886	 0.0511578144	-0.362646
C	 1.132194806	 0.2588977914	 0.8517962358	 0.388341
C	 1.3025312939	-1.2918547067	 0.9041414746	-0.330537
C	-0.3148047346	-1.229462515	 0.9548046427	-0.119365
C	-0.8160494357	-0.9243291861	 2.3604275172	-0.069076
O	-0.4192776542	 0.3725225179	 2.7706602025	-0.248574
C	 0.8845804	 0.7123023954	 2.3192841209	-0.121654
C	-0.1071645448	 0.0620962019	 0.0643676559	-0.003196
H	-0.4365048641	 2.2476278068	 0.5972471108	 0.125073
H	-0.2057431819	 1.97708902	-1.1693033694	 0.114371
H	 1.6474152961	-1.7540140335	-0.0219368204	 0.117462
H	 1.8165307891	-1.7283930327	 1.7667282044	 0.099605
H	-0.8451354522	-2.0749300537	 0.5118513786	 0.08468
H	-1.9106009427	-0.9321384311	 2.392733358	 0.11297
H	-0.4527038457	-1.6917905683	 3.0649544959	 0.091009
H	 1.6521335348	 0.2678686921	 2.9744502973	 0.086586
H	 0.9659990371	 1.7980625777	 2.3906683091	 0.120808
H	 0.208860152	-0.3424102491	-0.9023395877	 0.0987
168.7566	230.5094	314.6112	374.7013	421.5744	458.3935	492.8529	524.3754	638.895	684.448	731.5728	823.2984	839.9346	863.5074	907.6815	929.3553	946.8865	956.0205	994.2572	1038.0354	1064.8186	1075.8883	1112.0445	1132.7974	1140.6232	1145.6081	1168.182	1206.1684	1232.2731	1252.3714	1262.7451	1282.2407	1291.7792	1325.3765	1375.7447	1412.6535	1447.6986	1487.6553	1503.6108	1509.3536	1529.1575	2959.6644	2966.0751	3037.9359	3049.3164	3059.0264	3067.103	3092.4559	3112.0616	3127.0558	3131.8218
C1OC23CC(COC2)C13	C1O[C@@]23C[C@@H](COC2)[C@@H]13	
InChI=1S/C7H10O2/c1-5-2-8-4-7(1)6(5)3-9-7/h5-6H,1-4H2	InChI=1S/C7H10O2/c1-5-2-8-4-7(1)6(5)3-9-7/h5-6H,1-4H2/t5-,6+,7-/m0/s1
