18
gdb 14466	3.6797	2.11263	2.08899	1.3539	69.61	-0.2372	0.0824	0.3196	763.5809	0.157027	-347.813601	-347.807465	-347.806521	-347.843266	26.336	
O	-0.0741978267	 1.3620004068	 0.0593744869	-0.481837
C	 0.0410606266	-0.0212237668	 0.0423407038	 0.417518
C	 1.0854543462	-0.7737184725	 0.8636596742	-0.285351
C	 0.6181573653	-2.1997494253	 0.4835524533	-0.047167
C	-0.8937689117	-2.1328314092	 0.8219850136	-0.217659
C	-1.2021352823	-0.8739951203	 0.0199670805	-0.091953
C	-0.2563408854	-0.8731505126	-1.1819112641	-0.133407
C	 0.6018798614	-2.127896069	-1.0656743404	-0.217712
H	 0.6716399453	 1.7301186431	-0.4269787735	 0.279471
H	 2.1133804681	-0.5650031075	 0.5434764691	 0.08217
H	 1.0029383964	-0.5661632805	 1.9355662694	 0.097508
H	 1.1775231556	-3.0255523959	 0.9223764544	 0.062218
H	-1.4435707772	-3.0130156633	 0.4717958013	 0.092424
H	-1.0782728199	-2.0124598618	 1.8947940172	 0.094912
H	-2.1812440001	-0.4179880569	-0.0376522962	 0.086983
H	-0.5472848425	-0.4222374796	-2.121641702	 0.079955
H	 1.6045007975	-2.0042493713	-1.4900770085	 0.08886
H	 0.1417217932	-3.0110690573	-1.5223298791	 0.093067
254.0263	309.646	361.4546	418.9218	420.8092	485.9029	568.0802	644.5518	696.8535	785.9366	859.9519	890.3326	902.994	910.0881	915.3364	937.9424	946.7502	961.9722	1000.6876	1008.6141	1067.1518	1075.4994	1127.8605	1139.0667	1150.3784	1176.9294	1223.8701	1233.0202	1275.9288	1277.7185	1289.0734	1321.3184	1333.6253	1338.957	1446.8583	1488.9141	1491.3892	1517.6867	3030.2282	3034.8568	3041.6841	3075.3802	3081.4118	3084.5168	3118.9975	3199.9047	3211.2118	3792.4151
OC12CC3CC1C2C3	O[C@@]12C[C@H]3C[C@@H]1[C@@H]2C3	
InChI=1S/C7H10O/c8-7-3-4-1-5(7)6(7)2-4/h4-6,8H,1-3H2	InChI=1S/C7H10O/c8-7-3-4-1-5(7)6(7)2-4/h4-6,8H,1-3H2/t4-,5+,6-,7-
