21
gdb 96447	2.46061	1.58493	1.10088	2.4712	78.57	-0.2504	0.0791	0.3296	1159.0056	0.183679	-424.212369	-424.203972	-424.203028	-424.245279	32.59	
C	 0.466188575	 1.6389950904	 0.0366947225	-0.401749
C	-0.0316396836	 0.1858785985	-0.0606900681	-0.024055
C	 0.4960918931	-0.4746000973	-1.3417019464	-0.193854
C	-0.0051743278	-1.8918282988	-1.6193803894	-0.091875
O	 0.671394679	-2.8835345134	-0.8689142463	-0.224384
C	 0.1948619711	-3.1060307607	 0.4296815338	-0.129189
C	 0.4070860183	-1.9952906053	 1.4422775678	 0.037649
O	 1.5831749642	-1.1906631569	 1.3565051532	-0.252359
C	 0.3061628754	-0.5450907783	 1.2269719477	 0.073471
H	 1.5578094784	 1.6673122034	 0.1209772453	 0.131679
H	 0.1805394273	 2.2116914798	-0.8509927938	 0.112118
H	 0.0490896429	 2.1466414479	 0.9124047603	 0.111903
H	-1.1314065482	 0.2104185725	-0.1161043806	 0.076598
H	 0.2090378875	 0.160670304	-2.1892953725	 0.090356
H	 1.5907228406	-0.5041022589	-1.3183849082	 0.123565
H	-1.0946462715	-1.9622603953	-1.458063083	 0.081104
H	 0.1872010314	-2.1430873195	-2.6678969762	 0.106259
H	-0.882759243	-3.3540035844	 0.4256143486	 0.088724
H	 0.7280945294	-3.9946655269	 0.7872412805	 0.118102
H	 0.1801785893	-2.3434744008	 2.4556408012	 0.084808
H	 0.0359694212	 0.0360097101	 2.1138685036	 0.081128
73.9471	175.5217	205.1379	241.4719	263.5921	301.7509	349.0393	394.7155	438.5315	537.2844	577.954	668.577	735.261	798.7175	837.5654	891.4754	931.3911	942.9053	985.171	997.1374	1030.4831	1047.577	1077.3454	1088.6863	1154.2284	1165.3085	1180.048	1207.354	1240.65	1280.3944	1309.6857	1327.1811	1342.8484	1367.6712	1388.1038	1400.1623	1404.1895	1415.4732	1429.2251	1466.3692	1478.5188	1494.9824	1497.4013	1502.6706	1505.6004	2940.1031	2961.9118	2984.9143	3026.2175	3032.8714	3045.2685	3058.4795	3064.5041	3068.0862	3084.6538	3102.5784	3106.741
CC1CCOCC2OC12	C[C@H]1CCOC[C@H]2O[C@@H]12	
InChI=1S/C7H12O2/c1-5-2-3-8-4-6-7(5)9-6/h5-7H,2-4H2,1H3	InChI=1S/C7H12O2/c1-5-2-3-8-4-6-7(5)9-6/h5-7H,2-4H2,1H3/t5-,6+,7-/m0/s1
