17
gdb 47863	2.50148	1.65809	1.16402	4.9433	71.03	-0.237	-0.0372	0.1998	1060.4087	0.138521	-455.180622	-455.172642	-455.171697	-455.213501	30.125	
N	-0.1107767369	 0.9090840809	 0.972355032	-0.523068
C	-0.0441092124	-0.1118485125	 0.2101829225	 0.239379
N	-1.1816352789	-0.7062307896	-0.281902184	-0.308755
C	-1.1777750328	-1.6087324384	-1.4232393201	-0.177784
C	-0.7243733879	-3.0237388052	-1.0216165273	-0.201771
C	 0.3987768626	-2.9464529581	 0.0067939397	-0.077714
O	 1.4373362954	-2.0342707297	-0.3985876575	-0.225579
C	 1.3146557555	-0.7045617689	-0.192103581	 0.34832
O	 2.2743007922	 0.0065867443	-0.3113905184	-0.316161
H	 0.8317962102	 1.2054344493	 1.2218242221	 0.239071
H	-2.0196110525	-0.1788208305	-0.0888972119	 0.254254
H	-2.1881628958	-1.6354778034	-1.8367117753	 0.121895
H	-0.525411392	-1.2271389696	-2.2190981987	 0.130926
H	-1.5522048731	-3.5847953183	-0.5733089655	 0.113129
H	-0.3985227056	-3.5692213912	-1.9132091388	 0.116931
H	 0.0082277706	-2.6448379882	 0.9825069591	 0.136533
H	 0.9028815614	-3.907630241	 0.1231098733	 0.130393
61.6385	108.6843	220.6638	286.9595	331.0644	367.8313	385.8798	441.3271	501.4704	589.4698	596.1444	666.5599	730.2203	798.8691	809.4192	864.5355	877.0285	955.9041	1027.8099	1067.2208	1081.9063	1123.6195	1169.8465	1208.1408	1256.3381	1281.8687	1311.9304	1376.0398	1387.8473	1414.4605	1437.0431	1449.6824	1481.0423	1503.6002	1511.7097	1705.0468	1831.1413	3020.5027	3043.9396	3068.8292	3090.6923	3107.8374	3125.4449	3505.8964	3620.5011
N=C1NCCCOC1=O	[NH][C]1NCCCOC1=O	
InChI=1S/C5H8N2O2/c6-4-5(8)9-3-1-2-7-4/h1-3H2,(H2,6,7)	InChI=1S/C5H8N2O2/c6-4-5(8)9-3-1-2-7-4/h1-3H2,(H2,6,7)
