14
gdb 33327	3.07002	0.87138	0.70847	1.8734	91.82	-0.2388	-0.0238	0.215	1519.5168	0.098281	-362.286999	-362.278135	-362.277191	-362.321112	32.543	
C	-0.1428537529	-3.8229842303	-0.0219234975	-0.56497
C	-0.0917844485	-2.6164813467	-0.0033360115	 0.294862
C	-0.0371371914	-1.25832607	 0.0158275891	-0.167054
C	 0.0162713568	-0.0493166562	 0.0387121978	 0.474634
C	 0.0489583448	 1.3806821152	 0.0193885155	-0.335284
N	 0.5269606758	 2.0792220437	 1.2292369424	-0.309023
C	 1.3457183742	 2.1625264667	 0.0075148679	-0.242974
C	 2.6282728698	 1.5204038451	 0.0104807298	 0.382234
C	 3.7096990705	 0.9981835222	-0.0234684745	-0.416282
H	-0.1855791705	-4.8837048001	-0.0355469083	 0.192702
H	-0.763318096	 1.8441686324	-0.5381938272	 0.122364
H	 0.0037296874	 2.9433648796	 1.3506566172	 0.244589
H	 1.3041388007	 3.0907196238	-0.5595903509	 0.120752
H	 4.6613261093	 0.5271273746	-0.04117801	 0.20345
55.4438	98.2637	147.004	207.522	259.3232	266.163	406.5262	471.4836	530.1169	540.7997	554.721	581.2175	601.1893	620.3928	632.0906	664.9302	710.7512	812.1801	861.3543	909.3349	971.8596	1063.7787	1148.9606	1191.8132	1194.7048	1260.0079	1400.131	1436.4436	2183.5714	2246.6473	2360.6906	3116.1513	3125.4481	3499.88	3504.1866	3505.1251
C#CC#CC1NC1C#C	C#CC#C[C@H]1N[C@H]1C#C	
InChI=1S/C8H5N/c1-3-5-6-8-7(4-2)9-8/h1-2,7-9H	InChI=1S/C8H5N/c1-3-5-6-8-7(4-2)9-8/h1-2,7-9H/t7-,8+/m0/s1
