18
gdb 127127	4.10601	1.05015	0.84987	2.325	76.08	-0.1811	0.0546	0.2356	1335.1042	0.1477	-435.273603	-435.264144	-435.2632	-435.307871	34.198	
C	 0.0236409029	 1.398939831	 0.1180641672	-0.328126
N	-0.0194821959	 0.0011668298	-0.2620345522	-0.147807
C	 1.1832148937	-0.7637115345	 0.0207213624	-0.321448
C	-1.2258729017	-0.6645009677	-0.1029491724	 0.471296
N	-1.2610460998	-1.9881678723	 0.0368458091	-0.348165
N	-2.5997137205	-2.2805074754	 0.0893862053	-0.265484
C	-3.3676293404	-1.1799568675	 0.0136028036	 0.475119
O	-4.710632422	-1.3172211254	 0.0703069582	-0.433705
C	-2.5324174997	-0.0900492155	-0.1120758359	-0.493222
H	 0.9697519956	 1.8305040006	-0.2208651962	 0.120299
H	-0.7831961576	 1.9526618806	-0.3691288291	 0.126233
H	-0.0561366958	 1.5610026229	 1.2069128271	 0.105214
H	 1.3290710248	-0.9517586306	 1.0971430421	 0.104547
H	 1.1239581982	-1.7306345855	-0.4802180438	 0.150773
H	 2.0501429288	-0.214593392	-0.3582889402	 0.107996
H	-2.9031026951	-3.2294645519	 0.2148338693	 0.27243
H	-5.1113674234	-0.446783306	-0.0132432358	 0.311162
H	-2.8235572222	 0.9422946494	-0.2021888987	 0.092889
59.8177	132.5397	170.8893	180.0798	230.0758	245.8583	250.4599	310.652	367.1481	399.6702	453.4971	531.6181	591.9235	670.7074	681.8047	740.3976	742.83	937.6903	1006.6659	1061.1936	1082.3207	1128.0306	1138.5591	1166.7352	1173.672	1185.5289	1270.0723	1303.5376	1353.3526	1438.7102	1444.4427	1463.9428	1481.494	1490.7644	1498.7107	1509.1257	1560.4172	1603.4045	1625.9306	2955.9329	2973.172	3072.7037	3076.8949	3113.551	3141.7841	3269.428	3697.0486	3847.8279
CN(C)C1=NNC(O)=C1	CN(C)c1n[nH]c(O)c1	
InChI=1S/C5H9N3O/c1-8(2)4-3-5(9)7-6-4/h3H,1-2H3,(H2,6,7,9)	InChI=1S/C5H9N3O/c1-8(2)4-3-5(9)7-6-4/h3H,1-2H3,(H2,6,7,9)
