14
gdb 5486	3.3925	2.06333	1.2892	3.7173	67.07	-0.206	-0.0297	0.1763	881.6405	0.108911	-378.7714	-378.764314	-378.76337	-378.802615	26.361	
N	 0.1120417134	 1.4048767749	 0.121910016	-0.605026
C	-0.0314526587	 0.0098510971	 0.0275048083	 0.307496
C	-1.1241151266	-0.8088258379	 0.0550922512	-0.231733
C	-0.6529937044	-2.1666719284	-0.0024824907	-0.156166
C	 0.7045429592	-2.1398429622	-0.0759237284	-0.082288
N	 1.1070770723	-0.8039549058	-0.0399740448	-0.075403
C	 2.4271265094	-0.371844054	 0.0166885334	 0.169969
O	 3.3770286444	-1.1098239227	-0.0551254386	-0.301445
H	 0.3578437447	 1.8409369916	-0.7619549533	 0.252359
H	-0.7442698236	 1.829264294	 0.4553055335	 0.2544
H	-2.1522914965	-0.482283696	 0.0970165219	 0.097421
H	-1.2671483654	-3.0542218378	-0.0047497706	 0.108645
H	 1.4511723816	-2.9116676994	-0.1438457532	 0.148698
H	 2.4952762004	 0.7198751165	 0.1438549852	 0.113071
141.7725	185.6058	210.312	235.9677	312.4537	368.7554	576.3915	618.778	636.6728	659.6821	744.5703	775.4046	806.6442	837.7523	868.6094	913.3597	1036.0775	1047.3165	1077.7666	1139.1241	1202.0913	1271.4967	1320.7287	1369.2977	1438.214	1452.1315	1543.4167	1622.3996	1661.3753	1814.149	3022.3917	3240.8972	3255.1429	3298.6365	3497.768	3603.4463
NC1=CC=CN1C=O	Nc1cccn1C=O	
InChI=1S/C5H6N2O/c6-5-2-1-3-7(5)4-8/h1-4H,6H2	InChI=1S/C5H6N2O/c6-5-2-1-3-7(5)4-8/h1-4H,6H2
