20
gdb 93168	2.67834	1.49492	1.13865	1.8347	82.45	-0.2392	0.0118	0.251	1142.3473	0.171804	-403.149621	-403.141164	-403.140219	-403.182518	32.709	
C	-0.1124531312	 1.6084336203	-0.069409148	-0.39441
C	-0.0767078851	 0.0817227436	-0.0270994924	 0.073534
O	 0.4790940865	-0.3604347701	-1.275575264	-0.243007
C	 0.2951261913	-1.6966147165	-1.5438579054	 0.095421
N	 1.1519103811	-2.611222201	-1.4690474287	-0.209542
C	 2.4960764243	-2.4192306591	-0.9530179305	-0.13443
C	 2.8288039141	-1.1607598244	-0.1104544148	-0.268104
C	 1.9418763481	-0.9779305424	 1.1008455294	-0.06495
C	 0.7139909928	-0.4569572974	 1.1388634074	-0.046866
H	 0.8998714385	 2.0063553583	-0.1802734939	 0.13281
H	-0.721483418	 1.9516863871	-0.9099864983	 0.12521
H	-0.5387450167	 2.0034551787	 0.8571397482	 0.120485
H	-1.111995093	-0.2918210628	 0.0499905761	 0.081239
H	-0.7145009213	-1.9331626291	-1.8931479195	 0.107682
H	 2.716515195	-3.3135204947	-0.356545094	 0.113143
H	 3.1842462793	-2.461159506	-1.8079169686	 0.117336
H	 3.8647568969	-1.2805917679	 0.2283504074	 0.09109
H	 2.8006446631	-0.2787891776	-0.7504100571	 0.125127
H	 2.3534657949	-1.3363250464	 2.042460226	 0.091295
H	 0.1997101795	-0.3934759628	 2.0961696207	 0.086935
73.8355	164.9091	212.5582	233.328	292.493	298.9625	317.3114	380.134	462.2157	511.7741	572.0222	710.5877	748.5826	758.3992	799.9866	833.988	878.6684	931.4898	962.9947	990.1711	1004.2924	1022.2632	1034.6375	1082.927	1106.8795	1121.968	1162.998	1230.3687	1263.7485	1277.4341	1337.6199	1352.2201	1367.3743	1388.0451	1401.9867	1416.6297	1424.3917	1471.5266	1483.7962	1492.2643	1496.0246	1719.7223	1766.1662	2957.1382	3017.7306	3040.2549	3045.2186	3045.7586	3086.5398	3120.8575	3122.5913	3127.3142	3134.0173	3155.9046
CC1OC=NCCC=C1	C[C@H]1OC=NCCC=C1	
InChI=1S/C7H11NO/c1-7-4-2-3-5-8-6-9-7/h2,4,6-7H,3,5H2,1H3/b4-2-,8-6-	InChI=1S/C7H11NO/c1-7-4-2-3-5-8-6-9-7/h2,4,6-7H,3,5H2,1H3/b4-2-,8-6-/t7-/m1/s1
