18
gdb 33515	2.73037	1.24581	0.94961	2.8531	77.43	-0.2437	0.0158	0.2595	1252.0029	0.147856	-398.075472	-398.066767	-398.065823	-398.109517	31.869	
N	-0.5022797238	-1.0431045135	 0.4635672965	-0.350778
C	-0.3323344092	 0.0888473754	 0.294739869	 0.256287
C	-0.1161500483	 1.5038918314	 0.0811437863	 0.180108
C	-1.2099496658	 2.236990348	-0.6773580403	-0.214428
N	-1.4122723963	 1.6631309423	-1.9978064217	-0.065067
C	-2.4655542304	 0.6549407592	-2.1203713763	-0.213396
C	-2.6588880162	 2.0253079477	-2.6654250393	-0.22443
C	 0.6880751183	 2.2079267745	 1.1300996418	-0.268573
N	 1.2659172655	 1.949189764	-0.1884924032	-0.323431
H	-2.1318381366	 2.2412215861	-0.0670657997	 0.093466
H	-0.8781347692	 3.2732825548	-0.7962999202	 0.121931
H	-2.2412182569	-0.1783333009	-2.7784872883	 0.128567
H	-3.0258907267	 0.3889920243	-1.2259585638	 0.120514
H	-3.3516011148	 2.6770408818	-2.1346628274	 0.110061
H	-2.5813268288	 2.2163230494	-3.7315680473	 0.122514
H	 0.4625419536	 3.250459918	 1.3368640622	 0.134032
H	 1.0221596418	 1.6282839072	 1.9852338367	 0.138519
H	 1.9080525337	 1.1613166301	-0.1547292451	 0.254103
62.1549	83.6523	136.1745	190.0156	239.7803	284.0639	345.3885	417.263	424.1492	582.98	588.1688	724.2773	766.4698	829.1529	839.9375	898.1511	921.5801	934.579	986.0112	1024.2205	1033.1442	1056.3715	1094.1575	1114.3058	1121.4531	1142.3963	1170.8181	1186.0432	1249.6914	1273.2595	1323.0427	1329.0058	1348.6008	1401.2055	1475.0465	1492.8679	1507.0338	1521.4927	2347.5023	2935.7059	3077.9958	3095.6171	3106.1915	3115.6237	3183.2837	3200.5476	3207.2382	3513.3126
N#CC1(CN2CC2)CN1	N#C[C@@]1(CN2CC2)CN1	
InChI=1S/C6H9N3/c7-3-6(4-8-6)5-9-1-2-9/h8H,1-2,4-5H2	InChI=1S/C6H9N3/c7-3-6(4-8-6)5-9-1-2-9/h8H,1-2,4-5H2/t6-/m0/s1
