19
gdb 33265	5.49578	0.67089	0.64743	4.9406	77.57	-0.2202	0.0329	0.2531	1725.065	0.160698	-419.234285	-419.225226	-419.224282	-419.269703	32.123	
O	-0.0553369536	 1.4401957431	 0.1642113795	-0.416992
C	 0.0245453234	 0.0354427547	-0.0029369352	-0.070655
C	-1.3926587044	-0.518278385	 0.0804470046	-0.17088
C	-1.4286675486	-2.0434015044	-0.0629472208	-0.185951
N	-2.7744513731	-2.5892802278	-0.0028878423	 0.027314
C	-3.5703548158	-2.7123949968	 1.1169273041	-0.131394
C	-4.7564624451	-3.234628511	 0.6722851119	-0.088224
N	-4.7174236765	-3.4356779207	-0.6874329951	-0.274428
C	-3.5208713172	-3.0373048618	-1.0544767056	 0.003157
H	 0.8332402669	 1.8033157146	 0.1070053962	 0.289172
H	 0.4719722257	-0.2283373227	-0.975839641	 0.088296
H	 0.6526877223	-0.4263180917	 0.7773562038	 0.087508
H	-1.8310204035	-0.2230159446	 1.0397247411	 0.120802
H	-2.00515292	-0.0604117943	-0.7035260357	 0.123948
H	-0.99860831	-2.3459187759	-1.0233324649	 0.123411
H	-0.8236211155	-2.5154731694	 0.7198895764	 0.12307
H	-3.2182852037	-2.4273789181	 2.0948839936	 0.122677
H	-5.6318719696	-3.4819062028	 1.2535954136	 0.106549
H	-3.1272518916	-3.0507268354	-2.0608642443	 0.122621
37.5516	81.6249	85.3909	117.3268	226.5302	264.1702	322.9242	338.8761	466.2793	640.4302	678.2387	725.49	739.8258	764.4281	814.351	854.4935	873.1675	916.6722	1024.442	1037.1797	1050.3794	1089.7667	1099.163	1122.7618	1145.9738	1208.9044	1241.0215	1264.5492	1290.832	1310.1492	1312.9512	1319.0995	1390.8129	1403.0866	1419.6044	1469.4699	1485.3586	1503.0453	1529.8078	1534.8857	1544.0717	2955.0834	2979.667	3035.9221	3051.8776	3076.9395	3102.942	3240.0973	3245.4735	3274.0281	3831.2574
OCCCN1C=CN=C1	OCCCn1ccnc1	
InChI=1S/C6H10N2O/c9-5-1-3-8-4-2-7-6-8/h2,4,6,9H,1,3,5H2	InChI=1S/C6H10N2O/c9-5-1-3-8-4-2-7-6-8/h2,4,6,9H,1,3,5H2
