17
gdb 56863	2.60727	1.27111	1.05788	4.0574	73.47	-0.2745	0.0123	0.2868	1183.6227	0.13397	-421.824428	-421.815523	-421.814579	-421.858387	32.736	
C	-0.1812371907	 1.6225099519	 0.1452130394	-0.39235
C	 0.0629597319	 0.1071448586	-0.0080664667	-0.176782
C	 1.0357994495	-0.3785723236	 0.9691790912	 0.327496
C	 1.8328539645	-0.7734756776	 1.7773703983	-0.468178
C	-1.2612248734	-0.6618701703	 0.0647150304	 0.138799
C	-1.2429199766	-2.1891734677	 0.253562191	-0.452233
C	-1.9323821365	-1.8674770093	 1.5794866536	 0.462984
O	-2.3751343089	-2.4504643903	 2.513415141	-0.314081
O	-1.9223215102	-0.5077521328	 1.3668440674	-0.248773
H	 0.7586811322	 2.1726629605	 0.0641655829	 0.131793
H	-0.8616045337	 1.97897877	-0.6345428691	 0.117377
H	-0.6266457539	 1.834310428	 1.1198219971	 0.153389
H	 0.4643129758	-0.0801682444	-1.0149686654	 0.115748
H	 2.5366365848	-1.1174855291	 2.4947336201	 0.206149
H	-1.9325254109	-0.3070536583	-0.7226127037	 0.100581
H	-1.8504394495	-2.7726286412	-0.4395718717	 0.141759
H	-0.2565775044	-2.6404894744	 0.3670625241	 0.156321
67.5152	87.4207	161.7217	195.5141	221.9343	256.5287	362.7205	376.3162	509.1698	521.7996	554.977	631.9098	650.2386	659.8076	695.6567	798.0662	868.2953	905.1068	956.9957	999.9025	1025.5175	1060.8003	1085.0795	1117.2356	1135.08	1170.0002	1230.0652	1280.9691	1316.9077	1338.2584	1385.6995	1409.5096	1451.7053	1491.9858	1502.4569	1946.8134	2237.1145	3003.4407	3047.3002	3072.4054	3095.2508	3122.2437	3140.6115	3156.1687	3501.9374
CC(C#C)C1CC(=O)O1	C[C@@H](C#C)[C@H]1CC(=O)O1	
InChI=1S/C7H8O2/c1-3-5(2)6-4-7(8)9-6/h1,5-6H,4H2,2H3	InChI=1S/C7H8O2/c1-3-5(2)6-4-7(8)9-6/h1,5-6H,4H2,2H3/t5-,6+/m0/s1
