18
gdb 125900	3.84976	1.32638	1.11943	3.0907	77.87	-0.1843	0.0278	0.2121	1106.8263	0.151812	-398.140995	-398.133511	-398.132567	-398.172946	29.446	
C	 0.185812058	 1.4746197505	 0.0599147742	-0.395999
C	-0.0521422021	-0.0343309558	-0.0355685599	 0.049763
C	 0.6832401114	-0.6572569907	-1.2819008785	-0.372835
C	 1.885334007	-1.2376484141	-0.6116468189	 0.349563
C	 1.7417970983	-1.2642600472	 0.7507541781	 0.224874
N	 0.489129103	-0.7582725978	 1.1618329047	-0.421135
C	 2.9015841208	-1.8933577178	 1.2416142129	-0.143576
N	 3.7123740426	-2.2316000234	 0.2285357324	-0.229834
N	 3.0671549502	-1.8381500534	-0.8915099601	-0.328496
H	 1.258398573	 1.6933417715	 0.1022721848	 0.128821
H	-0.2372029139	 1.9931469314	-0.8071446412	 0.117137
H	-0.2864162678	 1.8900143196	 0.9570046576	 0.114922
H	-1.1277238416	-0.2246476349	-0.1028180691	 0.082997
H	 0.0641014671	-1.4263821325	-1.7610174593	 0.119038
H	 0.8942618639	 0.107325598	-2.0378498406	 0.110136
H	 0.5300915539	-0.1524724372	 1.9737581071	 0.223655
H	 3.2012337193	-2.1118469526	 2.2553533532	 0.103
H	 3.5072395969	-1.9969322237	-1.7809409374	 0.267971
74.5971	200.8259	258.9276	277.7253	345.7081	393.8416	453.0927	460.3157	622.1465	659.3832	678.7661	715.5584	743.9878	812.81	850.9842	864.882	919.0194	942.8486	981.1852	1043.9349	1091.0784	1107.4441	1118.8881	1153.3757	1203.2511	1239.3471	1258.8425	1325.2763	1335.9675	1348.8676	1388.913	1403.99	1412.0758	1464.536	1489.7603	1494.4462	1498.57	1563.7313	1625.2182	3016.188	3026.2406	3050.079	3058.3903	3095.7178	3104.9494	3249.5529	3530.5603	3682.0642
CC1CC2=C(N1)C=NN2	C[C@H]1Cc2c(N1)cn[nH]2	
InChI=1S/C6H9N3/c1-4-2-5-6(8-4)3-7-9-5/h3-4,8H,2H2,1H3,(H,7,9)	InChI=1S/C6H9N3/c1-4-2-5-6(8-4)3-7-9-5/h3-4,8H,2H2,1H3,(H,7,9)/t4-/m0/s1
