21
gdb 90400	2.22629	1.51807	1.31918	2.6261	79.24	-0.2296	0.0672	0.2967	1116.4475	0.18035	-424.194636	-424.184973	-424.184029	-424.22801	37.576	
C	-0.0427065669	 1.5367369199	-0.043740728	-0.461669
C	 0.0608598191	 0.0222441929	 0.0514335322	 0.282772
C	-1.1808970213	-0.6806580943	-0.4827535601	-0.443009
C	 1.3458983997	-0.745519043	-0.2220370196	-0.185783
C	 2.5700685946	 0.0144404878	 0.2865419582	-0.299333
C	 1.9702918365	-0.0435742405	 1.7377349727	 0.043513
O	 1.7780441888	 1.1368590273	 2.4861442461	-0.426421
C	 0.710049291	-0.7024918007	 1.1956794398	 0.344938
O	-0.0257973542	-1.6276838864	 1.9149732297	-0.456691
H	 0.7862741815	 2.0516054082	 0.4404448624	 0.132225
H	-0.0903714355	 1.8505430883	-1.0936009442	 0.103564
H	-0.96184943	 1.8790523339	 0.4448452455	 0.115386
H	-1.3673306114	-0.3762425926	-1.5187540124	 0.10702
H	-1.0833704441	-1.7677496227	-0.4528617829	 0.117637
H	-2.0621001638	-0.4133452976	 0.109788427	 0.120724
H	 1.3665209585	-1.5587540527	-0.9378064629	 0.08297
H	 3.5087707955	-0.5372229385	 0.193313095	 0.095221
H	 2.7117773274	 1.0222892583	-0.1134854888	 0.10164
H	 2.5297050251	-0.7861917191	 2.329691516	 0.060448
H	 2.6326389706	 1.425249193	 2.8224614197	 0.283702
H	 0.5767134088	-2.2987825116	 2.2543620544	 0.281148
142.0606	171.8554	197.0383	200.1772	238.3037	274.0584	281.073	314.6011	326.7763	368.1755	398.0317	449.4691	516.0386	583.	657.4279	662.7004	719.5991	843.1143	915.9476	925.3957	945.2476	976.126	1007.0443	1018.8723	1062.4276	1087.5956	1111.408	1146.1616	1157.1903	1197.7648	1214.859	1236.6904	1252.8048	1294.9312	1311.3312	1326.0924	1407.4351	1422.8518	1425.3398	1461.5455	1479.7215	1486.9432	1498.6025	1507.7397	1519.8114	2963.2157	3027.0565	3034.1091	3056.153	3082.9885	3093.4394	3104.9311	3125.2347	3149.2282	3182.0817	3791.8351	3812.9166
CC1(C)C2CC(O)C12O	CC1(C)[C@H]2C[C@@H](O)[C@@]12O	
InChI=1S/C7H12O2/c1-6(2)4-3-5(8)7(4,6)9/h4-5,8-9H,3H2,1-2H3	InChI=1S/C7H12O2/c1-6(2)4-3-5(8)7(4,6)9/h4-5,8-9H,3H2,1-2H3/t4-,5-,7-/m1/s1
