23
gdb 58119	2.87317	1.00689	0.91043	1.6063	87.33	-0.2542	0.0536	0.3078	1409.2658	0.201462	-388.266201	-388.254942	-388.253998	-388.301696	42.575	
C	 0.1749830269	 1.5240138492	-0.0026485338	-0.43603
C	-0.0304877396	 0.0091228406	 0.0566568114	 0.129815
O	 0.6829999833	-0.5429184888	 1.1644244587	-0.439785
C	-1.5153188327	-0.4648011852	 0.0376322502	 0.251058
C	-2.2695580434	 0.0029578542	 1.2936245992	-0.435518
C	-2.2212146442	 0.0537272642	-1.2265217243	-0.427603
C	-1.474998721	-2.0243414009	 0.0034222184	-0.381055
C	-2.7817434978	-2.6688366918	 0.0113461788	 0.311148
C	-3.863981309	-3.1941897031	 0.0150960756	-0.455416
H	 1.2462527614	 1.7412577479	 0.0256650076	 0.126612
H	-0.2376578225	 1.9590058972	-0.9162199453	 0.124714
H	-0.2942596783	 2.0278535165	 0.8503036486	 0.112528
H	 0.4564481788	-0.4352158427	-0.8216776645	 0.083003
H	 0.4536640815	-0.0316155813	 1.9475221931	 0.280448
H	-2.3489393472	 1.0935050223	 1.3352494673	 0.110585
H	-3.2836807922	-0.4047969736	 1.3011936974	 0.135181
H	-1.7749079321	-0.3426646922	 2.2078793933	 0.104039
H	-1.6412308348	-0.1755920234	-2.1284263167	 0.108375
H	-3.2019764145	-0.4185111835	-1.3329379334	 0.131246
H	-2.3745109615	 1.1358900087	-1.1900739826	 0.112328
H	-0.9279209947	-2.3410554985	-0.8949446055	 0.120512
H	-0.8830901805	-2.3710457014	 0.8566352084	 0.143513
H	-4.8126048759	-3.6708615744	 0.019971968	 0.1903
78.8721	82.9548	132.6343	212.5953	234.2895	247.1061	263.3272	286.9406	298.4437	337.2624	345.2182	353.9972	369.4866	400.5223	476.3268	502.6667	605.2778	606.6901	633.8308	734.1545	829.3497	899.2473	923.3604	949.2447	954.5947	979.8181	1014.5761	1053.9017	1078.6571	1116.8662	1146.5445	1211.7208	1243.41	1276.9743	1303.6023	1334.4795	1369.082	1399.6726	1402.1541	1418.3637	1424.3982	1471.72	1482.5501	1492.9781	1495.6057	1505.1576	1510.3558	1514.5307	2231.3078	3015.109	3020.7512	3029.9199	3034.4687	3038.8377	3077.149	3097.3524	3100.3082	3105.9199	3113.4977	3118.5068	3126.6098	3505.7178	3810.5
CC(O)C(C)(C)CC#C	C[C@@H](O)C(C)(C)CC#C	
InChI=1S/C8H14O/c1-5-6-8(3,4)7(2)9/h1,7,9H,6H2,2-4H3	InChI=1S/C8H14O/c1-5-6-8(3,4)7(2)9/h1,7,9H,6H2,2-4H3/t7-/m1/s1
