21
gdb 111772	1.84024	1.69182	1.11986	3.0461	78.9	-0.2435	0.0619	0.3054	1181.6356	0.182698	-424.184891	-424.175589	-424.174645	-424.219151	35.	
O	 0.0762146573	 0.1213363809	 1.1582074816	-0.418802
C	-0.2234332299	 0.0896516271	-0.2415769011	-0.122626
C	-1.5382472413	-0.632390498	-0.3562708461	-0.040523
C	-2.0024271933	-1.5807982463	-1.4302194616	-0.169546
C	-0.8471627979	-2.4118992768	-2.0009820435	-0.228862
C	-0.5080791434	-2.9083096776	-0.5594568034	-0.285649
C	-1.6911912392	-2.0940884468	-0.0124143962	 0.340745
C	-2.5184108319	-2.4860948309	 1.173365161	-0.166887
O	-1.7803987622	-2.2973744165	 2.373759448	-0.430912
H	 0.9137889744	 0.5762562937	 1.2882289185	 0.290082
H	-0.3041975561	 1.1101276116	-0.6444969895	 0.092041
H	 0.5716410569	-0.4232899284	-0.7982093612	 0.094361
H	-2.3614570407	-0.0448230227	 0.0481463296	 0.092298
H	-2.9629257539	-1.4353352745	-1.9124001829	 0.085967
H	-1.1982647543	-3.2229508536	-2.6424384415	 0.105409
H	-0.069192961	-1.8627625616	-2.5409342237	 0.094893
H	-0.6635382481	-3.9836737927	-0.4455801363	 0.104604
H	 0.4794254933	-2.6617541683	-0.1589165557	 0.10174
H	-3.4581439049	-1.9072444694	 1.1803351322	 0.076764
H	-2.7902045033	-3.5483688069	 1.1427892415	 0.095352
H	-1.2677926604	-1.4845734024	 2.2629262	 0.289551
77.3217	90.8752	109.8586	215.1975	233.4661	275.4946	289.1974	340.1943	429.3066	461.3203	492.4739	530.5786	686.7854	747.0105	791.7271	827.6611	899.4037	941.9539	954.3874	965.8954	989.6693	1019.3396	1038.6341	1056.463	1061.5696	1087.8944	1135.4341	1146.2364	1203.0367	1211.9016	1231.1954	1239.0844	1246.2	1264.8878	1281.5684	1316.1661	1342.8695	1363.2218	1430.9024	1449.3412	1483.2864	1488.7518	1507.1271	1513.8939	1527.0042	2953.1263	2991.1902	3030.296	3044.2179	3048.6478	3058.7311	3096.3056	3114.5623	3121.7837	3169.0461	3744.9134	3826.7538
OCC1C2CCC12CO	OC[C@H]1[C@H]2CC[C@@]12CO	
InChI=1S/C7H12O2/c8-3-6-5-1-2-7(5,6)4-9/h5-6,8-9H,1-4H2	InChI=1S/C7H12O2/c8-3-6-5-1-2-7(5,6)4-9/h5-6,8-9H,1-4H2/t5-,6+,7+/m1/s1
