21
gdb 109097	3.1562	1.08898	0.84373	1.9391	90.29	-0.2007	-0.0119	0.1888	1390.9498	0.183846	-387.102614	-387.093585	-387.092641	-387.136796	34.046	
O	 0.1322515349	 1.4277400061	-0.0284499351	-0.41184
C	 0.0189431595	 0.0198398972	-0.0214938513	-0.148974
C	-1.4209639822	-0.4221025954	 0.028444627	 0.233555
C	-2.422587824	 0.469191541	-0.0092891236	-0.140588
C	-3.862978771	 0.2398227914	 0.0563091133	-0.063287
C	-4.5817573469	-0.8912121149	-0.0202295372	-0.07388
C	-4.1226532255	-2.3031709517	-0.2482805397	-0.249295
C	-2.6995351799	-2.497684836	-0.778923022	-0.201248
C	-1.5931902823	-1.9191248495	 0.1205000633	-0.292889
H	 1.0637690089	 1.6523826459	-0.0992635971	 0.289343
H	 0.4891361704	-0.4224334292	-0.9197493456	 0.093326
H	 0.5509320717	-0.4194124608	 0.8430746429	 0.092969
H	-2.1312711078	 1.5133784499	-0.0607900734	 0.102139
H	-4.4364546111	 1.1541816744	 0.1995498104	 0.078585
H	-5.6602621233	-0.789392765	 0.090472676	 0.081679
H	-4.2453293439	-2.8703530329	 0.687738386	 0.107062
H	-4.8214515865	-2.7787125374	-0.9512473213	 0.102326
H	-2.5290021033	-3.5735833451	-0.9017556955	 0.091175
H	-2.6155971752	-2.0518664208	-1.7764751606	 0.106043
H	-0.6402730196	-2.3982453832	-0.1394745668	 0.091191
H	-1.787232603	-2.2040798939	 1.1648214805	 0.112608
44.9907	113.8913	177.4194	211.612	217.326	271.749	324.0269	361.0346	434.4913	477.6945	532.8793	599.9711	719.7631	738.0384	807.4102	840.4938	884.8872	917.0308	930.6278	963.3088	1013.6352	1023.9149	1051.9828	1079.1069	1084.347	1109.6723	1155.4324	1178.7517	1227.8135	1257.3671	1262.7645	1285.6094	1295.0951	1362.5657	1374.7464	1395.0156	1411.6442	1446.4233	1458.1289	1466.3993	1478.4652	1490.2422	1504.6992	1694.1871	1722.2097	2923.6098	2934.2636	2985.5779	3001.9386	3014.2952	3027.9119	3043.1802	3072.7531	3122.5651	3146.2805	3183.9341	3843.7212
OCC1=CC=CCCC1	OCC1=CC=CCCC1	
InChI=1S/C8H12O/c9-7-8-5-3-1-2-4-6-8/h1,3,5,9H,2,4,6-7H2	InChI=1S/C8H12O/c9-7-8-5-3-1-2-4-6-8/h1,3,5,9H,2,4,6-7H2
