17
gdb 121613	3.23307	0.88161	0.70968	9.5989	68.62	-0.2247	-0.0273	0.1974	1523.6541	0.135115	-492.317172	-492.307424	-492.30648	-492.352875	34.097	
O	 0.1225231068	 1.2835750367	-0.4801872019	-0.409363
C	-0.0202264591	-0.040305312	 0.0001496338	-0.081201
C	-1.504404453	-0.242937243	 0.282406374	-0.160077
N	-2.2662016085	-0.0261710888	-0.9334065011	-0.261048
C	-3.3923314398	-0.5697251649	-1.3111824092	 0.302562
N	-4.1220171827	-1.4518264369	-0.6660142165	-0.501062
H	-4.9493430671	-1.7030492657	-1.2106908952	 0.294833
H	-3.9451578872	-1.8163677831	 0.2551903256	 0.269497
C	-3.9514960935	-0.1249599785	-2.7254906226	 0.39836
O	-3.2221466891	 0.7081265785	-3.2742476616	-0.461944
O	-5.0109369256	-0.7013541457	-3.0034453502	-0.462249
H	 0.9759876278	 1.3719248288	-0.9136253771	 0.304303
H	 0.3142390487	-0.7797702334	-0.7412188136	 0.114958
H	 0.5466375545	-0.2047139781	 0.9286939328	 0.107413
H	-1.671447043	-1.2618354511	 0.6486604729	 0.115302
H	-1.8244262908	 0.460116956	 1.0618579918	 0.14276
H	-1.9421814485	 0.6542244512	-1.6273456019	 0.286956
44.8739	89.4855	103.9053	130.1413	186.2648	248.5744	272.6741	306.4683	380.2116	395.8711	482.8905	533.9902	563.6161	700.903	789.5914	812.0411	816.3395	866.2222	868.7858	926.9507	1050.8667	1097.7486	1117.499	1164.341	1217.647	1249.1109	1274.5951	1310.0989	1322.3081	1387.4054	1455.7456	1468.3348	1487.3898	1516.1619	1582.051	1756.6969	1840.1859	2989.9881	3021.9042	3037.1443	3079.3171	3413.0538	3435.406	3669.9764	3843.9917
OCCNC(=[NH2+])C([O-])=O	OCCNC(=[NH2])C(=O)[O]	
InChI=1S/C4H8N2O3/c5-3(4(8)9)6-1-2-7/h7H,1-2H2,(H2,5,6)(H,8,9)	InChI=1S/C4H8N2O3/c5-3(4(8)9)6-1-2-7/h6-7H,1-2,5H2
