20
gdb 127424	2.3256	1.57661	0.96006	1.5619	84.45	-0.1979	0.0361	0.234	1257.8878	0.170213	-399.361466	-399.350876	-399.349932	-399.397769	36.602	
C	-0.0271209228	 1.3915177801	-0.0542274798	-0.326375
N	-0.0060492496	-0.0495281076	 0.0428352257	-0.028637
N	-0.0190985398	-0.7942153988	-1.0860329951	-0.34609
C	 0.0206056006	-2.0599043768	-0.6718564938	 0.322252
C	 0.0160463106	-3.1915828983	-1.6498503285	-0.504074
C	 0.0480835917	-2.1270655674	 0.7434405854	-0.033512
N	 0.0609413968	-3.2657738145	 1.5933809929	-0.6144
C	 0.0200822753	-0.8101695478	 1.1722213767	 0.365761
C	 0.012101814	-0.257193641	 2.5561606057	-0.513681
H	 0.8616630866	 1.8350135549	 0.4080830728	 0.131449
H	-0.0432027568	 1.6415857922	-1.1145570188	 0.158893
H	-0.9171074686	 1.811758332	 0.427344696	 0.13277
H	 0.8462315511	-3.8844728825	-1.4682809401	 0.116193
H	-0.9104661165	-3.7772539349	-1.597744116	 0.121505
H	 0.108512136	-2.8029390908	-2.6662485598	 0.140184
H	-0.2894719224	-4.0835770448	 1.1078352608	 0.235733
H	 0.997655917	-3.4913817692	 1.9142510078	 0.237225
H	 0.9647371352	 0.2140299431	 2.830180206	 0.126992
H	-0.7731339763	 0.4950293718	 2.6935211712	 0.127792
H	-0.1729283122	-1.0746884798	 3.2575812309	 0.150021
55.7629	59.7135	97.9172	138.4458	161.4056	168.2679	242.0372	252.5741	289.5742	318.3679	335.4119	559.3348	573.7183	623.366	646.0047	705.4066	736.8723	810.7948	883.1632	1004.9707	1019.5004	1059.2474	1063.498	1064.2025	1148.735	1167.1955	1222.2896	1261.1386	1340.2581	1398.7803	1411.1492	1412.8835	1450.9235	1476.9053	1480.6355	1482.3338	1490.2665	1496.4606	1504.8264	1515.5962	1534.0742	1622.2315	1662.1783	3018.191	3020.4013	3028.4999	3066.481	3067.8316	3081.0688	3120.8968	3128.0683	3161.3166	3495.0876	3578.6656
CN1N=C(C)C(N)=C1C	Cn1nc(C)c(N)c1C	
InChI=1S/C6H11N3/c1-4-6(7)5(2)9(3)8-4/h7H2,1-3H3	InChI=1S/C6H11N3/c1-4-6(7)5(2)9(3)8-4/h7H2,1-3H3
