23
gdb 104202	2.28171	1.33525	1.28539	1.1116	81.73	-0.2395	0.0769	0.3164	1194.6692	0.202328	-425.414912	-425.404307	-425.403362	-425.449575	40.16	
C	-0.0178892575	 1.4099359262	 0.3092678061	-0.250813
O	-0.1458602122	 0.0268902654	 0.5514268761	-0.289832
C	-1.3266485221	-0.5813852408	 0.0614864236	 0.387176
C	-2.5745265133	-0.0707238126	 0.7793943122	-0.438337
C	-1.4922880569	-0.6462731232	-1.4902237125	-0.282288
C	-1.8259747612	-2.1559295099	-1.3591705743	-0.286233
C	-1.2095462959	-2.1422773656	 0.0732637059	 0.357644
C	 0.2265175937	-2.6517228214	 0.1150146418	-0.441351
O	-1.9840464977	-2.729150391	 1.1033105499	-0.478042
H	 0.9948569852	 1.6912076544	 0.6097258973	 0.123897
H	-0.1478136964	 1.6565011757	-0.7550871437	 0.104584
H	-0.7306129421	 2.010270328	 0.8917475439	 0.109273
H	-2.7481814125	 0.9854224332	 0.5513450071	 0.104969
H	-3.4598566481	-0.6308258806	 0.4707963437	 0.124709
H	-2.4628782655	-0.189633254	 1.8596407889	 0.130368
H	-2.254471717	-0.003266961	-1.9355878872	 0.095628
H	-0.5397521433	-0.4747456265	-1.9979838075	 0.104768
H	-2.9010784278	-2.3438733719	-1.3158286589	 0.106662
H	-1.3735107968	-2.8343414044	-2.0868450894	 0.091785
H	 0.8457678138	-2.1838189916	-0.6536072993	 0.122234
H	 0.6787310273	-2.4415721009	 1.086801885	 0.133318
H	 0.2374954904	-3.7357258529	-0.0590013967	 0.094905
H	-1.7663706141	-3.6657165249	 1.1458585882	 0.274977
92.571	114.6906	185.7191	192.2187	197.6254	232.6942	248.8871	283.6945	312.5115	330.9857	357.5723	395.994	404.4288	483.7217	554.7688	606.9763	694.7673	769.42	883.9424	893.0917	918.4437	922.1096	941.3001	973.4076	997.8774	1082.3434	1114.2261	1158.1629	1178.4867	1181.5135	1193.4196	1203.2707	1217.454	1226.7462	1245.7609	1276.5754	1278.1405	1378.0368	1404.1162	1407.7088	1472.4986	1475.3519	1482.436	1484.0952	1487.7381	1491.305	1496.5146	1503.7151	1512.1839	2987.1205	3022.3991	3035.75	3049.2623	3059.5309	3065.94	3104.4459	3106.8481	3109.2926	3118.6232	3125.3612	3135.5559	3136.0575	3814.3322
COC1(C)CCC1(C)O	CO[C@@]1(C)CC[C@]1(C)O	
InChI=1S/C7H14O2/c1-6(8)4-5-7(6,2)9-3/h8H,4-5H2,1-3H3	InChI=1S/C7H14O2/c1-6(8)4-5-7(6,2)9-3/h8H,4-5H2,1-3H3/t6-,7-/m0/s1
