23
gdb 123033	5.07831	0.51801	0.49614	1.0948	84.1	-0.2475	0.0802	0.3277	2257.6695	0.203664	-425.395888	-425.385044	-425.3841	-425.433113	38.374	
C	 0.0319337015	 1.3607489459	 0.1643081946	-0.225926
O	-0.0174646282	-0.0402944471	 0.2643514459	-0.230869
C	-1.2666575861	-0.5748722878	-0.1192033321	-0.049654
C	-1.2199314845	-2.0891026795	 0.0291237269	-0.19164
C	-2.5400708476	-2.7600498415	-0.3684149253	-0.206569
C	-2.4949203636	-4.2679535877	-0.2336858994	-0.012211
C	-2.7147209899	-4.9252846211	 1.1177	-0.325051
C	-3.7438917319	-5.0600875434	 0.0221419516	 0.086677
O	-4.9432240494	-4.3434920989	 0.1087981798	-0.417759
H	 1.0298655608	 1.6786685873	 0.4770035776	 0.123718
H	-0.1426443283	 1.7056843671	-0.8679367335	 0.100323
H	-0.7144255211	 1.8457832888	 0.8144463155	 0.100175
H	-2.0726405499	-0.152308023	 0.5071474422	 0.081013
H	-1.4972376403	-0.2967278368	-1.1631660739	 0.081055
H	-0.3973389353	-2.4743804852	-0.5859561184	 0.100892
H	-0.9726556992	-2.3339660029	 1.06864293	 0.105765
H	-3.3619449409	-2.3709076622	 0.2417178899	 0.108263
H	-2.7864368405	-2.5001165411	-1.4069877782	 0.096697
H	-1.7654967629	-4.7530552964	-0.8781768012	 0.084434
H	-2.1209936114	-5.7892305869	 1.3963335397	 0.108684
H	-2.9736242152	-4.2666390668	 1.9412035554	 0.111243
H	-3.8323160335	-6.0285427488	-0.4707622389	 0.083334
H	-5.4753624327	-4.7415782521	 0.8051154217	 0.287407
49.1374	60.7818	86.6011	115.5532	134.2576	190.6511	235.5569	238.849	296.3255	341.7644	372.4663	452.5781	485.6285	592.241	752.9581	771.9451	831.9427	863.591	886.6	969.8323	981.7653	1002.9882	1039.2982	1057.1901	1072.9195	1100.9136	1136.7444	1165.309	1174.4226	1178.7184	1196.1409	1224.7919	1234.8477	1239.5557	1277.5764	1297.7917	1307.102	1314.8431	1365.2215	1407.0453	1426.8887	1429.064	1482.1708	1484.3676	1485.1897	1492.7238	1499.4451	1507.8476	1532.5917	2937.2341	2962.0456	2965.1646	3004.8183	3016.9468	3032.4766	3064.7281	3084.366	3092.4819	3109.235	3125.5568	3134.6217	3214.1365	3809.8225
COCCCC1CC1O	COCCC[C@H]1C[C@H]1O	
InChI=1S/C7H14O2/c1-9-4-2-3-6-5-7(6)8/h6-8H,2-5H2,1H3	InChI=1S/C7H14O2/c1-9-4-2-3-6-5-7(6)8/h6-8H,2-5H2,1H3/t6-,7+/m0/s1
