21
gdb 99115	2.96556	1.03802	0.90128	1.5891	79.36	-0.2567	0.0151	0.2718	1395.1294	0.180593	-424.25408	-424.243884	-424.24294	-424.290307	36.476	
C	-2.7170191644	-4.3152944503	-1.4926204173	-0.23907
O	-1.4942113834	-3.6657920029	-1.1229639538	-0.226244
C	-1.0960098343	-2.673773086	-1.949667765	 0.445733
O	-1.7206120428	-2.3336097383	-2.9241670371	-0.363122
C	 0.2369910295	-2.1014376706	-1.5116919291	-0.380039
C	 1.3865953918	-2.6993199296	-2.3254994247	 0.375225
C	 1.4378565756	-2.2638130978	-3.7776742327	-0.462226
C	 2.6918254873	-2.9262643753	-1.6012185379	-0.318817
C	 1.8195686684	-4.1031041782	-1.9721110736	-0.295266
H	-3.5427848188	-3.5996427623	-1.5129154155	 0.14059
H	-2.6273577424	-4.7728283877	-2.4811890258	 0.139844
H	-2.8905917857	-5.0774276082	-0.7327819232	 0.131095
H	 0.2008162517	-1.0174507634	-1.660936644	 0.123138
H	 0.3819536365	-2.3050122699	-0.4483814814	 0.11482
H	 1.5926548146	-1.1809802566	-3.8551839292	 0.114257
H	 2.2604244298	-2.7574327485	-4.3042101174	 0.10827
H	 0.504758228	-2.5000789954	-4.2973521535	 0.141532
H	 3.6104353053	-2.7755212387	-2.1586306461	 0.111503
H	 2.7582995744	-2.6486372832	-0.554425784	 0.109546
H	 1.2877135852	-4.615659832	-1.1779759402	 0.118424
H	 2.1502957736	-4.7520215651	-2.7760705986	 0.110805
30.8306	68.1459	111.2903	126.3788	203.2773	215.561	271.7023	310.5033	327.0036	355.2786	416.3067	435.7268	623.8352	702.4092	784.7276	796.4188	858.3484	879.413	932.5948	939.3893	956.7944	978.9953	1036.703	1053.1475	1076.728	1079.8429	1124.9091	1164.2035	1178.6125	1187.6652	1209.1478	1265.8855	1316.1205	1327.0831	1374.7684	1423.6207	1466.9572	1469.0758	1474.9014	1480.5843	1489.6665	1496.9004	1501.1385	1510.7609	1814.9069	3028.4293	3051.4303	3054.0502	3091.4879	3112.9646	3114.1782	3125.8018	3126.4803	3133.4364	3157.7692	3205.7023	3220.9952
COC(=O)CC1(C)CC1	COC(=O)CC1(C)CC1	
InChI=1S/C7H12O2/c1-7(3-4-7)5-6(8)9-2/h3-5H2,1-2H3	InChI=1S/C7H12O2/c1-7(3-4-7)5-6(8)9-2/h3-5H2,1-2H3
