17
gdb 7120	7.88719	0.79344	0.73786	7.0835	73.69	-0.2244	-0.0316	0.1928	1494.5237	0.141351	-401.006979	-400.998114	-400.99717	-401.041024	30.868	
C	-0.0501415211	 1.5043210386	-0.1026150475	-0.320803
N	-0.1838891726	 0.0941499349	 0.2581120812	-0.309399
H	-1.1332567389	-0.0908198887	 0.5674364613	 0.239161
H	 0.3086514576	-1.5926555728	-0.5494734306	 0.29703
C	 0.7613728618	-0.3725304415	 1.2734268314	-0.247295
C	 0.8809256236	-1.8846036329	 1.1845115958	 0.376709
O	 0.6587921673	-2.3613741011	-0.0485560322	-0.394972
C	 1.2170312072	-2.6656403676	 2.2317771989	-0.286036
H	 1.378824339	-2.2004485959	 3.1981631493	 0.093026
C	 1.3857903972	-4.1088844096	 2.1516204194	 0.131379
O	 1.6960702543	-4.8134416441	 3.0931718976	-0.302903
H	 0.937020198	 1.6724851691	-0.5443258343	 0.137836
H	-0.8034059422	 1.7583725696	-0.852944558	 0.133946
H	-0.1633729566	 2.1924303368	 0.7492944569	 0.115496
H	 1.7390522242	 0.0652723855	 1.0308209705	 0.140323
H	 0.5185586315	-0.0657053177	 2.2996152899	 0.121283
H	 1.2049949296	-4.5467127925	 1.1476343203	 0.075219
54.5899	101.0568	157.0454	166.5393	211.3278	236.6202	282.1613	347.5642	404.8493	489.1197	578.9001	700.7578	745.728	850.1996	869.7685	932.2658	975.0852	1002.298	1038.3447	1108.7852	1137.3694	1154.142	1173.3595	1186.5628	1285.7833	1351.2728	1361.2385	1421.0605	1446.842	1460.695	1478.7476	1490.8438	1498.3183	1517.7817	1722.3677	1770.7953	2910.8741	2986.9462	3009.9659	3047.0542	3076.6904	3118.7966	3192.077	3477.916	3515.525
C[NH2+]CC(=O)[CH-]C=O	CNCC(=CC=O)O	
InChI=1S/C5H8NO2/c1-6-4-5(8)2-3-7/h2-3,6H,4H2,1H3/q-1/p+1	InChI=1S/C5H9NO2/c1-6-4-5(8)2-3-7/h2-3,6,8H,4H2,1H3
