17
gdb 44784	2.42739	2.16166	1.56716	3.0285	73.03	-0.2107	-0.0167	0.1941	891.9817	0.137507	-417.869906	-417.863127	-417.862183	-417.900757	27.991	
O	 0.0767928094	 0.1091662676	 0.1266391156	-0.322367
C	 0.0019710244	 1.3022868015	 0.0491594331	 0.404039
C	-1.22217873	 2.2306563568	 0.1239051603	-0.278522
N	-0.5753542554	 3.5579247985	-0.029971742	-0.170465
C	 0.6321975896	 3.3767446834	 0.9302578739	-0.272929
C	 1.1263156936	 2.3324564155	-0.1647127467	 0.15028
N	 2.1235609149	 1.8166296807	-1.1873183673	-0.388217
C	 1.0861420602	 2.3065297203	-2.2289111914	-0.245931
C	 0.5335392374	 3.2796705574	-1.1246038494	 0.016094
H	-1.9307278464	 2.0353564756	-0.6864889686	 0.134152
H	-1.7545822477	 2.1625004792	 1.0763679293	 0.134
H	 1.2297797208	 4.2869313662	 0.9712392586	 0.129861
H	 0.3555879432	 3.0373475369	 1.9324238604	 0.124588
H	 2.9149810164	 2.4587704646	-1.2367450249	 0.225267
H	 1.5128721995	 2.7629486902	-3.1248346175	 0.118092
H	 0.4426868218	 1.468613843	-2.5013890375	 0.14718
H	 1.0782486684	 4.2233546827	-1.199923276	 0.094877
135.9574	237.0679	294.2017	351.3291	444.2437	496.2099	545.4867	597.2481	630.9229	674.7052	705.6938	752.3554	803.9413	823.0006	852.8392	922.1449	954.4486	978.5177	1007.7846	1012.2548	1056.371	1060.9178	1113.8523	1130.2848	1144.908	1189.703	1202.4668	1217.0737	1238.6332	1276.7987	1288.62	1340.9898	1397.1016	1464.3303	1489.81	1510.0891	1877.1914	3060.3714	3065.079	3071.9259	3075.4365	3112.2668	3141.5048	3149.7523	3462.577
O=C1CN2CC11NCC21	O=C1CN2C[C@]31NC[C@@H]23	
InChI=1S/C6H8N2O/c9-5-2-8-3-6(5)4(8)1-7-6/h4,7H,1-3H2	InChI=1S/C6H8N2O/c9-5-2-8-3-6(5)4(8)1-7-6/h4,7H,1-3H2/t4-,6+/m1/s1
