20
gdb 117206	3.4585	0.97687	0.82321	2.0958	77.47	-0.2248	0.0184	0.2432	1459.655	0.169314	-440.303427	-440.293344	-440.292399	-440.339236	36.357	
C	 0.0992183576	 1.4939536136	-0.088963285	-0.392642
C	 0.0979614091	-0.019474931	 0.0042026002	-0.042719
O	 0.7252905563	-0.5301891085	-1.1889425266	-0.254869
C	 0.8024635569	-1.8700748332	-1.2801316967	 0.464821
O	 0.3972495221	-2.6253143515	-0.4270393422	-0.387282
C	 1.4945597751	-2.305016578	-2.5345681331	 0.168924
N	 1.6836027556	-1.2805905284	-3.533611972	-0.573023
C	 2.5040541615	-3.4380875052	-2.3130119335	-0.294439
C	 1.1893939755	-3.7093948799	-2.9879069642	-0.274916
H	 1.1200340748	 1.8816290195	-0.152751756	 0.12635
H	-0.452352144	 1.8306178743	-0.9711058804	 0.133873
H	-0.3755755525	 1.9206655862	 0.7995847216	 0.122892
H	 0.6513625745	-0.3796260203	 0.877280464	 0.121117
H	-0.9157809275	-0.4261969685	 0.070309534	 0.124552
H	 2.2340425439	-0.5181900447	-3.1504805302	 0.233456
H	 2.2006062801	-1.6581942599	-4.3210818852	 0.226222
H	 3.4005192509	-3.4014259406	-2.9231878826	 0.108205
H	 2.6397394172	-3.8066129561	-1.3029463123	 0.133069
H	 0.4376877154	-4.2513015486	-2.4272517372	 0.141997
H	 1.1803743274	-3.8760737992	-4.0600464327	 0.11441
37.9818	71.1243	127.3898	136.605	194.0723	250.7376	283.1251	294.3414	323.3265	375.5143	412.4826	474.9666	574.5263	752.509	781.1272	798.3995	807.49	858.1929	881.6472	899.3548	935.4987	969.673	998.4623	1053.6129	1058.1596	1088.694	1134.2573	1156.5266	1183.3005	1200.4651	1227.3037	1290.7238	1337.2694	1384.1001	1410.9679	1431.8064	1448.2719	1482.3859	1486.2159	1496.5018	1520.1223	1646.5878	1798.7946	3046.1411	3052.7688	3090.5485	3120.0343	3126.7516	3132.1126	3138.0639	3224.0435	3238.7306	3496.2206	3580.0701
CCOC(=O)C1(N)CC1	CCOC(=O)C1(N)CC1	
InChI=1S/C6H11NO2/c1-2-9-5(8)6(7)3-4-6/h2-4,7H2,1H3	InChI=1S/C6H11NO2/c1-2-9-5(8)6(7)3-4-6/h2-4,7H2,1H3
