23
gdb 115075	2.90586	1.11721	0.86713	0.6636	94.65	-0.2094	-0.0177	0.1917	1417.9062	0.207325	-351.176683	-351.167463	-351.166519	-351.211041	35.272	
C	 0.1505130456	 1.5848437494	 0.0406532118	-0.394276
C	 0.0201786276	 0.0618447799	-0.0602060697	-0.169775
C	-1.4265336652	-0.4707093874	 0.0074753499	 0.022725
C	-2.2144598747	-0.1313984463	-1.2797893292	-0.261828
C	-3.7113812722	-0.1586663292	-1.1311775319	-0.08223
C	-4.4285424993	-1.1103595735	-0.5189186551	-0.063812
C	-3.9495569242	-2.3411364933	 0.103287087	-0.074766
C	-2.7013529652	-2.7193336979	 0.418448585	-0.071966
C	-1.399213554	-1.9789153835	 0.2987644302	-0.258669
H	 1.201716438	 1.8888943841	 0.0150234779	 0.112473
H	-0.3568270805	 2.1012415159	-0.780325904	 0.118436
H	-0.2793106991	 1.9542523476	 0.9784071679	 0.115755
H	 0.4858833692	-0.2896226623	-0.9917406654	 0.091863
H	 0.5993372014	-0.3915141342	 0.7541190621	 0.089905
H	-1.9318889256	 0.0260846231	 0.8463245732	 0.078594
H	-1.9215782561	 0.8616796696	-1.6341013806	 0.097179
H	-1.9064843358	-0.8300613087	-2.0728210389	 0.110502
H	-4.2515771243	 0.6809116136	-1.5622459581	 0.084618
H	-5.5097033231	-0.9892393733	-0.5066782318	 0.080389
H	-4.7369266844	-3.0582315076	 0.3285508331	 0.079571
H	-2.5921370663	-3.7147452162	 0.8470674402	 0.085379
H	-0.7811232092	-2.4820516737	-0.4626988867	 0.106624
H	-0.8483782327	-2.132531566	 1.2383164932	 0.103309
60.1497	89.3704	106.5969	207.9429	247.0325	322.1596	348.3832	364.9853	405.8357	441.0626	527.3009	605.7872	691.855	771.6246	784.011	838.523	851.2171	893.9641	908.3278	922.0714	933.7497	998.9156	1012.2468	1015.9936	1053.4035	1065.5701	1087.2631	1119.1098	1154.8706	1186.3286	1259.4833	1266.3871	1275.1415	1304.6185	1315.6862	1343.1612	1373.5632	1384.1147	1405.6472	1413.7631	1421.1594	1461.0685	1462.0346	1477.8825	1486.8849	1500.7182	1506.2922	1686.084	1715.7658	2977.6531	2993.3398	3003.8859	3011.3554	3024.8599	3032.829	3046.7638	3068.9847	3098.8571	3103.2485	3121.4665	3135.3588	3148.0949	3163.2395
CCC1CC=CC=CC1	CC[C@H]1CC=CC=CC1	
InChI=1S/C9H14/c1-2-9-7-5-3-4-6-8-9/h3-6,9H,2,7-8H2,1H3	InChI=1S/C9H14/c1-2-9-7-5-3-4-6-8-9/h3-6,9H,2,7-8H2,1H3
