19
gdb 94331	2.56121	1.27747	1.09822	1.576	82.39	-0.2249	0.0458	0.2707	1199.486	0.156907	-385.826165	-385.817008	-385.816064	-385.860306	34.428	
C	-0.3340894143	 1.4139746513	 0.046462283	-0.409032
C	 0.0542258234	-0.0534938367	-0.0573642182	-0.122982
C	 1.3831934285	-0.3892829424	-0.7780623903	-0.088439
O	 1.9449999223	-0.9647964924	 0.4286053595	-0.31119
C	 0.7488500542	-0.6928096713	 1.1433523691	 0.46969
C	 0.7511397022	-0.3340054525	 2.5833917334	-0.363355
C	 0.1903449469	-1.6948643466	 2.1355997756	-0.297727
C	-1.2167409584	-1.9471016519	 2.1689948122	 0.339873
C	-2.4056091015	-2.1379255415	 2.1653608759	-0.470228
H	 0.5012285389	 2.0208904992	 0.4112880348	 0.122315
H	-0.6374301136	 1.8059962285	-0.9301663903	 0.118741
H	-1.1760326766	 1.5483802499	 0.7332308798	 0.126786
H	-0.7916356087	-0.6498217856	-0.4092225533	 0.097929
H	 1.32282131	-1.1254534121	-1.5867722864	 0.108424
H	 1.9634715238	 0.4778252297	-1.1148566351	 0.104268
H	 1.7048454409	-0.3550382304	 3.0994755895	 0.129447
H	 0.0434179929	 0.4061745762	 2.9404978464	 0.128501
H	 0.8367944541	-2.5463360681	 2.3288029338	 0.122323
H	-3.4518892849	-2.3170135134	 2.1782650507	 0.194656
54.5619	96.6814	140.4687	206.2107	232.4743	272.8044	349.5458	366.8176	433.9849	513.9238	554.7523	566.1947	617.0377	649.4538	765.6161	805.557	874.1164	884.0963	901.629	925.2149	941.6185	1008.8434	1035.174	1067.4702	1087.4745	1111.658	1119.0209	1149.8062	1180.8104	1201.7556	1258.2185	1314.9517	1343.375	1381.2202	1401.3707	1412.4584	1469.7749	1495.4987	1500.013	1526.0919	2229.5846	3024.516	3032.0295	3066.5074	3079.937	3100.9531	3107.0856	3132.907	3150.0033	3227.7065	3505.3345
CC1COC11CC1C#C	C[C@H]1CO[C@]21C[C@H]2C#C	
InChI=1S/C8H10O/c1-3-7-4-8(7)6(2)5-9-8/h1,6-7H,4-5H2,2H3	InChI=1S/C8H10O/c1-3-7-4-8(7)6(2)5-9-8/h1,6-7H,4-5H2,2H3/t6-,7+,8-/m0/s1
