17
gdb 67911	2.41199	1.839	1.32716	3.4278	71.29	-0.2281	-0.0246	0.2035	980.0685	0.134921	-421.783497	-421.775962	-421.775018	-421.815209	30.387	
O	-0.0648398043	 1.3936236679	-0.0803060806	-0.48169
C	 0.0127527498	 0.0042285288	-0.0025400661	 0.435512
C	-1.3766416849	-0.6807937634	-0.0008941927	-0.411666
C	-0.9289954599	-1.5009413558	 1.2332196977	 0.406094
O	-1.4537936207	-2.3545661361	 1.8867458814	-0.299503
C	 0.4319578713	-0.7735084428	 1.2986843641	-0.24157
C	 1.6115588313	-1.4083654614	 0.5119069842	-0.050734
C	 1.1539110891	-2.1645871044	-0.7024318092	-0.302708
C	 1.1946188704	-0.6615432991	-0.759791269	-0.138173
H	 0.8233762803	 1.7541328996	 0.0200382361	 0.282626
H	-2.1537155162	 0.0398704415	 0.276189396	 0.144936
H	-1.7043626622	-1.2377236501	-0.8818382882	 0.129022
H	 0.6938877606	-0.2627673086	 2.2260403703	 0.093505
H	 2.597880698	-1.5551801078	 0.9336170488	 0.097536
H	 1.9482731089	-2.6580884905	-1.2541663104	 0.119917
H	 0.2177478781	-2.7145909139	-0.7135449684	 0.127727
H	 1.8008540504	-0.1349400539	-1.489351144	 0.089169
96.4042	217.5566	268.5765	322.5082	338.8141	375.3749	439.6607	462.1149	563.099	590.0238	640.8711	726.2448	761.9465	822.4718	862.1379	894.0674	932.2766	945.2564	971.2813	978.3779	1027.9196	1049.9153	1059.4431	1081.8805	1091.1732	1112.0196	1120.973	1178.8536	1200.9902	1221.0183	1251.2361	1309.3649	1347.9341	1376.6559	1428.3217	1504.8173	1886.5915	3056.5147	3114.5426	3118.1593	3122.7546	3165.0053	3187.204	3202.6117	3798.377
OC12CC(=O)C1C1CC21	O[C@]12CC(=O)[C@H]1[C@H]1C[C@@H]21	
InChI=1S/C7H8O2/c8-5-2-7(9)4-1-3(4)6(5)7/h3-4,6,9H,1-2H2	InChI=1S/C7H8O2/c8-5-2-7(9)4-1-3(4)6(5)7/h3-4,6,9H,1-2H2/t3-,4+,6+,7-/m0/s1
