14
gdb 7403	3.47872	1.72959	1.19045	4.2315	62.68	-0.2355	-0.0755	0.16	954.5261	0.107223	-412.06154	-412.053248	-412.052303	-412.094875	30.119	
N	 0.4875800004	 0.1578624154	 1.0026689236	-0.544434
C	 0.154479044	-0.0045269336	-0.3184054573	 0.245483
N	 0.6509195312	 0.5671493888	-1.3493353465	-0.483602
C	-1.0193807197	-0.9432620755	-0.6055182801	 0.366491
O	-1.7078510202	-0.7891676271	-1.5858926282	-0.29098
C	-1.3425348224	-2.1309972609	 0.314778827	 0.298538
N	-2.3205804968	-2.9040084112	-0.2151822186	-0.523428
N	-0.702811562	-2.2949337131	 1.4171601627	-0.54411
H	 1.3608888982	 0.6302009697	 1.184497249	 0.239575
H	 0.2590420223	-0.6305675302	 1.6056129851	 0.279187
H	 1.4340819319	 1.1700940496	-1.0846172518	 0.204474
H	-2.7673925023	-2.5679747559	-1.0544195915	 0.280856
H	-2.7325891856	-3.6569828039	 0.3063534317	 0.258817
H	-1.020803759	-3.1178257721	 1.9305968849	 0.213133
49.8116	58.7494	208.05	270.8928	311.6839	362.0388	404.7811	441.4123	479.2924	562.1613	575.9542	587.2077	632.3548	661.5706	710.0755	838.5387	860.6436	885.7995	1053.5337	1092.2645	1135.2415	1147.8282	1181.2914	1406.8375	1439.0702	1590.3544	1628.7589	1696.3909	1715.1095	1798.5227	3423.2628	3438.0254	3461.5668	3590.0935	3633.9606	3732.4759
NC(=N)C(=O)C(N)=N	NC(=N)C(=O)C(=N)N	
InChI=1S/C3H6N4O/c4-2(5)1(8)3(6)7/h(H3,4,5)(H3,6,7)	InChI=1S/C3H6N4O/c4-2(5)1(8)3(6)7/h(H3,4,5)(H3,6,7)
