16
gdb 12346	3.1219	2.13298	1.36044	2.8022	65.76	-0.2552	-0.0273	0.2278	884.253	0.131163	-383.774813	-383.767657	-383.766713	-383.806216	27.42	
O	 0.0070604808	 1.4090024251	 0.0851393534	-0.442928
C	-0.0220292765	 0.0141428159	-0.0070730752	 0.051399
C	-1.4632206561	-0.5336429475	-0.0502088959	-0.278674
C	-1.4859366213	-2.0086670534	-0.3505363132	-0.067139
C	-0.4937072316	-2.6462461816	-0.9707306771	-0.051199
C	 0.7527807441	-1.9619834299	-1.4760491706	-0.360289
C	 0.7377709824	-0.4653046229	-1.2358148308	 0.369412
O	 1.284011164	 0.336494499	-1.9629106399	-0.335921
H	 0.5423178208	 1.7015338463	-0.6706679307	 0.291656
H	 0.477753735	-0.4420973333	 0.8663416732	 0.095354
H	-1.9498594624	-0.3206357558	 0.9073039427	 0.121813
H	-2.0272066892	 0.0294035463	-0.8065917661	 0.127269
H	-2.3659435711	-2.5653923997	-0.03968083	 0.097736
H	-0.5637733671	-3.7143197612	-1.1583261423	 0.098131
H	 1.6439484237	-2.3732513033	-0.9768017784	 0.142644
H	 0.9108437045	-2.135815484	-2.5467301192	 0.140735
97.0018	131.0529	298.345	346.8284	392.7847	418.5351	460.9339	476.9929	568.0394	621.618	682.1022	741.4151	834.4162	905.0707	935.2915	975.8317	1000.1691	1030.2958	1062.3356	1121.7832	1146.5854	1165.2751	1204.1256	1237.6631	1276.8686	1322.364	1335.1196	1367.2703	1408.2459	1440.9551	1448.7008	1483.9731	1724.4617	1803.5064	2947.5528	3000.185	3021.3965	3062.2216	3071.223	3153.291	3175.562	3676.5173
OC1CC=CCC1=O	O[C@H]1CC=CCC1=O	
InChI=1S/C6H8O2/c7-5-3-1-2-4-6(5)8/h1-2,5,7H,3-4H2	InChI=1S/C6H8O2/c7-5-3-1-2-4-6(5)8/h1-2,5,7H,3-4H2/t5-/m0/s1
