19
gdb 87516	3.40955	1.37954	1.27735	1.3277	79.59	-0.2187	0.0089	0.2276	1053.3697	0.159551	-385.823725	-385.815973	-385.815029	-385.855682	31.285	
O	 0.1476912537	 1.3542146407	-0.0878189262	-0.427084
C	 0.033718817	-0.039479798	-0.0012391828	 0.036303
C	-0.4241420173	-0.7437419954	 1.267679991	-0.43221
C	-1.2785730822	-0.7419621186	 0.0322916969	 0.394454
C	-2.6884241654	-0.1373811624	-0.2250522603	-0.162345
C	-2.5129470925	-0.7095750125	-1.675483026	-0.203984
C	-1.8208514257	-1.8749789254	-0.8816098877	-0.165809
C	-3.0056393131	-2.3661632472	-0.0322136401	-0.079795
C	-3.5693085051	-1.2342640432	 0.3986231602	-0.080485
H	-0.629919207	 1.7483095986	 0.3201732208	 0.283029
H	 0.8494569389	-0.4961824272	-0.5546474581	 0.105575
H	 0.0832558227	-1.6552747392	 1.5698667521	 0.112696
H	-0.7416197249	-0.117670891	 2.097903624	 0.10719
H	-2.9337174255	 0.9084725639	-0.0340741177	 0.053255
H	-3.4246304583	-0.9562573697	-2.2244763288	 0.091533
H	-1.8170137729	-0.1277987015	-2.2866294873	 0.10604
H	-1.1676046908	-2.604703456	-1.3593424142	 0.062434
H	-3.2791776808	-3.394847269	 0.1538639872	 0.100022
H	-4.4316528208	-1.0807121366	 1.0312916371	 0.09918
138.1657	146.061	170.4957	228.1217	348.483	434.2739	467.5765	538.7409	558.336	627.3576	719.3335	734.8849	813.5185	832.4246	835.4002	884.3374	901.6775	910.7077	925.5343	963.1185	970.8783	1001.0424	1027.2515	1039.6662	1077.7003	1096.2217	1112.6987	1118.741	1157.0694	1172.9757	1206.4476	1222.2965	1239.3605	1245.6756	1297.6556	1324.3475	1358.0757	1433.5223	1486.4972	1495.5046	1623.5604	3054.2674	3101.2028	3110.4987	3120.8821	3125.8552	3150.8319	3195.4708	3221.1006	3248.2335	3820.8582
OC1CC11C2CC1C=C2	O[C@H]1C[C@]21[C@H]1C[C@@H]2C=C1	
InChI=1S/C8H10O/c9-7-4-8(7)5-1-2-6(8)3-5/h1-2,5-7,9H,3-4H2	InChI=1S/C8H10O/c9-7-4-8(7)5-1-2-6(8)3-5/h1-2,5-7,9H,3-4H2/t5-,6+,7-,8+/m0/s1
