17
gdb 81917	2.4438	1.71359	1.25256	1.6427	67.19	-0.2474	-0.0372	0.2102	1015.1038	0.135597	-458.965221	-458.957053	-458.956109	-458.998024	30.971	
C	-0.4857061051	 1.3659686164	 0.0326209529	-0.416202
C	-0.0501355346	-0.1075017574	-0.0186650007	-0.156096
C	 0.8217186519	-0.493247584	-1.2620416992	 0.103874
O	 0.7515704349	 0.3958987167	-2.3570443453	-0.428967
C	 2.238375426	-0.6295546195	-0.720789106	-0.000434
O	 2.6374999742	 0.5563935327	-0.0275263569	-0.255242
C	 2.2410910921	-0.593568634	 0.7508539111	-0.084169
C	 0.8059418463	-0.477353004	 1.2032671927	 0.414184
O	 0.4054463609	-0.6959914912	 2.3173726193	-0.320029
H	 0.3776620153	 2.0348089462	 0.0858732422	 0.131333
H	-1.0695147789	 1.6183796257	-0.8557232741	 0.134218
H	-1.1015173123	 1.5381369126	 0.9190136176	 0.136816
H	-0.9473931312	-0.7321745953	 0.0169744874	 0.108769
H	 0.4917172919	-1.4609750356	-1.6537622974	 0.102125
H	 1.1747756955	 1.218898516	-2.0857767152	 0.29395
H	 3.0169517212	-1.1239721449	-1.2953660412	 0.115132
H	 3.0031072219	-1.0384654705	 1.3824640427	 0.120739
65.5108	155.9586	226.8258	243.477	263.7964	300.3198	406.0071	431.3092	499.3762	515.8523	582.016	717.8627	740.7544	788.8533	823.4143	863.9306	888.1224	939.5104	1026.4519	1038.2396	1063.7792	1099.9029	1110.4229	1128.7893	1197.0034	1239.3557	1244.6013	1284.0952	1310.1266	1317.6279	1337.3126	1392.7076	1410.3077	1437.5808	1494.3967	1515.5259	1843.8284	3049.5868	3057.1001	3073.4732	3125.5423	3130.9725	3158.3011	3181.8813	3798.3664
CC1C(O)C2OC2C1=O	C[C@H]1[C@@H](O)[C@H]2O[C@H]2C1=O	
InChI=1S/C6H8O3/c1-2-3(7)5-6(9-5)4(2)8/h2-3,5-7H,1H3	InChI=1S/C6H8O3/c1-2-3(7)5-6(9-5)4(2)8/h2-3,5-7H,1H3/t2-,3+,5+,6-/m0/s1
