19
gdb 73597	2.24774	1.62749	1.2937	1.7273	81.62	-0.2223	0.0462	0.2685	1081.0218	0.158548	-385.849201	-385.840512	-385.839568	-385.882207	33.361	
C	 0.0936649804	 1.5695757927	-0.1048798728	-0.481827
C	-0.0253243547	 0.075072483	 0.0687269934	 0.271571
C	-1.3925536039	-0.579433985	-0.1022994377	-0.305514
C	-1.3372934544	-1.8397938109	 0.7937408006	-0.08973
O	-0.201996105	-1.6971064765	 1.6633818817	-0.260814
C	 0.6275406653	-0.6991430326	 1.1676584524	 0.08069
C	 1.1925458062	-0.8137307243	-0.2549344924	-0.342264
C	 1.1147028915	-2.003179996	-1.0446860989	 0.347313
C	 1.0671748173	-2.9921845016	-1.7299146244	-0.444203
H	 1.0973463399	 1.9224483306	 0.1519479432	 0.119175
H	-0.1057150003	 1.8671760391	-1.140664914	 0.125848
H	-0.6212017629	 2.0960174603	 0.5381279997	 0.120767
H	-2.1606094696	 0.1213978594	 0.2408747588	 0.105719
H	-1.61529933	-0.8391920028	-1.1412905858	 0.117267
H	-2.2249885935	-1.9541853506	 1.423583669	 0.105681
H	-1.2159090797	-2.7442131529	 0.1917035478	 0.122895
H	 1.2501474953	-0.2549151822	 1.9371307918	 0.105526
H	 2.1087922817	-0.2451921863	-0.4001335483	 0.109081
H	 1.0308161366	-3.8734327133	-2.320751294	 0.19282
113.8117	122.836	170.111	204.7379	223.931	314.9687	344.8001	365.2045	535.7767	560.7856	576.6408	632.4176	649.959	700.7661	717.9575	810.7078	852.8699	873.5753	940.2855	957.6983	990.099	1003.6187	1041.7969	1067.4472	1111.0326	1131.4274	1154.3447	1224.7695	1230.1971	1252.3689	1287.0986	1310.2051	1341.119	1394.5656	1417.733	1442.3933	1489.0503	1490.6511	1501.0973	1523.1731	2227.3221	3023.7791	3045.0713	3053.773	3082.9349	3085.6295	3098.9766	3103.3816	3126.734	3169.7715	3503.333
CC12CCOC1C2C#C	C[C@]12CCO[C@H]1[C@H]2C#C	
InChI=1S/C8H10O/c1-3-6-7-8(6,2)4-5-9-7/h1,6-7H,4-5H2,2H3	InChI=1S/C8H10O/c1-3-6-7-8(6,2)4-5-9-7/h1,6-7H,4-5H2,2H3/t6-,7+,8-/m1/s1
