17
gdb 37288	4.34967	1.56177	1.51269	2.7147	69.45	-0.2408	0.0767	0.3175	896.1032	0.138997	-421.77245	-421.766644	-421.7657	-421.802313	25.152	
C	 0.0003386768	 1.4944217897	-0.0201976905	-0.100195
O	 1.4156072555	 1.7719131221	-0.0360281747	-0.290153
C	 1.9805069726	 0.4695053619	 0.0090863254	 0.145482
C	 1.1656467212	-0.4026246635	-0.9968204808	-0.101499
C	 1.5104462712	-1.843824505	-0.6365931897	 0.022494
O	 2.7413432201	-2.00329027	 0.096002015	-0.259216
C	 1.516377902	-1.7906305466	 0.825003214	 0.022495
C	 1.1740687209	-0.3269542594	 1.0822897216	-0.101501
C	 0.0236923885	-0.0263695296	 0.0350629356	-0.079829
H	-0.4658770632	 1.9589725859	 0.8570320051	 0.104906
H	-0.4730936304	 1.8941030913	-0.9250810151	 0.104906
H	 3.0644219218	 0.5235317647	 0.0027290805	 0.104175
H	 1.0936520186	-0.1130238214	-2.0451022545	 0.072342
H	 1.195950578	-2.6921127403	-1.2348412038	 0.103948
H	 1.2069755393	-2.5930852985	 1.4858662314	 0.103947
H	 1.1104698792	 0.0381081126	 2.1072927722	 0.072342
H	-0.9265062921	-0.5615037237	 0.0583877783	 0.075356
273.8446	298.4878	380.6051	409.3544	508.993	647.0758	690.781	696.4164	784.7053	806.0699	863.767	916.5295	925.821	926.9093	949.2048	953.8868	955.4953	998.6221	1011.2915	1025.6608	1027.697	1054.6767	1095.546	1100.8913	1162.6127	1194.4857	1206.872	1224.4696	1227.4775	1254.4584	1258.3342	1276.8977	1309.4737	1318.8727	1371.9195	1416.72	1524.0453	3021.7688	3059.9992	3111.8538	3118.7317	3122.0217	3168.141	3179.757	3181.4609
C1OC2C3C4OC4C2C13	C1O[C@@H]2[C@H]3[C@H]4O[C@H]4[C@@H]2[C@@H]13	
InChI=1S/C7H8O2/c1-2-3-5(8-1)4(2)7-6(3)9-7/h2-7H,1H2	InChI=1S/C7H8O2/c1-2-3-5(8-1)4(2)7-6(3)9-7/h2-7H,1H2/t2-,3-,4+,5+,6+,7-
