20
gdb 57505	3.01343	0.98909	0.89219	3.5794	83.99	-0.2553	-0.0233	0.232	1402.5348	0.16727	-403.154797	-403.144187	-403.143243	-403.189998	39.304	
C	-0.0853851448	 1.5657666313	 0.086809907	-0.40114
C	 0.0169376879	 0.0301397346	 0.0502041372	 0.282615
C	 0.6851349839	-0.4971302545	 1.3329548648	-0.40116
C	-1.3787759209	-0.5879791796	-0.1101307331	-0.433771
N	 0.7961728839	-0.3936036371	-1.1330857304	-0.348691
C	 2.0911201229	-0.0650187867	-1.3892195865	 0.292253
O	 2.7947511361	 0.6299214213	-0.6743470001	-0.377276
C	 2.5884653981	-0.6354326934	-2.640049859	 0.213931
C	 3.0299514533	-1.0887552242	-3.6625768077	-0.395242
H	 0.9073705348	 2.0120694157	 0.1585541945	 0.154958
H	-0.5736073127	 1.9414977611	-0.8179044614	 0.108714
H	-0.6771924524	 1.8807822464	 0.9519993521	 0.109301
H	 0.1001794505	-0.1997298412	 2.2089703059	 0.109303
H	 0.7451837817	-1.5898948864	 1.3154530774	 0.108689
H	 1.6939500974	-0.0937420515	 1.4303485168	 0.154966
H	-1.8670802383	-0.2310578912	-1.0236631849	 0.117623
H	-1.3253227608	-1.681665549	-0.1473467349	 0.117593
H	-2.0113036363	-0.3121380474	 0.7375794471	 0.128022
H	 0.3354144635	-0.9775946893	-1.8130214994	 0.251382
H	 3.4343601021	-1.4822182189	-4.5631408652	 0.207933
59.2758	109.6659	124.1756	211.1924	220.1902	262.6947	264.6376	272.7038	319.4289	350.2364	369.5735	415.3743	431.3154	479.525	543.3777	606.0341	656.7418	674.3426	769.6149	773.4543	920.5125	925.4844	936.0478	962.2105	968.0426	1057.5204	1069.3504	1226.9904	1246.7046	1248.3999	1283.7184	1396.2098	1399.1184	1428.5992	1472.764	1488.6206	1490.3335	1492.6203	1505.8348	1523.7803	1530.201	1747.9924	2223.9647	3029.3999	3038.6848	3044.3286	3095.8599	3105.2527	3107.7065	3120.4398	3145.8346	3148.8981	3496.81	3631.3565
CC(C)(C)NC(=O)C#C	CC(C)(C)NC(=O)C#C	
InChI=1S/C7H11NO/c1-5-6(9)8-7(2,3)4/h1H,2-4H3,(H,8,9)	InChI=1S/C7H11NO/c1-5-6(9)8-7(2,3)4/h1H,2-4H3,(H,8,9)
