18
gdb 71331	3.22457	1.44057	1.18791	4.0507	78.35	-0.2301	0.022	0.2521	1070.0161	0.147067	-401.883529	-401.875736	-401.874792	-401.915818	30.107	
C	-0.2089091904	 1.3773227084	 0.256628806	-0.5264
C	-0.0289750884	-0.0947080168	 0.0213052961	 0.333685
C	 0.5741432633	-0.835352036	-1.1949493755	-0.315634
C	 0.1793414576	-1.9812416063	-0.2448395582	-0.059885
C	 0.5689032303	-1.1606443765	 1.0240012	-0.07175
N	-0.7452065491	-1.4402344057	 1.6655562116	-0.072974
C	-1.3126130053	-0.8344161415	 2.7507448727	 0.129902
O	-2.4801175709	-0.5172328004	 2.8428124853	-0.328314
C	-1.1049972217	-1.2357397557	 0.2383136798	-0.054843
H	 0.7549225535	 1.8977356668	 0.2519304174	 0.123742
H	-0.8348376432	 1.8224896408	-0.5239056162	 0.130293
H	-0.6941501698	 1.5634987095	 1.2204658054	 0.144244
H	 0.0172593298	-0.7645872067	-2.1337743149	 0.103835
H	 1.6439244379	-0.6925201785	-1.3740016672	 0.100979
H	 0.283796157	-3.0591150409	-0.361142826	 0.089917
H	 1.5135079556	-1.1436022094	 1.5677308789	 0.095727
H	-0.5902028767	-0.7406448613	 3.5890959753	 0.067023
H	-2.1241714694	-1.2993305399	-0.1362074205	 0.11045
86.8886	162.1395	219.7289	234.1509	289.4328	322.1836	406.4317	489.1374	596.8449	680.3295	711.9565	751.5769	818.1295	841.8314	845.5474	903.6359	936.9813	982.1296	1004.5705	1028.2632	1035.5904	1070.3104	1081.7808	1133.5168	1146.5753	1155.7638	1170.4806	1183.6579	1197.1741	1233.9289	1295.6993	1340.9414	1382.285	1413.4153	1421.0325	1485.1062	1491.1523	1516.6662	1783.0423	2909.9066	3031.1745	3048.6016	3098.463	3104.733	3105.0279	3120.2288	3132.1385	3154.5095
CC12CC3C1N(C=O)C23	C[C@@]12C[C@H]3[C@@H]1N(C=O)[C@@H]23	
InChI=1S/C7H9NO/c1-7-2-4-5(7)8(3-9)6(4)7/h3-6H,2H2,1H3	InChI=1S/C7H9NO/c1-7-2-4-5(7)8(3-9)6(4)7/h3-6H,2H2,1H3/t4-,5-,6+,7+
