22
gdb 59173	2.46638	1.35809	1.08855	1.4776	82.03	-0.2271	0.0731	0.3003	1228.6569	0.193031	-404.298851	-404.289021	-404.288076	-404.333354	36.793	
C	-0.1251830185	 1.0392353294	-1.4106364291	-0.391785
C	-0.2853246684	 0.5871436056	 0.0442678494	 0.099349
O	 0.0486647967	 1.6433621849	 0.9451390689	-0.428369
C	-1.6918086283	 0.0665415675	 0.2733379017	-0.012362
C	-2.113977787	-1.3460898039	 0.2303625088	-0.042003
C	-1.0863153593	-2.2836021625	 0.866551114	-0.296603
C	-1.3006773665	-1.4721507922	 2.1759144672	 0.095956
C	-0.1614572168	-0.888311479	 2.9941937395	-0.420281
N	-2.2734723851	-0.5226340668	 1.5047331959	-0.186985
H	 0.8790862878	 1.4408521261	-1.5673317479	 0.12465
H	-0.2825571618	 0.2047026644	-2.1020937706	 0.117278
H	-0.8490227022	 1.8252570453	-1.6551122078	 0.110123
H	 0.4523664671	-0.193928412	 0.2456209	 0.084303
H	-0.7365946767	 2.185904099	 1.0740508887	 0.284712
H	-2.4353405489	 0.7487774643	-0.1450921673	 0.087595
H	-2.9754564628	-1.6755470119	-0.3428636544	 0.091711
H	-1.4236482314	-3.3186579771	 0.9432406395	 0.107648
H	-0.0874332931	-2.2811766422	 0.4196814568	 0.105898
H	-1.9259669994	-2.0683016928	 2.848248714	 0.087492
H	 0.4825544204	-0.2147463632	 2.429252811	 0.15015
H	-0.5698841718	-0.3167564011	 3.8346970602	 0.122341
H	 0.448029476	-1.6992778717	 3.4090640716	 0.109183
79.2757	111.9598	138.1918	174.1028	195.8691	235.3451	238.1605	305.635	339.2386	433.172	454.1645	510.3297	580.0944	703.5735	761.1251	762.0499	846.5036	868.4212	880.2703	928.0968	957.5549	999.6076	1014.3291	1067.3389	1081.6405	1100.4247	1104.211	1128.457	1138.3512	1164.8125	1197.2962	1250.6718	1262.6053	1275.3785	1303.6517	1346.5166	1361.9577	1394.892	1401.1004	1415.4111	1421.0169	1453.1995	1487.1473	1489.3237	1495.2272	1497.6532	1502.5896	3030.7805	3035.1104	3046.258	3052.6073	3071.9389	3083.1565	3094.4471	3103.4733	3113.8599	3122.168	3152.6183	3156.1238	3810.1092
CC(O)C1C2CC(C)N12	C[C@@H](O)[C@H]1[C@H]2C[C@@H](C)N12	
InChI=1S/C7H13NO/c1-4-3-6-7(5(2)9)8(4)6/h4-7,9H,3H2,1-2H3	InChI=1S/C7H13NO/c1-4-3-6-7(5(2)9)8(4)6/h4-7,9H,3H2,1-2H3/t4-,5-,6-,7+,8?/m1/s1
