20
gdb 118325	2.27773	1.0922	0.79321	6.0781	77.98	-0.2396	-0.0241	0.2155	1477.6509	0.16825	-440.336857	-440.326387	-440.325443	-440.373531	36.468	
C	 0.2902878008	 1.7455116587	-0.6915266679	-0.381913
C	 0.215346536	 0.2330379146	-0.4693912505	-0.17196
C	 0.9574130129	-0.5493547066	-1.5602808183	-0.187791
N	 0.9061153086	-2.0064901238	-1.3774175371	-0.125179
C	-0.1850697536	-2.6595959404	-1.9737179964	 0.160726
O	-0.4627899797	-3.8241278789	-1.9248218016	-0.264053
C	 1.8719071879	-2.7054069153	-0.6084724838	 0.407667
C	 3.0599529813	-1.8902317819	-0.1159780834	-0.511378
O	 1.777301718	-3.8820942157	-0.3716329811	-0.289743
H	 1.3270240968	 2.0997031512	-0.6797317765	 0.12031
H	-0.1449129298	 2.0281176494	-1.6563705436	 0.122377
H	-0.2537383144	 2.2847706395	 0.0886386465	 0.12678
H	 0.6306147744	-0.0257431478	 0.5118041443	 0.111589
H	-0.8308548617	-0.0954405424	-0.4522254882	 0.113583
H	 0.5146612188	-0.3215081819	-2.5358539001	 0.122975
H	 1.9984110194	-0.2282848184	-1.6215885645	 0.12405
H	-0.7935220792	-1.9248339367	-2.5415530969	 0.076312
H	 2.7600048709	-1.0211918688	 0.4756433331	 0.142098
H	 3.665094413	-2.5541398965	 0.5002172535	 0.155249
H	 3.6681831195	-1.5317328881	-0.9531365176	 0.148299
33.4731	73.259	98.7114	122.9474	200.3908	210.0543	228.3249	239.3715	302.6693	377.6266	401.9745	443.821	524.5777	594.6429	717.1319	736.0736	749.0098	877.593	899.6707	988.3009	1027.6151	1041.6525	1051.1332	1087.1347	1123.1705	1172.7497	1211.7668	1246.2918	1319.1008	1332.9203	1367.7541	1392.3489	1405.0576	1416.4141	1462.775	1470.5213	1484.6773	1492.4582	1499.5185	1504.4479	1517.6586	1789.2741	1867.3329	2906.2111	3031.7631	3034.059	3047.2213	3052.9894	3065.9695	3098.3611	3113.6384	3114.3516	3120.7404	3164.4151
CCCN(C=O)C(C)=O	CCCN(C=O)C(=O)C	
InChI=1S/C6H11NO2/c1-3-4-7(5-8)6(2)9/h5H,3-4H2,1-2H3	InChI=1S/C6H11NO2/c1-3-4-7(5-8)6(2)9/h5H,3-4H2,1-2H3
