20
gdb 56674	2.40867	1.29457	1.13428	4.8436	78.62	-0.274	0.0342	0.3081	1195.2259	0.169846	-403.157251	-403.147727	-403.146783	-403.191376	35.71	
C	 0.1132950851	 1.4328362866	-0.2155243786	-0.427063
C	-0.0861272949	-0.0845734085	-0.0361090164	-0.182061
C	 0.7360525671	-0.5761109747	 1.0755443586	 0.285512
N	 1.3943670034	-0.961767823	 1.9435644483	-0.330626
C	-1.574352087	-0.4793843576	 0.172353498	 0.41989
O	-2.1207608235	 0.161095689	 1.3013015624	-0.474697
C	-2.3974620618	-0.4200381288	-1.1546859881	-0.292733
C	-2.2383895981	-1.959421616	-1.2833822541	-0.217416
C	-1.8037057075	-2.0104939234	 0.206324307	-0.263947
H	 1.1581720567	 1.6631753247	-0.4347960221	 0.144374
H	-0.4990057193	 1.8021129106	-1.0431831758	 0.128654
H	-0.1570402019	 1.9725756692	 0.6962735569	 0.137182
H	 0.266162133	-0.5934327614	-0.9423009783	 0.12537
H	-2.1662929272	 1.1085295837	 1.133439148	 0.28118
H	-3.4278609875	-0.1306183286	-0.9344145421	 0.112172
H	-2.0193262275	 0.2028206843	-1.9697293248	 0.095742
H	-3.1309400196	-2.5240085148	-1.5568923212	 0.109491
H	-1.4332323526	-2.2411310364	-1.9670201125	 0.107316
H	-0.9514570874	-2.6369191749	 0.4776128952	 0.11957
H	-2.6371744295	-2.23630066	 0.8742853695	 0.122091
72.3953	125.2449	139.6196	214.4146	228.9646	244.9256	280.1252	328.667	368.4513	398.3711	466.9055	527.4527	579.4946	672.3086	741.557	787.0556	806.6278	875.9385	912.8017	938.299	975.755	1001.4606	1022.4045	1042.4625	1092.6358	1118.1253	1135.7413	1198.57	1200.5692	1251.9637	1267.9511	1279.9959	1290.2341	1310.1953	1333.4681	1369.3448	1407.8001	1469.7841	1485.9004	1493.257	1506.4333	1510.4691	2357.4573	3035.8235	3048.7217	3058.629	3068.5323	3077.0494	3109.7104	3122.2294	3124.3671	3129.8891	3137.5007	3809.9286
CC(C#N)C1(O)CCC1	C[C@@H](C#N)C1(O)CCC1	
InChI=1S/C7H11NO/c1-6(5-8)7(9)3-2-4-7/h6,9H,2-4H2,1H3	InChI=1S/C7H11NO/c1-6(5-8)7(9)3-2-4-7/h6,9H,2-4H2,1H3/t6-/m0/s1
