19
gdb 70034	3.20006	1.49665	1.3327	0.5093	73.9	-0.229	0.077	0.306	1014.2298	0.160897	-422.990638	-422.983143	-422.982199	-423.022248	30.264	
O	-0.1617336526	 1.4057941679	-0.0076875799	-0.467238
C	-0.066449097	 0.0240661869	 0.0106792421	 0.393346
C	-0.3169731285	-0.8200980625	-1.2063962162	-0.363743
C	-1.2080094508	-0.9798879781	 0.0128261361	-0.127279
C	-0.5171833845	-1.7891810923	 1.1290550634	-0.031274
C	 0.1762954875	-3.1145981426	 0.7994731185	-0.105616
O	 1.4404670842	-2.7730026612	 0.22553714	-0.252065
C	 1.9031472997	-1.5702714723	 0.8433614685	-0.109857
C	 0.6514092599	-0.7452915393	 1.1421524289	-0.109174
H	 0.5078594919	 1.7485489259	-0.6093910418	 0.285054
H	-0.7986094548	-0.267335673	-2.0079233012	 0.108568
H	 0.3625239885	-1.6013239799	-1.5268271516	 0.135537
H	-2.2744761602	-0.8020787946	-0.0506389321	 0.091623
H	-1.1043673529	-1.8336849716	 2.0472641055	 0.077409
H	 0.3215367086	-3.7091259984	 1.71614629	 0.088536
H	-0.3559855053	-3.7302404377	 0.0686600476	 0.11103
H	 2.4460450047	-1.8008892742	 1.7746453744	 0.088807
H	 2.6008140011	-1.0955966938	 0.1463130953	 0.104314
H	 0.7205816704	-0.1449728591	 2.0502453925	 0.082022
130.4588	222.1762	235.6663	267.5404	278.9028	377.4861	458.8405	488.7578	598.6914	672.3242	727.8609	762.0038	801.026	863.2884	889.7774	912.6368	925.2057	941.6952	988.3903	1003.259	1023.6454	1052.5499	1077.1997	1099.453	1108.2339	1113.2756	1151.4524	1195.4104	1218.2273	1235.6522	1267.3537	1268.1558	1309.3446	1320.6295	1331.1241	1349.6775	1397.2701	1411.4062	1496.233	1501.3283	1512.7239	2965.8186	2972.7868	3075.7228	3084.9299	3097.5788	3110.1656	3128.7148	3187.4807	3219.602	3796.4702
OC12CC1C1COCC21	O[C@]12C[C@H]1[C@H]1COC[C@@H]21	
InChI=1S/C7H10O2/c8-7-1-5(7)4-2-9-3-6(4)7/h4-6,8H,1-3H2	InChI=1S/C7H10O2/c8-7-1-5(7)4-2-9-3-6(4)7/h4-6,8H,1-3H2/t4-,5+,6-,7-/m1/s1
