19
gdb 94865	2.92641	1.77258	1.411	2.5648	75.4	-0.2359	0.076	0.3119	975.2523	0.159811	-422.940569	-422.933164	-422.93222	-422.972176	29.911	
C	-0.2742473899	 1.5919949449	-0.1169842432	-0.398434
C	-0.0060764118	 0.0973184216	 0.0025125984	 0.127986
O	 0.7263166151	-0.3541708861	-1.1817613945	-0.297672
C	 1.949152432	-1.0290550302	-0.8707308468	-0.19235
C	 2.1890710492	-0.6377899279	 0.5547616823	 0.396977
C	 2.8139919797	-0.9175643392	 1.9415268865	-0.30867
C	 1.9010698463	 0.3540348099	 2.0076336786	 0.019877
O	 2.5112492761	 0.8098269036	 0.7514800777	-0.334632
C	 0.8117201687	-0.410291691	 1.1976217882	-0.074087
H	 0.6618707016	 2.1496891104	-0.1125739911	 0.144454
H	-0.8107198122	 1.7982221234	-1.0476363632	 0.118945
H	-0.898960681	 1.9300258493	 0.7174890011	 0.103451
H	-0.965200071	-0.4366934338	-0.0059816253	 0.073451
H	 1.8443580787	-2.1201963457	-0.9679382626	 0.099406
H	 2.7239331612	-0.6797828362	-1.5601232861	 0.122234
H	 2.4996473269	-1.8188731618	 2.4731090154	 0.104295
H	 3.8807254842	-0.7118277482	 2.0289093222	 0.116262
H	 1.8032786666	 1.0785304839	 2.8167928651	 0.100033
H	 0.3639213694	-1.2692438068	 1.7034485572	 0.078476
100.1275	207.8468	248.564	276.085	332.8446	418.7291	455.9391	516.875	603.246	691.1669	736.1154	768.6677	796.0537	809.9126	875.87	897.6801	926.3276	971.6719	989.2917	1019.1692	1034.1634	1045.7736	1080.1644	1100.4266	1121.6724	1144.5267	1169.3687	1185.0485	1203.1835	1209.5878	1252.7967	1286.0398	1338.9124	1370.6205	1378.5363	1388.4568	1408.3722	1485.7286	1488.9277	1501.3118	1506.7856	2992.583	3009.8026	3041.5457	3066.3714	3079.8322	3079.9352	3105.8082	3112.9614	3156.4	3161.1396
CC1OCC23CC(O2)C13	C[C@H]1OC[C@@]23C[C@@H](O2)[C@@H]13	
InChI=1S/C7H10O2/c1-4-6-5-2-7(6,9-5)3-8-4/h4-6H,2-3H2,1H3	InChI=1S/C7H10O2/c1-4-6-5-2-7(6,9-5)3-8-4/h4-6H,2-3H2,1H3/t4-,5-,6-,7-/m1/s1
