18
gdb 5617	3.06529	1.7863	1.23453	1.0165	73.66	-0.2134	0.0281	0.2414	1014.5941	0.153886	-347.844986	-347.836741	-347.835797	-347.877852	30.158	
C	 0.0230636754	 1.5678883714	 0.0892510398	-0.368674
C	-0.0542567095	 0.0369910452	-0.046800576	-0.302009
C	 0.6805199587	-0.4989619786	-1.2411476877	 0.167215
C	 0.1372822233	-0.9299161092	-2.4107929075	-0.104183
O	 1.0990761806	-1.3365997666	-3.2812557605	-0.148155
C	 2.28894657	-1.1617485421	-2.6465033879	-0.09497
C	 2.1110408198	-0.6538501255	-1.3984274447	 0.159274
C	 3.1759196567	-0.3406227867	-0.3931878575	-0.508613
H	 1.058392958	 1.9090436625	 0.186362259	 0.120721
H	-0.4050039641	 2.0573277176	-0.7908942994	 0.120504
H	-0.5264624005	 1.9094440183	 0.9723692255	 0.110807
H	 0.3422261379	-0.4246981305	 0.8667066116	 0.103517
H	-1.1059896534	-0.2652267772	-0.1070371674	 0.103417
H	-0.8789074128	-1.0132132948	-2.761601584	 0.129269
H	 3.165880252	-1.4474832338	-3.204934878	 0.129035
H	 3.2306145379	 0.7319361482	-0.1734909244	 0.130452
H	 2.9936832104	-0.8523154458	 0.5590726081	 0.127974
H	 4.1599558296	-0.6534680524	-0.7536062889	 0.124417
66.3538	138.8322	159.4151	189.97	257.7015	263.3684	395.6092	402.3989	607.2154	621.7405	674.8567	693.4074	748.8093	774.1468	790.0151	892.6713	966.0571	1012.4999	1062.1146	1065.7894	1087.0417	1089.3528	1182.7613	1186.5374	1252.572	1289.1518	1309.1126	1360.2881	1398.39	1407.1748	1421.9884	1480.2991	1484.9597	1496.2567	1498.0238	1506.3592	1582.6039	1653.5041	3021.7474	3026.3258	3036.0734	3059.9413	3074.4994	3105.8149	3107.8523	3111.8682	3264.7212	3270.0444
CCC1=COC=C1C	CCc1cocc1C	
InChI=1S/C7H10O/c1-3-7-5-8-4-6(7)2/h4-5H,3H2,1-2H3	InChI=1S/C7H10O/c1-3-7-5-8-4-6(7)2/h4-5H,3H2,1-2H3
