18
gdb 43415	2.44547	1.74709	1.19597	5.5626	80.19	-0.2143	-0.0229	0.1914	1049.3607	0.150845	-401.965911	-401.958333	-401.957389	-401.997823	29.956	
O	 0.0509408827	-0.0839523686	-0.0550839268	-0.367125
C	 0.0541743995	 1.1379975124	 0.0086192153	 0.348567
C	-1.2086897456	 1.8590287187	 0.2058052502	-0.197081
C	-1.5003770745	 3.1785021198	 0.1391227744	 0.001264
N	-0.7041006913	 4.2317092444	-0.2135712296	-0.293118
C	 0.4538043683	 4.1025508806	-1.0876906081	-0.197858
C	 1.5876872399	 3.2644170171	-0.5291294151	-0.022425
C	 1.7271294235	 2.9690572802	 0.928553629	-0.304469
C	 1.3768408907	 1.8453885136	-0.0428837859	-0.113145
H	-2.0294617752	 1.1961904214	 0.4561402069	 0.099078
H	-2.5080212428	 3.4852458969	 0.411351146	 0.113112
H	-1.1818153359	 5.1140348798	-0.2880334588	 0.249865
H	 0.1514559265	 3.6861020417	-2.0623737511	 0.115743
H	 0.8221079791	 5.1177606408	-1.2672413503	 0.113015
H	 2.50763587	 3.4057782738	-1.0906011872	 0.09664
H	 2.715533881	 2.9545923206	 1.3733724903	 0.119965
H	 0.9385620504	 3.3143328716	 1.5871605828	 0.135719
H	 2.1715704238	 1.1417223852	-0.264115392	 0.102254
101.9526	177.8521	235.9595	279.2368	340.6652	402.2751	451.2162	478.6212	516.5079	621.0678	703.5208	721.6752	759.729	823.4599	858.647	872.2639	922.8375	939.3133	985.7084	988.6328	1023.6501	1064.8168	1073.946	1140.3405	1147.7986	1163.9761	1217.422	1294.5693	1305.5131	1327.1847	1371.6697	1383.9968	1418.4223	1445.7742	1487.1544	1492.0136	1538.7539	1689.6579	1720.6392	2972.1716	3068.7303	3139.7514	3143.6724	3151.67	3176.4221	3195.9788	3231.5643	3644.9142
O=C1C=CNCC2CC12	O=C1C=CNC[C@H]2C[C@@H]12	
InChI=1S/C7H9NO/c9-7-1-2-8-4-5-3-6(5)7/h1-2,5-6,8H,3-4H2	InChI=1S/C7H9NO/c9-7-1-2-8-4-5-3-6(5)7/h1-2,5-6,8H,3-4H2/t5-,6-/m1/s1
