18
gdb 65168	2.73126	1.22615	1.08364	3.1285	76.61	-0.2547	0.0124	0.2671	1178.8439	0.14796	-398.086861	-398.078088	-398.077144	-398.120759	32.663	
C	 0.2724850203	-0.4378847961	-1.0362721001	-0.485058
C	-0.0231778381	 0.5376216343	 0.0824187715	 0.314107
C	 1.0790253304	 0.9787911733	 0.9790742056	-0.265975
N	 0.518076346	 1.9117232326	-0.0134005181	-0.354176
C	-1.4145908875	 0.5376534844	 0.6598458255	-0.047449
N	-2.4833723021	-0.146236878	-0.062387294	-0.324198
C	-2.0949020651	-0.6571523307	 1.266199518	-0.198119
C	-1.4923395864	-1.9672568721	 1.3227384101	 0.341116
N	-1.0082148116	-3.0138157766	 1.409824541	-0.343153
H	 1.312452127	-0.330052755	-1.3604913845	 0.108434
H	 0.1261515813	-1.474390982	-0.7219912017	 0.157302
H	-0.3844385929	-0.2552948828	-1.8912175448	 0.137021
H	 0.8749892334	 1.2379436813	 2.0148985225	 0.116488
H	 2.0647162557	 0.5543596342	 0.8085409363	 0.119231
H	 1.1376386647	 1.978884514	-0.817351968	 0.232239
H	-1.652957746	 1.4797995906	 1.1498339641	 0.109334
H	-3.3649101554	 0.3549195037	 0.0017586558	 0.249884
H	-2.7515957339	-0.4569802452	 2.109229411	 0.132972
42.2292	119.3119	190.1816	206.8691	259.8091	262.6875	353.6513	365.3134	431.2572	483.9083	580.3985	627.9141	709.3717	809.5335	831.6799	864.0582	897.3188	936.6199	953.0561	975.3196	989.732	1013.1544	1057.379	1098.0186	1121.0465	1149.8099	1184.6124	1211.813	1239.7196	1267.6088	1326.2604	1365.9643	1408.0009	1424.5477	1456.9823	1483.4853	1503.6161	1516.3027	2357.0437	3042.662	3106.8663	3113.4873	3125.6969	3130.997	3143.3891	3191.1793	3499.2686	3517.6002
CC1(CN1)C1NC1C#N	C[C@]1(CN1)[C@H]1N[C@H]1C#N	
InChI=1S/C6H9N3/c1-6(3-8-6)5-4(2-7)9-5/h4-5,8-9H,3H2,1H3	InChI=1S/C6H9N3/c1-6(3-8-6)5-4(2-7)9-5/h4-5,8-9H,3H2,1H3/t4-,5-,6-/m0/s1
