18
gdb 53293	2.72439	0.89779	0.72913	2.6667	82.31	-0.2372	0.0372	0.2744	1573.3333	0.145918	-401.868697	-401.859123	-401.858179	-401.905563	33.24	
C	 0.0715956451	 1.5203160121	-0.2603957535	-0.500257
C	 0.013520403	 0.0713257271	-0.1381348068	 0.102659
C	-0.0314865421	-1.1269980289	-0.0243439969	 0.126795
C	-0.0717270756	-2.5612531615	 0.0695826479	-0.269602
N	-0.259674171	-3.1663424654	 1.4097059288	-0.32965
C	-1.3188149455	-3.3239039727	 0.4086513869	-0.035337
C	-2.6104037267	-2.6362055036	 0.6933343169	 0.09526
C	-3.7745070358	-2.812066672	-0.1827203923	-0.181467
O	-3.6993050338	-3.4850978784	 1.0743410544	-0.23829
H	 0.9553933924	 1.835058164	-0.8261956086	 0.150237
H	-0.8108055591	 1.9152136578	-0.7761080019	 0.148211
H	 0.1220676804	 1.9972985865	 0.7245709859	 0.153553
H	 0.6066597305	-3.0750908146	-0.6094842418	 0.107302
H	 0.2924743959	-4.0167620353	 1.4840984907	 0.238711
H	-1.4351273589	-4.294214695	-0.0716594732	 0.093906
H	-2.521140073	-1.7194945248	 1.2730038912	 0.11138
H	-4.5207780118	-2.0220353916	-0.2518718223	 0.116723
H	-3.696801884	-3.4521840138	-1.0612920554	 0.109866
18.9926	50.1233	76.2596	130.3143	189.1261	245.2721	312.305	328.9866	386.8281	460.7643	537.9373	594.0669	719.3623	821.3163	857.2764	879.1904	894.3873	923.3433	974.421	1026.4425	1051.8385	1052.9666	1095.8764	1103.0595	1149.1771	1155.1226	1168.4997	1208.2366	1227.6928	1264.6271	1285.4919	1346.0328	1413.9674	1421.6045	1476.693	1477.8999	1485.3507	1533.1248	2371.4996	3027.1668	3080.372	3087.3342	3089.9265	3113.5843	3124.0323	3139.2113	3166.9409	3506.7439
CC#CC1NC1C1CO1	CC#C[C@H]1N[C@H]1[C@H]1CO1	
InChI=1S/C7H9NO/c1-2-3-5-7(8-5)6-4-9-6/h5-8H,4H2,1H3	InChI=1S/C7H9NO/c1-2-3-5-7(8-5)6-4-9-6/h5-8H,4H2,1H3/t5-,6-,7-/m1/s1
