16
gdb 45657	3.14206	1.72947	1.13108	3.6932	80.3	-0.202	-0.034	0.168	1020.5959	0.126688	-400.809727	-400.8028	-400.801856	-400.841087	27.17	
O	 0.0774323346	 0.0017614439	 0.0012170358	-0.383705
C	 0.014941938	 1.2105798375	 0.0096323942	 0.386717
C	-1.2385599382	 2.1201556886	 0.032435134	-0.384832
C	-0.6863615318	 3.5281271579	 0.0321924421	-0.293935
C	 0.6521620588	 3.4343097758	 0.0121913077	 0.418266
C	 1.8653498367	 4.2331365425	-0.001692222	-0.210994
C	 2.9305319337	 3.4141390065	-0.0221496103	-0.084723
C	 2.5169108344	 1.9566866991	-0.0237277187	-0.236733
N	 1.0728966044	 2.0884448837	-0.0009950151	-0.119845
H	-1.8657886163	 1.8908583025	-0.8376547717	 0.143758
H	-1.8405282961	 1.8813000099	 0.9176670854	 0.143701
H	-1.2726614037	 4.4334097934	 0.045442074	 0.105785
H	 1.8832718044	 5.3136903064	 0.0037940792	 0.1215
H	 3.9690363549	 3.7180158402	-0.0361973225	 0.119134
H	 2.8669675881	 1.4172644337	-0.9150195659	 0.137957
H	 2.8938762383	 1.4077793786	 0.8506342137	 0.137947
115.6077	180.1537	239.8957	294.1591	396.7761	548.848	553.3146	621.3765	658.544	658.903	691.7862	758.4073	786.883	851.129	942.3347	943.1681	960.4044	972.7587	1018.4041	1022.4362	1074.2449	1138.6649	1141.3799	1185.3658	1227.833	1258.0535	1288.0789	1362.9827	1368.555	1399.3465	1438.4235	1504.0614	1620.6776	1707.6656	1822.5976	3004.9231	3025.4373	3037.7879	3067.669	3220.8689	3245.8521	3253.932
O=C1CC=C2C=CCN12	O=C1CC=C2C=CCN12	
InChI=1S/C7H7NO/c9-7-4-3-6-2-1-5-8(6)7/h1-3H,4-5H2	InChI=1S/C7H7NO/c9-7-4-3-6-2-1-5-8(6)7/h1-3H,4-5H2
