14
gdb 23648	3.88612	1.78508	1.23253	3.482	66.18	-0.2554	-0.0253	0.2301	916.5547	0.107978	-386.762176	-386.755341	-386.754397	-386.794262	24.979	
C	-0.0143961534	 1.5223117396	 0.0123197541	-0.494262
C	 0.0043984695	 0.0163872402	 0.0134721154	 0.336487
C	 0.0799190865	-0.7093925451	-1.1840315325	-0.198518
C	 0.0946221685	-2.0937746338	-1.1356712987	 0.007682
N	 0.0402897612	-2.7996707895	 0.0038752938	-0.323818
C	-0.0298915976	-2.1010586625	 1.1111640953	 0.359359
F	-0.0839971704	-2.7980977196	 2.2445552812	-0.074846
C	-0.0521378845	-0.7106843779	 1.197422634	-0.354158
H	 0.8890170126	 1.9243258723	-0.4589174699	 0.142457
H	-0.8690263415	 1.9023259107	-0.557783428	 0.142436
H	-0.0764229822	 1.924083157	 1.0263027426	 0.131813
H	 0.1264610778	-0.1977433515	-2.1392871432	 0.097244
H	 0.1526827579	-2.6772950745	-2.0506427173	 0.117096
H	-0.1119199544	-0.2291017953	 2.1661772832	 0.111027
29.1779	204.2824	229.878	296.305	463.8846	466.5279	518.0286	573.1342	606.2327	762.8816	769.7558	848.1961	891.5848	964.2091	986.1392	1003.9524	1025.8956	1061.3961	1136.3924	1178.0582	1298.1168	1322.9797	1340.9599	1411.0636	1442.0798	1482.2581	1491.9061	1517.6372	1614.2328	1647.3628	3037.3012	3093.4619	3124.4733	3163.294	3191.6318	3202.2733
CC1=CC=NC(F)=C1	Cc1ccnc(F)c1	
InChI=1S/C6H6FN/c1-5-2-3-8-6(7)4-5/h2-4H,1H3	InChI=1S/C6H6FN/c1-5-2-3-8-6(7)4-5/h2-4H,1H3
