16
gdb 123944	3.60832	1.64003	1.17206	5.7901	70.39	-0.226	0.0111	0.2371	997.2059	0.128369	-434.069364	-434.062692	-434.061748	-434.100594	25.883	
C	-0.0229286442	 1.5097030923	-0.0116505427	-0.242413
C	 1.3988573998	 2.0689722525	 0.0102327694	-0.087424
O	 2.101136057	 1.6823554165	 1.2034387351	-0.271922
C	 1.9561612416	 0.3894500334	 1.541317269	 0.411259
C	 2.6314446991	-0.4050369407	 2.4395230079	-0.192598
N	 2.0488717544	-1.6360617839	 2.4234078771	-0.183959
N	 1.0634663527	-1.6537926473	 1.5737883594	-0.175671
N	 0.9917833915	-0.4102969471	 1.026010157	-0.021841
C	 0.0154396231	-0.0227234475	 0.0256437133	-0.152619
H	-0.5733369486	 1.8948814168	 0.8530951584	 0.134258
H	-0.538079813	 1.8490547064	-0.9145197813	 0.124121
H	 1.9654870968	 1.7206292218	-0.8647238667	 0.119632
H	 1.4040615553	 3.1599812294	 0.0159400786	 0.132038
H	 3.466162978	-0.1629695892	 3.0744962221	 0.125294
H	-0.9514530432	-0.4523359995	 0.2965306984	 0.147494
H	 0.3053928797	-0.4321716541	-0.9490702551	 0.13435
104.3832	180.4038	302.7457	343.6834	395.7034	464.3097	529.7283	675.5377	701.2276	717.1936	720.5695	807.4706	882.8302	897.3522	937.5634	983.5152	1015.839	1067.5534	1116.1907	1132.6954	1167.3717	1214.1063	1228.7686	1272.9163	1299.1552	1313.5255	1348.3816	1365.782	1382.4317	1416.0716	1476.8487	1492.2985	1505.3305	1531.5476	1618.544	3014.0454	3040.2135	3057.295	3105.9148	3113.7151	3122.9531	3283.8782
C1COC2=CN=NN2C1	C1COc2cnnn2C1	
InChI=1S/C5H7N3O/c1-2-8-5(9-3-1)4-6-7-8/h4H,1-3H2	InChI=1S/C5H7N3O/c1-2-8-5(9-3-1)4-6-7-8/h4H,1-3H2
