18
gdb 33535	2.34567	1.53048	1.16862	2.482	77.94	-0.2455	0.0304	0.2759	1110.5499	0.146114	-401.849105	-401.840387	-401.839443	-401.883006	32.364	
C	-0.0434252689	-1.3171851087	 0.1052828619	-0.488419
C	-0.0268347168	-0.1138297636	 0.1066595684	 0.293871
C	-0.031368251	 1.3446124173	 0.0851348033	 0.102379
C	-0.0487238541	 2.0362230168	 1.4805038858	-0.094556
O	 1.2306413231	 2.6493631435	 1.2527334834	-0.264691
C	 1.3680368524	 2.0183338339	-0.0308250473	-0.094557
N	-0.993383818	 1.9675010363	-0.8240471911	-0.115938
C	-1.2802249293	 1.3270844833	-2.105885512	-0.235526
C	-2.2985773552	 1.3399806327	-1.0195441921	-0.235526
H	-0.0432210913	-2.3795145705	 0.1180360579	 0.20259
H	-0.8539835468	 2.7707181874	 1.5877217229	 0.112236
H	-0.0365783014	 1.3542748981	 2.3378339141	 0.105911
H	 2.2162476126	 1.3258294967	-0.0653616808	 0.105912
H	 1.4316834583	 2.741858256	-0.850508729	 0.112236
H	-1.3611618451	 2.0045757692	-2.9505785237	 0.120257
H	-0.8099482201	 0.3700629536	-2.3184493199	 0.126782
H	-2.4916328679	 0.3913554441	-0.5244948219	 0.12678
H	-3.1386569806	 2.0270767041	-1.0544324999	 0.120258
63.0097	77.6678	147.6793	177.6087	235.7006	298.5125	371.9166	446.4203	513.7485	560.7302	599.3401	631.4002	656.6283	779.9141	827.2797	851.0454	901.0809	964.7694	972.1095	994.3297	1016.3428	1052.22	1089.0801	1113.3686	1129.8202	1146.9013	1161.8655	1166.6804	1179.1106	1182.0247	1240.5829	1310.768	1321.0222	1376.7928	1484.5098	1497.7731	1511.1833	1523.6057	2219.8726	3023.5515	3033.8568	3084.5515	3086.3518	3108.8799	3111.0399	3191.7159	3204.9994	3497.1652
C#CC1(COC1)N1CC1	C#CC1(COC1)N1CC1	
InChI=1S/C7H9NO/c1-2-7(5-9-6-7)8-3-4-8/h1H,3-6H2	InChI=1S/C7H9NO/c1-2-7(5-9-6-7)8-3-4-8/h1H,3-6H2
