19
gdb 99303	4.16716	0.86583	0.79075	2.7677	73.82	-0.2377	0.0561	0.2937	1496.8141	0.159546	-456.357632	-456.347904	-456.34696	-456.393421	33.894	
C	 0.686690477	 0.9808100555	 0.3260013992	-0.329429
N	 0.0313531279	-0.177582372	-0.2422165575	-0.349259
C	 0.6105945208	-0.9529712724	-1.1908869364	 0.536246
O	 1.7031317495	-0.7606710969	-1.6900617391	-0.423887
O	-0.2206619947	-1.9776776505	-1.5149937745	-0.280091
C	 0.2639896374	-2.8783279083	-2.531670584	-0.107136
C	 1.0930519799	-3.9948967804	-1.9550417815	 0.008913
C	 2.2336765613	-4.5205620126	-2.7509187919	-0.24143
N	 2.4776342686	-3.7438274287	-1.531641626	-0.311868
H	 0.8273508237	 0.8699252823	 1.4069973094	 0.129024
H	 1.6634488639	 1.0721580078	-0.1498159096	 0.171447
H	 0.114440475	 1.8964636131	 0.1390169541	 0.127305
H	-0.8781358405	-0.4572943243	 0.084701005	 0.255676
H	-0.6409858926	-3.2699826173	-3.00480535	 0.113833
H	 0.8398185823	-2.3072335103	-3.2645693701	 0.125404
H	 0.5492443284	-4.6771903174	-1.3042913643	 0.092601
H	 2.4936570098	-5.5737604403	-2.6916798776	 0.116931
H	 2.4327195516	-4.0613205133	-3.7168134323	 0.111604
H	 2.7204195804	-2.7811506539	-1.759385853	 0.254115
55.7132	81.8434	89.3502	100.7656	141.9049	226.4769	264.5226	346.1464	372.2481	442.0416	480.2495	590.9107	687.7923	779.918	803.1763	838.7032	909.1527	934.2472	962.0055	1014.2441	1023.5031	1073.8944	1127.6385	1150.1928	1159.9799	1170.271	1178.259	1233.8238	1256.1766	1268.9237	1302.9233	1338.3806	1383.7805	1435.1678	1447.7273	1476.8825	1498.373	1501.0133	1514.1537	1572.6727	1795.245	3027.7325	3059.5966	3078.6584	3102.5075	3110.5606	3130.1589	3156.2085	3186.888	3491.6825	3658.247
CNC(=O)OCC1CN1	CNC(=O)OC[C@H]1CN1	
InChI=1S/C5H10N2O2/c1-6-5(8)9-3-4-2-7-4/h4,7H,2-3H2,1H3,(H,6,8)	InChI=1S/C5H10N2O2/c1-6-5(8)9-3-4-2-7-4/h4,7H,2-3H2,1H3,(H,6,8)/t4-/m1/s1
