19
gdb 56728	2.24985	1.2313	1.13475	2.6197	81.69	-0.2467	-0.024	0.2226	1217.6746	0.156009	-385.858369	-385.848596	-385.847652	-385.892997	35.982	
C	 0.4242110673	 1.341064003	-0.2487694201	-0.394944
C	 0.1468570428	-0.1383498332	 0.0961958966	-0.272218
C	 0.7825377816	-0.5178217878	 1.3600772804	 0.329685
C	 1.2984169008	-0.8156421788	 2.4044625414	-0.463927
C	-1.3519760233	-0.4531216219	 0.1103221973	 0.274338
C	-2.0640737103	-0.7013454543	-1.2103185785	-0.305092
C	-1.8208583117	-1.8491895988	-0.2907851021	-0.290705
C	-2.1688610322	 0.1922026911	 1.1779143182	 0.095341
O	-3.3748825447	 0.1315969451	 1.2390945291	-0.277808
H	 1.499416584	 1.5303350835	-0.2976367508	 0.130067
H	-0.0213294608	 1.5902457193	-1.2160357283	 0.122932
H	 0.0004425132	 2.0079744084	 0.5074309902	 0.131267
H	 0.593848936	-0.7523579935	-0.6970786095	 0.108081
H	 1.7565525854	-1.0866871844	 3.3234441203	 0.200045
H	-3.0750110981	-0.3165971358	-1.2797008365	 0.142024
H	-1.4670289055	-0.6209387287	-2.1124953212	 0.117994
H	-1.0479843357	-2.5682706546	-0.5395098735	 0.123838
H	-2.6666723933	-2.2440246367	 0.2597668637	 0.140689
H	-1.5857599554	 0.735428278	 1.9513212732	 0.088392
61.6608	108.113	135.4547	191.795	209.0222	233.933	264.6887	304.0813	324.9089	419.0258	474.9643	551.9261	630.4147	639.7257	655.4774	736.3463	794.7268	837.8451	847.4952	931.7906	956.0285	994.1281	1027.7925	1056.7279	1067.3523	1093.3943	1101.2617	1119.283	1204.2897	1256.9691	1289.535	1323.7701	1370.0544	1409.3197	1435.9734	1453.6079	1484.7005	1492.061	1500.1134	1804.8868	2232.8229	2908.626	3012.9693	3045.2375	3119.8906	3125.7396	3135.4648	3138.8468	3224.6594	3238.4043	3502.8949
CC(C#C)C1(CC1)C=O	C[C@@H](C#C)C1(CC1)C=O	
InChI=1S/C8H10O/c1-3-7(2)8(6-9)4-5-8/h1,6-7H,4-5H2,2H3	InChI=1S/C8H10O/c1-3-7(2)8(6-9)4-5-8/h1,6-7H,4-5H2,2H3/t7-/m0/s1
