19
gdb 115558	2.4657	1.14373	1.00126	1.1519	78.13	-0.2551	0.0337	0.2889	1277.3853	0.156469	-422.96915	-422.959259	-422.958315	-423.003846	36.68	
O	-0.0634680227	 1.4352015322	-0.200392416	-0.428198
C	 0.0410760895	 0.0364307816	 0.0420327494	-0.102445
C	-1.3642047679	-0.5264520899	-0.0138304756	 0.019041
C	-2.1160777269	-0.5931367084	-1.369290157	-0.237359
C	-2.6769146078	-1.9777190594	-0.9494196894	-0.26808
C	-1.5469938154	-2.0720921836	 0.1299330949	 0.186093
O	-0.3776710003	-2.7066878613	-0.3824019437	-0.467153
C	-1.9045271663	-2.6066673114	 1.4373314637	 0.276384
C	-2.210866816	-3.0724325137	 2.5034327614	-0.456416
H	 0.8267894865	 1.7937888836	-0.2572812179	 0.28603
H	 0.6694034319	-0.4578107493	-0.7104155269	 0.102301
H	 0.4839796815	-0.1681784946	 1.0299434703	 0.090768
H	-1.9815048651	-0.0241027489	 0.7361384665	 0.092272
H	-2.8379788931	 0.1979794681	-1.574331061	 0.105035
H	-1.4234765058	-0.6680266257	-2.210994296	 0.11085
H	-3.666585366	-1.9116977353	-0.4917508894	 0.111774
H	-2.6710443579	-2.7817676884	-1.689067495	 0.099488
H	-0.5210693157	-3.6582420616	-0.3361152529	 0.283453
H	-2.4771655325	-3.474153214	 3.4498962246	 0.196162
72.4658	101.5232	146.92	159.7207	200.5317	250.2896	280.6152	305.0215	372.5767	387.0525	463.9451	521.2593	591.4618	600.5368	626.215	659.8811	748.584	793.1303	904.8489	913.3905	945.8962	983.2592	1003.3957	1065.0844	1097.3054	1123.6007	1138.053	1165.0129	1209.4404	1242.4771	1257.192	1260.4269	1277.0419	1294.754	1351.6622	1377.4266	1459.0024	1468.0582	1490.972	1524.0564	2226.9519	2975.7212	3032.4406	3063.9196	3074.3897	3078.593	3119.8271	3137.2524	3500.2054	3807.4933	3830.9975
OCC1CCC1(O)C#C	OC[C@H]1CC[C@]1(O)C#C	
InChI=1S/C7H10O2/c1-2-7(9)4-3-6(7)5-8/h1,6,8-9H,3-5H2	InChI=1S/C7H10O2/c1-2-7(9)4-3-6(7)5-8/h1,6,8-9H,3-5H2/t6-,7-/m1/s1
