13
gdb 48424	2.1735	1.71606	1.25263	2.1484	63.35	-0.2837	-0.0772	0.2065	992.2451	0.088495	-452.761993	-452.7541	-452.753156	-452.795405	27.425	
O	-0.7805279503	 0.7584036519	 0.5541609592	-0.211269
C	 0.1436388426	 0.8579525074	-0.1989613136	 0.134828
C	 1.3230221803	 1.8439286269	 0.0243783726	 0.129829
C	 1.3788252675	 2.4287590313	 1.4699827616	-0.239431
N	 2.5671318966	 1.8101346236	 2.0656568288	-0.236215
C	 3.0998413563	 1.104906639	 1.1667315867	 0.121921
O	 2.5264605637	 1.0441712238	-0.0775090158	-0.250712
C	 1.3113946363	 2.8454820651	-1.041015789	 0.24905
N	 1.2493187617	 3.6358136415	-1.8819510331	-0.31045
H	 0.2594606357	 0.2353066707	-1.1072328071	 0.132148
H	 1.4739919161	 3.5168234972	 1.4743557492	 0.150735
H	 0.4736842709	 2.1537385105	 2.0173386033	 0.165301
H	 4.0017322227	 0.5121264911	 1.2600690774	 0.164265
56.4026	85.4659	169.7215	181.1508	256.1142	361.9424	479.151	494.8864	525.2044	559.1357	661.8772	795.8471	885.751	920.2835	949.1914	960.2956	981.1372	1045.4143	1096.0666	1128.249	1159.7024	1243.8028	1312.7462	1330.6466	1398.4298	1493.9899	1722.9545	1849.5061	2354.9347	2955.3048	3074.3399	3120.7061	3234.2474
O=CC1(CN=CO1)C#N	O=C[C@]1(CN=CO1)C#N	
InChI=1S/C5H4N2O2/c6-1-5(3-8)2-7-4-9-5/h3-4H,2H2	InChI=1S/C5H4N2O2/c6-1-5(3-8)2-7-4-9-5/h3-4H,2H2/t5-/m1/s1
