19
gdb 118809	2.42613	1.07789	0.85259	4.0424	78.02	-0.2427	0.0294	0.2721	1396.9563	0.158124	-419.188604	-419.178659	-419.177715	-419.223804	35.578	
C	 0.0727493187	 1.3654005123	-0.0849875256	-0.230842
O	 0.293388006	-0.0275107854	-0.0999425333	-0.246816
C	 0.4786983857	-0.5694369279	 1.1932836795	-0.106643
C	 0.5699987958	-2.0688792624	 1.0393256915	 0.304653
N	-0.655515502	-2.6171976077	 0.5136530193	-0.565909
C	 1.9138380447	-2.6831463739	 0.7520327604	-0.323015
C	 1.2688858094	-2.8718207951	 2.1275693131	-0.221278
C	 1.8338372838	-2.2361168443	 3.2832565319	 0.296322
N	 2.2889474384	-1.7155923985	 4.211673381	-0.349337
H	 0.9292129736	 1.9068901591	 0.3448484036	 0.112608
H	-0.0641104417	 1.6844487429	-1.1207158157	 0.130116
H	-0.8262514743	 1.6285156768	 0.4930513009	 0.112469
H	 1.3884140526	-0.1673163601	 1.6624406466	 0.10751
H	-0.3760648582	-0.3198100216	 1.8414642035	 0.109551
H	-0.8910351204	-2.0963091141	-0.3271826581	 0.247013
H	-0.5360553331	-3.5874632575	 0.2399188896	 0.228397
H	 1.9559246806	-3.5616873485	 0.1171822365	 0.121472
H	 2.7859501411	-2.0413736268	 0.7003548608	 0.139315
H	 0.8331619092	-3.8448321671	 2.3318944646	 0.134413
78.1801	91.4617	107.2568	148.8045	202.7925	224.8883	242.1007	314.3234	344.1369	383.4364	439.3147	449.8446	553.8727	620.5155	749.5052	812.6382	854.4412	905.9464	945.413	959.0528	995.9121	1025.3672	1065.0628	1072.1033	1119.411	1152.5418	1169.7133	1184.2034	1226.373	1247.8619	1307.1708	1371.7809	1402.3542	1446.5911	1481.2562	1485.2463	1486.9224	1500.9609	1519.9238	1648.961	2347.9573	2975.3374	2985.5927	3023.163	3027.9632	3119.2394	3135.544	3162.8106	3228.822	3491.2627	3572.9642
COCC1(N)CC1C#N	COC[C@@]1(N)C[C@H]1C#N	
InChI=1S/C6H10N2O/c1-9-4-6(8)2-5(6)3-7/h5H,2,4,8H2,1H3	InChI=1S/C6H10N2O/c1-9-4-6(8)2-5(6)3-7/h5H,2,4,8H2,1H3/t5-,6-/m0/s1
