20
gdb 120522	5.73286	0.67328	0.64625	4.7687	81.45	-0.2662	0.029	0.2953	1738.6423	0.170514	-403.143421	-403.133854	-403.132909	-403.178801	33.941	
C	-0.3145786088	 1.4645469971	-0.5901937021	-0.229482
O	-0.0928185575	 0.1254707898	-0.2149327714	-0.231562
C	 0.7554312855	-0.5655444098	-1.1022977699	-0.060277
C	 0.916900283	-1.9899807674	-0.5987508305	-0.015521
C	-0.3764518921	-2.8448902881	-0.7042728904	-0.230357
C	 0.1928589575	-3.4998534116	-2.0056216694	-0.12926
C	 1.6013862988	-2.9358435478	-1.6255732578	-0.25543
C	 0.0567417386	-4.936816784	-2.1649958315	 0.261296
N	-0.0411932277	-6.0842997139	-2.2722233292	-0.327152
H	 0.6227853186	 2.0422173871	-0.6150190463	 0.106527
H	-0.7881918717	 1.537981839	-1.5821248312	 0.104962
H	-0.9820474673	 1.9063527206	 0.1533022565	 0.131182
H	 0.33088164	-0.5581169068	-2.1234699033	 0.080587
H	 1.7418130648	-0.0732334825	-1.1644302097	 0.089561
H	 1.3724579249	-1.9630868416	 0.3933883794	 0.089172
H	-0.4665573527	-3.5714443549	 0.1048931326	 0.12526
H	-1.3175486112	-2.3022351729	-0.8030286032	 0.12447
H	-0.2000519226	-3.0102256971	-2.9005896753	 0.12374
H	 2.1685707198	-2.4741783253	-2.4375543073	 0.113645
H	 2.2239336402	-3.6933070899	-1.14679012	 0.128638
48.5601	87.4556	100.945	140.9724	200.2662	214.0294	242.4142	329.7455	383.0363	467.6237	540.8667	549.8553	631.6319	820.8256	840.7248	889.1491	925.045	947.2184	969.4785	1012.131	1035.2222	1084.1508	1106.6673	1136.322	1161.043	1181.1392	1212.5296	1225.1817	1238.304	1244.1367	1261.7405	1277.1506	1290.2613	1346.1291	1364.7121	1425.9559	1477.348	1481.9318	1486.1698	1496.2986	1503.4268	1525.8199	2351.7216	2932.0161	2963.7478	2972.2418	3015.7902	3070.5372	3074.1137	3081.7282	3089.1989	3117.5917	3131.9665	3142.6469
COCC1CC(C1)C#N	COC[C@H]1C[C@@H](C1)C#N	
InChI=1S/C7H11NO/c1-9-5-7-2-6(3-7)4-8/h6-7H,2-3,5H2,1H3	InChI=1S/C7H11NO/c1-9-5-7-2-6(3-7)4-8/h6-7H,2-3,5H2,1H3/t6-,7-
