18
gdb 40533	4.65394	1.11488	1.04801	0.8746	77.32	-0.2309	0.0203	0.2511	1194.9258	0.149221	-401.936944	-401.929502	-401.928558	-401.969507	29.015	
C	-0.043660275	 1.4978104975	 0.0194455095	-0.252769
C	 1.2610746976	 0.7712973261	-0.0589961854	-0.256179
C	-0.0230043328	-0.0218711727	 0.0755367147	-0.115273
C	-0.3099866547	-0.6877127271	 1.3545032603	 0.417538
N	 0.1170606518	-0.3576040834	 2.5132238981	-0.332352
C	-0.4921186744	-1.2683888285	 3.4496355408	-0.017507
C	-2.0071723619	-1.2355915121	 3.5277164129	-0.320418
C	-1.3331276811	-2.2099529896	 2.6057948379	 0.054986
O	-1.1347285252	-1.7781382016	 1.2696914695	-0.251048
H	-0.2810370722	 2.0055099009	 0.9467819908	 0.135575
H	-0.444419711	 1.9557688635	-0.877868122	 0.117661
H	 1.774868017	 0.721744524	-1.0121739603	 0.117115
H	 1.8995478094	 0.7887944611	 0.8159626461	 0.143954
H	-0.3858114147	-0.560444203	-0.7909648801	 0.104252
H	 0.09594827	-1.5550410771	 4.3130211852	 0.099859
H	-2.4611931446	-1.6612817988	 4.4160424555	 0.11943
H	-2.525458517	-0.3820728702	 3.1030850273	 0.124417
H	-1.4301754911	-3.2839161389	 2.6952438296	 0.110758
46.2176	137.3495	186.4771	306.4069	366.0818	396.0706	507.5056	649.0151	722.2528	748.0245	763.7965	794.5346	817.129	829.7352	891.6402	915.4617	929.6391	956.9091	983.1259	1019.4055	1052.6404	1067.2212	1079.9961	1092.5837	1094.7307	1127.8754	1129.2507	1144.2079	1184.6072	1208.0193	1212.4436	1224.0039	1316.8398	1363.2849	1439.1147	1458.4357	1460.9588	1496.0631	1693.6443	3129.5621	3140.6663	3145.2774	3181.8045	3192.3921	3199.8956	3223.9451	3229.464	3244.6151
C1CC1C1=NC2CC2O1	C1CC1C1=N[C@H]2C[C@H]2O1	
InChI=1S/C7H9NO/c1-2-4(1)7-8-5-3-6(5)9-7/h4-6H,1-3H2	InChI=1S/C7H9NO/c1-2-4(1)7-8-5-3-6(5)9-7/h4-6H,1-3H2/t5-,6+/m0/s1
