19
gdb 84111	2.57469	1.54875	1.15906	1.8921	77.17	-0.2288	0.0169	0.2457	1121.97	0.159178	-419.216269	-419.207484	-419.20654	-419.249072	34.031	
C	-0.0911234038	 1.5193792109	 0.0469188514	-0.389096
C	 0.0346511947	-0.0025642536	-0.0369174279	-0.01014
N	 0.819321657	-0.4070489962	-1.2170662936	-0.312939
C	 1.7586137652	-1.1947148139	-0.8445618151	 0.388194
N	 2.5944664267	-1.8638528965	-1.7058040378	-0.581593
C	 1.850909484	-1.4072968065	 0.6399525157	-0.163
O	 2.0829582843	-0.1573473953	 1.321608637	-0.292563
C	 0.7297861676	-0.6277460416	 1.1844152112	 0.416618
C	-0.0120241404	-0.9240050842	 2.4564420451	-0.493753
H	 0.8940975174	 1.9648928075	 0.2069414975	 0.13123
H	-0.5051841247	 1.9131880393	-0.8843862947	 0.123935
H	-0.7488525897	 1.815871099	 0.8709986445	 0.10493
H	-0.9715039923	-0.437752031	-0.1276216401	 0.076403
H	 2.5489006326	-1.5377282325	-2.6614748451	 0.257719
H	 3.5329358982	-2.0356443739	-1.3777245944	 0.255301
H	 2.2866062134	-2.2933387963	 1.0943346842	 0.098601
H	-0.4031636172	-0.0007227532	 2.8979929589	 0.132833
H	-0.8600027867	-1.5894157491	 2.2649631508	 0.127064
H	 0.6479373337	-1.3951991029	 3.1890268522	 0.130257
141.0316	161.4686	182.5133	230.0729	236.5667	265.6105	328.6604	410.5575	425.2075	469.6655	529.629	579.3734	606.1972	670.4289	711.1277	759.8695	831.4317	869.9858	914.807	932.4137	1004.7185	1016.5442	1060.9461	1070.1525	1114.459	1132.4735	1181.2694	1227.0647	1248.4035	1312.1504	1336.6782	1397.9861	1404.5359	1422.7636	1455.1617	1482.8345	1489.2838	1494.9279	1501.935	1625.9815	1713.1187	2995.8208	3036.1712	3040.3899	3099.0585	3112.3752	3123.2069	3131.6016	3148.8922	3560.7448	3672.6792
CC1N=C(N)C2OC12C	C[C@H]1N=C(N)[C@H]2O[C@@]12C	
InChI=1S/C6H10N2O/c1-3-6(2)4(9-6)5(7)8-3/h3-4H,1-2H3,(H2,7,8)	InChI=1S/C6H10N2O/c1-3-6(2)4(9-6)5(7)8-3/h3-4H,1-2H3,(H2,7,8)/t3-,4-,6+/m1/s1
