12
gdb 25408	3.23863	1.50808	1.02895	4.4014	66.04	-0.2644	-0.1036	0.1608	1035.4185	0.077663	-472.683564	-472.676404	-472.675459	-472.71575	25.486	
O	-0.1852401931	 0.0248197994	 0.1489315221	-0.241188
C	-0.020608273	 1.2152249884	 0.0783750931	 0.100679
C	 1.2807465761	 1.9140907844	-0.0143941163	-0.035592
C	 1.2978356125	 3.2768502647	-0.0876580076	-0.02396
N	 2.4247599627	 4.0486273922	-0.1768985973	-0.28899
C	 3.5326905462	 3.388392197	-0.1892025537	 0.16636
O	 3.6804943937	 2.0747607935	-0.125565238	-0.194853
C	 2.5420997129	 1.1867281466	-0.0294620404	 0.402261
O	 2.7767908288	 0.0244700741	 0.0219953671	-0.273454
H	-0.8816311947	 1.9230749274	 0.0770139548	 0.080328
H	 0.3572187818	 3.824294283	-0.0766845505	 0.143305
H	 4.486710766	 3.9050858493	-0.2574161533	 0.165104
77.4579	144.7934	198.0189	271.253	359.8172	418.4736	473.4985	543.9781	563.6445	651.9095	719.1447	788.0336	854.443	965.5535	968.1713	1006.2553	1042.5857	1123.0229	1257.206	1267.1366	1392.4604	1413.524	1450.7687	1568.1095	1646.6527	1806.3123	1913.4005	2863.0638	3156.0477	3185.1859
O=CC1=CN=COC1=O	O=Cc1cncoc1=O	
InChI=1S/C5H3NO3/c7-2-4-1-6-3-9-5(4)8/h1-3H	InChI=1S/C5H3NO3/c7-2-4-1-6-3-9-5(4)8/h1-3H
