18
gdb 66571	2.32846	2.24744	1.60057	1.3402	73.82	-0.2099	0.0649	0.2748	905.3097	0.147637	-401.849036	-401.841677	-401.840733	-401.880228	30.119	
C	-0.0148758946	 1.5299318402	 0.057312581	-0.509722
C	-0.0592467072	 0.0258227365	 0.0428691505	 0.230739
C	-1.3334065898	-0.8473991477	 0.0128271194	-0.226827
N	-0.5077434566	-1.9815816117	 0.5753493064	-0.158974
C	 0.5741653489	-2.1828568327	-0.436700721	-0.115892
C	 1.6414262654	-1.4358393964	 0.3294907345	-0.168622
C	 0.4542841825	-0.9346867391	 1.1794158079	-0.05253
C	 0.9587394843	-0.7597905601	-0.840423484	 0.355301
O	 1.5309435963	-0.3826665	-2.033080409	-0.462645
H	 1.0005622183	 1.8904384335	 0.2557212398	 0.125893
H	-0.3216719314	 1.9403963657	-0.9114251901	 0.120092
H	-0.6792656368	 1.9433041934	 0.823497587	 0.115447
H	-2.0822838627	-0.5458801428	 0.7522132628	 0.103825
H	-1.8208843421	-1.0550279412	-0.9465307383	 0.088581
H	 0.6489192346	-3.0515549171	-1.0794664547	 0.090984
H	 2.673141779	-1.6786528704	 0.5406862219	 0.101194
H	 0.4186768244	-0.7387978276	 2.2499476365	 0.07491
H	 0.9332204876	-0.6164581225	-2.7524951907	 0.288244
188.5545	198.1613	228.983	284.1501	317.7864	383.6762	456.3321	571.6194	598.6634	630.6742	750.0245	760.6094	830.3608	838.711	854.6993	871.5871	892.1589	909.1965	933.2221	941.2307	985.3434	1015.9087	1039.1006	1115.0812	1132.42	1156.7468	1168.7368	1195.1153	1201.0818	1218.4836	1234.957	1275.2293	1296.7404	1344.236	1413.0447	1443.2074	1489.094	1490.8239	1499.5419	3025.4642	3033.4707	3089.6822	3093.0116	3095.9305	3124.7119	3188.1364	3217.4288	3782.1034
CC12CN3C4C(C13)C24O	C[C@]12CN3[C@@H]4[C@H]([C@@H]13)[C@]24O	
InChI=1S/C7H9NO/c1-6-2-8-4(6)3-5(8)7(3,6)9/h3-5,9H,2H2,1H3	InChI=1S/C7H9NO/c1-6-2-8-4(6)3-5(8)7(3,6)9/h3-5,9H,2H2,1H3/t3-,4-,5+,6-,7+/m0/s1
