21
gdb 62044	3.5695	0.74983	0.64971	1.2271	86.33	-0.2507	0.0411	0.2919	1759.3309	0.179411	-387.030239	-387.019896	-387.018952	-387.067165	37.34	
C	 0.1109731508	 1.5460835561	 0.032654906	-0.393119
C	-0.008070912	 0.016603942	-0.0714072298	-0.034059
O	 0.6002325177	-0.4840527964	-1.2570468931	-0.258895
C	-0.2241796604	-0.4145211849	-2.4090086814	-0.070368
C	 0.5360424643	-0.972086701	-3.5799579999	 0.012669
C	 0.5926997971	-2.4607615793	-3.7966860688	-0.245239
C	-0.2222640538	-1.596132977	-4.7252746102	-0.274331
C	 0.6254125002	-0.6390715886	 1.0740843556	 0.323253
C	 1.1353881438	-1.1486577826	 2.0348097879	-0.444947
H	 1.1645548793	 1.8354098797	 0.0309940331	 0.135916
H	-0.3911472918	 2.0302657982	-0.8094490507	 0.118285
H	-0.3502631697	 1.9012457177	 0.9583116966	 0.126644
H	-1.077250999	-0.2561014069	-0.071723491	 0.092678
H	-1.1486949829	-0.9961487238	-2.2486802925	 0.082136
H	-0.5269085628	 0.6247488977	-2.6145651026	 0.088514
H	 1.4291586545	-0.409492172	-3.8348743929	 0.090548
H	 1.516416571	-2.8898036151	-4.1678252156	 0.113854
H	 0.0622251192	-3.0910367107	-3.0908134023	 0.115925
H	-1.3037438907	-1.6490969669	-4.6511934032	 0.110515
H	 0.1425961758	-1.4266527098	-5.7320238924	 0.113287
H	 1.5871920093	-1.6115021566	 2.8770255272	 0.196736
24.2417	50.66	110.7945	119.4704	190.2286	215.7545	243.5674	299.577	378.6565	393.1798	429.1707	544.2286	580.9662	621.7627	666.1908	772.5722	812.3705	826.2035	852.3012	909.5112	928.6596	962.0739	1026.7547	1058.9325	1065.7172	1079.847	1089.3492	1110.4859	1134.6944	1143.6221	1195.9163	1199.9398	1227.5422	1280.8757	1340.7109	1350.1005	1388.4262	1400.1131	1450.2346	1470.5861	1487.8159	1491.145	1505.1051	1517.7794	2242.7055	2949.0227	2957.4885	2987.0003	3048.5822	3122.3249	3130.8799	3134.7521	3137.6609	3154.5489	3209.5425	3225.5908	3504.5935
CC(OCC1CC1)C#C	C[C@@H](OCC1CC1)C#C	
InChI=1S/C8H12O/c1-3-7(2)9-6-8-4-5-8/h1,7-8H,4-6H2,2H3	InChI=1S/C8H12O/c1-3-7(2)9-6-8-4-5-8/h1,7-8H,4-6H2,2H3/t7-/m1/s1
