19
gdb 69422	4.38504	0.93514	0.87044	5.4384	80.13	-0.2428	0.0332	0.276	1367.3801	0.159137	-382.04658	-382.037803	-382.036858	-382.080348	32.833	
C	 0.2227673219	 1.5695422601	 0.0850877624	-0.49001
C	-0.0645348742	 0.1049391797	-0.051680873	 0.372095
C	-1.0759381935	-0.6232702268	 0.7346370217	-0.2902
N	 0.3493738151	-0.9237688848	 1.0020920188	-0.167631
C	 0.8387603588	-1.8024071659	-0.1179604096	 0.074532
C	 0.2855319533	-3.2307654411	-0.1869718782	-0.361446
C	 0.6870251193	-4.0485651899	 0.9564254206	 0.271005
N	 1.0127545284	-4.6984164962	 1.854382518	-0.303958
C	 0.4177734094	-0.7806499697	-1.2070376905	-0.354337
H	 1.2742457755	 1.7899712255	-0.1281387759	 0.124682
H	-0.3912118834	 2.1516334519	-0.6123672927	 0.12463
H	 0.0026856552	 1.9132959299	 1.099626706	 0.134726
H	-1.5408577829	-0.1032965059	 1.5663704486	 0.127571
H	-1.7186594489	-1.3636696984	 0.2628263209	 0.106539
H	 1.9258445936	-1.8589825003	-0.0255957358	 0.107931
H	-0.8074383638	-3.2315628167	-0.2524031759	 0.148536
H	 0.6528424254	-3.7093888482	-1.1028415627	 0.154831
H	-0.3488296776	-1.0884002209	-1.9255864655	 0.104082
H	 1.2677834284	-0.3725045025	-1.7570645773	 0.116424
58.9208	99.1768	179.0946	187.2336	246.5905	323.9922	367.075	392.6572	413.5671	469.103	562.0989	628.4109	708.1592	757.7292	815.0362	876.8721	917.8323	941.6984	960.1366	983.2764	1016.3155	1050.6868	1075.5678	1105.3122	1122.1416	1129.524	1168.5379	1235.2179	1242.0283	1281.8086	1302.9873	1329.7044	1375.7805	1397.4921	1424.4203	1459.9515	1481.4598	1488.0255	1492.9276	1516.3427	2364.6276	3028.7325	3043.8325	3048.8807	3071.6165	3089.2124	3089.9971	3105.3844	3114.5108	3116.0381	3195.281
CC12CN1C(CC#N)C2	C[C@]12CN1[C@@H](CC#N)C2	
InChI=1S/C7H10N2/c1-7-4-6(2-3-8)9(7)5-7/h6H,2,4-5H2,1H3	InChI=1S/C7H10N2/c1-7-4-6(2-3-8)9(7)5-7/h6H,2,4-5H2,1H3/t6-,7-,9?/m0/s1
