18
gdb 101500	3.39019	0.7483	0.68587	3.2729	73.05	-0.27	-0.0315	0.2385	1646.4543	0.144806	-476.236803	-476.226702	-476.225758	-476.273071	34.875	
C	-0.2746127008	 1.3082009477	 0.0765653577	-0.411657
C	-0.197507799	-0.2124730146	-0.0898683509	 0.047232
C	 0.8308273449	-0.611062088	-1.166875261	-0.055339
O	 2.1467817941	-0.2176507809	-0.8273044228	-0.419529
N	 0.1252353527	-0.9949324896	 1.1039750094	-0.254589
C	 0.386758306	-0.4364564291	 2.1973308838	 0.129137
O	 0.7176871923	-1.1333790499	 3.332016653	-0.196489
C	 0.3579393126	-2.4572448248	 3.4339884121	 0.180053
O	 0.7591150431	-3.1298599052	 4.3296946233	-0.249245
H	 0.706958075	 1.7261327401	 0.3168177387	 0.138638
H	-0.6052615345	 1.7600579608	-0.8630381911	 0.122781
H	-0.9888674464	 1.5999105208	 0.8526967259	 0.117448
H	-1.1713033524	-0.5853700906	-0.4365009446	 0.094357
H	 0.7653048786	-1.694524684	-1.3375773824	 0.100212
H	 0.5886023182	-0.1012486405	-2.1046856951	 0.110611
H	 2.4125755593	-0.7447092864	-0.0659339141	 0.288846
H	 0.4120636446	 0.6313283196	 2.4160361633	 0.129011
H	-0.3243047883	-2.7686335456	 2.6327066748	 0.12852
42.2417	72.3497	99.119	149.6278	160.6328	244.2847	261.1211	268.8308	326.0683	353.6859	412.8356	482.5308	511.7743	669.0457	731.1888	835.4253	923.2445	953.5661	984.5284	1003.0064	1036.4916	1053.743	1091.2223	1123.9791	1142.2946	1202.2023	1239.553	1309.5358	1357.0667	1383.6365	1393.7648	1399.7828	1412.855	1420.46	1489.9083	1501.3396	1505.4908	1741.446	1875.0589	3005.4953	3018.687	3042.1586	3072.054	3085.7318	3110.6685	3122.6484	3131.1385	3808.7898
CC(CO)N=COC=O	C[C@@H](CO)N=COC=O	
InChI=1S/C5H9NO3/c1-5(2-7)6-3-9-4-8/h3-5,7H,2H2,1H3	InChI=1S/C5H9NO3/c1-5(2-7)6-3-9-4-8/h3-5,7H,2H2,1H3/t5-/m0/s1
