19
gdb 117972	1.983	1.20142	0.82819	2.2964	69.44	-0.261	0.0028	0.2638	1433.2767	0.156033	-497.312661	-497.301894	-497.300949	-497.350169	36.128	
C	 0.7993493995	 1.2452876462	-0.3548336163	-0.226633
O	 0.9851883603	-0.1415238191	-0.5157229583	-0.230175
C	-0.147636091	-0.7869544557	-1.0391579527	-0.074646
C	 0.1188413117	-2.2981118526	-1.1589927341	-0.010991
O	-1.0698593949	-2.9434610012	-1.5475546662	-0.428894
C	 1.199188884	-2.5829444026	-2.1968454815	 0.434352
O	 0.9237308457	-2.8992266069	-3.333165703	-0.387634
O	 2.4361199922	-2.4431234454	-1.7262370617	-0.210326
C	 3.4911687694	-2.6503861674	-2.6786506463	-0.24355
H	 0.5896189581	 1.7432387504	-1.3145919215	 0.10659
H	-0.0299922332	 1.4677039437	 0.3347473163	 0.107698
H	 1.7240513269	 1.6525106828	 0.0607031923	 0.129066
H	-1.0249031909	-0.6596015345	-0.3855710531	 0.103968
H	-0.4160009326	-0.3891034893	-2.032916744	 0.093458
H	 0.4454124649	-2.6759559755	-0.1841506111	 0.111815
H	-0.9754637373	-3.1082011606	-2.4979160242	 0.29545
H	 3.4133893834	-1.9312456759	-3.4975191345	 0.144419
H	 4.4186483695	-2.5032730465	-2.126465171	 0.140454
H	 3.4422214842	-3.6618671799	-3.0886975292	 0.145579
27.9318	70.9012	91.2415	109.2354	143.4201	172.4936	225.8578	232.3582	283.217	352.3828	366.6373	432.6157	451.9536	512.8009	699.7645	765.13	872.2909	999.1838	1000.6476	1048.3664	1088.7068	1121.4217	1169.3095	1177.388	1183.7178	1208.8912	1230.0527	1235.9592	1256.5352	1305.2131	1339.8916	1405.5526	1453.1117	1477.8593	1482.4295	1483.7463	1486.1408	1494.8548	1502.9165	1525.9744	1796.1195	2958.2518	2974.6495	3002.135	3018.077	3055.8403	3063.3901	3116.7899	3132.6231	3166.8325	3717.7933
COCC(O)C(=O)OC	COC[C@@H](O)C(=O)OC	
InChI=1S/C5H10O4/c1-8-3-4(6)5(7)9-2/h4,6H,3H2,1-2H3	InChI=1S/C5H10O4/c1-8-3-4(6)5(7)9-2/h4,6H,3H2,1-2H3/t4-/m1/s1
