21
gdb 114251	4.35323	0.88919	0.86572	2.4945	78.81	-0.2474	0.0639	0.3113	1444.1001	0.181503	-424.195381	-424.186225	-424.185281	-424.230332	33.592	
C	 0.0519874404	 1.4107916897	 0.4734536454	-0.381326
C	 0.0169733125	-0.0783799405	 0.1181941106	-0.188629
C	-1.3642809613	-0.5404941218	-0.3088314065	 0.160003
C	-1.6330281559	-2.0568115607	-0.4062731347	-0.391675
C	-2.6905315898	-1.8034601917	 0.6813440234	 0.381076
C	-4.1758538069	-2.1814608658	 0.5166039854	-0.129038
O	-4.1213422097	-3.0455435409	 1.670526406	-0.274834
C	-2.7847327712	-2.6076582177	 1.9902540514	-0.127427
O	-2.3468199296	-0.4158378868	 0.7582607441	-0.322689
H	 1.0473284755	 1.7146154194	 0.8103269717	 0.113048
H	-0.2130144584	 2.0303574426	-0.390453999	 0.114022
H	-0.6614583314	 1.6279463971	 1.273368948	 0.137875
H	 0.7185155134	-0.2946729726	-0.6988179208	 0.097291
H	 0.3373245969	-0.6782240268	 0.9794034674	 0.096
H	-1.6962227641	 0.0265327894	-1.1897711778	 0.074741
H	-2.0169642303	-2.4194782572	-1.3614149137	 0.112597
H	-0.7976737219	-2.6869118929	-0.090863391	 0.111042
H	-4.8514673282	-1.3283865392	 0.6619544807	 0.109205
H	-4.4551484063	-2.7238068986	-0.3951432536	 0.099785
H	-2.0888512534	-3.4473743506	 2.1094464279	 0.100026
H	-2.7528555502	-1.9708978346	 2.8841788951	 0.108907
39.1386	74.6367	111.5078	167.7281	228.1231	279.0147	333.1657	356.4223	418.5862	468.2001	521.972	756.2319	794.5017	826.735	881.1264	898.6079	906.9943	945.3854	958.5822	980.9332	995.9721	1017.2356	1029.8728	1082.7389	1107.6636	1147.7699	1149.8318	1180.4249	1195.7968	1212.2416	1230.1037	1278.247	1286.3084	1295.8334	1313.7775	1348.4655	1376.4616	1406.5234	1415.8941	1473.8752	1487.8228	1493.405	1496.5715	1509.2314	1521.4454	3002.7675	3003.3279	3015.3727	3017.6222	3036.8876	3057.4558	3059.0721	3059.9747	3068.5005	3103.9847	3119.8565	3124.663
CCC1CC2(COC2)O1	CC[C@H]1CC2(COC2)O1	
InChI=1S/C7H12O2/c1-2-6-3-7(9-6)4-8-5-7/h6H,2-5H2,1H3	InChI=1S/C7H12O2/c1-2-6-3-7(9-6)4-8-5-7/h6H,2-5H2,1H3/t6-/m0/s1
