17
gdb 37850	2.68677	2.58431	1.97111	3.0809	68.54	-0.2265	0.039	0.2656	774.6306	0.140299	-421.779917	-421.774673	-421.773729	-421.80921	23.713	
C	-0.0847682478	 1.598823901	 0.0120617972	-0.266927
C	 1.4158759031	 1.8363399095	-0.0015102583	-0.055624
C	 2.1120644835	 0.8381327432	 0.9719364927	 0.05568
O	 3.1213404417	 0.5570967958	-0.0252648758	-0.26287
C	 2.0925600339	 0.8487338118	-0.9992222867	 0.05568
C	 1.0884405851	-0.3845178842	-0.995919775	 0.05568
O	 1.5851090512	-1.3296890959	-0.0202128879	-0.26287
C	 1.1079432036	-0.3951195615	 0.975239596	 0.05568
C	-0.0132083839	 0.0811514611	 0.0031897619	-0.055624
H	-0.5745843897	 2.0000295676	 0.9061121056	 0.104694
H	-0.5921413207	 2.0095749778	-0.8677489645	 0.104694
H	 1.7996817338	 2.8551845553	 0.0001713614	 0.078709
H	 2.5217685953	 1.131059476	 1.9393091237	 0.078597
H	 2.4830733439	 1.1520930463	-1.9713053344	 0.078597
H	 0.8679903189	-0.831543444	-1.9659934649	 0.078597
H	 0.9066824158	-0.8525743608	 1.9446220854	 0.078597
H	-0.9330965979	-0.5011921792	 0.0091590335	 0.078709
366.7592	426.4702	469.5454	574.2468	634.1623	647.0585	723.126	770.6649	783.961	843.2003	848.0326	861.5292	864.098	905.9071	947.0715	954.7221	972.115	979.3567	1019.6749	1027.7896	1059.8778	1068.2936	1092.7149	1103.2899	1213.2998	1216.9584	1232.0463	1249.8002	1250.2149	1268.7981	1274.002	1281.0014	1305.2299	1334.2317	1349.9922	1358.6737	1485.1398	3041.9002	3084.6068	3100.1633	3102.3349	3112.1486	3112.955	3131.4898	3135.2857
C1C2C3OC2C2OC3C12	C1[C@H]2[C@@H]3O[C@H]2[C@H]2O[C@@H]3[C@@H]12	
InChI=1S/C7H8O2/c1-2-4-6-3(1)7(9-6)5(2)8-4/h2-7H,1H2	InChI=1S/C7H8O2/c1-2-4-6-3(1)7(9-6)5(2)8-4/h2-7H,1H2/t2-,3+,4-,5+,6+,7-
