14
gdb 27018	2.85807	1.3595	0.92661	5.1116	76.26	-0.2122	-0.0213	0.1909	1180.6566	0.09985	-436.719711	-436.711389	-436.710444	-436.752572	30.63	
C	 0.1056998768	 1.550879756	 0.0624080831	-0.514433
C	 0.0099205058	 0.0694130592	 0.0345589672	 0.189537
C	-1.0701943174	-0.7420440689	-0.0410609105	 0.139538
O	-0.6524274977	-2.0727021171	-0.0369339492	-0.247294
C	 0.7210503398	-2.1006867528	 0.0428870576	 0.458465
O	 1.3910566644	-3.0939285305	 0.0675319558	-0.393054
N	 1.1117443623	-0.7738222184	 0.0860202297	-0.40679
C	-2.4388448889	-0.4544404335	-0.1165862528	 0.277219
C	-3.6163021816	-0.2056623147	-0.1813312351	-0.433431
H	 0.6897515881	 1.9302055215	-0.7843313471	 0.145107
H	-0.8947616562	 1.9841122774	 0.0110692349	 0.161336
H	 0.5876998285	 1.9037103609	 0.9817703961	 0.145036
H	 2.0780328335	-0.5034768701	 0.1481700483	 0.278142
H	-4.6543029673	 0.0108277109	-0.238406868	 0.200623
130.7534	134.8933	162.8457	186.6818	277.7214	299.8652	420.7408	440.9252	492.2682	522.4714	565.492	606.6664	645.6452	674.9647	706.5796	764.195	820.3838	965.5755	1002.3921	1051.2228	1064.7947	1222.8074	1276.9602	1297.3097	1416.4322	1444.271	1477.9933	1491.055	1700.91	1901.9037	2227.7515	3028.6182	3078.8101	3139.6413	3502.3225	3685.3935
CC1=C(OC(=O)N1)C#C	Cc1c(oc(=O)[nH]1)C#C	
InChI=1S/C6H5NO2/c1-3-5-4(2)7-6(8)9-5/h1H,2H3,(H,7,8)	InChI=1S/C6H5NO2/c1-3-5-4(2)7-6(8)9-5/h1H,2H3,(H,7,8)
