14
gdb 15752	5.29178	1.25746	1.05139	1.9928	62.64	-0.2705	-0.0103	0.2602	1073.6674	0.106808	-415.862613	-415.854857	-415.853913	-415.895532	26.545	
N	-0.3037822927	 1.2614114527	 0.0646197242	-0.425362
C	-0.140397588	 0.0176736776	-0.0237591462	 0.12659
O	-1.2112169691	-0.7915733239	 0.2593291879	-0.210138
C	-1.035081324	-2.1461816031	 0.1029455239	 0.496964
O	-0.0295938454	-2.6685284442	-0.3021351685	-0.374663
N	-2.1622731825	-2.7976034307	 0.549342713	-0.120753
C	-3.4994608943	-2.5929459929	 0.0243752778	-0.221465
C	-2.7704026619	-3.88951578	-0.1775976181	-0.219635
H	 0.5670437003	 1.7382647826	-0.164412665	 0.238971
H	 0.752120917	-0.5448557313	-0.2990286253	 0.144708
H	-4.2873551123	-2.5194918085	 0.7674987327	 0.138649
H	-3.6063967399	-1.9316277289	-0.8304159378	 0.144809
H	-2.376896205	-4.1057970508	-1.1667831654	 0.144482
H	-3.0348724524	-4.7581479785	 0.4173142067	 0.136843
78.6472	110.4537	122.0381	167.4772	233.7444	296.175	462.7441	524.3467	641.7072	779.0255	814.5701	850.6012	861.9695	956.6148	988.1048	1049.0767	1065.4124	1071.2679	1137.0854	1139.1178	1168.2756	1176.9176	1199.6323	1270.8872	1385.1524	1410.7366	1498.4721	1527.5484	1749.2333	1829.3014	3120.5943	3124.3013	3137.6494	3206.1971	3219.1866	3509.1979
N=COC(=O)N1CC1	[NH][CH]OC(=O)N1CC1	
InChI=1S/C4H6N2O2/c5-3-8-4(7)6-1-2-6/h3,5H,1-2H2	InChI=1S/C4H6N2O2/c5-3-8-4(7)6-1-2-6/h3,5H,1-2H2
