15
gdb 42927	3.43219	1.17392	0.96213	6.0926	69.13	-0.2637	-0.0308	0.2328	1174.7876	0.112716	-416.794501	-416.786599	-416.785655	-416.827768	28.591	
O	 0.1095265652	 0.022460518	-0.0038844185	-0.273018
C	 0.0352423679	 1.2073386035	 0.0130885044	 0.392478
C	-1.1045146105	 2.24649023	 0.1309428452	-0.136793
C	-2.0853422738	 2.2063381772	 1.3123138108	-0.365283
C	-3.0618974718	 1.1247608321	 1.1959670226	 0.272841
N	-3.8456165823	 0.2824741774	 1.094487028	-0.29379
C	 0.0222987295	 3.2799210205	 0.1046989043	-0.059993
C	 1.0703608639	 2.996216518	 1.0963131182	-0.248913
N	 1.0807451468	 2.2059112524	-0.1729594647	-0.164772
H	-1.6603862955	 2.2543006588	-0.8121985581	 0.143055
H	-1.5510780391	 2.0952306625	 2.2612524422	 0.157788
H	-2.6296213839	 3.1566377511	 1.3647198137	 0.1636
H	 0.0124367435	 4.1838856465	-0.4915667507	 0.123741
H	 1.9107361325	 3.6791015932	 1.160290745	 0.150844
H	 0.8395383376	 2.4816628788	 2.0255291875	 0.138215
56.5757	97.707	172.3883	218.3732	252.8843	383.6766	468.9765	491.5845	500.2742	663.0406	716.4778	756.342	771.2155	841.6944	931.2762	960.1022	974.506	1021.3527	1026.9166	1065.8284	1117.3774	1122.4077	1143.3904	1181.7599	1221.0606	1258.9958	1312.3972	1363.0237	1373.3195	1464.1278	1508.4779	1928.7444	2368.3759	3045.7766	3070.7586	3091.3259	3122.0858	3197.3464	3214.8078
O=C1C(CC#N)C2CN12	O=C1[C@@H](CC#N)[C@H]2CN12	
InChI=1S/C6H6N2O/c7-2-1-4-5-3-8(5)6(4)9/h4-5H,1,3H2	InChI=1S/C6H6N2O/c7-2-1-4-5-3-8(5)6(4)9/h4-5H,1,3H2/t4-,5+,8?/m0/s1
