20
gdb 22784	2.31361	1.25575	0.88328	1.0673	78.86	-0.2492	-0.0044	0.2448	1349.6056	0.168996	-440.233933	-440.224088	-440.223143	-440.268787	36.375	
C	-0.2402682405	 1.4616688486	 0.0680353999	-0.386389
C	 0.0568231841	-0.0404945719	 0.0249665097	-0.18695
C	 0.7232169974	-0.4870806182	-1.274798234	-0.06553
C	 1.0096273204	-2.0117981176	-1.4948720872	-0.277095
C	 0.4518605436	-1.9087574691	-2.9441065881	 0.066454
O	-0.4675962938	-2.9043059488	-3.3123414287	-0.439704
C	-0.106874188	-0.5518796095	-2.5460288925	 0.36954
N	-1.0659399212	 0.1657907105	-2.9566936294	-0.24522
O	-1.6158358023	-0.3903963624	-4.1446400142	-0.40936
H	 0.6795296098	 2.0491086967	-0.0311357782	 0.110262
H	-0.9109692012	 1.7472468743	-0.7469429047	 0.143766
H	-0.712654918	 1.740477557	 1.015022757	 0.110148
H	 0.7125197172	-0.3176155155	 0.8605551559	 0.097925
H	-0.8729028203	-0.6069766482	 0.1576510773	 0.101253
H	 1.6318223442	 0.1050040603	-1.4463388906	 0.092312
H	 2.0409562866	-2.3480884662	-1.3821010002	 0.104792
H	 0.3474577455	-2.6357578106	-0.8900335201	 0.121411
H	 1.2623960371	-1.804281151	-3.6834893689	 0.084648
H	-1.0898167998	-2.4869031612	-3.9209703919	 0.297429
H	-2.3660640407	 0.1880226727	-4.3159330911	 0.310308
56.9557	105.8845	143.6048	179.3828	210.8121	248.9493	292.2735	336.4857	366.3173	383.9002	417.7469	426.1935	549.708	603.9375	667.0368	789.0666	809.4979	848.0972	939.6312	950.5184	958.8016	1000.348	1027.129	1076.927	1104.9054	1137.4695	1164.8117	1179.6185	1225.5609	1252.577	1258.6664	1290.9021	1334.9303	1353.8365	1376.3211	1391.616	1405.6598	1412.9839	1479.0513	1486.1502	1498.5848	1511.2243	1774.9528	2967.5525	3018.465	3021.9949	3034.399	3059.6783	3075.8714	3099.6673	3121.6923	3138.8672	3785.3086	3828.3365
CCC1CC(O)C1=NO	CC[C@H]1C[C@@H](O)C1=NO	
InChI=1S/C6H11NO2/c1-2-4-3-5(8)6(4)7-9/h4-5,8-9H,2-3H2,1H3	InChI=1S/C6H11NO2/c1-2-4-3-5(8)6(4)7-9/h4-5,8-9H,2-3H2,1H3/t4-,5+/m0/s1
