19
gdb 19294	3.29281	1.79992	1.41675	2.117	71.74	-0.2248	0.0769	0.3017	953.5451	0.165087	-365.0024	-364.994152	-364.993208	-365.034951	30.587	
C	-0.0665487676	 1.3865507713	-0.0188394039	-0.239384
O	 0.2633113894	 0.0234925969	 0.1321446737	-0.234929
C	 0.7037648565	-0.5854444466	-1.0474631644	 0.159004
C	 1.3511505051	-1.9510948911	-0.8726531268	-0.103504
N	 0.3012966258	-2.8966152749	-0.4208337425	-0.321645
C	 0.4125536294	-2.561642677	-1.8577779686	-0.052581
C	-0.3499585396	-1.240893383	-2.0489492667	-0.041889
C	-1.8229542433	-1.2254324856	-1.6664147629	-0.400308
H	 0.7949774849	 1.9743323908	-0.374191288	 0.101367
H	-0.8993436627	 1.5410800359	-0.7198126043	 0.108789
H	-0.3645385685	 1.7580727622	 0.9646034405	 0.127544
H	 1.3748461402	 0.0883871789	-1.6013007639	 0.062339
H	 2.3973203194	-2.1566487166	-0.6810540435	 0.089575
H	 0.7632395572	-3.7950823006	-0.2831562505	 0.227745
H	 0.6053037821	-3.3279249284	-2.5985460999	 0.088916
H	-0.2004719831	-0.8423803275	-3.0571009794	 0.066444
H	-1.9540956119	-1.591225938	-0.646871271	 0.149862
H	-2.241442653	-0.2157798959	-1.7305363659	 0.107011
H	-2.4019989903	-1.8655889209	-2.3416414718	 0.105644
106.7681	130.1189	161.8596	196.4653	227.2012	255.6407	337.9797	447.0415	551.4479	600.6769	689.6521	780.8744	818.8857	843.0779	894.6444	910.7945	976.1053	1015.8673	1026.7171	1063.0949	1087.9594	1112.0997	1116.2383	1150.6145	1166.2961	1181.5586	1189.134	1230.3964	1268.3598	1290.9222	1333.2289	1362.0989	1380.6732	1399.2209	1412.2494	1482.2846	1485.3596	1491.3348	1501.7055	1509.8165	2972.7202	2986.4521	3026.7443	3035.1366	3059.6264	3092.2706	3114.5679	3143.1385	3180.3507	3193.8101	3473.5148
COC1C2NC2C1C	CO[C@H]1[C@H]2N[C@H]2[C@H]1C	
InChI=1S/C6H11NO/c1-3-4-5(7-4)6(3)8-2/h3-7H,1-2H3	InChI=1S/C6H11NO/c1-3-4-5(7-4)6(3)8-2/h3-7H,1-2H3/t3-,4+,5+,6-/m1/s1
