19
gdb 127248	2.29406	1.34294	0.86082	1.6412	80.25	-0.2177	0.0343	0.252	1346.8466	0.158694	-419.229908	-419.219923	-419.218979	-419.266283	34.439	
C	-0.0451829416	 1.3974472328	 0.0935723128	-0.316768
N	 0.0211849753	-0.0424087923	-0.0104525639	 0.050488
C	 0.0978495779	-0.7942694806	-1.1366419652	-0.107848
C	 0.0654385147	-2.11444891	-0.7415583938	 0.125994
C	 0.1380437896	-3.3203411978	-1.6211551404	-0.20196
O	 0.1941006236	-2.8891000887	-2.9735801104	-0.419611
C	-0.0380057678	-2.0603372717	 0.6710814483	 0.274124
C	-0.1030513947	-3.1999176102	 1.6380750295	-0.498698
N	-0.0669961369	-0.7988947381	 1.102312451	-0.338636
H	 0.2817770581	 1.8381593399	-0.8500998846	 0.136364
H	-1.065089823	 1.7325513173	 0.3107868372	 0.140304
H	 0.6127957141	 1.7349195877	 0.8972216357	 0.149528
H	 0.1701515652	-0.3544321112	-2.1175367704	 0.14151
H	 1.0244516088	-3.9260688689	-1.3643685807	 0.095604
H	-0.7391886066	-3.9679429476	-1.4494230478	 0.095367
H	 0.258154698	-3.6685085948	-3.5323910203	 0.288912
H	 0.7921079324	-3.830976243	 1.5812548395	 0.122794
H	-0.1876150493	-2.8174773534	 2.6573912964	 0.139706
H	-0.9654892078	-3.8480431495	 1.4412033973	 0.122826
31.784	49.4842	123.367	153.7757	156.6614	225.8325	250.965	255.4059	308.5785	366.5434	519.8043	627.7349	629.37	641.526	687.6371	804.8878	825.752	1010.0419	1028.0173	1041.8383	1068.7647	1069.4183	1088.1842	1149.6511	1173.9424	1187.1413	1242.6591	1245.6778	1341.9666	1397.3771	1410.9953	1448.1542	1453.0041	1474.896	1479.5584	1483.9485	1491.8053	1513.1372	1523.3693	1525.2619	1617.2385	2943.6361	2955.251	3024.3562	3040.5033	3070.4979	3110.4277	3130.036	3144.7238	3275.7238	3838.1972
CN1C=C(CO)C(C)=N1	Cn1cc(CO)c(C)n1	
InChI=1S/C6H10N2O/c1-5-6(4-9)3-8(2)7-5/h3,9H,4H2,1-2H3	InChI=1S/C6H10N2O/c1-5-6(4-9)3-8(2)7-5/h3,9H,4H2,1-2H3
