17
gdb 52525	3.47141	0.93714	0.78957	3.2679	81.49	-0.2466	-0.0521	0.1945	1467.8017	0.132334	-421.802946	-421.7929	-421.791956	-421.839571	34.97	
C	 0.0186501317	 1.4553333759	 0.0109188361	-0.506097
C	 0.050607262	 0.0036523723	-0.0255635961	 0.153566
C	 0.0626034631	-1.2033357999	-0.0612572343	-0.023934
C	 0.0323400344	-2.6528331949	-0.087678221	 0.142865
O	-1.0120825983	-3.2761067216	-0.1217591119	-0.320787
C	 1.3680340274	-3.3338340999	-0.0289434236	 0.303328
O	 2.5031793408	-2.5302776746	-0.1309994481	-0.462823
C	 1.4349512681	-4.5985982121	 0.8232575168	-0.305471
C	 1.4760239474	-4.6918131855	-0.6726433517	-0.283075
H	 0.9460450797	 1.8861427933	-0.380428873	 0.160617
H	-0.8165612735	 1.843137642	-0.5816516635	 0.165933
H	-0.1106378129	 1.8118082612	 1.0389206599	 0.163132
H	 2.4851673188	-1.8909448343	 0.5902745556	 0.283327
H	 2.361650622	-4.7408390363	 1.3669990684	 0.121478
H	 0.5243717682	-4.8977272739	 1.3290289793	 0.136906
H	 0.5918504414	-5.053316067	-1.1838012372	 0.141241
H	 2.4282203898	-4.9026454147	-1.1448240258	 0.129795
28.5414	42.0798	79.7813	148.323	223.4217	249.4341	280.7683	302.3605	376.4309	386.8923	419.641	431.6671	551.0913	659.1749	751.3719	782.6364	831.1036	885.2714	946.4649	964.4841	1010.6538	1045.1523	1053.7034	1056.1582	1090.2843	1181.1487	1204.8032	1255.1699	1328.9637	1383.6121	1409.5745	1437.1407	1468.8408	1473.9104	1474.1087	1739.5418	2335.2717	3032.4368	3095.7207	3101.0024	3141.3526	3146.6097	3236.2575	3250.2003	3795.4453
CC#CC(=O)C1(O)CC1	CC#CC(=O)C1(O)CC1	
InChI=1S/C7H8O2/c1-2-3-6(8)7(9)4-5-7/h9H,4-5H2,1H3	InChI=1S/C7H8O2/c1-2-3-6(8)7(9)4-5-7/h9H,4-5H2,1H3
