21
gdb 65305	2.95948	1.15385	1.01955	3.2566	84.7	-0.2423	-0.0139	0.2284	1269.0516	0.181049	-387.086052	-387.076724	-387.07578	-387.120186	34.936	
C	-0.064574026	 1.5416154668	 0.0366322511	-0.468394
C	-0.0199802189	 0.0294622923	 0.023713869	 0.164904
C	 1.305980299	-0.6996497327	-0.2211401715	-0.393465
C	 0.7067550695	-0.719409137	 1.1380757153	 0.330337
C	 1.3266662452	-0.1088693307	 2.4037417448	-0.289632
C	 1.2164397553	-1.5123186841	 3.0710057506	-0.212471
C	 0.2749710303	-1.9726428676	 1.9201642941	-0.295909
C	-1.2161595066	-0.6448565058	-0.5312065581	 0.118186
O	-2.2101489043	-0.0755128674	-0.915374699	-0.273996
H	 0.8448998373	 1.9609640302	 0.4747870052	 0.112275
H	-0.1706359134	 1.9340381602	-0.9791057054	 0.131409
H	-0.9226882088	 1.8994206341	 0.6132870981	 0.132418
H	 1.2766770026	-1.610669568	-0.8129150682	 0.118361
H	 2.170553442	-0.0699228972	-0.4068522457	 0.121916
H	 2.3277011733	 0.319366623	 2.307748061	 0.103494
H	 0.6745297611	 0.6319534771	 2.8764102964	 0.110257
H	 2.1686126323	-2.0477785021	 3.0645343456	 0.1091
H	 0.8065358675	-1.5423721256	 4.082284062	 0.104398
H	-0.7799050126	-1.9521225128	 2.2098563727	 0.111441
H	 0.4900802154	-2.9405405165	 1.460198964	 0.104378
H	-1.1408821102	-1.7566286362	-0.5763803822	 0.060992
77.4563	111.4239	153.1222	161.7581	185.671	257.3508	294.9313	386.0929	404.5819	414.255	485.1708	610.9425	709.6442	768.7161	793.8029	847.1548	878.8635	901.526	923.7401	939.338	946.3931	984.2018	1024.1224	1055.7963	1065.6095	1108.4116	1112.6022	1168.0294	1179.1096	1212.5153	1235.6822	1257.1187	1278.0397	1281.9053	1334.862	1384.6608	1414.4902	1443.6134	1475.552	1476.8134	1483.1569	1485.261	1499.5758	1507.3736	1807.3987	2854.573	3043.5271	3049.718	3053.2354	3070.7265	3096.7466	3101.691	3109.6865	3113.8978	3120.2797	3127.5715	3201.9714
CC1(CC11CCC1)C=O	C[C@]1(CC21CCC2)C=O	
InChI=1S/C8H12O/c1-7(6-9)5-8(7)3-2-4-8/h6H,2-5H2,1H3	InChI=1S/C8H12O/c1-7(6-9)5-8(7)3-2-4-8/h6H,2-5H2,1H3/t7-/m0/s1
