15
gdb 29389	5.60365	0.87927	0.78126	2.959	72.74	-0.1983	0.022	0.2203	1367.5148	0.113276	-416.851825	-416.843334	-416.84239	-416.885899	30.798	
O	-0.3595677601	 1.3709244256	-0.3726344611	-0.446385
C	-0.0854609706	 0.0634539667	-0.0980697294	 0.333443
C	 0.3863918576	-0.8343647419	-1.0280952389	-0.169816
N	 0.5267719732	-2.0451341154	-0.3826368253	-0.303297
C	 0.1726760295	-1.9236070764	 0.9300435743	 0.359061
C	 0.1755067673	-3.0928377798	 1.875040251	-0.44993
C	 1.2120242193	-4.0746865314	 1.5487625009	 0.260844
N	 2.0151557912	-4.8465320473	 1.2411352932	-0.311549
C	-0.2200191676	-0.6174388741	 1.1439262763	-0.399178
H	-0.6421583989	 1.8016564083	 0.4387419939	 0.297415
H	 0.6351782041	-0.7071469085	-2.0673076263	 0.125951
H	 0.9227261628	-2.8749483728	-0.7913968674	 0.274937
H	 0.3352925017	-2.7374210148	 2.8983108915	 0.169538
H	-0.7898702229	-3.6191811674	 1.8783616789	 0.166735
H	-0.5715838865	-0.2039551708	 2.0780306282	 0.092233
27.9441	103.6511	191.0784	207.8633	274.2271	335.0646	376.9158	427.5373	467.6046	485.9696	625.8789	643.15	679.147	701.4039	757.0426	767.9919	930.7758	939.738	991.3366	1008.0678	1127.7013	1165.6267	1188.0389	1219.2149	1301.6628	1329.2324	1341.1825	1458.2648	1468.1127	1494.6381	1543.7624	1660.1763	2361.6617	3006.4594	3077.7775	3234.0443	3285.8539	3668.575	3848.0178
OC1=CNC(CC#N)=C1	Oc1c[nH]c(CC#N)c1	
InChI=1S/C6H6N2O/c7-2-1-5-3-6(9)4-8-5/h3-4,8-9H,1H2	InChI=1S/C6H6N2O/c7-2-1-5-3-6(9)4-8-5/h3-4,8-9H,1H2
