17
gdb 43950	3.28423	1.52275	1.42554	3.1707	73.52	-0.2438	-0.023	0.2208	956.5472	0.136841	-421.744802	-421.738105	-421.737161	-421.775747	27.591	
O	-0.1582430829	-0.0822235511	-0.4549077725	-0.272766
C	-0.084441798	 1.0648650622	-0.1570848483	 0.323688
C	-1.1654189611	 2.1895718531	 0.2018335513	-0.435486
C	-0.007329111	 2.8452557148	 0.9849881473	 0.224027
C	 1.018789143	 4.0328491253	 1.0813525114	-0.332464
C	 2.0216055326	 2.8035747988	 1.1510609219	 0.043691
O	 1.7175966427	 2.2121077532	 2.3967800933	-0.252744
C	 0.2792070517	 2.1499665488	 2.3349126989	-0.103673
C	 1.0244355032	 2.1432490654	 0.1056987337	-0.110345
H	-1.4505839766	 2.725992864	-0.707221492	 0.134624
H	-2.0642789369	 1.8687054917	 0.7331641427	 0.12736
H	 1.0981737064	 4.6240853477	 0.1691053527	 0.112555
H	 0.9987247532	 4.668151469	 1.970448073	 0.109591
H	 3.0982280955	 2.8867535732	 1.0125581043	 0.096697
H	-0.1621971471	 2.675181614	 3.1890461261	 0.108988
H	-0.0441505203	 1.1007253375	 2.3578991507	 0.118399
H	 1.1151476754	 2.6794558921	-0.8465080143	 0.107856
116.3734	235.6318	330.8026	379.0669	441.025	474.8273	530.3665	600.1481	622.7269	715.8392	734.6673	833.1175	845.6609	874.1413	919.4528	931.3676	962.5516	968.8382	981.4922	1007.5577	1043.2584	1067.3475	1095.7986	1114.8343	1159.775	1171.2775	1184.2065	1198.9892	1235.7916	1249.6394	1282.4578	1328.2239	1375.8767	1462.46	1487.5371	1522.3184	1900.7689	3017.6234	3039.5985	3065.951	3068.1001	3069.9287	3125.99	3143.179	3149.793
O=C1CC23CC(OC2)C13	O=C1C[C@@]23C[C@@H](OC2)[C@@H]13	
InChI=1S/C7H8O2/c8-4-1-7-2-5(6(4)7)9-3-7/h5-6H,1-3H2	InChI=1S/C7H8O2/c8-4-1-7-2-5(6(4)7)9-3-7/h5-6H,1-3H2/t5-,6-,7-/m1/s1
