17
gdb 35488	3.19984	1.53043	1.4443	4.7087	74.11	-0.2439	0.0316	0.2755	955.307	0.139282	-380.844943	-380.838163	-380.837218	-380.876159	27.084	
N	-0.0979279216	-1.1896372041	-0.2640391784	-0.336183
C	-0.059018752	-0.0421638477	-0.1282299003	 0.288542
C	-0.0268301748	 1.4116856121	 0.0398908856	-0.183488
C	-0.6721674386	 1.908208959	 1.3793299917	-0.235405
C	 0.5375975264	 2.3313335292	 2.2176514219	-0.058564
C	 1.5418530613	 1.1593228766	 2.3412562303	-0.169571
N	 2.342316488	 1.6508360497	 1.1644000768	-0.139136
C	 1.547506409	 2.9316966376	 1.2068121354	-0.058288
C	 1.3925783911	 2.000401208	 0.0742773229	-0.023917
H	-0.5572450807	 1.8387239242	-0.8180703164	 0.131212
H	-1.3239111505	 2.7622500076	 1.1714169014	 0.114374
H	-1.2710825674	 1.1316534281	 1.8622127754	 0.127077
H	 0.2946778819	 2.8868856449	 3.1224820301	 0.080995
H	 2.1770972753	 1.2271415928	 3.2267498566	 0.11868
H	 1.1594010412	 0.1376100581	 2.2494901305	 0.126766
H	 2.0002101854	 3.9156785548	 1.1848263196	 0.10265
H	 1.8990039558	 2.1671928891	-0.8695558533	 0.114256
108.7207	156.007	285.236	371.5698	405.2177	493.2139	569.8	628.7847	688.5426	775.7778	792.1272	808.8086	839.7102	887.8718	895.2339	932.5645	982.7059	999.7416	1015.7981	1037.5071	1054.3805	1069.8817	1104.9119	1169.8517	1181.1029	1205.4805	1231.4399	1260.4749	1278.8071	1299.9352	1302.8625	1334.3883	1350.0062	1385.5035	1489.4088	1512.0885	2354.035	3048.7513	3054.5602	3060.0755	3109.5623	3112.745	3124.4883	3178.1106	3189.9371
N#CC1CC2CN3C2C13	N#C[C@H]1C[C@H]2CN3[C@H]2[C@H]13	
InChI=1S/C7H8N2/c8-2-4-1-5-3-9-6(4)7(5)9/h4-7H,1,3H2	InChI=1S/C7H8N2/c8-2-4-1-5-3-9-6(4)7(5)9/h4-7H,1,3H2/t4-,5+,6+,7-,9?/m1/s1
