15
gdb 47622	2.85497	1.43229	0.97798	8.8879	76.96	-0.2361	-0.0554	0.1807	1135.6857	0.115042	-416.86503	-416.857246	-416.856302	-416.897505	28.853	
O	-0.0586043102	-0.0843750302	-0.0290573104	-0.315303
C	-0.0343882863	 1.1260684613	 0.0254337863	 0.307027
C	-1.3214363828	 1.9598498353	 0.012244676	-0.312084
C	-1.1905876565	 3.2596722067	 0.8052740604	-0.186959
N	 0.0110611399	 3.9749478766	 0.3837636827	-0.282113
C	 1.1451559182	 3.2917257856	 0.1466126041	-0.01126
C	 1.2026088116	 1.9261619576	 0.0209698187	-0.0296
C	 2.4603820885	 1.2928152235	-0.175801687	 0.21677
N	 3.4949867881	 0.7949217131	-0.3316378312	-0.344946
H	-1.5472962068	 2.1869429661	-1.0380934327	 0.139451
H	-2.1369722382	 1.347187391	 0.40066236	 0.139865
H	-2.0577607903	 3.9061436053	 0.6495946024	 0.129641
H	-1.1251489075	 3.0368247035	 1.881098945	 0.130357
H	 0.0847449796	 4.9549518356	 0.6008597538	 0.268179
H	 2.0462169329	 3.8891142288	 0.0499785118	 0.150974
95.2297	149.4367	170.2519	244.267	345.4904	377.7872	433.595	468.9328	534.9097	543.8119	591.4556	634.1721	698.7586	772.3272	883.2254	911.034	973.5343	1035.4092	1067.8149	1105.8237	1198.467	1229.5191	1269.9562	1295.1986	1347.0718	1362.5313	1397.6472	1456.032	1498.9275	1538.5966	1657.0625	1780.5354	2337.8586	2994.59	3034.5717	3095.7229	3123.9588	3191.2738	3650.9275
O=C1CCNC=C1C#N	O=C1CCNC=C1C#N	
InChI=1S/C6H6N2O/c7-3-5-4-8-2-1-6(5)9/h4,8H,1-2H2	InChI=1S/C6H6N2O/c7-3-5-4-8-2-1-6(5)9/h4,8H,1-2H2
