14
gdb 132910	3.09447	1.40394	0.97155	4.6055	68.54	-0.2329	-0.0609	0.1721	1109.2504	0.100805	-478.035777	-478.028058	-478.027114	-478.068351	28.474	
C	-0.0308680825	 1.5030864226	 0.0162397309	-0.480223
C	-0.0037240636	 0.0009668806	-0.0094000842	 0.231482
N	-0.0271942515	-0.6139069211	-1.1619310109	-0.369904
C	-0.0039709739	-2.0011708034	-1.2366766173	 0.439638
O	-0.0225485246	-2.6399471466	-2.2651609216	-0.382179
N	 0.0465443163	-2.681802479	 0.0044780843	-0.343449
C	 0.0715772474	-2.0617023099	 1.2109281075	-0.062362
C	 0.046918458	-0.7084007559	 1.2296071529	 0.162288
F	 0.0692466438	-0.0296588151	 2.3835889595	-0.074428
H	 0.8561027501	 1.8947367003	 0.5258984505	 0.146847
H	-0.0682382613	 1.8822439849	-1.0043568616	 0.155081
H	-0.9000327455	 1.8620764853	 0.5779860456	 0.14687
H	 0.0634100376	-3.6895806545	-0.0602390926	 0.2742
H	 0.1100688598	-2.6699352582	 2.1059694771	 0.156139
93.4323	108.9707	206.376	270.4409	344.9554	374.6624	405.7222	483.1409	528.2231	592.511	612.3296	691.5932	734.939	789.6648	801.4903	897.0722	912.7626	1031.2653	1053.5345	1119.6239	1171.2959	1220.3328	1333.3092	1395.9067	1416.7299	1464.425	1475.5249	1486.0811	1570.6423	1709.7584	1812.9612	3042.6796	3098.0775	3164.601	3217.6049	3615.5813
CC1=NC(=O)NC=C1F	Cc1nc(=O)[nH]cc1F	
InChI=1S/C5H5FN2O/c1-3-4(6)2-7-5(9)8-3/h2H,1H3,(H,7,8,9)	InChI=1S/C5H5FN2O/c1-3-4(6)2-7-5(9)8-3/h2H,1H3,(H,7,8,9)
