17
gdb 90108	2.91548	1.51581	1.34717	3.1479	69.48	-0.2389	0.0421	0.281	993.7379	0.134548	-458.800994	-458.793396	-458.792451	-458.832535	30.816	
O	 0.1750482623	 1.4559872301	-0.0891821669	-0.407353
C	 0.0805822581	 0.0599314673	-0.0046053399	 0.057043
C	 0.1903128255	-0.5841646995	 1.4773565219	-0.387046
C	-1.3362825821	-0.5795181058	 1.3997874176	 0.333008
O	-2.6314932715	-1.3444056534	 1.4709273884	-0.416105
C	-2.8024194353	-0.2109927	 0.434170203	-0.065109
C	-2.199168302	 0.736643288	 1.473550432	 0.155678
O	-2.9117987242	 0.9805654087	 2.6364400286	-0.452204
C	-1.3756895611	-0.5616790611	-0.0957243865	-0.038877
H	 1.0812510727	 1.7115949856	 0.1129769429	 0.293137
H	 0.75418376	-0.4256503297	-0.721340611	 0.092121
H	 0.647088727	-1.5754881781	 1.4269425872	 0.123255
H	 0.6638090858	 0.0145993159	 2.2608077516	 0.112916
H	-3.7738269135	-0.219258892	-0.0673134609	 0.09644
H	-1.7428401777	 1.6583448129	 1.1224762456	 0.122342
H	-3.2791791255	 0.1188620993	 2.885396158	 0.285285
H	-1.3355252184	-1.550393008	-0.5528109417	 0.095468
175.5154	210.1482	240.7547	267.0628	334.6343	388.2252	405.2141	442.8431	574.4178	607.5849	638.7936	704.1497	713.37	769.8932	786.7861	857.1663	874.3177	919.7317	967.1104	1000.9198	1013.2905	1078.0631	1094.6289	1143.5419	1148.0594	1175.9198	1188.2685	1201.2796	1210.8207	1238.5465	1272.0612	1310.5291	1314.3658	1344.1403	1412.0721	1464.9121	1471.8556	3018.5055	3055.6311	3083.3929	3114.8989	3123.4137	3170.2963	3722.1491	3810.6777
OC1CC23OC(C2O)C13	O[C@H]1C[C@@]23O[C@@H]([C@H]2O)[C@@H]13	
InChI=1S/C6H8O3/c7-2-1-6-3(2)4(9-6)5(6)8/h2-5,7-8H,1H2	InChI=1S/C6H8O3/c7-2-1-6-3(2)4(9-6)5(6)8/h2-5,7-8H,1H2/t2-,3+,4+,5+,6-/m0/s1
