20
gdb 75039	2.46533	1.64584	1.14811	1.777	89.33	-0.2	-0.017	0.183	1132.8923	0.173041	-366.001774	-365.993611	-365.992667	-366.034541	32.012	
C	-0.1054343049	 1.5456255967	 0.0740564827	-0.484919
C	 0.0054121559	 0.0443076816	-0.0192936674	 0.333257
C	-0.0576438806	-0.5723830759	-1.2132974108	-0.187003
C	 0.0151983767	-1.9941437285	-1.5253725065	-0.041735
C	-0.2715975684	-3.0388339108	-0.7395028439	-0.083878
C	-0.8026473685	-2.9946571497	 0.6680759427	-0.282542
C	-0.121119891	-2.0354269978	 1.6351800764	-0.018732
N	 1.2766265623	-1.6763062965	 1.4130586519	-0.325372
C	 0.2281221441	-0.6261898918	 1.2935037677	-0.121312
H	 0.8008634276	 1.9849714688	 0.5116481709	 0.125814
H	-0.2658830981	 2.0016341343	-0.905687674	 0.121403
H	-0.938074827	 1.8420537242	 0.7262063602	 0.122518
H	-0.1471704576	 0.0736989874	-2.0853138843	 0.076126
H	 0.3225840737	-2.2137780864	-2.5463749043	 0.080196
H	-0.1477573994	-4.0331739774	-1.160136946	 0.086198
H	-1.8725316235	-2.7337007744	 0.6538092535	 0.115416
H	-0.7513989838	-4.0028261991	 1.096686632	 0.103009
H	-0.4347360782	-2.1911046131	 2.6688744616	 0.078067
H	 1.7674858902	-1.5735812975	 2.2971614855	 0.230477
H	 0.1656648805	 0.066368666	 2.1316238023	 0.073013
56.1005	175.9584	219.3841	247.9312	280.0277	327.6609	392.8638	462.799	482.4988	570.2023	660.847	707.0981	740.8669	794.4282	825.3656	881.2398	899.7722	919.747	935.3198	979.6995	997.8168	1012.8206	1036.1737	1065.4149	1081.5023	1117.8508	1167.9013	1181.0845	1218.7622	1245.6093	1273.3588	1285.4597	1374.6914	1384.3891	1411.0923	1422.4343	1442.2455	1477.6881	1478.4036	1483.851	1496.8847	1691.7444	1717.0756	2987.9016	3008.9511	3043.1454	3052.0748	3084.3748	3110.0217	3116.1945	3124.8046	3139.0979	3164.1773	3501.5514
CC1=CC=CCC2NC12	CC1=CC=CC[C@H]2N[C@@H]12	
InChI=1S/C8H11N/c1-6-4-2-3-5-7-8(6)9-7/h2-4,7-9H,5H2,1H3	InChI=1S/C8H11N/c1-6-4-2-3-5-7-8(6)9-7/h2-4,7-9H,5H2,1H3/t7-,8+/m1/s1
