17
gdb 54475	3.17484	1.46398	1.15629	3.7974	74.45	-0.2281	-0.0221	0.2059	1063.0562	0.135597	-418.024213	-418.015859	-418.014914	-418.057228	31.295	
C	 0.7764505597	 1.1562406117	 0.1384572436	-0.512045
C	-0.3368987235	 0.1606219568	-0.1428555714	 0.32418
O	-1.2863582084	 0.0358258385	 0.6036690373	-0.322204
C	-0.2154681134	-0.6842164693	-1.3568005659	 0.228445
C	-1.4036975472	-1.4503197635	-1.8854162918	-0.318562
C	-0.310149183	-2.2691967357	-1.276101062	-0.024332
N	 0.7301475613	-2.7785462714	-2.1095575518	-0.237445
C	 1.3257967771	-1.7734540213	-2.6441949748	 0.039864
N	 0.856812946	-0.5214320524	-2.3042417689	-0.374412
H	 1.7530906473	 0.6605954116	 0.1556603557	 0.141382
H	 0.8113065284	 1.92791839	-0.6406641922	 0.137014
H	 0.5894390886	 1.6346842616	 1.0999722381	 0.151626
H	-2.3016140441	-1.3420847666	-1.2888540351	 0.146594
H	-1.5336743075	-1.4764068081	-2.962152246	 0.121553
H	-0.4963206299	-2.778490807	-0.3369718213	 0.117141
H	 2.1427134706	-1.8639659941	-3.3523187114	 0.132377
H	 1.449148388	 0.2919731294	-2.3091277322	 0.248825
70.2112	149.0865	160.6728	198.3006	250.5335	350.5813	385.2033	439.4421	492.2581	541.5917	596.4047	642.3521	673.659	767.58	862.4366	910.3162	927.1948	943.7003	956.3569	1021.8907	1051.4075	1067.4483	1079.8001	1121.4248	1137.8598	1152.9069	1253.4539	1302.3139	1340.9325	1358.4866	1375.5273	1435.7332	1454.9074	1468.0272	1479.3788	1639.7581	1779.1945	3029.5609	3092.6706	3135.2092	3155.735	3176.1647	3200.8658	3238.9236	3652.9168
CC(=O)C12CC1N=CN2	CC(=O)[C@]12C[C@H]1N=CN2	
InChI=1S/C6H8N2O/c1-4(9)6-2-5(6)7-3-8-6/h3,5H,2H2,1H3,(H,7,8)	InChI=1S/C6H8N2O/c1-4(9)6-2-5(6)7-3-8-6/h3,5H,2H2,1H3,(H,7,8)/t5-,6-/m1/s1
