18
gdb 86729	3.57251	1.0817	0.89822	3.4097	77.96	-0.2204	-0.0117	0.2087	1294.8472	0.147317	-439.126558	-439.117571	-439.116627	-439.160737	32.902	
C	-0.0211566494	 1.4824893975	 0.1027477675	-0.502251
C	 0.0133172966	-0.0360022091	 0.0494268901	 0.397195
O	 1.0513120863	-0.6719240271	 0.0633214139	-0.359428
N	-1.2005437189	-0.6782601335	-0.0205858299	-0.097017
C	-1.2975713331	-2.1449657439	-0.1026154808	-0.197516
C	-2.8188449769	-2.4480194761	 0.0218603422	 0.072101
O	-3.1728154047	-3.1137611509	 1.2313928808	-0.425848
C	-3.4400203442	-1.0755474124	-0.0929719777	-0.221587
C	-2.4864859199	-0.1379896329	-0.0578148263	 0.0102
H	 1.0071094919	 1.8357637359	 0.1695986543	 0.152306
H	-0.4864135311	 1.9028901207	-0.7947946441	 0.141186
H	-0.5824684606	 1.8432081892	 0.9706373885	 0.139097
H	-0.8830427558	-2.484140516	-1.0563149974	 0.129804
H	-0.729109965	-2.6180095347	 0.7002394763	 0.140833
H	-3.1411209712	-3.1358606572	-0.7649264836	 0.100712
H	-3.1019166074	-2.4692939634	 1.9449102055	 0.275562
H	-4.5045798618	-0.895606459	-0.1188777881	 0.109817
H	-2.6070636749	 0.9357695329	-0.0639040413	 0.134834
57.3471	105.0397	152.1789	157.7059	203.838	311.8869	338.7397	360.3362	429.8608	534.1866	569.3456	593.7063	629.1034	750.11	786.0035	846.845	860.7207	934.4304	951.485	961.0319	1033.9376	1051.3622	1075.9012	1094.1458	1144.2165	1202.1039	1245.4817	1266.5173	1312.7514	1316.3238	1371.2453	1396.2662	1424.1131	1443.0948	1476.0598	1486.8301	1500.177	1664.4404	1767.8784	3043.9431	3061.1476	3075.5717	3106.7899	3122.2507	3163.4171	3234.1008	3256.1363	3794.516
CC(=O)N1CC(O)C=C1	CC(=O)N1C[C@@H](O)C=C1	
InChI=1S/C6H9NO2/c1-5(8)7-3-2-6(9)4-7/h2-3,6,9H,4H2,1H3	InChI=1S/C6H9NO2/c1-5(8)7-3-2-6(9)4-7/h2-3,6,9H,4H2,1H3/t6-/m0/s1
