20
gdb 122861	3.98296	0.66561	0.60142	2.4091	74.75	-0.2472	0.0646	0.3118	1889.4268	0.169009	-477.452335	-477.441411	-477.440467	-477.490625	36.39	
C	-0.3349129354	 1.3176111927	-0.5448331898	-0.227583
O	-0.1191325732	-0.0105324383	-0.1289249331	-0.2391
C	 0.6586665829	-0.7607245615	-1.0405068344	-0.058289
C	 0.7457970333	-2.1832353332	-0.5071672065	-0.170188
N	-0.5663568964	-2.7767262677	-0.3702386286	-0.362098
C	-0.9184811635	-3.9293227624	-0.9964957391	 0.525296
O	-0.1899527589	-4.6253723852	-1.670935871	-0.421585
O	-2.2270033143	-4.2043209954	-0.7507910703	-0.26658
C	-2.7025624376	-5.4094077439	-1.3513464208	-0.229917
H	 0.6121528373	 1.86897584	-0.651852989	 0.107728
H	-0.8684259581	 1.3619814045	-1.5070975025	 0.10832
H	-0.9428951787	 1.8061612977	 0.2203726246	 0.129393
H	 0.1918382128	-0.7562315109	-2.0391826044	 0.096183
H	 1.6695634644	-0.330962562	-1.1375006037	 0.090618
H	 1.3190738511	-2.813527413	-1.1900626551	 0.14598
H	 1.2622415141	-2.1678039048	 0.4614652731	 0.113859
H	-1.2783988686	-2.2517104211	 0.1101669555	 0.258923
H	-2.6113063092	-5.3675139106	-2.4400750618	 0.135576
H	-2.1430260963	-6.2754619195	-0.9878575831	 0.136879
H	-3.7514274156	-5.4889703151	-1.0628393597	 0.126586
22.5301	62.6633	90.7868	96.4342	108.8113	153.0699	201.3903	230.9102	282.2051	323.1021	354.3473	500.9051	510.1301	545.2325	697.3334	780.7659	838.6075	913.0958	965.7041	1047.3318	1082.5279	1119.7881	1161.5226	1181.5745	1182.8914	1190.2756	1214.1737	1220.9429	1247.5766	1260.9752	1300.5033	1394.1388	1421.7621	1467.4456	1480.3205	1480.432	1484.0362	1486.7998	1501.395	1501.6449	1523.1587	1549.3388	1813.2182	2960.4035	2976.9352	2994.8115	3020.9143	3027.7277	3047.0921	3115.8995	3119.2075	3125.2325	3149.4231	3657.0296
COCCNC(=O)OC	COCCNC(=O)OC	
InChI=1S/C5H11NO3/c1-8-4-3-6-5(7)9-2/h3-4H2,1-2H3,(H,6,7)	InChI=1S/C5H11NO3/c1-8-4-3-6-5(7)9-2/h3-4H2,1-2H3,(H,6,7)
