18
gdb 24273	3.82095	1.61663	1.25496	2.0926	82.15	-0.1932	0.0469	0.2401	1000.3213	0.15167	-364.842993	-364.836412	-364.835468	-364.873765	27.499	
C	-0.0571170925	 1.457939073	 0.1246082816	-0.299118
C	 1.2873762893	 0.7687655837	 0.0216510555	-0.041349
C	 2.0408058068	 0.4195323052	 1.3134544869	-0.373827
C	 1.0771568056	-0.4875115053	 2.0317849118	 0.332603
C	 0.8753211915	-1.1169519022	 3.2388697096	-0.317976
C	-0.3738432263	-1.8002321253	 3.142613068	-0.140331
C	-0.9013652975	-1.5542412866	 1.8914039306	-0.14571
N	 0.0004802338	-0.7683781085	 1.2235554207	 0.025468
C	 0.0111015125	-0.0438429598	-0.0137158604	-0.014837
H	-0.372743642	 1.8541067757	 1.0842191132	 0.128691
H	-0.3848653578	 2.0292092243	-0.7376221383	 0.116649
H	 1.8617226401	 0.917071506	-0.8844979109	 0.096247
H	 2.9860029398	-0.0854968994	 1.0776234443	 0.116441
H	 2.2960188065	 1.3119256623	 1.8961216318	 0.120487
H	 1.5407378567	-1.1079475484	 4.0885618035	 0.089448
H	-0.8281072296	-2.4158202484	 3.9046222898	 0.089376
H	-1.8216747246	-1.8742286962	 1.4302647418	 0.111028
H	-0.3567669522	-0.5597892001	-0.8922887695	 0.106711
120.8174	217.3543	318.1238	415.7197	438.3138	610.3028	616.5758	660.8104	697.1193	709.4733	760.229	764.106	801.4554	812.6702	824.7877	896.9835	922.6754	970.0938	997.3741	1031.4182	1049.8315	1067.3719	1080.4498	1093.3	1105.0136	1170.1041	1185.437	1198.9121	1230.578	1291.8843	1310.1498	1335.8918	1359.613	1439.1039	1448.5609	1477.5494	1495.0029	1503.0529	1591.0451	3023.0758	3056.7145	3128.8256	3181.4268	3188.5684	3220.5101	3236.6708	3251.3349	3269.1244
C1C2CC3=CC=CN3C12	C1[C@H]2Cc3cccn3[C@@H]12	
InChI=1S/C8H9N/c1-2-7-4-6-5-8(6)9(7)3-1/h1-3,6,8H,4-5H2	InChI=1S/C8H9N/c1-2-7-4-6-5-8(6)9(7)3-1/h1-3,6,8H,4-5H2/t6-,8+/m1/s1
