19
gdb 87434	4.24537	1.20702	1.10357	1.9235	79.56	-0.2305	0.0849	0.3155	1149.5614	0.158412	-385.773624	-385.766052	-385.765108	-385.805517	30.44	
C	-0.0591604446	 1.5546159039	-0.0842199865	-0.403792
C	 0.0061434502	 0.0432523922	-0.0326473905	-0.081502
C	 1.33372997	-0.6740885975	-0.2604091119	-0.378053
C	 0.6879080158	-0.6697515047	 1.0885174668	 0.399663
C	 1.1924211348	-0.1946606996	 2.4512331365	-0.216875
C	-0.0360743298	-0.8287688926	 3.1852393362	 0.110873
O	 0.7656536546	-1.5718979385	 4.1494710193	-0.336537
C	 1.5093471881	-1.6613098718	 2.8989035863	 0.112432
C	 0.238928731	-1.8115353129	 1.9976013501	-0.221069
H	 0.8402202357	 2.0026593836	 0.3512648126	 0.113517
H	-0.1411746285	 1.9135953901	-1.1161637415	 0.117878
H	-0.922062993	 1.9386528835	 0.471648251	 0.115949
H	-0.8645434868	-0.4587010387	-0.4504965613	 0.082498
H	 1.3318771205	-1.5911266237	-0.8417008278	 0.10956
H	 2.2143064315	-0.0556446692	-0.4114357484	 0.109111
H	 1.7331974583	 0.7065826276	 2.7380791782	 0.085162
H	-0.9683673827	-0.371559524	 3.5152836207	 0.098086
H	 2.4501359763	-2.2103889932	 2.8811810505	 0.098838
H	-0.2988248614	-2.7311520547	 1.7680316597	 0.084262
122.4524	158.1649	191.8506	228.2782	340.8537	407.4816	505.6186	557.9365	592.7931	750.3993	787.1153	796.2387	807.0852	820.8161	866.9424	882.3077	896.3514	910.5272	959.1759	969.5797	1008.5637	1034.5789	1042.6699	1084.3762	1105.3243	1122.25	1141.3602	1143.2394	1151.8499	1155.8096	1172.6095	1180.4291	1220.04	1234.1973	1327.8379	1353.3108	1413.5163	1441.9619	1491.7867	1496.3451	1518.2724	3025.061	3086.5559	3092.6607	3114.5769	3116.3967	3122.3453	3123.6203	3124.8329	3138.8239	3197.8481
CC1CC11C2C3OC2C13	C[C@H]1C[C@]21[C@H]1[C@@H]3O[C@H]1[C@H]23	
InChI=1S/C8H10O/c1-3-2-8(3)4-6-5(8)7(4)9-6/h3-7H,2H2,1H3	InChI=1S/C8H10O/c1-3-2-8(3)4-6-5(8)7(4)9-6/h3-7H,2H2,1H3/t3-,4-,5+,6-,7+,8-/m0/s1
