18
gdb 28427	3.10206	1.36139	0.95731	0.8222	84.04	-0.2206	-0.0121	0.2086	1228.0161	0.148236	-402.04054	-402.031864	-402.030919	-402.07402	32.351	
C	 0.0108408635	 1.4937039204	 0.0775252026	-0.467048
C	 0.0297353866	-0.0088914503	-0.0112704182	 0.315503
C	 0.0776119874	-0.6813821503	-1.2261563042	-0.181936
C	 0.092334369	-2.0781821879	-1.2240420717	-0.143364
C	 0.0598458496	-2.7866563005	-0.0331517191	 0.176322
C	 0.0729520787	-4.2875266725	 0.0485020142	-0.489918
C	 0.0124394989	-1.9979197805	 1.1315106399	 0.360037
O	-0.0208109052	-2.6372821671	 2.3245880562	-0.415971
N	-0.0023699096	-0.6762847131	 1.156417371	-0.418098
H	 0.0392916261	 1.9549367627	-0.9124466064	 0.118014
H	-0.8904700013	 1.8362803989	 0.5966068162	 0.136049
H	 0.8677502505	 1.8548836259	 0.6558174509	 0.136049
H	 0.1030255289	-0.128347598	-2.1577834329	 0.090068
H	 0.1296252128	-2.6217884502	-2.1640181686	 0.098252
H	 0.9355744793	-4.6477377788	 0.6196812137	 0.137604
H	-0.8181109925	-4.6662331582	 0.5610500276	 0.137606
H	 0.1110118531	-4.7325549687	-0.949296735	 0.116943
H	-0.0506778656	-1.9387101516	 2.993217624	 0.293888
72.8746	118.5166	128.1492	231.2298	275.9578	300.618	319.6691	453.5064	472.5083	514.5774	558.4212	587.4795	644.3203	732.1649	766.2635	790.9337	832.677	956.3497	964.6152	1018.0776	1030.7288	1058.4273	1067.862	1132.4546	1190.8699	1240.0391	1280.5082	1341.277	1346.5312	1407.9851	1415.9632	1449.0435	1475.699	1477.3022	1484.509	1500.3321	1520.9515	1630.1681	1653.9004	3033.1562	3038.3328	3086.1156	3095.9404	3115.5501	3125.2768	3168.2111	3198.1345	3763.8845
CC1=CC=C(C)C(O)=N1	Cc1ccc(C)c(O)n1	
InChI=1S/C7H9NO/c1-5-3-4-6(2)8-7(5)9/h3-4H,1-2H3,(H,8,9)	InChI=1S/C7H9NO/c1-5-3-4-6(2)8-7(5)9/h3-4H,1-2H3,(H,8,9)
