21
gdb 53008	4.01333	0.88004	0.82073	0.2166	93.37	-0.2199	0.0608	0.2807	1518.6278	0.183307	-349.943508	-349.934345	-349.933401	-349.978961	34.19	
C	-0.0033122932	 1.5045471211	-0.2073518724	-0.506318
C	-0.015479853	 0.0535247334	-0.0887917897	 0.23472
C	-0.0301061866	-1.1485240615	 0.0049889693	-0.191203
C	-0.0189717316	-2.5757029223	 0.1400496217	 0.220365
C	-0.3510506758	-3.4436441536	-1.0666599537	-0.331561
C	-1.2986442842	-3.4140205047	 0.099982033	-0.064843
C	-1.1777915644	-4.5123386324	 1.1440948636	-0.214065
C	 0.3380987642	-4.6244748536	 1.4290207051	-0.235599
C	 0.9015839595	-3.2063542135	 1.1909616427	-0.27343
H	 0.7097864724	 1.9529676869	 0.4937328294	 0.145413
H	 0.2834794685	 1.8237105919	-1.2159719833	 0.143928
H	-0.9884915678	 1.9344580567	 0.0074213741	 0.143598
H	-0.654189027	-2.9157362955	-1.9630283336	 0.118333
H	 0.2481769822	-4.3296932139	-1.2517983117	 0.109476
H	-2.2551050982	-2.9223389178	-0.0354820967	 0.09028
H	-1.7169792738	-4.2075252805	 2.0489711707	 0.101456
H	-1.6090861546	-5.4650660949	 0.8171589343	 0.097744
H	 0.5462205215	-4.9883313171	 2.4384646268	 0.098995
H	 0.8002075477	-5.3378446015	 0.7396400627	 0.105263
H	 1.9510382296	-3.2171118721	 0.8793770914	 0.100504
H	 0.8410934746	-2.6061511553	 2.1054910463	 0.106944
16.2188	91.9017	94.244	226.5512	243.9784	294.2582	326.2179	377.67	439.4636	519.6653	537.0617	618.6834	652.0674	800.113	809.7161	875.6028	886.58	893.3715	942.4722	975.0243	979.8956	1004.3194	1052.602	1054.3743	1065.3371	1077.505	1101.7455	1116.2397	1177.2798	1201.8637	1247.488	1258.868	1294.874	1318.0472	1338.8938	1345.4933	1404.0945	1417.4988	1478.05	1480.3266	1481.362	1490.5616	1494.9609	1516.733	2363.9777	3021.0376	3030.3216	3040.6683	3051.1085	3068.9315	3078.3162	3079.5103	3081.3397	3100.7372	3130.377	3176.2746	3220.4946
CC#CC12CC1CCC2	CC#C[C@]12C[C@H]1CCC2	
InChI=1S/C9H12/c1-2-5-9-6-3-4-8(9)7-9/h8H,3-4,6-7H2,1H3	InChI=1S/C9H12/c1-2-5-9-6-3-4-8(9)7-9/h8H,3-4,6-7H2,1H3/t8-,9+/m1/s1
