20
gdb 107032	3.95493	1.12564	0.99782	0.7276	80.53	-0.2177	0.0147	0.2325	1248.8094	0.170802	-403.123428	-403.1146	-403.113656	-403.156774	33.815	
C	-0.25227603	 1.5368327486	 0.0800620304	-0.392059
C	 0.0591003735	 0.0399660754	 0.0123935679	-0.003383
C	 0.6999740014	-0.440646544	-1.2768852129	-0.094236
C	 1.7985406211	-1.1506135614	-1.0259143543	-0.147262
C	 2.0573579826	-1.1919201167	 0.4460926961	 0.327029
C	 2.5030728636	-2.4763689694	 1.0953931931	-0.182163
O	 3.7897419294	-2.7925236469	 0.5767862094	-0.423245
C	 2.3432264482	 0.1418545944	 1.0480300121	-0.278519
N	 0.9795974706	-0.4121720137	 1.0928550753	-0.162982
H	 0.6389206678	 2.145572159	-0.0969990923	 0.117561
H	-0.9968719512	 1.8033991433	-0.6765895298	 0.115602
H	-0.6569952437	 1.7944338728	 1.0628541535	 0.127795
H	-0.8888081553	-0.4959513241	 0.1712489546	 0.088547
H	 0.2967728163	-0.2102535835	-2.2568981918	 0.096744
H	 2.4463924802	-1.634054357	-1.7455822186	 0.111291
H	 2.5215859711	-2.3409634334	 2.1865647194	 0.095501
H	 1.7764319093	-3.2727233301	 0.8696980355	 0.089097
H	 4.036232437	-3.6633766571	 0.9013437705	 0.289326
H	 2.8205242406	 0.2104159842	 2.022560857	 0.111827
H	 2.5721455876	 0.9539167796	 0.3640045447	 0.113528
73.4875	128.5423	203.2747	223.485	243.538	256.9432	318.45	376.2142	404.1832	500.3713	571.486	665.4734	725.2302	761.2701	787.7216	818.3774	853.7902	916.2672	948.868	959.1082	963.6486	1031.8936	1063.3118	1067.8371	1091.4153	1108.8991	1116.7661	1142.5493	1168.489	1212.0523	1238.9716	1281.0001	1324.6871	1349.8097	1366.1026	1373.6242	1404.9444	1464.6136	1489.3552	1497.8762	1498.7218	1520.9923	1670.4167	2975.0341	2981.6653	3015.27	3041.652	3102.1714	3111.2747	3120.1962	3190.0589	3192.592	3226.8066	3832.6379
CC1C=CC2(CO)CN12	C[C@H]1C=C[C@@]2(CO)CN12	
InChI=1S/C7H11NO/c1-6-2-3-7(5-9)4-8(6)7/h2-3,6,9H,4-5H2,1H3	InChI=1S/C7H11NO/c1-6-2-3-7(5-9)4-8(6)7/h2-3,6,9H,4-5H2,1H3/t6-,7-,8?/m0/s1
