22
gdb 89060	4.30963	0.69935	0.67117	1.3839	84.15	-0.2417	0.0797	0.3214	1780.7042	0.193119	-404.295944	-404.286113	-404.285168	-404.331953	35.898	
C	 0.6686632882	 1.3464779597	-0.4356881965	-0.393984
C	-0.0133521351	 0.1206420314	 0.126542709	 0.000188
N	 0.8225080627	-1.0652428002	 0.3778949623	-0.335107
C	 0.170718568	-0.3900566021	 1.5126436472	-0.026377
C	 1.0653968172	 0.2549534016	 2.536290026	-0.060874
O	 1.3244798269	-0.7037850431	 3.551174218	-0.254524
C	 2.1718510633	-0.2295025757	 4.5480786823	 0.153666
C	 2.9707542211	-1.2546922444	 5.2827217474	-0.288457
C	 3.6637672838	-0.2935623285	 4.3349983062	-0.287882
H	 1.6739152701	 1.4664354271	-0.0265424298	 0.12803
H	 0.7609031615	 1.2652388385	-1.5241163407	 0.120077
H	 0.0914419695	 2.2510796253	-0.214880204	 0.114969
H	-1.0027372455	-0.0602561368	-0.2938321612	 0.080213
H	 0.3266820706	-1.9186026365	 0.1367567738	 0.230196
H	-0.6896235109	-0.8843612203	 1.9617684569	 0.087281
H	 2.004120311	 0.5867823287	 2.0743116939	 0.099736
H	 0.5691922987	 1.1390329804	 2.9725067159	 0.082622
H	 1.7750004193	 0.6185203344	 5.1094317182	 0.07814
H	 3.1125157681	-1.1339282992	 6.3507284775	 0.111555
H	 2.8581394413	-2.2799296933	 4.949527027	 0.125706
H	 4.001805758	-0.6993976485	 3.3880576112	 0.125177
H	 4.2882072822	 0.4915515215	 4.7471995996	 0.10965
44.4743	53.5115	101.801	136.965	178.0982	216.8144	278.2615	357.8136	407.7088	427.9907	489.7006	531.9058	758.4424	771.1682	815.8309	820.954	868.3765	881.6232	960.3295	968.9396	974.8341	1003.1909	1041.5642	1050.0512	1058.7294	1073.0382	1097.5916	1102.4061	1128.6587	1161.1339	1194.0952	1201.8468	1216.2604	1242.1606	1254.2798	1278.2094	1282.2284	1357.0376	1396.1588	1414.1026	1438.0549	1453.0208	1475.1293	1490.4683	1495.9858	1505.3978	1513.7112	2958.6552	3034.5912	3038.3166	3080.7987	3094.5298	3098.2157	3119.9487	3133.0582	3134.7711	3141.7523	3220.1709	3234.7644	3509.8844
CC1NC1COC1CC1	C[C@H]1N[C@H]1COC1CC1	
InChI=1S/C7H13NO/c1-5-7(8-5)4-9-6-2-3-6/h5-8H,2-4H2,1H3	InChI=1S/C7H13NO/c1-5-7(8-5)4-9-6-2-3-6/h5-8H,2-4H2,1H3/t5-,7+/m1/s1
