16
gdb 70139	2.49927	2.01226	1.28078	3.6451	72.46	-0.2228	-0.0097	0.2131	958.1591	0.12639	-434.075696	-434.068322	-434.067378	-434.107186	29.566	
O	 0.0246159482	 1.3544828724	 0.0246931292	-0.478481
C	 0.0296223539	-0.0280617312	-0.0133792125	 0.397085
C	-0.4837746423	-0.7010931616	-1.2607659508	-0.345217
C	-1.3022277609	-0.8001005359	 0.0082211123	-0.070969
N	-1.3966678884	-2.0607653658	 0.6646320457	-0.224549
C	-0.3203263904	-2.5843929488	 1.0868899226	 0.065714
N	 0.9471470521	-1.9989610916	 1.0458867625	-0.363143
C	 1.1305119771	-0.6512564596	 0.7591496537	 0.319507
N	 2.1064542954	 0.0890797736	 1.1246711296	-0.566425
H	 0.8659176857	 1.592060255	 0.4493540368	 0.29714
H	-0.8442539427	-0.0188628099	-2.021731424	 0.137749
H	-0.0012868081	-1.6017684819	-1.6247116239	 0.125341
H	-2.2026730523	-0.1975665935	 0.0542377998	 0.116817
H	-0.3318265002	-3.5708723777	 1.5462766225	 0.12579
H	 1.6850085044	-2.4609985304	 1.5569955472	 0.252179
H	 2.7880973685	-0.3943797931	 1.7078778292	 0.211462
109.8973	209.2485	299.1261	335.2123	353.5092	416.6224	468.9118	509.6634	522.3116	554.3132	619.6921	682.2079	721.5382	813.2778	840.2741	871.95	904.0749	908.3249	938.1695	994.6333	1039.8208	1047.5894	1087.249	1134.5899	1165.7055	1208.5927	1260.2023	1323.2676	1409.462	1424.6989	1450.1268	1466.468	1478.8059	1716.9139	1728.918	3135.476	3152.7173	3175.5018	3235.1916	3487.0409	3609.3967	3668.2921
OC12CC1N=CNC2=N	O[C@]12C[C@H]1N=CN[C]2[NH]	
InChI=1S/C5H7N3O/c6-4-5(9)1-3(5)7-2-8-4/h2-3,9H,1H2,(H2,6,7,8)	InChI=1S/C5H7N3O/c6-4-5(9)1-3(5)7-2-8-4/h2-3,9H,1H2,(H2,6,7,8)/t3-,5-/m1/s1
