14
gdb 133129	2.58927	1.53597	0.96988	3.1455	65.64	-0.2639	-0.0355	0.2283	1109.3383	0.101726	-478.01961	-478.011946	-478.011001	-478.052574	27.423	
O	 0.000644873	 1.4415533666	 0.0077553379	-0.417539
C	 0.0229618084	 0.0285496145	 0.0019391101	-0.174876
C	-1.3941163793	-0.4766764526	 0.0121248481	 0.05578
C	-2.5171618751	 0.3415320217	 0.0236026773	-0.027496
N	-3.770265826	-0.1364554515	 0.0324285337	-0.259382
C	-3.8885781364	-1.4583903286	 0.029638326	 0.071011
N	-2.8900313408	-2.3518920516	 0.019026682	-0.308114
C	-1.6855168323	-1.8397995391	 0.0106297956	 0.312906
F	-0.6673009231	-2.6973122674	-0.0000140327	-0.063989
H	 0.9079163348	 1.7582602421	 0.0019611091	 0.29888
H	 0.5405122757	-0.3675163569	-0.8866626045	 0.118187
H	 0.5557518946	-0.3746371619	 0.8782184983	 0.118185
H	-2.3953050184	 1.419002897	 0.0257321761	 0.147297
H	-4.8957739751	-1.8659125623	 0.0367303429	 0.12915
53.2059	161.2828	191.7756	214.5702	280.2289	339.4955	431.4002	531.3162	562.6841	597.2908	623.3966	792.0338	800.5506	896.0471	956.8835	1005.9812	1052.1645	1085.5791	1148.4958	1199.3553	1216.5176	1251.9815	1274.6684	1325.4647	1334.036	1433.3051	1460.7465	1490.6863	1510.1044	1599.2103	1646.0044	2969.3218	2989.0898	3176.6545	3204.5105	3846.3383
OCC1=CN=CN=C1F	OCc1cncnc1F	
InChI=1S/C5H5FN2O/c6-5-4(2-9)1-7-3-8-5/h1,3,9H,2H2	InChI=1S/C5H5FN2O/c6-5-4(2-9)1-7-3-8-5/h1,3,9H,2H2
