17
gdb 16751	5.07839	1.53746	1.32689	2.4939	70.66	-0.2374	0.0286	0.2661	958.3545	0.142794	-363.863955	-363.856518	-363.855573	-363.896157	27.581	
C	-0.2094779383	 1.397568231	-0.2646652373	-0.329121
N	-0.1498049369	-0.0548669675	-0.2241034595	-0.31661
C	 0.7631932722	-0.6561311598	-0.8447255827	 0.414576
C	 0.9434176358	-2.1679481238	-0.8981097198	-0.328547
C	 2.0248778308	-2.3759861012	-1.9397853456	-0.070362
C	 1.7731799002	-1.8028900696	-3.3236783459	-0.314376
C	 2.5069294248	-0.9972856717	-2.291423022	 0.09894
O	 1.7506013031	-0.0371061293	-1.5841985407	-0.245153
H	 0.2294012087	 1.8115097068	 0.6519804958	 0.124055
H	 0.3135176821	 1.8399508972	-1.1205364643	 0.120613
H	-1.2584944065	 1.7092463009	-0.2852110057	 0.119279
H	 1.26599017	-2.5316484141	 0.0831755729	 0.132987
H	-0.0083586474	-2.6532478606	-1.127822115	 0.136126
H	 2.7140394939	-3.2039563677	-1.8321533531	 0.099472
H	 2.3510682289	-2.2139316323	-4.1442232682	 0.120793
H	 0.7669569795	-1.4900769893	-3.5855738378	 0.127756
H	 3.543768079	-0.7068630288	-2.402874591	 0.109572
66.1982	85.5855	228.0601	235.6443	304.6363	426.1925	492.6404	586.8467	675.9179	692.3991	779.5345	811.4199	831.8151	906.2577	943.0899	1002.0972	1029.8064	1044.8869	1066.1094	1071.2257	1094.546	1126.9534	1136.7497	1163.6949	1188.6723	1194.7557	1208.7886	1297.4509	1348.6291	1388.7681	1438.4609	1468.7209	1480.9315	1491.0048	1499.8506	1803.0986	3013.4998	3056.6529	3070.9002	3091.6894	3101.8019	3128.122	3187.9802	3196.9131	3220.4985
CN=C1CC2CC2O1	CN=C1C[C@H]2C[C@H]2O1	
InChI=1S/C6H9NO/c1-7-6-3-4-2-5(4)8-6/h4-5H,2-3H2,1H3	InChI=1S/C6H9NO/c1-7-6-3-4-2-5(4)8-6/h4-5H,2-3H2,1H3/t4-,5-/m1/s1
