18
gdb 104519	2.81531	1.15847	0.94946	3.1426	72.31	-0.2466	0.0266	0.2731	1250.6289	0.145262	-439.062672	-439.053022	-439.052078	-439.097484	34.855	
C	-1.542254854	-0.7188349999	-0.4295765864	-0.271643
O	-0.182817624	-0.4725365598	-0.0757538307	-0.289829
C	 0.7456569572	-0.7755216728	-1.0783822283	 0.387109
C	 0.6243912834	 0.0130540094	-2.3755615401	-0.433524
C	 0.7940022981	 1.4548110297	-2.1816188553	 0.277632
N	 0.9253480023	 2.5918382849	-2.0256767711	-0.304248
C	 2.110899451	-1.1206313071	-0.5355971744	-0.383189
C	 1.2206972156	-2.2134115544	-1.08694213	 0.077795
O	 0.6072718315	-3.133653484	-0.2417471247	-0.428666
H	-1.910392728	 0.011176028	-1.1613775519	 0.12621
H	-1.6773129419	-1.7325661494	-0.8256581528	 0.130795
H	-2.1235746832	-0.6067611726	 0.487855633	 0.139496
H	 1.3855144575	-0.3380227676	-3.0800508602	 0.156857
H	-0.3450089464	-0.164073231	-2.854850006	 0.153462
H	 2.9872983213	-0.812689468	-1.0956693466	 0.125007
H	 2.2172126916	-1.0672442655	 0.5427023067	 0.133318
H	 1.4908980737	-2.6808980222	-2.0284678366	 0.110316
H	 0.2476146042	-2.6328193676	 0.5013137454	 0.293104
50.1315	110.5557	123.5092	170.8547	220.6618	269.0109	289.9564	317.6023	394.7183	402.8123	431.1952	448.0596	500.7282	684.3366	730.233	826.2328	882.9934	904.054	922.0495	977.4375	1006.8115	1049.7714	1086.3383	1093.9979	1147.8839	1178.6326	1191.631	1213.0676	1260.6538	1317.1574	1327.5348	1351.6638	1433.3694	1456.4719	1476.4125	1483.5078	1500.0879	1507.7302	2364.4064	3011.0107	3049.1593	3075.1887	3088.0256	3129.5154	3133.8848	3164.9124	3225.6209	3781.2126
COC1(CC#N)CC1O	CO[C@@]1(CC#N)C[C@H]1O	
InChI=1S/C6H9NO2/c1-9-6(2-3-7)4-5(6)8/h5,8H,2,4H2,1H3	InChI=1S/C6H9NO2/c1-9-6(2-3-7)4-5(6)8/h5,8H,2,4H2,1H3/t5-,6+/m1/s1
