18
gdb 106613	2.59408	1.55626	1.32257	3.185	71.04	-0.2467	-0.0184	0.2283	1031.2437	0.149026	-439.066499	-439.058535	-439.057591	-439.09906	30.682	
O	 0.5076860946	 0.4123427505	-0.8860758989	-0.420663
C	-0.1049411713	 0.2913499986	 0.3887046932	-0.186526
C	-1.4428956329	-0.3975626944	 0.2498186339	 0.195658
C	-1.5334551597	-1.8792545994	-0.1988383787	-0.267928
C	-3.0951743556	-2.0425640702	-0.2089234728	-0.239043
C	-3.4900765975	-0.6093018926	 0.2365433761	-0.12236
N	-2.4995905191	-0.2618528369	 1.318179758	-0.36938
C	-2.5378068973	 0.217367283	-0.6454728998	 0.459421
O	-2.5806469867	 1.0211320801	-1.5274918686	-0.340439
H	-0.0783804739	 0.9543200138	-1.4287632918	 0.299939
H	 0.5844631519	-0.2901822921	 1.0113872219	 0.107579
H	-0.2511330766	 1.2671188982	 0.8739911901	 0.107553
H	-1.0709209971	-2.0473891255	-1.1738285835	 0.129008
H	-1.0431197046	-2.5370107746	 0.5255695268	 0.105189
H	-3.4941483526	-2.3081648314	-1.1919244524	 0.119518
H	-3.4476816599	-2.7875468663	 0.5097597548	 0.109214
H	-4.5386465281	-0.3675208466	 0.3992721425	 0.094778
H	-2.4333400136	-0.999518294	 2.0213972691	 0.218484
86.5531	140.5498	179.1096	243.2802	258.987	408.5175	453.7016	469.1309	481.6233	618.8157	678.8959	761.1654	768.0434	834.4202	852.0147	859.1615	896.6825	926.129	951.2335	1022.5737	1050.103	1060.2084	1083.4305	1097.7275	1115.9585	1178.3363	1199.6457	1221.2247	1257.891	1281.8798	1299.7483	1318.8425	1359.2592	1384.2484	1435.6308	1490.0102	1505.594	1509.6435	1913.399	3002.9013	3051.3297	3060.9981	3063.5137	3098.4453	3116.8694	3144.5152	3439.0052	3783.8348
OCC12CCC(N1)C2=O	OC[C@@]12CC[C@@H](N1)C2=O	
InChI=1S/C6H9NO2/c8-3-6-2-1-4(7-6)5(6)9/h4,7-8H,1-3H2	InChI=1S/C6H9NO2/c8-3-6-2-1-4(7-6)5(6)9/h4,7-8H,1-3H2/t4-,6-/m1/s1
