22
gdb 101857	2.45946	0.88764	0.75069	3.4315	83.71	-0.2401	0.037	0.277	1648.307	0.190729	-441.470647	-441.459443	-441.458498	-441.508095	38.655	
C	 0.685264608	 0.4008686259	-0.3672473577	-0.235834
O	 0.0531874905	-0.7714421429	 0.0937845393	-0.25125
C	-1.3649609405	-0.768517513	 0.0194099818	 0.137398
C	-1.8927603227	-0.8039397089	-1.4168564272	-0.405382
C	-1.830365137	-1.9733161028	 0.8377865145	-0.104643
O	-1.5334887617	-3.214098279	 0.2082174446	-0.208816
C	-0.309407884	-3.7411072849	 0.4411955388	 0.143179
N	 0.0657035664	-4.7667900893	-0.1807619224	-0.214706
C	 1.3688388282	-5.3023031057	 0.1519272011	-0.312384
H	 1.7451695369	 0.3113844919	-0.1166807027	 0.130021
H	 0.5954119203	 0.5318972032	-1.4542514203	 0.114449
H	 0.2799904203	 1.2988438749	 0.1252918167	 0.103526
H	-1.7523793526	 0.1323422925	 0.5292679645	 0.064708
H	-2.9872873588	-0.8212221323	-1.4146420399	 0.118125
H	-1.578222002	 0.0782217735	-1.9799725387	 0.115954
H	-1.5349862492	-1.6993908094	-1.9297678746	 0.151432
H	-1.3755302436	-1.9288248054	 1.835232584	 0.11109
H	-2.9179846321	-1.9457962225	 0.9480273651	 0.116564
H	 0.2760272482	-3.2076636505	 1.2025210193	 0.085522
H	 1.9050490427	-4.7330736196	 0.9295029641	 0.093856
H	 1.2656827562	-6.3379326829	 0.4967792274	 0.123562
H	 1.9970261566	-5.3290601828	-0.7460908775	 0.123631
47.4398	60.9235	83.5258	103.9145	191.6288	193.1188	209.8599	225.4148	252.9429	308.4958	329.3972	363.8764	450.0871	471.1656	539.4054	677.1811	802.3074	911.1254	925.6395	973.3523	1000.4878	1061.251	1078.8677	1118.515	1141.1674	1142.2536	1154.6174	1173.2443	1182.2557	1215.9571	1235.8502	1327.2569	1366.0282	1378.4288	1393.1425	1404.1987	1422.4372	1451.4895	1477.3835	1482.0067	1482.4429	1487.9688	1493.4389	1505.629	1506.6681	1513.091	1778.2554	2940.5505	2964.1099	2980.0253	3024.65	3034.0874	3037.4878	3050.0513	3053.6098	3072.3292	3099.7291	3113.0013	3115.8731	3139.61
COC(C)COC=NC	CO[C@@H](C)COC=NC	
InChI=1S/C6H13NO2/c1-6(8-3)4-9-5-7-2/h5-6H,4H2,1-3H3	InChI=1S/C6H13NO2/c1-6(8-3)4-9-5-7-2/h5-6H,4H2,1-3H3/t6-/m0/s1
