17
gdb 69208	2.58331	1.57568	1.16271	2.8033	73.55	-0.2419	-0.0278	0.2141	1069.2994	0.135188	-421.873744	-421.865624	-421.86468	-421.906379	30.96	
C	-0.0142296607	 1.5560035535	-0.0056665458	-0.480419
C	 0.0842676312	 0.052021106	 0.004595862	 0.212247
C	-0.7710553479	-0.786079606	 0.9246110328	-0.328387
C	 0.7261130463	-0.7741941293	 1.1337400897	-0.187375
C	 1.4690549889	-1.9138482481	 0.506966469	 0.417254
O	 2.3312657959	-2.5674422055	 1.0361944517	-0.318764
C	 1.0131318108	-2.0344063448	-0.9520580766	-0.463608
C	 0.4458207443	-0.6498541401	-1.2788990128	 0.364489
O	 0.3775676246	-0.151298285	-2.3739230868	-0.318334
H	 0.9244285834	 2.008731123	-0.3382319761	 0.136744
H	-0.7983670164	 1.8783370721	-0.6966547716	 0.145377
H	-0.2512832776	 1.9421002915	 0.9896648191	 0.118971
H	-1.3563640317	-0.2369218324	 1.6541328582	 0.137396
H	-1.2516250265	-1.6863434246	 0.5579089516	 0.131708
H	 1.1354951284	-0.3164675796	 2.0260836796	 0.117743
H	 1.8323309075	-2.3101313705	-1.6182945803	 0.158924
H	 0.2382640395	-2.8040096201	-1.0519841836	 0.156035
103.6239	124.2881	164.2869	250.6245	297.4814	351.8669	410.5606	491.4431	507.6302	523.3752	594.2968	648.6789	701.8474	777.8894	814.7598	859.6366	902.5952	938.1875	991.6692	1025.9715	1032.9117	1077.3897	1108.849	1111.6244	1132.5851	1208.8828	1225.2009	1265.7002	1306.5347	1383.0306	1419.1064	1421.8428	1481.6215	1494.7732	1496.6342	1820.0596	1857.5544	3044.2252	3053.4254	3114.8319	3118.9297	3129.9492	3135.772	3196.7501	3221.6241
CC12CC1C(=O)CC2=O	C[C@]12C[C@H]1C(=O)CC2=O	
InChI=1S/C7H8O2/c1-7-3-4(7)5(8)2-6(7)9/h4H,2-3H2,1H3	InChI=1S/C7H8O2/c1-7-3-4(7)5(8)2-6(7)9/h4H,2-3H2,1H3/t4-,7-/m0/s1
