16
gdb 11120	6.67614	1.03637	0.96171	5.8908	65.87	-0.2479	0.0165	0.2645	1167.7934	0.131156	-379.900713	-379.892679	-379.891734	-379.933511	28.806	
O	 0.2166254156	 1.178986306	 0.565105785	-0.419572
C	 0.1223743173	-0.1825687263	 0.1784164423	-0.093111
C	-1.2642549006	-0.3776048631	-0.4177813347	 0.059824
C	-1.7128365146	-1.8590918387	-0.4978861353	-0.270156
C	-2.5492154748	-1.5608711595	 0.78476571	-0.111316
N	-2.3817032102	-0.1161148851	 0.5206934888	-0.302529
C	-3.9353474279	-2.0321414858	 0.81910479	 0.290968
N	-5.0217716272	-2.4254398028	 0.8452880419	-0.32263
H	 1.0736933507	 1.3247901609	 0.9757937483	 0.294125
H	 0.8837117051	-0.4502831903	-0.5719413515	 0.095231
H	 0.2594075906	-0.8528615591	 1.0436599518	 0.083711
H	-1.3424899204	 0.2082344983	-1.339456984	 0.093149
H	-2.3378852632	-2.076552495	-1.3631349035	 0.138507
H	-0.9403646784	-2.6228881745	-0.3989563633	 0.117925
H	-2.0485149878	-1.9286085187	 1.6905760122	 0.11205
H	-2.1470987341	 0.4650124237	 1.318800022	 0.233824
74.4229	108.9969	155.8781	238.6776	253.2302	274.1661	379.156	489.3475	543.35	566.3879	645.7998	783.4321	834.965	899.1014	961.4743	983.5266	1000.3215	1066.5757	1081.3172	1096.6305	1130.3543	1142.6659	1227.6713	1237.5347	1253.8026	1269.7828	1308.9686	1342.5116	1361.5068	1411.13	1459.0721	1487.4147	1515.0246	2356.9041	2957.8255	2991.3732	3007.97	3055.0873	3093.1551	3155.9324	3534.0784	3834.3664
OCC1CC(N1)C#N	OC[C@H]1C[C@@H](N1)C#N	
InChI=1S/C5H8N2O/c6-2-4-1-5(3-8)7-4/h4-5,7-8H,1,3H2	InChI=1S/C5H8N2O/c6-2-4-1-5(3-8)7-4/h4-5,7-8H,1,3H2/t4-,5-/m1/s1
