12
gdb 21359	5.53718	2.24942	1.5996	3.9131	61.84	-0.2179	-0.0099	0.2079	715.3371	0.088264	-373.706664	-373.701168	-373.700224	-373.735963	21.713	
N	-0.0263261202	 1.3530454395	 0.0101852395	-0.377135
C	 1.2718315055	 1.828056744	-0.0002385596	-0.040229
C	 2.1801143709	 0.7868662761	-0.0148205615	-0.320576
C	 1.3815889869	-0.3903479679	-0.0130784307	 0.365213
C	 0.0437319561	-0.0169173321	 0.0022129625	 0.370199
N	-0.7753430823	-1.0906776511	 0.0046675098	-0.304403
N	-0.0079294821	-2.1504446202	-0.0086279891	-0.128243
N	 1.2979986822	-1.7456920351	-0.0194106434	-0.355205
H	-0.8587236	 1.9145112264	 0.0214206121	 0.275026
H	 1.4583338096	 2.8908540645	 0.0035473009	 0.130676
H	 3.2528295937	 0.8863540654	-0.0249760278	 0.109066
H	 2.0146141398	-2.4509806095	-0.0302073527	 0.275612
239.1137	338.4862	389.7374	473.1438	476.3289	608.1008	682.9362	704.9767	719.3199	763.315	774.9815	816.4054	934.4543	1006.6045	1026.2439	1081.3522	1116.9765	1203.3123	1252.6267	1296.3563	1376.1678	1390.1821	1490.7674	1513.4709	1544.9729	1616.453	3254.5183	3274.0724	3682.169	3695.9501
N1C=CC2=C1N=NN2	[nH]1ccc2c1nn[nH]2	
InChI=1S/C4H4N4/c1-2-5-4-3(1)6-8-7-4/h1-2H,(H2,5,6,7,8)	InChI=1S/C4H4N4/c1-2-5-4-3(1)6-8-7-4/h1-2H,(H2,5,6,7,8)
