16
gdb 28286	4.9135	1.26164	1.14011	1.8887	76.29	-0.1879	0.0159	0.2038	1059.7981	0.125947	-400.708914	-400.70195	-400.701006	-400.740025	28.12	
O	 0.0619368289	 1.3540408936	-0.058962058	-0.441694
C	 0.1444391358	-0.0067968798	-0.0639047811	 0.339101
C	-0.0154156807	-0.7727548961	-1.2056215496	-0.238903
N	-0.0838311771	-2.0833653591	-0.7675744665	 0.010385
C	 0.5529441884	-3.3909149082	-1.0204287578	-0.018233
C	 1.9607354098	-3.430837367	-0.4878861573	-0.272746
C	 0.7848865065	-3.5277129752	 0.4779392066	-0.180171
C	 0.1888940174	-2.1406783656	 0.5858135795	 0.217797
C	 0.3389119731	-0.8613248763	 1.0728368546	-0.390245
H	 0.2096287865	 1.6658864377	 0.8382873436	 0.296862
H	-0.2501534317	-0.4658329009	-2.2113588199	 0.116105
H	 0.1352845569	-4.0893786613	-1.7337459007	 0.112704
H	 2.5097928178	-4.3513447675	-0.673290495	 0.117468
H	 2.5630207955	-2.5277994783	-0.5050064882	 0.134458
H	 0.6087462284	-4.3861403995	 1.1112006274	 0.105083
H	 0.5432410745	-0.5469982465	 2.0858107224	 0.092028
124.1621	240.3522	270.4111	309.5746	342.8515	508.1158	524.1883	595.0096	641.5483	687.1746	735.7297	761.9187	767.9904	778.3179	851.4743	877.0885	943.5167	986.0322	996.0269	1005.094	1049.0952	1083.9246	1097.0895	1135.3162	1152.6492	1184.016	1242.4551	1254.5162	1297.6418	1339.5317	1377.5709	1437.844	1471.8117	1517.1436	1622.0089	3112.3984	3198.326	3202.6817	3213.96	3235.5904	3267.7509	3844.4356
OC1=CN2C3CC3C2=C1	OC1=CN2[C@H]3C[C@H]3[C]2[CH]1	
InChI=1S/C7H7NO/c9-4-1-6-5-2-7(5)8(6)3-4/h1,3,5,7,9H,2H2	InChI=1S/C7H7NO/c9-4-1-6-5-2-7(5)8(6)3-4/h1,3,5,7,9H,2H2/t5-,7-/m0/s1
