17
gdb 66593	3.05142	1.88836	1.60679	0.3574	69.54	-0.237	0.0675	0.3045	872.382	0.137808	-421.770225	-421.763734	-421.762789	-421.800719	27.244	
O	-0.1124603791	 1.3388020145	 0.065195188	-0.471283
C	 0.0266744932	-0.0311144692	 0.031793558	 0.409083
C	-0.2154016972	-0.8627763734	-1.2423683243	-0.190665
C	-1.0760205366	-1.0452356306	 0.0022044016	-0.166263
C	 0.0086629254	-2.0742263718	 0.4705244531	-0.101536
C	 0.5751257061	-2.1491810841	-0.9743914041	 0.128591
O	 1.9842422775	-2.021836637	-0.9358325154	-0.281408
C	 2.3089239508	-1.2137568397	 0.2110989726	-0.094762
C	 0.9667998487	-0.9080214856	 0.8789688582	-0.135609
H	 0.5404053309	 1.7302282722	-0.5260598869	 0.287712
H	-0.479539664	-0.3845758861	-2.1771296776	 0.086499
H	-2.1419135443	-0.9688962246	 0.1466500173	 0.101963
H	-0.1360867245	-2.9503759357	 1.0963423701	 0.075284
H	 0.3123897963	-3.0128106811	-1.5864566077	 0.081132
H	 2.990221346	-1.7778614587	 0.86157227	 0.100113
H	 2.8296878483	-0.3027998486	-0.1136535777	 0.092847
H	 1.0001267025	-0.6509724803	 1.9381670246	 0.078302
192.6168	230.6903	293.5636	362.5823	444.8476	511.161	609.5621	661.1482	707.9206	751.4627	781.0182	839.7909	849.6086	892.533	909.1483	913.615	940.3913	952.8399	980.522	984.3663	1037.2597	1063.6281	1080.2355	1107.6439	1127.1156	1154.6475	1182.5981	1208.5518	1238.184	1248.421	1261.024	1294.1857	1325.9614	1330.6724	1387.4169	1454.1651	1521.8938	3004.7319	3036.6512	3111.6167	3116.2881	3155.2279	3196.7387	3247.6647	3788.7884
OC12C3C1C1C3OCC21	O[C@]12[C@@H]3[C@H]1[C@H]1[C@@H]3OC[C@@H]21	
InChI=1S/C7H8O2/c8-7-2-1-9-6-3(2)4(7)5(6)7/h2-6,8H,1H2	InChI=1S/C7H8O2/c8-7-2-1-9-6-3(2)4(7)5(6)7/h2-6,8H,1H2/t2-,3+,4-,5-,6+,7+/m1/s1
