19
gdb 116530	3.26472	0.9056	0.75959	1.0618	77.22	-0.2347	-0.0328	0.2018	1548.9955	0.157577	-456.379849	-456.369392	-456.368448	-456.415951	36.556	
C	 0.358698007	 1.6064661557	 0.093612963	-0.369387
C	-0.0990736991	 0.1815247604	-0.2521607221	-0.153953
N	 0.6519197617	-0.3671017595	-1.3699595643	-0.264027
C	 1.7264914737	-1.0084915446	-1.1273789843	 0.218572
N	 2.3070341059	-1.3172770426	 0.0816426033	-0.552146
C	 2.5322722818	-1.5880766243	-2.2748637851	 0.454366
O	 3.6075356003	-2.1205897129	-2.1037465234	-0.389648
O	 1.9419721098	-1.4464411752	-3.4580411893	-0.207078
C	 2.6764488207	-1.97117916	-4.5714185122	-0.241024
H	 1.4001066073	 1.6235901423	 0.4329344199	 0.108381
H	 0.2875486333	 2.2498031578	-0.7876414486	 0.133888
H	-0.2647674703	 2.031351483	 0.8865355538	 0.114478
H	-0.0471683338	-0.4576821501	 0.645028405	 0.084605
H	-1.1531291739	 0.2138494579	-0.5489950119	 0.108042
H	 2.1011233836	-0.744667375	 0.8813405297	 0.260511
H	 3.2423522008	-1.6903563795	 0.0175162043	 0.270947
H	 2.0604518105	-1.7733950304	-5.4480413444	 0.13964
H	 3.6456579922	-1.474094467	-4.6619830622	 0.141494
H	 2.8418878383	-3.0448920361	-4.4514048911	 0.142338
62.2998	77.9429	104.8547	126.3022	165.5444	173.5584	229.0278	311.2494	341.2934	368.471	400.4881	439.1641	504.4689	539.4081	625.2889	712.5439	814.9589	818.5592	854.6275	897.3342	1006.7099	1041.251	1089.4037	1139.2995	1178.2087	1195.8169	1206.8513	1262.7456	1300.4111	1361.5018	1379.0788	1405.5363	1476.4872	1482.6884	1489.786	1495.0009	1499.8425	1527.4547	1611.4163	1734.8253	1788.658	2963.2529	3035.5799	3051.9765	3052.2732	3103.572	3119.5239	3126.1791	3164.4995	3590.1693	3720.9214
CCN=C(N)C(=O)OC	CCN=C(N)C(=O)OC	
InChI=1S/C5H10N2O2/c1-3-7-4(6)5(8)9-2/h3H2,1-2H3,(H2,6,7)	InChI=1S/C5H10N2O2/c1-3-7-4(6)5(8)9-2/h3H2,1-2H3,(H2,6,7)
