19
gdb 9510	2.32679	1.96227	1.83961	1.7634	72.52	-0.2121	-0.03	0.1821	907.6173	0.163197	-365.048723	-365.039854	-365.03891	-365.081973	32.219	
C	-0.1553510437	 1.4946741397	-0.074721263	-0.342271
N	-0.0670592166	 0.0625796155	 0.1347433033	-0.093359
C	-1.2345982475	-0.6632719981	 0.6695992709	-0.164941
C	-0.2729515669	-1.6043048763	 1.4306867045	-0.2772
C	 0.8339386437	-0.5519543241	 1.1661044458	 0.242231
C	 2.1789201004	-1.0041183241	 0.6170396279	-0.460644
C	 1.0241297889	 0.392977893	 2.3493307315	 0.118464
O	 0.3377589435	 0.4152081761	 3.340313027	-0.254324
H	 0.8247092321	 1.8950137781	-0.3560259588	 0.121187
H	-0.8406116009	 1.6865268465	-0.9078611826	 0.12573
H	-0.5255502164	 2.0599328175	 0.7987345209	 0.107484
H	-1.8514636795	-0.0604274739	 1.3530524965	 0.102083
H	-1.8804933063	-1.0978642094	-0.1010164469	 0.100454
H	-0.5013853676	-1.783552959	 2.480036673	 0.125854
H	-0.0825083069	-2.5459512864	 0.9135649466	 0.105097
H	 2.0278258799	-1.6065618529	-0.2818307794	 0.128812
H	 2.8066476141	-0.1459143999	 0.3492800202	 0.118409
H	 2.7257077825	-1.6005559986	 1.3565485041	 0.122621
H	 1.8492343771	 1.1319756163	 2.2149320484	 0.074315
64.3984	114.3861	192.7914	224.3032	233.73	269.0188	275.6039	321.1391	385.2769	411.1765	583.903	604.9403	737.9058	780.2687	876.3758	910.4498	963.757	969.6268	987.7792	1013.9816	1122.3896	1130.0775	1175.8846	1191.8526	1218.2742	1222.6717	1238.1967	1267.521	1289.3038	1330.4279	1400.6688	1422.8189	1449.0547	1471.0012	1483.7235	1484.1267	1491.3071	1510.9913	1520.6696	1817.6054	2849.6149	2947.4024	2988.8013	3026.2615	3053.2535	3055.998	3088.8683	3090.6006	3093.6398	3122.4138	3158.978
CN1CCC1(C)C=O	CN1CC[C@]1(C)C=O	
InChI=1S/C6H11NO/c1-6(5-8)3-4-7(6)2/h5H,3-4H2,1-2H3	InChI=1S/C6H11NO/c1-6(5-8)3-4-7(6)2/h5H,3-4H2,1-2H3/t6-/m1/s1
