16
gdb 38113	3.0365	2.01913	1.43856	1.5948	73.29	-0.226	-0.0072	0.2188	889.5295	0.127322	-400.754478	-400.748233	-400.747289	-400.784841	25.825	
C	-0.0831811678	 1.4214953948	 0.0735699049	-0.35625
C	 1.3343841708	 0.8576162697	-0.010067861	-0.133896
C	 2.0435356	 0.4880909495	 1.2477433145	-0.063046
C	 1.4476924309	-0.5130185266	 1.9084045348	-0.128846
C	 0.1721196204	-0.9209401605	 1.2192988764	 0.017266
O	 0.1289314992	-2.2664777737	 0.6489205656	-0.244547
C	-0.1590802436	-2.0785774599	-0.6650149389	 0.091534
N	-0.2243290571	-0.9017954554	-1.147231775	-0.326728
C	 0.1140166039	-0.0500212127	-0.0381649907	 0.342319
H	-0.4326327794	 1.83077622	 1.0173580603	 0.113808
H	-0.4404076335	 1.9349704514	-0.8129246386	 0.130596
H	 1.8989364113	 1.0663528754	-0.9114305381	 0.106085
H	 2.9477995809	 0.989295196	 1.5765568117	 0.107591
H	 1.7622743372	-0.9237353413	 2.8600775696	 0.106439
H	-0.6981912449	-0.841443407	 1.8823947043	 0.098467
H	-0.3189386884	-2.9936590697	-1.2233221698	 0.139209
175.9941	252.2858	324.4411	393.3419	477.5786	557.788	597.0505	628.845	744.6609	781.0943	805.7574	854.4585	881.852	912.2863	929.1149	940.8297	959.1658	976.4265	998.7533	1039.6041	1056.4479	1075.7329	1080.2933	1106.0797	1140.1726	1216.8722	1264.9684	1317.3226	1325.5705	1345.7616	1371.0252	1395.3959	1477.7224	1644.1842	1666.9659	3031.019	3118.9439	3180.2867	3189.0697	3215.0206	3216.4883	3221.414
C1C2C=CC3OC=NC123	C1[C@H]2C=C[C@@H]3OC=N[C@]123	
InChI=1S/C7H7NO/c1-2-6-7(3-5(1)7)8-4-9-6/h1-2,4-6H,3H2	InChI=1S/C7H7NO/c1-2-6-7(3-5(1)7)8-4-9-6/h1-2,4-6H,3H2/t5-,6+,7-/m1/s1
