16
gdb 49461	2.90393	1.25266	1.12098	3.8934	69.98	-0.2463	-0.0321	0.2142	1110.1377	0.125183	-437.92221	-437.914549	-437.913605	-437.954864	28.88	
O	-0.0090514576	-0.0038749616	 0.455973058	-0.267845
C	-0.008856062	 1.1348436818	 0.0519384268	 0.148164
C	 1.2197977267	 1.9561721979	-0.0509516409	-0.13519
C	 1.4939711737	 2.9396417582	-1.1993680983	-0.083336
C	 0.3667276173	 3.4151344602	-2.101053382	-0.356477
C	-0.6193289922	 4.1336229269	-1.1606762605	 0.386887
O	-1.7162139543	 4.5580508654	-1.4328143441	-0.359321
N	-0.0219642803	 4.1781657125	 0.0832013831	-0.294239
C	 1.2190885147	 3.4760177946	 0.1695945098	-0.034703
H	-0.9553418331	 1.6247873794	-0.2581134848	 0.091692
H	 2.1016494045	 1.4382584519	 0.3125218895	 0.115712
H	 2.5037266028	 2.9270537695	-1.5891441659	 0.115951
H	 0.7356642562	 4.1284202726	-2.8448010235	 0.143366
H	-0.1593384147	 2.627640615	-2.6458577591	 0.147644
H	-0.5640614768	 4.4486412614	 0.8891354552	 0.260117
H	 1.984851065	 3.9075339143	 0.8038532269	 0.121579
83.4312	99.6832	208.1157	218.2746	392.1829	428.1218	468.2449	492.1842	562.9973	596.9708	663.3623	727.1143	759.8941	837.5434	857.4074	949.5817	951.9504	988.5215	1019.1253	1057.8675	1079.3105	1103.1269	1141.0093	1185.4651	1213.3283	1239.6953	1282.393	1339.738	1359.9031	1377.4625	1425.0927	1459.8235	1468.2264	1805.8388	1840.3531	2912.1038	3066.6391	3110.6542	3169.5525	3176.3914	3194.7166	3635.5741
O=CC1C2CC(=O)NC12	O=C[C@H]1[C@H]2CC(=O)N[C@@H]12	
InChI=1S/C6H7NO2/c8-2-4-3-1-5(9)7-6(3)4/h2-4,6H,1H2,(H,7,9)	InChI=1S/C6H7NO2/c8-2-4-3-1-5(9)7-6(3)4/h2-4,6H,1H2,(H,7,9)/t3-,4+,6-/m1/s1
