19
gdb 61853	2.90524	0.96113	0.77395	3.4084	72.98	-0.2578	0.0029	0.2607	1454.2412	0.157236	-460.16276	-460.153117	-460.152173	-460.199353	33.039	
C	 0.0246604657	 1.5862742102	-0.0933219896	-0.40099
C	 0.0192339415	 0.0652538299	 0.0066599321	 0.088425
O	 0.729378157	-0.327262544	 1.2016740299	-0.191943
C	 1.9732131439	-0.8259264823	 1.0781048614	 0.166497
O	 2.641772959	-1.1384988869	 2.0165936657	-0.274362
C	-1.3773763335	-0.5292228893	 0.1070733065	-0.023383
C	-2.204187396	-0.5377467938	-1.1996435317	-0.091096
O	-2.1631098168	-1.9747805875	-1.2713760242	-0.269159
C	-1.4700330312	-2.0656637874	-0.0085184496	-0.089803
H	 1.0464673275	 1.9663497403	-0.1790448196	 0.129695
H	-0.5370254483	 1.9159057314	-0.9727146899	 0.128642
H	-0.4318069768	 2.0272255464	 0.7976287331	 0.138601
H	 0.5322439778	-0.3701921669	-0.8634001266	 0.09328
H	 2.2969445521	-0.917671142	 0.0221896101	 0.078093
H	-1.8901426812	-0.1059174895	 0.9735845831	 0.09452
H	-3.2286915069	-0.1569328762	-1.1067638689	 0.106725
H	-1.7320735019	-0.0677499437	-2.072787948	 0.100813
H	-0.5148518151	-2.5980867606	-0.0981192598	 0.104987
H	-2.0774162967	-2.5580693079	 0.7598417859	 0.11046
30.4693	46.87	83.7726	138.3949	181.7795	221.8608	241.0918	319.4018	371.4459	428.2153	487.2754	651.4968	801.2875	854.7734	884.8081	924.4076	964.6934	997.3045	1015.9074	1044.4091	1047.0535	1075.6401	1105.9568	1132.0223	1154.7619	1165.0904	1184.2329	1239.0754	1255.8975	1307.5461	1311.4237	1369.8659	1378.9576	1404.494	1411.6747	1440.5786	1487.8119	1496.3223	1511.5195	1536.5271	1864.9623	2939.5167	3000.9605	3004.7082	3020.1876	3043.4412	3047.5574	3059.4228	3090.5637	3118.1291	3122.9991
CC(OC=O)C1COC1	C[C@@H](OC=O)C1COC1	
InChI=1S/C6H10O3/c1-5(9-4-7)6-2-8-3-6/h4-6H,2-3H2,1H3	InChI=1S/C6H10O3/c1-5(9-4-7)6-2-8-3-6/h4-6H,2-3H2,1H3/t5-/m1/s1
