21
gdb 67705	2.18923	1.91833	1.67474	1.6032	80.4	-0.2275	0.0842	0.3117	982.0514	0.185359	-387.098884	-387.091347	-387.090402	-387.130436	30.78	
C	-0.0175614362	 1.492320606	-0.000829344	-0.506093
C	 0.0087058741	-0.0129279069	 0.0061793995	 0.301171
C	 0.6066756692	-0.8929777211	-1.0853569536	-0.130132
C	 1.433461802	-2.0167075752	-0.4640152437	-0.230696
C	 1.4727890364	-1.6785500257	 1.0468837322	-0.203337
C	 0.2065502515	-0.8340095992	 1.3073709943	-0.111436
C	-1.0754369113	-1.6841297752	 1.3399206491	-0.076862
O	-1.3913355502	-1.9663150573	-0.0289175436	-0.26282
C	-0.8854375777	-0.9031777484	-0.7995703131	 0.050097
H	 0.9341816356	 1.9124236102	 0.3457683671	 0.116611
H	-0.196783243	 1.8768543843	-1.0102681173	 0.117227
H	-0.8104672036	 1.8849456066	 0.6468185601	 0.116867
H	 0.9251029551	-0.4489776494	-2.0237245642	 0.076495
H	 0.9589732726	-2.9878198093	-0.6381978482	 0.113608
H	 2.4364652697	-2.058271602	-0.8970838684	 0.093923
H	 1.5280776752	-2.5660271847	 1.6861407371	 0.091352
H	 2.3563798389	-1.0671638759	 1.2619924561	 0.095448
H	 0.2946423101	-0.2072463489	 2.198548606	 0.068806
H	-0.9613510669	-2.6391541287	 1.8621788329	 0.103235
H	-1.9012851908	-1.1256824512	 1.8075770596	 0.088396
H	-1.5844015408	-0.5245719679	-1.5395524379	 0.088142
149.5335	203.4628	216.8371	252.9076	268.7843	377.8067	522.1364	547.1611	562.5152	681.4059	736.5117	762.4006	807.6123	838.4898	863.8684	908.544	925.429	939.7391	971.4846	989.0406	1001.8353	1029.6733	1075.0492	1078.1059	1082.4969	1131.7176	1137.203	1166.6421	1186.2855	1233.8476	1242.5158	1258.8973	1280.7521	1302.7883	1311.0912	1334.1832	1355.088	1380.0776	1418.8452	1447.9401	1483.6915	1490.8742	1499.1217	1500.5084	1516.0727	2981.1654	3018.851	3035.1644	3050.5679	3073.5741	3077.1083	3079.8646	3080.7446	3093.5266	3097.2847	3146.6221	3157.7604
CC12C3CCC1COC23	C[C@@]12[C@H]3CC[C@@H]1CO[C@@H]23	
InChI=1S/C8H12O/c1-8-5-2-3-6(8)7(8)9-4-5/h5-7H,2-4H2,1H3	InChI=1S/C8H12O/c1-8-5-2-3-6(8)7(8)9-4-5/h5-7H,2-4H2,1H3/t5-,6+,7-,8+/m1/s1
