17
gdb 113650	2.98927	1.1355	0.88268	3.6456	72.77	-0.2553	-0.0864	0.1689	1277.8982	0.1354	-455.120452	-455.111748	-455.110804	-455.154203	31.683	
O	-0.2082985784	 1.2185385188	 0.7100281468	-0.420763
C	-0.0678333636	-0.0860032099	 0.2124911414	-0.074602
C	-1.4022381228	-0.7093648284	-0.1586132155	-0.018796
C	-1.6326070942	-2.185815414	-0.0026136365	-0.276945
N	-2.2895553352	-1.2221513744	 0.8714359751	-0.082636
C	-2.1207671283	-1.1095535181	 2.2339212317	 0.254488
N	-1.6641433671	-0.0657189766	 2.811838602	-0.502039
C	-2.6601895477	-2.2925249246	 3.0176610152	 0.121713
O	-2.6321179437	-2.3256526095	 4.2197515184	-0.23404
H	-0.6930828133	 1.1232732746	 1.5507117501	 0.301363
H	 0.546523469	-0.0263922358	-0.6937016119	 0.112186
H	 0.4576691615	-0.7494544821	 0.918777306	 0.083969
H	-1.9342202165	-0.1990717145	-0.9591580208	 0.117328
H	-2.2801023645	-2.7184553011	-0.6928971313	 0.135267
H	-0.8151393051	-2.7717704733	 0.4129378842	 0.133073
H	-1.7455734955	-0.1842793721	 3.824087452	 0.246386
H	-3.0837575945	-3.117839419	 2.4106261233	 0.104048
73.598	133.9852	159.2328	188.7312	201.5076	271.8837	319.8725	380.4944	453.7777	535.8377	575.9662	622.5071	694.1878	818.8889	839.7781	880.1475	907.2787	984.5425	1001.6222	1032.6688	1071.3797	1098.9913	1112.2857	1128.0633	1145.8996	1170.1388	1254.5114	1299.5172	1359.5226	1387.198	1417.3433	1461.4579	1488.9881	1491.891	1511.6355	1683.6866	1826.9434	2936.7285	2970.5604	3059.3665	3103.784	3134.8072	3196.6178	3458.8016	3587.0881
OCC1CN1C(=N)C=O	OC[C@H]1CN1[C]([NH])C=O	
InChI=1S/C5H8N2O2/c6-5(3-9)7-1-4(7)2-8/h3-4,6,8H,1-2H2	InChI=1S/C5H8N2O2/c6-5(3-9)7-1-4(7)2-8/h3-4,6,8H,1-2H2/t4-,7?/m1/s1
