19
gdb 62124	4.41478	0.7226	0.66647	3.4203	73.66	-0.2516	0.0273	0.2789	1659.7089	0.159503	-456.333912	-456.3244	-456.323456	-456.369563	34.025	
O	-0.9109118591	 0.7668629317	 0.1035952333	-0.436537
C	-0.1381727122	-0.4159510743	-0.1113822851	 0.057738
C	 0.9269993442	-0.1795106745	-1.1841232775	-0.167938
N	 0.3178776525	 0.2796917601	-2.4170273833	-0.278211
C	 0.6627694452	-0.2043065529	-3.6392265492	 0.154171
O	 1.5404994647	-1.0154616965	-3.8461661868	-0.322714
C	 0.4581673916	-0.9654340433	 1.1742703999	 0.019967
C	 0.8972141185	-0.0753990208	 2.2776411818	-0.251819
N	-0.3138016009	-0.9034602239	 2.4188588699	-0.322271
H	-0.3057052238	 1.4736579857	 0.3582860198	 0.287033
H	-0.8642163441	-1.1424396831	-0.496710828	 0.111159
H	 1.6609960411	 0.550829576	-0.8097492828	 0.10497
H	 1.4731649148	-1.0985908712	-1.410748224	 0.151751
H	-0.4578149533	 0.9189882775	-2.3365447862	 0.252858
H	 0.0416520795	 0.2352994858	-4.4444713281	 0.076845
H	 0.9903878287	-1.9045248114	 1.0323613851	 0.103207
H	 1.7345786028	-0.364784792	 2.9056664315	 0.126759
H	 0.7755123963	 1.0005673777	 2.1728863518	 0.094375
H	-1.1264724267	-0.3114720108	 2.2509300575	 0.238655
36.4786	78.6912	90.2569	153.6255	228.6462	255.583	286.9872	341.8968	383.6126	423.7167	517.8972	584.4106	615.5224	765.3851	809.7246	864.9711	897.9873	945.7716	962.6483	993.2705	1026.3444	1037.7175	1084.4032	1086.0232	1124.4912	1159.1268	1203.4813	1210.6876	1225.4458	1278.5059	1302.5194	1310.9713	1323.874	1393.0171	1416.5633	1427.3105	1429.0999	1500.5416	1510.8228	1521.9819	1804.9406	2939.824	2987.9521	3045.2063	3106.347	3109.0879	3125.1876	3188.7043	3480.2266	3629.4543	3786.572
OC(CNC=O)C1CN1	O[C@@H](CNC=O)[C@H]1CN1	
InChI=1S/C5H10N2O2/c8-3-6-2-5(9)4-1-7-4/h3-5,7,9H,1-2H2,(H,6,8)	InChI=1S/C5H10N2O2/c8-3-6-2-5(9)4-1-7-4/h3-5,7,9H,1-2H2,(H,6,8)/t4-,5+/m1/s1
