15
gdb 27481	2.08563	1.83431	0.9819	4.0774	72.43	-0.2492	-0.0406	0.2086	1137.1559	0.113555	-454.021437	-454.013538	-454.012593	-454.054107	29.423	
C	 0.0643253721	 1.5054834887	-0.0258700769	-0.472966
C	-0.0881149477	 0.0267126652	 0.0928941457	 0.403326
C	-1.2288209806	-0.6698985689	-0.0057645471	-0.351482
C	-1.2262847284	-2.1232846057	 0.1340840188	 0.45293
O	-2.1955574008	-2.8483555279	 0.0631595096	-0.368826
N	 0.0480389198	-2.6434312018	 0.3688081697	-0.39895
C	 1.2294703076	-1.9429816784	 0.472388112	 0.462498
N	 2.3353275917	-2.5129518329	 0.6868087133	-0.557931
O	 1.1173606706	-0.5748111051	 0.3251785377	-0.266457
H	 0.4963107412	 1.9169511467	 0.8925118457	 0.155031
H	 0.7484498458	 1.7516875339	-0.8448247386	 0.155005
H	-0.9003460418	 1.9791039143	-0.2109536162	 0.146454
H	-2.1732474747	-0.1792433339	-0.1897444564	 0.128995
H	 0.1216662803	-3.6455591162	 0.475407611	 0.279388
H	 3.091095985	-1.833995748	 0.7310894218	 0.232986
109.0802	143.1183	160.5166	187.795	292.985	374.5892	503.9073	513.9528	545.7812	560.876	642.9149	648.272	711.5897	747.5667	807.867	847.5518	895.3671	948.6262	1003.8602	1054.5295	1066.3181	1117.9604	1170.9787	1246.7328	1375.2444	1390.6801	1407.9436	1423.4096	1468.4544	1480.0868	1701.1059	1784.9365	1808.2387	3043.3199	3100.6202	3150.6801	3246.7469	3539.589	3621.2716
CC1=CC(=O)NC(=N)O1	CC1=CC(=O)N[C]([NH])O1	
InChI=1S/C5H6N2O2/c1-3-2-4(8)7-5(6)9-3/h2H,1H3,(H2,6,7,8)	InChI=1S/C5H6N2O2/c1-3-2-4(8)7-5(6)9-3/h2H,1H3,(H2,6,7,8)
