17
gdb 128304	6.52617	0.87813	0.78398	4.2042	73.43	-0.1952	0.041	0.2362	1456.8034	0.136562	-451.333216	-451.32396	-451.323015	-451.367615	32.364	
C	 0.0243883664	 1.3410900728	-0.1207076931	-0.321274
N	-0.0495196855	-0.0921507779	 0.131296323	-0.397545
C	-1.2791545196	-0.6810270162	 0.0512531213	 0.487715
N	-2.4465874461	-0.1357285356	 0.0013955112	-0.318284
N	-3.3731640123	-1.2111930892	 0.0052456501	-0.318295
C	-2.6609874717	-2.2849307826	 0.0565736104	 0.487716
N	-3.0611962863	-3.5878286488	 0.1429121086	-0.397545
C	-4.4685798232	-3.8739258422	-0.1031643322	-0.321277
O	-1.3112482035	-2.0504870874	 0.0839328603	-0.240424
H	 1.0432258018	 1.6788085968	 0.0791518828	 0.125528
H	-0.2554078288	 1.6117476897	-1.1475650349	 0.128728
H	-0.6591749337	 1.8539450493	 0.5587268373	 0.16429
H	 0.694546322	-0.6478630122	-0.2642822022	 0.251058
H	-2.4028498051	-4.2430159147	-0.2523590423	 0.251062
H	-5.0745898603	-3.2710780641	 0.5759799738	 0.164297
H	-4.7811544347	-3.6412817574	-1.1298833411	 0.128723
H	-4.6511803795	-4.9307181203	 0.1014703569	 0.125529
76.5955	105.7437	132.1101	146.2587	159.4773	235.1523	266.1831	364.0559	377.1353	471.2036	516.2583	599.3792	704.3378	718.8428	748.512	784.2627	972.0786	974.6497	1048.6404	1102.9654	1104.4957	1150.8097	1154.1074	1179.9889	1186.3768	1271.066	1336.7148	1453.6254	1455.7106	1476.6849	1482.9228	1493.7233	1509.3219	1523.0986	1550.93	1643.0623	1726.4703	3016.0068	3016.7196	3102.4569	3102.5517	3144.0036	3144.0685	3607.5371	3607.6512
CNC1=NN=C(NC)O1	CNc1nnc(NC)o1	
InChI=1S/C4H8N4O/c1-5-3-7-8-4(6-2)9-3/h1-2H3,(H,5,7)(H,6,8)	InChI=1S/C4H8N4O/c1-5-3-7-8-4(6-2)9-3/h1-2H3,(H,5,7)(H,6,8)
