18
gdb 70151	2.77774	1.69181	1.24023	1.8379	73.28	-0.2311	0.0172	0.2483	1028.9403	0.148496	-439.072404	-439.064563	-439.063619	-439.104502	30.504	
C	-0.4333888158	 1.538772568	-0.027849104	-0.446839
C	-0.0771329462	 0.0714260109	-0.0289031933	 0.368695
C	-0.6563726428	-0.8690163339	 0.991006323	-0.340467
C	 0.8218127597	-0.5153874829	 1.0434022218	-0.036027
N	 1.7985405507	-1.539257217	 0.8721585584	-0.261458
C	 2.2632555853	-1.9833596442	-0.2135542007	 0.122808
O	 2.0529584761	-1.6566227835	-1.5139891652	-0.217096
C	 1.3284301247	-0.4678573075	-1.8280219899	 0.005116
O	 0.0357461926	-0.4709093182	-1.3290464407	-0.266469
H	 0.3330790488	 2.1358652579	-0.5347262249	 0.117962
H	-1.3851816145	 1.6994927255	-0.5449697362	 0.130074
H	-0.5316344999	 1.9153249008	 0.994134556	 0.122005
H	-1.3155324399	-0.4781285073	 1.7579902136	 0.114225
H	-0.8937242424	-1.8647887599	 0.6345873596	 0.131391
H	 1.1007831143	 0.1669043789	 1.8428988873	 0.102214
H	 2.9723979427	-2.8100338075	-0.1820415362	 0.124904
H	 1.90060679	 0.3988267466	-1.4699705615	 0.10424
H	 1.2710558265	-0.4665010168	-2.918283597	 0.124722
107.4388	178.8839	216.0462	271.2608	314.933	338.4681	387.8905	435.2275	488.4135	572.8096	658.2283	704.798	765.6965	835.4607	873.1922	922.106	934.8258	942.3814	968.4692	1031.3049	1052.3723	1079.6111	1122.2533	1127.0905	1148.1169	1177.3399	1188.1071	1260.4986	1310.8014	1326.3345	1399.0683	1416.6753	1434.8816	1451.7909	1475.0608	1483.2771	1498.131	1505.8363	1762.5982	3011.0357	3030.8368	3094.3547	3113.8217	3117.4488	3129.5915	3138.2711	3145.4874	3233.7211
CC12CC1N=COCO2	C[C@]12C[C@H]1N=COCO2	
InChI=1S/C6H9NO2/c1-6-2-5(6)7-3-8-4-9-6/h3,5H,2,4H2,1H3	InChI=1S/C6H9NO2/c1-6-2-5(6)7-3-8-4-9-6/h3,5H,2,4H2,1H3/t5-,6+/m1/s1
