16
gdb 22954	2.6183	1.04774	0.78243	4.0523	71.25	-0.263	-0.0219	0.2411	1393.7954	0.122014	-474.983798	-474.974781	-474.973837	-475.019415	31.379	
O	-0.0165099307	 1.2728641199	-0.1241990909	-0.383053
N	 0.0467759628	-0.1152126419	 0.0339001064	-0.220466
C	-1.1013826985	-0.6423260143	-0.0159880938	 0.390113
C	-2.5291212146	-0.2072839309	-0.2784143635	-0.328964
C	-2.8767075895	-1.7159571318	-0.4984444528	-0.257541
C	-1.4759245663	-2.1134137353	 0.0436317357	 0.048272
O	-0.7578534345	-3.0044712723	-0.7992267972	-0.184382
C	 0.2575999077	-3.7059558957	-0.2508696888	 0.176246
O	 0.9475828189	-4.4396036497	-0.889867794	-0.271318
H	 0.9131940232	 1.5263996859	-0.1043712632	 0.313394
H	-3.011504673	 0.2434042599	 0.5940845026	 0.132997
H	-2.6665972639	 0.4623242056	-1.1302564272	 0.140743
H	-3.7339844573	-2.1152515457	 0.0442835801	 0.116527
H	-2.9613783285	-1.9744987658	-1.5549498973	 0.139337
H	-1.5014017311	-2.5037474142	 1.0689183529	 0.105235
H	 0.3623291455	-3.5326909837	 0.8372665811	 0.082859
23.4931	72.989	121.0012	172.4598	191.0747	255.5221	341.4613	396.7623	410.6072	496.3853	571.3528	646.8176	725.3318	761.8827	853.0654	930.2019	946.3054	998.4401	1041.0496	1042.6619	1086.1936	1124.7201	1161.4835	1183.9296	1206.4204	1227.9797	1263.7529	1273.4508	1366.2496	1412.0344	1437.9109	1462.2736	1485.259	1785.7977	1870.9336	2956.7373	3026.5973	3064.184	3089.3898	3113.1809	3150.1324	3810.4783
ON=C1CCC1OC=O	ON=C1CC[C@H]1OC=O	
InChI=1S/C5H7NO3/c7-3-9-5-2-1-4(5)6-8/h3,5,8H,1-2H2	InChI=1S/C5H7NO3/c7-3-9-5-2-1-4(5)6-8/h3,5,8H,1-2H2/t5-/m1/s1
