23
gdb 97552	2.96644	0.71267	0.65965	1.7794	92.	-0.2466	0.0456	0.2922	1880.7384	0.202	-388.277454	-388.265674	-388.26473	-388.315469	42.046	
C	 0.0015436674	 1.5254170729	-0.3490015891	-0.363602
C	-0.0567945361	 0.1021609047	 0.2351111486	-0.317148
C	-1.3901053906	-0.489420295	 0.1801639905	 0.074723
C	-2.4945138954	-0.9701583571	 0.1282483544	 0.046006
C	-3.859130554	-1.5176071753	 0.0668921813	 0.153311
C	-3.8156250412	-3.0472236998	-0.0560879694	-0.395819
O	-4.5492081351	-1.2590404538	 1.3000373355	-0.448206
C	-4.6120634525	-0.8512050864	-1.1155562468	-0.175795
C	-6.0743313159	-1.2805992772	-1.2556389647	-0.399405
H	 1.0189132877	 1.9228728768	-0.2858302868	 0.114899
H	-0.3051194528	 1.5276541697	-1.3984992943	 0.127966
H	-0.6652190842	 2.1976636324	 0.1979638586	 0.125399
H	 0.6470115544	-0.5445215201	-0.3046646086	 0.130625
H	 0.2904281953	 0.1178726016	 1.2762782787	 0.1304
H	-3.2343176239	-3.4671882964	 0.767219826	 0.128715
H	-4.8283382809	-3.4541540422	-0.0064779354	 0.124942
H	-3.3552730029	-3.3452625751	-1.0014949638	 0.117281
H	-4.4020555578	-0.3331699593	 1.5215622836	 0.278511
H	-4.5594583951	 0.2341723132	-0.9638669352	 0.090703
H	-4.0575305199	-1.0559733161	-2.0386311277	 0.101479
H	-6.5790613859	-0.6745914465	-2.0141571099	 0.107969
H	-6.166376907	-2.3278293501	-1.5586101283	 0.117221
H	-6.6034973235	-1.155399211	-0.3072831273	 0.129825
23.7565	67.4943	88.9365	125.4219	175.3999	203.5779	213.6308	252.5898	280.2465	286.576	333.9759	366.7341	374.5549	400.2811	504.787	553.6043	572.7277	671.9798	784.5042	786.2705	828.6972	922.3964	942.4344	992.3	1003.7553	1058.9398	1073.6695	1098.1223	1103.6151	1141.1112	1186.8005	1214.5715	1286.6214	1290.2251	1350.1508	1352.2078	1379.6669	1405.4834	1409.1131	1410.3509	1473.3779	1475.1653	1483.2055	1493.4229	1494.9304	1503.9501	1505.0156	1512.705	2355.4768	3020.1119	3026.9341	3043.3974	3044.0621	3047.1645	3054.3878	3065.7813	3107.1897	3117.3482	3122.8726	3123.5683	3133.257	3137.2841	3809.6423
CCC#CC(C)(O)CC	CCC#C[C@@](C)(O)CC	
InChI=1S/C8H14O/c1-4-6-7-8(3,9)5-2/h9H,4-5H2,1-3H3	InChI=1S/C8H14O/c1-4-6-7-8(3,9)5-2/h9H,4-5H2,1-3H3/t8-/m0/s1
