21
gdb 94297	3.10856	1.12715	0.99334	3.0519	83.04	-0.2383	-0.0161	0.2221	1277.9891	0.181154	-387.094981	-387.086083	-387.085139	-387.128889	34.312	
C	-0.0826675836	 1.5256528527	-0.4578164989	-0.421122
C	 0.060677487	 0.0414903469	-0.1618062301	-0.016145
C	 1.193075006	-0.7681419532	-0.8528899022	-0.229539
C	 1.3744318669	-1.5679512856	 0.4632552651	-0.284241
C	 0.6137664669	-0.4406860464	 1.2120163628	 0.345318
C	 1.4839528445	 0.5121352787	 2.0949650923	-0.409571
C	 0.7511091056	-0.0513948697	 3.3221951029	 0.405634
O	 0.9552508636	-0.0124230602	 4.5004358192	-0.291542
C	-0.2840951253	-0.7634303366	 2.4390281668	-0.426927
H	 0.868847259	 2.0533798737	-0.3307051403	 0.116639
H	-0.4113487671	 1.6850218802	-1.490642169	 0.118582
H	-0.8212009596	 2.0013792491	 0.1982873156	 0.114074
H	-0.8997522933	-0.460057832	-0.3363866857	 0.073523
H	 0.9407040441	-1.3261413244	-1.7575717823	 0.097472
H	 2.0608736733	-0.1355222763	-1.065822288	 0.101091
H	 0.8035443062	-2.5017824783	 0.4553039933	 0.102091
H	 2.3942017379	-1.7873451868	 0.7911104894	 0.100215
H	 2.5702321465	 0.3862822178	 2.0771952999	 0.124799
H	 1.2558222036	 1.5749113048	 1.9555065341	 0.128633
H	-1.2415263452	-0.2280548834	 2.4295041799	 0.126256
H	-0.4779546971	-1.8154385811	 2.6687457952	 0.124761
46.2246	101.7291	189.8907	206.8422	252.2998	327.4008	370.3061	403.5358	432.0785	482.9568	514.5235	646.0663	671.4853	720.6361	773.6678	856.0372	869.4406	891.736	912.5696	941.3881	957.3136	1000.2865	1047.8415	1075.853	1101.6064	1117.0953	1151.1438	1171.7424	1179.8406	1199.5171	1215.6007	1240.0034	1262.0315	1274.4381	1286.6845	1300.5257	1373.3155	1407.2172	1422.4603	1441.3198	1481.3314	1494.1837	1497.0865	1499.3098	1893.2006	3021.1689	3023.5786	3036.3397	3046.5098	3048.6822	3052.0288	3087.6088	3094.001	3095.1626	3096.7127	3102.6864	3111.2284
CC1CCC11CC(=O)C1	C[C@H]1CCC21CC(=O)C2	
InChI=1S/C8H12O/c1-6-2-3-8(6)4-7(9)5-8/h6H,2-5H2,1H3	InChI=1S/C8H12O/c1-6-2-3-8(6)4-7(9)5-8/h6H,2-5H2,1H3/t6-/m0/s1
