17
gdb 71336	3.49508	1.30742	1.08213	4.0881	73.74	-0.237	-0.0184	0.2186	1104.9137	0.135039	-421.756086	-421.748428	-421.747484	-421.788311	29.746	
O	-0.0134849054	 1.3463035746	 0.158661813	-0.466703
C	 0.08570147	-0.0306715632	 0.1097390671	 0.392392
C	 0.8378167197	-0.9792954618	 1.065043911	-0.32907
C	 0.1032018557	-1.8998289572	 0.0713052281	-0.045964
C	-1.1559364995	-0.9686449215	 0.0026085037	-0.095705
C	-1.1536786146	-0.9854535927	-1.5522068328	-0.110005
C	-1.7262212478	 0.192291682	-2.2898285884	 0.132751
O	-2.4441730103	 0.0904733273	-3.2556922532	-0.264945
C	 0.3471789162	-0.9531628737	-1.1486040261	-0.131357
H	 0.8708830228	 1.7226863229	 0.0870565178	 0.288421
H	 1.9317195518	-0.9743326017	 1.0121531051	 0.093775
H	 0.4954060804	-1.0004607753	 2.1040879735	 0.103875
H	 0.0837311973	-2.9855707974	 0.0263426078	 0.091047
H	-2.009064074	-0.98679886	 0.6815014126	 0.08697
H	-1.4991303254	-1.9143556977	-2.0160360005	 0.082613
H	-1.4414309756	 1.186110214	-1.884948997	 0.091783
H	 1.2246365886	-0.9492769887	-1.7971235217	 0.080122
83.855	153.3631	229.5948	272.0615	342.5538	384.7975	429.726	430.1986	501.835	659.2298	722.8389	800.5401	837.9367	870.2196	885.7613	922.2226	933.527	987.9024	1004.4672	1031.8182	1067.6123	1080.4896	1087.4144	1122.5337	1132.7193	1140.0194	1172.1137	1201.8067	1216.8662	1217.8763	1270.4762	1301.7499	1320.8788	1380.873	1438.8613	1510.285	1816.29	2921.8676	3039.6977	3072.8684	3101.6613	3103.5524	3113.734	3156.228	3802.553
OC12CC3C1C(C=O)C23	O[C@@]12C[C@H]3[C@@H]1[C@@H](C=O)[C@@H]23	
InChI=1S/C7H8O2/c8-2-4-5-3-1-7(5,9)6(3)4/h2-6,9H,1H2	InChI=1S/C7H8O2/c8-2-4-5-3-1-7(5,9)6(3)4/h2-6,9H,1H2/t3-,4+,5+,6-,7-
