16
gdb 48514	3.37236	1.7054	1.47642	2.6306	71.48	-0.2419	-0.0415	0.2004	902.6377	0.125063	-400.668801	-400.662005	-400.661061	-400.701144	26.118	
O	-0.195195678	 0.1832887476	-0.4859022251	-0.257294
C	 0.0577636526	 1.1196613391	 0.2351373536	 0.009035
C	 1.298751935	 1.9220714822	 0.1235116944	 0.320325
C	 2.7655069056	 1.3772865731	-0.0326429652	-0.118142
C	 2.7560617719	 1.7524546222	-1.5344083239	-0.247223
C	 1.7084420095	 2.8122202162	-1.1171973102	-0.117226
C	 2.3486975978	 3.6821491469	-0.01852799	-0.041931
C	 3.1035956124	 2.6587970707	 0.7556472237	-0.04212
N	 1.6884948	 2.9924959369	 1.1427092754	-0.216652
H	-0.6388097248	 1.4525253827	 1.0362068031	 0.090211
H	 3.0870339135	 0.4090034705	 0.3428646238	 0.09261
H	 3.6879538392	 2.0963559505	-1.9919736988	 0.099764
H	 2.3007560435	 0.960957197	-2.1349990409	 0.129468
H	 0.9885422375	 3.2514423164	-1.8035927393	 0.091856
H	 2.5490907534	 4.746096897	-0.0128173809	 0.103476
H	 3.9373987808	 2.8624138211	 1.4154155103	 0.103842
26.1218	149.3982	213.8719	398.5247	441.238	548.8513	681.4635	733.0979	739.3769	817.1472	819.6409	838.2723	844.9575	883.6531	940.6515	944.7696	961.9367	986.2113	1038.4218	1054.5923	1064.9415	1068.4959	1105.5083	1132.238	1147.6214	1182.0209	1230.2382	1238.0034	1261.7733	1294.9681	1308.3606	1348.9628	1409.8307	1480.6922	1800.2183	2890.3408	3056.0052	3122.0049	3148.9714	3151.5443	3190.0813	3201.4299
O=CC12C3CC1C1C3N21	O=C[C@@]12[C@H]3C[C@@H]1[C@@H]1[C@H]3N21	
InChI=1S/C7H7NO/c9-2-7-3-1-4(7)6-5(3)8(6)7/h2-6H,1H2	InChI=1S/C7H7NO/c9-2-7-3-1-4(7)6-5(3)8(6)7/h2-6H,1H2/t3-,4+,5-,6+,7+,8?
