18
gdb 38995	3.09317	1.75391	1.29904	2.6891	71.3	-0.2359	0.0831	0.319	977.8657	0.150033	-439.031019	-439.024112	-439.023168	-439.062181	27.871	
C	-0.0370745295	 1.4477350331	 0.109201863	-0.30592
N	 1.2720031287	 0.79057216	-0.0940334986	-0.156755
C	 1.6323019266	 0.2101867065	 1.2519758051	-0.186451
C	 0.3917119687	-0.7092640839	 1.2605771821	 0.045798
O	 0.7745883569	-2.0568825665	 1.0318786576	-0.251473
C	-0.0850810704	-2.7054669063	 0.1250740661	 0.013099
O	-0.0422650304	-2.1428862588	-1.1567525955	-0.22798
C	-0.5821349887	-0.8235993043	-1.168147808	-0.194515
C	-0.0168261856	-0.0151045288	-0.0405245683	 0.300311
H	-0.2643832781	 1.897504159	 1.0746875688	 0.111805
H	-0.3515831931	 2.0381664734	-0.7469058646	 0.12548
H	 2.5541131133	-0.3680292858	 1.185506431	 0.131096
H	 1.7101646048	 0.9576505388	 2.0476096122	 0.103834
H	-0.3066835723	-0.6539110106	 2.1077438542	 0.071474
H	 0.2743928779	-3.7319494374	 0.0364313024	 0.123061
H	-1.1231320392	-2.6969662055	 0.5102305366	 0.073467
H	-0.3330567608	-0.3810125299	-2.1363823345	 0.127747
H	-1.6812390488	-0.8730473728	-1.0770670695	 0.095921
151.3793	157.222	309.9995	364.0872	403.0825	462.9427	474.7004	491.9386	615.6521	691.7323	747.3687	812.447	867.4718	914.847	925.6442	955.5995	995.8519	1014.4818	1026.2374	1057.2458	1081.4435	1112.4257	1124.4511	1137.1815	1198.3965	1210.2523	1251.0157	1260.8151	1282.2738	1323.1209	1325.7406	1352.8474	1357.9216	1424.4819	1441.4347	1477.9628	1479.977	1507.1642	1509.6849	2917.1253	2957.9154	2993.8887	3055.9391	3093.2138	3094.9126	3120.4504	3138.7441	3186.1864
C1N2CC3OCOCC123	C1N2C[C@@H]3OCOC[C@]123	
InChI=1S/C6H9NO2/c1-5-6(2-7(1)6)3-8-4-9-5/h5H,1-4H2	InChI=1S/C6H9NO2/c1-5-6(2-7(1)6)3-8-4-9-5/h5H,1-4H2/t5-,6-,7?/m0/s1
