15
gdb 13646	5.66975	0.91763	0.83396	2.0387	85.69	-0.2352	-0.0176	0.2176	1342.1797	0.117249	-325.447602	-325.439261	-325.438317	-325.480604	30.363	
C	-0.1359228353	 1.4920782825	-0.1587443194	-0.399479
C	-0.0150624343	 0.0016359317	 0.026255658	 0.021198
N	 1.3093630354	-0.588590747	-0.1738226317	-0.315525
C	 0.7138576574	-0.6119713073	 1.1889952035	-0.322751
C	 1.3483465696	 0.172198449	 2.2057621407	 0.498302
C	 1.8559237996	 0.8180026938	 3.0960343852	-0.237894
C	 2.4293526071	 1.5474592949	 4.0898503842	 0.299083
C	 2.937586711	 2.1953476416	 4.9735961094	-0.565743
H	 0.7444858153	 2.0016962961	 0.2383161144	 0.143759
H	-0.2252008561	 1.7376641065	-1.2220295424	 0.123266
H	-1.0227867383	 1.8756371459	 0.3561248691	 0.122135
H	-0.872075695	-0.5770283815	-0.3174718427	 0.091478
H	 1.2355123217	-1.5170019925	-0.5822924618	 0.237469
H	 0.3242925498	-1.5654079619	 1.5411699152	 0.113861
H	 3.386778102	 2.7652573082	 5.7485475982	 0.19084
76.5201	100.4257	180.0556	197.8744	259.2896	342.1196	395.6405	471.4503	511.7406	540.5482	562.0322	599.9036	613.3531	720.5827	773.2659	852.8043	910.5636	979.8556	1005.4373	1066.9886	1128.5365	1157.8203	1208.5702	1242.392	1267.1611	1393.2838	1420.7332	1450.7655	1486.6461	1495.4647	2181.2572	2356.4038	3040.7005	3104.1855	3106.1517	3121.3451	3137.6913	3501.9963	3504.9353
CC1NC1C#CC#C	C[C@H]1N[C@H]1C#CC#C	
InChI=1S/C7H7N/c1-3-4-5-7-6(2)8-7/h1,6-8H,2H3	InChI=1S/C7H7N/c1-3-4-5-7-6(2)8-7/h1,6-8H,2H3/t6-,7+/m1/s1
