17
gdb 47768	2.02263	1.69681	1.23552	1.6274	74.41	-0.2434	-0.0275	0.2158	1070.6801	0.135615	-421.811641	-421.803344	-421.8024	-421.844727	31.213	
O	 0.0293230218	-0.034358414	-0.082044286	-0.305396
C	-0.0132327212	 1.1666102362	 0.0027866565	 0.387701
C	-1.2916582724	 1.9804654552	 0.0309295171	-0.306281
C	-1.2348822424	 3.0649929961	-1.0663112552	-0.088548
O	-0.0727215173	 3.862724419	-0.9487149352	-0.228443
C	 1.1091537535	 3.1130994535	-1.1029549617	-0.101053
C	 1.2639891959	 2.0369838685	 0.0110738377	-0.262104
C	 1.465515801	 2.6354601389	 1.3242256808	 0.332688
C	 1.6203469249	 3.1199923838	 2.4134211848	-0.478397
H	-2.1497307641	 1.3182142744	-0.1051327209	 0.122871
H	-1.3681680545	 2.4768955826	 1.0045592501	 0.144792
H	-1.272678524	 2.5891177146	-2.0601134161	 0.102202
H	-2.0877608713	 3.7428116004	-0.9820270518	 0.122212
H	 1.1246000102	 2.6039459391	-2.0808706704	 0.101279
H	 1.9418912094	 3.818638728	-1.0619929687	 0.128602
H	 2.1032891742	 1.3781686496	-0.236581923	 0.123979
H	 1.7664666062	 3.5487896141	 3.374002382	 0.203896
79.7263	123.9727	134.2379	213.9334	330.696	361.2106	415.8061	448.3468	486.181	533.169	625.3271	636.1184	639.6668	735.4362	775.1842	853.7073	863.3533	925.6266	990.5032	1007.5683	1059.7426	1084.0021	1118.4454	1195.7385	1227.3985	1234.4141	1259.5612	1297.8666	1323.7867	1342.0326	1385.2469	1414.491	1454.4997	1490.9878	1507.0054	1830.503	2233.209	2970.9787	2975.3793	3054.3493	3058.7877	3099.0937	3106.2123	3121.8467	3502.7682
O=C1CCOCC1C#C	O=C1CCOC[C@H]1C#C	
InChI=1S/C7H8O2/c1-2-6-5-9-4-3-7(6)8/h1,6H,3-5H2	InChI=1S/C7H8O2/c1-2-6-5-9-4-3-7(6)8/h1,6H,3-5H2/t6-/m1/s1
