20
gdb 18610	2.75557	2.16612	1.71928	0.195	79.28	-0.2219	0.0212	0.2431	889.3216	0.178216	-311.870174	-311.862505	-311.861561	-311.901487	30.512	
C	 0.262187229	 1.8107262342	-0.4088552733	-0.414262
C	 0.3061894362	 0.3057522786	-0.2564989555	 0.006514
C	 1.5616251841	-0.5370335191	-0.4382535558	-0.110389
C	 2.8651656764	 0.1553827406	-0.2206721204	-0.083015
C	 3.0086336538	 0.5622858257	 1.0427009057	-0.084645
C	 1.8448525157	 0.1379210216	 1.9222901114	-0.018667
C	 1.2825887643	 1.2372747663	 2.8377129628	-0.399253
C	 0.8616740868	-0.4762126341	 0.9161337585	-0.081771
H	 1.1977249758	 2.2841834055	-0.1048879955	 0.12398
H	 0.0792441274	 2.0791782904	-1.4558834318	 0.108743
H	-0.5479581293	 2.2448881351	 0.187386603	 0.11313
H	-0.5759575609	-0.1779464901	-0.6726630137	 0.081053
H	 1.5166137458	-1.4069591249	-1.0855200104	 0.079419
H	 3.5800393691	 0.3250059987	-1.0186385859	 0.090256
H	 3.8459901084	 1.1333331763	 1.4305639983	 0.087128
H	 2.1931342839	-0.6723157331	 2.582589829	 0.080532
H	 0.9306632762	 2.1018578692	 2.2700720471	 0.122475
H	 0.4423261783	 0.8575300273	 3.4278936662	 0.112879
H	 2.0487821876	 1.5856394148	 3.5390641269	 0.109009
H	 0.2647856615	-1.3136355427	 1.2609033032	 0.076883
162.5529	190.6184	218.3141	240.3634	272.0067	294.7713	445.8684	514.2237	574.0068	690.7491	719.8515	754.8441	764.871	801.9224	866.9712	899.2512	947.1182	959.0034	963.2543	1014.9638	1040.6705	1056.5119	1088.6748	1098.9575	1120.4529	1124.1938	1134.7306	1152.8067	1233.2654	1304.0679	1308.9014	1335.2382	1362.2664	1381.2989	1409.6517	1411.9991	1431.2429	1493.4995	1496.2353	1504.5592	1506.3548	1666.596	2967.918	3028.93	3036.2394	3082.0483	3095.6057	3110.6913	3125.9626	3129.8425	3152.8885	3164.8418	3174.8114	3200.4976
CC1C2C=CC(C)C12	C[C@H]1[C@H]2C=C[C@@H](C)[C@@H]12	
InChI=1S/C8H12/c1-5-3-4-7-6(2)8(5)7/h3-8H,1-2H3	InChI=1S/C8H12/c1-5-3-4-7-6(2)8(5)7/h3-8H,1-2H3/t5-,6+,7-,8+/m1/s1
