19
gdb 109181	4.16085	0.96941	0.81185	3.2779	73.64	-0.2284	0.0304	0.2588	1382.6642	0.160039	-456.353788	-456.34449	-456.343546	-456.388204	33.995	
O	 0.0797957043	 1.4172693575	-0.0134951883	-0.422255
C	 0.0186867845	 0.0237812275	-0.0497226372	-0.119823
C	-1.4232075011	-0.4630193825	-0.0356185698	 0.371329
N	-2.3382373575	 0.4315572135	-0.0067143282	-0.34291
C	-3.7276974709	-0.0081318574	-0.0029612599	-0.19386
C	-3.9291759929	-1.4283474804	 0.546387923	 0.094026
O	-5.2278609143	-1.9322584071	 0.283854849	-0.427642
C	-2.9468648661	-2.3830931336	-0.13207787	-0.162673
N	-1.6131907137	-1.8147558352	-0.0343214316	-0.348903
H	-0.8572234896	 1.690833189	 0.0018163486	 0.288722
H	 0.5107457641	-0.3703098871	-0.9559447085	 0.097093
H	 0.5466680199	-0.4186407164	 0.811790064	 0.101174
H	-4.317429795	 0.7040995944	 0.5887652298	 0.095556
H	-4.1347224906	 0.0259867105	-1.023801689	 0.113597
H	-3.7169008759	-1.4272797039	 1.6269675084	 0.081395
H	-5.8658824382	-1.3554542302	 0.7156003553	 0.28884
H	-2.9687083369	-3.3592590017	 0.3608932061	 0.118796
H	-3.2621810279	-2.5278079615	-1.1752727519	 0.11852
H	-0.8170798421	-2.4150272553	-0.1697042399	 0.249018
53.2737	100.2708	151.2106	209.4968	239.7792	246.3873	305.5175	338.4557	388.8496	457.439	484.7855	527.9872	553.7795	620.8559	727.6518	834.9407	904.3305	967.2911	1036.8817	1042.3594	1079.4151	1097.8598	1112.5318	1145.0713	1168.1118	1205.0145	1240.7664	1250.1391	1266.0793	1286.9762	1320.4666	1330.381	1349.4202	1390.5146	1440.876	1487.5018	1492.8892	1514.0889	1517.0693	1549.744	1731.7417	2955.2232	2972.0394	2978.5225	3000.6857	3010.0367	3038.5339	3083.1876	3575.7479	3644.9203	3821.9763
OCC1=NCC(O)CN1	OCC1=NC[C@@H](O)CN1	
InChI=1S/C5H10N2O2/c8-3-5-6-1-4(9)2-7-5/h4,8-9H,1-3H2,(H,6,7)	InChI=1S/C5H10N2O2/c8-3-5-6-1-4(9)2-7-5/h4,8-9H,1-3H2,(H,6,7)
