23
gdb 59363	2.52423	1.18472	0.93984	1.0439	81.74	-0.2384	0.0697	0.3081	1364.1162	0.203421	-425.419406	-425.40882	-425.407876	-425.455281	39.074	
C	-0.1451278926	 1.4895012836	-0.2805181057	-0.411296
C	-0.012392311	-0.0113293102	-0.0363410348	 0.114165
O	 0.8184345865	-0.310078867	 1.0844427601	-0.433115
C	-1.3781044117	-0.6679062724	 0.1481144036	 0.133154
O	-2.2394172804	-0.4829137509	-0.9952932999	-0.317124
C	-2.5567018275	-1.8973359597	-1.053460526	 0.158777
C	-2.3859941652	-2.4660101871	-2.447954137	-0.40108
C	-1.5260353804	-2.2113744044	 0.0718500369	-0.083745
C	-0.2981885348	-3.0512394875	-0.2615417909	-0.411826
H	 0.8386748205	 1.9414376292	-0.4330424458	 0.119733
H	-0.7677165866	 1.6769011994	-1.1594472988	 0.141425
H	-0.6210849707	 1.9808103773	 0.5782412501	 0.102303
H	 0.4933720738	-0.4696732402	-0.8922823224	 0.088534
H	 0.4639644723	 0.1652353191	 1.8444957573	 0.278008
H	-1.8402116061	-0.2432984403	 1.0565355972	 0.051442
H	-3.5915348627	-2.0614321802	-0.7193424609	 0.06965
H	-1.3708727437	-2.3157204219	-2.8239865645	 0.119536
H	-2.6090400618	-3.5384418653	-2.4580002603	 0.115369
H	-3.0784013857	-1.9697636762	-3.1354895107	 0.125847
H	-2.0037204721	-2.6231951145	 0.9646209284	 0.07349
H	 0.1914731828	-2.7343698063	-1.1862750965	 0.119393
H	 0.4392220658	-2.9752305989	 0.5419894542	 0.138043
H	-0.5727867289	-4.1046997354	-0.3790000134	 0.109318
32.7662	82.8166	150.1223	205.5058	213.9682	228.3467	258.1342	278.4712	288.5892	335.5482	368.8261	398.1946	461.8946	512.7122	530.3241	763.7009	767.5539	829.1073	891.5706	898.2831	975.5685	1003.9294	1017.7459	1044.136	1046.301	1077.9118	1097.9247	1105.113	1166.7907	1184.366	1194.299	1253.3487	1263.6425	1282.6088	1321.8053	1337.7617	1377.422	1381.047	1396.6056	1401.0129	1409.757	1411.7985	1430.0106	1478.4679	1490.1673	1491.372	1495.2294	1499.4719	1512.3681	2942.6222	2989.2954	3023.198	3036.9413	3042.4073	3063.4627	3066.6886	3099.937	3104.7172	3107.9057	3119.9565	3125.5655	3129.2826	3794.8818
CC(O)C1OC(C)C1C	C[C@@H](O)[C@H]1O[C@@H](C)[C@H]1C	
InChI=1S/C7H14O2/c1-4-6(3)9-7(4)5(2)8/h4-8H,1-3H3	InChI=1S/C7H14O2/c1-4-6(3)9-7(4)5(2)8/h4-8H,1-3H3/t4-,5-,6+,7+/m1/s1
