24
gdb 103853	2.91386	0.9777	0.90773	1.1428	91.35	-0.2212	0.0853	0.3064	1475.0006	0.215722	-368.376407	-368.366195	-368.365251	-368.411683	38.614	
C	 0.2495107195	 1.6618788003	 0.1578077758	-0.387118
C	-0.134625639	 0.1939490316	-0.0727105671	-0.237251
C	 0.6055723503	-0.4558424185	-1.234397295	 0.345826
C	 0.3429403975	 0.1592166991	-2.5967087874	-0.44723
C	 1.9392726233	-1.0828526759	-0.9722162455	-0.294658
N	 0.7826396257	-1.9173078709	-1.2870148345	-0.129729
C	 0.2631609771	-2.779144073	-0.2636938913	 0.080283
C	-0.9780361738	-3.5636127795	-0.5944686308	-0.276178
C	 0.3602603897	-4.2602423775	-0.5209651492	-0.279581
H	 1.3252567499	 1.7633222494	 0.3367907168	 0.117222
H	-0.00570951	 2.2895836788	-0.7009891228	 0.120606
H	-0.275313369	 2.0666835756	 1.028698424	 0.112057
H	 0.0559401715	-0.3663766547	 0.8470157143	 0.096234
H	-1.2150025246	 0.1242199819	-0.2575650898	 0.099418
H	 0.7174000264	 1.186500866	-2.655310239	 0.114388
H	 0.8316353651	-0.431611944	-3.3747371416	 0.123317
H	-0.7317302979	 0.180306112	-2.8136188817	 0.112153
H	 2.7294251344	-1.0539764497	-1.7195306995	 0.105092
H	 2.2958904195	-1.0822329038	 0.058003764	 0.099848
H	 0.3831351274	-2.467248695	 0.7749324236	 0.073314
H	-1.702137083	-3.7389469477	 0.1933451789	 0.10796
H	-1.4024510783	-3.4071083672	-1.5792901564	 0.117741
H	 0.8175410761	-4.5579609802	-1.4571093271	 0.119518
H	 0.559901912	-4.9166721568	 0.3187341714	 0.106768
61.2821	78.1412	132.1183	154.5924	200.3851	224.7146	266.7826	327.4725	359.8413	374.7611	395.0931	465.5213	574.087	692.23	712.8262	783.5054	791.0136	826.2137	883.9835	906.426	920.8997	963.6201	972.608	1018.0412	1030.7464	1055.4178	1060.7897	1072.9437	1097.3511	1104.3364	1121.8256	1129.1292	1135.6291	1196.6725	1221.4171	1234.974	1285.4217	1303.104	1358.7238	1378.2136	1404.4521	1411.4784	1418.6128	1455.2152	1479.3552	1487.3639	1494.4518	1496.884	1501.7073	1510.1139	1513.2525	3020.9969	3029.5514	3036.7954	3068.0022	3076.9601	3085.0663	3091.7638	3103.3458	3112.7742	3124.0379	3136.5546	3141.1415	3161.1802	3221.62	3235.3525
CCC1(C)CN1C1CC1	CC[C@@]1(C)CN1C1CC1	
InChI=1S/C8H15N/c1-3-8(2)6-9(8)7-4-5-7/h7H,3-6H2,1-2H3	InChI=1S/C8H15N/c1-3-8(2)6-9(8)7-4-5-7/h7H,3-6H2,1-2H3/t8-,9?/m0/s1
