16
gdb 106017	3.287	1.62352	1.43601	1.3223	65.92	-0.2515	0.0493	0.3008	926.9805	0.125263	-437.778294	-437.771519	-437.770575	-437.809708	26.811	
O	 0.5777002953	 0.4327760997	 0.852898637	-0.414908
C	-0.1430986232	 0.4218402599	-0.367166327	-0.222228
C	-1.471198582	-0.2381453485	-0.1847862459	 0.351742
C	-2.6963326432	 0.2196529891	 0.6589424388	 0.008029
O	-3.480812952	 0.4891615459	-0.5255157937	-0.290601
C	-2.6400957707	-0.4841156113	-1.1810630194	-0.016784
C	-2.7847645912	-1.8233305381	-0.413472078	-0.062226
C	-2.8299004134	-1.2902712079	 0.9750541174	-0.056803
N	-1.5114095975	-1.6762817867	 0.3698623619	-0.228603
H	 0.6214424284	-0.4834397307	 1.1528370273	 0.298663
H	-0.2762534317	 1.4648058254	-0.6740389602	 0.125961
H	 0.4161912295	-0.0936768188	-1.1649554111	 0.099372
H	-2.7429119828	 0.986041436	 1.4285210199	 0.101039
H	-2.6362222081	-0.4328381541	-2.2676726695	 0.094114
H	-3.1644328639	-2.786123025	-0.7293857483	 0.106693
H	-3.2472873436	-1.8042859748	 1.8308804008	 0.10654
90.102	146.2311	255.2627	361.427	429.5891	556.9284	589.6487	660.5203	755.6329	780.887	816.2967	819.8207	856.9506	864.3682	870.1165	935.9189	939.656	949.6585	1033.3504	1041.398	1049.5867	1074.7712	1096.887	1130.4053	1136.7365	1178.8119	1213.0003	1235.0485	1276.5565	1280.1118	1329.1882	1364.0452	1381.1689	1435.5313	1491.3737	2974.2621	3075.3059	3149.1976	3159.9319	3199.4703	3210.895	3788.0252
OCC12C3OC1C1C3N21	OC[C@@]12[C@H]3O[C@@H]1[C@@H]1[C@H]3N21	
InChI=1S/C6H7NO2/c8-1-6-4-2-3(7(2)6)5(6)9-4/h2-5,8H,1H2	InChI=1S/C6H7NO2/c8-1-6-4-2-3(7(2)6)5(6)9-4/h2-5,8H,1H2/t2-,3+,4+,5-,6-,7?
