20
gdb 32899	4.27385	0.7794	0.69684	2.2038	84.45	-0.1883	0.0459	0.2342	1645.7066	0.170998	-403.190122	-403.180343	-403.179398	-403.225728	35.201	
C	 0.1044216497	 1.4503162234	 0.1565826781	-0.504851
C	 0.01753229	-0.0263802562	-0.04536396	 0.296524
C	-0.1746904108	-0.7775909199	-1.1829361135	-0.213568
C	-0.1907314316	-2.1499484838	-0.8032770892	-0.225043
C	-0.0077929989	-2.2138745167	 0.559848181	 0.27989
C	 0.0958995977	-3.3796458615	 1.4890113786	-0.305033
C	 1.5393666321	-3.7254275783	 1.8695742377	-0.060053
O	 1.4972439489	-4.81848094	 2.7731667418	-0.418388
N	 0.1212526809	-0.913196351	 1.0031382584	-0.337199
H	 1.0637278411	 1.7558416793	 0.5940534012	 0.122359
H	 0.0041793618	 1.9614035863	-0.8037098828	 0.13668
H	-0.6878939286	 1.828651786	 0.8154517141	 0.123614
H	-0.2974227628	-0.3791896298	-2.1790975149	 0.084606
H	-0.3243240493	-3.0010156783	-1.4544398344	 0.085892
H	-0.4663000132	-3.2001771749	 2.4148883372	 0.104792
H	-0.355156047	-4.2580122287	 1.0178201282	 0.121538
H	 2.1046775437	-3.9709320905	 0.9578509005	 0.095146
H	 2.0248736154	-2.8469224771	 2.3257816882	 0.077041
H	 2.4006714809	-5.0792306485	 2.9737635623	 0.286182
H	 0.2442490799	-0.6484971599	 1.9657865376	 0.249871
44.4667	86.0666	96.7951	115.5108	223.2822	255.3541	260.0362	337.1481	366.428	393.6006	473.2536	631.9972	642.2597	675.933	756.7011	785.5708	791.7605	825.143	979.7309	998.3947	1000.9129	1021.2643	1051.7475	1062.7478	1068.3876	1076.4524	1203.4665	1209.7208	1238.0226	1276.1763	1282.5104	1310.9595	1338.6529	1416.4943	1430.6117	1450.6229	1452.4288	1480.4242	1484.6969	1503.3696	1525.4328	1545.4767	1639.2903	2963.5094	3001.5797	3011.8135	3026.3812	3053.6171	3090.6684	3120.9894	3234.3613	3249.707	3665.8707	3831.5367
CC1=CC=C(CCO)N1	Cc1ccc(CCO)[nH]1	
InChI=1S/C7H11NO/c1-6-2-3-7(8-6)4-5-9/h2-3,8-9H,4-5H2,1H3	InChI=1S/C7H11NO/c1-6-2-3-7(8-6)4-5-9/h2-3,8-9H,4-5H2,1H3
