18
gdb 98988	4.09546	0.86627	0.72149	3.0912	73.42	-0.2161	0.0187	0.2348	1555.4149	0.146669	-472.457575	-472.446987	-472.446043	-472.495064	35.562	
C	 1.0956608775	 1.5989215375	-1.9422217729	-0.307092
N	 1.1217137899	 0.1553454638	-2.020327488	-0.313168
C	 0.5725294592	-0.600576314	-1.0412442374	 0.475121
N	 0.0111553394	-0.0819658629	-0.0125967131	-0.583379
N	 0.6679572034	-2.0048398071	-1.2444334148	-0.461639
C	 1.2354450652	-2.6850754549	-2.2879483191	 0.556956
O	 1.778216692	-2.2030191665	-3.261423288	-0.42235
O	 1.1028763487	-4.0117718291	-2.0764235218	-0.262988
C	 1.6578615321	-4.8458549166	-3.1004137848	-0.236674
H	 0.0685512418	 1.9776597262	-1.9005087667	 0.136224
H	 1.614653362	 1.9593820727	-1.0473213153	 0.136234
H	 1.5895589767	 2.0023115289	-2.8285879741	 0.117998
H	 1.5461988637	-0.3230509135	-2.8001386264	 0.276294
H	-0.3479302464	-0.7893542679	 0.6229584402	 0.199001
H	 0.2619587171	-2.5761301477	-0.5207544493	 0.260714
H	 2.7316416189	-4.6711549457	-3.2017036808	 0.145355
H	 1.4672868105	-5.8692131736	-2.7775640105	 0.138027
H	 1.1745681283	-4.6522649698	-4.0610003372	 0.145366
22.8755	66.1677	92.5139	115.1816	134.5472	156.5543	178.6487	265.4275	340.1523	387.609	425.5606	429.6249	550.6223	688.5051	718.4305	746.9198	749.6878	776.9212	902.9379	984.3156	1071.2711	1146.8284	1166.167	1182.5163	1183.6811	1201.0053	1216.2665	1248.9448	1329.4662	1454.6132	1464.6717	1473.481	1481.3435	1496.6592	1517.6565	1519.6563	1591.1383	1739.3649	1804.1578	3030.7505	3054.621	3081.1926	3129.4999	3131.0384	3161.7626	3520.1424	3601.2149	3647.7225
CNC(=N)NC(=O)OC	CNC(=N)NC(=O)OC	
InChI=1S/C4H9N3O2/c1-6-3(5)7-4(8)9-2/h1-2H3,(H3,5,6,7,8)	InChI=1S/C4H9N3O2/c1-6-3(5)7-4(8)9-2/h1-2H3,(H3,5,6,7,8)
