19
gdb 71400	3.81697	1.31681	1.27129	2.0754	79.69	-0.2531	0.0941	0.3472	1078.312	0.159239	-385.822356	-385.814799	-385.813855	-385.853953	30.623	
C	 0.0170490159	 1.4361764383	 0.0066263296	-0.504933
C	 0.0258006423	-0.0628070804	-0.0366931845	 0.335255
C	-0.5602796694	-0.9626026239	-1.1326815402	-0.277671
C	-0.410828546	-2.1305823086	-0.1192578885	-0.188155
C	-0.3497570775	-1.0512950111	 1.0386628366	-0.124111
C	 1.1206437398	-0.8885876023	 0.6676386124	-0.236914
C	 1.10757745	-2.2522630598	 0.0358660155	 0.542665
C	 1.9123896772	-3.4280494232	 0.3421074922	-0.29674
O	 1.998946219	-2.764828504	-0.9369037447	-0.290791
H	 0.6654219013	 1.8585380826	-0.7697389523	 0.125064
H	-0.9933352891	 1.8300947276	-0.1510027307	 0.119043
H	 0.3720361304	 1.8088135029	 0.9735725666	 0.118389
H	-1.6104946658	-0.7167758897	-1.3165710669	 0.093251
H	-0.0237954736	-1.0588763729	-2.0833362025	 0.103619
H	-1.0493194287	-3.0100100739	-0.1606768661	 0.075007
H	-0.843391836	-0.9599822879	 1.9947059097	 0.093286
H	 1.9046049354	-0.4127792825	 1.2425040518	 0.087948
H	 2.7970930675	-3.3372400974	 0.9717069801	 0.113508
H	 1.4617021675	-4.4199727836	 0.3213480216	 0.11228
135.071	207.5377	220.7178	259.3805	313.2129	373.0338	456.2577	486.6223	606.3727	627.1328	744.2866	779.5629	820.1668	858.6151	870.7262	884.4135	906.7687	919.2659	942.0802	985.2349	1013.5862	1022.7192	1036.3615	1090.2254	1112.3146	1115.9328	1147.9867	1159.4547	1162.1621	1179.0261	1205.8298	1232.8715	1269.6216	1297.1568	1395.2516	1424.2702	1462.4889	1486.7684	1496.4284	1501.7073	1548.3685	3023.1524	3036.7569	3075.7486	3084.8377	3092.9157	3095.4217	3143.7267	3159.9848	3199.9359	3228.4445
CC12CC3C1C2C31CO1	C[C@]12C[C@@H]3[C@H]1[C@H]2[C@]13CO1	
InChI=1S/C8H10O/c1-7-2-4-5(7)6(7)8(4)3-9-8/h4-6H,2-3H2,1H3	InChI=1S/C8H10O/c1-7-2-4-5(7)6(7)8(4)3-9-8/h4-6H,2-3H2,1H3/t4-,5+,6-,7+,8-/m1/s1
