17
gdb 86489	2.23216	1.35127	0.98159	2.9576	75.5	-0.2564	-0.0352	0.2212	1211.3649	0.132738	-421.784657	-421.775401	-421.774457	-421.818971	34.116	
O	 0.9200871866	 0.2028310815	-0.7303314101	-0.42882
C	 0.0569051803	-0.4525048446	 0.1568633784	 0.170544
C	 0.0717012665	-0.0829528243	 1.6626188473	-0.310965
C	-1.48403065	-0.2251229709	 1.6868643952	 0.040459
C	-1.4612388348	-0.135055374	 0.1056598927	-0.314274
C	-1.9407317688	-1.6248631033	 2.0933216757	 0.113128
O	-1.2032890185	-2.5640346665	 2.2347671175	-0.247013
C	-2.2645906492	 0.7745270779	 2.3859700286	 0.210731
C	-2.9245117933	 1.5881362861	 2.9772264228	-0.399454
H	 0.8081902227	 1.1529768843	-0.6167911404	 0.278683
H	 0.2403921093	-1.5202073412	 0.0193902532	 0.11829
H	 0.6215256851	-0.7359847478	 2.340518933	 0.133098
H	 0.3643883664	 0.9584062999	 1.8205509184	 0.105969
H	-1.6522182013	 0.8949816164	-0.2074735838	 0.115021
H	-2.121357885	-0.8066970632	-0.4484512887	 0.120497
H	-3.0402445073	-1.7185996855	 2.2230572803	 0.095977
H	-3.4988922188	 2.3146381551	 3.4971554498	 0.19813
67.3726	78.8875	161.6109	171.2368	239.6537	271.649	316.413	390.8874	444.9192	486.7709	508.0309	536.6546	595.7333	621.7251	645.737	748.4444	823.8257	859.8872	923.1657	937.533	1019.1462	1040.2444	1076.992	1089.5456	1115.1656	1187.1146	1221.2809	1248.8811	1261.2757	1286.029	1337.5568	1412.9886	1434.4383	1458.1332	1485.2585	1825.7557	2230.6988	2906.3136	3060.0374	3071.2975	3095.9913	3122.8636	3146.1406	3500.239	3801.8182
OC1CC(C1)(C=O)C#C	O[C@H]1C[C@@](C1)(C=O)C#C	
InChI=1S/C7H8O2/c1-2-7(5-8)3-6(9)4-7/h1,5-6,9H,3-4H2	InChI=1S/C7H8O2/c1-2-7(5-8)3-6(9)4-7/h1,5-6,9H,3-4H2/t6-,7-
