16
gdb 7738	3.63687	1.813	1.25019	5.0522	72.88	-0.2059	-0.0036	0.2023	940.454	0.13304	-379.951338	-379.944122	-379.943178	-379.982558	28.034	
N	 0.0493972122	 1.3827555148	 0.1321687847	-0.569796
C	-0.0196612175	 0.0070871712	 0.0549192619	 0.340332
C	-1.1621348233	-0.7034023542	 0.1503767523	-0.231988
C	-1.1902597051	-2.1537314806	 0.047703763	 0.380898
N	-2.2835513262	-2.8020671953	-0.0366297692	-0.54347
O	 0.0190740379	-2.811551077	-0.0141940615	-0.26223
C	 1.1546476075	-2.1209329048	 0.4993181132	-0.084727
C	 1.2897558495	-0.7224946262	-0.0946975465	-0.312404
H	 0.8541773284	 1.8182179949	-0.2915375862	 0.252921
H	-0.8091868486	 1.887407327	-0.0324471134	 0.256842
H	-2.1302514929	-0.2257412025	 0.2437634339	 0.093706
H	-2.0819879451	-3.8015462615	-0.1001643774	 0.210931
H	 1.0790697201	-2.0495315933	 1.5931473549	 0.111338
H	 2.0176423935	-2.7445529183	 0.253752041	 0.114911
H	 1.5680701159	-0.7807657122	-1.155481331	 0.127842
H	 2.0903558737	-0.181685112	 0.4237139502	 0.114893
125.0222	173.8612	252.2369	325.9486	377.4447	439.3082	471.2009	494.93	529.8432	577.6964	673.7805	696.0194	808.9802	861.5136	872.4506	887.205	922.7785	1004.2256	1072.9897	1088.2565	1102.6432	1154.019	1225.1239	1262.3924	1296.0984	1317.3908	1362.5616	1426.0585	1435.2945	1465.5492	1506.4206	1648.1086	1696.3278	1724.131	3011.7721	3020.9638	3066.6707	3100.1737	3201.3144	3470.4301	3570.8156	3677.757
NC1=CC(=N)OCC1	N[C]1C=C([NH])OCC1	
InChI=1S/C5H8N2O/c6-4-1-2-8-5(7)3-4/h3,7H,1-2,6H2	InChI=1S/C5H8N2O/c6-4-1-2-8-5(7)3-4/h3,7H,1-2,6H2
