19
gdb 55441	3.39357	1.10413	0.96113	2.4636	77.98	-0.2354	-0.0205	0.2149	1276.0435	0.158756	-423.047671	-423.038822	-423.037878	-423.082029	32.435	
C	-0.0807870623	 1.5061273178	-0.019191877	-0.480383
C	-0.0185117188	-0.0071481231	 0.0754244352	 0.379343
O	 0.0254893773	-0.5795151202	 1.1396833288	-0.299727
C	 0.0005822949	-0.7694049438	-1.2568319334	-0.152324
C	 0.5944477584	-2.1759893763	-1.0934444224	-0.101269
O	 0.3873354994	-2.9560644542	-2.2583034693	-0.25027
C	-0.9791525023	-3.2336814619	-2.4835944965	-0.116854
C	-1.8541585865	-2.0195949456	-2.3394026707	-0.080199
C	-1.4076398142	-0.8843111759	-1.8096118816	-0.061373
H	 0.8826045087	 1.8810939259	-0.3859377764	 0.146302
H	-0.8396920043	 1.834649641	-0.736666944	 0.138481
H	-0.2807249904	 1.9342854636	 0.963681565	 0.144513
H	 0.6087182594	-0.1838011967	-1.9623566969	 0.095648
H	 1.6758383471	-2.1306842876	-0.9420147352	 0.110871
H	 0.1469021673	-2.6512866035	-0.2105428725	 0.116858
H	-1.0469348591	-3.6336243566	-3.5023294801	 0.118089
H	-1.3336463791	-4.0314421661	-1.8042298751	 0.102025
H	-2.8766882508	-2.1057584025	-2.6972304473	 0.097659
H	-2.0546347147	-0.0134518744	-1.7466840807	 0.092611
43.123	88.0927	131.1586	182.7233	250.5877	295.0661	326.6794	406.1369	493.3811	516.3909	579.7441	603.0044	678.5766	762.4573	879.2969	893.3816	921.8662	949.6937	991.6731	1001.478	1011.4666	1037.8686	1077.5692	1108.9229	1142.9333	1181.033	1218.8398	1243.7075	1276.4811	1306.5297	1339.4568	1370.0924	1382.362	1408.6672	1419.3725	1461.8793	1475.9477	1484.3427	1499.6942	1718.9368	1809.8648	2932.6258	2994.2352	3025.0186	3036.0165	3050.8434	3097.4127	3099.5953	3151.2174	3153.1708	3175.0802
CC(=O)C1COCC=C1	CC(=O)[C@H]1COCC=C1	
InChI=1S/C7H10O2/c1-6(8)7-3-2-4-9-5-7/h2-3,7H,4-5H2,1H3	InChI=1S/C7H10O2/c1-6(8)7-3-2-4-9-5-7/h2-3,7H,4-5H2,1H3/t7-/m1/s1
