13
gdb 50791	7.55588	0.61422	0.56804	5.2819	89.85	-0.2551	-0.0728	0.1823	1809.9393	0.087313	-415.570471	-415.561278	-415.560333	-415.605492	31.6	
N	 0.3090013516	 1.2288368689	 0.0041377131	-0.393282
C	 0.0202867084	-0.0034280094	 0.0010487788	 0.083122
N	-1.2804841771	-0.5063586006	 0.0109359485	-0.32071
C	-2.4857172577	 0.1911544251	 0.0273163664	 0.224955
O	-2.6059440809	 1.3913475301	 0.0361107937	-0.290481
C	-3.6296579383	-0.7110332722	 0.0329723747	 0.244337
C	-4.6272785115	-1.3990897339	 0.0385482158	-0.097056
C	-5.7396118988	-2.178544296	 0.0446722034	 0.281228
C	-6.7264867935	-2.8741504118	 0.0500768513	-0.536401
H	 1.3214189614	 1.343515573	-0.0048721568	 0.23362
H	 0.7414124268	-0.8304830751	-0.0097960407	 0.09935
H	-1.3649881762	-1.5112335698	 0.0058613378	 0.265607
H	-7.5973576843	-3.4825782883	 0.0548789841	 0.205712
49.1319	63.1284	117.2627	181.4519	198.2497	238.5134	303.625	361.2327	499.5033	550.1746	560.0799	573.4395	589.6734	606.0304	626.7461	750.9466	825.2004	912.1042	969.0856	1065.5544	1125.1466	1222.9199	1258.0198	1431.5794	1531.3554	1733.2257	1797.0807	2177.1598	2342.9346	3036.1498	3498.8355	3500.0099	3630.6042
N=CNC(=O)C#CC#C	N=CNC(=O)C#CC#C	
InChI=1S/C6H4N2O/c1-2-3-4-6(9)8-5-7/h1,5H,(H2,7,8,9)	InChI=1S/C6H4N2O/c1-2-3-4-6(9)8-5-7/h1,5H,(H2,7,8,9)
