16
gdb 19211	2.72458	2.65892	2.59772	1.0308	58.93	-0.2548	0.0819	0.3367	691.8776	0.133721	-420.871693	-420.865663	-420.864719	-420.90183	23.699	
C	 0.0015771403	 1.5344158429	 0.0196554123	-0.069169
O	 1.3566938986	 2.0089380833	 0.0078742776	-0.268802
C	 2.2598291353	 0.9238252551	 0.0266010047	 0.177271
C	 2.002701013	 0.0603795854	 1.2638789313	-0.094891
O	 0.6654365633	-0.4547897114	 1.1946893452	-0.280395
C	 0.0263992776	 0.0054750204	 0.0058825683	 0.037631
C	 0.8354613836	-0.4660040071	-1.2030811996	-0.069168
O	 2.1380153294	 0.1346140172	-1.1377734827	-0.268799
H	-0.5035895554	 1.8978173142	 0.9228604259	 0.109698
H	-0.5211569976	 1.9309054218	-0.8605134562	 0.105991
H	 3.2650313412	 1.3481706723	 0.017896923	 0.096056
H	 2.714021209	-0.7741108965	 1.2967626084	 0.109254
H	 2.1154597606	 0.6617635026	 2.1744036187	 0.109253
H	-0.9827305895	-0.4130163049	 0.002336419	 0.090379
H	 0.9369942758	-1.558038269	-1.1894995963	 0.109699
H	 0.3538970449	-0.1682533862	-2.1436089697	 0.105991
103.8363	313.0583	321.5304	412.6125	423.7146	556.6675	600.6762	726.5832	842.579	861.5567	876.3997	889.4039	940.0272	948.5762	970.7734	1069.8502	1069.8523	1096.0858	1111.0156	1132.9167	1175.9312	1221.7073	1236.6991	1247.908	1329.6874	1337.1044	1346.0085	1351.1448	1402.5844	1405.2276	1412.4525	1508.8055	1510.8238	1520.2444	3011.1936	3015.1349	3017.7939	3053.4122	3058.0725	3060.3887	3093.5754	3113.1978
C1OC2COC1CO2	C1O[C@H]2CO[C@@H]1CO2	
InChI=1S/C5H8O3/c1-4-2-8-5(7-1)3-6-4/h4-5H,1-3H2	InChI=1S/C5H8O3/c1-4-2-8-5(7-1)3-6-4/h4-5H,1-3H2/t4-,5+
