15
gdb 42743	2.50475	2.0088	1.51332	4.623	70.17	-0.2185	-0.0702	0.1482	889.2358	0.114375	-420.655552	-420.648894	-420.64795	-420.686548	26.437	
O	-0.0185683433	 0.0109681529	 0.0517030924	-0.299862
C	-0.0613923249	 1.2081952819	 0.0388579511	 0.336203
C	-1.2752326998	 2.1525714995	 0.0022958422	-0.169708
C	-0.72155635	 3.2885142383	-0.8960446028	-0.249601
C	 0.5196721246	 3.5814306969	-0.0142830991	-0.169702
C	-0.1273564017	 3.643921803	 1.3705101211	-0.081745
C	-1.1755158508	 2.8096570163	 1.3801545763	-0.081729
C	 1.1683231279	 2.1871276169	 0.0274723185	 0.336201
O	 2.3255608102	 1.8770490363	 0.0296157251	-0.299864
H	-2.2170325607	 1.680233446	-0.2675187887	 0.095071
H	-0.4651616258	 2.9546887788	-1.9075869283	 0.119151
H	-1.4019943813	 4.1426422112	-0.9492472119	 0.120276
H	 1.1879869036	 4.3908767677	-0.2989627325	 0.095071
H	 0.2905939437	 4.1844341615	 2.2090994267	 0.125121
H	-1.7865000518	 2.5311806828	 2.2282198	 0.125117
115.8102	194.5234	300.9059	408.7793	417.0914	478.6117	503.7639	649.9725	673.6196	729.3053	755.9079	780.8436	853.0128	885.1918	903.9238	922.082	952.315	973.9908	991.3319	1000.8645	1110.1017	1130.6786	1156.976	1179.8317	1232.5037	1249.4086	1276.2049	1282.5212	1346.3005	1488.8835	1623.1584	1861.8376	1867.7899	3047.2894	3107.2872	3147.2426	3147.2939	3217.1139	3240.5203
O=C1C2CC(C=C2)C1=O	O=C1[C@@H]2C[C@@H](C=C2)C1=O	
InChI=1S/C7H6O2/c8-6-4-1-2-5(3-4)7(6)9/h1-2,4-5H,3H2	InChI=1S/C7H6O2/c8-6-4-1-2-5(3-4)7(6)9/h1-2,4-5H,3H2/t4-,5+
