18
gdb 16020	3.9445	1.84909	1.51858	1.7535	67.39	-0.2506	0.0887	0.3393	876.3726	0.155614	-384.928682	-384.921824	-384.92088	-384.959436	27.43	
C	 0.0005056767	 1.4985781653	-0.0348565268	-0.335479
C	 1.3143536537	 0.7353815156	-0.0401918033	-0.323772
C	-0.009973215	 0.010294277	 0.0387030232	 0.446472
C	-0.4201224972	-0.7467687697	 1.2861199395	-0.268988
C	 0.0212006434	-2.2071708268	 1.1356435142	-0.085708
O	-0.4461503878	-2.7366842518	-0.0996381082	-0.235104
C	 0.0080592458	-1.968899864	-1.1802538982	 0.009285
O	-0.451591413	-0.6376597149	-1.1331421378	-0.281194
H	-0.2725625175	 2.0594125919	 0.8525459775	 0.113418
H	-0.3217497126	 1.9383990192	-0.9717330367	 0.126745
H	 1.8514336746	 0.6844067743	-0.9803875912	 0.119647
H	 1.9423132541	 0.7779202471	 0.8433945488	 0.111091
H	 0.0245936408	-0.300101252	 2.181346877	 0.097277
H	-1.5106304028	-0.7090286302	 1.3895441573	 0.113826
H	 1.1211701842	-2.2750441183	 1.1789182852	 0.090758
H	-0.3933914936	-2.8414333696	 1.9231265003	 0.110812
H	 1.1137432316	-1.9782733852	-1.2103292161	 0.074809
H	-0.4034278454	-2.4141376878	-2.0880153146	 0.116106
136.5965	212.3571	284.786	344.1278	362.8582	419.0552	494.1206	528.6161	671.2727	702.2252	773.696	864.5881	877.9429	888.1681	947.0799	963.5075	989.0651	1007.0608	1043.3678	1061.3783	1078.2808	1094.6856	1127.6491	1188.001	1194.0187	1213.4422	1267.9462	1287.2419	1326.3619	1341.5001	1384.7255	1400.8994	1446.6533	1451.988	1469.1182	1494.1858	1496.2247	1512.0758	2929.1946	2970.2811	3038.6318	3089.0472	3096.6808	3115.8775	3133.0939	3137.1415	3218.1519	3231.7634
C1CC11CCOCO1	C1CC21CCOCO2	
InChI=1S/C6H10O2/c1-2-6(1)3-4-7-5-8-6/h1-5H2	InChI=1S/C6H10O2/c1-2-6(1)3-4-7-5-8-6/h1-5H2
