15
gdb 47318	3.28309	1.39257	1.10461	2.1751	61.31	-0.2662	-0.0427	0.2235	1049.6476	0.112688	-494.946419	-494.938673	-494.937729	-494.979487	28.102	
O	-0.0341014364	-0.0633643217	 0.4925248187	-0.287975
C	-0.0683145856	 1.0734461728	 0.0936084641	 0.378587
C	-1.329306725	 1.9167851355	 0.0333581034	-0.346706
C	-1.6543217244	 2.304425138	-1.4185446129	-0.093947
O	-0.4912743498	 2.7031856099	-2.1679497694	-0.255766
C	 0.310596406	 3.6444257863	-1.5858052083	 0.456301
O	 0.3384134829	 4.7912380876	-1.9042470884	-0.335262
O	 1.1191346472	 3.1538777193	-0.6202965921	-0.233296
C	 1.2102490531	 1.7382621484	-0.4240599778	-0.169221
H	-2.1581822581	 1.3508048793	 0.4632976319	 0.140174
H	-1.1761720756	 2.8202166285	 0.6356435076	 0.14842
H	-2.0487028877	 1.4455709172	-1.9650224879	 0.143916
H	-2.3956023433	 3.1107975214	-1.448126495	 0.137568
H	 2.0027891685	 1.5973651036	 0.3134181418	 0.158443
H	 1.5064827281	 1.2370464239	-1.3517567457	 0.158764
58.5008	89.047	183.2446	256.1239	307.5833	379.5267	443.481	493.6288	562.7772	619.2315	689.9079	740.8675	800.1535	848.7459	875.2052	943.4053	967.2938	1050.528	1081.6426	1117.3368	1147.7276	1206.3051	1247.9234	1258.8734	1284.121	1342.5281	1370.5194	1412.5514	1456.8001	1469.4358	1511.9653	1830.8785	1890.5565	3044.2492	3050.2059	3058.56	3115.2235	3128.6193	3128.8877
O=C1CCOC(=O)OC1	O=C1CCOC(=O)OC1	
InChI=1S/C5H6O4/c6-4-1-2-8-5(7)9-3-4/h1-3H2	InChI=1S/C5H6O4/c6-4-1-2-8-5(7)9-3-4/h1-3H2
