20
gdb 109799	3.00684	1.10057	1.03802	2.7665	75.52	-0.2309	0.0622	0.2931	1272.5845	0.170318	-440.212133	-440.20274	-440.201796	-440.246956	34.424	
C	 0.4123677392	 1.1204483366	 0.3205558997	-0.244387
O	-0.2261184935	-0.0252215966	-0.2272502847	-0.247516
C	 0.4663871224	-0.5522306886	-1.32031061	 0.041045
C	 1.4194571885	-1.6733574155	-0.9985168083	 0.076666
O	 1.6097554295	-2.0096814314	 0.3430679229	-0.426844
C	 0.0944694133	-1.9702797457	-1.699867027	-0.165422
C	-1.047438673	-2.6679798366	-1.0125792946	-0.004661
C	-1.2461258361	-4.1263595731	-1.2170234154	-0.241239
N	-0.83132054	-3.6211367518	 0.0974981049	-0.326679
H	 1.4289805295	 0.8904943705	 0.6649587096	 0.125537
H	 0.4651544374	 1.932791874	-0.4180755739	 0.11615
H	-0.1945212289	 1.4480359256	 1.1673023476	 0.135017
H	 0.6940466584	 0.1710163651	-2.1034210975	 0.087667
H	 2.3393316802	-1.7901850292	-1.5612983814	 0.106882
H	 0.8754832138	-1.6134836271	 0.8333836501	 0.302852
H	 0.1805866402	-2.1766506173	-2.7640234578	 0.098748
H	-1.9317875221	-2.0528564766	-0.8666740148	 0.10126
H	-2.2507231245	-4.5385563136	-1.26073847	 0.112449
H	-0.5149896349	-4.6526340549	-1.8267627857	 0.106383
H	 0.1678905406	-3.7593309538	 0.2217616064	 0.246092
49.3876	97.9586	103.206	181.1148	198.7705	262.4124	298.7672	322.4634	360.378	467.72	583.0403	638.3058	698.3189	739.2283	782.7143	828.7073	839.8385	913.1781	960.028	983.0392	1039.5244	1071.7234	1083.5418	1101.6753	1115.3082	1137.6129	1146.9409	1151.8879	1183.6055	1204.227	1220.5293	1250.4993	1264.1284	1313.3949	1324.6045	1339.4078	1376.4509	1414.0329	1459.6228	1482.1276	1488.1456	1508.4166	1510.8944	2997.1914	3056.8313	3097.5805	3099.9698	3126.9807	3130.6306	3134.4792	3169.9817	3184.2224	3518.4717	3747.7238
COC1C(O)C1C1CN1	CO[C@H]1[C@@H](O)[C@H]1[C@H]1CN1	
InChI=1S/C6H11NO2/c1-9-6-4(5(6)8)3-2-7-3/h3-8H,2H2,1H3	InChI=1S/C6H11NO2/c1-9-6-4(5(6)8)3-2-7-3/h3-8H,2H2,1H3/t3-,4-,5+,6-/m1/s1
