18
gdb 43713	4.94952	1.07327	1.03088	2.9905	78.1	-0.2456	0.0286	0.2743	1199.3328	0.148327	-401.913228	-401.9057	-401.904756	-401.945317	29.696	
N	 0.0576949166	 1.0640061086	 0.6921538707	-0.54222
C	-0.0317935886	-0.0113305394	 0.0555593279	 0.420018
C	-1.1710728213	-0.9164140813	-0.3708497412	-0.450268
C	-0.0433762537	-1.7453854854	-0.9846373466	 0.463668
O	 0.9521655814	-0.7984778132	-0.5182898269	-0.28402
C	 0.3205772051	-3.1858478442	-0.9757762516	-0.140586
C	-0.895796256	-4.0367530715	-1.3559295252	-0.234326
C	-1.0332748284	-3.2334651801	-2.6936604676	-0.234318
C	 0.1839175969	-2.3875626851	-2.3050297436	-0.140592
H	 1.0298536472	 1.3665424187	 0.7739097818	 0.228061
H	-1.7173784298	-1.3794051515	 0.4530769896	 0.139838
H	-1.8742100973	-0.4633494916	-1.0722733369	 0.139838
H	 1.2141518092	-3.5231269714	-0.4642552474	 0.101947
H	-0.6411587325	-5.0838007977	-1.5301039548	 0.1141
H	-1.7443274629	-3.9980953202	-0.6648437438	 0.101407
H	-0.850684739	-3.8594304254	-3.5690556009	 0.114104
H	-1.9688679453	-2.6862373122	-2.8495525068	 0.101404
H	 0.9566409384	-2.0188824571	-2.9690024967	 0.101947
89.4174	149.4845	177.722	303.6272	373.3014	409.5459	478.5455	500.7957	570.1294	705.0918	767.1428	779.7905	835.2665	863.9544	875.5831	902.385	949.9528	951.2511	982.1366	985.3897	1015.0302	1019.4685	1051.0479	1062.1305	1097.5787	1154.7478	1159.4419	1198.8998	1223.0216	1234.0569	1249.3821	1270.6443	1287.872	1303.829	1450.9563	1471.9959	1482.3062	1505.3294	1831.3434	3045.07	3052.7287	3081.9587	3102.0288	3119.7331	3135.3758	3182.871	3191.8936	3476.8244
N=C1CC2(O1)C1CCC21	[NH][C]1C[C@@]2(O1)[C@H]1CC[C@@H]21	
InChI=1S/C7H9NO/c8-6-3-7(9-6)4-1-2-5(4)7/h4-5,8H,1-3H2	InChI=1S/C7H9NO/c8-6-3-7(9-6)4-1-2-5(4)7/h4-5,8H,1-3H2/t4-,5+,7+
