21
gdb 95246	2.80145	1.4934	1.14729	1.7667	78.75	-0.251	0.0807	0.3317	1140.0371	0.183885	-424.221686	-424.213482	-424.212538	-424.254148	32.583	
C	-0.344901651	 1.4506884708	 0.021148112	-0.402875
C	 0.0070569192	-0.0253810782	 0.0011892949	 0.220311
O	 0.7021193707	-0.2749458249	-1.1975739675	-0.240877
C	 0.7652801269	-1.626404669	-1.6158691694	-0.114265
C	 1.7177535166	-2.5045997045	-0.825765006	-0.022931
C	 2.9152984922	-1.9281099122	-0.1091936344	-0.294922
C	 1.7697012429	-2.5126720843	 0.6819001333	-0.022939
C	 0.8741996053	-1.6432946473	 1.5450171765	-0.114262
O	 0.7828946572	-0.2874672945	 1.1465357329	-0.240878
H	 0.5744988258	 2.0409819528	-0.008034338	 0.135769
H	-0.9550629677	 1.7037242559	-0.8484831269	 0.121468
H	-0.8926635496	 1.6945168378	 0.9338762738	 0.121477
H	-0.8989126542	-0.6602400174	 0.0290147498	 0.053143
H	-0.2457790583	-2.0686396141	-1.6066549002	 0.087495
H	 1.0929933879	-1.5893348166	-2.6608564572	 0.109886
H	 1.8588946532	-3.4728663165	-1.3016590385	 0.08193
H	 3.855420086	-2.4670698852	-0.1444790768	 0.105934
H	 3.0010115741	-0.8478238752	-0.1063526671	 0.137229
H	 1.9428831674	-3.4859132193	 1.1365889523	 0.081931
H	-0.1352636543	-2.0857712879	 1.6006886668	 0.087492
H	 1.2730707897	-1.6172808802	 2.5653088498	 0.109885
96.5937	181.1621	207.6722	281.1471	282.2921	315.1288	366.1142	391.2664	477.7564	555.3693	645.2888	661.5763	744.5822	757.7406	832.2061	852.6746	880.6331	928.1563	997.5799	1040.0137	1043.4638	1073.5618	1086.6177	1089.2725	1118.3628	1119.8794	1133.8031	1145.7089	1177.7987	1184.5919	1230.495	1301.3188	1312.3295	1378.4708	1381.6149	1387.734	1393.3204	1418.9254	1423.3767	1431.3373	1482.236	1485.5456	1495.9522	1496.5661	1501.0745	2921.8938	2956.0792	2961.5206	3057.6376	3058.1354	3059.6373	3122.745	3132.805	3137.9558	3141.6918	3143.2048	3234.6233
CC1OCC2CC2CO1	C[C@H]1OC[C@H]2C[C@H]2CO1	
InChI=1S/C7H12O2/c1-5-8-3-6-2-7(6)4-9-5/h5-7H,2-4H2,1H3	InChI=1S/C7H12O2/c1-5-8-3-6-2-7(6)4-9-5/h5-7H,2-4H2,1H3/t5-,6+,7-
