14
gdb 61699	2.33553	1.19018	0.95675	3.8499	69.21	-0.2646	-0.0396	0.2249	1222.9879	0.096202	-436.651651	-436.642008	-436.641064	-436.686597	33.621	
O	 0.0898632262	 1.4651455305	 0.0166056407	-0.415851
C	 0.0598529522	 0.0454400287	 0.0279733325	-0.010622
C	 0.7447964799	-0.3891703189	-1.2863152929	-0.285717
C	 0.1043426038	 0.2415040859	-2.515582905	 0.160377
O	 0.7371255764	 0.5852785459	-3.4766921321	-0.234434
C	 0.7582630993	-0.5115831447	 1.1927922581	 0.308137
C	 1.3452467794	-0.9416195343	 2.1476291363	-0.406493
C	-1.3529962979	-0.4288903165	 0.0517510362	 0.272817
N	-2.4555720742	-0.7733818118	 0.0719022617	-0.329971
H	-0.2547363571	 1.7891492146	 0.8576839616	 0.304112
H	 1.7983086522	-0.1064503326	-1.2463274496	 0.154989
H	 0.6805363016	-1.479583572	-1.3784777863	 0.155986
H	-1.0020520026	 0.3338356452	-2.4811995163	 0.10725
H	 1.8600460509	-1.32673409	 2.9941970151	 0.21942
67.7125	94.7578	125.0309	135.2192	182.0154	219.8308	285.1162	346.4646	396.651	436.495	490.1674	517.7127	578.9695	617.9228	664.152	692.4142	735.4563	773.7968	959.3526	1014.6805	1041.5434	1114.1775	1126.8627	1243.032	1298.08	1359.6828	1434.8865	1440.0009	1842.1756	2242.3174	2354.0823	2912.0898	3057.263	3132.8855	3495.9116	3798.8284
OC(CC=O)(C#C)C#N	O[C@@](CC=O)(C#C)C#N	
InChI=1S/C6H5NO2/c1-2-6(9,5-7)3-4-8/h1,4,9H,3H2	InChI=1S/C6H5NO2/c1-2-6(9,5-7)3-4-8/h1,4,9H,3H2/t6-/m1/s1
