20
gdb 22773	2.33582	1.09876	0.85218	1.5485	79.44	-0.239	0.0107	0.2496	1398.2541	0.168786	-440.22793	-440.217929	-440.216985	-440.263084	36.538	
C	-0.5197550108	 1.3734566527	 0.1877670197	-0.409094
C	-0.1102155362	-0.0838555269	 0.0058504407	-0.080883
C	 0.5720873603	-0.595695139	-1.3208320161	-0.00665
C	 1.2122316669	 0.4798995265	-2.1796428801	-0.085139
O	 1.9342618172	-0.1778597446	-3.2113104616	-0.422141
C	 1.6112238703	-1.3872519989	-0.4620104479	-0.323353
C	 1.1084359599	-0.6141269039	 0.7382926446	 0.40489
N	 1.5365260857	-0.3286061464	 1.8948901663	-0.246288
O	 2.7556569124	-0.9856214275	 2.1608883221	-0.394122
H	 0.3106598524	 2.0569095316	-0.0103983999	 0.120182
H	-1.349320348	 1.6362407817	-0.4767978285	 0.114341
H	-0.844991674	 1.545412492	 1.2179097981	 0.13196
H	-0.9713750438	-0.7286913865	 0.2240702788	 0.095634
H	-0.0697083683	-1.2134006843	-1.9532553983	 0.078077
H	 0.4367927654	 1.1428597176	-2.5950464161	 0.087458
H	 1.8821215977	 1.1029074433	-1.564724108	 0.089495
H	 2.3869584737	 0.4898143476	-3.7346671541	 0.286989
H	 1.4088008109	-2.4606907559	-0.3965780255	 0.121121
H	 2.6635979094	-1.2518924911	-0.7217658944	 0.133227
H	 2.9662478989	-0.6671503879	 3.0450069403	 0.304297
50.5822	118.0205	155.2569	178.8679	189.6144	225.6438	260.4844	282.3846	334.8124	364.9533	431.9555	486.3881	506.4303	579.6635	690.1128	799.6222	827.7419	870.8112	913.8516	963.8154	978.0368	1033.6541	1052.0803	1076.2815	1086.8323	1132.3893	1170.3052	1181.4527	1192.5044	1241.5165	1248.3491	1276.4995	1296.2822	1350.8508	1361.8904	1402.547	1409.5311	1461.5004	1466.7425	1490.454	1498.3004	1522.1016	1782.8634	2963.159	2992.9096	3018.9616	3039.2738	3059.9502	3083.2592	3107.7094	3114.4945	3115.3616	3818.8705	3830.6302
CC1C(CO)CC1=NO	C[C@H]1[C@@H](CO)CC1=NO	
InChI=1S/C6H11NO2/c1-4-5(3-8)2-6(4)7-9/h4-5,8-9H,2-3H2,1H3	InChI=1S/C6H11NO2/c1-4-5(3-8)2-6(4)7-9/h4-5,8-9H,2-3H2,1H3/t4-,5+/m0/s1
