16
gdb 97097	2.51883	1.23981	1.10129	0.9268	74.3	-0.257	-0.0009	0.2561	1188.5554	0.121137	-437.830476	-437.820901	-437.819957	-437.86527	33.706	
C	-0.0730516468	 1.4043651914	-0.0371529096	-0.341919
N	-0.208653232	-0.0317493227	-0.2415952332	-0.333286
C	 0.5727992796	-0.6223539655	-1.0123349881	 0.423357
O	 1.6277946204	-0.1750450009	-1.7854712318	-0.266843
C	 1.9491227365	-1.5302810521	-2.219635616	-0.099554
C	 0.7644481988	-2.0970730017	-1.3947163195	 0.064049
O	 1.2249780553	-2.915388682	-0.3419303804	-0.442866
C	-0.32995219	-2.6968254714	-2.1464618785	 0.304738
C	-1.2398972265	-3.1970343309	-2.7509872808	-0.478087
H	 0.7859159237	 1.8498000842	-0.5516632597	 0.130165
H	-0.9864935987	 1.9007366696	-0.3824179309	 0.133709
H	 0.0138287505	 1.6030650235	 1.0361255819	 0.131038
H	 1.8754769291	-1.6293190449	-3.3030446068	 0.133406
H	 2.9225009914	-1.8513269218	-1.8447206862	 0.136591
H	 0.5034794026	-2.9967612279	 0.293563747	 0.298004
H	-2.0467137138	-3.6369200469	-3.2841297276	 0.207497
79.2341	89.9124	107.772	152.0317	179.9166	220.2929	257.5706	343.5441	384.2759	407.6794	516.4932	620.6414	641.4229	674.2713	679.8222	716.8533	768.3719	927.6428	954.5213	992.5184	1048.0024	1107.279	1129.9494	1148.5609	1150.6494	1199.432	1209.6769	1334.0199	1375.8873	1438.7116	1492.9127	1496.4056	1503.0335	1852.47	2237.302	3020.8674	3080.548	3088.4927	3093.3848	3153.2053	3498.8373	3798.7739
CN=C1OCC1(O)C#C	CN=C1OC[C@]1(O)C#C	
InChI=1S/C6H7NO2/c1-3-6(8)4-9-5(6)7-2/h1,8H,4H2,2H3	InChI=1S/C6H7NO2/c1-3-6(8)4-9-5(6)7-2/h1,8H,4H2,2H3/t6-/m1/s1
