14
gdb 34276	3.92462	1.55881	1.24804	3.313	72.01	-0.2645	-0.0713	0.1933	944.6133	0.101942	-395.633247	-395.626647	-395.625703	-395.66412	25.873	
N	 0.044170586	-1.0943003714	 0.2664728111	-0.321826
C	 0.0204380034	 0.0501095263	 0.1033369991	 0.226289
C	-0.0235569653	 1.4845215936	-0.0361295256	 0.136757
C	-1.2871214332	 2.238559192	 0.4414473959	-0.233474
N	-0.9595202917	 3.6120130387	 0.0021740628	-0.185888
C	-0.0239441141	 3.4658177185	-0.8452886067	 0.148923
C	 1.4132352857	 3.7448629258	-0.4545333336	-0.261916
C	 1.3449244688	 2.1814887119	-0.3158814234	-0.087476
N	 0.2851053328	 2.0729343692	-1.3492745946	-0.143329
H	-2.180491429	 1.7926222691	-0.0158548265	 0.144303
H	-1.4242846177	 2.255176644	 1.5256122844	 0.145699
H	 2.1236788555	 3.9718763496	-1.2532264119	 0.146918
H	 1.5439451326	 4.3866968561	 0.4142413421	 0.146986
H	 2.2294107362	 1.5504064366	-0.3806367931	 0.138034
154.3114	163.2904	293.5626	389.4752	446.8338	490.8776	525.8909	561.4715	659.1656	685.6036	783.0474	786.2971	837.4235	914.6634	945.2673	968.1168	999.2997	1011.5754	1045.5162	1088.5358	1111.7079	1169.3192	1188.0825	1210.9969	1221.9173	1272.3056	1344.2955	1478.8927	1486.3691	1647.2117	2354.8429	3025.0243	3078.4841	3100.6619	3136.0091	3170.8921
N#CC12CN=C3CC1N23	N#C[C@@]12C[N][C]3C[C@@H]1N23	
InChI=1S/C6H5N3/c7-2-6-3-8-5-1-4(6)9(5)6/h4H,1,3H2	InChI=1S/C6H5N3/c7-2-6-3-8-5-1-4(6)9(5)6/h4H,1,3H2/t4-,6+,9?/m0/s1
