17
gdb 34262	4.16644	1.32118	1.19181	4.1187	77.03	-0.2443	0.0161	0.2604	1045.0161	0.139188	-380.847466	-380.84061	-380.839666	-380.878654	27.444	
N	 0.0934768988	-1.1372813271	-0.1114769133	-0.348354
C	 0.0456560989	 0.0176564742	-0.0456450609	 0.169861
C	-0.0273057351	 1.4375003334	 0.0533832337	 0.197585
C	-1.209729735	 2.2588939184	 0.5678522659	-0.23792
N	-0.8224028087	 3.3925968451	-0.3461083204	-0.117867
C	 0.011664068	 4.3560719927	 0.4054856704	-0.166748
C	 1.2415576327	 3.5552931053	 0.9324416338	-0.263522
C	 1.2265702172	 2.3347521284	 0.0175109888	-0.085773
C	 0.1647742693	 2.5012951135	-1.0200292047	-0.083235
H	-2.1716513355	 1.8358327374	 0.2702887357	 0.132082
H	-1.2319670577	 2.5061410093	 1.6345322449	 0.111963
H	 0.3312937695	 5.1412966843	-0.2868512981	 0.115059
H	-0.5800651113	 4.8225253935	 1.1971779817	 0.114302
H	 2.1764871947	 4.1123447667	 0.8249708472	 0.114053
H	 1.1443406402	 3.2841622639	 1.9878619341	 0.11599
H	 2.142246031	 1.8168423249	-0.2415861222	 0.116033
H	 0.252884783	 2.416832186	-2.0949339966	 0.116491
137.0556	155.8902	249.2998	370.8361	409.9624	494.2011	547.4393	569.0066	682.4362	697.4039	751.7217	827.7351	860.1232	880.2289	904.0721	916.9541	956.1066	999.0378	1000.0571	1021.1018	1040.3878	1102.8207	1116.7447	1174.3475	1192.7153	1216.7363	1227.4052	1247.2937	1258.5355	1298.5731	1310.4749	1346.2133	1407.1229	1490.0691	1498.0497	1517.3307	2344.7735	3043.1234	3053.5211	3059.627	3093.4211	3107.1945	3114.1621	3195.379	3209.7195
N#CC12CN3CCC1C23	N#C[C@@]12CN3CC[C@@H]1[C@@H]23	
InChI=1S/C7H8N2/c8-3-7-4-9-2-1-5(7)6(7)9/h5-6H,1-2,4H2	InChI=1S/C7H8N2/c8-3-7-4-9-2-1-5(7)6(7)9/h5-6H,1-2,4H2/t5-,6+,7-/m1/s1
