17
gdb 100383	2.4799	1.23853	1.07506	3.5444	71.15	-0.2579	-0.0482	0.2096	1174.6852	0.131834	-458.923004	-458.913011	-458.912067	-458.957776	36.117	
O	 0.1081408658	 1.4206265404	 0.2971317151	-0.426055
C	 0.0103514988	 0.0699643768	-0.0749302004	-0.090472
C	-1.4454422143	-0.484221071	-0.0311602641	 0.146991
O	-1.2904740441	-1.9047729751	 0.0218366356	-0.460967
C	-2.207661341	 0.0285982219	 1.2310736948	-0.303894
C	-1.4719276785	-0.2914304794	 2.5140265183	 0.139324
O	-0.4936852581	 0.315773091	 2.8881397583	-0.247087
C	-2.2050604178	-0.0912372059	-1.2195874494	 0.306774
C	-2.8504654032	 0.1960967702	-2.1923385799	-0.46208
H	 0.0930937423	 1.4342103571	 1.2654531659	 0.296814
H	 0.3829357509	-0.029450437	-1.0975351612	 0.122176
H	 0.6094407081	-0.5861057475	 0.5686760216	 0.113343
H	-2.0692253926	-2.3068331813	-0.3771352181	 0.289765
H	-2.3025589655	 1.11451207	 1.1467499359	 0.154684
H	-3.2054026211	-0.4187483997	 1.2424398375	 0.11175
H	-1.869747728	-1.129242462	 3.1214482672	 0.103241
H	-3.4032694218	 0.4628088415	-3.0595434971	 0.205691
73.0417	118.297	138.8535	158.3221	192.6435	228.2072	251.9879	263.2697	355.0938	402.1571	450.7555	540.5078	570.9089	606.1324	635.3469	641.6514	672.9513	704.8902	888.6736	911.2139	960.3711	995.8694	1068.	1088.0426	1114.4663	1136.1797	1222.9061	1261.5645	1291.5142	1378.0186	1396.14	1423.5975	1451.1412	1465.8885	1496.9783	1799.5409	2230.622	2930.6241	3030.9953	3062.7861	3103.8732	3122.5676	3498.4084	3716.0848	3817.3465
OCC(O)(CC=O)C#C	OC[C@@](O)(CC=O)C#C	
InChI=1S/C6H8O3/c1-2-6(9,5-8)3-4-7/h1,4,8-9H,3,5H2	InChI=1S/C6H8O3/c1-2-6(9,5-8)3-4-7/h1,4,8-9H,3,5H2/t6-/m0/s1
