22
gdb 86896	2.74257	1.14136	0.9502	4.3107	83.49	-0.2347	0.0314	0.266	1333.1359	0.194997	-404.39666	-404.387194	-404.386249	-404.431215	35.202	
C	 0.3331991067	 1.7035492469	-0.0916363685	-0.398007
C	 0.1175161637	 0.188026509	 0.0041398847	-0.008547
C	 0.7758867745	-0.5577107268	-1.171574978	-0.185591
N	 2.1512314449	-0.757022667	-0.7140226567	-0.035112
C	 2.272128394	-0.6625020609	 0.7412009015	-0.163156
C	 0.8170535731	-0.484810137	 1.2179023652	 0.01269
C	 0.6865745914	 0.2214236143	 2.5652872301	-0.419581
C	 3.227542597	-0.9345899324	-1.5143998874	 0.134016
O	 4.3686635155	-1.0713687069	-1.1175233067	-0.343957
H	 1.3970323043	 1.9599884574	-0.1348460557	 0.128774
H	-0.1383499873	 2.0996264397	-0.9967113334	 0.116497
H	-0.1036119713	 2.227606429	 0.7629518058	 0.121214
H	-0.9581263697	-0.0156274074	 0.0263321215	 0.075408
H	 0.2734409112	-1.5193124783	-1.3493310896	 0.104931
H	 0.7542644197	 0.0100376729	-2.1068019088	 0.113285
H	 2.7510937188	-1.5558862194	 1.1534823253	 0.123696
H	 2.9040721064	 0.192816969	 1.0121589121	 0.116651
H	 0.3772410094	-1.4862742103	 1.3150453592	 0.080934
H	 1.1497526116	 1.2127047911	 2.5499588454	 0.123531
H	-0.3640893069	 0.3431437451	 2.8486673562	 0.116468
H	 1.1761556152	-0.3580996606	 3.3547797822	 0.121506
H	 2.9550511278	-0.9397453875	-2.5897736543	 0.064349
41.8386	129.4864	180.2727	195.1895	225.1128	243.0844	284.6824	329.5917	343.8882	368.4609	474.9667	516.4204	623.5226	738.8686	771.9551	876.6731	877.4165	922.6239	947.9552	963.0801	1015.2011	1033.3741	1037.8152	1095.6185	1111.7911	1155.8503	1166.0096	1217.3269	1220.577	1234.5945	1284.8147	1326.2371	1341.2466	1349.0379	1381.5296	1392.1529	1406.9249	1414.4462	1419.1635	1446.5795	1493.7277	1496.2761	1500.8203	1510.086	1516.6569	1526.7014	1787.1003	2920.7287	2993.9502	3010.2655	3028.7367	3035.151	3038.7658	3053.2476	3074.3493	3075.3987	3099.8561	3103.0129	3109.2113	3114.2637
CC1CN(CC1C)C=O	C[C@H]1CN(C[C@H]1C)C=O	
InChI=1S/C7H13NO/c1-6-3-8(5-9)4-7(6)2/h5-7H,3-4H2,1-2H3	InChI=1S/C7H13NO/c1-6-3-8(5-9)4-7(6)2/h5-7H,3-4H2,1-2H3/t6-,7+
