14
gdb 61119	2.55268	1.23468	1.06056	5.7917	68.86	-0.2746	-0.0583	0.2163	1145.6833	0.096166	-436.658574	-436.648831	-436.647887	-436.693591	33.758	
O	-0.0495240335	 1.4293268783	 0.1562260382	-0.437569
C	 0.008156237	 0.0273494652	-0.0260325287	 0.077904
C	 0.5894776247	-0.7169665953	 1.2060444863	-0.37532
C	-0.0025830097	-0.2597465295	 2.4601862767	 0.27299
N	-0.4549817139	 0.0966552637	 3.4610621704	-0.302354
C	-1.4637022843	-0.4032109015	-0.2649353219	 0.163908
O	-1.9133387692	-1.4546645316	 0.0896052525	-0.232479
C	 0.7597759714	-0.3345727289	-1.2296460343	 0.285215
C	 1.3737089306	-0.6144060244	-2.2245353575	-0.430309
H	 0.8201757629	 1.8030689714	-0.0234017416	 0.299771
H	 0.3978588234	-1.7869427781	 1.0836486575	 0.182807
H	 1.6727153603	-0.5674596283	 1.242924017	 0.155187
H	-2.0449411776	 0.366831109	-0.8095874417	 0.121296
H	 1.9142675981	-0.86367983	-3.105325093	 0.218951
59.0322	90.5617	113.2598	161.5759	183.7092	235.7542	254.7413	351.8754	367.9658	386.0332	476.6744	489.9924	554.3067	618.1724	659.0035	681.4665	793.7657	900.7092	929.3866	971.6196	1036.7105	1123.0773	1137.8595	1231.6486	1323.9893	1355.6006	1389.5981	1446.7702	1848.5325	2228.8942	2370.4785	2950.8541	3064.6793	3113.5953	3494.6704	3815.5347
OC(CC#N)(C=O)C#C	O[C@@](CC#N)(C=O)C#C	
InChI=1S/C6H5NO2/c1-2-6(9,5-8)3-4-7/h1,5,9H,3H2	InChI=1S/C6H5NO2/c1-2-6(9,5-8)3-4-7/h1,5,9H,3H2/t6-/m0/s1
