18
gdb 54154	2.46158	1.48752	1.1355	4.0392	69.83	-0.2287	0.0156	0.2443	1116.3285	0.14544	-476.248452	-476.239045	-476.238101	-476.281888	36.39	
C	-0.0471669742	 1.5422506963	 0.1115487743	-0.42312
C	 0.0112150135	 0.0384069114	 0.0208578969	 0.402408
O	-1.1652917691	-0.4748412383	-0.4982856516	-0.469457
C	 1.3168485225	-0.6487559453	-0.2691967852	-0.405252
C	 0.7403098262	-0.7372401423	 1.1401983533	 0.172342
O	 1.3448363476	-0.0014224265	 2.1741655398	-0.471435
C	 0.1199188261	-2.0370789602	 1.5493076925	 0.392739
N	 0.2237440072	-2.3293936012	 2.8683869507	-0.535707
O	-0.4461516831	-2.7698331569	 0.7396248168	-0.416396
H	 0.8432809659	 1.9469287316	 0.5933664725	 0.121515
H	-0.1366527454	 1.9654662209	-0.8935747444	 0.127315
H	-0.9261149772	 1.8454422853	 0.6875340893	 0.129338
H	-1.1466009065	-1.4392265664	-0.3545805558	 0.302369
H	 1.2915245439	-1.5612916071	-0.8550036924	 0.13666
H	 2.2078003269	-0.0376618263	-0.3790115375	 0.113372
H	 2.2826403949	-0.2253999551	 2.1883516597	 0.289263
H	 0.5524968839	-1.6161755378	 3.4978233523	 0.26898
H	-0.297895353	-3.114177172	 3.2225236488	 0.265067
96.9096	150.8689	173.8304	220.5592	277.0412	303.8317	319.1041	379.136	400.8423	409.525	463.2683	469.036	538.9633	567.7471	626.2404	640.6207	690.5725	706.3835	810.31	855.4865	914.9638	933.4102	998.9835	1047.1959	1092.222	1099.1396	1115.8672	1199.2682	1258.2977	1315.6478	1332.968	1400.4241	1417.8105	1444.7668	1479.3505	1484.6019	1511.0129	1592.1385	1744.2836	3049.5624	3113.707	3122.5387	3149.6351	3223.4993	3586.4566	3596.3671	3733.1386	3783.3662
CC1(O)CC1(O)C(N)=O	C[C@@]1(O)C[C@]1(O)C(=O)N	
InChI=1S/C5H9NO3/c1-4(8)2-5(4,9)3(6)7/h8-9H,2H2,1H3,(H2,6,7)	InChI=1S/C5H9NO3/c1-4(8)2-5(4,9)3(6)7/h8-9H,2H2,1H3,(H2,6,7)/t4-,5+/m1/s1
