21
gdb 122181	3.14309	0.7254	0.65895	1.6795	75.78	-0.2449	0.0746	0.3195	1739.4746	0.179558	-461.331621	-461.320942	-461.319997	-461.367788	38.836	
O	-0.0147130601	 1.3910230939	-0.3189896058	-0.42305
C	 0.0315327667	 0.0269273955	 0.0734446462	-0.076742
C	-1.3640373545	-0.5578634156	-0.0943757474	-0.178761
C	-1.4427109022	-2.0333815749	 0.31381843	-0.245479
C	-2.8333496396	-2.615347267	 0.1611795569	 0.387492
O	-3.8062141236	-2.0678558796	 1.0147787531	-0.473719
C	-3.3110781931	-3.0988788989	-1.1997293316	-0.389427
C	-3.0186096103	-4.0778393364	-0.0764279404	 0.053997
O	-1.8736257987	-4.8771887764	-0.127684029	-0.422257
H	 0.863209613	 1.7662365234	-0.2052687223	 0.284901
H	 0.748342903	-0.54138263	-0.542127036	 0.084418
H	 0.3531057807	-0.0758218585	 1.1228169084	 0.086671
H	-2.0549698672	 0.042546276	 0.510755226	 0.09704
H	-1.6699404404	-0.4369111599	-1.1408413726	 0.104515
H	-0.7436092217	-2.6320585024	-0.277883469	 0.109884
H	-1.1426996478	-2.1446049062	 1.3636869309	 0.105298
H	-4.0212210513	-1.1867132323	 0.6900487286	 0.283979
H	-4.3488260332	-2.9296475084	-1.4653191731	 0.111403
H	-2.6034342934	-3.0629374477	-2.0218397038	 0.111671
H	-3.8799103091	-4.522530957	 0.4205975647	 0.099139
H	-2.0117141672	-5.5476152477	-0.8046637238	 0.289028
57.7926	82.9705	105.0376	141.1447	203.0461	233.6386	264.3225	277.2502	295.8757	314.7413	410.2777	426.6814	440.8512	472.1947	584.0619	729.5426	765.3257	839.1262	871.0285	915.203	938.118	988.9647	1019.6678	1030.7402	1049.4415	1063.6996	1082.0044	1116.5006	1174.0126	1208.0395	1230.253	1249.3225	1269.4473	1303.7652	1311.3139	1316.2088	1330.9028	1349.3272	1398.9697	1418.9679	1462.1974	1481.1853	1497.7915	1502.8886	1528.9127	2959.6493	2985.0299	3023.7566	3032.1968	3064.9855	3094.7081	3113.6837	3128.7158	3223.6325	3800.192	3807.9038	3829.8412
OCCCC1(O)CC1O	OCCC[C@@]1(O)C[C@H]1O	
InChI=1S/C6H12O3/c7-3-1-2-6(9)4-5(6)8/h5,7-9H,1-4H2	InChI=1S/C6H12O3/c7-3-1-2-6(9)4-5(6)8/h5,7-9H,1-4H2/t5-,6-/m1/s1
