18
gdb 128808	6.27641	0.79609	0.72229	1.1948	76.67	-0.2458	0.0013	0.2471	1576.4266	0.147781	-435.260237	-435.250842	-435.249898	-435.296807	31.51	
C	-0.0580064293	 1.3681230745	-0.1859710835	-0.22251
O	-0.0317432223	-0.038467125	-0.2375023468	-0.233661
C	-1.2654069755	-0.61902563	 0.1255152003	-0.165899
C	-1.1058390775	-2.1049472765	 0.112664699	 0.28959
N	-2.1388151583	-2.9300534939	-0.0746444183	-0.315278
N	-1.5981549609	-4.1405552963	 0.0224202874	 0.154572
C	-2.3722717763	-5.3459539002	-0.1874866619	-0.310001
N	-0.2893038721	-4.1704365963	 0.241922829	-0.227854
C	 0.046863543	-2.880580685	 0.308647458	-0.122169
H	 0.9337880796	 1.7230722257	-0.4751828349	 0.130066
H	-0.8030372992	 1.7882393775	-0.8798587621	 0.107179
H	-0.2878381871	 1.7357294158	 0.8268447577	 0.105793
H	-1.5668751676	-0.2718369648	 1.1299864621	 0.103339
H	-2.0697768781	-0.3230914243	-0.5666667902	 0.109584
H	-2.5271704239	-5.525992203	-1.2558181166	 0.149015
H	-1.8187296304	-6.1778409277	 0.2461011812	 0.161315
H	-3.3407972153	-5.236366643	 0.3020536067	 0.155401
H	 1.0631268413	-2.5700831477	 0.4831562527	 0.131517
21.9896	43.8655	81.4977	120.0944	186.3904	228.2552	290.3516	337.1424	349.4344	461.8173	676.2212	688.0741	728.4217	780.6621	880.1252	991.055	1016.9384	1036.8478	1046.541	1085.3106	1146.5125	1159.2917	1184.5839	1202.4596	1228.2062	1245.9009	1338.3027	1352.6841	1400.2912	1436.346	1446.1311	1447.9817	1480.7652	1483.2213	1485.3348	1501.5767	1506.8341	1522.7669	1565.363	2942.9039	2970.6166	2989.8473	3015.0436	3053.4776	3117.8802	3130.6664	3175.1129	3287.2865
COCC1=NN(C)N=C1	COCc1nn(C)nc1	
InChI=1S/C5H9N3O/c1-8-6-3-5(7-8)4-9-2/h3H,4H2,1-2H3	InChI=1S/C5H9N3O/c1-8-6-3-5(7-8)4-9-2/h3H,4H2,1-2H3
