17
gdb 10150	2.49645	1.29629	0.90029	2.8368	70.18	-0.2767	-0.0515	0.2253	1267.384	0.139996	-363.891183	-363.881869	-363.880925	-363.926377	31.466	
C	 0.0777406704	 1.5579883298	 0.0208808842	-0.385335
C	-0.0079078252	 0.0294277104	 0.0169040436	-0.185496
C	 0.7522253848	-0.5969984029	 1.1905213515	-0.183589
C	 0.6978972649	-2.1515079977	 1.2033190536	-0.226663
C	 1.5528495463	-2.6634399854	 2.3717474817	 0.157108
O	 2.7189731913	-2.9181059694	 2.2551902608	-0.233276
C	-0.6723310894	-2.6477506834	 1.3200855128	 0.268045
N	-1.7506533881	-3.0442832214	 1.4469186285	-0.317343
H	 1.1164045187	 1.8993565784	-0.0460967689	 0.120315
H	-0.4682288008	 1.9823000133	-0.8265661162	 0.123775
H	-0.3519740085	 1.9766933116	 0.9372275013	 0.122249
H	-1.05756375	-0.2838146154	 0.0555878105	 0.128324
H	 0.3981156548	-0.3624554296	-0.9243440681	 0.106009
H	 1.8104631622	-0.3165947293	 1.1505113095	 0.127725
H	 0.3540207651	-0.218389827	 2.1397496297	 0.119357
H	 1.1457918862	-2.5333194583	 0.2797167425	 0.148501
H	 1.0219200973	-2.735497994	 3.3444654531	 0.110292
45.3657	89.1521	92.6193	135.2886	191.279	226.2582	250.0095	324.4634	363.0007	482.5371	539.0119	591.5065	750.8724	840.5859	876.6081	948.4774	958.4687	1017.6684	1052.0009	1071.7176	1128.0684	1138.6554	1229.4192	1259.2245	1322.2942	1325.7614	1347.0813	1391.7517	1414.551	1418.1271	1484.6804	1493.8359	1500.0668	1510.0442	1841.1533	2356.0999	2913.7877	3025.4231	3033.0716	3038.1806	3061.4236	3067.4887	3088.0106	3104.8364	3111.1272
CCCC(C=O)C#N	CCC[C@@H](C=O)C#N	
InChI=1S/C6H9NO/c1-2-3-6(4-7)5-8/h5-6H,2-3H2,1H3	InChI=1S/C6H9NO/c1-2-3-6(4-7)5-8/h5-6H,2-3H2,1H3/t6-/m1/s1
