17
gdb 24677	3.70308	1.59495	1.15077	3.6133	81.42	-0.2177	-0.0124	0.2053	1028.0642	0.140647	-380.928529	-380.921863	-380.920919	-380.959508	26.777	
C	-0.0505891697	 1.4972522649	 0.0630228857	-0.264953
C	 1.3824919441	 2.0728428957	 0.0110303607	-0.33109
C	 2.2096996203	 1.3616319931	-1.0129949946	 0.294502
C	 3.2727134453	 1.6632399353	-1.8203066256	-0.196879
N	 3.7007664627	 0.5470839104	-2.5138496412	-0.281703
C	 2.908145265	-0.4219682604	-2.1295866561	 0.001164
N	 1.9799322414	 0.0087603847	-1.2163429202	-0.0618
C	 0.9188461123	-0.6818306593	-0.615204803	 0.029438
C	-0.0483321604	-0.0122591085	 0.0132230777	-0.126742
H	-0.5579370192	 1.8492517375	 0.966676036	 0.110554
H	-0.6359411001	 1.8821531218	-0.7850009668	 0.123273
H	 1.3615100318	 3.146477659	-0.1946633526	 0.11995
H	 1.8438905793	 1.952097727	 1.001725385	 0.120314
H	 3.7622322248	 2.6180277371	-1.941258843	 0.108111
H	 2.9334700466	-1.4453148935	-2.4744981959	 0.129079
H	 0.9546473956	-1.7601270482	-0.7100724616	 0.122391
H	-0.8658970898	-0.5617144565	 0.4649075557	 0.104391
137.3645	178.7912	275.0961	383.0195	429.2109	508.4782	594.438	647.9497	669.9701	701.4094	743.5973	786.5094	803.3293	846.0528	886.3605	931.8902	940.9803	952.2576	1018.9664	1039.5065	1131.1027	1160.3411	1186.9623	1215.7719	1238.3205	1255.0259	1302.0437	1328.9047	1347.7677	1364.7131	1417.9533	1441.7937	1475.8366	1485.3675	1517.0172	1603.1363	1716.9613	2997.211	3008.0287	3072.935	3089.3738	3194.9303	3218.0043	3244.2958	3247.7281
C1CC2=CN=CN2C=C1	C1Cc2cncn2C=C1	
InChI=1S/C7H8N2/c1-2-4-9-6-8-5-7(9)3-1/h2,4-6H,1,3H2	InChI=1S/C7H8N2/c1-2-4-9-6-8-5-7(9)3-1/h2,4-6H,1,3H2
