19
gdb 95939	2.1868	1.46635	1.36643	1.1136	71.2	-0.2393	-0.0304	0.2089	1079.417	0.157322	-460.176917	-460.167608	-460.166664	-460.211202	34.229	
C	-0.1766757189	 1.7086689347	-0.0102856179	-0.459549
C	 0.1190555681	 0.2073502754	-0.035368589	 0.278669
O	 1.0015256899	-0.0897032426	-1.1225692749	-0.313009
C	 2.123650062	-0.8457161526	-0.6571946895	-0.07321
C	 1.6894148344	-1.4421464084	 0.6833516156	-0.241721
C	 0.8056925208	-0.3322223512	 1.2537827151	 0.056666
O	 1.6607263523	 0.6159992179	 1.8721121915	-0.438162
C	-1.1899193083	-0.5430814362	-0.2952227982	 0.128163
O	-2.0153044314	-0.7860397412	 0.5476258642	-0.261797
H	 0.7494121356	 2.2571389836	 0.1749812017	 0.136426
H	-0.5833190496	 2.0304842191	-0.9729839848	 0.133527
H	-0.9097424406	 1.9456924258	 0.767793852	 0.125978
H	 2.3683621312	-1.5973829187	-1.4134727419	 0.107524
H	 2.9903238718	-0.184276857	-0.5279756052	 0.110684
H	 1.0930354975	-2.3472981965	 0.5292768521	 0.114505
H	 2.5211601904	-1.6760146471	 1.349700701	 0.118767
H	 0.0470539979	-0.6990501892	 1.9530198316	 0.094066
H	 1.1160018314	 1.2761054656	 2.3115003973	 0.289492
H	-1.3140071446	-0.8468642114	-1.3585305307	 0.092981
56.3812	85.5669	178.2111	192.9757	242.035	282.5868	289.7947	326.032	351.5576	424.8965	477.7019	535.4111	660.9672	675.422	805.9388	866.642	887.0641	919.3803	943.1953	959.2116	1001.6758	1016.9956	1066.6312	1128.2206	1139.8481	1190.007	1199.4606	1221.2845	1233.367	1261.5011	1325.4885	1341.8625	1376.4569	1392.6507	1395.098	1432.4923	1477.4962	1490.1831	1495.8258	1524.7976	1823.5122	2892.5434	3018.9388	3041.5546	3052.9567	3063.2411	3084.0085	3115.9953	3130.2107	3133.3883	3827.7733
CC1(OCCC1O)C=O	C[C@]1(OCC[C@H]1O)C=O	
InChI=1S/C6H10O3/c1-6(4-7)5(8)2-3-9-6/h4-5,8H,2-3H2,1H3	InChI=1S/C6H10O3/c1-6(4-7)5(8)2-3-9-6/h4-5,8H,2-3H2,1H3/t5-,6+/m1/s1
