20
gdb 114777	3.99219	1.23428	1.12064	2.1823	78.41	-0.1982	0.0805	0.2787	1159.3916	0.17204	-403.090026	-403.082369	-403.081424	-403.122266	30.493	
C	 0.1763641043	 1.542379552	 0.1918630836	-0.384653
C	-0.121966568	 0.0672492225	-0.0711865223	-0.118898
N	 0.5579296226	-0.4202246625	-1.2663607565	-0.065749
C	 0.0392020185	 0.1428023821	-2.5314129219	-0.155837
C	 0.1228019791	-1.0260531861	-3.5060368725	 0.060719
O	 1.528231757	-1.4316038883	-3.5812230002	-0.301279
C	 1.2554686326	-2.4477618908	-2.6181476598	 0.075417
C	-0.2394679021	-2.2854988342	-2.6804872277	-0.190936
C	 0.5085456967	-1.8639600503	-1.4330280055	-0.019132
H	 1.2549297056	 1.7044196323	 0.2745598476	 0.126722
H	-0.2002616207	 2.1787965213	-0.6151503159	 0.118452
H	-0.3013874423	 1.8688034739	 1.1207963725	 0.110373
H	 0.2327899459	-0.5266976946	 0.778694799	 0.099517
H	-1.2188809789	-0.0826472972	-0.1293730752	 0.072392
H	-1.0092003739	 0.4771260712	-2.4321212481	 0.081697
H	 0.6443688115	 0.9877324328	-2.8738753289	 0.116531
H	-0.3131785741	-0.8653221423	-4.4921221545	 0.084269
H	 1.9025005433	-3.3172876782	-2.5938240605	 0.101292
H	-1.0666610061	-2.9710180903	-2.8032801214	 0.094606
H	 0.4537966391	-2.4569389231	-0.5277698417	 0.094498
87.8357	124.2107	217.7673	262.5967	352.8431	388.2133	419.1879	559.4935	667.5449	690.9496	757.4448	776.1719	810.382	821.4694	854.6624	882.5041	903.356	957.2455	991.3194	1006.6321	1028.0642	1035.7871	1048.142	1061.8129	1081.78	1103.8903	1126.3682	1183.2051	1195.5886	1210.7762	1221.4209	1260.2428	1289.9208	1307.8644	1326.6145	1365.6146	1389.75	1406.6134	1429.9202	1486.4515	1489.6501	1498.5125	1514.4831	2899.1615	2946.9066	3039.5114	3052.0706	3074.0989	3107.9421	3117.6139	3118.3149	3175.6731	3188.1673	3203.0984
CCN1CC2OC3C2C13	CCN1C[C@H]2O[C@@H]3[C@H]2[C@H]13	
InChI=1S/C7H11NO/c1-2-8-3-4-5-6(8)7(5)9-4/h4-7H,2-3H2,1H3	InChI=1S/C7H11NO/c1-2-8-3-4-5-6(8)7(5)9-4/h4-7H,2-3H2,1H3/t4-,5-,6+,7-/m1/s1
