17
gdb 89964	2.89833	1.38402	1.11027	1.9625	68.59	-0.2501	-0.0427	0.2075	1094.4533	0.134386	-458.928036	-458.919649	-458.918705	-458.961729	30.858	
O	 0.3596821852	 1.0726332037	-0.6087797593	-0.42616
C	 0.0470760778	-0.13201249	 0.0393110838	 0.134608
C	 0.1234780207	-0.1891565225	 1.5974976448	-0.330103
C	-1.3591064888	-0.6100900057	 1.6575920697	 0.345476
O	-2.2711766367	 0.5028432892	 1.7505162741	-0.333867
C	-2.4684904737	 0.5350660512	 0.3139295456	-0.106193
C	-1.4489424266	-0.5853953933	 0.0849274448	-0.155836
C	-1.7710598556	-1.7925664648	 2.4817063531	 0.081232
O	-1.0340852354	-2.7074701904	 2.7539273825	-0.254899
H	 0.0147518212	 1.8029847725	-0.0844506289	 0.289405
H	 0.6707437347	-0.8938475839	-0.4339171681	 0.10663
H	 0.8014715038	-0.952876716	 1.9831731948	 0.136013
H	 0.3193953074	 0.7645364562	 2.0947263879	 0.111705
H	-3.4996433397	 0.2742334314	 0.0495788861	 0.114963
H	-2.2292118606	 1.5117346328	-0.1240206764	 0.102567
H	-1.7428640685	-1.4345430157	-0.5296069779	 0.094221
H	-2.8353275653	-1.7678853248	 2.8045263434	 0.090238
46.0183	93.1759	191.4513	220.768	252.9013	305.1639	366.7573	416.4289	485.7038	554.3522	626.3946	709.9254	761.6581	833.1589	875.7449	913.5699	957.6873	999.4968	1006.245	1035.2024	1062.0914	1101.8241	1124.3447	1146.0456	1163.6685	1169.8221	1218.109	1251.6635	1285.2352	1301.1382	1324.557	1351.0658	1398.4722	1432.3375	1452.4041	1530.8059	1816.334	2895.2188	3021.4938	3063.5329	3066.9225	3084.8598	3129.1183	3134.5936	3811.0724
OC1CC2(OCC12)C=O	O[C@H]1C[C@]2(OC[C@@H]12)C=O	
InChI=1S/C6H8O3/c7-3-6-1-5(8)4(6)2-9-6/h3-5,8H,1-2H2	InChI=1S/C6H8O3/c7-3-6-1-5(8)4(6)2-9-6/h3-5,8H,1-2H2/t4-,5-,6-/m0/s1
