18
gdb 25742	2.60665	1.48609	0.95776	3.9302	82.21	-0.2124	-0.0186	0.1938	1209.3365	0.147558	-402.024114	-402.015043	-402.014098	-402.058528	33.008	
C	-0.0636998048	 1.5336661154	-0.0221265944	-0.486447
C	 0.0340592301	 0.0137972097	-0.0161569404	 0.301327
O	 1.1283116401	-0.5280357674	-0.0335773146	-0.338659
C	-1.2308211785	-0.7330044381	 0.0110238377	 0.113049
C	-1.3628925803	-2.1223663802	 0.0198428602	 0.235737
C	-0.3456193502	-3.2151634031	 0.0089591731	-0.520363
N	-2.6995487682	-2.3915689817	 0.0445937344	-0.286314
C	-3.4389308856	-1.2261910943	 0.0524838832	-0.081328
C	-2.557191172	-0.1829997679	 0.0322252578	-0.262353
H	 0.9424845547	 1.9531573915	-0.0434483312	 0.133405
H	-0.6256461371	 1.8835561298	-0.8948456477	 0.134334
H	-0.5918755798	 1.8924054057	 0.8679461792	 0.134347
H	-0.4140534094	-3.8346541961	 0.9119568797	 0.126072
H	-0.4800941621	-3.8784169284	-0.8544888019	 0.12441
H	 0.648590142	-2.7738413945	-0.0369693117	 0.185864
H	-3.0879283647	-3.3199111068	 0.0553389574	 0.261537
H	-4.5162068271	-1.2524349309	 0.0711995493	 0.124702
H	-2.819702127	 0.8630388173	 0.031827	 0.10068
55.3976	69.9234	154.2001	174.28	209.7092	257.8022	312.0829	412.1332	477.9524	548.6602	568.2128	636.2123	639.8082	689.9673	694.2601	731.0478	836.8303	910.1587	941.0931	989.5219	1041.2535	1060.4824	1066.6036	1110.1336	1141.6036	1204.8033	1276.355	1338.6631	1376.4302	1396.2798	1422.295	1461.0299	1469.5251	1478.0094	1496.6517	1503.0594	1526.2576	1601.8615	1750.1918	3020.0612	3037.9134	3066.0059	3100.0706	3152.6723	3169.2284	3254.6477	3276.1002	3662.885
CC(=O)C1=C(C)NC=C1	CC(=O)c1c(C)[nH]cc1	
InChI=1S/C7H9NO/c1-5-7(6(2)9)3-4-8-5/h3-4,8H,1-2H3	InChI=1S/C7H9NO/c1-5-7(6(2)9)3-4-8-5/h3-4,8H,1-2H3
