19
gdb 96130	2.17183	1.87717	1.26356	1.8196	70.84	-0.2458	0.0656	0.3114	1045.0921	0.158868	-460.144164	-460.135771	-460.134827	-460.176648	32.86	
C	-0.0470850289	 1.5298779812	-0.0784888875	-0.415787
C	 0.0386146329	 0.0135469424	-0.0070972846	 0.067552
O	 0.6922418012	-0.4450424503	-1.1905655014	-0.248759
C	 0.90148155	-1.8307948162	-1.1543914585	 0.011696
O	 1.9012113521	-2.1967060595	-0.2349926054	-0.246058
C	 1.6676617371	-1.6918313061	 1.0510795503	 0.052413
C	 2.251601404	-0.3361384595	 1.3927600232	-0.368698
C	 0.758288262	-0.5101694378	 1.2319552751	 0.327349
O	-0.033182361	-0.5352275142	 2.388434455	-0.467084
H	 0.9525628154	 1.9724138172	-0.1054353559	 0.127455
H	-0.5875568989	 1.8379084667	-0.9773285462	 0.129111
H	-0.5816393861	 1.9202324365	 0.7934515564	 0.11045
H	-0.9782122335	-0.4121024263	 0.0298207237	 0.079322
H	-0.0463794433	-2.345399765	-0.9155041568	 0.084022
H	 1.2618861829	-2.1336457984	-2.1393159436	 0.117825
H	 1.6532442588	-2.4561360641	 1.8226559851	 0.109943
H	 2.6315579448	-0.1848966735	 2.3971299139	 0.11209
H	 2.7938577849	 0.1608770419	 0.5958908831	 0.130747
H	 0.0033196455	 0.3387078749	 2.7925169041	 0.286413
109.7071	195.5354	226.0713	241.5223	277.3584	297.1347	374.4657	396.7383	425.6674	482.6618	532.3117	558.6716	671.1774	734.4558	815.1159	873.7378	911.8356	927.8697	995.1061	1016.2169	1031.228	1052.0362	1087.6142	1100.2334	1108.6815	1124.5358	1181.97	1215.086	1232.6664	1301.4586	1317.0545	1332.939	1355.6754	1383.6436	1398.1045	1409.1985	1444.8107	1470.6847	1485.2843	1497.3312	1512.6947	2944.3183	2967.8599	3043.1074	3114.9438	3115.3492	3125.8904	3134.1666	3153.4658	3232.0301	3797.565
CC1OCOC2CC12O	C[C@H]1OCO[C@H]2C[C@@]12O	
InChI=1S/C6H10O3/c1-4-6(7)2-5(6)9-3-8-4/h4-5,7H,2-3H2,1H3	InChI=1S/C6H10O3/c1-4-6(7)2-5(6)9-3-8-4/h4-5,7H,2-3H2,1H3/t4-,5+,6-/m1/s1
