14
gdb 31331	2.94411	1.31496	0.91423	4.2719	70.35	-0.2412	-0.0585	0.1827	1194.0089	0.100799	-473.855794	-473.847741	-473.846797	-473.889155	27.797	
C	-0.0664577232	 1.4432708551	 0.0094211744	-0.245619
O	-0.0209282581	 0.0107075969	 0.0051834627	-0.255544
C	-1.185806814	-0.6248319056	 0.0125990848	 0.326704
C	-1.3645056289	-1.9933633145	 0.0105987641	 0.120992
O	-2.7336661103	-2.1927003121	 0.0206109845	-0.15231
C	-3.2591471522	-0.9703563401	 0.0276616663	 0.096393
N	-2.402993008	 0.011709504	 0.0235195888	-0.351533
C	-0.449062836	-3.1078503722	 0.0008804306	 0.062172
O	-0.7628266417	-4.2797648826	 0.0003994843	-0.29498
H	 0.9745088918	 1.7656889508	 0.002002272	 0.143421
H	-0.5868893259	 1.8176964673	-0.8759748372	 0.146518
H	-0.5726824891	 1.8128667484	 0.9050306968	 0.146496
H	-4.3360058447	-0.8965360623	 0.0361084318	 0.168697
H	 0.6117283504	-2.7790185329	-0.0064713139	 0.088591
78.0924	145.5385	147.5699	157.6945	248.5386	256.1797	367.5938	396.0972	586.2811	645.6349	697.9384	753.7927	805.0325	876.3545	954.8488	1017.0216	1020.9494	1131.4112	1177.6117	1202.0957	1209.6501	1266.4112	1324.9022	1390.8804	1438.7882	1483.7001	1486.504	1496.5751	1546.8122	1645.0321	1775.4303	2907.5299	3049.0889	3124.7531	3161.629	3271.6726
COC1=C(OC=N1)C=O	COc1c(ocn1)C=O	
InChI=1S/C5H5NO3/c1-8-5-4(2-7)9-3-6-5/h2-3H,1H3	InChI=1S/C5H5NO3/c1-8-5-4(2-7)9-3-6-5/h2-3H,1H3
