13
gdb 128548	2.37754	1.54368	0.94162	5.8118	70.18	-0.2562	-0.0666	0.1896	1150.5424	0.089294	-452.728133	-452.72031	-452.719366	-452.76119	27.391	
C	 0.0005199098	 1.4615426818	 0.0091115516	-0.262316
O	 0.0249723534	 0.0364363222	 0.0048615673	-0.249944
C	-1.1595843565	-0.5802753078	 0.0124074509	 0.166258
C	-1.3491121259	-1.9403622875	 0.0103212918	 0.242696
O	-2.6825070434	-2.2055130091	 0.0198121533	-0.202734
N	-3.3772960002	-1.0242888414	 0.0281253593	-0.1037
C	-2.4858366564	-0.0608353876	 0.0240717844	-0.086058
C	-0.439666259	-3.015239035	 0.0005045157	 0.247814
N	 0.3238172812	-3.8861971815	-0.0076594997	-0.338674
H	 1.0424770389	 1.7802474926	 0.0019846767	 0.158513
H	-0.5067155426	 1.8490722522	-0.8821896528	 0.138725
H	-0.4928976914	 1.8439613556	 0.9103208657	 0.138726
H	-2.8166446277	 0.9665191854	 0.0293359458	 0.150695
76.0063	123.8176	167.2113	205.7049	242.9753	336.8887	422.4751	502.8679	540.197	630.5123	647.8506	706.6527	726.7858	879.279	948.773	990.7241	1052.2008	1170.6409	1176.9814	1207.5107	1233.6156	1253.5386	1431.8961	1488.317	1493.895	1495.9154	1502.4765	1668.1053	2346.0541	3019.7508	3087.3006	3157.9976	3260.53
COC1=C(ON=C1)C#N	COc1c(onc1)C#N	
InChI=1S/C5H4N2O2/c1-8-5-3-7-9-4(5)2-6/h3H,1H3	InChI=1S/C5H4N2O2/c1-8-5-3-7-9-4(5)2-6/h3H,1H3
