21
gdb 95381	2.52166	1.7385	1.33388	2.2953	76.85	-0.2358	0.0655	0.3013	1039.7503	0.185897	-424.243649	-424.23586	-424.234915	-424.275773	31.347	
O	-0.4699069032	 1.4509277403	 0.4169385256	-0.423654
C	-0.0751224727	 0.1286998952	 0.0713035921	 0.083445
C	 0.7129185725	-0.539002693	 1.2082973306	-0.237231
C	-0.3761969357	-0.8432508271	 2.2524774871	-0.216023
C	-1.5618281792	-1.3595535984	 1.4074069289	-0.016981
C	-2.9715227319	-0.8748017465	 1.8037555011	-0.243192
C	-3.2124969011	 0.3053736417	 0.8488962773	-0.0788
O	-2.5387014345	-0.0476121379	-0.3577651122	-0.252959
C	-1.3591992856	-0.7462940933	-0.0187990103	 0.117242
H	 0.3303148011	 1.9650332597	 0.5624854583	 0.281837
H	 0.4747580835	 0.1342656789	-0.8801501485	 0.058101
H	 1.168143754	-1.4687021112	 0.8428649864	 0.097607
H	 1.5254321032	 0.0934388149	 1.5836745077	 0.085145
H	-0.0550990294	-1.5582036253	 3.0145164423	 0.091761
H	-0.6527672707	 0.0843221769	 2.7642688105	 0.104192
H	-1.5279571463	-2.4509188894	 1.3586691393	 0.069606
H	-3.7111552866	-1.6605469759	 1.6231035844	 0.100867
H	-3.0398934138	-0.5844093068	 2.8560094522	 0.097114
H	-4.2667310841	 0.4622998501	 0.603808176	 0.09874
H	-2.7996298492	 1.2365230227	 1.2558742481	 0.107997
H	-1.2055842903	-1.5129113258	-0.7857126871	 0.075187
86.1439	188.2464	237.6679	270.9478	292.6191	356.7818	403.6367	495.0247	573.3991	631.0364	664.2175	769.4473	809.9255	823.5423	862.0478	897.3825	914.3458	944.6219	969.9136	997.3212	1008.1203	1029.7464	1057.9431	1074.4417	1130.0578	1133.5958	1188.816	1194.8723	1202.59	1228.7146	1241.4131	1278.921	1306.0075	1317.0196	1322.8002	1341.9897	1346.6219	1362.758	1372.3341	1400.615	1422.8773	1483.2392	1487.5478	1495.6135	1524.0017	2997.6181	3026.6627	3033.1364	3044.4256	3049.3858	3051.6083	3068.6466	3071.9225	3087.7417	3099.7514	3106.2409	3821.2582
OC1CCC2CCOC12	O[C@H]1CC[C@H]2CCO[C@@H]12	
InChI=1S/C7H12O2/c8-6-2-1-5-3-4-9-7(5)6/h5-8H,1-4H2	InChI=1S/C7H12O2/c8-6-2-1-5-3-4-9-7(5)6/h5-8H,1-4H2/t5-,6-,7+/m0/s1
