21
gdb 116179	3.07971	1.00457	0.79858	1.2741	74.95	-0.2404	0.0712	0.3116	1429.3145	0.182988	-461.360074	-461.350767	-461.349823	-461.394018	35.151	
O	-0.0524725773	 1.4239250673	-0.0332580913	-0.4251
C	 0.0105754175	 0.0056039111	 0.0230601786	-0.093322
C	-1.4144385794	-0.5362840121	 0.0201422277	 0.002751
C	-2.1629063553	-0.1399099523	-1.2598606666	-0.071645
O	-3.4819062859	-0.6621994299	-1.2873931197	-0.246107
C	-3.4954398399	-2.0743299976	-1.2371671074	-0.101067
C	-2.8575008027	-2.6014855388	 0.0564057223	 0.091436
O	-2.7870005334	-4.0202362847	 0.0564512714	-0.431471
C	-1.4344220908	-2.0644590773	 0.1801423461	-0.218861
H	 0.8449584472	 1.7661064412	-0.0745544003	 0.288424
H	 0.5621506022	-0.4024495049	-0.8407353085	 0.085699
H	 0.5303272808	-0.3352704616	 0.9327574948	 0.087965
H	-1.9448359519	-0.080064433	 0.8664056213	 0.089363
H	-2.2561348966	 0.9446582647	-1.3318741297	 0.12483
H	-1.5976633903	-0.4959209968	-2.1405369093	 0.077379
H	-4.5459041654	-2.379273374	-1.3073182695	 0.091801
H	-2.9546847707	-2.5099240147	-2.0952427167	 0.089132
H	-3.4536576125	-2.2372694567	 0.9085999936	 0.071603
H	-3.6855868517	-4.3656268538	 0.0604883925	 0.283444
H	-0.8276836085	-2.5335051278	-0.6070979357	 0.10217
H	-1.0034753953	-2.3697739683	 1.1399329462	 0.101575
90.9202	134.1541	160.8299	203.7065	256.9171	283.9143	312.1836	320.4334	365.7912	414.476	444.2159	475.0747	516.0688	606.3409	857.1705	877.6208	904.409	945.2733	970.7973	1007.4984	1043.3478	1070.8633	1089.7468	1109.3068	1123.8329	1144.1064	1175.1383	1192.1452	1223.645	1252.1365	1271.8611	1292.6289	1314.694	1318.6658	1341.299	1346.8904	1375.3916	1400.8247	1414.1704	1439.8286	1458.4705	1487.2097	1492.2482	1503.9391	1520.4422	2941.1046	2957.5188	2959.9023	2975.4222	2987.6498	3016.5752	3031.8	3060.6537	3071.8678	3121.5195	3813.7767	3834.0171
OCC1COCC(O)C1	OC[C@H]1COC[C@@H](O)C1	
InChI=1S/C6H12O3/c7-2-5-1-6(8)4-9-3-5/h5-8H,1-4H2	InChI=1S/C6H12O3/c7-2-5-1-6(8)4-9-3-5/h5-8H,1-4H2/t5-,6-/m0/s1
