22
gdb 111493	2.62828	1.35027	1.09223	2.2023	80.58	-0.2238	0.0708	0.2946	1196.9228	0.19564	-404.322625	-404.313718	-404.312774	-404.355851	34.69	
C	 0.8994092592	 1.4122486074	-0.5234781388	-0.414828
C	 0.2049999458	 0.1459802939	 0.0016568775	-0.012257
C	 0.1070252918	-1.0093199355	-1.0401036278	-0.174885
N	 1.0303906066	-2.1005164049	-0.6696448184	-0.096532
C	 2.4254380307	-1.671134382	-0.5019297387	-0.253806
C	 1.5315532384	-1.7977744687	 0.6804407803	-0.047179
C	 0.8641579686	-0.5482988012	 1.239033356	 0.013374
C	 1.7966892666	 0.3083409115	 2.086521463	-0.096554
O	 1.0272785034	 1.3507040698	 2.6759740587	-0.419699
H	 1.9201334599	 1.2342821542	-0.8758002067	 0.113201
H	 0.335453896	 1.8189091948	-1.369637616	 0.109843
H	 0.9381454003	 2.1772936049	 0.2563058366	 0.131555
H	-0.8064582824	 0.4503389278	 0.2853829291	 0.085738
H	-0.9010981293	-1.4372015428	-1.0434050453	 0.10418
H	 0.3198651047	-0.6702091819	-2.0599215907	 0.101067
H	 3.1605459079	-2.4453899229	-0.7046948849	 0.112647
H	 2.7169867908	-0.6815521185	-0.8394851477	 0.109919
H	 1.6541709477	-2.6457304094	 1.3500829284	 0.086192
H	 0.059938061	-0.8794043299	 1.9078664275	 0.085527
H	 2.2600867949	-0.3224936246	 2.8616615645	 0.086807
H	 2.6113024349	 0.7142043425	 1.4690497166	 0.08865
H	 1.6139318624	 1.8900535855	 3.2143590169	 0.28704
98.7493	139.5624	182.4453	235.1548	254.5255	290.7683	305.5017	350.8069	386.8567	443.4112	511.3902	652.2464	716.4141	737.0921	759.2592	857.9895	888.8511	931.4292	945.608	990.6361	1007.694	1021.9079	1050.2187	1074.6412	1088.1175	1105.7171	1124.0465	1142.5996	1156.0495	1188.0794	1242.9839	1252.3595	1256.5687	1263.0798	1289.5618	1335.3377	1340.647	1359.7837	1380.8232	1395.0838	1415.4044	1458.9215	1491.2963	1499.4238	1502.8443	1519.905	1524.4002	2974.2373	3005.8658	3029.1309	3034.122	3038.3339	3057.3261	3077.9332	3098.7075	3114.3128	3120.8147	3131.6114	3199.6968	3827.6077
CC1CN2CC2C1CO	C[C@H]1CN2C[C@H]2[C@H]1CO	
InChI=1S/C7H13NO/c1-5-2-8-3-7(8)6(5)4-9/h5-7,9H,2-4H2,1H3	InChI=1S/C7H13NO/c1-5-2-8-3-7(8)6(5)4-9/h5-7,9H,2-4H2,1H3/t5-,6-,7-,8?/m0/s1
