18
gdb 87503	3.06112	1.43176	1.1585	2.7118	73.16	-0.2281	0.0561	0.2842	1092.1321	0.145751	-438.962002	-438.953653	-438.952709	-438.994664	32.041	
C	-0.1995373764	 1.4537969312	-0.0323508101	-0.319028
N	 0.0344148919	 0.0168178647	 0.0031340023	-0.168175
C	 1.4054180943	-0.4591035243	-0.2703001739	-0.341843
C	 0.8127922536	-0.510927123	 1.0756822731	 0.498429
C	 1.1934502059	 0.0567076372	 2.4554544183	-0.123206
O	-0.0945820587	-0.4603262671	 2.9743188747	-0.313045
C	 0.4267132591	-1.5644363995	 2.1255248965	-0.09462
C	 1.7914881872	-1.3465562646	 2.8186160969	 0.128079
O	 2.9235022072	-1.853571612	 2.1785376684	-0.426238
H	 0.667907433	 2.0475131987	 0.301264239	 0.094875
H	-0.4460066681	 1.7544273604	-1.055154052	 0.122729
H	-1.0490007827	 1.692550162	 0.6141895264	 0.135858
H	 1.486416808	-1.348738907	-0.8882768952	 0.122315
H	 2.1796007418	 0.2890242699	-0.4412906179	 0.106097
H	 1.4968150572	 1.0567375073	 2.7653248218	 0.094023
H	-0.1781054191	-2.4652960988	 2.0328525291	 0.101776
H	 1.7555381557	-1.5447311738	 3.8946977383	 0.089635
H	 3.6957990002	-1.6387854211	 2.7102954942	 0.292341
119.5269	140.8323	205.019	210.4415	237.647	319.9674	357.9548	420.9808	438.3878	518.6886	621.5283	670.1531	762.7123	798.202	846.5857	879.1872	881.6363	899.0322	996.0115	1041.6119	1055.0704	1093.8115	1110.2399	1114.8722	1133.0242	1142.9394	1171.2555	1183.9526	1207.5105	1213.7842	1235.0929	1245.4897	1290.7557	1419.4276	1444.8307	1457.1959	1492.4734	1496.7019	1532.6925	2964.2563	3066.2425	3072.0333	3086.8607	3112.2015	3121.882	3138.8333	3179.7458	3827.9718
CN1CC11C2OC1C2O	CN1C[C@]21[C@H]1O[C@@H]2[C@H]1O	
InChI=1S/C6H9NO2/c1-7-2-6(7)4-3(8)5(6)9-4/h3-5,8H,2H2,1H3	InChI=1S/C6H9NO2/c1-7-2-6(7)4-3(8)5(6)9-4/h3-5,8H,2H2,1H3/t3-,4-,5+,6-,7?
