19
gdb 121266	4.05491	1.00184	0.89071	2.4064	72.6	-0.256	0.0789	0.3348	1359.4238	0.158406	-460.13856	-460.129868	-460.128924	-460.172921	31.456	
C	-0.0276612626	 1.4994738699	-0.1691375216	-0.385703
C	-0.0846392572	-0.0167924527	-0.1274777123	-0.03976
O	 0.6602028858	-0.5196338112	-1.2336297257	-0.248686
C	 0.7705253818	-1.8968773566	-1.2650154572	 0.234852
O	-0.5028158629	-2.5020757306	-1.4952345268	-0.282715
C	-0.3815058079	-3.6212589747	-2.3643421773	-0.103943
C	 0.9314122074	-3.4338316548	-3.0942618038	 0.025882
O	 1.0450291315	-2.1401164104	-3.6902714255	-0.2351
C	 1.6478986114	-2.3557258962	-2.4135119534	-0.026864
H	 1.0062311317	 1.8505852044	-0.1044709324	 0.123982
H	-0.4583204657	 1.8723049438	-1.1025229747	 0.133125
H	-0.5922354752	 1.9222494055	 0.6673263495	 0.114942
H	 0.3475355247	-0.4003912754	 0.8115562399	 0.085088
H	-1.1203454937	-0.3734402668	-0.1859933276	 0.115698
H	 1.178950831	-2.2689589961	-0.3044119375	 0.054603
H	-0.3626553054	-4.5671353594	-1.8003642863	 0.098135
H	-1.2484505611	-3.6315646905	-3.0336714415	 0.122987
H	 1.4174544652	-4.2570361427	-3.610121881	 0.104695
H	 2.7281412715	-2.2641370455	-2.3565248346	 0.108783
54.9702	85.2786	104.7584	167.5547	244.4852	284.5162	347.6232	374.966	465.8219	598.1451	700.0949	792.4966	818.5909	838.5278	883.2014	909.7583	914.3221	950.4216	974.2815	1035.2381	1064.3555	1071.5415	1092.6178	1122.3253	1148.9325	1180.2253	1192.6686	1227.2642	1260.026	1294.3382	1308.6609	1349.3324	1372.6207	1384.7736	1405.9489	1444.5283	1453.7413	1483.0737	1500.4759	1506.6276	1527.1289	2905.1674	2972.4291	2985.6904	3045.0176	3046.7436	3069.1383	3119.1266	3123.6195	3156.8819	3172.2687
CCOC1OCC2OC12	CCO[C@H]1OC[C@H]2O[C@@H]12	
InChI=1S/C6H10O3/c1-2-7-6-5-4(9-5)3-8-6/h4-6H,2-3H2,1H3	InChI=1S/C6H10O3/c1-2-7-6-5-4(9-5)3-8-6/h4-6H,2-3H2,1H3/t4-,5-,6+/m1/s1
