15
gdb 129701	2.36767	1.91749	1.06215	3.0577	76.64	-0.1879	-0.0272	0.1607	1050.131	0.115331	-450.138901	-450.13108	-450.130136	-450.170858	30.268	
N	 0.0844691943	 1.4012283906	 0.1362501284	-0.593922
C	-0.0189192388	 0.0091316375	 0.0493174258	 0.270408
C	-1.1841543327	-0.6938024754	 0.035172582	 0.310238
O	-2.3897031644	-0.0876393278	 0.0367974693	-0.458293
C	-1.1731422985	-2.1355338134	 0.0074209068	 0.207336
N	-2.3340439124	-2.7172152354	-0.00694137	-0.623384
C	 0.160215149	-2.7065726544	-0.0279075662	-0.072966
N	 1.2705846599	-2.0242660083	-0.0092531325	-0.198978
N	 1.1645489189	-0.6937838543	 0.0310620184	-0.274143
H	 0.5961352941	 1.8136832309	-0.6371425253	 0.253615
H	-0.8378409027	 1.8175011759	 0.185235374	 0.273284
H	-3.0137897477	-0.8460875353	 0.0203266416	 0.305481
H	-2.2622971989	-3.7316264681	-0.0517991985	 0.209269
H	 0.2815400398	-3.7852512272	-0.0667195522	 0.118195
H	 2.0345535201	-0.2001935653	 0.1522935583	 0.273861
140.6312	195.6277	220.0858	280.7652	307.1818	309.43	447.6449	496.4587	516.686	565.6045	596.5658	608.5583	646.4762	696.852	752.1833	771.9383	806.9574	884.7122	910.4544	1051.4726	1099.5598	1156.8553	1190.3363	1306.3576	1349.1815	1368.043	1417.2917	1460.1908	1539.4132	1578.2849	1646.5894	1648.4775	1728.629	3173.8914	3491.0853	3502.4569	3510.8349	3609.6064	3641.1676
NC1=C(O)C(=N)C=NN1	N[C@@H]1C(=C([NH])C=NN1)O	
InChI=1S/C4H6N4O/c5-2-1-7-8-4(6)3(2)9/h1H,(H,7,9)(H4,5,6,8)	InChI=1S/C4H7N4O/c5-2-1-7-8-4(6)3(2)9/h1,4-5,8-9H,6H2/t4-/m0/s1
