15
gdb 50026	3.14649	1.082	0.98167	3.1617	69.37	-0.2605	-0.071	0.1895	1213.2362	0.109563	-457.750402	-457.742095	-457.741151	-457.784148	29.657	
O	-0.5972956986	 0.7557337668	 0.8262170978	-0.239455
C	 0.1975113272	 0.9600506668	-0.0542042649	 0.152654
C	 1.2943282086	 1.9690293554	 0.0446769803	-0.142281
O	 2.3990483001	 1.7589654595	-0.8407616793	-0.258979
C	 1.565457932	 2.8493290027	-1.1243051229	 0.322298
C	 0.7683179559	 3.1105438874	-2.4173478194	-0.343908
C	 1.0276591393	 4.6405821709	-2.2464682607	-0.346975
C	 1.9585597233	 4.328282071	-1.0539398472	 0.34287
O	 2.7043153089	 4.9593709586	-0.369388489	-0.283404
H	 0.1809302941	 0.4117202067	-1.0212627488	 0.095546
H	 1.5395452328	 2.3343445578	 1.0401911846	 0.140793
H	 1.2610175901	 2.6827834573	-3.292920946	 0.137184
H	-0.2775406279	 2.8023693747	-2.4076974845	 0.129913
H	 1.5194084472	 5.1467672926	-3.0801582087	 0.146727
H	 0.152154947	 5.2249428619	-1.9501329114	 0.147017
68.7373	93.0372	118.6196	199.9128	254.1805	320.0639	375.5761	489.9676	500.7911	536.5315	620.3629	717.3139	754.5652	830.1046	910.9696	947.0133	967.9038	1020.5824	1036.2876	1072.4299	1097.0835	1113.6804	1136.0268	1211.4783	1219.3894	1241.1151	1281.1661	1382.9338	1436.1179	1455.274	1483.044	1826.1001	1900.5859	2902.2046	3072.0457	3084.7465	3123.8551	3142.9172	3147.9572
O=CC1OC11CCC1=O	O=C[C@H]1O[C@]21CCC2=O	
InChI=1S/C6H6O3/c7-3-5-6(9-5)2-1-4(6)8/h3,5H,1-2H2	InChI=1S/C6H6O3/c7-3-5-6(9-5)2-1-4(6)8/h3,5H,1-2H2/t5-,6-/m1/s1
