23
gdb 59044	2.46862	1.22451	1.02897	1.5133	88.13	-0.2296	0.0251	0.2547	1314.0967	0.205422	-388.310992	-388.301038	-388.300093	-388.345964	37.566	
C	-0.1143243017	 1.6675202783	 0.1716413501	-0.410984
C	-0.0263365743	 0.143686401	 0.0072867827	 0.009437
O	 0.5754299814	-0.1940257649	-1.2460535227	-0.430524
C	 0.7732884161	-0.498121735	 1.1082309928	 0.37759
C	 0.2640815071	-1.2863099181	 2.0569479663	-0.191414
C	 1.2929215225	-1.7179166116	 3.0719535633	-0.24981
C	 2.4840795293	-0.7771277473	 2.7620884533	-0.219549
C	 2.2755553213	-0.3062871318	 1.2955847396	-0.074842
C	 3.1065125067	-1.1226956972	 0.2873718855	-0.389501
H	 0.8804528518	 2.1205324592	 0.1342838194	 0.127928
H	-0.7196763916	 2.105185148	-0.6317298103	 0.102508
H	-0.5836044232	 1.9290510137	 1.1246015914	 0.122381
H	-1.0482647629	-0.2664349555	 0.0499777418	 0.06434
H	 0.1329137855	 0.3190951351	-1.9298935695	 0.279803
H	-0.7725856463	-1.6066707096	 2.0981706658	 0.081959
H	 0.9394289136	-1.6186715548	 4.1046926751	 0.098561
H	 1.5529600747	-2.7779331281	 2.9407064605	 0.106006
H	 2.4422606487	 0.0864871995	 3.4339842881	 0.095561
H	 3.4565477958	-1.2559591803	 2.9091386624	 0.090944
H	 2.5589956554	 0.7479124744	 1.1864481899	 0.064844
H	 2.8856318417	-2.1919979726	 0.3791139751	 0.109588
H	 2.8812411909	-0.8229454191	-0.7370119655	 0.136103
H	 4.1770935674	-0.9811344232	 0.4726369747	 0.099072
38.2386	107.8717	159.6273	205.1907	244.5006	254.9097	270.9546	279.7326	331.759	355.6885	373.4719	504.9673	619.6108	656.5035	700.1	773.9575	818.9092	858.2412	890.5513	910.8105	934.2835	971.8483	1001.1372	1008.2738	1052.6138	1075.6016	1098.451	1112.8721	1120.5043	1162.1079	1196.8515	1228.1143	1254.287	1286.8013	1313.8193	1323.8364	1346.9092	1357.0465	1370.8484	1400.9461	1402.4835	1422.5826	1482.5339	1491.0642	1491.8878	1498.0882	1502.118	1507.8717	1716.009	2965.0166	3006.5729	3020.0549	3026.7222	3030.6643	3042.5046	3055.6586	3091.9001	3092.8013	3095.6626	3122.4676	3143.7936	3176.0121	3812.7601
CC(O)C1=CCCC1C	C[C@@H](O)C1=CCC[C@H]1C	
InChI=1S/C8H14O/c1-6-4-3-5-8(6)7(2)9/h5-7,9H,3-4H2,1-2H3	InChI=1S/C8H14O/c1-6-4-3-5-8(6)7(2)9/h5-7,9H,3-4H2,1-2H3/t6-,7-/m1/s1
