19
gdb 68163	3.40514	1.43104	1.21232	2.6741	75.37	-0.2417	-0.0144	0.2273	1065.8398	0.159102	-423.039811	-423.031722	-423.030778	-423.072538	31.544	
C	-0.0603978686	 1.5543990577	-0.0610705215	-0.459134
C	 0.0664124767	 0.0490380216	-0.0378541296	 0.427178
C	 1.1969360244	-0.6618489604	-0.8356604647	-0.281381
C	 1.130300819	-1.7801405023	 0.253657478	-0.135884
C	 0.5995619023	-0.6803464985	 1.2285277984	-0.281393
C	-0.0349788776	-2.6703851134	-0.0914409498	 0.382845
O	-0.016883429	-3.8766265966	-0.0974890964	-0.328057
C	-1.3107321455	-1.8942545958	-0.4539560422	-0.183245
O	-1.2064975466	-0.4761732148	-0.4110088381	-0.308992
H	 0.8869589612	 2.0241821243	 0.2173889468	 0.113047
H	-0.3415644968	 1.8974606141	-1.0613382688	 0.128392
H	-0.8340423893	 1.882208423	 0.6398545733	 0.128394
H	 0.9902164461	-0.9286834608	-1.875287943	 0.110232
H	 2.1412413717	-0.1157362285	-0.7762203752	 0.110825
H	 2.018211078	-2.3592687072	 0.5054165384	 0.085523
H	 1.4270712891	-0.137874777	 1.6916014712	 0.110815
H	-0.1291290652	-0.9633363027	 1.9925204988	 0.110222
H	-1.6134968108	-2.2065331763	-1.461943825	 0.135316
H	-2.1037418491	-2.2217677163	 0.2309426293	 0.135296
55.2436	143.9674	211.0905	274.3323	305.49	416.5902	421.0291	436.2282	453.0919	569.2897	579.0614	669.1834	731.5527	821.997	871.6066	872.8933	886.1843	932.5997	960.6833	995.1778	1009.178	1040.1594	1069.262	1108.8485	1137.8585	1187.9513	1194.0862	1233.1333	1235.6891	1254.7564	1267.1196	1301.5876	1337.1457	1362.5273	1414.6646	1467.9408	1474.6534	1481.4127	1492.779	1498.7819	1829.415	3018.3925	3041.7549	3049.3921	3059.3461	3063.5297	3114.153	3117.5	3120.429	3121.5252	3125.6326
CC12CC(C1)C(=O)CO2	C[C@@]12C[C@@H](C1)C(=O)CO2	
InChI=1S/C7H10O2/c1-7-2-5(3-7)6(8)4-9-7/h5H,2-4H2,1H3	InChI=1S/C7H10O2/c1-7-2-5(3-7)6(8)4-9-7/h5H,2-4H2,1H3/t5-,7+
