17
gdb 6004	2.68265	1.86094	1.44064	2.9388	70.37	-0.2418	0.0311	0.273	938.8243	0.139215	-363.872955	-363.863498	-363.862554	-363.906883	34.741	
C	 0.4462806133	 1.578622414	 0.5785338935	-0.402875
C	 0.2387339507	 0.1022237305	 0.1601797191	-0.082152
C	 0.5125172024	-0.8289474976	 1.366737544	-0.402866
C	-1.1303175304	-0.0924953281	-0.3194230539	 0.330866
C	-2.2605001354	-0.2492350933	-0.70316512	-0.468011
C	 1.3126066942	-0.2224155191	-0.9216579247	 0.450388
N	 0.8520303392	-0.6308979107	-2.1281920726	-0.552353
O	 2.4946003848	-0.1039550647	-0.660488442	-0.382105
H	 1.4863791818	 1.7185695024	 0.8794722725	 0.145011
H	 0.2258185413	 2.2564543527	-0.2505298138	 0.12466
H	-0.2131125778	 1.8296753522	 1.4133921972	 0.120614
H	-0.1470656996	-0.5703835244	 2.1991499769	 0.120629
H	 0.339512635	-1.8756049619	 1.1022529761	 0.124656
H	 1.5532247667	-0.7120845995	 1.6753611283	 0.145001
H	-3.2623291336	-0.3844263708	-1.0295902262	 0.199506
H	-0.1333106552	-0.7179752842	-2.3102471388	 0.2683
H	 1.5224556326	-0.8478967174	-2.8468393755	 0.26073
32.4921	164.4467	182.7719	217.683	257.6901	263.7893	276.6534	301.1673	332.9962	436.4241	495.4901	539.0677	574.8169	619.4892	626.6424	642.625	689.831	774.8281	851.0747	953.2109	961.2926	1036.0337	1105.9827	1145.8	1196.3914	1249.0283	1344.2692	1386.0134	1411.0396	1479.7303	1487.2022	1497.1728	1509.0401	1604.9573	1792.4336	2220.8674	3046.7543	3049.3837	3120.8418	3123.229	3140.0523	3143.585	3497.0587	3594.784	3732.1054
CC(C)(C#C)C(N)=O	CC(C)(C#C)C(=O)N	
InChI=1S/C6H9NO/c1-4-6(2,3)5(7)8/h1H,2-3H3,(H2,7,8)	InChI=1S/C6H9NO/c1-4-6(2,3)5(7)8/h1H,2-3H3,(H2,7,8)
