15
gdb 11736	5.35519	1.32305	1.21052	1.6723	62.33	-0.247	-0.0259	0.2211	976.1805	0.118769	-399.765735	-399.758328	-399.757384	-399.797847	27.299	
O	 0.176313844	 1.3123539985	-0.2519939725	-0.410649
C	 0.0762581382	-0.0294819756	 0.19705506	-0.164092
C	-1.349581308	-0.4955357489	 0.2320226538	 0.31792
C	-2.4387078923	-0.0982131294	 1.2454936681	-0.422822
C	-2.9386162307	-1.569872221	 1.1374678738	 0.416451
O	-3.720575724	-2.2184365165	 1.7691221357	-0.302462
C	-1.8986722116	-1.9101313215	 0.0928317394	-0.218099
N	-1.9707922995	-0.9254165795	-1.0058206591	-0.355128
H	-0.1353666942	 1.3275631826	-1.1637414706	 0.290678
H	 0.6619784367	-0.7148663563	-0.43175851	 0.10516
H	 0.5017957434	-0.0447460615	 1.2053685721	 0.118042
H	-2.0782802042	 0.0962763116	 2.2604731892	 0.1397
H	-3.1083961243	 0.7123213223	 0.9445464873	 0.125252
H	-1.4121159131	-2.8595231484	-0.0969578296	 0.117749
H	-2.9105044303	-0.5526764462	-1.1311129975	 0.2423
68.2261	105.4773	198.2372	309.1932	391.9802	406.3148	434.062	469.0386	579.0046	649.66	723.2326	803.561	846.1305	928.1733	960.8331	984.2008	1018.4744	1064.4028	1071.1141	1095.1926	1125.8288	1159.8288	1188.8969	1208.9072	1246.9828	1307.3354	1375.9977	1407.7757	1439.6057	1466.0192	1490.5102	1887.1991	3007.2794	3057.2633	3085.2851	3109.9828	3192.5841	3465.2398	3804.6344
OCC12CC(=O)C1N2	OC[C@]12CC(=O)[C@H]1N2	
InChI=1S/C5H7NO2/c7-2-5-1-3(8)4(5)6-5/h4,6-7H,1-2H2	InChI=1S/C5H7NO2/c7-2-5-1-3(8)4(5)6-5/h4,6-7H,1-2H2/t4-,5-/m1/s1
