20
gdb 106353	3.19685	1.26985	1.11123	3.9523	79.13	-0.2364	0.023	0.2593	1172.6259	0.17225	-403.17045	-403.162254	-403.161309	-403.20309	32.368	
C	-0.2447059442	 1.5254590782	 0.0400414523	-0.378655
C	 0.1372237521	 0.0435905246	-0.0572085702	-0.306774
C	 0.7488410926	-0.5124306722	 1.2072711579	 0.35755
C	 0.0313404933	-0.5431336578	 2.5905307557	-0.251096
C	 1.1909337129	-1.533928961	 2.9229686232	-0.163079
C	 1.0437862912	-2.0310326335	 1.4398922087	-0.277181
C	 2.4178543274	-0.6292805937	 2.7343589744	 0.42047
O	 3.467036254	-0.5969762313	 3.3250568126	-0.374408
N	 2.0268179025	 0.1297581533	 1.6264904415	-0.352242
H	 0.6238829839	 2.1440097035	 0.2830494269	 0.129279
H	-0.6635355731	 1.8817083345	-0.9054145467	 0.11608
H	-0.9944154109	 1.6883382022	 0.8208895559	 0.123355
H	-0.7487931428	-0.5559650051	-0.297457766	 0.104961
H	 0.8401329062	-0.1091832517	-0.887976578	 0.099385
H	-0.0231729358	 0.3938035024	 3.1481880457	 0.111208
H	-0.9412802015	-1.0390761586	 2.5520708465	 0.103514
H	 1.1993038369	-2.1954699042	 3.7850759098	 0.089314
H	 0.1709085083	-2.6729057868	 1.2948356099	 0.103093
H	 1.9233962438	-2.4579265903	 0.9499793049	 0.103211
H	 2.729438803	 0.3669950377	 0.9390166349	 0.242014
91.9095	147.9742	177.7249	218.5747	295.1443	376.193	447.6542	485.2115	514.4208	520.3253	589.5038	683.467	752.7928	788.9037	793.0128	851.6511	895.8199	906.993	937.3586	964.8637	987.6645	1012.7445	1057.3758	1061.0624	1087.885	1111.1167	1139.471	1171.6721	1213.2627	1229.0656	1247.4815	1251.1413	1281.366	1327.1819	1357.8134	1397.4163	1414.0139	1479.6923	1483.8753	1496.0257	1508.1018	1518.2275	1866.4419	3015.1823	3042.7399	3052.8493	3057.8766	3067.7117	3109.942	3117.5231	3118.8566	3134.0734	3159.7766	3592.9429
CCC12CC(C1)C(=O)N2	CC[C@@]12C[C@@H](C1)C(=O)N2	
InChI=1S/C7H11NO/c1-2-7-3-5(4-7)6(9)8-7/h5H,2-4H2,1H3,(H,8,9)	InChI=1S/C7H11NO/c1-2-7-3-5(4-7)6(9)8-7/h5H,2-4H2,1H3,(H,8,9)/t5-,7+
