19
gdb 68142	3.7388	1.20818	1.07735	1.5405	82.25	-0.2479	0.0489	0.2969	1155.8385	0.159289	-385.852609	-385.84444	-385.843496	-385.884701	33.305	
O	-0.0794623585	 1.3953854075	-0.0055288035	-0.484141
C	-0.0120760052	 0.0060198232	 0.019389087	 0.395325
C	 0.3221834644	-0.8093681837	 1.3099487874	-0.322053
C	-0.4374464334	-1.9349340146	 0.5330570894	 0.249302
C	-1.3388636485	-0.7856632927	-0.0335799704	-0.29192
C	 0.5259084703	-2.1861927485	-0.6622942752	-0.264526
C	 0.8428361587	-0.7100004935	-1.0472802012	-0.285574
C	-0.9907138351	-3.0849037601	 1.1977610698	 0.073624
C	-1.4477864636	-4.0534194268	 1.7459738901	-0.35089
H	 0.8162336763	 1.7438170121	-0.0702016992	 0.278985
H	 1.3700440873	-0.9918586426	 1.5665736457	 0.089142
H	-0.236669336	-0.4547198787	 2.1772239423	 0.111435
H	-2.0634872375	-0.4304140817	 0.7005351141	 0.113805
H	-1.813630766	-0.9425019894	-1.0058920081	 0.09672
H	 1.4088208542	-2.7504584305	-0.3520981679	 0.107807
H	 0.0324693808	-2.7407195233	-1.4641081946	 0.10971
H	 0.5225786722	-0.4498690391	-2.0599551327	 0.105512
H	 1.9064851047	-0.4656043433	-0.9514123238	 0.089965
H	-1.8530996453	-4.9050291942	 2.2334592907	 0.177772
136.3407	144.3521	244.3381	264.4291	348.1716	364.8731	444.8561	489.573	505.0237	531.6372	543.8695	589.698	624.72	626.3005	691.7682	820.5645	837.2294	842.992	951.9189	960.0938	967.6145	989.2558	1005.1514	1014.5049	1107.5205	1122.9444	1148.4507	1172.1025	1192.4883	1216.8322	1231.094	1240.5761	1248.6372	1321.0908	1334.5567	1389.3815	1484.1596	1492.1135	1498.8195	1534.1254	2235.4141	3040.7839	3054.5081	3063.2187	3067.7906	3089.7316	3115.0315	3132.4235	3138.4206	3503.1627	3805.1197
OC12CC(C1)(CC2)C#C	O[C@@]12C[C@@](C1)(CC2)C#C	
InChI=1S/C8H10O/c1-2-7-3-4-8(9,5-7)6-7/h1,9H,3-6H2	InChI=1S/C8H10O/c1-2-7-3-4-8(9,5-7)6-7/h1,9H,3-6H2/t7-,8-
