12
gdb 128898	4.79671	1.09497	0.89636	2.5765	65.56	-0.2734	-0.1098	0.1637	1162.4825	0.076911	-427.799905	-427.792441	-427.791497	-427.833527	25.729	
N	-0.7216565411	-0.301874929	-1.3367962945	-0.290195
C	-0.2954186029	 0.3057713231	-0.4521792312	 0.271581
C	 0.2653643162	 1.0832044504	 0.648650925	-0.424741
C	 1.5259098779	 1.8409458443	 0.2844695766	 0.354735
C	 2.135862449	 1.8326042251	-0.9666161881	-0.00396
N	 3.2407692745	 2.5365935802	-1.1719938631	-0.158233
N	 3.7430111299	 3.2411265201	-0.1630853948	-0.047041
N	 3.1689683134	 3.2511102695	 1.020602419	-0.055294
N	 2.0626348716	 2.5595119218	 1.2642740667	-0.218202
H	-0.4822117744	 1.7975187875	 1.012180863	 0.198039
H	 0.4850275452	 0.4193999951	 1.4926797544	 0.19804
H	 1.7474199905	 1.2664472719	-1.8078127731	 0.175272
21.8644	124.0855	134.7792	316.2485	322.809	363.9307	440.0077	457.6706	654.6334	683.1476	826.9699	829.1239	895.8648	912.6041	968.9512	996.718	1070.5554	1094.2669	1200.064	1220.3021	1301.3648	1316.5758	1369.1232	1438.7168	1520.3058	1581.7459	2372.315	3051.556	3086.3991	3187.3843
N#CCC1=CN=NN=N1	N#CCc1cnnnn1	
InChI=1S/C4H3N5/c5-2-1-4-3-6-8-9-7-4/h3H,1H2	InChI=1S/C4H3N5/c5-2-1-4-3-6-8-9-7-4/h3H,1H2
