23
gdb 96136	2.46872	1.61741	1.227	1.3283	84.51	-0.2364	0.08	0.3164	1128.5184	0.208426	-388.286866	-388.278802	-388.277858	-388.318835	33.352	
C	 0.0094531394	 1.5714474818	-0.0074514907	-0.399895
C	 0.0050275791	 0.0368173417	 0.0276469724	 0.025783
C	 0.5504618805	-0.5190943491	-1.3063862029	-0.212186
C	 0.7864733553	-2.031512978	-1.368617062	-0.083475
O	 1.9025436813	-2.509046559	-0.6335749267	-0.266597
C	 1.9780988941	-2.1987452574	 0.7453772463	 0.140087
C	 0.6256663905	-2.0225852712	 1.4892565476	-0.277897
C	 0.7471278583	-0.4864015918	 1.2729600147	 0.007765
C	 2.2769668864	-0.7040069706	 1.0668946119	-0.247793
H	 1.0343146239	 1.9598199277	-0.0398561913	 0.116229
H	-0.514696454	 1.9511414686	-0.8910405455	 0.108909
H	-0.4775374797	 1.9912585171	 0.8787047301	 0.110032
H	-1.0401392676	-0.2945093602	 0.1211832669	 0.068722
H	-0.1624307157	-0.2634198918	-2.1008374414	 0.093332
H	 1.4880562782	-0.0119979564	-1.5668216756	 0.103673
H	-0.1314660158	-2.5647951955	-1.0749753888	 0.087479
H	 1.0021617631	-2.319927909	-2.4024283887	 0.10424
H	 2.6767355612	-2.9312535493	 1.1575804295	 0.075214
H	-0.2557331536	-2.5391832801	 1.1013955275	 0.097802
H	 0.740628519	-2.2872866155	 2.5439766546	 0.097897
H	 0.4657689924	 0.1253070531	 2.1356313597	 0.057901
H	 2.8299640324	-0.6084566319	 2.0058812531	 0.094302
H	 2.7932193712	-0.1278447431	 0.2958626493	 0.098476
133.0682	214.4187	258.9695	271.1216	304.9485	341.5871	370.0114	422.3469	460.8624	504.0916	566.3597	729.5626	773.3044	793.5362	853.4408	868.1609	900.0083	919.5339	938.1133	965.9844	992.5637	1011.5618	1032.1361	1058.2529	1065.1793	1097.3947	1125.0512	1151.272	1170.0969	1195.9264	1209.051	1256.1016	1256.5371	1275.3377	1284.0695	1302.7515	1331.1926	1351.3544	1367.7161	1388.0443	1398.1401	1412.6355	1419.6364	1459.652	1478.7259	1490.9024	1497.5436	1500.5418	1515.2331	2981.6353	2988.278	3020.0466	3025.5579	3046.9174	3055.9554	3061.2209	3061.7227	3071.2938	3077.8113	3090.7308	3098.2946	3110.233	3114.911
CC1CCOC2CC1C2	C[C@H]1CCO[C@@H]2C[C@H]1C2	
InChI=1S/C8H14O/c1-6-2-3-9-8-4-7(6)5-8/h6-8H,2-5H2,1H3	InChI=1S/C8H14O/c1-6-2-3-9-8-4-7(6)5-8/h6-8H,2-5H2,1H3/t6-,7-,8+/m0/s1
