20
gdb 110913	2.25638	1.39639	1.0362	4.0655	80.58	-0.2329	0.0244	0.2574	1228.7284	0.170921	-403.137396	-403.128497	-403.127553	-403.171705	32.833	
C	 0.1088705824	 1.2507797239	 0.5719325207	-0.373992
C	 0.060390237	-0.1588253835	-0.0297159944	-0.224961
C	-1.3469614669	-0.7168039537	-0.0738300476	 0.001429
C	-1.7198599526	-2.1768305819	-0.2026238023	-0.13201
C	-0.7988346578	-3.0862120944	 0.6311363008	-0.190948
N	-1.1274548426	-2.269930953	 1.8114922225	-0.034494
C	-0.3797361711	-2.0434488125	 2.9202188875	 0.132009
O	 0.5863488692	-2.7009806816	 3.2473702543	-0.331484
C	-2.0403753897	-1.4031929682	 1.0776925264	-0.051539
H	 1.1313963095	 1.639158675	 0.5856491639	 0.118586
H	-0.5069192121	 1.9500389362	-0.0045315636	 0.113866
H	-0.2645466489	 1.2523672445	 1.601282028	 0.119277
H	 0.4648172583	-0.1405352345	-1.0495541382	 0.103095
H	 0.7145600487	-0.8224034223	 0.5449482166	 0.122357
H	-2.0467091416	-0.0888383816	-0.62569403	 0.09323
H	-2.4090149397	-2.5379478236	-0.9532068641	 0.102827
H	-1.171380372	-4.1103356731	 0.7258725875	 0.126194
H	 0.2657591764	-3.1106110864	 0.3805440053	 0.129821
H	-0.7827008747	-1.2011832765	 3.5211425859	 0.067364
H	-2.9922749518	-1.105295513	 1.5009722008	 0.109372
49.8977	83.8547	153.6423	200.8595	218.3687	275.4825	291.3377	359.2059	480.6723	519.4984	611.3493	728.2939	767.0147	798.6273	819.3605	871.2287	897.9085	939.0323	987.1035	1015.9128	1034.0456	1037.1383	1060.8681	1085.5919	1097.1625	1127.8205	1161.2478	1183.7517	1210.4063	1263.2692	1293.5975	1308.1977	1327.3076	1357.4364	1395.0692	1413.1016	1437.2113	1446.1281	1486.4417	1499.2216	1506.2009	1510.0918	1790.8997	2913.3742	3031.4725	3033.8588	3051.6463	3073.6774	3098.8557	3101.8213	3109.6852	3116.3112	3181.43	3212.7717
CCC1C2CN(C=O)C12	CC[C@H]1[C@H]2CN(C=O)[C@@H]12	
InChI=1S/C7H11NO/c1-2-5-6-3-8(4-9)7(5)6/h4-7H,2-3H2,1H3	InChI=1S/C7H11NO/c1-2-5-6-3-8(4-9)7(5)6/h4-7H,2-3H2,1H3/t5-,6+,7-/m0/s1
