15
gdb 27379	2.02799	1.86569	0.97378	5.4788	74.21	-0.1982	0.0089	0.2071	1132.3809	0.115713	-450.180314	-450.172547	-450.171602	-450.212356	30.329	
N	 0.1256692645	 1.3775591707	 0.1456996665	-0.593056
C	-0.020001668	-0.0024384975	 0.0274843819	 0.385849
C	-1.1704305816	-0.703091196	 0.020239378	-0.212403
C	-1.1579516742	-2.1622900996	-0.011496731	 0.330598
N	-2.2545562332	-2.8261220427	-0.0214110208	-0.552847
N	 0.111578565	-2.7909618994	-0.0425868664	-0.428665
C	 1.1583631878	-2.0594246583	-0.0340025915	 0.492293
O	 2.394500247	-2.589460996	-0.0235666366	-0.414034
N	 1.1903969096	-0.6901495385	-0.0397930673	-0.407888
H	 0.7598326243	 1.7807246435	-0.5349523196	 0.252543
H	-0.7622761289	 1.8604183233	 0.1242333087	 0.262789
H	-2.1290633001	-0.2019041206	 0.0229605845	 0.099157
H	-2.0312245632	-3.8224605584	-0.0557101865	 0.20326
H	 2.2642377561	-3.5480414835	-0.0073655971	 0.313401
H	 2.0479783949	-0.2258932369	 0.2163662972	 0.269004
133.9322	180.2037	226.9342	306.8015	329.0176	357.9444	430.5052	511.2836	534.8266	542.3849	576.6659	611.1561	642.0026	688.9036	751.9293	756.3311	850.4416	892.5317	937.2969	1015.1009	1035.7803	1141.5736	1152.2123	1208.8547	1264.7114	1316.241	1375.781	1457.2086	1542.9853	1638.4485	1672.2281	1698.3826	1754.1543	3223.6817	3461.6383	3526.1714	3633.7662	3634.624	3777.4781
NC1=CC(=N)N=C(O)N1	N[C@@H]1C=C([NH])N=C(O)N1	
InChI=1S/C4H6N4O/c5-2-1-3(6)8-4(9)7-2/h1H,(H5,5,6,7,8,9)	InChI=1S/C4H7N4O/c5-2-1-3(6)8-4(9)7-2/h1-2,6H,5H2,(H2,7,8,9)/t2-/m0/s1
