15
gdb 29159	3.20874	1.39707	0.9747	3.2333	75.75	-0.1888	-0.032	0.1569	1134.3868	0.114186	-453.978386	-453.970688	-453.969743	-454.010263	30.273	
N	 0.0529659182	 1.4088289545	 0.3976137273	-0.589034
C	 0.0035112932	 0.0482325975	 0.0459879616	 0.22027
C	-1.1511159091	-0.6183807256	-0.1605893167	-0.052237
O	-1.1851245139	-1.9748285476	-0.4018349879	-0.224899
C	-0.0497499739	-2.7048105896	-0.4896173527	 0.340478
N	-0.0191750567	-3.9604336551	-0.7285430865	-0.597632
C	 1.220737064	-2.0065571062	-0.2907709183	 0.31246
O	 2.3096511902	-2.7809019434	-0.3849512298	-0.420006
C	 1.2460011061	-0.6826108148	-0.0230340448	-0.248933
H	 0.8001959909	 1.906236087	-0.0709124398	 0.248825
H	-0.8222381925	 1.8934993764	 0.2459091413	 0.244793
H	-2.1452068511	-0.1962879058	-0.1406120671	 0.116791
H	-0.9454201712	-4.3627172859	-0.849022545	 0.228324
H	 1.9575319298	-3.6747456668	-0.5728396521	 0.309084
H	 2.1871940161	-0.1738419547	 0.1512750807	 0.111717
123.8288	207.5677	248.6765	315.7893	345.0053	349.0334	408.4704	470.4106	505.4469	595.9452	598.5553	660.727	682.5642	714.8689	763.3417	772.405	798.8719	834.9484	882.1386	990.8932	1034.7927	1121.8274	1199.6856	1222.2159	1238.4152	1331.4487	1359.1724	1434.8473	1500.324	1633.536	1660.465	1692.9437	1741.0741	3198.8143	3238.1623	3530.1716	3531.7434	3557.8902	3624.6958
NC1=COC(=N)C(O)=C1	NC1=COC(=C(O)C1)[NH]	
InChI=1S/C5H6N2O2/c6-3-1-4(8)5(7)9-2-3/h1-2,7-8H,6H2	InChI=1S/C5H7N2O2/c6-3-1-4(8)5(7)9-2-3/h2,7-8H,1,6H2
