18
gdb 91991	2.70205	1.57703	1.25526	2.8881	76.99	-0.231	0.0494	0.2803	1042.9343	0.147604	-401.885391	-401.877165	-401.876221	-401.91782	32.254	
O	-0.1606954675	 1.1371469021	 1.345049264	-0.409083
C	-0.0724596482	 0.1594714351	 0.3188171413	 0.073528
C	 0.8590510757	-1.0179599607	 0.6820154833	-0.259141
C	-0.0518312953	-2.0408306282	 1.343273769	-0.01845
C	-1.0128969193	-1.5659012433	 2.3726977298	-0.25078
N	-1.4597639016	-1.7771898279	 0.9831879321	-0.100303
C	-1.4568958294	-0.542989692	 0.1563988857	-0.187755
C	-2.607669341	 0.3114142666	 0.4113144853	 0.381844
C	-3.5714406874	 1.0029941955	 0.5983693772	-0.459966
H	 0.7043377657	 1.5487804061	 1.4370130385	 0.286094
H	 0.2213292882	 0.6336917309	-0.6268357566	 0.079802
H	 1.3000349667	-1.4465064009	-0.2253112678	 0.107742
H	 1.6837744621	-0.6887424236	 1.3230963765	 0.101017
H	 0.2573024041	-3.0823485628	 1.329180144	 0.089876
H	-1.4319765714	-2.2767873175	 3.078822692	 0.112668
H	-0.9146139969	-0.5487514872	 2.7347936191	 0.145736
H	-1.510736229	-0.8936494014	-0.8828884085	 0.113352
H	-4.4184451156	 1.6186478191	 0.7738766051	 0.193821
103.0395	143.9289	200.2643	266.5636	285.9743	353.2257	394.5278	401.9731	519.4833	532.4213	618.2645	653.5458	675.7736	739.7622	806.9337	824.416	861.1415	865.8297	934.1744	968.3915	1031.8523	1040.1736	1065.5834	1096.764	1120.6029	1124.2616	1175.9405	1201.6315	1217.145	1267.3381	1283.2895	1315.4773	1342.5512	1357.6963	1391.8828	1420.8195	1477.6386	1506.0698	2244.7193	3005.8898	3019.8485	3040.6177	3079.5196	3121.8508	3144.3202	3221.4387	3505.7375	3820.3061
OC1CC2CN2C1C#C	O[C@H]1C[C@H]2CN2[C@H]1C#C	
InChI=1S/C7H9NO/c1-2-6-7(9)3-5-4-8(5)6/h1,5-7,9H,3-4H2	InChI=1S/C7H9NO/c1-2-6-7(9)3-5-4-8(5)6/h1,5-7,9H,3-4H2/t5-,6-,7-,8?/m0/s1
