12
gdb 123502	4.18628	1.84282	1.27956	4.627	70.32	-0.2606	-0.1016	0.1591	868.2475	0.081569	-427.837715	-427.832212	-427.831268	-427.867595	21.611	
C	 0.0104145776	 1.3272297092	 0.0097647255	-0.142008
C	 1.3118346434	 1.8012091611	-0.0003835271	 0.426569
N	 1.9101199591	 3.0073559005	 0.0004280267	-0.300697
C	 3.2194798064	 2.981620962	-0.0127950308	-0.043818
C	 3.9621282546	 1.7597181703	-0.0271208362	 0.020409
N	 3.4015992864	 0.5767553644	-0.0281896372	-0.162293
N	 2.0684711756	 0.6262625319	-0.0145897126	 0.071865
N	 1.2895265027	-0.461555178	-0.0126947191	-0.140267
N	 0.045725299	-0.020698853	 0.002090557	-0.16724
H	-0.9138614167	 1.880252859	 0.0219571121	 0.146181
H	 3.7455823906	 3.9318937503	-0.0127164783	 0.140286
H	 5.0464988513	 1.7644157121	-0.03791936	 0.151012
227.731	238.8374	450.2591	471.8507	578.0031	605.8281	663.2475	697.6432	766.961	788.9116	853.0182	893.3523	919.7499	950.0722	980.2706	1040.3844	1134.8066	1169.2429	1232.9121	1304.8711	1312.7361	1342.4466	1374.4111	1412.7163	1523.8216	1581.5435	1627.4427	3176.0941	3203.7595	3281.9137
C1=C2N=CC=NN2N=N1	c1c2nccnn2nn1	
InChI=1S/C4H3N5/c1-2-7-9-4(5-1)3-6-8-9/h1-3H	InChI=1S/C4H3N5/c1-2-7-9-4(5-1)3-6-8-9/h1-3H
