20
gdb 117286	4.42014	0.70379	0.61631	3.199	78.01	-0.261	-0.0171	0.2439	1837.1095	0.167741	-440.340724	-440.330008	-440.329064	-440.378125	36.723	
C	-0.0344118662	 1.745128201	-0.6470814329	-0.385767
C	-0.2906202796	 0.2572461895	-0.3952204981	-0.156635
C	 0.5645968395	-0.6368587138	-1.2931972806	-0.258973
C	 0.3449891426	-2.1098955574	-1.0792631253	 0.400152
N	-0.4583515999	-2.6003411804	-0.2487813561	-0.494115
O	 1.1970571036	-2.8012703729	-1.9720119502	-0.268255
C	 1.2646825597	-4.1600557958	-2.0562921518	 0.435705
C	 2.2726445931	-4.5515600018	-3.1079245495	-0.476043
O	 0.6199567038	-4.9309660035	-1.3941445607	-0.332122
H	 1.0125090993	 2.0087845335	-0.4582078288	 0.112197
H	-0.2613338593	 2.0207554463	-1.6833093478	 0.112198
H	-0.6554434555	 2.366761299	 0.0047332168	 0.115705
H	-0.0897538499	 0.0086774075	 0.6518313513	 0.115604
H	-1.3470824922	 0.020505129	-0.5573703192	 0.115606
H	 0.3766857415	-0.4186241643	-2.3533196455	 0.120528
H	 1.6333168598	-0.4304572648	-1.1447223448	 0.12053
H	-0.449698974	-3.6183143764	-0.267750588	 0.259327
H	 3.2547627136	-4.1430772949	-2.8535472384	 0.155726
H	 2.323668797	-5.6376005137	-3.1731933642	 0.152927
H	 1.9858209431	-4.129195756	-4.0751065163	 0.155706
45.6791	58.83	84.2422	96.3443	119.171	129.7069	244.1862	251.3769	303.7928	378.2366	412.6266	530.7634	549.1537	595.2873	712.2981	746.5051	841.5992	880.5212	889.3397	948.6938	968.7196	1011.4908	1031.6013	1053.794	1063.0033	1127.8501	1132.0922	1227.0464	1251.8536	1263.6355	1320.7103	1341.2949	1393.7537	1408.6054	1415.9233	1464.8833	1466.7526	1474.0286	1488.3567	1500.8793	1509.1488	1751.6847	1837.34	3019.4472	3028.4106	3044.5652	3055.4062	3057.9741	3078.1713	3103.6127	3105.0765	3123.8598	3171.3079	3519.2713
CCCC(=N)OC(C)=O	CCC[C]([NH])OC(=O)C	
InChI=1S/C6H11NO2/c1-3-4-6(7)9-5(2)8/h7H,3-4H2,1-2H3	InChI=1S/C6H11NO2/c1-3-4-6(7)9-5(2)8/h7H,3-4H2,1-2H3
