21
gdb 83753	2.38918	1.79543	1.42266	1.6776	80.98	-0.2488	0.0675	0.3164	1030.3981	0.184096	-387.081438	-387.073257	-387.072312	-387.113549	32.855	
C	-0.0448636014	 1.5052631025	 0.0138833836	-0.508261
C	-0.004847286	 0.0034712544	-0.0398867565	 0.291055
C	-0.9197423359	-0.8630883815	 0.8201017314	-0.082436
C	-1.5492427824	-2.1393683622	 0.2607232314	-0.259059
C	-0.3344020359	-2.987375671	-0.2134069146	-0.214138
C	 0.8427055841	-2.002443863	-0.1986842428	-0.091159
C	 0.569084187	-1.0073200911	 0.9581287589	-0.129233
C	 0.594806259	-0.8086799063	-1.1850108527	 0.10082
O	-0.1119406595	-0.9999371758	-2.3922148433	-0.444227
H	 0.9272555555	 1.9359678947	-0.253054968	 0.117329
H	-0.7870707673	 1.9084180517	-0.6851585793	 0.122567
H	-0.3055686961	 1.8635229684	 1.0153986693	 0.11521
H	-1.4574202628	-0.3096725989	 1.5834826799	 0.079451
H	-2.1196049987	-2.6560974001	 1.0393214911	 0.10152
H	-2.2620288949	-1.9350790928	-0.5485908927	 0.086741
H	-0.1469963217	-3.8130398027	 0.4804502408	 0.098026
H	-0.481364622	-3.4199033907	-1.2076644589	 0.102739
H	 1.8245608032	-2.4713510086	-0.2649503936	 0.063603
H	 1.1531606058	-0.8375450189	 1.8527270906	 0.083797
H	 1.5531956513	-0.3698313952	-1.4808251988	 0.083642
H	-1.0262034912	-1.2075177829	-2.1779488359	 0.282014
161.8713	180.6929	212.5903	227.5592	243.1834	268.4974	341.3188	480.0266	538.2399	576.8624	668.2073	730.5565	764.711	810.2693	834.4689	842.4213	877.3427	902.0282	911.5922	961.9875	988.0476	1008.471	1044.9981	1049.9231	1073.6004	1102.7127	1118.2297	1144.2734	1198.837	1211.2934	1220.4372	1239.2412	1262.7211	1273.5256	1285.8819	1324.1378	1327.383	1343.5473	1411.4772	1422.9695	1453.8773	1485.961	1487.2024	1497.9128	1513.9402	3017.6591	3020.989	3046.626	3059.1134	3065.3169	3080.6585	3092.7919	3093.6525	3110.2212	3163.2334	3202.565	3831.072
CC12C3CCC(C13)C2O	C[C@]12[C@H]3CC[C@H]([C@@H]13)[C@H]2O	
InChI=1S/C8H12O/c1-8-5-3-2-4(6(5)8)7(8)9/h4-7,9H,2-3H2,1H3	InChI=1S/C8H12O/c1-8-5-3-2-4(6(5)8)7(8)9/h4-7,9H,2-3H2,1H3/t4-,5+,6-,7-,8+/m1/s1
