20
gdb 58967	2.66639	1.39478	1.18774	2.0366	74.18	-0.2241	0.0518	0.2759	1131.8942	0.170354	-440.23183	-440.222846	-440.221902	-440.265512	33.929	
C	-0.028931365	 1.5479697073	 0.0153580178	-0.42691
C	-0.0262937729	 0.0194229091	 0.0123212544	 0.045913
O	 0.8281966929	-0.5226665648	 1.0147954771	-0.42985
C	-1.4316510676	-0.550183846	 0.1235030173	 0.309266
C	-2.1773617582	-0.5087583317	 1.4783411912	-0.129623
O	-2.5179678254	-1.9091546866	 1.3845256636	-0.287458
C	-1.8112302417	-2.0541607909	 0.1377916665	 0.040343
C	-2.7130855582	-1.7790750816	-1.0820144028	-0.186096
N	-2.2737054717	-0.3501245258	-1.0811127918	-0.377467
H	 0.9891081081	 1.9308225514	-0.0954177562	 0.126975
H	-0.6386014308	 1.9321277003	-0.8076434762	 0.133992
H	-0.440779163	 1.9390646891	 0.9552781135	 0.10583
H	 0.3884550172	-0.3318829106	-0.9392726825	 0.095108
H	 0.6666495933	-0.0482197908	 1.8368211653	 0.280277
H	-1.5512283776	-0.3157915163	 2.3605720615	 0.084955
H	-3.0606998245	 0.1421998509	 1.521989723	 0.093008
H	-1.1176059394	-2.8961276973	 0.1374524123	 0.091098
H	-2.4357256262	-2.292559243	-2.0096442052	 0.106775
H	-3.7725574748	-1.9591046873	-0.8722957229	 0.108113
H	-3.0214373944	 0.3275527346	-0.9720077158	 0.21575
72.6846	111.3533	156.942	234.2591	245.4788	274.424	289.1444	360.0748	414.0451	472.1333	497.5531	636.3839	660.66	790.1295	832.7898	895.241	905.7694	932.188	965.452	985.7322	1008.0977	1038.1665	1050.8034	1063.4963	1089.0899	1127.1031	1153.0501	1159.9839	1176.7632	1211.1582	1269.814	1298.909	1304.0103	1320.7572	1356.1902	1375.9854	1382.3511	1395.9977	1406.979	1494.4602	1496.4099	1497.3609	1510.8698	2991.2846	3019.6582	3027.04	3035.7149	3050.486	3078.5764	3096.3995	3106.7805	3123.6444	3515.7863	3811.1431
CC(O)C12COC1CN2	C[C@@H](O)[C@]12CO[C@H]1CN2	
InChI=1S/C6H11NO2/c1-4(8)6-3-9-5(6)2-7-6/h4-5,7-8H,2-3H2,1H3	InChI=1S/C6H11NO2/c1-4(8)6-3-9-5(6)2-7-6/h4-5,7-8H,2-3H2,1H3/t4-,5+,6-/m1/s1
