17
gdb 36175	3.66605	1.2337	1.13649	3.71	76.31	-0.2401	0.0287	0.2688	1101.7989	0.137236	-380.790666	-380.783304	-380.78236	-380.822993	28.455	
N	 0.0095061705	-1.1578259778	 0.005666527	-0.307615
C	 0.0147849008	-0.0042152314	-0.0595300568	 0.257708
C	 0.0612695134	 1.4560122335	-0.1379665148	-0.478901
C	 1.4781998511	 1.9825628156	-0.0658246714	 0.377989
N	 2.4891652774	 1.7427985356	-1.143801917	-0.380014
C	 3.1978189693	 2.5753029516	-0.1153362398	-0.011939
C	 1.9398577067	 3.4645014164	 0.129950365	-0.091661
C	 2.0403526231	 3.3131669761	 1.661983384	-0.277038
C	 2.4954772269	 1.9378634953	 1.1322098942	-0.101247
H	-0.3991980757	 1.7771179437	-1.0791584981	 0.166639
H	-0.5357959825	 1.8752847836	 0.6801160265	 0.158565
H	 2.8216771657	 0.7743315229	-1.1043340491	 0.21679
H	 4.233551012	 2.8983275254	-0.2163894254	 0.091104
H	 1.6282159704	 4.3133159614	-0.4784219059	 0.087226
H	 2.8009854712	 3.9201033724	 2.1604765457	 0.104448
H	 1.1034933903	 3.3435008702	 2.2265054249	 0.098772
H	 2.8136765793	 1.0464487056	 1.6751395508	 0.089175
63.4628	109.1486	240.0912	296.511	389.9411	422.8862	479.7805	511.5146	678.975	743.3955	775.3573	826.0985	854.95	871.8692	900.1349	924.215	939.3018	950.33	1003.6821	1026.145	1058.6675	1080.2352	1083.6255	1133.3327	1149.9443	1180.3409	1198.4925	1224.8178	1239.5752	1258.1345	1276.6039	1307.4647	1318.6119	1366.9535	1447.8367	1512.7374	2362.8929	3043.0148	3049.4244	3085.6035	3105.5232	3107.3642	3118.5153	3129.3755	3392.6287
N#CCC12NC3C1CC23	N#CC[C@@]12N[C@H]3[C@@H]1C[C@@H]23	
InChI=1S/C7H8N2/c8-2-1-7-4-3-5(7)6(4)9-7/h4-6,9H,1,3H2	InChI=1S/C7H8N2/c8-2-1-7-4-3-5(7)6(4)9-7/h4-6,9H,1,3H2/t4-,5+,6-,7+
