16
gdb 44994	3.66478	1.21747	1.0468	1.5797	75.83	-0.2381	-0.0316	0.2066	1132.111	0.123134	-400.712287	-400.704417	-400.703472	-400.744754	30.505	
O	 0.0040619343	 0.0845185602	-0.4291286086	-0.293464
C	 0.0045917358	 1.2144486646	-0.0227944251	 0.377482
C	-1.2317197622	 2.1042987524	 0.1860767783	-0.27615
N	-0.8249634614	 3.30340277	 0.9191619927	-0.12649
C	-0.2211659093	 3.0103491561	 2.2174732132	-0.269136
C	 0.6780157598	 3.2726454581	 1.0516186815	 0.11949
C	 1.2398818292	 2.041755681	 0.3583665525	-0.401727
C	 1.3849819036	 4.5156371029	 0.9267197594	 0.199569
C	 2.0154975071	 5.5334717401	 0.8192186695	-0.358799
H	-1.6248594422	 2.3932488326	-0.7964537258	 0.144512
H	-2.0214546247	 1.5561399151	 0.7088436138	 0.142202
H	-0.354504307	 3.7827039402	 2.9679948735	 0.134469
H	-0.2622643922	 1.9893027586	 2.5979555637	 0.117767
H	 1.9214251346	 1.4527336498	 0.9768814134	 0.14624
H	 1.7779473241	 2.3140308357	-0.5562954738	 0.149898
H	 2.5586147005	 6.4412819727	 0.725996102	 0.194136
76.243	145.1476	160.4153	304.2863	399.6592	428.5177	457.7632	486.1386	534.5246	562.5505	617.8204	634.3413	654.96	705.689	766.9498	796.374	835.1742	903.5784	944.1395	1013.6328	1050.3414	1120.3616	1142.4274	1156.6766	1181.8881	1205.9028	1231.4913	1275.8755	1307.2916	1351.7506	1450.8806	1458.395	1507.1087	1855.8778	2242.1166	3038.6476	3058.407	3087.0854	3092.9418	3109.8981	3194.5173	3501.9239
O=C1CN2CC2(C1)C#C	O=C1CN2C[C@]2(C1)C#C	
InChI=1S/C7H7NO/c1-2-7-3-6(9)4-8(7)5-7/h1H,3-5H2	InChI=1S/C7H7NO/c1-2-7-3-6(9)4-8(7)5-7/h1H,3-5H2/t7-,8?/m1/s1
