15
gdb 22515	2.41749	1.23564	1.10916	3.6328	70.1	-0.272	-0.0344	0.2376	1151.6937	0.110466	-453.892958	-453.883947	-453.883003	-453.9274	32.321	
O	-0.0497677161	 1.2821859566	 0.0768372233	-0.377218
N	-0.0302758325	-0.1031622585	 0.2389199225	-0.222825
C	-1.1683851224	-0.6154454841	 0.0405143191	 0.364825
C	-2.5561961294	-0.1809763745	-0.3680481579	-0.327053
C	-2.9246555545	-1.6910060461	-0.523379552	-0.261297
C	-1.5179475946	-2.1078009883	 0.0290423907	 0.186871
O	-0.8089963998	-2.9129503103	-0.8791537242	-0.442118
C	-1.5516806321	-2.7113172738	 1.3730705755	 0.232956
N	-1.5727413241	-3.1833451497	 2.4280251283	-0.334348
H	 0.8647955361	 1.528061936	 0.2574146156	 0.315596
H	-3.0999642016	 0.3413086642	 0.4242007288	 0.144661
H	-2.6027430494	 0.4285275743	-1.2736263235	 0.142448
H	-3.7753286173	-2.0435960712	 0.0580984592	 0.135201
H	-3.0180959842	-2.0202800684	-1.5584203576	 0.141165
H	 0.1246349418	-2.8855693862	-0.6358668275	 0.301137
39.2284	99.4867	154.5337	180.7204	240.6106	291.7939	349.105	376.3466	431.7898	461.8874	515.2334	531.5421	635.9767	664.8682	747.3737	774.8648	914.3851	936.0727	965.9162	1013.3062	1074.617	1097.3722	1174.7509	1187.0213	1231.331	1241.4145	1280.1056	1355.2364	1409.8226	1458.5573	1476.0968	1780.7332	2349.5962	3067.2	3099.8033	3112.7393	3165.4841	3794.0124	3808.0877
ON=C1CCC1(O)C#N	ON=C1CC[C@]1(O)C#N	
InChI=1S/C5H6N2O2/c6-3-5(8)2-1-4(5)7-9/h8-9H,1-2H2	InChI=1S/C5H6N2O2/c6-3-5(8)2-1-4(5)7-9/h8-9H,1-2H2/t5-/m0/s1
