21
gdb 59068	2.11931	1.33552	1.03844	1.0564	85.03	-0.2472	0.037	0.2842	1273.9501	0.179106	-387.047849	-387.037307	-387.036362	-387.083308	38.914	
C	 0.0361841855	 1.4367842671	-0.3058529008	-0.393049
C	 0.0703591396	-0.0174916979	 0.1872288462	 0.030521
C	 0.6653111224	-0.1265421932	 1.5979111822	-0.394133
C	-1.3236459045	-0.6145340993	 0.1377991936	-0.044813
C	-1.9003057544	-1.1539871816	-1.1386870808	 0.088492
O	-1.1268519051	-1.1555965169	-2.2958260264	-0.421894
C	-1.5573753791	-2.12651429	-0.0090619323	-0.281594
C	-0.4691693436	-3.0269242804	-0.2357011251	 0.301232
C	 0.4306206538	-3.7822577426	-0.505191921	-0.447198
H	 1.037777413	 1.8788357428	-0.2845203881	 0.107499
H	-0.3396476561	 1.4893108971	-1.3313190736	 0.130478
H	-0.6117566863	 2.0540801266	 0.3281477276	 0.105636
H	 0.704613042	-0.5889108616	-0.4979793631	 0.084298
H	 0.7211994605	-1.169220314	 1.9246113609	 0.121033
H	 1.6764867061	 0.292624417	 1.6280480004	 0.109121
H	 0.0568973621	 0.4240665125	 2.3255309153	 0.106756
H	-2.0385722676	-0.1336779752	 0.8031839739	 0.087878
H	-2.9581449648	-0.9962449484	-1.3378221045	 0.100581
H	-0.6619634646	-2.0010588868	-2.3483142628	 0.292388
H	-2.3925886606	-2.5457899233	 0.5436129614	 0.115318
H	 1.2321187617	-4.4524053719	-0.6958615532	 0.201449
53.9693	97.3652	123.9564	161.6156	192.9974	233.0943	244.3555	260.3011	329.0814	356.256	380.9924	429.7788	584.5227	594.0769	623.5627	653.64	660.6903	762.8426	781.9707	836.5923	913.6103	928.4498	965.2512	987.547	1013.9346	1038.3822	1120.66	1129.585	1144.6049	1184.4375	1197.6926	1242.5554	1307.6995	1339.5276	1353.2907	1361.5128	1394.1609	1399.5629	1416.717	1432.8112	1488.1236	1492.468	1504.146	1510.6636	2220.9061	3023.7521	3027.9441	3057.1136	3087.4722	3096.4321	3107.3135	3115.3209	3119.965	3129.5352	3153.2226	3501.871	3748.6175
CC(C)C1C(O)C1C#C	CC(C)[C@H]1[C@@H](O)[C@H]1C#C	
InChI=1S/C8H12O/c1-4-6-7(5(2)3)8(6)9/h1,5-9H,2-3H3	InChI=1S/C8H12O/c1-4-6-7(5(2)3)8(6)9/h1,5-9H,2-3H3/t6-,7+,8-/m0/s1
