19
gdb 53831	3.8724	0.85362	0.75013	1.8511	78.09	-0.247	-0.0501	0.1969	1536.2027	0.15849	-419.221852	-419.212289	-419.211345	-419.257535	35.008	
N	-0.0406665823	 1.2933262902	-0.0322147251	-0.533775
C	 0.0652178182	-0.066722615	 0.006191504	 0.262842
N	 1.1117198301	-0.8053072401	 0.0019716278	-0.509893
C	-1.3002167746	-0.7460623351	 0.0891910939	 0.382716
O	-2.3022227356	-0.0724550289	-0.029100778	-0.326131
C	-1.3212408415	-2.2389672542	 0.3353274228	-0.331782
C	-2.682682848	-2.8592250884	 0.1363420496	 0.042535
C	-3.0711944124	-3.4188201511	-1.2085267539	-0.252351
C	-2.8077054756	-4.3491357339	-0.0494322146	-0.285459
H	 0.7459136427	 1.8501736962	-0.3194619414	 0.252374
H	-0.9680806188	 1.6566402227	-0.1957359826	 0.270481
H	 1.9671483425	-0.2486996369	-0.0634617868	 0.206023
H	-0.5543172765	-2.7047816236	-0.2913745678	 0.145402
H	-0.9576674014	-2.3896513241	 1.3629894337	 0.136867
H	-3.4778265002	-2.3719690272	 0.690953294	 0.095955
H	-4.0933042574	-3.2867824466	-1.5449104071	 0.113301
H	-2.3348811595	-3.3838748925	-2.0051889697	 0.109289
H	-1.8960070486	-4.9376376963	-0.0694997454	 0.110676
H	-3.6504438712	-4.8555668451	 0.4079991367	 0.110929
33.5675	60.3273	94.2894	134.0738	263.8266	312.5607	333.2002	368.4435	401.2116	412.8944	523.8376	549.332	616.6701	673.2299	774.9024	798.5398	816.2287	854.6246	877.1689	901.0796	964.0648	1003.0379	1058.974	1060.32	1080.3714	1108.8426	1133.3153	1140.83	1159.227	1197.3371	1227.3681	1245.3801	1328.9609	1415.5034	1433.5642	1437.187	1471.6866	1508.6794	1599.4982	1717.8661	1789.8366	3013.1519	3086.9132	3128.681	3133.8505	3163.2454	3206.8822	3222.5027	3440.597	3578.6537	3712.9204
NC(=N)C(=O)CC1CC1	NC(=N)C(=O)CC1CC1	
InChI=1S/C6H10N2O/c7-6(8)5(9)3-4-1-2-4/h4H,1-3H2,(H3,7,8)	InChI=1S/C6H10N2O/c7-6(8)5(9)3-4-1-2-4/h4H,1-3H2,(H3,7,8)
