19
gdb 39981	3.56238	1.54454	1.38556	1.72	77.54	-0.2512	0.0854	0.3366	984.9782	0.161463	-385.849409	-385.842628	-385.841684	-385.880378	28.432	
C	 0.029454767	 1.5004284586	 0.0040586834	-0.269244
O	 1.1965454754	 0.6678656144	 0.0056664703	-0.288864
C	-0.0911498002	 0.0415631601	 0.0066365854	 0.480028
C	-0.4655660018	-0.8027980859	 1.2317929935	-0.328798
C	-0.6470758863	-2.2022378001	 0.6473801236	-0.037872
C	-1.6604253784	-2.4275738363	-0.4656928047	-0.062266
C	-1.9935376398	-1.1156709175	-1.1768360631	-0.245069
C	-0.4611822057	-0.7875507418	-1.2072511295	-0.126867
C	-0.1827902935	-2.2604500447	-0.7831800981	-0.081902
H	-0.1451974738	 2.061220026	 0.9220752462	 0.109427
H	-0.1436535645	 2.0611867352	-0.9145380256	 0.1077
H	 0.3526061764	-0.7735454703	 1.9573363638	 0.11821
H	-1.3671779603	-0.4289560602	 1.7293451134	 0.104329
H	-0.4642904039	-3.0633527524	 1.2800809958	 0.085409
H	-2.260687102	-3.3296872408	-0.4885591256	 0.080972
H	-2.3742609734	-1.2960369277	-2.1850675308	 0.104528
H	-2.6527803753	-0.3989163713	-0.6727201955	 0.089308
H	-0.0527882375	-0.4104594406	-2.143215494	 0.074046
H	 0.5424485576	-2.9495346846	-1.1931523285	 0.086925
106.8725	257.0481	313.9952	353.8667	391.34	453.756	546.068	691.4995	717.8412	757.5071	784.2517	801.5353	826.2186	878.6459	899.4602	939.9292	958.766	961.7655	970.054	985.9034	1013.7508	1039.578	1065.1543	1072.3457	1100.8275	1124.2994	1140.7046	1157.4445	1196.0231	1207.8109	1225.954	1237.8927	1263.2814	1282.1054	1298.2106	1324.2222	1392.7967	1435.9376	1480.2669	1499.3903	1534.8612	3030.1355	3043.4207	3072.9109	3091.4822	3097.408	3130.5068	3155.5701	3172.0137	3181.4281	3209.8965
C1OC11CC2C3CC1C23	C1O[C@]21C[C@H]1[C@H]3C[C@@H]2[C@@H]13	
InChI=1S/C8H10O/c1-4-5-2-8(3-9-8)6(1)7(4)5/h4-7H,1-3H2	InChI=1S/C8H10O/c1-4-5-2-8(3-9-8)6(1)7(4)5/h4-7H,1-3H2/t4-,5+,6-,7-,8+/m1/s1
