20
gdb 19153	3.89004	1.48426	1.25308	1.6662	74.32	-0.2618	0.0913	0.3531	1053.1394	0.176332	-348.976894	-348.968436	-348.967491	-349.009796	31.949	
C	-0.2231939015	 1.6534079628	-0.0191767106	-0.400249
C	-0.329269836	 0.1335189707	-0.1579203096	-0.241038
C	 0.6255045711	-0.508127491	-1.1549031318	 0.388901
C	 1.1606980291	 0.2321955103	-2.3088781687	-0.225113
O	 1.9687592825	-0.0018231689	-1.1469693428	-0.270396
C	 0.5221640342	-2.0082704908	-1.2255509213	-0.059574
C	 1.6775267034	-2.8431548597	-1.7065972639	-0.27752
C	 1.2995446566	-2.8557201656	-0.246307256	-0.262057
H	 0.8147898475	 1.9510656947	 0.1519573834	 0.137667
H	-0.5843791292	 2.1720119986	-0.912809924	 0.114109
H	-0.8238562207	 2.002476697	 0.8255335044	 0.112383
H	-0.1414414244	-0.3374449997	 0.8155704476	 0.110187
H	-1.3522802955	-0.1525299652	-0.4354647512	 0.099978
H	 1.4599321508	-0.3212163458	-3.1975347471	 0.110605
H	 0.889603562	 1.2718399846	-2.4779482591	 0.11239
H	-0.4745362947	-2.3610408799	-1.4784027683	 0.083457
H	 1.4608311187	-3.7188845465	-2.3079471207	 0.106611
H	 2.5888519953	-2.3179695548	-1.9684313995	 0.12772
H	 1.9654504079	-2.3394486643	 0.4366507387	 0.123223
H	 0.8238990632	-3.7391768667	 0.1644888205	 0.108717
82.4973	92.691	184.3052	213.569	248.6862	291.3951	360.265	402.0265	477.1307	556.9631	662.3581	773.439	793.0271	827.2426	841.1591	859.781	919.4132	942.9502	971.1366	1015.716	1063.1711	1079.273	1088.401	1094.206	1127.0955	1136.4319	1146.2771	1171.87	1192.6288	1203.8925	1229.6438	1303.7883	1373.3414	1381.0741	1407.6756	1423.9042	1458.6901	1481.9693	1497.6852	1499.5744	1511.9061	1530.675	3021.3515	3042.7462	3051.8435	3092.2436	3107.6714	3123.6627	3134.3071	3136.2898	3142.0047	3179.9976	3217.2413	3232.6234
CCC1(CO1)C1CC1	CC[C@]1(CO1)C1CC1	
InChI=1S/C7H12O/c1-2-7(5-8-7)6-3-4-6/h6H,2-5H2,1H3	InChI=1S/C7H12O/c1-2-7(5-8-7)6-3-4-6/h6H,2-5H2,1H3/t7-/m0/s1
