18
gdb 111256	3.14593	1.24909	0.99605	4.5383	72.75	-0.2385	-0.026	0.2125	1206.9477	0.146472	-439.052725	-439.043699	-439.042754	-439.086588	33.157	
C	-0.013169683	 1.5633709599	-0.0102388978	-0.514999
C	 0.1459024586	 0.0767229078	-0.0177787132	 0.206199
N	-0.8251372865	-0.8444182567	 0.6803038059	-0.361167
C	 0.607504378	-0.9248409772	 1.0094420669	-0.144033
C	 1.235968717	-1.8458911145	-0.0510846079	-0.125497
C	 0.7920161104	-3.2956896582	-0.2293315369	-0.085892
O	 1.3189386065	-3.8283873864	-1.432951952	-0.424956
C	 0.7202987241	-0.8226545435	-1.1000068423	 0.397457
O	 0.8274475056	-0.7495083887	-2.2924507172	-0.327113
H	 0.9006289959	 2.055143087	-0.3577467911	 0.140865
H	-0.8302801624	 1.8722374233	-0.6705800735	 0.147336
H	-0.2341504762	 1.9295497737	 0.9980660344	 0.1239
H	-1.2803868782	-0.2700926685	 1.3912798186	 0.235956
H	 0.976761425	-0.7254704463	 2.0073240902	 0.108185
H	 2.3313219099	-1.7888658926	-0.0385471202	 0.109653
H	 1.1798480063	-3.9219832782	 0.5815519541	 0.105656
H	-0.3045721392	-3.3482228847	-0.1988770115	 0.112168
H	 1.0762089681	-3.2265598061	-2.1470134164	 0.296281
88.0023	101.5653	149.2212	181.7857	201.5684	265.8708	306.9068	382.9195	406.6047	493.7921	519.1404	626.7263	663.3502	754.6073	765.4844	835.2765	919.1779	945.8732	955.4521	1016.3635	1040.2652	1056.3012	1068.625	1108.0966	1111.4475	1131.8886	1179.8792	1228.1661	1286.0058	1306.8229	1348.2467	1381.4851	1405.3029	1428.3727	1442.2142	1479.6472	1495.3159	1518.8776	1876.6805	3015.7471	3032.8467	3048.6275	3070.7361	3100.4818	3106.1341	3201.8202	3457.2761	3786.9706
CC12NC1C(CO)C2=O	C[C@]12N[C@H]1[C@@H](CO)C2=O	
InChI=1S/C6H9NO2/c1-6-4(7-6)3(2-8)5(6)9/h3-4,7-8H,2H2,1H3	InChI=1S/C6H9NO2/c1-6-4(7-6)3(2-8)5(6)9/h3-4,7-8H,2H2,1H3/t3-,4+,6+/m1/s1
