20
gdb 76349	2.22805	1.48149	1.01181	2.9361	76.66	-0.2234	-0.0342	0.1892	1222.3484	0.168114	-440.268729	-440.25892	-440.257975	-440.303417	35.696	
C	 0.3056631613	 1.6066382764	-0.0736639169	-0.393204
C	 0.1226594434	 0.1006696635	-0.0600102087	 0.051901
C	 0.8340296696	-0.7575600516	-1.145409212	 0.086351
O	 1.8533781499	-0.062028533	-1.8080257881	-0.429991
C	 1.2965973696	-1.6610246888	 0.040843981	-0.095054
C	 2.7667956653	-1.985039578	 0.1151723676	 0.1633
O	 3.4541683878	-2.1997177714	-0.8565230833	-0.272436
N	 0.8742243333	-0.6255354492	 0.9967169912	-0.100569
C	 0.1683066965	-1.02767668	 2.1936029114	-0.334645
H	 1.3619691968	 1.8580462799	-0.1803983797	 0.138605
H	-0.2458895868	 2.0554276935	-0.9061244476	 0.117852
H	-0.0709045026	 2.0445777578	 0.8567972063	 0.110358
H	-0.9489052971	-0.1592325044	-0.0342409845	 0.059177
H	 0.1589399104	-1.252564739	-1.8535068132	 0.073716
H	 2.5391819753	-0.7055114987	-2.0331866612	 0.301123
H	 0.7180543131	-2.6012466489	 0.0960388889	 0.085625
H	 3.1990130566	-1.9825119733	 1.1399421012	 0.093789
H	 0.8300485121	-1.6058061758	 2.8472936266	 0.121667
H	-0.1523555253	-0.1410257371	 2.7496835091	 0.128655
H	-0.7271196091	-1.6435261721	 1.9823799217	 0.093779
62.7732	100.74	180.5696	201.1231	213.3292	215.6467	234.8898	270.4284	350.1808	395.9543	411.764	464.3596	544.4326	644.4166	743.161	799.7744	822.1298	871.9175	943.5837	991.7006	1022.6871	1073.0134	1087.3395	1128.8163	1157.7653	1168.5992	1192.6327	1210.3572	1252.9393	1262.0952	1310.7189	1322.4245	1361.1009	1382.8678	1404.2413	1410.5916	1420.6159	1456.0067	1485.6296	1490.9579	1494.5299	1496.2663	1802.0898	2894.8247	2922.0232	2936.2427	2957.8229	3026.671	3040.5893	3059.5126	3101.0959	3103.8307	3144.0523	3749.5658
CC1C(O)C(C=O)N1C	C[C@H]1[C@@H](O)[C@@H](C=O)N1C	
InChI=1S/C6H11NO2/c1-4-6(9)5(3-8)7(4)2/h3-6,9H,1-2H3	InChI=1S/C6H11NO2/c1-4-6(9)5(3-8)7(4)2/h3-6,9H,1-2H3/t4-,5+,6+/m0/s1
