20
gdb 104703	2.48597	1.18002	0.94993	4.3228	75.86	-0.2439	0.0387	0.2826	1300.5288	0.169283	-440.309656	-440.299743	-440.298799	-440.344987	36.283	
C	 0.5927977083	-1.0295619403	-1.5219915816	-0.39472
C	 0.0575536349	-0.3182470934	-0.2748913876	-0.223799
C	-1.4588109712	-0.4272529165	-0.07563916	 0.346275
C	-2.2658266138	 0.1720546067	-1.2230163616	-0.118802
O	-1.9046002239	 1.5419778218	-1.3274546766	-0.429715
C	-1.9948565531	-1.8154265094	 0.4006667663	-0.464784
C	-2.4355199907	-1.0809727677	 1.692717419	 0.435549
O	-3.0202210617	-1.3788425287	 2.6994874232	-0.364685
N	-1.8961852565	 0.0946375567	 1.2354660805	-0.348337
H	 1.6859200268	-0.9928913299	-1.5428548871	 0.119658
H	 0.2973730058	-2.0845287443	-1.5444460222	 0.11685
H	 0.2331164061	-0.5595985014	-2.4423390979	 0.123966
H	 0.5366062553	-0.7268283741	 0.6220841244	 0.099986
H	 0.3209448344	 0.7438849005	-0.3180236383	 0.11756
H	-2.0559079515	-0.3739832882	-2.1550521234	 0.094845
H	-3.3369259585	 0.0576474862	-0.999409181	 0.09193
H	-2.4351774567	 1.9467414498	-2.0195376985	 0.29358
H	-2.8222559822	-2.2322266025	-0.1778044794	 0.125185
H	-1.2310720091	-2.5801037876	 0.5524735814	 0.12874
H	-1.9539696627	 1.0421745821	 1.5792097303	 0.250719
46.6768	67.7695	124.8659	201.2617	211.5143	251.1394	277.7501	339.9542	384.0241	394.5399	406.1625	461.043	557.8462	564.2745	669.8289	775.1423	791.5521	882.4116	934.8247	940.6268	989.9374	1024.3463	1040.4553	1074.8567	1084.5697	1112.6483	1172.3187	1192.8144	1221.5168	1222.2198	1275.1394	1294.7218	1314.8441	1371.8278	1378.801	1411.9301	1455.5943	1457.1709	1484.9418	1499.7613	1503.9262	1516.6089	1893.6515	2980.9113	3016.0389	3035.0143	3040.4795	3077.8188	3080.3189	3103.9347	3110.0324	3138.559	3611.0815	3834.8445
CCC1(CO)CC(=O)N1	CC[C@@]1(CO)CC(=O)N1	
InChI=1S/C6H11NO2/c1-2-6(4-8)3-5(9)7-6/h8H,2-4H2,1H3,(H,7,9)	InChI=1S/C6H11NO2/c1-2-6(4-8)3-5(9)7-6/h8H,2-4H2,1H3,(H,7,9)/t6-/m0/s1
