16
gdb 129584	3.71087	1.33691	1.07098	1.3261	71.06	-0.2613	-0.0233	0.2379	1097.0834	0.125954	-434.052073	-434.044373	-434.043428	-434.084666	28.955	
N	 0.0245380988	 1.4269137611	 0.1892304712	-0.564814
C	 0.0121615744	 0.0018825507	 0.0007283307	 0.17395
C	-0.5782480256	-0.8273367961	 1.1321565494	-0.27878
C	-1.3549474251	-0.6528680524	-0.1357385052	-0.278786
C	 1.1306397382	-0.5817381867	-0.7647328782	 0.418213
N	 2.1395661905	 0.0527752574	-1.2954287645	-0.348089
C	 2.8464062443	-0.9738412023	-1.8698394797	 0.034225
N	 2.3355708209	-2.1635701158	-1.7203149211	-0.116161
O	 1.1729793294	-1.9067552843	-0.9730027294	-0.212536
H	 0.8841262005	 1.7034687989	 0.6569167346	 0.241113
H	 0.0437133122	 1.8922146668	-0.7147786242	 0.24111
H	-0.1298256303	-1.7929733107	 1.3314459721	 0.137307
H	-0.8877025728	-0.2572824377	 1.9994753272	 0.134845
H	-2.191058634	 0.0354824692	-0.128130434	 0.134845
H	-1.4398171361	-1.4987102056	-0.8070064317	 0.137306
H	 3.7683260544	-0.8295040726	-2.4146434072	 0.146252
59.7722	162.5799	183.3981	242.7785	326.2181	350.2918	457.1818	459.0912	554.0296	652.0347	778.6689	791.018	856.0659	868.0846	899.29	908.2639	932.38	960.5826	979.6455	1011.0044	1046.1617	1071.0351	1093.9239	1167.4657	1198.0312	1202.6983	1275.4236	1285.0438	1320.1121	1360.5445	1451.0246	1486.1931	1523.3166	1604.2137	1673.4192	3150.2151	3152.524	3241.5724	3254.6305	3259.0783	3485.6059	3552.7773
NC1(CC1)C1=NC=NO1	NC1(CC1)c1ncno1	
InChI=1S/C5H7N3O/c6-5(1-2-5)4-7-3-8-9-4/h3H,1-2,6H2	InChI=1S/C5H7N3O/c6-5(1-2-5)4-7-3-8-9-4/h3H,1-2,6H2
