14
gdb 48350	4.48117	0.75252	0.67573	1.6984	87.83	-0.2478	-0.052	0.1957	1579.1393	0.098495	-399.473155	-399.464356	-399.463411	-399.507159	31.58	
O	-0.2201337239	 0.3688857373	 0.7986625829	-0.263353
C	 0.1089522131	 1.0696817532	-0.126519889	 0.089405
C	 1.3562464748	 1.9121793176	-0.0933386945	-0.08501
C	 1.5185053157	 2.7238756325	 1.1801787023	-0.244648
N	 2.3405147569	 1.5555471996	 0.9591516235	-0.320935
C	 1.8422717884	 2.3951590487	-1.3501818058	 0.303895
C	 2.1951446045	 2.7919714703	-2.438317173	-0.038948
C	 2.6034075249	 3.2437817584	-3.6537732918	 0.276683
C	 2.9632399452	 3.6443490329	-4.7346212577	-0.568155
H	-0.4827687761	 1.1361979811	-1.0598227139	 0.107632
H	 2.0267961797	 3.6794134749	 1.0975812223	 0.145777
H	 0.6984828141	 2.671395251	 1.8913207811	 0.143461
H	 1.9335718017	 0.7659613963	 1.46490516	 0.257418
H	 3.283060791	 3.9968867261	-5.6838692463	 0.196777
68.4302	88.5062	153.8449	217.0284	251.9057	270.5609	328.8517	437.3858	474.2223	498.1212	537.8683	557.3719	597.3094	613.9521	734.3571	806.3656	859.0576	938.2539	995.4192	1015.189	1063.2174	1133.1165	1167.6357	1245.3789	1321.9869	1359.3939	1423.5082	1493.1777	1804.5063	2183.7201	2358.0309	2953.0389	3115.3148	3216.3716	3448.5698	3503.1396
O=CC1(CN1)C#CC#C	O=C[C@]1(CN1)C#CC#C	
InChI=1S/C7H5NO/c1-2-3-4-7(6-9)5-8-7/h1,6,8H,5H2	InChI=1S/C7H5NO/c1-2-3-4-7(6-9)5-8-7/h1,6,8H,5H2/t7-/m1/s1
