18
gdb 128295	2.34301	1.45992	0.91419	0.8469	78.4	-0.1845	0.0193	0.2037	1275.6645	0.149102	-431.446114	-431.436579	-431.435635	-431.48076	33.673	
C	 0.0569897194	 1.4738616941	-0.0546411873	-0.314466
N	-0.090243794	 0.0248005719	-0.0637917121	-0.393836
C	 0.5655869221	-0.676377786	-1.0647936611	 0.337604
N	 1.1097481321	-0.1205393368	-2.1441173232	-0.329472
N	 1.5455340717	-1.169457935	-2.8563054243	 0.133272
C	 2.3806491947	-1.0017925717	-4.0196277294	-0.305505
N	 1.3460668466	-2.3645872004	-2.2916426375	-0.303522
C	 0.7138747058	-2.0810774372	-1.1586176284	 0.233148
N	 0.3225974318	-3.0307424323	-0.2071053976	-0.609374
H	 1.1033600438	 1.8062446057	 0.0134236745	 0.117198
H	-0.3588315381	 1.8841486735	-0.9783332776	 0.145194
H	-0.5037862104	 1.8805157537	 0.7902936067	 0.115792
H	 0.063069595	-0.400102564	 0.8419211584	 0.240147
H	 3.4322514981	-0.852923571	-3.7451480078	 0.134899
H	 2.2949322514	-1.8977058724	-4.635534528	 0.149845
H	 2.0315749139	-0.1304113947	-4.5755836248	 0.149068
H	 0.5421372508	-3.9679678819	-0.5234830733	 0.251928
H	-0.6698131745	-2.9754003055	-0.0017342072	 0.248079
82.4139	101.9179	127.6993	157.8245	179.2897	229.0879	265.5165	298.3087	352.972	376.8109	570.716	596.5458	625.4436	656.7131	706.4042	748.4053	838.4234	877.2977	1002.1988	1069.3789	1080.7792	1140.0814	1150.3154	1155.058	1181.9076	1276.515	1354.2543	1391.5787	1436.5501	1444.3587	1456.6571	1479.7688	1485.6346	1490.7169	1509.1607	1517.2798	1589.0266	1612.771	1648.2611	2995.9139	3027.2725	3086.6598	3114.1777	3128.4516	3161.3786	3505.6561	3561.2662	3603.5533
CNC1=NN(C)N=C1N	CNc1nn(C)nc1N	
InChI=1S/C4H9N5/c1-6-4-3(5)7-9(2)8-4/h1-2H3,(H2,5,7)(H,6,8)	InChI=1S/C4H9N5/c1-6-4-3(5)7-9(2)8-4/h1-2H3,(H2,5,7)(H,6,8)
