13
gdb 133564	3.34645	1.20606	1.06423	3.3191	52.08	-0.2695	-0.0104	0.2591	1088.5512	0.086567	-584.258742	-584.25101	-584.250065	-584.292492	26.817	
F	-0.3063928934	 0.1262073415	-0.2514069401	-0.043346
C	-0.0527168393	 1.3969592688	 0.0284909888	 0.266131
F	 1.2729968927	 1.5603661231	 0.1129326531	-0.069532
F	-0.4940629973	 2.1544557591	-0.9828890433	-0.069584
C	-0.715407587	 1.816747694	 1.3248281986	 0.247332
N	-1.4214439144	 1.066972166	 2.0565487788	-0.298781
C	-1.8416387727	 1.9098670212	 3.1917555116	-0.191076
C	-1.2027714372	 3.2974300584	 2.9142525941	-0.116302
O	-0.4914845107	 3.1043644476	 1.6626129492	-0.254648
H	-2.934253019	 1.9475378746	 3.2334738792	 0.132242
H	-1.4925883829	 1.4625154756	 4.1271776335	 0.132242
H	-1.9319576184	 4.0973714337	 2.7663496174	 0.132659
H	-0.4764709904	 3.6077690163	 3.6690153393	 0.132663
40.2279	93.084	146.0527	186.9816	339.7127	365.6363	403.2071	529.2672	578.8373	737.2242	748.3902	755.0207	827.7928	912.8534	974.6281	983.1767	1009.5814	1116.7979	1146.6219	1193.1802	1214.9359	1244.8562	1247.6391	1298.3184	1363.6942	1421.716	1499.4452	1525.3391	1760.8482	3055.5744	3069.1453	3087.6462	3121.0629
FC(F)(F)C1=NCCO1	FC(F)(F)C1=NCCO1	
InChI=1S/C4H4F3NO/c5-4(6,7)3-8-1-2-9-3/h1-2H2	InChI=1S/C4H4F3NO/c5-4(6,7)3-8-1-2-9-3/h1-2H2
