17
gdb 32111	3.55527	1.17594	0.88979	2.453	81.72	-0.1953	-0.0007	0.1946	1272.8996	0.13816	-418.085102	-418.076902	-418.075958	-418.117905	31.14	
C	 0.0900383906	 1.391682331	-0.0648907076	-0.321802
N	-0.0600177134	-0.035801451	 0.0892854047	-0.346445
C	-1.2660989729	-0.6843040653	 0.0431770761	 0.422364
C	-2.4955328384	-0.0070999872	 0.0931380803	-0.239153
C	-3.6568882652	-0.7714248502	 0.0714847911	-0.046688
C	-3.5959758182	-2.155940896	-0.0015790814	-0.242876
C	-2.3189210395	-2.7198850414	-0.0540297141	 0.440628
O	-2.2051241442	-4.0647756589	-0.1324580946	-0.422741
N	-1.1899504091	-2.0261975377	-0.0358022075	-0.450263
H	 1.1536807031	 1.6372913738	-0.0466808196	 0.129194
H	-0.3349931154	 1.768879908	-1.0070369045	 0.122426
H	-0.3882039088	 1.9321336124	 0.7608151708	 0.133733
H	 0.7285129711	-0.625551269	-0.1201945707	 0.243247
H	-2.5384464261	 1.0719262167	 0.1500838799	 0.08704
H	-4.6224042029	-0.2765686632	 0.1105293458	 0.100298
H	-4.4751669768	-2.785137416	-0.0228053364	 0.099614
H	-1.2556260139	-4.246301986	-0.1550633923	 0.291423
82.209	157.3965	210.3359	216.9555	250.4458	361.7122	417.6307	460.4295	504.3382	533.2096	552.4424	615.959	699.2179	753.6274	759.2329	803.6165	837.7002	969.5244	983.177	992.6674	1093.361	1103.8897	1158.8949	1168.9888	1193.0161	1239.5098	1314.1468	1341.2463	1382.8982	1441.3441	1468.4321	1483.5151	1507.819	1524.5515	1566.5273	1630.3875	1657.4369	2991.1751	3051.0602	3125.0257	3178.0786	3218.6792	3225.6917	3646.173	3771.5313
CNC1=CC=CC(O)=N1	CNc1cccc(O)n1	
InChI=1S/C6H8N2O/c1-7-5-3-2-4-6(9)8-5/h2-4H,1H3,(H2,7,8,9)	InChI=1S/C6H8N2O/c1-7-5-3-2-4-6(9)8-5/h2-4H,1H3,(H2,7,8,9)
