15
gdb 64860	3.57456	0.97795	0.87604	3.6692	70.98	-0.313	-0.0104	0.3026	1281.1808	0.112165	-416.818346	-416.809875	-416.808931	-416.851789	30.989	
O	-0.0706322942	 1.4594432478	-0.0318843166	-0.463653
C	-0.0051425902	 0.0493397411	 0.0055132156	 0.255587
C	 0.2073523706	-0.5131817048	 1.4473657123	-0.277482
C	-1.3452541958	-0.5557782081	 1.6045689145	-0.14983
C	-1.4601152766	-0.4904061746	 0.0489383832	-0.252494
C	-1.9266026375	-1.6984342114	 2.2848346155	 0.270482
N	-2.380526033	-2.6191538872	 2.8165440565	-0.3172
C	 0.8845651166	-0.4711288503	-1.0384126276	 0.234487
N	 1.607721193	-0.8730825534	-1.845423043	-0.323306
H	 0.8197497365	 1.8141649009	 0.0776313261	 0.297928
H	 0.6425757949	-1.5136307795	 1.4396658942	 0.150478
H	 0.7622033137	 0.1315318402	 2.1304246356	 0.130843
H	-1.7160303289	 0.3654437887	 2.0582652601	 0.145136
H	-2.2068275833	 0.1817751215	-0.3726110731	 0.147602
H	-1.5440958558	-1.481964491	-0.3961516434	 0.151423
60.3008	153.2006	179.701	191.1018	230.2505	347.2485	382.5789	392.3854	475.2257	520.1682	561.1764	597.4974	603.0157	709.4004	830.9867	898.9173	932.5335	978.4809	1011.2292	1033.4569	1077.554	1135.3584	1139.493	1241.5823	1248.4841	1259.7877	1277.3445	1350.9152	1367.0919	1458.2555	1479.8437	2353.8561	2358.746	3084.5769	3096.5719	3100.1668	3151.9608	3167.8881	3796.4616
OC1(CC(C1)C#N)C#N	O[C@]1(C[C@@H](C1)C#N)C#N	
InChI=1S/C6H6N2O/c7-3-5-1-6(9,2-5)4-8/h5,9H,1-2H2	InChI=1S/C6H6N2O/c7-3-5-1-6(9,2-5)4-8/h5,9H,1-2H2/t5-,6-
