17
gdb 13591	4.17172	1.3264	1.1253	4.1079	66.25	-0.2573	0.0006	0.2579	1076.244	0.140697	-400.998531	-400.989928	-400.988983	-401.031991	30.605	
C	 0.4075517953	 1.3600224273	 0.3170640494	-0.4039
C	 0.0809726697	-0.0646356891	-0.0617479202	 0.016146
C	 0.8274404862	-0.7657219693	-1.1675790952	-0.262466
N	 1.0113134986	-1.1350487232	 0.220929839	-0.080667
C	 2.149148595	-1.084106118	 0.9872272962	 0.357309
O	 2.1932296193	-0.5694983941	 2.0905806801	-0.371353
C	 3.3703036137	-1.8183124939	 0.4356527337	-0.128996
O	 4.4096087144	-1.7943533489	 1.3683764024	-0.420421
H	 1.4395508142	 1.6154273282	 0.0600499079	 0.125408
H	-0.260043563	 2.0482267936	-0.2106549188	 0.124617
H	 0.2861187183	 1.511090137	 1.3926718247	 0.153637
H	-0.959614848	-0.351716549	 0.0815140292	 0.108839
H	 0.3252472234	-1.4970467919	-1.795293006	 0.131398
H	 1.6267626839	-0.2118500241	-1.6558645501	 0.131272
H	 3.0750621764	-2.8484475854	 0.1835085891	 0.119636
H	 3.6751709634	-1.3392639774	-0.5093811999	 0.105551
H	 4.0469299093	-1.3052997317	 2.1258310284	 0.29399
80.8784	87.651	136.6645	172.9961	214.8731	322.7954	367.6891	394.1082	444.4295	474.0297	573.8763	613.7848	786.2492	844.4868	901.6739	909.741	1030.3204	1043.6624	1063.4042	1108.9943	1126.5576	1142.1246	1161.4272	1193.1378	1199.1227	1244.8707	1309.3911	1387.2108	1413.7619	1435.5106	1474.9328	1484.8403	1491.4184	1503.1721	1517.3439	1761.9553	2973.8239	3002.0454	3044.6699	3100.5513	3109.2209	3122.5422	3130.5244	3189.9854	3666.2726
CC1CN1C(=O)CO	C[C@H]1CN1C(=O)CO	
InChI=1S/C5H9NO2/c1-4-2-6(4)5(8)3-7/h4,7H,2-3H2,1H3	InChI=1S/C5H9NO2/c1-4-2-6(4)5(8)3-7/h4,7H,2-3H2,1H3/t4-,6?/m0/s1
