14
gdb 29212	3.22581	1.38818	0.97081	6.3352	69.59	-0.2087	-0.0309	0.1778	1111.658	0.101126	-473.881615	-473.873624	-473.87268	-473.913813	30.564	
N	 0.060173004	 1.3733797193	 0.1164112589	-0.584779
C	-0.0084563115	 0.015444752	 0.043145276	 0.3481
C	-1.1735233122	-0.705125901	 0.0187366571	-0.39249
C	-1.2043261143	-2.1385497504	-0.0146083076	 0.431514
O	-2.1661673667	-2.8622977148	-0.0348093068	-0.366121
O	 0.0664182871	-2.7678117373	-0.0270548355	-0.229609
C	 1.2063791098	-2.0550810893	-0.011910566	-0.027098
C	 1.2414130693	-0.7106503725	 0.0225238967	 0.203616
O	 2.3773305986	 0.0575301329	 0.0324658501	-0.45717
H	 0.9464392551	 1.8105183595	-0.0720078224	 0.276268
H	-0.7673352824	 1.9150350526	-0.0652960766	 0.265783
H	-2.1379470335	-0.2126185041	 0.0292976894	 0.104696
H	 2.09285493	-2.681012203	-0.0329054034	 0.122148
H	 3.1546420768	-0.5084340339	-0.01019821	 0.305143
115.0152	187.6482	234.7127	306.3801	328.9018	374.4866	378.8307	397.8814	432.4151	484.7914	545.0127	597.7118	719.0742	725.1061	737.1055	774.6801	832.1828	838.8983	845.9209	1082.7204	1144.0618	1175.5524	1250.2846	1294.5618	1315.3332	1375.8651	1531.6152	1606.1817	1641.3934	1718.136	1835.5534	3181.2683	3206.8291	3610.7392	3731.5439	3830.69
NC1=CC(=O)OC=C1O	Nc1cc(=O)occ1O	
InChI=1S/C5H5NO3/c6-3-1-5(8)9-2-4(3)7/h1-2,7H,6H2	InChI=1S/C5H5NO3/c6-3-1-5(8)9-2-4(3)7/h1-2,7H,6H2
