19
gdb 119945	2.68512	1.10151	1.0144	3.9865	78.63	-0.2277	0.0529	0.2807	1270.7926	0.157243	-422.970327	-422.96062	-422.959676	-423.004913	36.106	
O	-0.2049431546	 0.2468030271	 1.2834717553	-0.410905
C	-0.0635245985	-0.0037590823	-0.1179959503	-0.078902
C	-1.3228234346	-0.707618364	-0.6149018623	-0.232396
C	-1.4770563529	-2.1143102451	-0.0724525776	-0.071985
C	-2.0014631656	-2.3517299613	 1.3178902741	 0.107417
O	-2.3975420992	-1.2839564503	 2.1028221023	-0.423615
C	-2.8694768903	-2.7320299426	 0.1226274088	-0.282431
C	-4.0542911692	-1.9914395537	-0.1883787023	 0.367605
C	-5.0603708986	-1.3951591607	-0.4711074944	-0.472306
H	 0.6387431745	 0.5331884098	 1.6433053038	 0.295986
H	 0.0697580842	 0.944518976	-0.6582115413	 0.097622
H	 0.8231329759	-0.6267823115	-0.3078687148	 0.093386
H	-2.1931254284	-0.1023561046	-0.3469036582	 0.1387
H	-1.2877457363	-0.7387681594	-1.7104745208	 0.105704
H	-0.7211804013	-2.8147869389	-0.4205334854	 0.085032
H	-1.580474763	-3.1953428435	 1.8671721468	 0.082785
H	-1.6649911391	-0.6471275285	 2.0948036654	 0.298808
H	-2.9390926023	-3.7967804028	-0.0826574306	 0.109565
H	-5.9520876707	-0.8663877538	-0.6985557886	 0.189929
63.6035	108.6184	137.3111	194.9417	197.9355	238.7693	255.7913	330.6464	363.0364	456.9441	557.9045	576.3694	587.6602	617.6824	644.3782	651.2567	767.58	787.4915	847.3111	890.0195	953.5626	992.8141	1034.2422	1046.4098	1087.5504	1122.5638	1133.5893	1161.5832	1213.3063	1252.6824	1268.3934	1307.2913	1341.26	1368.2339	1392.9441	1421.7056	1438.3149	1452.5282	1472.987	1518.6303	2235.0683	2986.418	3021.0632	3045.5169	3081.6099	3102.4246	3128.8534	3142.9262	3506.949	3671.2453	3843.9903
OCCC1C(O)C1C#C	OCC[C@H]1[C@@H](O)[C@H]1C#C	
InChI=1S/C7H10O2/c1-2-5-6(3-4-8)7(5)9/h1,5-9H,3-4H2	InChI=1S/C7H10O2/c1-2-5-6(3-4-8)7(5)9/h1,5-9H,3-4H2/t5-,6+,7-/m0/s1
