17
gdb 52114	5.5734	0.752	0.71935	1.108	69.58	-0.2439	-0.0352	0.2086	1528.7894	0.132766	-458.899675	-458.890899	-458.889954	-458.934752	30.963	
O	-0.377937957	 0.3686955369	 0.6598399284	-0.234591
C	 0.0079233383	 1.130002222	-0.1858295398	 0.137846
C	 1.2843757326	 1.9430252067	-0.0612364361	-0.175479
O	 1.5099195292	 2.5918666618	-1.2999644711	-0.285879
C	 2.545779671	 3.4967210393	-1.2863547097	 0.363192
C	 2.4682530249	 4.8546812107	-0.6170031561	-0.353481
C	 2.7427242055	 4.7450274128	-2.0963023271	 0.013987
O	 4.1238764874	 4.4596911972	-2.3298120168	-0.281175
C	 3.9982873542	 3.1797526134	-1.6493643471	-0.141694
H	-0.54650661	 1.3111895531	-1.1327470263	 0.10053
H	 1.1624608177	 2.6719457731	 0.7550657783	 0.133313
H	 2.1125424212	 1.2741303695	 0.2147435036	 0.13253
H	 1.45450449	 5.1601614208	-0.37424991	 0.122688
H	 3.2445696789	 5.2102404079	 0.0551386696	 0.120334
H	 2.1719256674	 5.2237695539	-2.8823303446	 0.120712
H	 4.7284604636	 3.0614592194	-0.8410229348	 0.108829
H	 4.0813277251	 2.3526723413	-2.3632852602	 0.118337
43.3091	62.5294	92.0596	124.1393	271.751	307.7293	360.4723	383.0766	453.0359	547.514	696.2736	738.5525	745.2752	877.8788	908.8678	934.1052	984.6285	993.2425	1009.5346	1051.0547	1054.7186	1075.5774	1100.1351	1110.0639	1117.0529	1158.4792	1219.9249	1235.3035	1287.0051	1300.9778	1348.5816	1400.2525	1413.6846	1471.7048	1486.1698	1513.1381	1846.4217	2902.1875	2989.7481	3027.6569	3030.4506	3084.5948	3113.0469	3195.3491	3210.4667
O=CCOC12CC1OC2	O=CCO[C@]12C[C@H]1OC2	
InChI=1S/C6H8O3/c7-1-2-9-6-3-5(6)8-4-6/h1,5H,2-4H2	InChI=1S/C6H8O3/c7-1-2-9-6-3-5(6)8-4-6/h1,5H,2-4H2/t5-,6+/m1/s1
