16
gdb 66753	2.79712	2.07238	1.50728	3.2581	70.95	-0.2328	-0.0231	0.2097	884.4465	0.124606	-400.672662	-400.665765	-400.664821	-400.703799	27.314	
C	-0.0240979287	 1.5228084063	 0.0473035402	-0.516068
C	-0.0073273425	 0.0207562097	 0.044532164	 0.174235
C	 0.8028342221	-0.7739746942	-0.9965487784	-0.08901
C	 1.691928911	-1.4280121329	-0.0132031054	-0.056913
C	 0.7385555058	-0.9267424247	 1.1053080362	-0.124413
C	-0.2977701805	-2.0055323298	 0.6319845741	-0.147635
N	 0.5693053275	-2.2238532762	-0.5915166622	-0.148241
C	-1.2536495727	-0.8545476755	 0.2843605827	 0.427333
O	-2.4241967043	-0.6423058035	 0.4014955677	-0.318718
H	 0.9904079554	 1.9340258429	 0.0745193153	 0.125488
H	-0.515430768	 1.9031026156	-0.8549466362	 0.136036
H	-0.576415462	 1.9064195265	 0.9105378941	 0.134483
H	 0.9337122362	-0.5701179855	-2.0519999592	 0.106409
H	 2.7270261338	-1.7433826044	-0.0517184307	 0.107225
H	 0.9350430844	-0.6302838061	 2.1312772099	 0.092789
H	-0.5863726375	-2.9145745082	 1.1523377378	 0.097001
132.1264	192.7271	206.5618	277.7979	381.3609	545.225	590.7991	663.9538	721.5934	732.412	773.246	797.8695	810.2897	863.2722	880.095	901.6634	936.5928	961.7782	992.5389	1013.7271	1031.1647	1089.197	1127.0082	1147.0979	1158.5537	1199.9192	1203.7061	1215.9144	1246.4022	1307.7876	1361.887	1415.13	1487.3645	1490.1166	1887.8518	3032.6892	3097.7294	3107.3341	3159.2032	3166.4896	3186.9071	3200.516
CC12C3C4C1C(N34)C2=O	C[C@@]12[C@H]3[C@H]4[C@@H]1[C@H](N34)C2=O	
InChI=1S/C7H7NO/c1-7-2-3-5(7)8(3)4(2)6(7)9/h2-5H,1H3	InChI=1S/C7H7NO/c1-7-2-3-5(7)8(3)4(2)6(7)9/h2-5H,1H3/t2-,3-,4+,5-,7+,8?/m1/s1
