16
gdb 128245	2.72155	1.49804	0.97324	2.1133	80.45	-0.2008	-0.0483	0.1525	1160.632	0.12519	-434.037598	-434.029397	-434.028453	-434.070573	30.385	
C	 0.0683589999	 1.3756942309	 0.1602080713	-0.329797
N	-0.0206127331	-0.0436680574	-0.0722351171	-0.365069
C	 0.5773675894	-0.662031033	-1.1281763921	 0.259678
C	 1.1425391991	-0.0466695465	-2.1985184952	-0.024277
O	 1.6974323488	-0.7042240833	-3.2567634705	-0.230383
N	 1.730527595	-2.0687715803	-3.2919573963	-0.068785
C	 1.2217997969	-2.6977681329	-2.2833196101	-0.029453
C	 0.6061185602	-2.1202156223	-1.100484601	 0.220422
N	 0.1193379359	-2.7472605223	-0.085077016	-0.563506
H	 1.1085115294	 1.7287314631	 0.2399185344	 0.121665
H	-0.4151961249	 1.9374889816	-0.6497344974	 0.131072
H	-0.4502049351	 1.6197485472	 1.088918601	 0.136883
H	-0.2193890992	-0.6722240978	 0.6928808635	 0.265051
H	 1.2100448158	 1.0219329915	-2.3455357398	 0.131823
H	 1.2834343534	-3.7802728573	-2.3704661225	 0.129199
H	 0.2130095085	-3.7580472211	-0.1929051121	 0.215476
87.5735	127.0153	171.7806	191.5508	302.5317	342.6042	407.1964	450.3453	515.7031	534.6868	545.4187	622.6084	760.5735	782.5102	805.8873	847.7103	897.309	919.2997	934.5491	1075.0275	1112.0957	1158.208	1171.7986	1210.9753	1279.26	1319.0339	1366.6118	1441.0053	1465.2827	1481.2115	1519.317	1554.8672	1590.7244	1669.3894	1676.5241	2981.0212	3037.3165	3130.13	3163.7076	3237.2355	3463.9137	3600.599
CNC1=CON=CC1=N	CNC1=C(C=NO[CH]1)[NH]	
InChI=1S/C5H7N3O/c1-7-5-3-9-8-2-4(5)6/h2-3,6-7H,1H3	InChI=1S/C5H7N3O/c1-7-5-3-9-8-2-4(5)6/h2-3,6-7H,1H3
