18
gdb 65154	3.50585	1.15067	1.01618	2.9077	73.25	-0.2607	0.0264	0.2871	1199.8838	0.146715	-439.0667	-439.058181	-439.057237	-439.100174	32.491	
O	 0.2813896151	 1.3904921232	 0.0446357216	-0.46193
C	 0.0594041684	 0.0106048245	-0.0892298833	 0.382905
C	 0.8824347895	-0.6724490946	-1.1354041611	-0.301656
C	 1.1415145381	-0.9444564981	 0.3357625695	-0.330253
C	-1.3950093413	-0.3397902485	 0.1093433896	 0.052939
C	-2.3844479377	 0.0295501143	-1.0173278024	-0.366011
C	-2.5852894246	-1.4667796896	-1.1148010576	 0.440604
N	-3.2955744176	-2.2285799529	-1.8101575999	-0.538725
O	-1.6783841847	-1.7610581549	-0.1074108321	-0.266034
H	 0.2678489694	 1.6065656266	 0.9840926319	 0.285531
H	 0.4257453939	-1.4611164503	-1.7214247005	 0.131368
H	 1.593675894	-0.0490202273	-1.6638206331	 0.126507
H	 2.0321330257	-0.5102743537	 0.776393977	 0.116266
H	 0.8467792935	-1.9105549398	 0.7292788415	 0.131304
H	-1.7240035749	-0.0494258214	 1.114287927	 0.08508
H	-3.2707496633	 0.5924274166	-0.7224292869	 0.136601
H	-1.930179837	 0.4899704058	-1.8957302412	 0.147275
H	-3.1464268565	-3.2077040098	-1.56009828	 0.22823
69.0071	78.1463	183.9936	247.4149	292.6226	333.7662	371.1057	422.3311	482.9471	505.2936	525.0096	677.5816	758.176	777.4058	866.1381	871.3431	899.328	937.119	951.0255	967.5652	986.9941	1015.1321	1036.8571	1050.596	1056.3623	1086.0836	1132.3004	1192.9854	1217.5217	1233.5423	1265.6377	1280.0091	1316.5834	1381.4464	1400.5947	1443.3208	1462.6163	1497.7669	1828.5985	3035.5812	3093.3258	3137.1707	3147.2365	3148.9731	3227.0497	3242.4328	3477.0965	3789.0965
OC1(CC1)C1CC(=N)O1	OC1(CC1)[C@H]1C[C]([NH])O1	
InChI=1S/C6H9NO2/c7-5-3-4(9-5)6(8)1-2-6/h4,7-8H,1-3H2	InChI=1S/C6H9NO2/c7-5-3-4(9-5)6(8)1-2-6/h4,7-8H,1-3H2/t4-/m1/s1
