20
gdb 47039	2.71786	1.52386	1.2767	3.8311	77.92	-0.2348	0.0357	0.2705	1066.3235	0.174234	-403.190184	-403.182359	-403.181415	-403.222954	30.697	
O	-0.3012425582	 0.0743277465	 0.5300299075	-0.376723
C	-0.1572934222	 1.1949744581	 0.078870267	 0.382417
C	-1.2128267619	 1.9176198221	-0.7520811186	-0.336573
C	-1.3298195022	 3.4067235923	-0.41257562	-0.005314
C	-1.6941177336	 3.754451411	 1.062286388	-0.22622
C	-0.3573924848	 4.5324621564	 1.2148355658	-0.222116
C	 0.043718222	 4.1399284512	-0.2373671517	 0.004163
C	 1.2442267734	 3.20458498	-0.373846185	-0.193048
N	 0.9814539147	 1.9294809681	 0.2802149938	-0.29279
H	-0.9386048675	 1.8010848947	-1.8101330967	 0.117491
H	-2.1595919864	 1.3917093464	-0.6063736976	 0.126395
H	-1.9863054657	 3.8945518071	-1.1376311478	 0.071875
H	-2.5991149565	 4.3544756366	 1.1809174604	 0.09846
H	-1.7795535396	 2.8796512829	 1.7126025016	 0.116701
H	-0.4724769308	 5.6082153866	 1.3657382827	 0.100105
H	 0.3111309679	 4.1463881836	 1.9886889891	 0.101243
H	 0.1854430313	 4.9927505318	-0.9065486677	 0.069594
H	 1.4829260549	 3.0601880692	-1.4392337626	 0.105517
H	 2.129232504	 3.6503965015	 0.0918338173	 0.113198
H	 1.7293942211	 1.4429919341	 0.7509259145	 0.245628
58.7571	95.6555	206.4586	303.0438	337.4349	418.9268	489.8885	492.794	542.3947	628.5505	700.1065	735.6737	744.0416	793.3349	834.0854	862.1374	886.4875	959.6579	983.6477	991.2756	1040.2501	1072.9932	1088.664	1102.9769	1148.6338	1179.026	1217.4264	1234.4836	1257.6242	1271.7095	1284.8681	1298.9071	1306.7055	1327.3063	1337.7214	1379.942	1400.0819	1460.8537	1463.1949	1474.5701	1494.5477	1510.7909	1797.5797	2977.2063	3017.1346	3057.0532	3059.299	3062.4403	3067.8478	3074.8534	3101.579	3104.3994	3120.8942	3621.9546
O=C1CC2CCC2CN1	O=C1C[C@H]2CC[C@H]2CN1	
InChI=1S/C7H11NO/c9-7-3-5-1-2-6(5)4-8-7/h5-6H,1-4H2,(H,8,9)	InChI=1S/C7H11NO/c9-7-3-5-1-2-6(5)4-8-7/h5-6H,1-4H2,(H,8,9)/t5-,6+/m1/s1
