18
gdb 89837	3.25332	1.2984	1.03256	2.725	73.82	-0.2567	0.0187	0.2754	1165.316	0.148006	-439.090634	-439.082565	-439.081621	-439.123245	31.587	
O	 0.3518025032	 1.0551284537	 0.5891158931	-0.442305
C	 0.0055486303	-0.1832739479	 0.0355090047	 0.069883
C	-1.4874545208	-0.3550826517	-0.2748787367	-0.327447
C	-1.4348296914	-1.3726926024	-1.3996682132	 0.431043
C	-1.8805095379	-2.8006162714	-1.2844892376	-0.322245
C	-2.5842153488	-1.8343568023	-2.2253606242	-0.333081
O	-0.2036203323	-1.1459429793	-2.1070388201	-0.260755
C	 0.6237153961	-0.3999015594	-1.335036562	 0.379002
N	 1.7322455416	 0.1015123487	-1.6697112516	-0.570457
H	 1.1797629857	 1.3099080762	 0.1550711993	 0.297343
H	 0.3383611377	-1.0113303795	 0.6853317176	 0.096746
H	-2.0799718202	-0.6938466813	 0.5760686221	 0.117861
H	-1.8856200612	 0.6031073218	-0.6262817735	 0.124813
H	-1.2441343296	-3.5536722677	-1.7350458716	 0.13044
H	-2.3894674879	-3.1113724674	-0.3783478245	 0.121737
H	-3.5747442511	-1.476877763	-1.9651796703	 0.1247
H	-2.4090469423	-1.959577332	-3.287816555	 0.132971
H	 1.9816787687	-0.111944485	-2.6350439667	 0.229751
90.5196	112.474	244.8688	275.7843	307.8605	388.6885	393.2663	444.9698	494.3454	505.0467	605.5417	685.7081	763.3974	793.514	817.0055	874.012	885.0716	921.4465	943.6386	979.1788	1010.3803	1053.2748	1071.7489	1080.3498	1096.7782	1152.6985	1161.8589	1188.4229	1230.6579	1262.2094	1273.5874	1332.7232	1382.4101	1394.8562	1434.8885	1452.8498	1493.4305	1502.3737	1784.7354	2953.1415	3054.9926	3125.9607	3135.2255	3137.9535	3220.2813	3233.7069	3496.7574	3722.5118
OC1CC2(CC2)OC1=N	O[C@H]1CC2(CC2)O[C]1[NH]	
InChI=1S/C6H9NO2/c7-5-4(8)3-6(9-5)1-2-6/h4,7-8H,1-3H2	InChI=1S/C6H9NO2/c7-5-4(8)3-6(9-5)1-2-6/h4,7-8H,1-3H2/t4-/m0/s1
