18
gdb 125886	3.62619	1.23509	1.08805	3.2778	76.53	-0.2577	0.0081	0.2658	1151.034	0.149954	-398.140922	-398.132963	-398.132019	-398.174161	29.461	
C	-0.1835172826	 1.5387986569	-0.0356867538	-0.407863
C	-0.0153546901	 0.0383594913	 0.0336307199	 0.009643
C	 1.3199007085	-0.6044669354	-0.2566342593	-0.324498
C	 0.7661691604	-0.6190997213	 1.1454419804	 0.027719
N	 1.3937922767	 0.1829541304	 2.1520647185	 0.046271
C	 2.7058776178	 0.4048145573	 2.3881820683	 0.014745
N	 2.8676610927	 1.1482520509	 3.4665116494	-0.279517
C	 1.5843117824	 1.352612584	 3.8730333195	 0.037733
N	 0.6548125125	 0.7906818272	 3.1186489382	-0.248883
H	 0.7280949697	 2.0592861316	 0.2700926912	 0.12661
H	-0.4202473666	 1.8501541602	-1.0582416227	 0.120126
H	-0.9908778109	 1.8730043464	 0.6223590086	 0.139282
H	-0.8883897668	-0.5288936124	-0.2766917426	 0.097664
H	 1.3619981792	-1.546807654	-0.7902925039	 0.125674
H	 2.1502406132	 0.0632658676	-0.4596522657	 0.126377
H	 0.3872100809	-1.5592056419	 1.533127545	 0.118518
H	 3.4865734073	 0.0097489348	 1.756772925	 0.143967
H	 1.3280597357	 1.9333884863	 4.7467832542	 0.126432
54.583	101.4619	159.6705	206.3792	259.6038	353.2237	423.5666	532.7455	644.5182	689.462	709.9078	790.6089	843.0229	862.9177	893.5439	909.4447	938.1467	971.9152	1029.2811	1035.2953	1079.6793	1093.4751	1120.6532	1150.4592	1171.4362	1195.0296	1210.7857	1242.2566	1266.7088	1316.132	1372.4891	1393.8957	1420.7201	1424.059	1467.521	1486.0967	1491.5303	1499.1112	1550.3203	3041.2211	3107.2941	3116.2109	3139.9962	3147.6702	3158.754	3226.6497	3256.7313	3266.0294
CC1CC1N1C=NC=N1	C[C@H]1C[C@H]1n1cncn1	
InChI=1S/C6H9N3/c1-5-2-6(5)9-4-7-3-8-9/h3-6H,2H2,1H3	InChI=1S/C6H9N3/c1-5-2-6(5)9-4-7-3-8-9/h3-6H,2H2,1H3/t5-,6+/m0/s1
