21
gdb 59098	2.15781	1.4422	1.12445	2.5846	78.59	-0.2447	-0.0249	0.2198	1207.8812	0.180402	-424.241571	-424.231777	-424.230833	-424.276332	36.668	
C	-0.2415134792	 1.57053821	 0.0229263228	-0.41427
C	-0.0039014211	 0.0671828234	-0.1458398402	 0.107401
O	 0.6864260325	-0.207308348	-1.3622511935	-0.435884
C	 0.7349516501	-0.5252853109	 1.0641845385	-0.115301
C	 0.8906999833	-2.0770554704	 1.3112396154	-0.033489
C	 0.5897324694	-2.9881622225	 0.1248194628	-0.39528
C	 2.4170693325	-1.8678258426	 1.5937808061	-0.347755
C	 2.2663021768	-0.4595705842	 1.0158985775	 0.402216
O	 3.0278838587	 0.3247455426	 0.5157103589	-0.324419
H	 0.7104435734	 2.0913839818	 0.1737393756	 0.133577
H	-0.7200058134	 1.9740782435	-0.8733390354	 0.124474
H	-0.8832944549	 1.7787752661	 0.8854604366	 0.111629
H	-0.9694601322	-0.4417095481	-0.2537864976	 0.093166
H	 1.5329790492	 0.2552026411	-1.3137637326	 0.292943
H	 0.3782473288	-0.0476566346	 1.984917288	 0.099401
H	 0.3349618583	-2.4147639344	 2.1891913985	 0.076431
H	 1.1035133653	-2.6524656155	-0.7791473721	 0.141051
H	 0.8992746663	-4.0149305929	 0.3466231912	 0.110555
H	-0.4822002814	-3.0053051438	-0.0978126333	 0.117292
H	 2.6692183074	-1.8514344389	 2.6588716995	 0.127892
H	 3.1255657699	-2.5195131716	 1.0748302832	 0.12837
57.1026	76.9528	150.9531	180.2221	236.5427	259.2782	280.3777	356.8896	362.2061	413.7865	454.6781	478.297	521.7027	631.183	699.9812	723.9895	798.2062	874.2585	890.7025	896.8243	974.9694	999.185	1038.8481	1051.6369	1077.7805	1101.5704	1108.2023	1135.7293	1167.542	1210.6433	1230.7329	1274.6505	1283.2746	1333.5398	1345.0487	1368.6501	1401.8229	1417.7438	1433.0697	1439.6936	1490.9433	1492.2868	1501.2727	1503.3372	1858.9211	3031.3342	3034.8865	3037.1192	3039.618	3053.697	3072.7846	3096.7709	3104.0414	3110.3408	3119.8857	3128.6074	3772.7969
CC(O)C1C(C)CC1=O	C[C@@H](O)[C@H]1[C@@H](C)CC1=O	
InChI=1S/C7H12O2/c1-4-3-6(9)7(4)5(2)8/h4-5,7-8H,3H2,1-2H3	InChI=1S/C7H12O2/c1-4-3-6(9)7(4)5(2)8/h4-5,7-8H,3H2,1-2H3/t4-,5+,7+/m0/s1
