18
gdb 9411	6.59471	0.73605	0.69268	2.9785	66.02	-0.2674	-0.0382	0.2292	1566.3752	0.151015	-422.078619	-422.069064	-422.06812	-422.113786	32.921	
O	-0.015795957	 1.448902023	-0.0144607532	-0.419453
C	 0.0531985963	 0.0318742725	-0.00779617	-0.076539
C	-1.3724176731	-0.5037321206	-0.0167884116	-0.164683
C	-1.427974649	-2.0327704384	 0.0183472278	-0.213626
C	-2.8722847438	-2.559753175	-0.0709288353	 0.04954
O	-3.4922264937	-2.1671267348	-1.264693958	-0.431679
C	-2.8926333323	-4.0681438903	 0.0606478612	 0.136554
O	-3.379011886	-4.7769077901	-0.787387113	-0.260405
H	 0.8811964141	 1.7944926069	-0.0352802017	 0.286012
H	 0.5969087235	-0.3467412558	-0.8891324395	 0.086274
H	 0.5868921825	-0.3370706108	 0.8845874808	 0.080187
H	-1.9070149979	-0.0888156615	 0.8467576107	 0.104655
H	-1.8849037006	-0.1412531856	-0.9128208046	 0.134484
H	-0.8590776425	-2.4510121698	-0.8220374264	 0.109417
H	-0.9666012788	-2.4087297125	 0.9418601056	 0.09494
H	-3.4323222395	-2.1651227258	 0.7985667574	 0.09313
H	-3.7755427581	-2.9893440341	-1.6950148601	 0.294455
H	-2.4316390639	-4.4883582273	 0.9783496699	 0.096737
59.3109	81.9137	89.508	143.0316	168.9606	260.6616	286.0116	301.772	335.4278	415.8344	472.5512	507.0168	746.5643	765.6179	841.6523	860.3691	964.9026	987.6579	1031.0174	1062.5351	1084.9102	1133.0853	1175.2401	1212.6081	1228.4671	1267.1616	1299.0385	1305.6545	1319.0889	1354.0064	1380.7857	1405.5693	1439.2617	1464.7946	1474.9583	1501.2464	1529.1596	1813.3966	2918.821	2935.7018	2952.8551	2979.0915	3012.2349	3037.1209	3056.5625	3101.2371	3692.2351	3831.4982
OCCCC(O)C=O	OCCC[C@@H](O)C=O	
InChI=1S/C5H10O3/c6-3-1-2-5(8)4-7/h4-6,8H,1-3H2	InChI=1S/C5H10O3/c6-3-1-2-5(8)4-7/h4-6,8H,1-3H2/t5-/m1/s1
