20
gdb 6137	2.87232	1.78839	1.53428	1.3355	70.54	-0.2431	0.0573	0.3004	955.6204	0.175203	-386.13792	-386.128829	-386.127884	-386.17095	34.611	
C	-0.431836579	 1.427911735	 0.0351714102	-0.409386
C	-0.0815706816	-0.0564557383	-0.0100851714	-0.02939
C	 1.1420860058	-0.4161859832	-0.9073744612	-0.265602
C	 2.0256005054	-0.6081286687	 0.3517334726	 0.369728
C	 2.9314863905	-1.8231478517	 0.4318626693	-0.475438
O	 2.7628214771	 0.6005685387	 0.5658901806	-0.478634
C	 0.7233071606	-0.5882787828	 1.2248490934	 0.105191
O	 0.7733268617	 0.173967448	 2.400250294	-0.436805
H	 0.4622642912	 2.0464163536	 0.1640295454	 0.122333
H	-0.9124569567	 1.7375303368	-0.8988223452	 0.111078
H	-1.1177702562	 1.6450742941	 0.8598378618	 0.121965
H	-0.9835560926	-0.6382173898	-0.2222695234	 0.064969
H	 1.0159643094	-1.3415156554	-1.4748112643	 0.096343
H	 1.493050113	 0.3692742458	-1.5808650504	 0.107881
H	 3.7449069786	-1.7515022462	-0.2978018729	 0.124948
H	 3.3727863336	-1.9157408887	 1.4329260394	 0.114309
H	 2.3713558402	-2.7423229738	 0.2351585378	 0.120238
H	 3.3519895614	 0.4498396756	 1.3140431262	 0.281221
H	 0.4066114343	-1.5948046808	 1.5144718424	 0.077139
H	 1.2549456234	 0.9786066318	 2.1678323755	 0.277912
67.1145	193.499	213.3816	223.9929	241.381	254.6532	277.8873	323.9217	394.8001	404.5283	516.5156	542.1682	590.259	664.0984	770.4435	810.5404	845.7832	897.0709	915.2417	953.6228	989.9574	1035.0917	1086.0862	1115.4419	1131.4336	1167.4822	1194.2876	1195.7833	1252.2424	1271.0818	1286.5741	1302.2184	1362.3746	1385.7233	1406.417	1408.3379	1436.8601	1472.9293	1490.0116	1491.5983	1495.4566	1510.6488	3018.3071	3034.0906	3049.0533	3061.0353	3070.469	3085.9057	3100.9935	3108.5301	3109.1841	3120.5684	3762.3629	3795.7287
CC1CC(C)(O)C1O	C[C@H]1C[C@@](C)(O)[C@H]1O	
InChI=1S/C6H12O2/c1-4-3-6(2,8)5(4)7/h4-5,7-8H,3H2,1-2H3	InChI=1S/C6H12O2/c1-4-3-6(2,8)5(4)7/h4-5,7-8H,3H2,1-2H3/t4-,5-,6+/m0/s1
