23
gdb 60559	2.29044	1.26823	0.92682	1.536	85.88	-0.2524	0.0792	0.3316	1356.4517	0.204823	-388.260878	-388.25103	-388.250086	-388.295544	37.637	
C	-0.1561689894	 1.4731389496	 0.2308881138	-0.394303
C	 0.068312707	-0.011337127	-0.0967036184	-0.007871
C	 0.7640450214	-0.1680329873	-1.4401269689	 0.037902
C	 0.6562016183	-1.4513132201	-2.2214411019	-0.276734
C	-0.0411685022	-0.2062398747	-2.7150296639	-0.280485
C	 0.853814934	-0.7031187819	 1.0076605818	 0.008101
C	 0.1941894411	-1.0529537211	 2.3290412589	-0.346628
C	 0.6058464484	-2.1393791453	 1.3659492142	 0.088777
O	-0.3824239656	-2.8181726463	 0.6397188586	-0.41311
H	 0.7998757974	 2.0031180796	 0.3184614296	 0.106611
H	-0.7357646053	 1.9627769793	-0.5579005029	 0.112348
H	-0.690635702	 1.5958309375	 1.1780673692	 0.107842
H	-0.9074136118	-0.5063299917	-0.1664535115	 0.076993
H	 1.7204081228	 0.3490331867	-1.5009837001	 0.069076
H	 1.528410584	-1.797411284	-2.7658152204	 0.100346
H	 0.0522197361	-2.2418318947	-1.7910421586	 0.133862
H	-1.1227609911	-0.1648564634	-2.6297607915	 0.105694
H	 0.3512120199	 0.2937064156	-3.5940782976	 0.103083
H	 1.8935901014	-0.3882477877	 1.0719000172	 0.079616
H	 0.7446336684	-0.9253401031	 3.255101397	 0.10691
H	-0.8720624235	-0.8610783734	 2.4038825537	 0.110615
H	 1.4699341968	-2.7506289978	 1.6259272052	 0.083511
H	-0.857572156	-3.392195819	 1.2491596862	 0.287845
72.8568	87.1981	148.4373	187.1779	229.7285	240.0514	268.02	301.6609	367.3086	409.3977	444.6307	466.3433	604.858	755.4587	780.0414	818.4326	827.3293	834.9848	862.275	937.9479	943.9955	973.7071	996.9526	1018.7483	1033.8643	1058.7004	1061.35	1081.8005	1102.858	1135.7976	1139.6939	1176.2113	1185.3267	1199.1042	1216.3887	1228.3526	1238.1525	1284.8759	1305.0839	1321.4819	1397.4754	1406.5177	1420.086	1429.208	1473.3045	1487.1914	1495.3074	1499.5214	1509.444	3026.2262	3041.9524	3092.0172	3096.2803	3106.1565	3114.5817	3123.5333	3124.6304	3127.5132	3137.0773	3204.2846	3212.1824	3227.5464	3808.2806
CC(C1CC1)C1CC1O	C[C@@H](C1CC1)[C@H]1C[C@H]1O	
InChI=1S/C8H14O/c1-5(6-2-3-6)7-4-8(7)9/h5-9H,2-4H2,1H3	InChI=1S/C8H14O/c1-5(6-2-3-6)7-4-8(7)9/h5-9H,2-4H2,1H3/t5-,7+,8+/m0/s1
