12
gdb 130517	4.00383	1.81281	1.24783	2.2446	71.44	-0.2548	-0.1212	0.1336	887.33	0.080195	-431.648301	-431.642516	-431.641571	-431.678395	22.727	
O	-0.0955263637	 1.2648957064	 0.0100690063	-0.219264
N	 1.0623996281	 2.043770825	 0.0029810293	-0.0793
C	 2.1960472429	 1.3982534767	-0.0116745721	 0.084542
N	 2.4559198174	 0.0532767051	-0.0216007171	-0.338003
C	 1.3756029439	-0.6757406307	-0.0150108727	 0.323161
C	 1.0954333416	-2.0643229114	-0.0198268247	-0.278495
C	-0.2817605284	-2.1297709558	-0.0067655485	 0.001697
N	-0.9561511929	-0.8976971267	 0.0066029462	-0.335801
C	 0.0213318969	-0.0489195933	 0.0017243471	 0.416076
H	 3.0535527641	 2.0638851186	-0.0164347803	 0.156326
H	 1.8017942533	-2.8777862417	-0.0311603799	 0.130492
H	-0.8811387831	-3.0319795123	-0.0058407137	 0.138571
205.6991	249.5165	361.0301	474.3707	546.3924	550.6639	610.3404	621.5419	733.6316	761.2133	826.7184	839.5097	920.9721	954.4525	959.6843	968.9249	1051.0945	1106.4553	1164.7587	1246.4986	1320.6784	1383.6495	1403.9791	1429.0548	1539.2018	1617.8326	1657.0458	3197.3273	3222.3609	3276.8108
O1N=CN=C2C=CN=C12	o1ncnc2ccnc12	
InChI=1S/C5H3N3O/c1-2-6-5-4(1)7-3-8-9-5/h1-3H	InChI=1S/C5H3N3O/c1-2-6-5-4(1)7-3-8-9-5/h1-3H
