16
gdb 17666	3.34782	1.79851	1.50344	1.9566	59.86	-0.2548	0.0609	0.3158	874.6311	0.128949	-420.817806	-420.809974	-420.809029	-420.850726	28.191	
O	-0.0991443132	 1.5114238101	 0.2871839134	-0.476573
C	-0.0055058783	 0.1243163117	 0.0532120839	 0.302318
C	 0.9325487863	-0.3335970163	-1.0930173033	-0.135255
O	 1.8201271003	-0.9885529334	-0.1653720495	-0.268951
C	 0.9806398691	-0.6642608592	 0.9573374488	-0.129848
C	-1.4276296925	-0.3800370246	 0.0413430386	 0.062569
C	-2.1983282625	-0.5507905376	-1.1927144979	-0.182323
O	-1.6419051271	-1.6775088235	-0.5047783202	-0.231662
H	 0.7904744201	 1.8640075231	 0.3968086244	 0.288672
H	 0.5006596339	-1.0414483745	-1.8084497566	 0.117613
H	 1.4174033549	 0.4917475229	-1.630325335	 0.095431
H	 1.4967546412	-0.0518798631	 1.7095404271	 0.094461
H	 0.5689804476	-1.5594052113	 1.4390042205	 0.116251
H	-1.9713452131	-0.173716253	 0.9644001045	 0.1037
H	-3.2835094458	-0.4761372199	-1.1627843778	 0.124302
H	-1.7414628509	-0.3183287316	-2.1530881508	 0.119296
50.1692	78.0079	207.3199	230.1199	294.7083	336.9466	391.2283	489.3996	512.6999	627.9908	840.6215	875.4293	884.4519	916.2399	946.3217	988.6368	1000.6323	1043.8429	1077.461	1097.151	1148.0097	1152.907	1161.9039	1171.642	1172.9576	1220.0694	1291.1082	1303.3592	1350.6884	1401.6458	1457.6526	1491.4063	1519.7801	1532.5192	3000.6586	3017.1279	3057.7262	3074.8882	3092.222	3104.3466	3180.3043	3809.549
OC1(COC1)C1CO1	OC1(COC1)[C@H]1CO1	
InChI=1S/C5H8O3/c6-5(2-7-3-5)4-1-8-4/h4,6H,1-3H2	InChI=1S/C5H8O3/c6-5(2-7-3-5)4-1-8-4/h4,6H,1-3H2/t4-/m1/s1
