14
gdb 133281	2.92074	1.36591	0.93605	1.5715	71.49	-0.2251	-0.0765	0.1486	1159.1284	0.101311	-474.157506	-474.149676	-474.148732	-474.190581	28.007	
C	-0.0388979404	 1.43187605	 0.1297425259	-0.330694
N	 0.1264941108	-0.0066268175	 0.0682027298	-0.336299
C	 0.6225179238	-0.5391171449	-0.9682804988	 0.477272
N	 0.7575033635	-1.9499592068	-0.9651905311	-0.25729
N	 1.245389088	-2.6974129761	-1.9345904941	-0.110753
C	 1.6462766374	-2.0803052998	-3.0084533627	-0.156565
C	 1.5313520068	-0.648913711	-3.0627669173	 0.326425
F	 1.953898851	-0.0732484788	-4.1776699555	-0.053205
N	 1.0629431253	 0.0908165377	-2.1370780389	-0.365856
H	 0.5137896621	 1.8224645756	 0.9926550345	 0.122112
H	 0.2965242959	 1.9581036208	-0.7707121182	 0.132217
H	-1.0961214494	 1.6668938849	 0.3020345792	 0.122112
H	 0.4481136188	-2.4349250451	-0.1345645387	 0.283608
H	 2.0516479865	-2.6653458089	-3.8220494843	 0.146916
74.8979	99.2328	205.8021	216.1556	228.9337	418.9857	420.612	486.0588	540.5655	613.2595	673.9139	716.0119	742.665	769.7787	834.6091	967.7026	1013.6581	1069.7938	1135.772	1169.3089	1197.9042	1228.1347	1294.5417	1427.53	1439.6178	1446.7118	1495.7185	1497.0276	1571.7615	1695.8817	1764.626	3013.5085	3066.3735	3088.6118	3233.3831	3611.2457
CN=C1NN=CC(F)=N1	C[N]c1[nH]ncc(F)n1	
InChI=1S/C4H5FN4/c1-6-4-8-3(5)2-7-9-4/h2H,1H3,(H,6,8,9)	InChI=1S/C4H10FN4/c1-6-4-8-3(5)2-7-9-4/h3-4,7-9H,2H2,1H3
