12
gdb 10012	3.53701	1.35009	0.99018	3.645	60.95	-0.2975	-0.0821	0.2154	1085.374	0.081358	-414.681414	-414.673109	-414.672164	-414.714991	27.143	
C	 0.0782139139	 1.5198418711	 0.1513503988	-0.34759
N	 0.2320627726	 0.0794592133	 0.164298993	-0.272618
C	 0.5534763068	-0.5572515614	-0.8719945981	 0.350991
O	 0.7059668432	-1.9160449778	-0.8973420988	-0.21564
C	 0.0339268259	-2.6772332399	 0.0463914923	 0.182369
O	 0.2593739868	-3.836747559	 0.1525576102	-0.232233
C	 0.8413343632	 0.0114528198	-2.1754420178	 0.257694
N	 1.0612088919	 0.519198217	-3.1901996287	-0.31832
H	 0.7440361933	 1.9435787434	 0.9097031168	 0.156208
H	 0.2881624441	 1.989317849	-0.8171057341	 0.146881
H	-0.9456616625	 1.763392587	 0.4530828446	 0.153905
H	-0.6933922993	-2.0857669825	 0.6159306719	 0.138354
79.9439	102.2331	138.9171	149.7116	189.6181	271.0369	330.0447	363.1375	494.2462	521.8256	684.1335	721.1762	848.8592	1031.6894	1041.215	1107.1401	1131.8651	1160.6058	1245.759	1396.446	1442.0063	1481.8308	1499.534	1738.0149	1886.8448	2352.7465	3021.4069	3079.0591	3098.3843	3102.6146
CN=C(OC=O)C#N	CN=C(OC=O)C#N	
InChI=1S/C4H4N2O2/c1-6-4(2-5)8-3-7/h3H,1H3	InChI=1S/C4H4N2O2/c1-6-4(2-5)8-3-7/h3H,1H3
