19
gdb 120667	4.95364	0.7535	0.71136	2.2431	73.28	-0.2556	0.0636	0.3192	1617.4996	0.156873	-460.098109	-460.088788	-460.087844	-460.133261	32.715	
C	-0.3357443045	 1.351776469	-0.087395683	-0.226054
O	-0.2426448714	-0.0527771064	-0.1312484315	-0.231283
C	 0.8296524893	-0.5051134971	-0.9236831826	-0.076275
C	 0.8417873562	-2.0081416861	-0.9001978826	-0.054479
O	 0.0404251503	-2.6888065745	-1.8875823259	-0.271214
C	 1.4414885525	-2.7905389201	-1.977914249	 0.351923
C	 2.2787873099	-2.3967919848	-3.1935621243	-0.154043
O	 3.0508588703	-3.6102941974	-3.0599949641	-0.274771
C	 2.2330450803	-4.0948302585	-1.9703918535	-0.155046
H	 0.5738812984	 1.8084840865	 0.3345872847	 0.104284
H	-0.5028629732	 1.7811803712	-1.0876434369	 0.108159
H	-1.1860830814	 1.6018083086	 0.5509655465	 0.132463
H	 0.7330653645	-0.1533376778	-1.9638982106	 0.095443
H	 1.7902960388	-0.1243793601	-0.5309016727	 0.091248
H	 0.7844749818	-2.4474349932	 0.0963736015	 0.105206
H	 1.7113872585	-2.3596278332	-4.1322579954	 0.116849
H	 2.9021942986	-1.4985433759	-3.1059898719	 0.108467
H	 2.8242556167	-4.3142989178	-1.0734686956	 0.111348
H	 1.6425282745	-4.9771137225	-2.248162733	 0.117775
61.9263	88.1406	93.7911	124.373	205.7431	237.9832	274.7167	327.0371	392.941	458.0457	515.3973	600.8761	836.2872	844.0852	905.8857	939.1109	977.7357	985.5657	1023.8031	1047.025	1081.9667	1113.5397	1129.7538	1144.0105	1164.4841	1170.3779	1184.1754	1191.9632	1229.5371	1265.0309	1299.6479	1321.8629	1361.2483	1414.7509	1477.0236	1486.204	1495.4685	1499.126	1516.4028	1523.4633	1543.1116	2940.1167	2970.7044	2988.0613	3010.1391	3015.7158	3021.6794	3060.437	3065.5987	3113.1988	3119.817
COCC1OC11COC1	COC[C@H]1OC21COC2	
InChI=1S/C6H10O3/c1-7-2-5-6(9-5)3-8-4-6/h5H,2-4H2,1H3	InChI=1S/C6H10O3/c1-7-2-5-6(9-5)3-8-4-6/h5H,2-4H2,1H3/t5-/m1/s1
