21
gdb 59562	3.26521	1.23308	1.07842	1.0278	78.07	-0.2362	0.0749	0.3111	1203.0439	0.183173	-424.204715	-424.196314	-424.195369	-424.237648	33.277	
C	 0.1019633828	 1.496093073	 0.1154499129	-0.408686
C	-0.0237876157	-0.0243316341	 0.0799208746	 0.096056
O	-1.3845537354	-0.4532927999	 0.0861605146	-0.431968
C	 0.6919366579	-0.6290868803	-1.1306902559	 0.136183
O	 2.0940866899	-0.2638924429	-1.1637600643	-0.30169
C	 2.7336039442	-1.5518551365	-1.2672842023	 0.116991
C	 1.8756536891	-2.2936974567	-2.3205986735	-0.242005
C	 0.8151291919	-2.1605818585	-1.1784508479	-0.072611
C	 2.008910748	-2.3982167907	-0.195802338	-0.237639
H	 1.1539951195	 1.79054368	 0.1442614253	 0.140442
H	-0.3455165516	 1.9420645565	-0.7827034678	 0.101668
H	-0.4113407151	 1.9012925895	 0.9916290488	 0.119149
H	 0.4047269954	-0.4428451479	 0.9967137272	 0.088633
H	-1.8395511461	 0.0102378909	-0.6259558197	 0.277416
H	 0.2002830127	-0.2452590089	-2.0399264585	 0.055306
H	 3.8126139583	-1.4190448298	-1.3274005692	 0.078241
H	 1.6882784663	-1.7781993157	-3.2660684135	 0.097246
H	 2.1903968526	-3.3244135289	-2.4915146697	 0.100697
H	-0.1077731254	-2.7348608186	-1.1450438394	 0.084066
H	 2.3281125404	-3.4414367228	-0.1800086245	 0.1012
H	 1.9586965405	-1.9943287277	 0.8170765908	 0.101304
71.5657	164.8931	170.778	254.0558	279.6165	314.9332	413.2023	436.0349	485.3951	505.9429	537.5174	677.2104	822.1832	842.5368	863.2502	868.7228	882.506	916.9226	934.9505	982.4751	988.5404	1009.4442	1035.5478	1046.0292	1068.9686	1093.4836	1100.0158	1118.4411	1138.0375	1185.0174	1211.5238	1241.9162	1248.1645	1267.3014	1283.4474	1291.99	1325.2722	1345.5142	1396.6601	1410.2598	1418.2821	1477.2258	1492.6417	1496.1173	1513.7878	2962.0656	3022.451	3057.3697	3065.648	3077.9973	3100.0865	3132.7625	3132.9016	3136.8826	3140.6104	3150.3768	3796.2587
CC(O)C1OC2CC1C2	C[C@@H](O)[C@H]1O[C@@H]2C[C@H]1C2	
InChI=1S/C7H12O2/c1-4(8)7-5-2-6(3-5)9-7/h4-8H,2-3H2,1H3	InChI=1S/C7H12O2/c1-4(8)7-5-2-6(3-5)9-7/h4-8H,2-3H2,1H3/t4-,5-,6+,7-/m1/s1
