16
gdb 36331	4.85483	0.8075	0.73495	4.26	75.66	-0.2696	-0.0018	0.2678	1483.3819	0.122721	-400.704256	-400.695407	-400.694463	-400.738908	31.581	
C	-0.258297494	-1.1971188663	 0.2042803852	-0.426344
C	-0.1881737688	 0.0013435536	 0.1661865153	 0.296325
C	-0.0801184451	 1.4529558647	 0.104062826	-0.368192
C	 1.3222803242	 1.9285192019	-0.2711508352	 0.159541
C	 1.5997746522	 3.4454509569	-0.1960481196	-0.326906
C	 2.6960142843	 3.0453641646	 0.8247774012	 0.003424
O	 2.2977021588	 1.6646590033	 0.7733848731	-0.28203
C	 4.0799819146	 3.2541722854	 0.3833106593	 0.275369
N	 5.1654696765	 3.4359108361	 0.0312208701	-0.313526
H	-0.3226403556	-2.2562522225	 0.2458362327	 0.202624
H	-0.7827916735	 1.8498074947	-0.6418236256	 0.137282
H	-0.3578400576	 1.8954146729	 1.0689421354	 0.134449
H	 1.6360006418	 1.4613572966	-1.2114966653	 0.108234
H	 1.9506149032	 3.9216485592	-1.1103700132	 0.140787
H	 0.7930214041	 4.0347367274	 0.2427883357	 0.126546
H	 2.5848121451	 3.4620561817	 1.8320717047	 0.132418
43.736	70.8165	116.5895	180.5199	229.2194	318.6594	343.5833	378.8096	498.379	537.7475	573.0755	628.0317	651.1096	770.4807	782.1259	872.4479	912.8788	960.7193	989.896	1017.0831	1030.9782	1077.0408	1117.7978	1153.7432	1232.9203	1254.2214	1259.9594	1297.5889	1338.4458	1362.0592	1401.7506	1455.4933	1488.9677	2244.7341	2356.6216	3015.4037	3041.0027	3047.7547	3061.361	3091.2505	3157.1058	3506.2156
C#CCC1CC(O1)C#N	C#CC[C@H]1C[C@@H](O1)C#N	
InChI=1S/C7H7NO/c1-2-3-6-4-7(5-8)9-6/h1,6-7H,3-4H2	InChI=1S/C7H7NO/c1-2-3-6-4-7(5-8)9-6/h1,6-7H,3-4H2/t6-,7+/m0/s1
