20
gdb 83493	2.71202	1.5157	1.46578	3.2994	77.71	-0.2199	-0.0091	0.2108	1026.0099	0.173279	-403.172743	-403.165079	-403.164135	-403.20457	30.883	
C	-0.1911308049	 1.4363155403	-0.016833238	-0.332843
N	 0.0695338405	 0.0063580348	 0.0127652219	-0.071977
C	 1.0224841787	-0.5090331632	-0.994405775	-0.003205
C	 2.4171769738	 0.0093294978	-0.529023873	-0.223259
C	 2.2675364699	-0.0082802832	 1.0208408965	-0.239369
C	 0.7905903432	-0.5025052601	 1.1938851376	-0.113356
C	 0.8204385817	-1.9929270207	 0.8427718771	 0.445939
O	 0.8016492261	-2.9312283666	 1.5926247253	-0.331544
C	 0.9278001177	-2.0163655616	-0.6930001233	-0.329322
H	 0.7015951195	 2.0754642627	 0.0857617528	 0.09978
H	-0.6773106773	 1.6896192164	-0.9644569103	 0.12275
H	-0.8824619181	 1.6932896318	 0.7917482244	 0.125499
H	 0.7438822423	-0.2282919171	-2.0112660846	 0.072242
H	 3.2309910931	-0.6268930607	-0.8859459096	 0.104738
H	 2.6063273002	 1.0188768779	-0.9025757454	 0.104148
H	 2.9805345645	-0.6708590014	 1.5176267171	 0.119614
H	 2.3908113252	 0.9865461806	 1.4552812363	 0.109896
H	 0.3195546022	-0.2745078183	 2.148880571	 0.08483
H	 0.0167929094	-2.4522153781	-1.1134932486	 0.134296
H	 1.7823710022	-2.6128147012	-1.0226285524	 0.121144
109.8787	210.3638	228.7684	253.4955	297.5254	377.178	451.1794	528.5654	566.6971	584.3453	682.5061	733.3857	794.9211	808.8822	855.8565	859.7584	908.6099	934.5608	959.886	988.9712	1009.1183	1049.1944	1084.2646	1125.6147	1150.9835	1165.7626	1179.3375	1200.2897	1213.2113	1245.2772	1253.5246	1276.4744	1294.4698	1316.2151	1329.9011	1354.4169	1447.1854	1455.7244	1487.4823	1489.0309	1512.0543	1514.3211	1866.6709	2966.5589	3061.8701	3063.9977	3065.0486	3071.518	3097.5809	3103.2779	3105.8979	3114.532	3118.8816	3135.8364
CN1C2CCC1C(=O)C2	CN1[C@H]2CC[C@@H]1C(=O)C2	
InChI=1S/C7H11NO/c1-8-5-2-3-6(8)7(9)4-5/h5-6H,2-4H2,1H3	InChI=1S/C7H11NO/c1-8-5-2-3-6(8)7(9)4-5/h5-6H,2-4H2,1H3/t5-,6+/m0/s1
