18
gdb 116248	2.15481	1.48457	1.00451	3.9324	72.09	-0.2792	0.0131	0.2923	1210.5576	0.147486	-439.097663	-439.088675	-439.087731	-439.132132	31.773	
C	 0.0774054533	 1.6271202908	 0.004145731	-0.389957
C	-0.0521489283	 0.1009907381	 0.0080814473	-0.214019
C	 0.6990769896	-0.5473923299	-1.1410858758	 0.096637
O	 2.0985572583	-0.3306076779	-1.0066270907	-0.24339
C	 2.7115075412	-1.2548947482	-1.8582493909	 0.020558
O	 1.8676176063	-2.4096167385	-1.9184342491	-0.260484
C	 0.6524981992	-2.0927885246	-1.2612482988	-0.045882
C	 0.5744647572	-2.7788892233	 0.0437532452	 0.287958
N	 0.4960491429	-3.3204257668	 1.06121955	-0.329251
H	 1.126077109	 1.926202288	 0.0780241571	 0.140748
H	-0.3333261225	 2.0597548633	-0.9147234429	 0.115713
H	-0.462744837	 2.0621941414	 0.8492948114	 0.122135
H	 0.3256528736	-0.3116657941	 0.9488904235	 0.13721
H	-1.1069624917	-0.190158529	-0.0665074302	 0.110064
H	 0.3492645729	-0.1407548238	-2.1052516798	 0.084305
H	 2.8198826443	-0.857918266	-2.8805775926	 0.101859
H	 3.6888831445	-1.5229004019	-1.4455162583	 0.130768
H	-0.1880127728	-2.4273294575	-1.8780751364	 0.135028
61.0123	100.0112	124.5889	163.9815	202.3786	228.1938	268.3758	373.1195	436.898	487.5326	585.9137	736.0396	753.6964	791.9034	856.5564	926.9171	949.5102	965.9283	1018.7615	1045.029	1078.9068	1130.3358	1133.566	1164.061	1177.3082	1223.0768	1266.526	1304.4521	1313.2463	1356.2664	1373.3706	1412.1275	1417.4801	1432.682	1475.6956	1499.4115	1508.5935	1547.1962	2357.7141	2962.7995	2974.3121	3040.1288	3041.1873	3063.6237	3081.8692	3087.3205	3111.4188	3127.8374
CCC1OCOC1C#N	CC[C@H]1OCO[C@H]1C#N	
InChI=1S/C6H9NO2/c1-2-5-6(3-7)9-4-8-5/h5-6H,2,4H2,1H3	InChI=1S/C6H9NO2/c1-2-5-6(3-7)9-4-8-5/h5-6H,2,4H2,1H3/t5-,6+/m1/s1
