18
gdb 99205	4.88898	0.67345	0.60163	3.8038	71.27	-0.2591	-0.0239	0.2351	1800.2637	0.143496	-476.225672	-476.21508	-476.214135	-476.263078	35.701	
C	-0.1432342147	 1.3975197936	 0.11682442	-0.442147
C	 0.0913847891	-0.0786780252	-0.0176675806	 0.416507
N	 1.2519152937	-0.5703736368	-0.153558114	-0.516785
O	-1.1055251461	-0.7371400361	 0.0320935907	-0.21863
C	-1.0983701991	-2.1371701267	-0.0902189803	-0.208908
C	-2.542112617	-2.647081143	-0.1046309817	 0.3585
O	-3.4875677079	-1.9314496187	-0.2840959363	-0.250971
C	-2.6570909343	-4.1522375213	 0.1225697472	-0.176231
O	-3.9611216335	-4.5699386955	-0.1714121748	-0.391742
H	 0.8089322464	 1.9240312621	 0.0760898699	 0.147324
H	-0.79888143	 1.7484827902	-0.6857559597	 0.146278
H	-0.6481710993	 1.6138335746	 1.0632288007	 0.142942
H	 1.252147846	-1.5863078236	-0.2298767198	 0.214615
H	-0.6177751153	-2.4541083285	-1.0297972912	 0.13529
H	-0.5404649221	-2.6112190742	 0.7319400286	 0.123741
H	-1.8930733981	-4.6577019288	-0.4950069484	 0.106438
H	-2.3752766492	-4.3372488177	 1.1750619393	 0.117115
H	-4.0311049486	-5.5061320844	 0.0366295306	 0.296664
38.1656	49.9757	78.9763	120.1317	137.6189	164.1862	228.4847	255.486	274.3936	338.1639	464.0007	477.9503	558.2784	598.1457	683.7358	818.8583	856.2662	885.0685	932.3466	986.6389	1034.8833	1076.4021	1083.0813	1107.0225	1154.0088	1161.2488	1230.7782	1243.4153	1276.0884	1320.6592	1392.3619	1415.1588	1446.2195	1473.4371	1477.0081	1487.5138	1496.1489	1736.9751	1858.1206	2941.9656	2962.5635	2978.6507	3013.5737	3053.4357	3112.2151	3171.4132	3499.2111	3837.1544
CC(=N)OCC(=O)CO	C[C]([NH])OCC(=O)CO	
InChI=1S/C5H9NO3/c1-4(6)9-3-5(8)2-7/h6-7H,2-3H2,1H3	InChI=1S/C5H9NO3/c1-4(6)9-3-5(8)2-7/h6-7H,2-3H2,1H3
