23
gdb 100961	2.64477	0.97684	0.89635	2.5338	81.79	-0.2505	0.0587	0.3093	1451.5637	0.203486	-425.412297	-425.401479	-425.400535	-425.448084	40.166	
C	-0.3230255387	 1.5566334511	 0.0406138821	-0.420127
C	-0.1653304823	 0.052034749	 0.0898437244	-0.020771
C	 1.1251091616	-0.6270157605	-0.3002381903	-0.341376
C	 0.6606537463	-0.6721924559	 1.1397273559	 0.341977
C	 1.4450960533	 0.1176410946	 2.1744253074	-0.492496
C	 0.0904830988	-2.0035609851	 1.6088240008	 0.026669
O	 1.1025157903	-2.9602232096	 1.9588579882	-0.450556
C	-0.9061381735	-1.9021865353	 2.7688851804	-0.070212
O	-1.3908113312	-3.1817498755	 3.1187243007	-0.425495
H	 0.6080628292	 2.0787945481	 0.27659086	 0.115796
H	-0.6281612511	 1.8754912855	-0.9620291229	 0.121818
H	-1.0874387452	 1.9034649216	 0.7450276544	 0.118618
H	-1.0679296343	-0.4793120586	-0.2055699933	 0.085379
H	 1.0871857069	-1.5411609529	-0.8831261084	 0.11575
H	 1.9748434897	 0.009101043	-0.5294182721	 0.105078
H	 1.9223937364	 0.9939220236	 1.7305940146	 0.124133
H	 0.8154563139	 0.4675084553	 2.9992362852	 0.126058
H	 2.2547675806	-0.4845280769	 2.6064465298	 0.105608
H	-0.4328437254	-2.4750170081	 0.7692414291	 0.08919
H	 1.6642461891	-2.5633863247	 2.6342429027	 0.281333
H	-0.4249619344	-1.4104531027	 3.6326874841	 0.073399
H	-1.7654892251	-1.2875192937	 2.4794566677	 0.106976
H	-0.620447855	-3.7632235524	 3.0687387296	 0.283251
48.2505	116.725	129.0848	159.5246	175.9508	229.8496	259.4073	289.3166	305.0933	321.0198	334.5667	440.3345	469.7077	510.4184	523.5625	545.3063	757.5584	787.8635	857.5854	887.3727	912.8793	955.3454	991.2686	1021.167	1043.8156	1071.016	1072.1725	1097.1187	1107.8613	1132.3875	1137.3827	1192.6235	1200.1049	1252.8753	1287.1724	1297.5293	1352.7662	1383.825	1408.6029	1422.5737	1426.062	1431.2681	1444.939	1487.9331	1489.4349	1493.6929	1503.1752	1508.423	1512.2249	2949.1443	3021.7902	3032.3003	3049.0378	3069.4726	3079.3038	3088.7624	3105.6382	3118.6984	3124.8054	3128.3348	3208.4418	3760.1279	3798.1216
CC1CC1(C)C(O)CO	C[C@H]1C[C@]1(C)[C@@H](O)CO	
InChI=1S/C7H14O2/c1-5-3-7(5,2)6(9)4-8/h5-6,8-9H,3-4H2,1-2H3	InChI=1S/C7H14O2/c1-5-3-7(5,2)6(9)4-8/h5-6,8-9H,3-4H2,1-2H3/t5-,6-,7-/m0/s1
