18
gdb 57100	2.59504	1.30155	1.12452	3.4823	71.06	-0.268	0.0292	0.2972	1154.9342	0.14803	-439.099253	-439.090422	-439.089478	-439.133528	31.443	
C	 0.021643751	 1.5506683088	-0.0045695271	-0.395515
C	-0.0060190023	 0.0109479749	 0.041538745	-0.163699
C	 0.6647407928	-0.4838771727	 1.2492851145	 0.285667
N	 1.192333826	-0.8772182048	 2.1995391761	-0.333234
C	-1.4490745092	-0.5315031757	-0.0460350196	 0.111943
C	-1.5866048843	-2.0706393504	-0.0146853968	-0.145335
O	-2.7561432501	-2.2769720765	 0.7601484928	-0.231584
C	-2.7288359666	-1.2539472942	 1.7190770411	 0.018632
O	-2.2229146867	-0.0963984596	 1.0659397918	-0.267795
H	 1.0452921172	 1.9260311818	 0.0599960321	 0.136756
H	-0.4181183528	 1.8984700643	-0.9436976455	 0.125511
H	-0.5584244913	 1.9601845483	 0.8245647931	 0.158597
H	 0.5472930562	-0.3831656475	-0.821943421	 0.127343
H	-1.8950044818	-0.1187167846	-0.9607589256	 0.09239
H	-1.7413488141	-2.5117313909	-1.0011241858	 0.124144
H	-0.7110627565	-2.537634883	 0.4598050091	 0.121864
H	-3.748452728	-1.0599266609	 2.0633265838	 0.123543
H	-2.0749474097	-1.5170792773	 2.566300752	 0.110771
56.929	80.6949	148.5482	187.415	226.08	250.6534	277.6774	378.9172	390.2933	573.5876	638.3001	681.4013	742.4703	790.4488	883.283	953.5984	974.4711	1009.8877	1022.0632	1029.0404	1100.5845	1116.6672	1135.4293	1148.6987	1182.0202	1214.3889	1269.1287	1295.2026	1311.4612	1337.7806	1373.2149	1389.681	1410.0279	1437.1575	1492.9299	1503.3295	1508.5862	1545.0819	2355.7968	2975.9459	3002.9997	3015.3054	3025.6986	3053.3247	3092.6897	3114.101	3127.8255	3146.7253
CC(C#N)C1COCO1	C[C@@H](C#N)[C@H]1COCO1	
InChI=1S/C6H9NO2/c1-5(2-7)6-3-8-4-9-6/h5-6H,3-4H2,1H3	InChI=1S/C6H9NO2/c1-5(2-7)6-3-8-4-9-6/h5-6H,3-4H2,1H3/t5-,6+/m0/s1
