21
gdb 103886	3.35213	0.8805	0.79824	1.6535	85.68	-0.2484	0.0623	0.3107	1522.0591	0.178795	-387.036023	-387.025538	-387.024594	-387.071683	38.423	
C	-0.5337070836	 1.0971315866	 0.1295220919	-0.246589
O	 0.318622293	-0.0153554565	-0.0616994564	-0.278392
C	 0.881515276	-0.5379090019	 1.1130475533	 0.411835
C	 1.966554326	 0.3176420182	 1.7312794826	-0.453822
C	-0.0205158221	-1.378728116	 1.9900276587	-0.341295
C	 1.0281428336	-2.0356401462	 1.1139462245	-0.060577
C	 0.6059830502	-2.8567702693	-0.0962259336	-0.381771
C	 0.1970658268	-4.2133224822	 0.2555775862	 0.311374
C	-0.1314834636	-5.3286275088	 0.560983302	-0.452525
H	 0.0108806708	 1.9820109485	 0.4865568969	 0.110375
H	-0.9728323257	 1.3289380789	-0.8437452703	 0.12699
H	-1.3393342876	 0.8731530323	 0.8427620244	 0.108982
H	 1.572700905	 1.2724117334	 2.0960098598	 0.118665
H	 2.4229007546	-0.1954943426	 2.5822500412	 0.119562
H	 2.7496409285	 0.530042256	 0.9959736286	 0.125335
H	 0.1231944475	-1.3654515929	 3.0650549121	 0.109932
H	-1.0531315999	-1.487197561	 1.6743870437	 0.118313
H	 1.9055358659	-2.4215642581	 1.6252091612	 0.092657
H	-0.2082567424	-2.3386476858	-0.6125229206	 0.140418
H	 1.4350350641	-2.9018176976	-0.8146070461	 0.129796
H	-0.4271172673	-6.3142369751	 0.8216470399	 0.190736
48.0463	103.4684	108.2323	176.6528	185.0476	213.8634	231.4702	297.0973	343.012	362.228	391.6082	436.3362	505.2657	610.8408	612.5976	632.5518	688.7007	830.9018	862.1175	892.2326	927.4892	955.9386	959.9413	1033.4748	1054.0385	1104.7829	1111.19	1125.8703	1148.7693	1181.3469	1219.4687	1228.9955	1273.7682	1300.3319	1327.5384	1408.2675	1422.382	1469.6596	1474.1222	1479.6511	1483.2582	1495.0963	1506.4211	1511.7199	2237.7592	2994.8135	3025.2193	3033.5282	3047.7734	3078.8715	3097.3854	3114.4206	3116.4922	3128.341	3147.9767	3215.7853	3507.821
COC1(C)CC1CC#C	CO[C@@]1(C)C[C@H]1CC#C	
InChI=1S/C8H12O/c1-4-5-7-6-8(7,2)9-3/h1,7H,5-6H2,2-3H3	InChI=1S/C8H12O/c1-4-5-7-6-8(7,2)9-3/h1,7H,5-6H2,2-3H3/t7-,8+/m1/s1
