18
gdb 82150	3.17679	1.20842	1.04156	2.9511	73.82	-0.2504	0.0226	0.2729	1185.3841	0.147345	-439.046026	-439.037401	-439.036457	-439.079958	31.803	
O	 0.2633052981	 1.4329927864	-0.032978565	-0.428625
C	 0.0333129651	 0.0515784404	-0.0663540305	 0.109443
C	-1.3863630535	-0.5100254652	 0.0178133082	-0.08317
C	-2.1772750306	-0.1766808145	-1.2150934701	-0.299726
C	-1.1693212925	-1.2853598115	-1.2987616497	-0.069163
C	 0.2243230805	-0.7010788051	-1.4403461754	 0.049368
O	 0.3634575981	 0.1436974007	-2.5778614741	-0.197769
C	 1.5823431578	 0.6916120884	-2.7750771468	 0.131654
N	 1.7435946078	 1.5459577523	-3.6895834129	-0.445766
H	-0.2602556091	 1.8452923815	-0.7292856402	 0.295166
H	 0.6807737366	-0.3798637277	 0.7010640441	 0.095764
H	-1.8665417132	-0.8526632952	 0.9259366569	 0.094184
H	-3.2127381936	-0.4989719347	-1.1914584357	 0.122521
H	-2.0191064116	 0.7431574676	-1.7698682531	 0.124584
H	-1.4423546699	-2.3041765865	-1.5391814038	 0.096311
H	 1.0296140604	-1.4423740621	-1.4191648396	 0.08576
H	 2.3525455207	 0.309797701	-2.0926250552	 0.090186
H	 2.7173615489	 1.8411205942	-3.718993507	 0.229277
65.4427	92.8393	111.7092	196.4211	223.0532	295.4715	347.1677	445.5058	498.529	594.9674	659.4703	726.9359	780.8872	815.3229	827.7199	853.4084	923.6652	981.985	1005.2983	1020.9038	1041.0876	1044.2335	1058.5893	1075.1413	1089.0791	1117.6112	1148.5504	1180.6173	1221.5545	1268.2752	1286.0767	1289.2713	1320.7398	1366.6429	1368.9991	1425.1766	1436.7226	1496.5219	1744.7756	3034.5498	3053.7689	3085.964	3127.6831	3189.3041	3201.9239	3213.9266	3516.9631	3806.322
OC1C2CC2C1OC=N	O[C@H]1[C@H]2C[C@H]2[C@H]1O[CH][NH]	
InChI=1S/C6H9NO2/c7-2-9-6-4-1-3(4)5(6)8/h2-8H,1H2	InChI=1S/C6H9NO2/c7-2-9-6-4-1-3(4)5(6)8/h2-8H,1H2/t3-,4+,5-,6+/m0/s1
