14
gdb 132288	2.00657	1.91336	0.98545	4.2164	68.02	-0.24	-0.0539	0.1861	1107.2866	0.102124	-474.218186	-474.210495	-474.209551	-474.25128	27.816	
C	-0.0168618565	 1.4799486186	 0.0257073809	-0.492488
C	 0.0012899322	-0.016690281	-0.039779009	 0.412271
N	-0.0219253429	-0.6245466645	-1.1983424884	-0.362401
C	-0.0011448791	-1.9830454486	-1.0981429189	 0.326611
F	-0.0261318661	-2.5776244007	-2.2722446013	-0.046172
N	 0.0363419819	-2.7436527088	-0.0626512699	-0.359247
C	 0.0613335935	-2.115280037	 1.1737230304	 0.415627
N	 0.09926241	-2.6540344733	 2.3243484922	-0.564513
N	 0.0414758058	-0.6995466236	 1.1186495629	-0.324266
H	 0.8749441023	 1.8539124965	 0.5395351244	 0.156267
H	-0.0466142258	 1.8807732158	-0.9861248312	 0.17232
H	-0.892702781	 1.830328934	 0.5819142705	 0.156439
H	 0.1095653214	-3.6666477707	 2.2174553662	 0.232362
H	 0.0593640443	-0.2262828667	 2.0111920811	 0.277189
50.3992	128.8578	194.5694	202.0713	299.0656	378.1338	532.9212	566.5638	589.0307	595.0646	643.0429	672.6872	745.7434	802.3818	856.585	940.5926	978.2445	1046.5561	1063.4547	1064.8382	1142.1638	1279.4663	1305.1535	1401.4715	1410.1768	1460.9748	1481.5081	1509.4641	1605.2599	1671.7601	1751.2264	3047.0105	3106.2601	3173.3981	3519.7865	3611.2067
CC1=NC(F)=NC(=N)N1	C[C@@H]1N=C(F)N=C([NH])N1	
InChI=1S/C4H5FN4/c1-2-7-3(5)9-4(6)8-2/h1H3,(H2,6,7,8,9)	InChI=1S/C4H6FN4/c1-2-7-3(5)9-4(6)8-2/h2,6H,1H3,(H,7,8,9)/t2-/m1/s1
