19
gdb 102068	2.12467	1.29227	0.85607	1.8544	78.77	-0.2427	-0.032	0.2107	1356.7843	0.154237	-422.987446	-422.976569	-422.975625	-423.024247	37.558	
C	-0.3472914796	 1.2555298498	-0.1948667909	-0.248666
O	 0.0336400997	-0.1110226456	-0.215229548	-0.252389
C	 0.6351075359	-0.5647863807	 0.9882186006	 0.057456
C	-0.4963063845	-0.8173947451	 1.9861370181	 0.154862
O	-0.7630802363	-0.0886867704	 2.9053635204	-0.248501
C	 1.4078845614	-1.8548214393	 0.6529384972	-0.183905
C	 2.5491871043	-1.5872259785	-0.3453686844	-0.400527
C	 1.8889615734	-2.4773478738	 1.8846174959	 0.308157
C	 2.2881090732	-2.9650857834	 2.9082773012	-0.455302
H	 0.5258863019	 1.9080677484	-0.0526627898	 0.116373
H	-0.8008057705	 1.4682299289	-1.165250391	 0.133242
H	-1.074634573	 1.4711428424	 0.5981942126	 0.1319
H	 1.3103810113	 0.1939381119	 1.4087374174	 0.091468
H	-1.1238712713	-1.7037273728	 1.7388748329	 0.084861
H	 0.6849578018	-2.5325838767	 0.1771794668	 0.118605
H	 2.1497653428	-1.1048679942	-1.2394665102	 0.136081
H	 3.3061653316	-0.9356877228	 0.1011836903	 0.126104
H	 3.033777895	-2.5239530764	-0.6309781617	 0.12767
H	 2.6347914031	-3.4031574818	 3.8115531527	 0.20251
47.8442	57.7353	100.076	117.3786	180.7679	196.4876	215.8522	236.818	282.1108	330.1782	401.2239	412.9299	480.0154	538.2378	566.3748	638.4495	655.0813	851.8665	935.3652	942.6726	1005.3613	1057.9535	1085.2915	1110.8488	1128.3409	1163.6286	1187.079	1219.5186	1266.6731	1312.1869	1335.6624	1369.8629	1402.04	1419.2339	1480.0607	1488.4789	1493.8339	1500.0585	1511.0891	1833.2271	2235.8683	2877.6232	2998.0053	3007.7833	3021.1143	3050.4093	3059.0258	3122.8222	3126.5095	3142.135	3503.1786
COC(C=O)C(C)C#C	CO[C@@H](C=O)[C@@H](C)C#C	
InChI=1S/C7H10O2/c1-4-6(2)7(5-8)9-3/h1,5-7H,2-3H3	InChI=1S/C7H10O2/c1-4-6(2)7(5-8)9-3/h1,5-7H,2-3H3/t6-,7-/m0/s1
