15
gdb 42726	3.13421	1.86609	1.61643	1.4531	68.43	-0.2363	-0.0342	0.2021	846.8938	0.114307	-420.59494	-420.58887	-420.587926	-420.625184	25.285	
O	-0.0468662143	 0.0039604921	-0.0194382036	-0.315559
C	-0.0247590114	 1.1973909744	 0.0445599742	 0.454616
C	-1.1149277759	 2.2986711996	-0.0063773787	-0.273508
C	-1.2740180834	 2.7176980407	 1.4342138462	-0.047447
C	-0.1634380539	 3.1890347116	 2.008588502	-0.090996
C	 0.9726350549	 3.3945732971	 1.0391608563	 0.052461
O	 0.452647157	 4.3339363281	 0.0286586179	-0.28863
C	 0.0243133481	 3.2055002862	-0.7110019056	 0.124904
C	 1.0647059681	 2.2488180911	-0.0537795055	-0.234584
H	-2.0406425394	 2.0888402478	-0.5394403783	 0.091388
H	-2.2231076743	 2.5933903863	 1.9419639719	 0.117139
H	-0.0946396056	 3.5235360372	 3.0361884671	 0.10979
H	 1.9136531975	 3.7391168882	 1.4668930567	 0.092585
H	-0.1040817122	 3.3891174445	-1.7771604455	 0.105726
H	 2.0570028746	 2.0217905552	-0.4385560352	 0.102114
147.2443	307.9252	412.0223	424.7684	501.3845	575.0773	595.3193	690.2271	712.7893	745.5674	776.5623	820.6424	828.244	875.7171	920.5591	949.6902	958.7677	1008.8566	1013.2014	1051.8658	1064.8696	1080.19	1125.442	1167.4843	1187.5227	1219.9228	1248.5169	1263.1048	1316.5236	1332.353	1371.5685	1662.2384	1887.8708	3119.8155	3123.5347	3135.1934	3141.9691	3193.442	3217.1899
O=C1C2C=CC3OC2C13	O=C1[C@H]2C=C[C@@H]3O[C@H]2[C@H]13	
InChI=1S/C7H6O2/c8-6-3-1-2-4-5(6)7(3)9-4/h1-5,7H	InChI=1S/C7H6O2/c8-6-3-1-2-4-5(6)7(3)9-4/h1-5,7H/t3-,4+,5+,7-/m1/s1
