18
gdb 115427	3.78875	1.03689	0.92232	3.7969	72.57	-0.2791	0.019	0.2981	1286.7631	0.147918	-439.101893	-439.093093	-439.092148	-439.136132	31.543	
C	 0.2617103741	 1.0656901481	 0.3626162266	-0.246449
O	-0.0962355382	-0.297054226	 0.202922221	-0.243909
C	-1.4194886498	-0.4905012816	-0.2034872836	 0.234835
C	-1.6596706373	-1.9895665239	-0.3440812152	-0.256168
C	-1.9776713079	-2.3851353829	 1.1048783513	-0.256137
C	-2.7563290239	-1.1461544756	 1.6064724992	-0.018503
O	-2.3451125573	-0.0475761465	 0.7897756564	-0.272146
C	-4.2167561645	-1.3175759503	 1.481926933	 0.272977
N	-5.3586129755	-1.4696605647	 1.3933772982	-0.320051
H	 1.3162967586	 1.0864868348	 0.6441397205	 0.130247
H	 0.1301891855	 1.6232655695	-0.5766117827	 0.110923
H	-0.3355518542	 1.5485926097	 1.1442130297	 0.129073
H	-1.6355147124	 0.1042486886	-1.1014941411	 0.083922
H	-2.5187355929	-2.166394724	-0.9972357278	 0.127598
H	-0.7873177558	-2.499040985	-0.7535033864	 0.127095
H	-2.5551687533	-3.3052501227	 1.1978273761	 0.132165
H	-1.055725454	-2.4845412694	 1.6810282027	 0.132613
H	-2.5336359911	-0.9200435482	 2.6546963821	 0.131917
53.8708	109.7756	118.9147	173.9138	220.8691	246.5762	304.3543	411.7082	462.681	528.8494	604.778	688.1704	761.4828	820.572	864.1599	928.9064	932.4492	956.6878	989.2167	1049.8889	1056.2321	1100.0489	1134.3584	1172.6362	1181.8184	1216.1608	1232.6804	1286.1297	1321.6358	1337.5492	1363.6673	1372.8506	1398.8336	1477.2635	1478.9731	1485.3087	1492.3557	1513.8559	2358.4204	2996.3394	3020.9445	3053.5689	3070.2581	3075.286	3087.1883	3130.17	3138.7449	3147.3908
COC1CCC(O1)C#N	CO[C@H]1CC[C@@H](O1)C#N	
InChI=1S/C6H9NO2/c1-8-6-3-2-5(4-7)9-6/h5-6H,2-3H2,1H3	InChI=1S/C6H9NO2/c1-8-6-3-2-5(4-7)9-6/h5-6H,2-3H2,1H3/t5-,6-/m1/s1
