19
gdb 37604	2.65777	1.98184	1.44373	0.6905	86.73	-0.2089	-0.0202	0.1887	953.2618	0.161056	-348.684094	-348.676934	-348.675989	-348.714983	30.113	
C	-0.0842196056	 1.0247063634	-0.5354493721	-0.283256
C	 1.3640343537	 1.1290094942	 0.0569659489	-0.078786
C	 0.7569296029	 0.4369322249	 1.2921550312	-0.137002
C	 1.6841709858	-1.0317427649	-0.9883769014	 0.240772
C	 0.6858646934	-1.8696296652	-1.1265879143	-0.23301
C	-0.1081013595	-2.3655812328	 0.0883130308	-0.217651
C	-1.094494002	-1.2539362733	 0.6041965512	-0.313398
C	-0.3343417506	 0.04522738	 0.613776554	 0.249328
C	 2.2878354197	 0.0453107026	-0.5509556137	-0.224229
H	-0.6444259229	 1.9582919938	-0.4279937727	 0.100957
H	-0.1682684133	 0.6674559427	-1.5634440753	 0.101591
H	 1.8477086951	 2.1081502349	 0.1216801673	 0.062939
H	 1.2272261189	 0.0951001132	 2.2079833728	 0.089931
H	 0.2734787568	-2.0827755438	-2.1119990399	 0.106931
H	-0.6657374562	-3.2746649043	-0.1577961312	 0.10059
H	 0.580930879	-2.6084307312	 0.901644608	 0.116467
H	-1.968479388	-1.1910854806	-0.0531377435	 0.104488
H	-1.4560565513	-1.5350288453	 1.5997070438	 0.108211
H	 3.3610250039	 0.1299161517	-0.4088032738	 0.105127
180.8197	246.6047	274.469	326.7038	353.0145	436.4952	456.9203	544.746	598.5821	620.162	695.6339	763.8774	795.6289	819.1182	848.512	874.3096	890.7271	904.3805	927.8492	947.7086	974.4857	1016.701	1040.8665	1089.6956	1121.0869	1146.5941	1171.0801	1197.2368	1206.3752	1220.7172	1246.008	1291.4766	1302.8002	1324.9448	1342.6222	1431.2296	1475.407	1484.0716	1487.2026	1659.574	1992.6246	3034.12	3050.7794	3051.1426	3061.5842	3076.2787	3102.4287	3114.3832	3126.995	3165.2217	3183.3889
C1C2C3C4=CCCC13C24	C1[C@H]2[CH][C]1CCC=C=C2	
InChI=1S/C9H10/c1-2-5-7-6-4-9(7,3-1)8(5)6/h2,6-8H,1,3-4H2	InChI=1S/C9H10/c1-2-4-8-6-9(7-8)5-3-1/h1,5-6,9H,2,4,7H2/t3?,9-/m1/s1
