23
gdb 122352	3.3872	0.7347	0.68993	1.6753	84.	-0.2418	0.071	0.3128	1782.1711	0.203251	-425.401028	-425.390043	-425.389099	-425.438064	39.053	
C	-0.1098474701	 1.554304968	-0.1628421333	-0.384308
C	 0.0660061421	 0.0553730036	 0.0152232839	-0.022522
O	 0.683009055	-0.4655831979	-1.1415941982	-0.246097
C	 0.9026728297	-1.8615647528	-1.0722547041	-0.072468
C	 1.5494828526	-2.2906135065	-2.3645422366	-0.060881
C	 1.7014529349	-3.7520604546	-2.7544271813	-0.07193
C	 1.200312401	-4.88589478	-1.8839787213	-0.417153
C	 0.7335234367	-2.8514807829	-3.4965311324	 0.079495
O	-0.6403796213	-2.983355354	-3.26426201	-0.413977
H	 0.8597597064	 2.0392442216	-0.3084271888	 0.123253
H	-0.7318426732	 1.7647558164	-1.0374548358	 0.127437
H	-0.5885804685	 1.9914358133	 0.7186980047	 0.110578
H	 0.6820215637	-0.1577469693	 0.9067603938	 0.078797
H	-0.9107672566	-0.4314169239	 0.1794511318	 0.084428
H	 1.5615405017	-2.096222091	-0.2174170842	 0.077605
H	-0.047561594	-2.389610535	-0.9136271034	 0.101765
H	 2.3676191904	-1.6357617164	-2.6503548299	 0.092036
H	 2.619747891	-3.9819286531	-3.2895500042	 0.082557
H	 0.1985743854	-4.6853735403	-1.4975019276	 0.128354
H	 1.1542653386	-5.819716554	-2.4561528156	 0.110993
H	 1.8640628936	-5.0595450279	-1.0303706037	 0.120066
H	 0.9903806345	-2.5419395496	-4.5093383646	 0.083158
H	-0.9430649236	-3.7796427839	-3.7131238993	 0.288813
40.3679	72.2613	98.1416	121.2884	165.5178	191.4013	217.6134	248.2944	269.7739	312.8797	357.9475	408.6692	499.4345	578.7085	597.4242	763.2503	800.8959	820.2357	885.9416	924.5977	947.9407	992.8339	1027.3952	1044.5765	1079.4639	1120.0232	1134.6225	1152.8471	1163.22	1180.0535	1182.0362	1197.1104	1250.4496	1272.1725	1294.6915	1297.2712	1351.7088	1382.7167	1394.2012	1408.2241	1417.524	1450.8616	1467.5523	1483.4018	1499.228	1500.9417	1506.9341	1511.4606	1537.0723	2940.3225	2950.7769	2969.4611	3023.3563	3032.4169	3043.5455	3085.272	3097.3991	3117.1736	3119.8652	3120.7324	3135.0476	3152.8347	3805.4081
CCOCC1C(C)C1O	CCOC[C@H]1[C@@H](C)[C@H]1O	
InChI=1S/C7H14O2/c1-3-9-4-6-5(2)7(6)8/h5-8H,3-4H2,1-2H3	InChI=1S/C7H14O2/c1-3-9-4-6-5(2)7(6)8/h5-8H,3-4H2,1-2H3/t5-,6+,7-/m1/s1
