16
gdb 8230	5.69446	1.0344	1.00221	3.6225	62.28	-0.2496	0.0503	0.2999	1170.8382	0.131172	-417.071108	-417.062913	-417.061969	-417.104857	29.078	
N	 0.0541986829	 1.371045511	 0.0691376034	-0.567232
C	 0.1219383995	-0.010544029	-0.0634051876	 0.45363
O	 1.1665592069	-0.6029039987	-0.2543261827	-0.385136
N	-1.1007302331	-0.6402884493	 0.0701958081	-0.34962
C	-1.2046792649	-2.0708734498	 0.1101656922	 0.011886
C	-1.749169541	-2.7634558065	 1.3847536604	-0.092168
O	-2.7083240568	-3.5062437313	 0.6070966545	-0.268789
C	-2.4184306889	-2.7380906206	-0.5770067804	-0.094195
H	 0.8996607022	 1.8258517352	-0.240944058	 0.262903
H	-0.7911799261	 1.8321460337	-0.2329751416	 0.247374
H	-1.8681229418	-0.1078204225	 0.4503851738	 0.237991
H	-0.2426855921	-2.4637185319	-0.2149576982	 0.137217
H	-1.0632649574	-3.4160124125	 1.9355783894	 0.115717
H	-2.2334965526	-2.0728195938	 2.091944782	 0.088606
H	-3.2275125693	-2.034615063	-0.8243597667	 0.088602
H	-2.2185945976	-3.3728937109	-1.4471698887	 0.113213
43.6979	88.1917	91.8422	208.8833	347.2615	352.61	395.4103	451.2071	488.3326	553.7352	628.8968	772.1678	784.2751	882.6867	891.2504	966.2645	1021.3339	1027.3237	1034.3894	1093.4627	1132.7667	1149.9208	1160.9653	1227.1066	1273.563	1298.5954	1302.6005	1358.2126	1401.6258	1506.7997	1534.3775	1545.8568	1628.496	1806.4503	2983.1597	2995.3546	3063.439	3065.9767	3143.0082	3572.6999	3616.7822	3686.6953
NC(=O)NC1COC1	NC(=O)NC1COC1	
InChI=1S/C4H8N2O2/c5-4(7)6-3-1-8-2-3/h3H,1-2H2,(H3,5,6,7)	InChI=1S/C4H8N2O2/c5-4(7)6-3-1-8-2-3/h3H,1-2H2,(H3,5,6,7)
