18
gdb 128511	3.00181	1.31867	0.94421	2.0421	75.46	-0.2062	0.0439	0.2501	1239.0407	0.147886	-435.272457	-435.262713	-435.261769	-435.307644	34.389	
C	-0.6553119046	 0.7092759832	 0.1425170953	-0.247372
O	 0.6931173782	 0.7061850522	-0.3366304039	-0.275105
C	 1.0276304142	-0.2835437935	-1.1826681408	 0.44925
C	 0.6766493129	-1.6188594241	-1.3271266369	-0.085531
N	-0.2670518191	-2.3369918563	-0.5353201688	-0.614679
C	 1.4801664521	-2.072112235	-2.4122210611	 0.323616
C	 1.5041006519	-3.4435785757	-3.0070753809	-0.498329
N	 2.2621246103	-1.1095052652	-2.8877318549	-0.303952
N	 1.9677662517	-0.027827881	-2.1223994157	-0.278743
H	-1.3573349275	 0.8397207605	-0.6894017725	 0.121679
H	-0.8924083697	-0.221327896	 0.6616136918	 0.152943
H	-0.7268180115	 1.5611990674	 0.8203944071	 0.128586
H	 0.1962315133	-2.9325689466	 0.1451584562	 0.239061
H	-0.8372833425	-2.9457411096	-1.1134780232	 0.236473
H	 0.5407539918	-3.7087919645	-3.4599140308	 0.120074
H	 2.2693213023	-3.4943630981	-3.7844125254	 0.142977
H	 1.7251332539	-4.2071481806	-2.252060099	 0.118443
H	 2.4403139723	 0.8466470029	-2.2725438866	 0.270608
34.3244	120.0002	128.1056	178.6331	185.4098	222.1329	258.3552	298.5143	336.4118	388.407	474.9325	512.4965	598.4681	692.5896	715.0753	722.7333	779.757	863.9812	995.5566	1019.454	1063.6745	1082.9083	1159.8603	1184.0234	1209.0827	1228.3499	1282.672	1310.6681	1400.1353	1425.2026	1469.6224	1479.7324	1481.7307	1485.043	1508.4858	1514.048	1553.7218	1630.9445	1675.9609	3023.8889	3030.9566	3070.5642	3113.757	3131.1277	3151.4499	3485.5596	3554.7404	3681.3098
COC1=C(N)C(C)=NN1	COc1c(N)c(C)n[nH]1	
InChI=1S/C5H9N3O/c1-3-4(6)5(9-2)8-7-3/h6H2,1-2H3,(H,7,8)	InChI=1S/C5H9N3O/c1-3-4(6)5(9-2)8-7-3/h6H2,1-2H3,(H,7,8)
