22
gdb 40767	2.8002	1.3285	1.08343	1.1155	86.64	-0.2234	0.0884	0.3118	1217.7076	0.194748	-367.151162	-367.142557	-367.141613	-367.184604	33.681	
C	-0.1818866903	 1.0458294433	-0.4639519006	-0.222721
C	 1.1841572882	 0.9778974939	 0.1270293307	-0.222431
N	 0.3069179948	-0.185180581	 0.1412749949	-0.083219
C	-0.2144682791	-0.6408882492	 1.4159714171	-0.005561
C	-0.8651647274	 0.2893241449	 2.4993104152	-0.256363
C	-1.9600754192	-0.7978480411	 2.7135909175	-0.305925
C	-1.5203051664	-1.4460553397	 1.3957562196	 0.365903
C	-2.3844990351	-1.6479865698	 0.1841455641	-0.314413
C	-1.7547671038	-2.8322948308	 0.8840609704	-0.334333
H	-0.9244097508	 1.6407398033	 0.06191217	 0.112664
H	-0.3165262724	 1.0107418392	-1.5416614879	 0.11365
H	 2.0631346423	 0.9064170645	-0.5081337455	 0.114295
H	 1.3401844757	 1.5117613021	 1.0631441055	 0.111111
H	 0.5868238133	-1.2291821854	 1.8801126516	 0.079726
H	-0.2460319667	 0.5536445679	 3.3593474586	 0.095103
H	-1.2883560968	 1.2047830776	 2.079088618	 0.104274
H	-1.7554973964	-1.4289390144	 3.5843074175	 0.101306
H	-2.9938133251	-0.4474991092	 2.7735192016	 0.098555
H	-3.4548978037	-1.499135627	 0.2895728904	 0.104011
H	-1.9781868168	-1.3609493321	-0.779297209	 0.123314
H	-0.9317931034	-3.3342953313	 0.3848628263	 0.114976
H	-2.397981781	-3.4890891659	 1.4617032642	 0.106077
76.4329	88.9277	149.9564	232.2571	263.2947	301.9862	353.8904	442.7546	516.4582	548.7064	695.5969	762.4554	781.8456	811.7708	855.0399	867.3925	894.8301	907.3454	911.0866	934.008	973.5066	997.6964	1033.3306	1047.9535	1067.3557	1075.7019	1104.1117	1118.2464	1120.6205	1132.0585	1172.6471	1184.6226	1190.763	1192.5564	1237.2211	1248.6414	1273.4508	1285.1398	1335.6035	1376.7165	1386.9095	1457.0957	1475.6469	1491.8399	1499.0693	1504.2215	1523.1599	3024.6604	3046.9875	3066.1958	3093.5155	3094.9132	3105.4109	3120.0881	3121.262	3126.0704	3174.3686	3189.9637	3200.9663	3218.3077
C1CN1C1CCC11CC1	C1CN1[C@H]1CCC21CC2	
InChI=1S/C8H13N/c1-2-8(3-4-8)7(1)9-5-6-9/h7H,1-6H2	InChI=1S/C8H13N/c1-2-8(3-4-8)7(1)9-5-6-9/h7H,1-6H2/t7-/m0/s1
