18
gdb 87092	4.17995	0.69703	0.66336	4.4076	88.34	-0.2453	-0.0587	0.1866	1720.3148	0.144119	-401.894613	-401.884462	-401.883518	-401.930755	35.134	
C	-0.1458596576	 1.4306645901	-0.1518029549	-0.317403
N	 0.0780954899	 0.0006397387	 0.0093857206	-0.093092
C	 1.4244875939	-0.5086372244	-0.124200807	-0.265879
C	 0.7529222594	-0.5012497595	 1.227902273	 0.072462
C	 1.2676670553	 0.4302018612	 2.3165352525	-0.465101
C	 0.2088832535	-1.7409128313	 1.720155955	 0.089215
C	-0.2168960043	-2.7762466101	 2.177409821	 0.080212
C	-0.7527838293	-4.0165828275	 2.6680423221	 0.012571
O	-0.5753766935	-4.4510423074	 3.7842414141	-0.234918
H	 0.7055937847	 2.0662730306	 0.1320283238	 0.105387
H	-0.3686268472	 1.6196360351	-1.2064780377	 0.135165
H	-1.0176167676	 1.7304137322	 0.4370795746	 0.133858
H	 1.5383208739	-1.4381773913	-0.6746479041	 0.127913
H	 2.2413848339	 0.2035597638	-0.2451290658	 0.114204
H	 1.7550445742	 1.313232034	 1.9002043449	 0.124794
H	 0.4505981681	 0.7558135815	 2.9675524846	 0.138259
H	 1.997268614	-0.0977549887	 2.9365461788	 0.144232
H	-1.3634753211	-4.5684298169	 1.9242546744	 0.098121
41.264	72.3965	101.4986	173.4074	178.1145	190.5408	221.4418	292.4722	312.7124	373.8419	433.9573	527.308	554.6427	572.9524	708.4048	751.6175	837.045	925.1559	964.9502	1021.0335	1062.3112	1064.3376	1091.5062	1125.2658	1141.6299	1174.307	1201.8669	1288.1117	1359.316	1409.734	1421.6592	1447.2867	1482.0602	1485.0067	1496.9765	1502.2592	1508.2397	1762.4198	2319.4308	2915.2444	2993.3226	3049.6814	3076.7416	3081.2511	3111.109	3115.8591	3137.9151	3181.4513
CN1CC1(C)C#CC=O	CN1C[C@]1(C)C#CC=O	
InChI=1S/C7H9NO/c1-7(4-3-5-9)6-8(7)2/h5H,6H2,1-2H3	InChI=1S/C7H9NO/c1-7(4-3-5-9)6-8(7)2/h5H,6H2,1-2H3/t7-,8?/m0/s1
