25
gdb 101609	2.54649	0.90817	0.80683	1.9665	85.57	-0.2491	0.0618	0.3108	1588.8739	0.225136	-426.632723	-426.620862	-426.619918	-426.6695	43.954	
C	-1.5564332246	-0.1612696862	-0.3089107313	-0.396276
C	-0.060606371	 0.072489296	-0.0440416564	 0.016765
C	 0.3283277617	-0.4693421957	 1.3341190101	-0.07539
O	-0.4721586583	 0.1950891229	 2.308864849	-0.427972
C	 0.7715985819	-0.5410228648	-1.1874700765	-0.187545
C	 2.2795963618	-0.2298253223	-1.2775715141	 0.324535
C	 2.8322277031	-0.8031166884	-2.5928702191	-0.403254
C	 2.5830672537	 1.2725515721	-1.1873478625	-0.416922
O	 2.9005230019	-0.917954069	-0.1789815709	-0.451196
H	-1.8715326019	 0.3127542721	-1.2444951986	 0.100426
H	-1.7745707455	-1.2335717175	-0.3887831808	 0.104254
H	-2.1578948919	 0.2442821639	 0.5066459208	 0.133469
H	 0.1050941281	 1.1571746244	-0.0192978079	 0.077102
H	 0.1545531878	-1.5590049239	 1.3555059671	 0.076137
H	 1.3952607853	-0.3069736458	 1.5181777627	 0.103335
H	-0.2069852056	-0.1241331827	 3.1756304048	 0.28305
H	 0.6696680076	-1.6339254821	-1.1570792789	 0.098379
H	 0.3199070904	-0.2200018869	-2.1338443403	 0.090908
H	 2.3904707414	-0.3101869947	-3.4648964184	 0.113196
H	 3.918374398	-0.6620269373	-2.6464658958	 0.098109
H	 2.6259837029	-1.8753457344	-2.6571909751	 0.120527
H	 2.2893868074	 1.6774200641	-0.2162243999	 0.130364
H	 3.6572868806	 1.4517405818	-1.3169261684	 0.099172
H	 2.0601303288	 1.8334416148	-1.9689433893	 0.115789
H	 3.8443377762	-0.7279931601	-0.2106177404	 0.273039
40.511	90.2476	134.4538	174.5395	229.3448	234.4228	237.9218	245.694	269.707	292.1069	303.0602	315.1923	343.8175	396.8209	415.3882	450.7057	503.1502	569.884	764.0566	815.9288	883.6933	909.5135	921.6876	932.3577	958.3191	994.7881	1009.0056	1060.7393	1070.8307	1106.5324	1149.4362	1162.5339	1182.8555	1210.3547	1252.4792	1268.8727	1306.7539	1332.5188	1368.6014	1369.7448	1396.4108	1400.3538	1403.0557	1418.5702	1455.3834	1468.6969	1481.8347	1484.9232	1492.7508	1501.0901	1507.4945	1509.4818	1524.3886	2957.2416	3016.7836	3023.0783	3024.153	3030.6109	3031.5475	3060.848	3070.6207	3087.8144	3088.6287	3095.8085	3114.8153	3124.9377	3133.6926	3803.1906	3836.5104
CC(CO)CC(C)(C)O	C[C@@H](CO)CC(C)(C)O	
InChI=1S/C7H16O2/c1-6(5-8)4-7(2,3)9/h6,8-9H,4-5H2,1-3H3	InChI=1S/C7H16O2/c1-6(5-8)4-7(2,3)9/h6,8-9H,4-5H2,1-3H3/t6-/m1/s1
