15
gdb 20118	4.99778	1.36644	1.19919	4.3563	63.63	-0.254	-0.0152	0.2389	997.5834	0.118168	-399.763162	-399.755579	-399.754634	-399.795965	26.595	
O	-0.0984088289	 0.2794732448	 0.7151116886	-0.337134
C	-0.1058521142	 1.3625266876	 0.1782035451	 0.363839
C	 1.0772354747	 2.2979769873	 0.195709323	-0.020728
C	 1.9227768923	 2.3408198196	 1.4056420201	-0.16499
O	 2.3559733622	 1.6713743202	 0.2345894075	-0.206476
N	-1.1797288715	 1.8444683207	-0.5683559467	-0.088083
C	-1.975937446	 3.0077248031	-0.2011072364	-0.236239
C	-2.5497823672	 1.6212501868	-0.1769604251	-0.215312
H	 1.0114633722	 3.1760349572	-0.4438299001	 0.106371
H	 2.4481702896	 3.2629450426	 1.6504183269	 0.119424
H	 1.661059597	 1.6911660675	 2.2382468896	 0.137151
H	-1.7715289393	 3.4812239025	 0.7561962385	 0.133644
H	-2.2247073469	 3.6893319907	-1.0094930553	 0.132985
H	-3.2228265049	 1.3078372172	-0.9691834515	 0.133024
H	-2.7128173491	 1.1490071722	 0.7878731558	 0.142522
50.7505	97.5428	176.4381	200.7902	285.0156	312.8329	425.2884	593.8852	753.5522	777.5366	818.2905	864.834	897.7925	940.0134	970.4363	1026.6567	1046.6389	1099.8292	1120.1028	1133.1927	1137.2583	1163.9883	1169.162	1175.5993	1181.2556	1278.0403	1371.215	1430.6763	1495.541	1509.4894	1522.6567	1799.2296	3087.8614	3107.9009	3120.0839	3134.1247	3187.3465	3194.6886	3212.1004
O=C(C1CO1)N1CC1	O=C([C@H]1CO1)N1CC1	
InChI=1S/C5H7NO2/c7-5(4-3-8-4)6-1-2-6/h4H,1-3H2	InChI=1S/C5H7NO2/c7-5(4-3-8-4)6-1-2-6/h4H,1-3H2/t4-/m1/s1
