18
gdb 73417	2.71073	2.31837	1.63626	1.6791	73.14	-0.2331	0.0746	0.3077	866.3828	0.149488	-401.891245	-401.884619	-401.883675	-401.921781	27.681	
C	 0.0394239197	 1.456286112	-0.050031134	-0.478936
C	 0.0150750551	-0.0501957277	 0.0254889101	 0.467412
O	 0.8804069019	-0.6045885864	-0.9529279619	-0.316938
C	 1.0937186168	-1.9792133892	-0.5968915172	-0.090927
C	 0.3784616916	-2.1475734038	 0.7371931139	-0.00882
C	 0.2977386852	-0.7556141202	 1.3935690908	-0.171621
C	-1.2331653691	-1.002732055	 1.5517077735	-0.061311
C	-1.3724934614	-0.7160092403	 0.1046031036	-0.124244
N	-1.1289814811	-2.125673368	 0.5775368331	-0.158275
H	 1.0592895749	 1.8279631789	 0.0843494469	 0.126317
H	-0.3203291419	 1.7952727036	-1.0265153885	 0.129452
H	-0.6016442643	 1.8906304934	 0.7222630203	 0.122904
H	 0.6659765129	-2.6441592348	-1.3582465421	 0.112215
H	 2.1725477421	-2.1686169833	-0.5296952601	 0.101622
H	 0.6843021932	-3.0002185835	 1.3433257332	 0.082197
H	 1.0157487442	-0.3598677129	 2.1083227585	 0.072855
H	-1.9305057899	-0.9755597718	 2.3764702002	 0.101876
H	-2.25468497	-0.5462658208	-0.5001588703	 0.094221
213.4547	218.6679	275.3572	296.7275	409.7352	512.5068	586.5731	673.9903	718.0879	768.6291	790.8427	830.1133	850.4401	876.2469	893.4683	915.4738	930.5346	946.0509	971.6185	998.6911	1038.1042	1060.8981	1078.113	1121.1897	1138.7229	1161.6621	1175.6935	1204.165	1211.2895	1230.6548	1271.0092	1287.2866	1311.1647	1351.62	1381.5764	1413.846	1479.7426	1496.5953	1510.6879	3014.1974	3041.9711	3053.0762	3111.6283	3117.954	3121.3825	3141.9747	3191.7026	3222.4667
CC12OCC3C1C1C2N31	C[C@@]12OC[C@H]3[C@@H]1[C@H]1[C@@H]2N31	
InChI=1S/C7H9NO/c1-7-4-3(2-9-7)8-5(4)6(7)8/h3-6H,2H2,1H3	InChI=1S/C7H9NO/c1-7-4-3(2-9-7)8-5(4)6(7)8/h3-6H,2H2,1H3/t3-,4+,5-,6-,7+,8?/m0/s1
