15
gdb 125724	5.9066	0.98206	0.89678	2.1974	68.97	-0.2777	-0.0333	0.2444	1277.5948	0.112358	-453.929392	-453.921504	-453.92056	-453.962641	27.952	
C	 0.2226014306	 1.4693301824	-0.0464745277	-0.489933
C	-0.0122273528	-0.0001677527	 0.0008834985	 0.351641
N	-0.4416036292	-0.6758239522	-1.0335263041	-0.161902
O	-0.5188825969	-1.9935306444	-0.5579465257	-0.201781
C	-0.1212422418	-1.9545238491	 0.717415716	 0.436781
N	 0.2058654103	-0.766870457	 1.1285736441	-0.357868
C	-0.107159406	-3.1988497438	 1.5072966206	-0.051968
C	-1.0546238146	-4.2960868973	 1.2347851112	-0.16926
O	 0.3057418709	-4.3870361529	 0.8310174662	-0.213977
H	 1.2675348593	 1.6925467579	 0.1882795126	 0.152203
H	-0.015249976	 1.8595175163	-1.0368947934	 0.152355
H	-0.3967771552	 1.9755794795	 0.6998359515	 0.150465
H	 0.2873727478	-3.0619008499	 2.5107334669	 0.130648
H	-1.3496182377	-4.9461257545	 2.0567222421	 0.130966
H	-1.7751184288	-4.1839510522	 0.4276688413	 0.141629
53.4492	132.2718	153.2302	162.2184	281.5232	306.0555	433.5799	457.2048	646.4848	687.0939	727.0394	774.6569	864.3045	900.3276	928.7259	993.6795	1001.0633	1040.6695	1058.1797	1071.6421	1097.9634	1160.0767	1169.9235	1263.8207	1328.3487	1379.9888	1389.4718	1424.0426	1473.503	1475.5222	1517.2821	1570.7272	1631.855	3052.9775	3094.5281	3113.7088	3152.5145	3157.8594	3191.8421
CC1=NOC(=N1)C1CO1	Cc1noc(n1)[C@H]1CO1	
InChI=1S/C5H6N2O2/c1-3-6-5(9-7-3)4-2-8-4/h4H,2H2,1H3	InChI=1S/C5H6N2O2/c1-3-6-5(9-7-3)4-2-8-4/h4H,2H2,1H3/t4-/m1/s1
