16
gdb 129825	5.39765	1.01726	0.89494	2.9299	73.98	-0.213	0.0231	0.2361	1269.2052	0.125413	-434.030641	-434.022749	-434.021804	-434.063344	29.813	
N	 0.005272024	 1.3783015368	-0.2503454592	-0.596941
C	-0.0590660158	 0.0158567028	-0.0806181733	 0.511124
C	-1.0570667218	-0.9019352112	-0.2369356077	-0.460866
C	-0.3989382006	-2.1342207044	 0.0367488057	 0.448402
N	 0.8761947101	-1.9835815667	 0.325107263	-0.236452
O	 1.0903348619	-0.5839820358	 0.2551251892	-0.222374
N	-1.0072061221	-3.3874946018	 0.0812327077	-0.149646
C	-1.2975482902	-4.0823167949	-1.1764689098	-0.233921
C	-0.217544882	-4.5620444804	-0.2679712617	-0.217899
H	 0.7733353863	 1.8146318765	 0.2404085206	 0.266284
H	-0.8692580065	 1.8619152928	-0.1123056911	 0.264755
H	-2.090020565	-0.7403758464	-0.4914081013	 0.107069
H	-2.2558236366	-4.5916258077	-1.2121217968	 0.122436
H	-0.9945398858	-3.5960968139	-2.1003146609	 0.12828
H	 0.8106757111	-4.3953520866	-0.5729381692	 0.146664
H	-0.3838732169	-5.4299345191	 0.3624037349	 0.123086
67.931	132.9617	190.6505	268.2209	271.8604	367.9222	423.9228	502.5639	570.8848	592.7596	691.7541	718.5029	734.7884	767.1536	821.8477	899.7028	905.9835	932.0048	1016.2668	1033.2285	1048.9392	1087.4252	1115.9348	1134.5141	1165.9017	1178.2244	1190.6191	1297.6277	1375.9848	1491.8132	1503.5579	1517.7742	1545.0656	1626.0957	1676.8983	3111.005	3125.9415	3198.8788	3218.9449	3283.2821	3569.7672	3674.7411
NC1=CC(=NO1)N1CC1	Nc1cc(no1)N1CC1	
InChI=1S/C5H7N3O/c6-4-3-5(7-9-4)8-1-2-8/h3H,1-2,6H2	InChI=1S/C5H7N3O/c6-4-3-5(7-9-4)8-1-2-8/h3H,1-2,6H2
