21
gdb 92116	2.59376	1.60729	1.2054	1.7378	82.04	-0.255	0.0647	0.3197	1108.2762	0.182587	-387.045188	-387.036892	-387.035948	-387.078445	32.635	
C	-0.3679296066	 1.5123569677	 0.1283614756	-0.402945
C	 0.0112566556	 0.0395574018	 0.04275658	 0.041812
C	 1.1826142656	-0.3758334598	-0.9051950388	-0.252286
C	 1.8853984873	-1.1138603458	 0.2632646004	-0.007984
C	 2.909452554	-0.2413716961	 1.0445686893	-0.335686
C	 1.7810023032	 0.1524265522	 2.0085802474	 0.466438
C	 1.8658011359	 0.3822398448	 3.4531108603	-0.264366
O	 1.5873635162	 1.4539569118	 2.543617066	-0.269347
C	 0.7328063144	-0.6549715569	 1.2418927407	-0.155606
H	 0.4973693102	 2.1418434901	 0.3504159979	 0.132513
H	-0.7996581694	 1.8483773636	-0.821485378	 0.104997
H	-1.1090096763	 1.6882147616	 0.915143333	 0.114384
H	-0.8823616383	-0.5441996606	-0.2017853598	 0.0713
H	 0.8767169875	-1.0201405509	-1.73322043	 0.097675
H	 1.7589028727	 0.4574776225	-1.3204149768	 0.094806
H	 2.1481049709	-2.1607249096	 0.1155267523	 0.066181
H	 3.7242895919	-0.7961651661	 1.5183035116	 0.103885
H	 3.3383588176	 0.5887038222	 0.4753226015	 0.109208
H	 1.0377855677	 0.0918371136	 4.0995572675	 0.112202
H	 2.8414319937	 0.4227182078	 3.9373908163	 0.111245
H	 0.1266595164	-1.3399467038	 1.8381756938	 0.061572
35.467	143.2452	231.1543	263.8879	293.518	333.7132	371.4118	385.4024	484.6524	593.0013	654.1723	759.5291	800.2594	825.8945	847.1499	872.2072	884.5874	906.5376	931.8359	959.16	987.9347	1015.7002	1065.0767	1101.7537	1116.6955	1125.8506	1127.395	1147.549	1165.8798	1188.9101	1211.6553	1227.9237	1242.1211	1259.3474	1283.6981	1298.3975	1314.3107	1362.6689	1415.7648	1427.5148	1471.6787	1488.4221	1492.7221	1495.5533	1529.289	3030.4328	3038.813	3045.3515	3049.5422	3072.5847	3083.6079	3093.0133	3096.449	3098.8303	3116.9114	3121.5134	3158.8937
CC1CC2CC3(CO3)C12	C[C@H]1C[C@H]2C[C@]3(CO3)[C@@H]12	
InChI=1S/C8H12O/c1-5-2-6-3-8(4-9-8)7(5)6/h5-7H,2-4H2,1H3	InChI=1S/C8H12O/c1-5-2-6-3-8(4-9-8)7(5)6/h5-7H,2-4H2,1H3/t5-,6-,7-,8-/m0/s1
