17
gdb 41617	4.14912	1.27865	1.15659	1.8865	67.61	-0.2257	0.0668	0.2925	1068.6305	0.13652	-458.897819	-458.890453	-458.889508	-458.930568	27.758	
C	-0.018348356	 1.4305700249	-0.0683679296	-0.095131
O	 1.4375496569	 1.4600162399	-0.1389476519	-0.286214
C	 1.4916277635	 0.0448637019	 0.0536350688	 0.006856
C	-0.029207383	-0.0893339429	 0.0202411477	-0.223208
C	 0.8338890066	-0.6588766684	-1.0851653323	 0.4037
C	 0.8668591539	-0.2352073516	-2.5500485208	-0.185877
O	 1.348848218	-1.4031842378	-3.2068028956	-0.234706
C	 0.8761177458	-2.4699460106	-2.4298292243	 0.01268
O	 0.9638472223	-2.0640467967	-1.0749046284	-0.300641
H	-0.3651300066	 1.9257005594	 0.8455373586	 0.117125
H	-0.4872065761	 1.9022629651	-0.9404786792	 0.108974
H	 2.2618440591	-0.375197288	 0.6902832288	 0.115178
H	-0.693377083	-0.7100517357	 0.6057873523	 0.110565
H	-0.1361287557	 0.0350419833	-2.914900534	 0.099518
H	 1.5548176711	 0.5898238099	-2.7403039422	 0.141139
H	-0.1731346119	-2.7097661386	-2.6816379587	 0.085758
H	 1.5147729951	-3.3430579141	-2.5874736691	 0.124284
34.9543	170.8127	181.0622	271.8728	329.5526	417.4086	462.1693	555.7542	742.017	754.6888	782.4149	833.4595	913.2647	937.211	951.016	976.3274	1004.3831	1011.808	1027.1091	1061.9793	1082.7945	1091.7884	1122.1435	1151.0728	1156.9311	1186.9633	1200.1422	1228.4177	1257.7174	1265.8723	1331.6237	1355.4829	1426.5918	1448.4544	1515.6534	1520.3931	1542.8796	2935.6208	2984.2212	3022.1822	3069.5675	3095.7037	3120.3021	3182.1996	3211.3439
C1OC2C1C21COCO1	C1O[C@H]2[C@@H]1[C@]12COCO1	
InChI=1S/C6H8O3/c1-4-5(8-1)6(4)2-7-3-9-6/h4-5H,1-3H2	InChI=1S/C6H8O3/c1-4-5(8-1)6(4)2-7-3-9-6/h4-5H,1-3H2/t4-,5+,6+/m1/s1
