12
gdb 132231	2.08433	1.86058	0.98305	1.1946	61.	-0.2584	-0.0345	0.2239	1060.9021	0.078326	-513.971543	-513.964586	-513.963642	-514.00334	26.01	
F	 0.0722696222	 0.0918350679	 0.0390810984	-0.026539
C	-0.0784731697	 1.3901483562	-0.0122284878	 0.419173
C	-1.2424922026	 2.0197735957	 0.1456386289	-0.382585
C	-1.2653035408	 3.4681845876	 0.0638381443	 0.414644
N	-2.3361905858	 4.1446685084	 0.2031026452	-0.530902
N	 0.0122535782	 4.0204042948	-0.182799727	-0.456875
C	 1.2008412688	 3.3571194631	-0.3421047942	 0.501878
O	 2.2608828049	 3.8653427793	-0.5506853664	-0.347461
O	 1.1111985805	 1.9731241886	-0.2459015073	-0.231448
H	-2.1573725711	 1.4798297407	 0.3307470111	 0.151683
H	-2.1741613844	 5.1486061784	 0.1165489872	 0.21395
H	 0.0960832799	 5.0243278092	-0.2564439524	 0.274484
134.0776	148.1605	195.5977	360.4195	377.3642	493.7042	522.3686	597.8521	613.836	653.616	659.79	690.4763	753.6666	826.6307	855.669	917.3219	984.8613	1032.686	1133.678	1221.9662	1247.5851	1376.177	1417.4684	1424.9582	1722.6092	1758.5728	1897.0201	3269.179	3473.4771	3620.2544
FC1=CC(=N)NC(=O)O1	F[C]1C=C([NH])NC(=O)O1	
InChI=1S/C4H3FN2O2/c5-2-1-3(6)7-4(8)9-2/h1H,(H2,6,7,8)	InChI=1S/C4H3FN2O2/c5-2-1-3(6)7-4(8)9-2/h1H,(H2,6,7,8)
