14
gdb 8808	5.34092	1.2404	1.01955	0.0001	56.02	-0.2662	-0.0556	0.2106	1113.7615	0.104636	-456.861455	-456.852505	-456.85156	-456.896491	28.877	
C	-0.0160758901	 1.3610626542	 0.0096512016	-0.241901
O	 0.0297412532	-0.0724064312	-0.0449485738	-0.205204
C	 0.6406551959	-0.5765173029	-1.1179469024	 0.349278
O	 1.1366033195	 0.0594685038	-2.0081164158	-0.339709
C	 0.6175958866	-2.1167765822	-1.0487319116	 0.349278
O	 0.1217285845	-2.7527610114	-0.1585168368	-0.339707
O	 1.2284494628	-2.6208887501	-2.1217644794	-0.205205
C	 1.2742845655	-4.0543580855	-2.1763548013	-0.241901
H	 0.9953325828	 1.7748368766	 0.0205320241	 0.14686
H	-0.5507645632	 1.7588878012	-0.8564173996	 0.146923
H	-0.5417903996	 1.6034080803	 0.9322700572	 0.143753
H	 1.8091350899	-4.4521597258	-1.3103747886	 0.146921
H	 0.262883471	-4.4681537424	-2.1870510941	 0.146861
H	 1.7998453613	-4.2967048047	-3.0990609194	 0.143753
25.5707	110.8942	118.1786	130.6483	164.739	192.8588	291.2129	344.7957	383.8524	503.626	544.2242	784.1874	838.2735	873.3415	970.9086	1050.2999	1178.4488	1178.6801	1190.5955	1212.8885	1236.4919	1334.1981	1471.0904	1475.5739	1482.4423	1482.6101	1493.2989	1494.2901	1828.9373	1835.3481	3054.453	3054.7545	3130.0997	3130.1239	3169.0335	3169.0553
COC(=O)C(=O)OC	COC(=O)C(=O)OC	
InChI=1S/C4H6O4/c1-7-3(5)4(6)8-2/h1-2H3	InChI=1S/C4H6O4/c1-7-3(5)4(6)8-2/h1-2H3
