15
gdb 74313	2.33895	1.50725	0.91754	9.5787	80.41	-0.1619	-0.0121	0.1498	1189.7873	0.113563	-450.148358	-450.139947	-450.139003	-450.181199	31.641	
N	 0.0032513462	 1.3539202032	 0.1359521957	-0.5963
C	 0.0209218442	-0.0126566875	 0.0273945472	 0.486323
N	-1.0141785939	-0.8200333119	 0.0085693108	-0.32156
H	-2.0037923078	-0.613043359	-0.0025147883	 0.284934
C	-0.6066601909	-2.1759235265	-0.0062116774	 0.138422
C	-1.6340927307	-3.1405684211	-0.0267217861	 0.024791
O	-2.8328609939	-2.8299240918	-0.0301252341	-0.40242
C	 0.8229692053	-2.1891544968	-0.0040273129	 0.272252
N	 1.6614169631	-3.1590193571	-0.0086674884	-0.592348
N	 1.1420490816	-0.7661033672	 0.003086805	-0.384599
H	 0.7460924071	 1.8346641152	-0.3524788978	 0.275129
H	-0.8971154271	 1.7812261677	-0.0286075187	 0.277062
H	-1.3022908112	-4.1947043353	-0.0415241247	 0.082827
H	 2.6267825785	-2.8376722714	-0.0048652287	 0.192285
H	 2.0726883697	-0.4016854205	 0.1224437283	 0.263202
126.1019	159.2126	172.8899	223.2699	249.0958	307.7781	393.9459	419.8429	436.765	573.6808	601.3007	636.9741	645.5913	657.4345	684.6796	696.5146	718.4354	865.9474	965.0967	1012.1626	1057.6657	1098.6997	1180.0274	1231.2426	1256.9707	1318.9586	1372.8129	1499.2589	1568.3317	1640.3386	1679.7981	1703.2162	1740.1768	2962.0815	3502.1499	3560.7039	3607.4538	3660.6237	3661.3391
NC1=[NH+][C-](C=O)C(=N)N1	N[C@@H]1NC(=C([NH])N1)C=O	
InChI=1S/C4H6N4O/c5-3-2(1-9)7-4(6)8-3/h1,7H,6H2,(H2,5,8)	InChI=1S/C4H7N4O/c5-3-2(1-9)7-4(6)8-3/h1,4-5,7-8H,6H2/t4-/m1/s1
