22
gdb 116809	5.64107	0.50226	0.48925	2.7415	88.58	-0.2451	0.0242	0.2693	2304.6798	0.192404	-404.327995	-404.31742	-404.316475	-404.365649	36.635	
C	-0.0182526287	 1.3652923564	-0.0925508618	-0.248452
O	 0.0130196722	-0.0483008361	 0.054192405	-0.192496
C	-1.1794264345	-0.6696443694	-0.0490649596	 0.126795
N	-1.2660389669	-1.9189231169	 0.062036432	-0.208399
C	-2.5828064226	-2.5137737353	-0.070170454	-0.151549
C	-2.6162009036	-3.5202117972	-1.229223644	-0.193759
C	-3.9409286016	-4.2432209774	-1.3366930678	 0.036807
C	-5.0966485524	-3.6209029308	-2.0830711541	-0.255091
C	-4.3920545446	-4.8299291935	-2.649141665	-0.276529
H	 1.0102463394	 1.7093588696	 0.0227081553	 0.145936
H	-0.3850617834	 1.6600371393	-1.0835784224	 0.125718
H	-0.6416544083	 1.8369238836	 0.6771647488	 0.126126
H	-2.0314098603	 0.0064389099	-0.2293097203	 0.069325
H	-2.8114348808	-3.0454286297	 0.8634844341	 0.102705
H	-3.3778506527	-1.7605564087	-0.2125576848	 0.080463
H	-2.406877815	-2.9900588637	-2.1674125699	 0.088908
H	-1.798001433	-4.2369104522	-1.0902809706	 0.11049
H	-4.210019918	-4.8145885917	-0.4507877407	 0.079705
H	-6.0997336501	-3.7449498979	-1.690011724	 0.108308
H	-4.9271555494	-2.6653165318	-2.5694787906	 0.105745
H	-3.7523146895	-4.6847129952	-3.513727575	 0.109996
H	-4.9126745661	-5.7811998612	-2.6392481805	 0.109249
38.0636	49.736	67.0831	102.3857	139.1001	165.1707	218.3798	270.9797	310.7437	387.9376	423.4051	472.6294	607.3919	773.6287	785.3776	826.2537	840.2205	918.3731	958.7343	989.0764	1022.9711	1041.6468	1055.958	1061.4673	1077.3448	1096.5943	1142.4332	1175.6233	1177.1327	1183.3962	1198.853	1227.625	1248.8765	1276.6133	1298.1053	1315.8405	1381.1903	1410.4094	1419.2239	1469.7335	1483.7839	1484.9373	1494.4283	1500.9177	1503.7848	1508.6388	1775.7069	2944.6139	2979.6399	3013.1016	3018.6597	3027.7654	3066.3809	3073.7964	3126.2649	3127.4066	3132.6499	3143.7338	3204.0567	3219.4827
COC=NCCC1CC1	COC=NCCC1CC1	
InChI=1S/C7H13NO/c1-9-6-8-5-4-7-2-3-7/h6-7H,2-5H2,1H3	InChI=1S/C7H13NO/c1-9-6-8-5-4-7-2-3-7/h6-7H,2-5H2,1H3
