13
gdb 131972	2.88053	1.62664	1.04038	5.4935	66.43	-0.2384	-0.0657	0.1728	1031.9292	0.091104	-486.007816	-486.000453	-485.999509	-486.039728	27.496	
N	 0.0293058108	 1.3939989818	 0.1456513989	-0.602238
C	-0.0282368987	 0.0417319717	 0.0461423626	 0.393202
C	-1.1408985264	-0.8100537954	 0.0279850195	 0.23039
C	-0.6221077608	-2.1281266955	-0.0188463058	-0.045552
N	 0.6916290862	-2.123024761	-0.0320116632	-0.21941
N	 1.0334171684	-0.7896038286	 0.0083288616	-0.274655
N	-2.4873150584	-0.396756466	 0.0180967351	 0.332343
O	-3.360905064	-1.257135939	-0.0185064854	-0.372776
O	-2.7145238869	 0.8260865765	 0.0428535875	-0.428329
H	 0.8280632845	 1.8723453628	-0.2394447007	 0.263757
H	-0.8746809192	 1.8314001581	 0.0118788731	 0.292358
H	-1.1802423601	-3.0503296708	-0.0460545962	 0.151597
H	 2.0079080847	-0.5419803546	 0.038922243	 0.279312
105.7858	193.8304	224.0803	288.2533	347.4927	362.8904	454.4164	469.2005	565.6271	592.2401	661.0974	704.9577	733.2338	793.8596	843.7047	912.3698	934.5535	1060.0645	1089.596	1205.2231	1237.8264	1355.4251	1362.7178	1427.8929	1484.3485	1552.997	1570.5198	1620.7421	1673.3174	3275.424	3535.6701	3673.8557	3676.962
NC1=C(C=NN1)N(=O)=O	Nc1c(cn[nH]1)N(=O)=O	
InChI=1S/C3H4N4O2/c4-3-2(7(8)9)1-5-6-3/h1H,(H3,4,5,6)	InChI=1S/C3H4N4O2/c4-3-2(7(8)9)1-5-6-3/h1H,(H3,4,5,6)
