19
gdb 75771	2.5426	1.23018	1.10345	2.2155	82.26	-0.2405	-0.0211	0.2194	1204.8184	0.155593	-385.873292	-385.863571	-385.862627	-385.907541	36.419	
C	-0.6763369065	 1.2041987982	-0.0279661535	-0.420897
C	 0.1139194199	-0.0922401375	-0.0967211002	-0.111213
C	 1.48510353	-0.1189200637	-0.7826132965	 0.382496
O	 1.950396936	 0.4734108968	-1.7128263201	-0.296767
C	 2.0615888413	-1.0793703815	 0.265808088	-0.374969
C	 0.8265349581	-0.7236819731	 1.1767701245	 0.087806
C	 1.1981791529	 0.3156289895	 2.2449463026	-0.444065
C	 0.1304360855	-1.856963079	 1.7607223553	 0.261904
C	-0.452978206	-2.7935376273	 2.2398007678	-0.44115
H	-0.096408691	 2.0119186232	 0.426202086	 0.125753
H	-0.9493911015	 1.5229156435	-1.0382727047	 0.138512
H	-1.5980212468	 1.0757124963	 0.5478624338	 0.12748
H	-0.4949339202	-0.8802199939	-0.5579830012	 0.114919
H	 2.0420626926	-2.1157581674	-0.0825526105	 0.139426
H	 3.0548891669	-0.8500165334	 0.6584956251	 0.131479
H	 1.7506704094	 1.1502817368	 1.8008812272	 0.122503
H	 0.3064046156	 0.7148789604	 2.7351802703	 0.131474
H	 1.8313436093	-0.1409137529	 3.0107129547	 0.130979
H	-0.9643001153	-3.6229252751	 2.6620527513	 0.194329
66.1131	129.95	169.2392	174.8113	202.5391	244.3088	270.2139	345.9453	386.7842	418.9187	488.096	537.8629	580.987	604.5741	619.7851	631.9091	728.5874	752.5815	842.1435	858.049	950.5442	967.0134	1034.5285	1043.7422	1103.01	1119.8297	1158.9871	1187.1056	1194.2051	1225.3579	1286.2109	1342.845	1402.1132	1414.0217	1440.9176	1485.0592	1489.382	1497.6847	1503.2724	1891.2882	2231.6033	3035.1549	3037.8775	3043.7413	3066.778	3109.2737	3112.3961	3119.7354	3122.0335	3126.7076	3501.7395
CC1C(=O)CC1(C)C#C	C[C@H]1C(=O)C[C@]1(C)C#C	
InChI=1S/C8H10O/c1-4-8(3)5-7(9)6(8)2/h1,6H,5H2,2-3H3	InChI=1S/C8H10O/c1-4-8(3)5-7(9)6(8)2/h1,6H,5H2,2-3H3/t6-,8-/m0/s1
