17
gdb 25950	4.65596	0.99302	0.91957	2.463	76.4	-0.2083	0.0221	0.2304	1300.4579	0.136431	-418.048972	-418.040456	-418.039512	-418.083069	31.387	
C	 0.0278763856	 1.6081864251	-0.1612174265	-0.444458
C	-0.0175176646	 0.1167233738	-0.2916740949	 0.380479
N	 0.2480935857	-0.5040981981	-1.3543294412	-0.500306
O	-0.3986743537	-0.4331665613	 0.9334486196	-0.280167
C	-0.4994603577	-1.7880722807	 1.0474388288	 0.345891
C	-1.3936008802	-2.698799184	 0.5372572442	-0.25744
C	-1.030068414	-3.9685850581	 1.0766663195	-0.131927
C	 0.0610660049	-3.784589072	 1.8900836636	-0.092511
N	 0.383823126	-2.4475858301	 1.8604787794	-0.280731
H	 0.3253013661	 2.0479511949	-1.111821856	 0.151092
H	-0.9544603829	 1.9901823365	 0.1334918464	 0.144292
H	 0.7357665376	 1.9004289931	 0.6207395191	 0.137632
H	 0.1461186832	-1.5148023078	-1.2360843859	 0.22886
H	-2.211150493	-2.4757342606	-0.1292336791	 0.109204
H	-1.5233906519	-4.9087172009	 0.885129711	 0.100406
H	 0.6310937325	-4.4788780188	 2.4849898488	 0.122058
H	 1.1252055864	-1.997370901	 2.3686156733	 0.267628
44.4734	78.6629	128.2637	150.2769	332.1481	347.6563	409.4466	472.2911	549.4347	558.7415	629.9066	643.2888	701.2816	754.179	798.1318	849.5531	873.7257	897.0916	926.462	983.9857	1025.9146	1049.6235	1077.0553	1088.5294	1106.3528	1143.9929	1272.8655	1278.1139	1307.0761	1407.3309	1431.999	1470.169	1474.9969	1477.2261	1505.7536	1611.9473	1768.71	3051.4821	3108.8891	3171.5126	3250.0388	3264.9937	3278.1527	3451.4036	3683.0402
CC(=N)OC1=CC=CN1	C[C]([NH])Oc1ccc[nH]1	
InChI=1S/C6H8N2O/c1-5(7)9-6-3-2-4-8-6/h2-4,7-8H,1H3	InChI=1S/C6H8N2O/c1-5(7)9-6-3-2-4-8-6/h2-4,7-8H,1H3
