17
gdb 18673	2.83201	2.58585	1.54071	3.7225	68.15	-0.2397	0.0082	0.2479	835.9943	0.144611	-363.8797	-363.872897	-363.871953	-363.910771	26.331	
O	-0.1873987867	 0.3213396421	 0.9982944236	-0.338283
C	-0.1202817571	 1.2612698259	 0.2406467855	 0.3531
C	-1.336832046	 1.8428081633	-0.4828456959	-0.294568
C	-1.2391799468	 3.3664355328	-0.7531328329	-0.20241
C	-0.1987765482	 4.0150474921	 0.1807348661	-0.23942
C	 1.1325219897	 3.3492124004	-0.0980510213	-0.00345
C	 1.887090547	 2.5611265285	 0.9302327935	-0.255229
N	 1.0873537241	 1.8901759348	-0.0822292977	-0.080279
H	-1.4721096978	 1.2894411402	-1.4190618096	 0.133716
H	-2.1967780295	 1.598952637	 0.1457690509	 0.133201
H	-0.9388574822	 3.548795788	-1.7910878252	 0.108501
H	-2.220622068	 3.833161478	-0.62659907	 0.106071
H	-0.1372282437	 5.0948863692	 0.017657397	 0.107275
H	-0.4901625496	 3.8586199125	 1.2269469459	 0.111571
H	 1.6984696319	 3.76365721	-0.9316298343	 0.099587
H	 2.962802162	 2.4429900622	 0.8376265252	 0.12714
H	 1.506998041	 2.542561213	 1.948481289	 0.133478
84.8837	176.3546	248.9859	362.823	433.8073	475.5778	501.576	586.4767	657.0875	691.8355	791.7506	878.2803	895.1279	922.5388	949.3794	978.9414	996.5574	1060.6579	1096.8807	1115.4755	1129.7881	1164.0181	1175.6352	1205.9419	1224.2879	1264.0016	1327.7424	1342.4282	1351.287	1373.5121	1420.3541	1461.9928	1485.3833	1501.1809	1508.6657	1802.2914	3031.7421	3039.8958	3054.5214	3080.7521	3088.4507	3109.5175	3111.7713	3115.4998	3201.3631
O=C1CCCC2CN12	O=C1CCC[C@H]2CN12	
InChI=1S/C6H9NO/c8-6-3-1-2-5-4-7(5)6/h5H,1-4H2	InChI=1S/C6H9NO/c8-6-3-1-2-5-4-7(5)6/h5H,1-4H2/t5-,7?/m0/s1
