19
gdb 73261	2.44005	1.7261	1.3802	2.321	76.27	-0.2439	0.0069	0.2508	1014.1873	0.160555	-423.023584	-423.01576	-423.014816	-423.055594	31.109	
O	 0.1465155294	 1.4029130055	-0.1902707586	-0.478246
C	 0.0576384332	 0.004672021	-0.0147968559	 0.305115
C	 0.1637451767	-0.755744257	-1.3585771353	-0.094795
O	-1.0241561189	-1.5161548067	-1.061304239	-0.298434
C	-1.3659671447	-0.6277268328	 0.0307665059	 0.087074
C	-1.7799731844	-1.3522541992	 1.2953474491	-0.243984
C	-0.6498981947	-2.2307824258	 1.85142936	-0.257405
C	 0.6626473573	-1.4946782897	 1.8907351513	-0.060104
C	 0.9698227937	-0.4934203131	 1.0639717495	-0.14578
H	 0.1753528923	 1.8112552787	 0.6814378008	 0.277768
H	 0.0251168097	-0.0846699017	-2.2165873855	 0.105258
H	 1.0388076835	-1.3940946263	-1.5143732465	 0.104876
H	-2.1247474482	 0.1022767718	-0.2831442952	 0.072014
H	-2.0568045715	-0.5925055504	 2.0378984407	 0.099655
H	-2.6758949842	-1.9516596651	 1.1002822951	 0.109723
H	-0.9102079026	-2.5940362929	 2.8514668854	 0.100863
H	-0.5426829825	-3.1236615195	 1.2216065646	 0.132347
H	 1.3979783733	-1.8241482103	 2.6209916147	 0.092703
H	 1.9424025127	-0.0074546466	 1.1129080488	 0.091351
106.8961	173.7355	252.666	284.9821	287.7555	353.4825	394.7519	488.8828	493.9825	581.8975	647.0754	698.4937	741.4862	807.6787	871.06	902.5028	935.2163	955.6328	988.9665	1003.4125	1010.7051	1032.8151	1069.6629	1093.6723	1143.9591	1151.4876	1173.0435	1209.5022	1244.932	1262.098	1288.6578	1329.0873	1338.2639	1372.7291	1385.9587	1390.326	1424.5499	1465.9755	1478.792	1513.8449	1710.7482	3005.5204	3016.0947	3026.2264	3029.9737	3065.5045	3075.9311	3083.1326	3139.3404	3163.6096	3808.6522
OC12COC1CCC=C2	O[C@]12CO[C@H]1CCC=C2	
InChI=1S/C7H10O2/c8-7-4-2-1-3-6(7)9-5-7/h2,4,6,8H,1,3,5H2	InChI=1S/C7H10O2/c8-7-4-2-1-3-6(7)9-5-7/h2,4,6,8H,1,3,5H2/t6-,7+/m0/s1
