20
gdb 30641	3.66581	0.9575	0.84363	1.9225	82.01	-0.1963	0.0466	0.2429	1406.3198	0.17157	-403.183641	-403.174253	-403.173309	-403.218608	34.771	
C	-0.0533559982	 1.681577294	 0.5348563771	-0.394217
C	-0.0947560127	 0.2187733933	 0.0753674389	-0.094256
C	 0.8553895707	-0.649558476	 0.9175188832	-0.068618
O	 2.181458088	-0.1814145553	 0.7183265145	-0.421704
C	-1.4840661762	-0.3520805209	 0.0943739305	 0.300214
C	-2.5924803286	-0.0650386616	 0.8644133283	-0.229416
C	-3.6356999341	-0.9559067042	 0.4841685732	-0.139367
C	-3.1403409847	-1.7662400951	-0.5085887026	-0.10184
N	-1.8377921208	-1.3949886481	-0.7334364648	-0.293662
H	 0.9734978798	 2.0515065043	 0.5091387312	 0.130554
H	-0.6766353785	 2.3116258162	-0.1051144402	 0.116745
H	-0.4198966545	 1.7780852668	 1.5628060877	 0.115228
H	 0.2858804494	 0.1760308191	-0.9558067649	 0.077774
H	 0.5558003269	-0.5845072145	 1.9752859034	 0.092372
H	 0.7575975713	-1.7035190286	 0.6130387904	 0.078945
H	 2.7625646514	-0.6533608464	 1.3213465576	 0.287328
H	-2.6511932608	 0.705230182	 1.6177900879	 0.087819
H	-4.6352204754	-0.9910035522	 0.8896501585	 0.089354
H	-3.5977348817	-2.5615253754	-1.0749018098	 0.111861
H	-1.2322430014	-1.8021885975	-1.42513174	 0.254884
30.6612	106.0323	117.3067	219.0774	236.8651	240.5962	282.1115	365.6982	383.9164	473.3352	486.0429	629.5382	675.6122	706.8902	731.8348	794.9794	849.758	875.1276	899.5924	928.6434	962.9654	1036.2081	1054.9399	1072.8181	1098.2463	1122.8555	1138.4468	1161.5787	1220.5652	1245.9391	1265.0589	1283.2334	1337.401	1370.8581	1400.9377	1441.2804	1448.5953	1458.0843	1488.9084	1499.9109	1507.2218	1518.5439	1611.9988	2969.2303	2990.3161	3010.8337	3041.7784	3108.2766	3136.0187	3241.3141	3254.1391	3270.5024	3673.4643	3834.4386
CC(CO)C1=CC=CN1	C[C@@H](CO)c1ccc[nH]1	
InChI=1S/C7H11NO/c1-6(5-9)7-3-2-4-8-7/h2-4,6,8-9H,5H2,1H3	InChI=1S/C7H11NO/c1-6(5-9)7-3-2-4-8-7/h2-4,6,8-9H,5H2,1H3/t6-/m0/s1
