19
gdb 104755	2.86037	1.18183	0.95869	1.3884	78.71	-0.2389	0.0412	0.2802	1260.1589	0.156091	-422.959061	-422.949059	-422.948114	-422.993779	36.763	
C	-1.5601769654	-0.4505686423	-0.393920651	-0.264675
O	-0.1843339312	-0.1582203404	-0.1630741398	-0.29021
C	 0.7043971433	-0.6943353806	-1.0998368775	 0.388665
C	 0.6348125939	-0.0201302439	-2.4549574484	-0.112923
O	 0.8428646966	 1.3742831142	-2.3369579128	-0.421805
C	 2.0242703984	-1.092316002	-0.5357445173	-0.334726
C	 1.0621704499	-2.1793281388	-1.0236483569	-0.301079
C	 0.4347406535	-3.0548905394	-0.0796584263	 0.335415
C	-0.0817036098	-3.8142954143	 0.6979579468	-0.444753
H	-1.9384231751	 0.037752315	-1.3015252648	 0.113882
H	-1.7292152766	-1.5297593105	-0.4650718177	 0.135217
H	-2.1042051233	-0.0570816402	 0.4672345941	 0.132208
H	 1.4180968001	-0.4154668388	-3.1096720981	 0.1067
H	-0.3317053434	-0.2394226138	-2.9373458558	 0.091204
H	 0.3733551975	 1.6491196326	-1.5400908928	 0.290591
H	 2.9193641203	-0.9067105046	-1.1181056994	 0.126571
H	 2.1348373932	-1.0053515665	 0.5381563595	 0.138609
H	 1.3126467188	-2.6434414165	-1.9743332867	 0.11533
H	-0.5374437006	-4.477514399	 1.3904400747	 0.195777
82.3369	105.7772	131.9647	139.0757	208.4243	240.1962	272.6042	338.2935	347.8863	387.1321	419.87	470.2528	534.2681	583.1605	650.8846	692.4289	723.0516	806.6693	902.5084	917.7946	947.2918	996.589	1072.7597	1074.2435	1083.5286	1093.5297	1129.1662	1180.9814	1197.7747	1212.6727	1261.8428	1319.9161	1356.3022	1397.389	1440.1672	1472.0144	1486.9249	1491.2227	1504.4125	1515.229	2234.2808	2970.8892	3013.6986	3072.8096	3087.0627	3130.9101	3136.5229	3146.1229	3243.2434	3503.8243	3788.1686
COC1(CO)CC1C#C	CO[C@@]1(CO)C[C@H]1C#C	
InChI=1S/C7H10O2/c1-3-6-4-7(6,5-8)9-2/h1,6,8H,4-5H2,2H3	InChI=1S/C7H10O2/c1-3-6-4-7(6,5-8)9-2/h1,6,8H,4-5H2,2H3/t6-,7-/m1/s1
