14
gdb 11387	4.56923	1.5563	1.23156	3.9421	60.23	-0.2728	-0.0534	0.2194	944.5938	0.107045	-419.713954	-419.70676	-419.705815	-419.745814	25.668	
C	-0.0306553694	 1.3821188411	-0.1112710598	-0.244067
O	-0.0119176801	-0.0357444676	 0.0057118609	-0.229741
C	-1.2679236881	-0.6144303289	 0.0056372511	 0.174182
O	-1.9187725678	-0.4880293884	-1.2677515091	-0.24056
C	-2.1767919053	-1.7337668381	-1.7897968873	 0.428789
O	-2.7155386204	-1.8951889513	-2.8452440421	-0.334541
C	-1.6818079751	-2.7391666442	-0.8103833099	-0.22073
C	-1.150888291	-2.1014024589	 0.2264301425	-0.101031
H	 1.004713844	 1.7159952237	-0.0273057513	 0.137438
H	-0.4404429454	 1.695055429	-1.0773851689	 0.142643
H	-0.6243207366	 1.83635581	 0.6951554812	 0.113752
H	-1.9261148237	-0.1213951734	 0.7403948229	 0.092697
H	-1.7642769949	-3.8006106054	-0.991570804	 0.141609
H	-0.6792359264	-2.5125904477	 1.108288854	 0.139561
96.5151	128.8738	179.5039	207.8247	325.6601	434.9573	495.5819	553.4445	696.4104	706.8111	803.8209	841.5023	894.4705	957.3033	978.5449	1016.0965	1031.8532	1096.0137	1151.2996	1170.1018	1179.8318	1226.5967	1338.2306	1365.1795	1392.9518	1479.2814	1485.0753	1509.519	1675.6635	1880.4079	2971.0106	3002.4971	3081.3587	3139.5616	3232.9081	3260.757
COC1OC(=O)C=C1	CO[C@H]1OC(=O)C=C1	
InChI=1S/C5H6O3/c1-7-5-3-2-4(6)8-5/h2-3,5H,1H3	InChI=1S/C5H6O3/c1-7-5-3-2-4(6)8-5/h2-3,5H,1H3/t5-/m0/s1
