16
gdb 33383	8.84071	0.48229	0.47458	5.2828	84.58	-0.2822	-0.0387	0.2435	2170.8349	0.123293	-400.715218	-400.706107	-400.705163	-400.750638	31.418	
N	-0.071518263	-3.7128775196	-0.0168893136	-0.337991
C	-0.0317922373	-2.5521575911	-0.0500863223	 0.204829
C	 0.0160195968	-1.1885479324	-0.087571681	 0.082934
C	 0.0539245058	 0.018894147	-0.1210552169	 0.052478
C	 0.1282783414	 1.4684795308	-0.1496740497	-0.367552
C	 1.4969671072	 2.0120716462	 0.3237935	-0.217505
C	 1.520681777	 3.5201146341	 0.2790715868	 0.087
C	 2.6873319369	 4.271486606	-0.1979461905	-0.179078
O	 1.533354029	 4.106778977	-1.0252071866	-0.234571
H	-0.059852498	 1.8248599332	-1.169722384	 0.169372
H	-0.6742168418	 1.879955608	 0.4767899278	 0.148283
H	 1.6979663157	 1.668558219	 1.3445203458	 0.123955
H	 2.2858544066	 1.6117704428	-0.3199876294	 0.126049
H	 0.8460867888	 4.0199531986	 0.9776988405	 0.098463
H	 2.8642719992	 5.2834279059	 0.1625359187	 0.122686
H	 3.5754182256	 3.7308811243	-0.5222324656	 0.120649
44.6005	65.8878	88.0094	159.4898	180.2376	234.3418	359.0977	380.5624	455.0096	490.712	578.0707	582.4239	723.5505	764.1506	811.2342	877.8583	944.5849	992.3234	1021.2939	1097.9752	1115.8964	1162.0289	1170.291	1174.4552	1216.451	1276.7806	1297.053	1310.3918	1364.6082	1446.2308	1463.9805	1481.0826	1529.891	2266.082	2402.0572	3024.0754	3050.1064	3063.4148	3083.3675	3088.1429	3106.3491	3175.2191
N#CC#CCCC1CO1	N#CC#CCC[C@H]1CO1	
InChI=1S/C7H7NO/c8-5-3-1-2-4-7-6-9-7/h7H,2,4,6H2	InChI=1S/C7H7NO/c8-5-3-1-2-4-7-6-9-7/h7H,2,4,6H2/t7-/m0/s1
