20
gdb 78309	3.09083	1.50895	1.25479	2.6111	79.51	-0.2147	0.0867	0.3014	1086.3354	0.170623	-403.08232	-403.074418	-403.073474	-403.114112	32.08	
C	-0.1053319807	 1.3958048422	-0.0082906306	-0.316006
N	 0.0298037106	-0.0550807134	 0.053587581	-0.079741
C	 1.3914700495	-0.5443262467	-0.2004486487	-0.044444
C	 0.8418885415	-0.5382130343	 1.1780528377	-0.09237
C	 0.7401881882	-2.0758257275	 1.4135602692	 0.394984
C	 0.0372916885	-2.6086043156	 2.6286253804	-0.505544
C	 2.149755792	-2.5326305687	 0.9141364821	-0.265745
C	 1.4722979226	-2.0799052891	-0.4077571242	 0.027317
O	 0.2114745039	-2.5457544664	 0.1361013252	-0.295032
H	 0.7827237358	 1.9495472236	 0.3441457778	 0.092535
H	-0.3026797015	 1.6915588919	-1.0434749982	 0.125063
H	-0.9610830212	 1.700658959	 0.6023108896	 0.124113
H	 2.1655878928	 0.1307411043	-0.5487826442	 0.088447
H	 1.1638899764	 0.1424680319	 1.9591472071	 0.08535
H	-1.005923816	-2.2772773944	 2.6351092298	 0.13878
H	 0.0537469463	-3.7017217276	 2.6432272266	 0.1269
H	 0.5188771703	-2.2406154839	 3.5407649197	 0.118698
H	 3.0372796014	-1.9983855863	 1.2671230621	 0.088463
H	 2.2764067661	-3.6152600468	 0.9702995885	 0.106194
H	 1.7154952336	-2.4847410823	-1.3893075109	 0.082039
184.2448	193.164	221.3328	235.9537	283.2449	331.2174	421.322	432.6491	472.8143	604.1465	663.3087	731.2619	770.375	829.4017	851.6057	863.2344	879.7031	904.9363	921.4617	934.6975	987.9738	1024.6428	1051.8176	1075.8355	1108.697	1130.2594	1146.8449	1159.4532	1192.4192	1208.0572	1216.7094	1255.0136	1263.6184	1296.4104	1320.206	1377.3717	1413.9174	1451.873	1478.5224	1483.0238	1491.9423	1493.3877	1499.2984	2947.1607	3038.0206	3053.1951	3065.3339	3104.148	3107.9215	3118.0305	3128.0118	3134.8581	3164.6954	3175.9935
CN1C2C1C1(C)CC2O1	CN1[C@H]2[C@@H]1[C@]1(C)C[C@H]2O1	
InChI=1S/C7H11NO/c1-7-3-4(9-7)5-6(7)8(5)2/h4-6H,3H2,1-2H3	InChI=1S/C7H11NO/c1-7-3-4(9-7)5-6(7)8(5)2/h4-6H,3H2,1-2H3/t4-,5-,6-,7+,8?/m1/s1
