18
gdb 66979	2.65444	1.66316	1.25583	1.6973	75.3	-0.2376	-0.0302	0.2074	1034.1854	0.147315	-401.902231	-401.89427	-401.893326	-401.934841	30.147	
C	-0.0167172613	 1.5073546867	-0.292178505	-0.504307
C	 0.0890555243	 0.0406636838	-0.0103512883	 0.305562
C	 0.8625568351	-0.9181705305	-0.8644173281	-0.079671
C	 1.0176600709	-2.2435311768	-0.1408436592	-0.244226
C	-0.3896471603	-1.9270832325	 0.4006444236	-0.027712
C	-0.2614817711	-0.6836207393	 1.2970468252	-0.131048
C	 0.6726332604	-0.6320949148	 2.4765797635	 0.130379
O	 1.2719493363	-1.5749046378	 2.9308446281	-0.24651
N	-0.6447269414	-0.9874649486	-0.8268149948	-0.198029
H	 0.796219387	 2.0643688808	 0.1867408342	 0.125796
H	 0.0365463959	 1.6918198771	-1.3694204363	 0.13661
H	-0.9685272677	 1.9091885835	 0.0708321113	 0.127089
H	 1.3809547488	-0.5778882383	-1.7545244602	 0.095218
H	 0.9767009754	-3.0711046361	-0.8536996681	 0.113746
H	 1.8303950883	-2.3953397603	 0.5709323277	 0.125647
H	-1.1063480864	-2.711683568	 0.6299622661	 0.090356
H	-1.2504975176	-0.3298116176	 1.6201558599	 0.104315
H	 0.7838399533	 0.3829038288	 2.9270142604	 0.076785
78.7751	161.3863	176.6575	212.7352	263.3758	303.1211	392.3405	498.8091	590.0956	680.379	705.0516	771.4633	794.4841	827.2829	865.6502	927.5993	956.8169	991.5731	1000.3461	1016.4905	1035.1077	1049.6249	1088.393	1106.9707	1134.3653	1177.8223	1199.4495	1243.0534	1260.3887	1270.6639	1325.5387	1357.9968	1406.6634	1423.0321	1435.3583	1484.3759	1492.3162	1502.6223	1821.7736	2848.7553	3021.5127	3031.4734	3071.2402	3095.99	3109.941	3130.8784	3150.5304	3173.454
CC12C3CC(C1C=O)N23	C[C@@]12[C@H]3C[C@@H]([C@H]1C=O)N23	
InChI=1S/C7H9NO/c1-7-4(3-9)5-2-6(7)8(5)7/h3-6H,2H2,1H3	InChI=1S/C7H9NO/c1-7-4(3-9)5-2-6(7)8(5)7/h3-6H,2H2,1H3/t4-,5+,6-,7+,8?/m1/s1
