16
gdb 27254	3.23443	1.58427	1.08177	1.8087	72.81	-0.1905	0.0419	0.2325	1070.3921	0.125688	-437.895702	-437.887847	-437.886903	-437.928121	29.245	
C	-0.0494841436	 1.5247683993	 0.0724834696	-0.507337
C	 0.0268244268	 0.0408502314	-0.0438954119	 0.158801
C	 0.1708351096	-0.8048920384	-1.1069452732	 0.215143
O	 0.4051919316	-0.7630491525	-2.4616273247	-0.293315
C	 0.2409986535	-2.1317862205	-2.859798614	-0.005159
O	 0.4359760869	-2.9776935051	-1.7152625968	-0.287569
C	 0.1919303554	-2.134146974	-0.6604939004	 0.259538
C	 0.0590760362	-2.1509451579	 0.6957970687	-0.230096
N	-0.0055242109	-0.8058353184	 1.067183201	-0.31914
H	 0.7956116455	 1.9409569316	 0.6346940324	 0.131278
H	-0.0375224852	 1.9725063084	-0.9238423801	 0.14412
H	-0.9697442016	 1.8551550075	 0.5713397642	 0.122987
H	-0.7814866689	-2.2764564705	-3.242624039	 0.104931
H	 0.9865042861	-2.3777897022	-3.6190279823	 0.128417
H	 0.0349476554	-2.9399656224	 1.4266236115	 0.125211
H	-0.3641119067	-0.5084577063	 1.958623595	 0.25219
98.2126	148.8935	181.138	239.1512	276.673	317.3125	395.0622	529.3498	586.5794	591.4153	670.8899	671.93	702.8766	769.2978	805.5088	933.104	967.6915	1054.4719	1061.4885	1087.4343	1108.0164	1144.3102	1164.3111	1224.157	1264.6324	1316.5508	1409.8577	1420.3796	1456.1625	1480.8552	1484.4079	1505.5798	1528.2713	1633.7317	1711.2976	2977.0416	3014.0819	3057.7873	3108.1269	3122.9817	3282.8349	3666.6658
CC1=C2OCOC2=CN1	Cc1c2OCOc2c[nH]1	
InChI=1S/C6H7NO2/c1-4-6-5(2-7-4)8-3-9-6/h2,7H,3H2,1H3	InChI=1S/C6H7NO2/c1-4-6-5(2-7-4)8-3-9-6/h2,7H,3H2,1H3
