25
gdb 115501	4.37723	0.74208	0.68296	1.2488	89.12	-0.2614	0.0793	0.3407	1749.7742	0.22961	-389.511038	-389.500744	-389.4998	-389.547006	38.316	
C	 0.0323522448	 1.524258084	 0.1628959457	-0.384635
C	-0.0754629557	 0.0140280341	-0.0729207813	-0.187016
C	 0.7681030026	-0.4998584033	-1.2425742783	 0.062931
C	 2.2936786074	-0.3744443556	-1.0768434432	-0.207059
C	 2.8586702915	-1.2758492512	-2.1881965897	-0.222203
C	 1.8404000795	-2.4453705325	-2.3335186759	 0.043629
C	 2.3926689906	-3.7759634311	-1.8357555726	-0.086854
O	 3.4714809121	-4.1575704426	-2.6775456161	-0.422639
C	 0.5894154267	-2.0053124706	-1.5267031874	-0.255224
H	 1.0568565819	 1.82084008	 0.4094140233	 0.117604
H	-0.2689255365	 2.0859512933	-0.728664816	 0.111969
H	-0.6118637616	 1.8430905741	 0.9884319438	 0.109128
H	 0.2205324559	-0.5224083706	 0.8396060531	 0.08868
H	-1.1269298682	-0.2482694283	-0.2497857008	 0.090055
H	 0.4811131727	 0.0577779521	-2.1473574153	 0.063945
H	 2.6576321443	 0.6549873381	-1.1409182018	 0.091481
H	 2.5809621129	-0.7568340105	-0.0871549232	 0.087646
H	 2.9169461803	-0.7135400124	-3.1261044896	 0.094163
H	 3.8675098751	-1.6422084183	-1.9814732023	 0.103278
H	 1.5856114412	-2.5846435227	-3.3890994008	 0.075336
H	 2.7256774367	-3.6656773172	-0.7893479971	 0.079015
H	 1.5939002471	-4.5358140341	-1.8451458732	 0.082056
H	 3.8521310533	-4.9695184862	-2.3308270898	 0.284487
H	 0.5542774087	-2.5445367427	-0.5689407303	 0.086932
H	-0.3478555733	-2.2282030059	-2.0452017412	 0.093299
31.5075	99.9501	119.0768	139.0273	204.2406	233.0628	254.0015	268.4735	319.0081	393.3994	422.5095	481.621	548.9619	632.1007	764.5398	794.5307	836.286	873.3504	904.9785	947.176	955.8837	985.2511	1002.0119	1016.7941	1045.6914	1065.2398	1076.6391	1092.9863	1137.6242	1156.4554	1181.5221	1218.4206	1235.4346	1256.8149	1261.5971	1286.3212	1297.3288	1317.7501	1327.2373	1341.2478	1344.3505	1370.475	1378.5271	1396.7982	1411.8171	1455.7133	1484.0484	1487.5583	1495.2336	1499.6593	1505.4948	1508.5199	1520.0389	2950.285	2980.2678	2983.4222	3002.3716	3007.2821	3016.2555	3030.7228	3040.7317	3041.4118	3055.27	3079.2512	3084.895	3096.0862	3099.2988	3103.9536	3831.1679
CCC1CCC(CO)C1	CC[C@H]1CC[C@@H](CO)C1	
InChI=1S/C8H16O/c1-2-7-3-4-8(5-7)6-9/h7-9H,2-6H2,1H3	InChI=1S/C8H16O/c1-2-7-3-4-8(5-7)6-9/h7-9H,2-6H2,1H3/t7-,8+/m0/s1
