21
gdb 95252	2.59798	1.4434	1.14511	2.8823	77.16	-0.2538	0.0617	0.3155	1137.0909	0.184492	-424.221114	-424.212924	-424.21198	-424.253444	32.875	
O	-0.0414318554	 1.4454101133	-0.0385398995	-0.429544
C	 0.0120925501	 0.0197143338	 0.017738901	 0.128728
C	 0.8656171476	-0.4558063899	 1.2102341043	-0.22854
C	 0.3762384842	 0.027155077	 2.5877251389	-0.23769
C	-0.7838480146	-0.8033839981	 3.0997249662	 0.065693
O	-1.9142223915	-0.1263881684	 3.6600832446	-0.262855
C	-2.080764349	-0.809031358	 2.4108321507	 0.06397
C	-2.3152395818	 0.0145132735	 1.1601648786	-0.240818
C	-1.44660453	-0.4603883457	-0.0197940638	-0.197199
H	 0.8610065208	 1.7800351334	-0.0335677663	 0.281911
H	 0.4964100131	-0.3638207172	-0.8957394937	 0.061863
H	 0.9306233397	-1.5516129297	 1.1895920358	 0.097074
H	 1.8901408104	-0.0947598954	 1.043224539	 0.085131
H	 1.1989527823	-0.0151356991	 3.3097580093	 0.094841
H	 0.06905594	 1.0739387885	 2.5166897731	 0.12353
H	-0.5014086738	-1.7067278059	 3.6442542023	 0.083303
H	-2.6821730838	-1.7170519579	 2.4884469915	 0.083398
H	-3.3731486091	-0.045025941	 0.8824793796	 0.095063
H	-2.1025927743	 1.0656178423	 1.3682096799	 0.133647
H	-1.8767427953	-0.0867644733	-0.955166586	 0.106555
H	-1.4564738998	-1.555553942	-0.0842874855	 0.09194
115.3497	177.3926	249.3567	274.0702	302.3951	315.4437	382.0376	394.7576	458.4634	476.5488	567.642	675.1902	763.4521	782.8735	805.3874	878.3709	895.93	905.8052	947.1379	1010.2578	1010.8801	1039.9352	1052.9276	1093.1702	1098.4364	1139.4853	1143.1868	1195.2012	1208.4096	1225.9664	1263.5658	1269.8587	1311.4219	1341.4758	1348.3374	1371.404	1393.2684	1398.6755	1405.6403	1435.5961	1472.5783	1479.9306	1487.9211	1498.307	1506.2568	2954.0108	3007.1333	3032.5933	3042.7975	3047.941	3049.7906	3075.5135	3077.3813	3089.4852	3103.9061	3115.8876	3816.7046
OC1CCC2OC2CC1	O[C@H]1CC[C@H]2O[C@H]2CC1	
InChI=1S/C7H12O2/c8-5-1-3-6-7(9-6)4-2-5/h5-8H,1-4H2	InChI=1S/C7H12O2/c8-5-1-3-6-7(9-6)4-2-5/h5-8H,1-4H2/t5-,6+,7-
