17
gdb 128815	4.87043	0.82064	0.72027	2.042	72.11	-0.2169	0.0374	0.2543	1536.0977	0.135975	-455.147757	-455.138702	-455.137758	-455.182412	32.205	
C	 0.1965601598	 1.4251026857	 0.0000423681	-0.218853
O	 0.3148596742	 0.0287102294	-0.1202822879	-0.234477
C	 0.5015681437	-0.6087441756	 1.1291184632	-0.167078
C	 0.5488728255	-2.0877016983	 0.9182828599	 0.359441
N	 1.4439812013	-2.827533218	 1.5608538627	-0.306367
N	 1.1691518763	-4.0989244386	 1.1643235944	-0.253828
C	 0.1417625521	-4.1557334854	 0.2886074046	 0.459285
O	-0.2263096924	-5.3606686888	-0.197804355	-0.429705
C	-0.304373441	-2.8660516709	 0.0961408663	-0.434241
H	 1.1026798625	 1.8779683377	 0.4331625657	 0.104887
H	 0.0468703655	 1.8286896366	-1.0044128573	 0.124933
H	-0.661122703	 1.7114803334	 0.630569572	 0.100799
H	 1.4347960188	-0.2833131867	 1.613594923	 0.107081
H	-0.3285112068	-0.3416011952	 1.8078366541	 0.092548
H	 1.7224297431	-4.8672297218	 1.5025262187	 0.276416
H	-0.9585700218	-5.2342609462	-0.8089169777	 0.314018
H	-1.1004589079	-2.5269283073	-0.5450644347	 0.105142
47.5618	86.841	111.6402	224.9981	240.588	262.4189	322.9589	351.4451	387.3812	456.0384	481.178	653.0678	688.2934	702.3258	757.2369	807.1461	987.3978	998.2542	1025.5029	1053.4383	1145.279	1156.7349	1168.6921	1184.2577	1185.7167	1226.1808	1248.7018	1354.4519	1400.3669	1441.7094	1477.7933	1485.3661	1500.1484	1512.2617	1523.5602	1569.8691	1627.8328	2938.5061	2966.1813	3004.5976	3009.1046	3112.4064	3272.3833	3682.4627	3845.7445
COCC1=NNC(O)=C1	COCc1n[nH]c(O)c1	
InChI=1S/C5H8N2O2/c1-9-3-4-2-5(8)7-6-4/h2H,3H2,1H3,(H2,6,7,8)	InChI=1S/C5H8N2O2/c1-9-3-4-2-5(8)7-6-4/h2H,3H2,1H3,(H2,6,7,8)
