18
gdb 80255	2.21893	2.0771	1.55692	2.9838	76.54	-0.2498	-0.0123	0.2375	944.1733	0.149966	-401.964503	-401.957316	-401.956372	-401.995764	29.288	
C	-0.0810176232	 1.5472247891	-0.0075230441	-0.427201
C	 0.0457184378	 0.0290075797	 0.0185305813	 0.011657
C	 1.0965072529	-0.5970059557	-0.927727943	 0.0447
O	 2.3488611495	-0.0580942701	-0.3592697565	-0.266622
C	 2.1740030528	-0.0746959012	 0.9998077532	 0.444385
N	 3.0179154941	 0.2858804484	 1.866280274	-0.569995
C	 0.7674725317	-0.6120070391	 1.2519757124	-0.157005
C	 0.8369904358	-2.0680903724	 0.7949835	-0.087382
C	 1.0262789204	-2.0616744968	-0.5280534937	-0.086126
H	 0.8860896376	 2.0434274944	 0.1032673132	 0.142179
H	-0.5262665012	 1.8781243783	-0.9517126266	 0.117901
H	-0.731702934	 1.8907508618	 0.8030853805	 0.123086
H	-0.9291440487	-0.4419550099	-0.1269933616	 0.086614
H	 1.0824804674	-0.3388054063	-1.9844468382	 0.084655
H	 3.8831223349	 0.5913683018	 1.4154965358	 0.2203
H	 0.3904696069	-0.4123029273	 2.2515448971	 0.091267
H	 0.8202317316	-2.9158118421	 1.4665850511	 0.117364
H	 1.1971307137	-2.8999673227	-1.1892104249	 0.110222
141.3267	191.592	255.4022	281.5428	388.4884	432.3321	494.1565	554.9961	650.9991	680.9926	733.4014	746.2072	806.7162	858.5003	884.5659	896.1578	907.4427	933.5802	945.4613	961.3291	971.2815	1025.2176	1059.148	1084.5041	1114.4182	1137.1402	1179.3113	1241.9613	1253.534	1261.4191	1279.9686	1334.7604	1358.5986	1374.9785	1416.8442	1495.3507	1499.5375	1634.7356	1781.5128	3040.0051	3084.857	3101.1928	3127.8961	3148.3236	3159.9927	3215.6853	3240.313	3459.7604
CC1C2OC(=N)C1C=C2	C[C@H]1[C@H]2O[C]([NH])[C@@H]1C=C2	
InChI=1S/C7H9NO/c1-4-5-2-3-6(4)9-7(5)8/h2-6,8H,1H3	InChI=1S/C7H9NO/c1-4-5-2-3-6(4)9-7(5)8/h2-6,8H,1H3/t4-,5-,6+/m1/s1
