15
gdb 43240	4.19583	1.70167	1.51224	4.1767	76.87	-0.2198	-0.07	0.1498	856.6113	0.113716	-383.389204	-383.383324	-383.38238	-383.419195	25.008	
O	-0.0541800371	-0.0310364614	 0.237236285	-0.331189
C	-0.0648232943	 1.1444453236	-0.0283613359	 0.380652
C	-1.2477187808	 2.080620834	-0.0947181974	-0.29441
C	-0.6664267679	 3.295740998	-0.254855351	 0.151142
C	-0.0184983552	 4.2385585141	 0.7097608189	-0.126237
C	 1.236634379	 4.3628406404	-0.0981057908	-0.103638
C	 1.2601280131	 3.2905128977	 0.9604953566	-0.063214
C	 1.1634458016	 2.1021089808	-0.0695170191	-0.136368
C	 0.6652897409	 3.2392780781	-1.0142713056	-0.105423
H	-2.1210753429	 1.8542114275	 0.5061170305	 0.115963
H	-0.3905318638	 4.832468496	 1.5346876808	 0.111268
H	 1.9000147578	 5.1927213849	-0.2907452887	 0.105232
H	 1.746804673	 3.3005176757	 1.9284400824	 0.108312
H	 2.1254212745	 1.6167141845	-0.2465981055	 0.087353
H	 0.7065826421	 3.177202056	-2.0976844604	 0.10056
145.3958	363.4413	408.5071	507.098	578.5842	584.64	659.351	723.0841	744.6827	778.5702	801.055	815.439	828.0261	856.9595	879.7062	917.0232	921.6304	984.9298	1005.1387	1021.5531	1051.0515	1076.5548	1079.1113	1096.1623	1168.7834	1187.2578	1198.3315	1236.5015	1241.3146	1265.2607	1339.0508	1555.7839	1804.1356	3102.6033	3164.8371	3191.171	3198.1933	3202.9046	3231.6075
O=C1C=C2C3C4C3C1C24	O=C1[CH][C]2[C@@H]3[C@H]4[C@@H]3[C@@H]1[C@@H]24	
InChI=1S/C8H6O/c9-3-1-2-4-6(3)8-5(2)7(4)8/h1,4-8H	InChI=1S/C8H6O/c9-3-1-2-4-6(3)8-5(2)7(4)8/h1,4-8H/t4-,5-,6+,7+,8+/m1/s1
