17
gdb 51559	3.06896	1.04977	0.88988	3.6845	70.05	-0.2567	-0.0053	0.2515	1298.4139	0.134226	-458.933558	-458.924916	-458.923972	-458.968277	30.349	
O	 0.1813552162	 0.1464562779	-0.3180895474	-0.267224
C	 0.2598871252	 1.3352621952	-0.3751509666	 0.174553
O	 1.0323333072	 2.0520078447	 0.4732455462	-0.18648
C	 1.0310669859	 3.4546080981	 0.2915372775	 0.039081
C	 2.1916016042	 4.1809378758	 0.9001184467	-0.38433
C	 2.0782256095	 4.0601148966	-0.5919795242	 0.254201
C	 2.9939208161	 3.3423442325	-1.5768727412	-0.134616
O	 2.7402815446	 4.3573654348	-2.5748298161	-0.271334
C	 1.9213464991	 5.1274700112	-1.6696671257	-0.135925
H	-0.2814277031	 1.9692592612	-1.103159932	 0.084984
H	 0.042236618	 3.9051526981	 0.334654022	 0.114668
H	 2.0039742858	 5.1419585615	 1.3678825543	 0.128412
H	 2.9395295916	 3.568796486	 1.3937416108	 0.142506
H	 4.0528345641	 3.3002217872	-1.2918605799	 0.111838
H	 2.6722701895	 2.3467374192	-1.9069108686	 0.117174
H	 0.9067146316	 5.2846355321	-2.0585995937	 0.105068
H	 2.3718220543	 6.1011572479	-1.434875362	 0.107422
41.2889	88.3759	121.4542	137.3134	204.3171	299.7379	327.3116	423.7013	467.7464	590.546	652.3391	838.0409	859.5204	876.1312	888.6013	973.038	998.226	1030.9121	1045.6265	1050.3201	1073.5062	1104.4491	1128.2451	1150.0142	1158.6666	1162.7888	1182.1167	1223.9984	1307.4724	1321.562	1374.5361	1420.7208	1431.5927	1489.8386	1511.1367	1535.5666	1871.4915	2958.5206	2999.8246	3014.729	3043.5295	3054.7465	3129.3915	3135.429	3219.8865
O=COC1CC11COC1	O=CO[C@H]1CC21COC2	
InChI=1S/C6H8O3/c7-4-9-5-1-6(5)2-8-3-6/h4-5H,1-3H2	InChI=1S/C6H8O3/c7-4-9-5-1-6(5)2-8-3-6/h4-5H,1-3H2/t5-/m0/s1
