18
gdb 42889	2.34024	1.76163	1.54048	2.6715	71.63	-0.2433	-0.0165	0.2268	962.5455	0.150055	-439.075846	-439.068541	-439.067597	-439.107432	29.009	
O	-0.0830064786	 0.0121837534	 0.1115327444	-0.305483
C	-0.0209485162	 1.2034984448	 0.095902139	 0.433784
C	-1.046639042	 2.3500516067	-0.0298204591	-0.128074
C	-1.5452041863	 2.8947969209	 1.3152044997	-0.2092
C	-0.4180223532	 3.5069374892	 2.1601576892	-0.069273
O	 0.7006877332	 2.6392425196	 2.3099567443	-0.254681
C	 1.6601447685	 2.70037173	 1.2673542122	-0.073288
C	 1.1035793276	 2.2474826574	-0.0835261114	-0.148329
N	 0.0583554738	 3.2044241823	-0.5947496528	-0.329899
H	-1.8802004779	 2.1484632545	-0.7097225211	 0.094588
H	-2.3026213457	 3.6688025345	 1.1419792164	 0.106115
H	-2.0302502024	 2.078409831	 1.8627941111	 0.120476
H	-0.0991820006	 4.4586314126	 1.7170005872	 0.110601
H	-0.7871148522	 3.7054970628	 3.1714012548	 0.106511
H	 2.064955085	 3.719236535	 1.1665777179	 0.103679
H	 2.4674095218	 2.0272018289	 1.5721717456	 0.120329
H	 1.9115184603	 2.0119376118	-0.7831873521	 0.093381
H	 0.0340066348	 3.1636345746	-1.6094292353	 0.228764
116.0738	201.684	222.8242	317.6759	356.4671	391.6103	454.6081	477.5402	603.1289	661.642	739.1021	771.6562	828.5149	844.4187	862.3685	908.3975	942.3112	1008.1034	1018.8165	1049.2357	1066.9709	1071.048	1101.8198	1153.8611	1164.9359	1207.0219	1225.2107	1281.2369	1299.6751	1329.6598	1342.1999	1358.623	1379.7658	1396.3721	1416.7477	1470.6889	1475.2579	1495.0801	1903.3791	2990.8079	3025.3238	3033.0708	3067.4785	3069.7029	3074.6927	3087.0053	3088.9639	3513.5645
O=C1C2CCOCC1N2	O=C1[C@H]2CCOC[C@@H]1N2	
InChI=1S/C6H9NO2/c8-6-4-1-2-9-3-5(6)7-4/h4-5,7H,1-3H2	InChI=1S/C6H9NO2/c8-6-4-1-2-9-3-5(6)7-4/h4-5,7H,1-3H2/t4-,5+/m1/s1
