17
gdb 52178	5.68248	0.64282	0.61444	2.7777	70.46	-0.2595	-0.03	0.2295	1730.6716	0.134146	-459.001948	-458.993032	-458.992088	-459.037307	30.996	
O	 0.0649961337	-0.1501791095	 0.1878736538	-0.231531
C	 0.026392497	 1.0308933405	-0.0375614369	 0.156417
C	 1.2221488075	 1.9563805509	-0.0204666501	-0.275954
C	 1.3905474614	 2.6943824411	-1.3601250074	-0.221854
C	 2.4801915179	 3.7470569252	-1.3053998573	 0.136988
C	 2.5367397464	 4.7960258662	-2.4317776671	-0.442441
C	 2.1916458183	 5.7797304513	-1.3129819671	 0.452262
O	 2.0039202462	 6.9445813386	-1.1848353445	-0.308564
O	 2.1572314631	 4.8113675928	-0.3373687457	-0.25177
H	-0.9367624904	 1.5359100207	-0.2877627116	 0.075472
H	 1.057710632	 2.7049540602	 0.7666140251	 0.146301
H	 2.1124805048	 1.3747545993	 0.2353027425	 0.124567
H	 1.6373601031	 1.981074466	-2.1562275314	 0.124671
H	 0.4462298997	 3.1772259417	-1.6427752919	 0.114389
H	 3.4480946386	 3.3113435871	-1.0414616077	 0.10562
H	 3.5104972499	 4.9669902649	-2.8928624883	 0.14983
H	 1.7729355111	 4.7089047632	-3.2070141645	 0.145597
48.8991	59.3101	98.1803	132.2361	157.6249	299.8783	346.1396	451.9251	514.3773	523.4283	537.4409	715.7418	777.5659	831.9676	857.401	909.1802	945.2718	1005.3598	1010.9601	1073.187	1079.7888	1102.2573	1128.2081	1167.6161	1217.5201	1226.2448	1257.1504	1297.9443	1329.2453	1362.1712	1409.1265	1430.9234	1456.9538	1463.7098	1482.5805	1839.3501	1945.4066	2852.9698	3023.0793	3030.4288	3062.5332	3079.6967	3089.4939	3104.9189	3147.7311
O=CCCC1CC(=O)O1	O=CCC[C@H]1CC(=O)O1	
InChI=1S/C6H8O3/c7-3-1-2-5-4-6(8)9-5/h3,5H,1-2,4H2	InChI=1S/C6H8O3/c7-3-1-2-5-4-6(8)9-5/h3,5H,1-2,4H2/t5-/m0/s1
