18
gdb 119336	5.38075	0.96637	0.93374	1.2843	74.23	-0.2129	0.065	0.278	1277.4172	0.146997	-401.814692	-401.80668	-401.805736	-401.847844	30.319	
O	-0.073365601	 1.4247613162	-0.0744099951	-0.420471
C	 0.0290975709	 0.0107607726	 0.0094883826	-0.078683
C	-1.3909245002	-0.5461605857	 0.0250523258	-0.344648
C	-1.4351965218	-2.0371215788	 0.0839375356	 0.370635
C	-2.6168984746	-3.0427701162	-0.0161032314	-0.180722
C	-1.7465339948	-4.1037537606	 0.6717003686	-0.110092
C	-1.7091019676	-3.9318646098	-0.8238201804	-0.004617
N	-0.5530904695	-2.93683373	-0.7524488575	-0.222889
C	-0.5957410033	-3.0728673299	 0.7531797133	-0.110846
H	 0.8151422584	 1.7838924583	-0.1511660066	 0.286112
H	 0.5750021106	-0.411017893	-0.8457742598	 0.115271
H	 0.5600053185	-0.2949646148	 0.9255588622	 0.084692
H	-1.9316388615	-0.1254217599	 0.882466471	 0.113024
H	-1.9103893367	-0.199680744	-0.8775540253	 0.116215
H	-3.6920867898	-2.9330177272	-0.0127940473	 0.097
H	-2.047111834	-4.9398230436	 1.2863310589	 0.09713
H	-1.8910296326	-4.6118823005	-1.6465114222	 0.099763
H	 0.299018669	-3.0052041831	 1.3614129677	 0.093128
77.7318	82.2422	131.5261	252.7397	274.7567	343.0163	363.9194	654.5704	683.6872	739.0204	748.5196	788.525	812.863	815.7954	852.5263	867.9476	917.695	944.5813	992.4215	997.937	1001.4502	1012.7859	1034.9537	1063.5297	1068.1977	1100.1836	1125.2679	1187.4931	1216.9142	1223.0811	1253.2611	1265.6961	1309.752	1337.644	1352.2407	1431.6962	1463.7014	1487.5335	1532.4713	2970.1923	3021.4316	3025.1159	3063.3966	3173.9055	3188.1342	3213.403	3226.1779	3832.5182
OCCC12C3C4C3N1C24	OCC[C@@]12[C@@H]3[C@H]4[C@@H]3N1[C@@H]24	
InChI=1S/C7H9NO/c9-2-1-7-4-3-5(4)8(7)6(3)7/h3-6,9H,1-2H2	InChI=1S/C7H9NO/c9-2-1-7-4-3-5(4)8(7)6(3)7/h3-6,9H,1-2H2/t3-,4+,5-,6+,7-,8?/m0/s1
