17
gdb 102961	2.80311	0.82426	0.70101	2.0582	72.02	-0.2643	-0.0388	0.2256	1577.2534	0.130825	-458.906318	-458.895923	-458.894979	-458.943661	35.276	
O	 0.1805730368	 1.2810025389	 0.2401100302	-0.412095
C	 0.0462327456	-0.0921916141	-0.0289412335	-0.056904
C	-1.4344767287	-0.5159936901	-0.0671498236	-0.113778
O	-2.0607787595	-0.1412051381	 1.1688772879	-0.267921
C	-1.9289069384	-1.07901289	 2.2142039551	-0.155623
C	-2.8368200081	-0.6387155538	 3.3526716171	 0.140152
O	-2.8132252245	-1.1353850848	 4.4460522054	-0.23161
C	-2.1664720248	 0.1240343228	-1.1559528866	 0.344112
C	-2.7495220236	 0.6279539615	-2.0764555786	-0.426214
H	-0.4393945556	 1.4810338015	 0.9522570166	 0.289963
H	 0.5094628618	-0.2900598977	-1.0001630547	 0.124282
H	 0.5653428399	-0.7110256265	 0.7221893216	 0.089271
H	-1.4903233224	-1.6095258289	-0.1875113383	 0.103073
H	-2.2477012716	-2.0845594868	 1.8918308348	 0.131532
H	-0.9003191894	-1.1680325025	 2.5926233405	 0.1324
H	-3.5363381717	 0.1791878056	 3.0743149235	 0.103853
H	-3.2667615758	 1.0810364828	-2.8861267374	 0.205506
39.8625	47.4637	77.1152	101.5328	127.0675	181.4164	244.4255	297.1571	364.8686	415.6547	427.9364	480.878	594.0054	629.1329	679.6888	715.0264	746.7173	854.5036	908.0973	1003.0044	1068.4086	1080.9351	1108.817	1114.0165	1134.6032	1223.1516	1235.1605	1294.7436	1326.9631	1369.6196	1390.6717	1408.0979	1429.5987	1483.1988	1503.8275	1846.1342	2246.6108	2908.1571	2963.1412	2972.1787	2984.5377	3023.1319	3087.7794	3502.542	3783.9914
OCC(OCC=O)C#C	OC[C@@H](OCC=O)C#C	
InChI=1S/C6H8O3/c1-2-6(5-8)9-4-3-7/h1,3,6,8H,4-5H2	InChI=1S/C6H8O3/c1-2-6(5-8)9-4-3-7/h1,3,6,8H,4-5H2/t6-/m0/s1
