20
gdb 99188	3.64017	0.82815	0.76314	3.8283	76.79	-0.2328	-0.025	0.2078	1542.7597	0.169645	-440.267882	-440.258451	-440.257506	-440.303293	33.918	
O	-0.4001777433	 1.1167868663	-0.9356260532	-0.424957
C	-1.0582363803	-0.0951719847	-0.712368706	-0.124947
C	-1.0138457022	-0.4764967933	 0.7593380266	 0.347833
O	-0.4963405932	 0.2783738934	 1.5553964114	-0.321405
C	-1.5763405313	-1.8265960367	 1.181655021	-0.261485
N	-2.6414446903	-2.297366599	 0.3287348995	-0.075274
C	-4.0225180971	-1.813650882	 0.5591957004	-0.165286
C	-4.5403491557	-3.2265165741	 0.2010321703	-0.225139
C	-3.0896508932	-3.7013836104	 0.4557494952	-0.157573
H	-0.1123392519	 1.4116910565	-0.0565081904	 0.291607
H	-2.112545675	-0.0493276248	-1.026921719	 0.122855
H	-0.6118320356	-0.9158141454	-1.2964714464	 0.118382
H	-0.7387516958	-2.5356662204	 1.1080371314	 0.136198
H	-1.8458113311	-1.7646694765	 2.2515446531	 0.10845
H	-4.2118474444	-1.5549074439	 1.6137764965	 0.093858
H	-4.3307008583	-0.9722328517	-0.0697485844	 0.108668
H	-5.320358739	-3.6464744688	 0.8355457393	 0.110911
H	-4.8339933559	-3.3141900373	-0.8461413957	 0.119042
H	-2.6333307284	-4.3938142615	-0.2590572763	 0.107437
H	-2.9609477579	-4.1041156858	 1.4731640968	 0.090823
51.2773	68.2691	101.7113	133.805	176.2701	291.152	334.1567	345.6717	403.4461	431.7557	490.7102	644.3017	692.1461	774.5381	818.6331	845.6813	862.6892	929.1094	939.2606	997.6636	1018.9294	1105.4584	1117.1701	1132.8169	1141.9919	1183.576	1208.0936	1216.1118	1235.5628	1239.7139	1265.0692	1272.6053	1301.5047	1313.0209	1342.6746	1371.8781	1451.7088	1455.3869	1474.7569	1488.3571	1505.5731	1534.2369	1796.0827	2945.2746	2969.6778	2979.108	2989.8107	3003.8998	3027.8568	3062.8604	3064.1919	3091.1443	3147.6488	3679.3496
OCC(=O)CN1CCC1	OCC(=O)CN1CCC1	
InChI=1S/C6H11NO2/c8-5-6(9)4-7-2-1-3-7/h8H,1-5H2	InChI=1S/C6H11NO2/c8-5-6(9)4-7-2-1-3-7/h8H,1-5H2
