13
gdb 21087	3.62985	1.96695	1.2861	4.403	63.1	-0.2712	-0.0774	0.1938	875.2813	0.096481	-394.80815	-394.800923	-394.799979	-394.840894	24.298	
C	-0.0277783162	 1.452759293	 0.0041738028	-0.33789
N	-0.0095631261	-0.0018482705	 0.0455953936	 0.001551
N	-0.0338452392	-0.7024236518	-1.1001821415	-0.233027
C	-0.0074016112	-1.965103487	-0.6726969111	 0.032019
N	 0.0324398333	-2.1145106836	 0.6652783661	-0.2825
C	 0.0304249735	-0.8587826209	 1.1045429773	 0.258422
C	 0.0651982256	-0.4097567281	 2.5068372869	 0.085761
O	 0.1003521089	-1.1510369552	 3.4559288368	-0.234458
H	 0.873058564	 1.8651436826	 0.4652780386	 0.158194
H	-0.0612381814	 1.7387082997	-1.0460133272	 0.176988
H	-0.9101012901	 1.8442694543	 0.5164231269	 0.1582
H	-0.0173829685	-2.7924286815	-1.3664070086	 0.138898
H	 0.0569899274	 0.6948456492	 2.6341244995	 0.077843
32.0971	124.9411	197.2877	200.5462	281.1043	345.1902	528.6508	668.5497	682.6827	711.9499	841.8455	914.1868	989.5315	1019.2156	1039.4199	1148.668	1162.472	1231.1159	1313.0765	1327.8283	1389.1653	1405.6027	1455.3643	1488.2329	1489.0864	1501.5176	1538.1508	1811.5281	2890.1425	3057.677	3126.341	3174.0003	3263.1083
CN1N=CN=C1C=O	Cn1ncnc1C=O	
InChI=1S/C4H5N3O/c1-7-4(2-8)5-3-6-7/h2-3H,1H3	InChI=1S/C4H5N3O/c1-7-4(2-8)5-3-6-7/h2-3H,1H3
