16
gdb 105289	2.11165	1.26994	0.95619	4.3425	71.88	-0.2588	-0.0413	0.2175	1234.9316	0.122611	-437.885309	-437.876121	-437.875177	-437.919616	32.632	
O	 0.7137364059	 0.1851867541	-0.7214995786	-0.399849
C	-0.1721922409	 0.3860856967	 0.3594186714	-0.167192
C	-1.5034196801	-0.3801448608	 0.2221651816	 0.12037
C	-1.9548777752	-0.9153090426	-1.1119514456	-0.326334
C	-1.5575110808	-1.9003628419	-0.0342272495	-0.130389
C	-0.3092794013	-2.7052090721	-0.1759569509	 0.138168
O	-0.2091154213	-3.8243610727	 0.2627971937	-0.256002
C	-2.5190371298	 0.1158161509	 1.1171749366	 0.245404
N	-3.3110259845	 0.5393073167	 1.8464463871	-0.329784
H	 0.4654372381	 0.7789169285	-1.4365922497	 0.298921
H	 0.3476356478	 0.0473904022	 1.2606837373	 0.147218
H	-0.4047771423	 1.4496602886	 0.4957081074	 0.128261
H	-3.0028832836	-0.846433347	-1.375377093	 0.15238
H	-1.2565107479	-0.7880437561	-1.9315403737	 0.133637
H	-2.3544679038	-2.4316958617	 0.4739536228	 0.134038
H	 0.5168440499	-2.2127611128	-0.7239850267	 0.111154
89.4517	102.6178	124.9972	160.536	210.917	260.5152	323.4829	337.6916	371.368	446.1211	485.2161	561.0331	594.4383	676.3829	820.7688	868.8482	924.8947	997.8054	1011.107	1052.7775	1075.0122	1086.1092	1101.4616	1177.0718	1221.0856	1233.1795	1276.1514	1346.0686	1401.3647	1418.5196	1443.1219	1470.5452	1502.7948	1813.6385	2350.1236	2959.4713	3027.5322	3090.128	3147.0899	3185.7539	3243.0151	3829.5923
OCC1(CC1C=O)C#N	OC[C@]1(C[C@H]1C=O)C#N	
InChI=1S/C6H7NO2/c7-3-6(4-9)1-5(6)2-8/h2,5,9H,1,4H2	InChI=1S/C6H7NO2/c7-3-6(4-9)1-5(6)2-8/h2,5,9H,1,4H2/t5-,6-/m0/s1
