17
gdb 124650	4.35677	1.01883	0.91595	2.7661	70.79	-0.2589	-0.0028	0.2561	1298.2527	0.135406	-455.152604	-455.144054	-455.14311	-455.186478	30.798	
C	 0.1299543819	 1.5004024072	 0.0591051501	-0.400673
C	-0.0033035913	-0.017174374	 0.0300827986	 0.127623
C	-1.4382738325	-0.49941391	-0.1062325629	-0.393526
O	 0.6936994164	-0.5527400878	-1.1411288548	-0.270389
C	 1.9967264293	-0.6907191588	-1.1034608533	 0.533905
N	 2.7397415543	-1.1348316331	-2.0782881784	-0.368577
C	 3.9796701192	-1.0850246076	-1.5023769601	 0.058915
N	 4.0376387249	-0.6491047814	-0.2737110905	-0.136775
O	 2.6722471885	-0.3737067559	 0.009840131	-0.222854
H	 1.1756923656	 1.8035926993	 0.1441709398	 0.145016
H	-0.2958062441	 1.9386358566	-0.848437765	 0.133553
H	-0.4101556233	 1.900318596	 0.9225670874	 0.128477
H	 0.4618232952	-0.4549646355	 0.9182637632	 0.119308
H	-1.8925475459	-0.1010006383	-1.0181656875	 0.136165
H	-1.4796023469	-1.5905541475	-0.1460614951	 0.13509
H	-2.025753832	-0.1593335808	 0.7511007944	 0.12749
H	 4.8801250306	-1.3863730584	-2.0192442368	 0.147253
65.5433	71.658	160.4432	216.2918	253.1321	291.6026	322.14	387.5106	451.6384	512.1739	638.1564	726.2892	770.9612	856.5949	888.1867	939.3859	940.6944	941.9321	951.4018	973.0637	1043.5357	1131.1983	1160.4512	1201.609	1217.8164	1285.0549	1346.7295	1369.4235	1377.2138	1406.395	1422.3411	1481.3448	1485.9505	1496.0059	1510.4268	1557.7168	1649.7664	3046.6506	3050.7313	3070.6161	3118.4994	3127.9286	3130.9095	3136.6672	3252.6935
CC(C)OC1=NC=NO1	CC(C)Oc1ncno1	
InChI=1S/C5H8N2O2/c1-4(2)8-5-6-3-7-9-5/h3-4H,1-2H3	InChI=1S/C5H8N2O2/c1-4(2)8-5-6-3-7-9-5/h3-4H,1-2H3
