22
gdb 6966	2.36633	2.16937	1.53623	0.1974	83.57	-0.2246	0.0357	0.2603	981.5042	0.199802	-313.101263	-313.092332	-313.091388	-313.133878	34.52	
C	-0.4515432021	 1.4410170753	-0.0009955747	-0.502681
C	-0.1231021512	-0.0209584474	-0.0235469229	 0.326763
C	 0.1755643143	-0.7470847378	-1.1023581131	-0.179014
C	 0.4955668088	-2.1834762088	-0.7731742526	-0.258487
C	 0.0083753676	-2.3079926571	 0.6895215347	-0.241151
C	-0.033521652	-0.8580143587	 1.2568982242	 0.224112
C	 1.2713086088	-0.5229958398	 2.0125446939	-0.421248
C	-1.2329754787	-0.6530837722	 2.1958308897	-0.435453
H	 0.2442726777	 2.002198639	 0.6355345415	 0.12309
H	-0.4089131603	 1.8726118249	-1.0048013192	 0.120334
H	-1.4555818612	 1.6233683336	 0.4013674763	 0.125298
H	 0.2241204947	-0.3523847938	-2.1127642221	 0.078425
H	-0.0005567976	-2.8982845029	-1.4399231293	 0.097507
H	 1.5735457517	-2.3784933277	-0.868962446	 0.100704
H	-1.0053591747	-2.7228507222	 0.6960462892	 0.094078
H	 0.6316406481	-2.9722224312	 1.2960436107	 0.088235
H	 2.1505088378	-0.7188421248	 1.3904592322	 0.11362
H	 1.3019883255	 0.5300699716	 2.3121942381	 0.108782
H	 1.3568440204	-1.1275597595	 2.9225793043	 0.107959
H	-1.181269883	-1.3466654568	 3.0427828387	 0.109998
H	-1.2587495244	 0.3623701525	 2.6059161134	 0.108852
H	-2.1792963701	-0.8311115864	 1.674052373	 0.110278
99.0314	167.6726	211.8914	235.7375	258.0565	268.9937	273.9623	334.3304	363.5325	424.0757	558.3779	581.7741	651.3702	703.5232	803.5618	845.7535	898.5704	928.6273	936.7935	955.7603	983.6572	1013.6151	1036.7912	1041.6678	1067.8488	1123.6761	1136.3941	1220.4021	1228.0189	1245.722	1256.8967	1316.5508	1324.0363	1357.3399	1392.7623	1408.6345	1417.5296	1474.9648	1482.3721	1485.271	1486.8572	1496.0558	1502.4492	1502.8477	1509.8398	1721.0183	3001.8009	3018.1762	3021.4215	3026.1559	3038.0983	3052.0527	3064.1455	3084.6966	3088.5723	3092.5454	3096.6603	3100.7594	3107.8556	3175.3077
CC1=CCCC1(C)C	CC1=CCCC1(C)C	
InChI=1S/C8H14/c1-7-5-4-6-8(7,2)3/h5H,4,6H2,1-3H3	InChI=1S/C8H14/c1-7-5-4-6-8(7,2)3/h5H,4,6H2,1-3H3
