20
gdb 85530	2.33551	1.71521	1.16357	3.3527	80.27	-0.2499	0.0325	0.2825	1113.0637	0.172472	-403.16477	-403.156583	-403.155639	-403.197437	32.184	
C	-0.3423030804	 1.4126740551	 0.0392627315	-0.390935
C	-0.0295311674	-0.0671182539	 0.2136063441	 0.104752
O	 0.3928862915	-0.5362254247	-1.0826608022	-0.262833
C	 0.9931229831	-1.7537152582	-1.2346463613	 0.378576
N	 1.2753114044	-2.2028726288	-2.3852290421	-0.516901
C	 1.3304767985	-2.5341962854	 0.0140761167	-0.295633
C	 1.739871067	-1.6501470616	 1.1770435871	-0.04861
C	 2.4785902588	-0.3547372011	 0.9319180666	-0.301854
C	 1.010315762	-0.342056601	 1.2830028157	-0.026256
H	 0.5662344201	 1.9656928367	-0.2152092505	 0.129802
H	-1.0746277682	 1.5570932912	-0.7593067983	 0.126872
H	-0.7525310833	 1.8234984249	 0.9666230291	 0.11704
H	-0.9547339552	-0.6015450174	 0.4795643038	 0.084753
H	 0.9538918478	-1.5476434224	-3.1016002232	 0.214311
H	 0.4452764689	-3.1168427921	 0.3067320407	 0.123102
H	 2.1047750516	-3.2542266502	-0.2587109169	 0.13766
H	 1.9675050544	-2.1826388399	 2.094991433	 0.0898
H	 3.1790586113	-0.02162936	 1.6891517947	 0.112758
H	 2.769801337	-0.1088368899	-0.0834812384	 0.134393
H	 0.7262819479	 0.0169252188	 2.2676904298	 0.089204
92.3198	115.352	221.3012	247.2511	291.1867	328.5694	431.6248	456.8564	491.0583	541.9729	617.1656	681.1566	756.5057	795.0776	834.93	863.6209	912.5162	914.5001	944.4558	991.9103	1025.0553	1037.0244	1067.7021	1083.6279	1097.832	1119.6553	1139.8936	1151.3308	1176.0837	1215.6778	1228.6991	1316.781	1334.7803	1351.2686	1378.7213	1397.2122	1409.0321	1423.1688	1475.3605	1485.3815	1496.1535	1498.1692	1745.3236	2980.5132	3013.1423	3045.335	3107.9537	3120.5081	3126.6953	3138.353	3150.0297	3160.0394	3223.5707	3457.007
CC1OC(=N)CC2CC12	C[C@H]1O[C]([NH])C[C@H]2C[C@@H]12	
InChI=1S/C7H11NO/c1-4-6-2-5(6)3-7(8)9-4/h4-6,8H,2-3H2,1H3	InChI=1S/C7H11NO/c1-4-6-2-5(6)3-7(8)9-4/h4-6,8H,2-3H2,1H3/t4-,5-,6+/m1/s1
