16
gdb 93304	2.2972	1.87089	1.14232	5.09	65.58	-0.2429	0.0093	0.2521	1031.5157	0.12457	-475.032946	-475.02473	-475.023786	-475.065898	30.382	
O	 0.3033304676	 1.0823771877	-0.6277960487	-0.421131
C	 0.0525878721	-0.14563322	 0.0213174258	 0.001836
C	 0.4103552026	-0.1338446857	 1.5326978043	-0.205433
N	-0.6035085673	-0.9962236856	 2.1198370138	-0.333221
C	-1.7295856983	-1.1618387713	 1.356442669	 0.353296
O	-2.7543612898	-1.7166565044	 1.6787994216	-0.375478
C	-1.4252269025	-0.491077207	 0.0290973381	 0.327436
C	-2.4660748801	 0.2624410951	-0.6836854948	-0.231146
O	-2.0281211002	-1.0175584493	-1.1408918696	-0.27359
H	 1.2126879351	 1.0860985481	-0.9399453921	 0.29445
H	 0.5830900781	-0.969279004	-0.4757423403	 0.101344
H	 1.4190540581	-0.5105365968	 1.7295582022	 0.112723
H	 0.3472835668	 0.899500644	 1.8986841294	 0.121374
H	-0.6138333725	-1.2486538852	 3.09597416	 0.256342
H	-3.4700355838	 0.2828282645	-0.2645817373	 0.13494
H	-2.1621747859	 1.1083893197	-1.2945509313	 0.136257
71.359	160.7065	183.6975	235.9849	256.483	286.4699	321.8619	488.8354	509.2154	525.3977	611.3754	665.7717	707.2818	754.3551	867.4418	913.2672	938.3345	1015.7467	1054.66	1071.0107	1115.3194	1133.7674	1157.4581	1179.7675	1210.0996	1247.038	1280.0097	1310.7394	1338.4018	1411.6441	1433.4462	1461.0591	1510.1551	1532.0578	1845.5596	3011.704	3018.1679	3072.8827	3100.5831	3203.3121	3631.601	3836.0031
OC1CNC(=O)C11CO1	O[C@H]1CNC(=O)[C@]21CO2	
InChI=1S/C5H7NO3/c7-3-1-6-4(8)5(3)2-9-5/h3,7H,1-2H2,(H,6,8)	InChI=1S/C5H7NO3/c7-3-1-6-4(8)5(3)2-9-5/h3,7H,1-2H2,(H,6,8)/t3-,5+/m0/s1
