17
gdb 68433	2.69551	1.62568	1.26447	5.3752	71.97	-0.2466	0.0206	0.2672	1008.5684	0.137644	-417.988926	-417.981306	-417.980362	-418.020832	30.12	
O	-0.1251337322	 1.3857407251	-0.0353892289	-0.471584
C	-0.0511423811	 0.0074847124	 0.0247992829	 0.406682
C	 0.3594110052	-0.8180934889	 1.2928703394	-0.305785
C	-0.3885601959	-1.9271574232	 0.5035116863	-0.005166
C	-1.3584479075	-0.8222612616	 0.015981994	-0.251512
N	 0.4333732172	-2.1486467887	-0.7146203867	-0.290492
C	 0.7809725506	-0.7431026197	-1.067737272	-0.231187
C	 0.4021423911	-0.3951570263	-2.4416360469	 0.320507
N	 0.1191526188	-0.1000546582	-3.5223036898	-0.329135
H	 0.7641437274	 1.7574223254	-0.0330064617	 0.287938
H	 1.4229746047	-0.9667170973	 1.50637961	 0.086379
H	-0.1716160559	-0.4705695067	 2.1806502819	 0.114721
H	-0.7340058341	-2.8525299721	 0.9582615832	 0.086758
H	-2.0489420891	-0.4887318196	 0.7908653149	 0.116142
H	-1.8684553483	-0.9760817954	-0.9361137591	 0.129603
H	 1.276528752	-2.6678770821	-0.4909338137	 0.226827
H	 1.8511889372	-0.5287802932	-0.9527582338	 0.109305
116.3512	140.1013	246.4731	303.9001	343.5444	401.1611	449.5908	474.0066	523.185	585.0941	618.4221	703.5797	795.3996	829.7639	863.1978	906.1863	922.3389	940.7157	982.7087	1001.8332	1008.1651	1053.6832	1083.1778	1114.4493	1136.2722	1180.8273	1197.6794	1234.3319	1241.9596	1292.7815	1305.7323	1352.5541	1384.4395	1420.108	1476.3479	1517.8316	2359.2128	3021.4256	3049.1022	3087.3465	3129.4264	3149.6425	3156.7868	3517.5891	3800.4739
OC12CC(C1)NC2C#N	O[C@@]12C[C@@H](C1)N[C@H]2C#N	
InChI=1S/C6H8N2O/c7-3-5-6(9)1-4(2-6)8-5/h4-5,8-9H,1-2H2	InChI=1S/C6H8N2O/c7-3-5-6(9)1-4(2-6)8-5/h4-5,8-9H,1-2H2/t4-,5-,6-/m0/s1
