20
gdb 15436	4.31239	1.03002	0.91837	1.6842	73.57	-0.2333	0.0862	0.3195	1348.8127	0.174313	-386.0989	-386.089391	-386.088447	-386.133766	33.394	
C	-0.0954808375	 1.4822887198	 0.0952529916	-0.38409
C	-0.2969316407	 0.0226271482	 0.4632526916	-0.030503
O	-1.0356357912	-0.599676635	-0.5765430019	-0.237603
C	-1.2585768118	-1.9485960461	-0.3586501812	 0.095212
C	-2.4157954771	-2.3821768414	 0.5270470674	-0.363174
C	-2.4717398437	-2.5588649493	-0.9813326714	 0.093954
O	-3.2916174111	-1.7317181031	-1.7321300402	-0.225599
C	-4.6347597837	-2.168537007	-1.7570882398	-0.228685
H	 0.4721487679	 1.9974413999	 0.8760291256	 0.112415
H	 0.4516584408	 1.5682606237	-0.8477565573	 0.127744
H	-1.0601121857	 1.9838022645	-0.0231292595	 0.128603
H	 0.6744906138	-0.4836821302	 0.5905754442	 0.08462
H	-0.8376933973	-0.0713625646	 1.4179896613	 0.089406
H	-0.3534445508	-2.5594475187	-0.3340293099	 0.082927
H	-2.3123244314	-3.2473337998	 1.1729330562	 0.108763
H	-3.0236272448	-1.5731046361	 0.9181465361	 0.124876
H	-2.3735721992	-3.5739500924	-1.3725862228	 0.082866
H	-5.1913398145	-1.4589184101	-2.3735740428	 0.127624
H	-4.7272929739	-3.1730884981	-2.1983618432	 0.10339
H	-5.0728082983	-2.1934166441	-0.7487326939	 0.107254
66.4437	83.6949	110.6264	118.5028	200.871	227.9855	247.9193	311.4735	336.0451	441.1432	512.0646	634.7722	751.4241	819.233	830.5202	872.6438	926.9636	999.3167	1026.0245	1044.851	1083.6315	1094.0708	1133.5814	1151.5765	1167.8784	1180.2639	1187.1657	1193.8248	1239.4474	1275.41	1292.93	1365.6516	1394.7714	1406.3847	1432.5168	1470.8632	1483.2041	1485.7197	1495.1157	1500.0294	1509.163	1529.2524	2964.1261	2979.1118	2996.9955	3029.7813	3045.2797	3066.7689	3079.4345	3118.8161	3119.5405	3122.7324	3130.9662	3225.8855
CCOC1CC1OC	CCO[C@H]1C[C@H]1OC	
InChI=1S/C6H12O2/c1-3-8-6-4-5(6)7-2/h5-6H,3-4H2,1-2H3	InChI=1S/C6H12O2/c1-3-8-6-4-5(6)7-2/h5-6H,3-4H2,1-2H3/t5-,6+/m1/s1
