18
gdb 68798	2.78671	1.33444	1.09983	4.8227	77.09	-0.2517	0.0031	0.2548	1158.1141	0.145672	-401.930076	-401.921047	-401.920103	-401.963592	33.408	
C	-0.079044603	 1.5101934136	 0.0082748005	-0.493477
C	 0.0470584653	 0.0245757964	 0.0603064593	 0.433874
C	 1.2097460345	-0.8211207972	-0.3598462189	-0.3885
C	 0.6409594834	-0.9726973609	 1.0416007159	 0.196864
C	 1.4252929697	-0.8434219411	 2.3123748458	-0.500323
C	-0.7127988364	-1.6828657249	 0.9142701521	-0.058176
O	-1.170049013	-0.7428057868	-0.0848050473	-0.325753
C	-0.724524358	-3.0753540463	 0.454692269	 0.282489
N	-0.7129946577	-4.1776767531	 0.1079168026	-0.32569
H	 0.8852485303	 1.9833076874	 0.2139280712	 0.128986
H	-0.4041529662	 1.8293355458	-0.9881590274	 0.142892
H	-0.8111031946	 1.8699984852	 0.7374911725	 0.132411
H	 1.0779338287	-1.5978159667	-1.1082901432	 0.135384
H	 2.1703790837	-0.3152569556	-0.3863229667	 0.119709
H	 2.1938442506	-0.0703419005	 2.2166932444	 0.129029
H	 0.7826949872	-0.5739617729	 3.1578854906	 0.124882
H	 1.9340686681	-1.7818552896	 2.5611692509	 0.139639
H	-1.3201185225	-1.5989600127	 1.8238763287	 0.125758
105.7752	130.053	167.6701	176.2098	193.2613	262.0439	311.1434	358.5616	413.6563	464.163	534.8775	563.2779	633.9793	706.7906	746.4084	841.9545	919.4416	945.1814	947.8551	990.4447	994.4643	1035.5448	1060.8848	1105.4855	1114.1373	1192.5719	1204.9735	1239.4382	1322.4356	1349.3427	1401.2281	1416.4691	1436.3245	1472.85	1485.2482	1493.4734	1496.4718	1516.3011	2356.1442	3026.8543	3035.6947	3036.95	3087.8668	3102.0397	3103.6844	3115.758	3119.8446	3207.1932
CC12CC1(C)C(O2)C#N	C[C@@]12C[C@]1(C)[C@@H](O2)C#N	
InChI=1S/C7H9NO/c1-6-4-7(6,2)9-5(6)3-8/h5H,4H2,1-2H3	InChI=1S/C7H9NO/c1-6-4-7(6,2)9-5(6)3-8/h5H,4H2,1-2H3/t5-,6+,7+/m0/s1
