16
gdb 50293	3.36413	1.2467	1.1652	3.7088	71.51	-0.2334	-0.0294	0.204	1080.0323	0.125384	-437.898154	-437.890724	-437.88978	-437.931234	27.805	
O	 0.0350790415	 0.032088286	 0.0111464944	-0.335056
C	 0.0528750529	 1.2458067269	 0.0285386344	 0.135485
N	 1.1857035025	 1.985203216	 0.0827564321	-0.026217
C	 2.5564518057	 1.4330621941	 0.0466039993	-0.176157
C	 3.3287147512	 2.771601726	-0.0363621258	-0.180902
C	 2.5415427648	 3.6483664432	 1.0024797671	-0.244257
C	 1.3493431801	 3.4391532768	 0.0184756809	-0.145226
C	 2.4602784129	 3.5305446202	-1.0711615784	 0.451697
O	 2.6189118328	 4.0647204872	-2.1226990029	-0.303281
H	-0.8588494027	 1.8749529894	 0.0158196607	 0.076311
H	 2.7798843274	 0.8583150623	 0.9508832449	 0.13366
H	 2.7058242812	 0.7876456914	-0.8235451214	 0.143048
H	 4.4132805364	 2.7299867282	-0.0882763802	 0.104926
H	 2.4102560717	 3.2207170086	 1.9981830369	 0.126042
H	 2.8899220871	 4.6812035949	 1.0496736058	 0.131231
H	 0.4244776245	 4.0092465787	 0.0253028021	 0.108696
25.3345	164.9157	208.7481	264.4673	355.984	431.4856	447.5642	508.9962	630.1018	690.5539	771.5096	829.4298	838.8147	843.3614	924.9867	976.2694	1007.4794	1012.0511	1026.4239	1028.291	1078.7078	1122.3584	1168.4857	1173.6754	1204.5067	1231.997	1235.0903	1264.4757	1337.6219	1411.3456	1458.0974	1482.7664	1523.3452	1785.9017	1918.1582	2939.6189	3051.3948	3078.334	3097.3305	3150.0627	3165.7284	3171.537
O=CN1CC2CC1C2=O	O=CN1C[C@@H]2C[C@H]1C2=O	
InChI=1S/C6H7NO2/c8-3-7-2-4-1-5(7)6(4)9/h3-5H,1-2H2	InChI=1S/C6H7NO2/c8-3-7-2-4-1-5(7)6(4)9/h3-5H,1-2H2/t4-,5-/m0/s1
