13
gdb 25039	4.35367	1.1117	0.9402	4.6216	61.5	-0.2496	-0.0137	0.2359	1164.6024	0.089091	-493.717494	-493.710378	-493.709434	-493.749846	25.776	
O	 0.0862842968	 0.0250123046	 0.0667879831	-0.361242
C	 0.0283490864	 1.2084527126	 0.0163204287	 0.50335
O	-1.0907897117	 1.9515983993	-0.2587330832	-0.207106
C	-0.7215805065	 3.2787796583	-0.2190181628	-0.139308
C	 0.5755701831	 3.3641374861	 0.0763244065	 0.343845
O	 1.0657523376	 2.0781125485	 0.2270636939	-0.242103
C	 1.480967858	 4.4992813759	 0.2618765859	-0.055776
C	 2.7550651162	 4.3744179438	 0.9890431329	-0.177249
O	 2.7321724683	 4.4555584916	-0.4342767756	-0.221461
H	-1.4830750405	 4.0124493779	-0.4150519999	 0.173886
H	 0.9778267549	 5.46491597	 0.2397946423	 0.112913
H	 3.1531967935	 5.2460417454	 1.5060466183	 0.127639
H	 3.040746304	 3.4070388061	 1.3956418099	 0.142612
81.6501	129.7406	153.1134	255.305	406.2559	437.877	533.5326	637.4131	674.9179	757.4509	769.0357	784.1613	843.6841	896.3945	918.8619	962.6188	1005.7037	1062.6817	1093.3818	1150.5203	1162.8148	1163.752	1257.4646	1277.7494	1348.6507	1425.3656	1520.3646	1731.1964	1947.8518	3094.248	3127.4508	3190.5929	3304.4264
O=C1OC=C(O1)C1CO1	O=c1occ(o1)[C@H]1CO1	
InChI=1S/C5H4O4/c6-5-8-2-4(9-5)3-1-7-3/h2-3H,1H2	InChI=1S/C5H4O4/c6-5-8-2-4(9-5)3-1-7-3/h2-3H,1H2/t3-/m1/s1
