18
gdb 78252	2.6106	1.36506	1.19764	3.1682	73.95	-0.238	0.0186	0.2566	1105.9692	0.146838	-439.064201	-439.055544	-439.0546	-439.097653	32.356	
C	-0.1521093873	 1.6003699119	-0.0096540069	-0.423222
C	 0.0758436747	 0.0973378388	-0.0425741646	 0.046583
C	 0.7138434208	-0.5752068886	-1.2756053302	-0.169547
C	 2.1993879404	-0.2931179335	-1.3886120115	 0.134988
O	 2.8164402607	 0.922476177	-1.108322174	-0.427526
C	 1.7391404872	-1.2381552384	-0.3277039043	-0.096647
N	 1.1916598573	-0.4519943311	 0.7711166084	-0.076667
C	 1.2778406061	-0.5981044003	 2.1159084665	 0.123184
O	 0.5416619508	-0.0571316475	 2.9150601952	-0.33089
H	 0.7292341802	 2.1456043321	-0.35145155	 0.133285
H	-0.9875727668	 1.856967632	-0.6692397692	 0.122407
H	-0.406273648	 1.9138832287	 1.0059297026	 0.151001
H	-0.8445722645	-0.4270400435	 0.2400119056	 0.106763
H	 0.1499817514	-1.0233825883	-2.0827689692	 0.105178
H	 2.6538342294	-0.7722412076	-2.2519632087	 0.117763
H	 2.7673117782	 1.0533943638	-0.1528915395	 0.291463
H	 2.0459586031	-2.2683968671	-0.1894714302	 0.116601
H	 2.1158449362	-1.2647712985	 2.4066701299	 0.075283
57.967	156.4121	178.6546	217.0547	238.9609	274.5815	319.9564	382.2782	439.6918	497.4748	580.9471	672.7354	727.8983	762.3278	793.4566	811.708	929.3931	956.567	993.2608	1020.2636	1029.3954	1053.9395	1087.2314	1107.811	1147.7706	1163.4357	1190.9328	1246.4837	1292.8971	1311.5433	1350.7959	1383.2126	1399.4954	1405.3547	1441.1603	1456.4879	1494.4421	1504.0855	1786.6628	2921.6794	3039.5176	3049.6205	3119.6332	3147.5173	3152.6572	3180.0979	3205.3749	3773.756
CC1C2C(O)C2N1C=O	C[C@H]1[C@H]2[C@@H](O)[C@H]2N1C=O	
InChI=1S/C6H9NO2/c1-3-4-5(6(4)9)7(3)2-8/h2-6,9H,1H3	InChI=1S/C6H9NO2/c1-3-4-5(6(4)9)7(3)2-8/h2-6,9H,1H3/t3-,4+,5-,6+/m0/s1
