12
gdb 11219	5.38739	1.38559	1.16665	2.1764	51.96	-0.2752	-0.0595	0.2157	940.3735	0.082436	-455.646208	-455.639106	-455.638162	-455.678848	23.959	
O	-0.7277375921	 0.7185899628	 0.5379206448	-0.214055
C	 0.0838418225	 0.9642413415	-0.3082910741	 0.15449
C	 1.3433186574	 1.7981139234	-0.0519363683	 0.139254
O	 2.467366674	 0.9832792043	-0.3158506508	-0.26256
C	 3.384806933	 1.7368299323	-1.086302112	-0.219529
C	 2.5775861833	 2.9112594611	-1.6189551921	 0.404884
O	 2.873843408	 3.7381461715	-2.4216545317	-0.303871
O	 1.3683768681	 2.8747273297	-0.9780065179	-0.225416
H	 0.0104418793	 0.6009730803	-1.3556219258	 0.100788
H	 1.3449064872	 2.1904114159	 0.9736852661	 0.117445
H	 4.2238124615	 2.1079794922	-0.4815007363	 0.148207
H	 3.7790866077	 1.128400015	-1.9039611221	 0.160363
59.5038	68.2864	137.3674	298.6486	373.6046	426.3667	493.4843	560.1551	675.6943	773.7597	865.9157	946.6739	1021.0281	1028.295	1053.7758	1088.4896	1115.5738	1203.9283	1214.2388	1329.041	1335.1394	1361.4343	1409.1951	1496.6122	1856.9141	1916.3577	2916.5416	3020.4521	3034.4443	3104.2065
O=CC1OCC(=O)O1	O=C[C@H]1OCC(=O)O1	
InChI=1S/C4H4O4/c5-1-4-7-2-3(6)8-4/h1,4H,2H2	InChI=1S/C4H4O4/c5-1-4-7-2-3(6)8-4/h1,4H,2H2/t4-/m0/s1
