18
gdb 14240	3.28068	1.84933	1.76677	2.5764	66.77	-0.244	0.0651	0.3092	856.1921	0.154257	-384.908738	-384.901385	-384.900441	-384.940544	28.63	
C	 0.4502893914	 1.4846457028	-0.2162946709	-0.413955
C	 0.1937976458	 0.0146736374	 0.0330315544	 0.157713
O	 1.0387797889	-0.8624144386	-0.7788592482	-0.330689
C	 1.3390552572	-1.6967966321	 0.3645767946	 0.076602
C	 2.7332797858	-1.320175834	 0.9361836899	 0.145081
O	 3.6466658418	-0.8498806501	-0.0121452231	-0.436092
C	 2.0343226616	-0.2825447564	 1.8860223909	-0.286816
C	 0.6449534733	-0.6955065857	 1.329421123	-0.105069
H	 1.4938029825	 1.75312317	-0.0330865374	 0.127233
H	 0.2133777504	 1.7332487529	-1.2557131708	 0.131204
H	-0.1869164689	 2.0960907877	 0.4316968967	 0.122783
H	-0.8586740199	-0.2160729576	-0.1847898026	 0.082135
H	 1.0702256964	-2.743279906	 0.2009353386	 0.074523
H	 3.2108022931	-2.1346632014	 1.4894342085	 0.083395
H	 3.1022559351	-0.4804836393	-0.7237546649	 0.286358
H	 2.1587164204	-0.5176757788	 2.9458614719	 0.104288
H	 2.3349220709	 0.7554920762	 1.7288996153	 0.105493
H	-0.1319624258	-0.9651579671	 2.042756224	 0.075812
49.1099	200.8948	260.0882	263.3124	359.077	402.4664	504.3672	529.1989	563.8508	635.9534	748.5636	784.9911	835.0189	887.3263	889.2186	913.5862	969.3569	1009.0347	1034.3625	1069.6709	1092.5821	1105.1597	1146.0761	1161.2771	1169.326	1212.661	1243.4496	1266.3808	1293.3479	1310.1661	1322.3565	1346.5144	1388.9593	1409.9453	1446.4738	1471.9915	1482.4074	1501.7682	2998.259	3039.0191	3058.4929	3067.7447	3080.1144	3107.0766	3116.5637	3121.9029	3128.2764	3713.4607
CC1OC2C(O)CC12	C[C@H]1O[C@H]2[C@@H](O)C[C@@H]12	
InChI=1S/C6H10O2/c1-3-4-2-5(7)6(4)8-3/h3-7H,2H2,1H3	InChI=1S/C6H10O2/c1-3-4-2-5(7)6(4)8-3/h3-7H,2H2,1H3/t3-,4+,5+,6-/m1/s1
