19
gdb 117047	4.08388	0.76514	0.65278	1.821	76.18	-0.2356	-0.0694	0.1661	1705.8287	0.157208	-456.364645	-456.354098	-456.353154	-456.40152	36.654	
C	-0.1803341618	 1.5240951673	-0.1207604279	-0.408733
C	-0.0351023251	 0.0112266615	-0.0007429224	-0.095069
N	-1.3324201693	-0.6355338481	-0.039233314	-0.301846
C	-1.4795030523	-1.9801270121	-0.0774222566	 0.268742
N	-0.4745657417	-2.7815666863	-0.1207289262	-0.538914
C	-2.9392594079	-2.3998604581	-0.065384041	 0.317791
O	-3.8298888221	-1.5768114668	 0.0140123175	-0.341569
C	-3.2977822878	-3.8747616417	-0.1493690371	-0.142826
O	-4.6807838235	-4.0587961137	-0.1251728968	-0.42185
H	 0.8021740374	 2.0018689109	-0.0900873415	 0.129634
H	-0.6638840008	 1.8009736073	-1.0630475855	 0.127859
H	-0.7761158247	 1.9326758511	 0.7029731698	 0.123721
H	 0.5780651032	-0.3897298412	-0.8162590701	 0.128959
H	 0.4875577894	-0.2557409922	 0.9283005146	 0.117104
H	-2.1767552319	-0.0934594887	 0.054440851	 0.259159
H	-0.7737367929	-3.7521206583	-0.1636703928	 0.222659
H	-2.8565587349	-4.2862769617	-1.0717809475	 0.129885
H	-2.8115932894	-4.3978212396	 0.690216157	 0.129435
H	-5.0616968838	-3.1693353397	-0.0564785706	 0.295861
37.9407	67.9622	81.1495	117.2448	122.0094	248.9763	259.7222	325.1024	348.4528	359.4913	394.0198	426.9802	445.8237	524.3852	680.1556	749.8694	782.5192	815.6129	847.1974	913.3124	1014.4394	1036.1734	1103.6346	1144.0213	1172.4795	1179.1202	1191.8999	1242.3673	1289.2214	1298.2816	1325.2166	1391.4872	1418.1916	1447.8802	1493.4842	1494.9245	1500.6938	1526.5913	1556.1463	1691.7279	1774.1119	2977.604	2994.9914	3012.5761	3037.4542	3052.9742	3105.0395	3122.7339	3527.9391	3638.59	3696.2742
CCNC(=N)C(=O)CO	CCNC(=N)C(=O)CO	
InChI=1S/C5H10N2O2/c1-2-7-5(6)4(9)3-8/h8H,2-3H2,1H3,(H2,6,7)	InChI=1S/C5H10N2O2/c1-2-7-5(6)4(9)3-8/h8H,2-3H2,1H3,(H2,6,7)
