14
gdb 127501	3.77298	1.15142	0.88716	1.3624	70.88	-0.2378	-0.0794	0.1584	1216.2055	0.101051	-470.053756	-470.045501	-470.044557	-470.087089	28.793	
C	 0.0656608499	 1.4123384575	-0.0542800096	-0.330368
N	 0.0539361367	-0.0329322325	-0.0206792274	-0.050652
N	 0.1075368267	-0.7722027594	-1.1529729046	-0.257038
C	 0.0781911861	-2.0161661711	-0.7520813991	 0.303337
N	 0.0063343315	-2.0894515694	 0.6241651089	-0.423184
C	-0.0117224997	-0.7985514681	 1.1451622226	 0.478744
O	-0.0686570617	-0.4263918315	 2.2950341474	-0.420425
C	 0.1154116486	-3.1977093677	-1.6263132027	 0.094897
O	 0.1777048798	-3.1622527397	-2.8292013785	-0.238949
H	 0.9848262694	 1.775631472	-0.5211305976	 0.153061
H	-0.7951320055	 1.7879411278	-0.6135060248	 0.153065
H	 0.0143754172	 1.7533688767	 0.9805277512	 0.174124
H	-0.0289253837	-2.9150761367	 1.1975437889	 0.285047
H	 0.0801488447	-4.159927978	-1.0669082147	 0.078339
98.5797	110.8009	156.0555	172.2257	231.6485	294.2377	327.8427	431.114	482.4723	546.8434	681.5425	686.6278	748.1381	763.182	844.2579	1018.578	1030.9738	1050.6212	1140.8307	1156.3678	1234.9276	1281.5074	1403.2829	1413.4262	1450.8368	1484.5274	1485.801	1507.8169	1568.4048	1811.0945	1850.8656	2876.3991	3052.829	3121.2337	3160.6859	3679.6697
CN1N=C(NC1=O)C=O	Cn1nc([nH]c1=O)C=O	
InChI=1S/C4H5N3O2/c1-7-4(9)5-3(2-8)6-7/h2H,1H3,(H,5,6,9)	InChI=1S/C4H5N3O2/c1-7-4(9)5-3(2-8)6-7/h2H,1H3,(H,5,6,9)
