19
gdb 108310	2.92699	1.33753	1.09839	1.6595	71.17	-0.2508	0.0495	0.3003	1155.062	0.158295	-460.11871	-460.10999	-460.109045	-460.152307	32.599	
C	 0.3965879091	 1.491347383	-0.1308493909	-0.410472
C	 0.0793087972	 0.0240895819	 0.0383430044	 0.130591
O	 0.8703985622	-0.8454802123	-0.836155437	-0.369669
C	 1.2818595928	-1.6782539762	 0.2772062002	 0.396471
C	 1.020737035	-3.1336123439	-0.0124333406	-0.163866
O	 1.7082300651	-3.5203498975	-1.1895078349	-0.416795
C	 2.6005735634	-1.1825381811	 0.8913984207	-0.118688
O	 1.879709652	-0.2530142659	 1.7485882618	-0.292812
C	 0.604836215	-0.7236396682	 1.2818253588	-0.031922
H	 1.4287683827	 1.6946275385	 0.1618172707	 0.138902
H	 0.2530988103	 1.7894095339	-1.1737161217	 0.127336
H	-0.2699192281	 2.0967326756	 0.492763765	 0.120331
H	-0.9893231399	-0.1739888603	-0.1265882516	 0.079491
H	 1.3935112948	-3.7658871807	 0.7999691866	 0.112399
H	-0.0642789372	-3.3012396856	-0.102648002	 0.091529
H	 1.4409381194	-2.8921012872	-1.8720072697	 0.297282
H	 3.14520844	-1.9247210158	 1.4879499724	 0.106766
H	 3.2804354138	-0.6791687722	 0.1979549799	 0.116942
H	-0.0829838977	-0.9771467961	 2.0908853878	 0.086185
71.1221	112.0477	151.1379	212.1984	240.52	311.155	325.8998	396.7776	436.6007	455.9355	576.337	674.5756	712.8848	815.1223	874.2174	910.8734	916.1116	949.2683	970.9408	1003.1715	1037.595	1072.7723	1089.8097	1097.0623	1127.4473	1148.2716	1159.3505	1189.9952	1252.3713	1274.5781	1303.702	1318.3875	1369.2356	1372.0851	1386.9534	1406.2623	1436.8524	1482.3602	1492.425	1496.6893	1504.3802	2979.9907	3002.8181	3023.8905	3042.882	3077.7803	3093.5379	3094.2602	3110.4059	3137.7227	3784.6114
CC1OC2(CO)COC12	C[C@H]1O[C@@]2(CO)CO[C@@H]12	
InChI=1S/C6H10O3/c1-4-5-6(2-7,9-4)3-8-5/h4-5,7H,2-3H2,1H3	InChI=1S/C6H10O3/c1-4-5-6(2-7,9-4)3-8-5/h4-5,7H,2-3H2,1H3/t4-,5+,6+/m1/s1
