21
gdb 75282	2.70527	1.71125	1.28406	0.3183	88.94	-0.2238	0.0227	0.2464	1068.9468	0.184692	-349.896075	-349.888648	-349.887704	-349.927456	31.051	
C	 0.0923555652	 1.4767115248	 0.0664795089	-0.504781
C	-0.0538337424	-0.0097078209	 0.0025553263	 0.159939
C	-0.0748067361	-0.7900160608	-1.0936973909	-0.140518
C	-0.1689228915	-2.2959547823	-0.7996986658	-0.351295
C	-0.6707289932	-2.2586448276	 0.6569093804	 0.04221
C	-0.0353274125	-2.6098583704	 2.0478381837	-0.094423
C	 1.1858217375	-1.7432332229	 1.669403058	-0.247621
C	-0.0787996614	-0.9397943471	 1.1818149176	 0.289898
C	-0.7122423011	-1.2800535085	 2.5665351324	-0.308572
H	 0.9974006316	 1.7606496112	 0.6186624553	 0.126273
H	 0.149132848	 1.9215385291	-0.93108993	 0.121963
H	-0.7509027847	 1.9360775581	 0.5970384394	 0.126945
H	 0.0258712266	-0.4115212343	-2.1071093933	 0.083198
H	-0.8590763586	-2.8141659287	-1.4734846352	 0.098664
H	 0.8101488921	-2.7736073135	-0.9326490779	 0.111014
H	-1.7663998391	-2.2757725848	 0.6687230058	 0.062949
H	-0.0287967816	-3.5692430444	 2.5686351831	 0.067134
H	 1.7513871352	-1.3033691052	 2.495431869	 0.084529
H	 1.855519454	-2.1262021484	 0.897429194	 0.092589
H	-1.8045815081	-1.2750773236	 2.6201312991	 0.092104
H	-0.26166098	-0.8299855099	 3.4555756305	 0.087799
168.8288	181.5023	236.9348	269.6426	338.8921	452.1599	520.8754	560.9331	573.6812	591.3423	667.7504	764.978	803.6043	832.3364	869.656	882.5168	919.1714	944.0095	965.6006	980.6865	1021.6812	1028.1063	1048.8128	1062.9407	1076.069	1104.8031	1129.625	1132.185	1147.4938	1159.5285	1178.7215	1204.7442	1215.8787	1239.4716	1257.8408	1288.5001	1353.7044	1405.2367	1412.9409	1478.3395	1479.8753	1488.971	1502.0386	1540.2484	1665.0811	3017.2533	3027.3079	3033.637	3046.16	3058.2947	3063.8532	3068.6562	3092.0542	3106.0574	3113.9466	3124.7148	3170.5454
CC1=CCC2C3CC12C3	CC1=CC[C@H]2[C@H]3C[C@@]12C3	
InChI=1S/C9H12/c1-6-2-3-8-7-4-9(6,8)5-7/h2,7-8H,3-5H2,1H3	InChI=1S/C9H12/c1-6-2-3-8-7-4-9(6,8)5-7/h2,7-8H,3-5H2,1H3/t7-,8-,9+/m0/s1
