19
gdb 40813	4.1461	1.04198	0.87868	2.6945	76.88	-0.2405	0.0257	0.2662	1311.9151	0.161918	-419.189278	-419.181294	-419.18035	-419.222393	30.168	
C	 0.596373117	 0.4259969731	-1.0077067797	-0.248653
N	-0.6208605243	 1.0295677289	-0.4379290851	-0.310728
C	 0.3710473926	 0.4296218666	 0.4594607235	-0.000613
C	-0.0563959015	-0.8134548815	 1.2109317708	 0.054061
C	 1.1220545737	-1.760407587	 1.4793228478	-0.240415
C	 0.6691854806	-2.8511809486	 2.4401811361	-0.077455
O	 0.1099454648	-2.290756954	 3.6385004502	-0.225184
C	-0.5621455091	-1.1241262725	 3.4853631327	 0.125365
N	-0.718155789	-0.4078343703	 2.4556927693	-0.279403
H	 0.4235487434	-0.4797522735	-1.5841601312	 0.11199
H	 1.3725880759	 1.0713151511	-1.410765011	 0.109221
H	-0.5428078407	 2.0424731395	-0.4267991112	 0.232716
H	 0.9889687857	 1.1054464308	 1.0494773733	 0.08369
H	-0.8019358202	-1.3203587121	 0.5831535589	 0.092594
H	 1.492615209	-2.2093156802	 0.5523524242	 0.107116
H	 1.9515801538	-1.2007257106	 1.9284896047	 0.109454
H	-0.0918787759	-3.4891419825	 1.9721128805	 0.114336
H	 1.4949187807	-3.4875266902	 2.767392885	 0.118527
H	-0.9994391464	-0.8301102268	 4.4384058311	 0.12338
79.7969	87.6183	166.1825	229.96	299.0904	347.2329	439.8318	492.7177	526.0853	583.438	782.197	835.9861	857.732	881.0015	893.5178	901.3017	943.4224	967.5066	973.2601	1012.3739	1045.7544	1075.2198	1111.008	1119.7176	1144.6495	1178.246	1217.5382	1241.0413	1253.7153	1271.1769	1281.9962	1305.661	1330.1321	1370.6776	1400.0884	1416.9433	1447.3533	1479.4055	1509.7514	1515.751	1728.2662	3013.5882	3022.9372	3037.2693	3087.6548	3100.2071	3102.2337	3115.772	3152.714	3184.1858	3512.7425
C1NC1C1CCOC=N1	C1N[C@H]1[C@H]1CCOC=N1	
InChI=1S/C6H10N2O/c1-2-9-4-8-5(1)6-3-7-6/h4-7H,1-3H2	InChI=1S/C6H10N2O/c1-2-9-4-8-5(1)6-3-7-6/h4-7H,1-3H2/t5-,6-/m1/s1
