19
gdb 90487	2.7646	1.47453	1.24186	2.724	75.38	-0.2274	0.0835	0.3109	1084.551	0.158309	-422.949792	-422.941467	-422.940523	-422.983199	31.407	
C	-0.2727059825	 1.7532105676	 0.5948753691	-0.419803
C	-0.0298197315	 0.2593473687	 0.5582848484	 0.156412
O	 0.8497533713	-0.1897653018	-0.5184644165	-0.291456
C	 1.5756446495	-1.0057497302	 0.3931116342	 0.068019
C	 2.3114213453	-0.2287440644	 1.4402335287	-0.054166
C	 3.0429610609	 1.072588613	 1.3023000065	 0.045279
C	 4.1442071839	 1.2481852532	 0.3417157355	-0.174264
O	 2.8788463693	 1.8739921206	 0.1365076417	-0.215582
C	 0.8191944061	-0.4773890892	 1.601360749	-0.203094
H	 0.6568993678	 2.3170263917	 0.6681672686	 0.155082
H	-0.7894367013	 2.0663476082	-0.3183817443	 0.124807
H	-0.91665954	 2.0004856901	 1.4464085618	 0.1102
H	-0.9871179287	-0.269828369	 0.4512443242	 0.082452
H	 1.830570028	-2.0109089706	 0.0736289269	 0.101157
H	 2.8556103932	-0.9025249358	 2.1046723025	 0.098763
H	 3.0932642817	 1.6543394368	 2.2260705894	 0.091026
H	 4.9691260864	 1.9196080316	 0.5767117126	 0.111941
H	 4.3763538424	 0.4415601753	-0.351745087	 0.118653
H	 0.4174674081	-1.0013117559	 2.4588999687	 0.094574
47.5511	148.687	151.3074	201.9887	234.3244	306.5419	379.5334	425.0514	561.5695	675.3785	710.0891	754.6571	799.3026	808.1644	864.2345	902.8164	911.6425	938.404	983.8051	1016.1317	1046.6453	1059.6236	1071.7895	1093.8789	1103.7693	1113.0597	1151.1276	1163.5442	1170.3625	1195.9241	1267.8962	1288.6489	1312.0211	1345.7082	1392.3729	1412.7879	1423.5349	1456.5458	1481.354	1502.53	1522.9452	3002.2137	3040.8252	3072.8787	3083.8517	3099.2554	3100.2398	3162.5934	3163.3346	3172.8917	3194.2049
CC1OC2C(C3CO3)C12	C[C@H]1O[C@H]2[C@@H]([C@H]3CO3)[C@@H]12	
InChI=1S/C7H10O2/c1-3-5-6(4-2-8-4)7(5)9-3/h3-7H,2H2,1H3	InChI=1S/C7H10O2/c1-3-5-6(4-2-8-4)7(5)9-3/h3-7H,2H2,1H3/t3-,4-,5-,6+,7-/m1/s1
