17
gdb 69913	2.78202	1.75282	1.41846	1.0338	71.32	-0.2485	-0.0074	0.2411	952.8246	0.136177	-421.804323	-421.797088	-421.796144	-421.835779	28.94	
C	-0.0493378244	 1.4772382093	 0.0262880752	-0.49248
C	 0.0741270038	-0.0155194501	-0.0221555169	 0.414468
O	-0.7712460986	-0.7903728058	 0.8448447561	-0.291558
C	 0.6493484583	-0.9050855502	 1.0059286318	-0.02515
C	 1.3319134523	-1.9993038631	 0.1615953604	-0.195693
C	 0.2777674869	-2.2471286277	-0.9621769136	-0.238392
C	 0.4966723644	-0.746266064	-1.3213951143	-0.230292
C	 1.9739238941	-1.0525484735	-0.9070773306	 0.425546
O	 3.0656263478	-0.7812232856	-1.2935107236	-0.31165
H	 0.837164792	 1.9484419495	-0.410918608	 0.138433
H	-0.9230139368	 1.814696707	-0.5417431843	 0.133078
H	-0.1583388427	 1.8216788589	 1.0576060121	 0.134491
H	 1.0589144632	-0.5735068672	 1.9535733984	 0.111032
H	 1.877451826	-2.7974982708	 0.658222987	 0.08874
H	 0.6450763761	-2.9208843246	-1.7370435261	 0.11673
H	-0.7208352773	-2.5170339448	-0.6272939075	 0.137854
H	 0.226960425	-0.3137190572	-2.2819931361	 0.084844
123.6473	182.099	219.532	302.3889	379.6172	459.5055	503.8772	534.4328	591.5041	667.0377	706.6392	766.9849	819.549	831.2701	863.3409	911.1294	937.8507	959.6028	990.1622	999.6983	1015.5095	1057.8791	1077.5373	1106.979	1127.7927	1177.745	1194.4287	1216.2955	1249.3228	1273.0047	1287.5285	1407.7986	1440.213	1479.2945	1483.767	1495.4863	1907.0694	3037.0166	3098.0407	3100.0433	3124.7078	3151.3109	3156.8015	3177.2082	3182.1351
CC12OC1C1CC2C1=O	C[C@]12O[C@H]1[C@H]1C[C@@H]2C1=O	
InChI=1S/C7H8O2/c1-7-4-2-3(5(4)8)6(7)9-7/h3-4,6H,2H2,1H3	InChI=1S/C7H8O2/c1-7-4-2-3(5(4)8)6(7)9-7/h3-4,6H,2H2,1H3/t3-,4+,6-,7+/m0/s1
