18
gdb 28204	4.75635	1.15486	0.94574	2.9922	80.94	-0.1908	0.0413	0.2321	1233.1559	0.14961	-401.980557	-401.972382	-401.971438	-402.013547	30.267	
C	 0.0212104898	 1.4871959378	 0.0812568565	-0.502863
C	 0.0064939448	-0.0002811296	-0.0473365216	 0.330442
C	-0.0384864697	-0.8073473457	-1.1686919031	-0.427258
C	-0.029847478	-2.1535600042	-0.7092926883	 0.272682
C	 0.0186117458	-2.1258710958	 0.6518167875	 0.241792
C	 0.031075559	-3.4961944744	 1.2377147161	-0.176469
O	-0.01494345	-4.3390430141	 0.0800229307	-0.280907
C	-0.0540425279	-3.5816821784	-1.1495622971	-0.18065
N	 0.0408164204	-0.8239596424	 1.0685078822	-0.426837
H	 0.9291324336	 1.8539192459	 0.5771790432	 0.125547
H	-0.0180616415	 1.9434706257	-0.9104388612	 0.13911
H	-0.8369698032	 1.8646035979	 0.6520062673	 0.125326
H	-0.0726668751	-0.4479579024	-2.186287716	 0.092414
H	 0.9380794105	-3.7238784368	 1.8207943855	 0.101905
H	-0.8351438154	-3.7131939982	 1.8835112674	 0.101901
H	-0.9624424621	-3.8588925895	-1.7045947931	 0.103787
H	 0.809325843	-3.8695264855	-1.7674942982	 0.103787
H	 0.076290116	-0.4976480304	 2.0186537721	 0.25629
92.3349	110.1606	134.1894	239.0161	259.5845	262.9619	442.3391	461.7905	519.7082	637.3498	648.3188	721.9867	740.4817	789.3392	874.8689	892.1478	987.8648	1013.505	1021.2047	1060.8982	1061.6598	1070.0026	1127.3434	1155.0591	1170.7477	1213.2927	1249.2376	1329.8358	1338.2833	1404.1613	1414.4371	1451.9686	1479.6914	1498.9715	1520.7124	1526.7606	1534.4396	1547.5709	1634.6503	2961.4904	2974.5414	2984.9781	3002.9227	3013.3654	3055.9476	3122.6987	3241.9007	3674.4692
CC1=CC2=C(COC2)N1	Cc1cc2c(COC2)[nH]1	
InChI=1S/C7H9NO/c1-5-2-6-3-9-4-7(6)8-5/h2,8H,3-4H2,1H3	InChI=1S/C7H9NO/c1-5-2-6-3-9-4-7(6)8-5/h2,8H,3-4H2,1H3
