20
gdb 55848	3.46353	0.92883	0.81835	2.0363	77.91	-0.2463	0.0314	0.2778	1466.6338	0.167475	-440.27885	-440.268531	-440.267586	-440.314665	37.471	
C	 0.1221759306	 1.4189038051	-0.0969499688	-0.462076
C	-0.0113343028	-0.0729154616	 0.0710329975	 0.39539
N	-0.504472846	-0.72575049	 1.0397879543	-0.513922
O	 0.5060319308	-0.7018322413	-1.0128091467	-0.249912
C	 0.4605979208	-2.1095910402	-1.014643172	 0.132393
C	-0.6835203857	-2.8054249018	-1.7112354721	-0.368454
C	 0.7097214682	-2.7835793232	-2.3216995755	 0.337177
C	 0.9739483738	-1.981089859	-3.5745025849	-0.443607
O	 1.4847819165	-3.9490635379	-2.1966863967	-0.465852
H	-0.2835190455	 1.9474210539	 0.7669587789	 0.126759
H	 1.1744456152	 1.6911394516	-0.2233192357	 0.14812
H	-0.4060485587	 1.745917538	-0.9979222161	 0.144078
H	-0.8304864005	-0.091788958	 1.7657598889	 0.219733
H	 0.8615440787	-2.5672790831	-0.1184172388	 0.127523
H	-1.0394652167	-3.7297683503	-1.270573785	 0.118767
H	-1.4425100548	-2.1802709431	-2.169073329	 0.11393
H	 0.4199400097	-1.0402684983	-3.5667955455	 0.126234
H	 2.0411900117	-1.7533238724	-3.6573920492	 0.127452
H	 0.6757323511	-2.5478905687	-4.4646797693	 0.106067
H	 1.1660823437	-4.58303097	-2.8491246442	 0.280201
46.3807	80.5828	114.8644	121.1508	208.87	234.3944	256.6177	303.5652	325.7147	402.5969	417.3905	484.667	503.7872	573.9563	606.6604	711.4835	852.3211	865.3632	887.0001	910.0512	934.4825	976.0025	1009.8903	1031.6158	1044.7466	1067.1351	1086.7894	1096.4559	1115.7296	1163.3163	1247.8128	1295.6002	1339.2062	1374.7563	1403.7751	1414.5085	1417.7935	1471.0819	1477.0326	1482.671	1484.7085	1514.9622	1731.423	3030.643	3048.167	3095.2612	3111.2385	3132.1945	3135.9644	3144.2542	3190.8409	3230.2457	3514.566	3790.666
CC(=N)OC1CC1(C)O	C[C]([NH])O[C@H]1C[C@]1(C)O	
InChI=1S/C6H11NO2/c1-4(7)9-5-3-6(5,2)8/h5,7-8H,3H2,1-2H3	InChI=1S/C6H11NO2/c1-4(7)9-5-3-6(5,2)8/h5,7-8H,3H2,1-2H3/t5-,6-/m0/s1
