14
gdb 123509	4.12609	1.74928	1.22846	1.9096	79.36	-0.2228	-0.0578	0.165	926.1067	0.10569	-395.776163	-395.770311	-395.769367	-395.806256	23.678	
C	-0.0071786924	 1.3944378945	 0.0102486285	-0.134689
C	 1.3183973407	 1.8253000977	-0.0004346824	-0.088179
N	 2.1041062814	 0.7252577799	-0.014423287	 0.015804
N	 3.4554155562	 0.7037557767	-0.0279265203	-0.242702
C	 3.9681791612	-0.4990576665	-0.0397805311	 0.101865
N	 3.3212931488	-1.7002309646	-0.0401292725	-0.294905
C	 2.0072375188	-1.6446853248	-0.0267888833	-0.064076
C	 1.3003946164	-0.4337103189	-0.0129828839	 0.351957
C	-0.0267211715	-0.0079760537	 0.002519151	-0.286489
H	-0.8661054264	 2.048238655	 0.0224351064	 0.116615
H	 1.7565978943	 2.8094605902	 0.0007772497	 0.142354
H	 5.0526261926	-0.5319942346	-0.0507000185	 0.134734
H	 1.4592081402	-2.5850951385	-0.026670992	 0.130922
H	-0.8932016803	-0.6506702026	 0.0074641555	 0.116791
206.4882	228.8377	424.0131	429.1777	579.0319	600.1357	624.2553	647.0572	739.3309	757.7495	771.6498	796.5702	880.3653	893.4033	924.6237	945.418	996.0743	1062.2262	1079.887	1115.9576	1215.7642	1244.4204	1328.4399	1347.1121	1368.9798	1398.1059	1462.6051	1494.3105	1505.9104	1539.4832	1646.8937	3150.4576	3195.8877	3246.5977	3261.4422	3284.0705
C1=CN2N=CN=CC2=C1	c1cn2ncncc2c1	
InChI=1S/C6H5N3/c1-2-6-4-7-5-8-9(6)3-1/h1-5H	InChI=1S/C6H5N3/c1-2-6-4-7-5-8-9(6)3-1/h1-5H
