16
gdb 85488	3.36573	1.25234	1.08183	8.7159	72.53	-0.2042	-0.0052	0.199	1101.4073	0.125505	-434.040485	-434.032579	-434.031635	-434.072972	29.94	
N	-0.5650295865	 0.2822164964	 0.2558935244	-0.404507
H	-0.9321384667	-0.466526588	 0.9067576298	 0.314744
H	 0.3864446948	 0.0393154245	-0.0290841273	 0.324234
H	-1.1681289189	 0.3934022149	-0.5572657544	 0.316217
C	-0.5907549838	 1.4782379328	 1.2007282139	-0.055993
C	-2.03622685	 1.7123306407	 1.5828626068	-0.355392
C	-2.2978368056	 0.4629503982	 2.5325007396	 0.331477
O	-3.4298313953	 0.0931245364	 2.7828036295	-0.396303
N	-1.1120305215	-0.0953044625	 2.8979481316	-0.3805
C	-0.0694926745	 0.8445825196	 2.5377911474	-0.122899
C	 1.2321637807	 0.1976105783	 2.3098140715	 0.276403
N	 2.2307218383	-0.2948013255	 1.9951641434	-0.337574
H	-0.0100886612	 2.2892768235	 0.7591503999	 0.11516
H	-2.1284821483	 2.6522314728	 2.1362219243	 0.139643
H	-2.7440611182	 1.7414594329	 0.7499144126	 0.111934
H	 0.0844653767	 1.6657234349	 3.2588433071	 0.123357
107.6166	143.9707	146.8601	244.5738	364.871	385.9964	412.75	454.7319	533.0387	550.2405	583.4781	680.729	720.7912	797.3195	823.2636	859.5343	953.7918	973.9563	998.9258	1008.1878	1040.6362	1066.2555	1152.1005	1216.801	1227.0021	1254.1499	1286.7129	1329.0487	1357.1068	1404.4112	1467.4128	1608.9441	1654.6533	1793.5002	2342.6415	2915.32	2951.1868	3059.5273	3109.1817	3111.8381	3450.9715	3546.2044
[NH3+]C1CC(=O)[N-]C1C#N	[NH3][C@H]1CC(=O)[N][C@H]1C#N	
InChI=1S/C5H7N3O/c6-2-4-3(7)1-5(9)8-4/h3-4H,1,7H2,(H,8,9)	InChI=1S/C5H7N3O/c6-2-4-3(7)1-5(9)8-4/h3-4H,1H2,7H3/t3-,4-/m0/s1
