19
gdb 80937	2.47567	1.33881	1.24117	0.8437	82.64	-0.2525	0.0448	0.2973	1132.5399	0.157639	-385.810275	-385.80139	-385.800445	-385.843247	34.66	
C	 0.0191182061	 1.456792665	 0.0513352302	-0.521994
C	 0.0441345496	-0.0453995166	 0.0038624404	 0.310116
C	 0.5893316794	-0.9753164223	-1.1306684894	-0.282618
C	 0.0609566006	-1.9457883889	-0.0380438213	-0.112426
C	 0.7301592062	-1.0056631334	 1.0133118611	 0.109162
O	 2.1311365809	-0.8992831023	 1.0596861329	-0.445754
C	-1.1967288032	-1.0182922665	 0.0637782077	-0.219996
C	-2.045777965	-1.0416142174	 1.2378643425	 0.30894
C	-2.7805556675	-1.0474334676	 2.1911407303	-0.448759
H	 1.0384682238	 1.8554049883	 0.0783297158	 0.132793
H	-0.4861584147	 1.8734729904	-0.8264077823	 0.118309
H	-0.5079273686	 1.8078285	 0.9449960156	 0.127634
H	 0.0399075382	-0.9585515684	-2.0762446882	 0.085226
H	 1.6670529359	-0.9622949054	-1.2819553588	 0.114861
H	 0.0507400979	-3.0360576288	-0.0560678814	 0.074398
H	 0.2947838757	-1.0302787065	 2.0181435043	 0.077778
H	 2.4648476157	-1.5751583914	 1.6568755732	 0.28612
H	-1.7996081826	-1.003609645	-0.8491888349	 0.095934
H	-3.4255639784	-1.0570785032	 3.0344841423	 0.190276
121.3907	141.9746	190.5657	209.9565	247.0731	285.013	332.6816	387.8275	434.1475	510.3267	517.9546	613.4366	633.9129	644.7882	657.6207	771.1123	827.1202	848.1788	904.7356	922.1206	945.8808	1019.4889	1029.2905	1072.6465	1081.4882	1101.9608	1138.9609	1183.457	1189.0904	1204.8967	1217.2694	1230.439	1289.8992	1327.0858	1375.344	1407.695	1447.1459	1488.2736	1490.3207	1518.2193	2225.4811	3030.5256	3051.0925	3059.254	3063.6103	3098.9972	3103.9908	3110.4102	3158.4755	3503.5738	3829.3969
CC12CC(C1O)C2C#C	C[C@@]12C[C@@H]([C@H]1O)[C@H]2C#C	
InChI=1S/C8H10O/c1-3-6-5-4-8(6,2)7(5)9/h1,5-7,9H,4H2,2H3	InChI=1S/C8H10O/c1-3-6-5-4-8(6,2)7(5)9/h1,5-7,9H,4H2,2H3/t5-,6-,7-,8+/m1/s1
