18
gdb 104383	2.62413	1.52581	1.20006	3.92	68.01	-0.2399	0.0169	0.2569	1067.8605	0.149305	-476.268847	-476.260467	-476.259522	-476.301607	32.207	
O	-0.0348379347	 1.4088579759	-0.2944691767	-0.436519
C	 0.0532853452	 0.0108716793	-0.0759098192	-0.126802
C	-1.3594843652	-0.5632685619	 0.0472391806	 0.267732
O	-2.1328506531	-0.1649265228	-1.0784098065	-0.480876
C	-1.4847115553	-2.0761556247	 0.2219922062	-0.266284
C	-2.7555124968	-2.2559247778	 1.0831619117	-0.175319
N	-2.8007738962	-1.0094825977	 1.8379703191	-0.316098
C	-2.0559181396	-0.006433474	 1.3136846966	 0.417804
O	-1.9635429199	 1.137025943	 1.73572961	-0.42143
H	-0.5235370039	 1.757350967	 0.4716669288	 0.301454
H	 0.5564084469	-0.4212657779	-0.947596763	 0.111429
H	 0.6442855727	-0.2307803398	 0.8206351384	 0.093759
H	-1.8505110267	 0.7441988936	-1.2605432123	 0.289827
H	-1.5526109088	-2.5823704205	-0.7416423712	 0.126924
H	-0.6146173378	-2.4610687299	 0.7634490429	 0.113366
H	-3.6489287296	-2.3751935557	 0.4583635705	 0.127809
H	-2.6886128129	-3.117880568	 1.7532423284	 0.117246
H	-3.4524600944	-0.8349140982	 2.5873744558	 0.255978
94.9959	180.1452	184.553	204.4883	275.7514	328.2356	361.1769	411.4489	510.1471	529.4411	540.693	657.4244	700.1418	714.7198	741.7568	764.7099	847.7602	931.878	949.5001	1016.8538	1052.4625	1065.3391	1098.552	1115.6895	1168.9443	1211.3497	1234.8809	1269.3668	1306.2819	1323.1756	1360.0879	1374.4925	1423.7113	1452.3939	1472.7173	1477.6781	1496.8184	1529.9498	1790.9509	2990.7566	3030.8622	3058.3957	3073.4853	3082.9504	3132.8578	3631.3625	3644.353	3721.5738
OCC1(O)CCNC1=O	OC[C@@]1(O)CCNC1=O	
InChI=1S/C5H9NO3/c7-3-5(9)1-2-6-4(5)8/h7,9H,1-3H2,(H,6,8)	InChI=1S/C5H9NO3/c7-3-5(9)1-2-6-4(5)8/h7,9H,1-3H2,(H,6,8)/t5-/m0/s1
