17
gdb 18988	3.83367	2.22843	2.09687	0.349	66.37	-0.2107	0.0546	0.2654	737.7456	0.144606	-363.779641	-363.773568	-363.772624	-363.809936	24.343	
C	 0.2039038395	 1.6157745307	-0.2766123513	-0.255562
C	 1.5281267122	 1.5048640665	 0.5340273931	-0.16918
N	 1.3452068392	 0.0265455736	 0.7159156672	-0.145678
C	 0.051323216	 0.0925927745	-0.064882936	 0.019002
C	 0.6261613979	-0.8699589699	-1.1327887411	 0.088955
O	 1.2918589761	-0.2222892685	-2.2354016521	-0.288922
C	 2.5813748807	-0.3435627244	-1.5830055409	-0.093444
C	 1.9376517809	-0.9039732932	-0.303900437	-0.043699
H	-0.5752440137	 2.2236583961	 0.1865568697	 0.103336
H	 0.322753562	 1.9077446095	-1.3208737051	 0.124724
H	 2.4412139246	 1.8023747799	 0.0112784985	 0.10352
H	 1.5153917376	 2.0158670581	 1.501524652	 0.107093
H	-0.8484733016	-0.2619342843	 0.4489016364	 0.071474
H	 0.0311148756	-1.7301677898	-1.4502875082	 0.07725
H	 3.2136399291	-1.079822971	-2.0965553851	 0.104763
H	 3.1193470778	 0.6083974027	-1.5314759837	 0.10956
H	 2.3965145561	-1.7887730906	 0.1393713637	 0.086808
79.3178	259.3824	329.0239	436.3223	505.6491	659.2218	684.4268	747.5234	793.1643	836.5446	861.0153	897.7035	914.9275	943.784	966.0382	996.2197	1002.165	1023.462	1075.8445	1092.8149	1120.8658	1161.3212	1186.2694	1202.6618	1212.349	1221.1422	1232.4142	1263.2544	1297.1473	1309.1992	1312.7708	1336.9821	1356.1013	1472.4652	1496.96	1528.5278	3014.3209	3042.722	3048.4827	3071.1396	3073.9512	3081.0535	3091.1354	3096.915	3139.941
C1CN2C1C1OCC21	C1CN2[C@@H]1[C@H]1OC[C@@H]21	
InChI=1S/C6H9NO/c1-2-7-4(1)6-5(7)3-8-6/h4-6H,1-3H2	InChI=1S/C6H9NO/c1-2-7-4(1)6-5(7)3-8-6/h4-6H,1-3H2/t4-,5+,6+/m0/s1
