21
gdb 123065	4.78324	0.61727	0.60709	1.2104	76.02	-0.2491	0.0739	0.323	1877.9226	0.181623	-461.320445	-461.310495	-461.30955	-461.357492	34.468	
O	 0.0351518032	 1.304444216	-0.1902602561	-0.420572
C	-0.0090388303	-0.1033512608	-0.07211342	-0.058594
C	-1.4413180692	-0.6062706841	 0.0140896601	-0.070205
O	-2.0902824485	-0.1939147536	-1.1765531626	-0.264867
C	-3.4781029315	-0.4578820235	-1.1975359386	-0.066996
C	-4.0316963701	 0.0022376119	-2.5310201928	-0.047503
C	-3.6650161858	-0.8793177773	-3.7440661602	-0.071044
O	-5.0266722731	-1.343133323	-3.873705983	-0.27077
C	-5.476229431	-0.4516021694	-2.8348206572	-0.089817
H	-0.581459367	 1.5244025292	-0.8984986493	 0.287522
H	 0.4928190757	-0.5959875163	-0.9203223113	 0.093743
H	 0.5326687803	-0.3713755008	 0.8408066709	 0.109401
H	-1.4682265568	-1.7034619784	 0.1159484684	 0.090002
H	-1.9415858272	-0.1661868503	 0.891407885	 0.096698
H	-3.6639868813	-1.5373991213	-1.0644628918	 0.095716
H	-3.983295402	 0.0651828904	-0.3677528085	 0.092605
H	-3.8398708194	 1.0692842847	-2.6624285194	 0.084931
H	-3.3321016078	-0.334240736	-4.6361132053	 0.101083
H	-2.9633529408	-1.697727572	-3.5438065819	 0.106823
H	-5.9947048339	-0.9855606645	-2.0273818105	 0.100197
H	-6.1396153134	 0.332251739	-3.2218737061	 0.101649
38.7495	45.5306	75.1298	94.3866	160.0629	185.5606	270.1803	317.0913	385.8166	432.0787	456.4251	552.4776	796.8882	867.8197	873.2333	887.4189	908.7781	929.6293	975.984	1030.6495	1041.7216	1080.7331	1084.3053	1114.8826	1142.0287	1152.6269	1156.0655	1160.8245	1198.457	1234.9526	1248.4885	1263.4797	1283.3796	1308.7333	1346.864	1382.2858	1386.9634	1394.7193	1436.6141	1449.4055	1499.6212	1501.9533	1513.1049	1526.4927	1539.8149	2951.8977	2970.1526	2978.7576	2983.6974	3003.6094	3011.3342	3018.499	3045.072	3059.8397	3080.7802	3091.4196	3795.6988
OCCOCC1COC1	OCCOCC1COC1	
InChI=1S/C6H12O3/c7-1-2-8-3-6-4-9-5-6/h6-7H,1-5H2	InChI=1S/C6H12O3/c7-1-2-8-3-6-4-9-5-6/h6-7H,1-5H2
