15
gdb 132541	3.20089	1.33099	0.9456	1.9978	71.71	-0.2321	-0.0242	0.2079	1164.6875	0.112696	-461.983161	-461.97533	-461.974386	-462.015771	29.372	
C	-0.0364028036	 1.5244131801	-0.0165741672	-0.49573
C	-0.0080263481	 0.017774082	 0.006544768	 0.279149
C	-0.1018823721	-0.7264655488	-1.165753593	-0.09019
N	-0.0811510688	-2.0689654128	-1.1955308144	-0.312053
C	 0.0332260952	-2.6873745788	-0.0589056298	 0.221892
F	 0.0562650596	-4.0337208963	-0.0647351739	-0.095442
C	 0.1367864707	-2.071832883	 1.1955879121	 0.237835
O	 0.2534847865	-2.7908861533	 2.3384837671	-0.435122
C	 0.1140890586	-0.6874293624	 1.2115942416	-0.244343
H	 0.8797292819	 1.9479731249	 0.409518468	 0.13624
H	-0.1350961606	 1.8998563976	-1.0382661423	 0.130199
H	-0.8756347605	 1.9173301069	 0.5678638712	 0.136258
H	-0.1981066253	-0.2301324118	-2.1271672878	 0.109246
H	 0.2480121399	-3.7260278293	 2.0989523904	 0.306939
H	 0.1917658968	-0.171125705	 2.1628585299	 0.115124
72.1783	145.5947	221.4826	284.9382	309.6862	387.3884	446.6142	474.9276	480.9957	509.9731	605.5422	613.249	717.8187	762.3434	798.3847	903.0523	934.0707	993.7629	1019.0567	1066.1645	1169.921	1186.2003	1286.1843	1295.3638	1328.8697	1375.1755	1416.4365	1475.409	1484.0031	1499.2301	1520.3128	1636.7098	1655.6727	3033.3827	3087.5029	3117.8698	3168.2535	3188.3501	3795.889
CC1=CN=C(F)C(O)=C1	Cc1cnc(F)c(O)c1	
InChI=1S/C6H6FNO/c1-4-2-5(9)6(7)8-3-4/h2-3,9H,1H3	InChI=1S/C6H6FNO/c1-4-2-5(9)6(7)8-3-4/h2-3,9H,1H3
