17
gdb 7256	4.38453	1.16778	1.04268	5.5235	67.13	-0.2476	-0.0296	0.218	1161.8839	0.140158	-401.057491	-401.048233	-401.047288	-401.092429	31.764	
C	 0.1582824651	 1.4846895701	-0.2517281695	-0.384237
C	-0.0020321839	-0.0064106629	 0.0536339975	-0.098721
C	 0.670707305	-0.3907776311	 1.3878459984	-0.384814
C	-1.4877816298	-0.3765916637	 0.1257491668	 0.433164
O	-2.3519757447	 0.391102994	 0.4604736404	-0.306608
N	-1.7391342316	-1.7227017452	-0.2020578472	-0.350137
C	-2.9515694576	-2.4069875557	-0.1615128401	 0.165202
O	-4.015371355	-1.9644736037	 0.1693631572	-0.25016
H	 1.2167982168	 1.7607207724	-0.254721708	 0.110607
H	-0.2669240948	 1.7393783049	-1.2265221189	 0.12357
H	-0.3605825508	 2.0821296814	 0.5014854249	 0.14553
H	 0.465822109	-0.5922497835	-0.7494981794	 0.077586
H	 0.2191103261	 0.1657854638	 2.2148122691	 0.143017
H	 0.5695424987	-1.4586880451	 1.6057134163	 0.113736
H	 1.7376031005	-0.1513407231	 1.3565252563	 0.125082
H	-0.945038593	-2.2708394586	-0.4989700903	 0.254336
H	-2.8024734	-3.4578421242	-0.4872684433	 0.082847
32.6375	61.5086	165.1091	194.6495	205.4047	237.5446	255.4709	307.7285	314.78	430.6905	568.8822	620.4642	710.4173	760.9256	891.7038	929.4348	935.2286	973.6594	1028.4428	1066.7458	1108.8154	1129.7742	1162.6722	1203.8198	1320.1136	1375.6132	1400.1231	1420.5	1446.9168	1484.1827	1487.7448	1498.3734	1501.2458	1511.7361	1811.072	1873.7922	2913.1602	3009.969	3037.6395	3047.6433	3107.9918	3115.6849	3117.2333	3133.1593	3611.7256
CC(C)C(=O)NC=O	CC(C)C(=O)NC=O	
InChI=1S/C5H9NO2/c1-4(2)5(8)6-3-7/h3-4H,1-2H3,(H,6,7,8)	InChI=1S/C5H9NO2/c1-4(2)5(8)6-3-7/h3-4H,1-2H3,(H,6,7,8)
