16
gdb 66123	2.65793	1.51546	1.34079	2.3921	67.6	-0.2809	0.003	0.2839	998.5578	0.124379	-437.883972	-437.876079	-437.875135	-437.916256	30.097	
O	-0.0628548192	 1.390646002	-0.0126065384	-0.457215
C	 0.0197411464	-0.0180126593	 0.0161921673	 0.239036
C	 0.6557380815	-0.6020382878	 1.3135299398	-0.288557
C	-0.0192458574	-1.9744252186	 1.5246064175	-0.253271
C	-1.3928865497	-1.7889709926	 0.9066691083	 0.057584
O	-2.0174996436	-0.5529399924	 1.2885759852	-0.25554
C	-1.3849997491	-0.6237838281	 0.016405768	 0.030119
C	 0.7375378193	-0.5147286859	-1.1817903941	 0.230046
N	 1.3148408921	-0.8930104993	-2.1090868994	-0.332066
H	 0.8304371309	 1.7528109023	 0.0017516245	 0.294343
H	 1.743865332	-0.662170013	 1.2515610386	 0.117776
H	 0.3851634107	 0.0851177724	 2.1169947829	 0.139464
H	 0.5115648268	-2.7695898829	 0.9892094401	 0.127256
H	-0.0653914165	-2.2571688176	 2.5801033053	 0.122584
H	-2.0669913063	-2.6278023516	 0.7597048835	 0.107756
H	-2.019334748	-0.5020983877	-0.8561300693	 0.120685
106.2405	145.8217	209.7728	266.5733	280.2287	355.4537	393.3252	479.7409	482.5061	555.7305	647.1991	689.7338	741.3947	833.9491	851.8953	874.3943	938.3372	956.6379	1006.3057	1032.4322	1066.4673	1106.781	1115.5062	1144.7521	1217.236	1222.2226	1260.1094	1306.1319	1321.0514	1340.1254	1387.7536	1434.6561	1478.9972	1489.7055	2347.8349	3051.3012	3082.9058	3097.6192	3138.647	3160.0968	3174.1015	3804.2009
OC1(CCC2OC12)C#N	O[C@]1(CC[C@H]2O[C@@H]12)C#N	
InChI=1S/C6H7NO2/c7-3-6(8)2-1-4-5(6)9-4/h4-5,8H,1-2H2	InChI=1S/C6H7NO2/c7-3-6(8)2-1-4-5(6)9-4/h4-5,8H,1-2H2/t4-,5-,6-/m1/s1
