15
gdb 123637	4.07547	1.58243	1.24055	5.4617	70.52	-0.2361	-0.002	0.2341	952.4541	0.117183	-412.954803	-412.948661	-412.947717	-412.985245	24.854	
C	-0.0550801721	 1.5125163904	 0.0068928739	-0.348224
C	 1.439269076	 1.8947028388	-0.0283783962	-0.018791
N	 2.2149326492	 1.473304035	 1.1531482498	-0.319092
C	 2.3028422273	 0.6639485717	-0.0936336738	-0.23529
C	 1.3226828905	-0.4397815391	-0.0735379231	 0.417843
C	 0.0300608076	 0.0092433949	 0.0116760652	 0.291497
N	-0.8128245016	-1.0461459646	 0.1039893721	-0.287662
N	-0.1000328667	-2.1426132817	 0.0648358516	-0.127643
N	 1.2107315767	-1.7799665779	-0.0313847082	-0.344974
H	-0.5437896472	 1.9166664894	 0.8988495469	 0.137126
H	-0.5820083381	 1.9061373136	-0.8695772669	 0.120565
H	 1.7363354511	 2.803912627	-0.5400924648	 0.097738
H	 3.0467388635	 2.0573414006	 1.2238210471	 0.234597
H	 3.2325636586	 0.6249887037	-0.6489898422	 0.103778
H	 1.9106077652	-2.5031775417	-0.0621402315	 0.278531
155.02	243.746	356.5115	429.4501	455.6298	560.6573	601.6345	709.2903	717.1771	738.8735	791.0541	818.6472	838.26	884.9346	933.9812	990.3322	1010.2965	1032.7128	1062.1552	1130.3387	1141.6107	1183.6796	1184.8918	1209.8722	1234.6741	1288.7577	1327.3453	1371.9553	1377.0736	1424.7519	1474.6481	1530.0714	1598.2424	3045.0257	3088.16	3167.9549	3182.2264	3480.6939	3665.1568
C1C2NC2C2=C1N=NN2	C1[C@H]2N[C@H]2c2c1nn[nH]2	
InChI=1S/C5H6N4/c1-2-4(6-2)5-3(1)7-9-8-5/h2,4,6H,1H2,(H,7,8,9)	InChI=1S/C5H6N4/c1-2-4(6-2)5-3(1)7-9-8-5/h2,4,6H,1H2,(H,7,8,9)/t2-,4-/m1/s1
