19
gdb 84901	2.7821	1.3535	1.02495	2.2476	82.77	-0.2514	0.0081	0.2594	1187.1329	0.159298	-385.868712	-385.85994	-385.858996	-385.901896	33.893	
O	 0.1525633108	 1.4285725278	-0.1036535103	-0.425319
C	 0.0274659728	 0.0109457702	-0.0209309521	 0.096826
C	 0.7818871112	-0.521015411	 1.1711635045	-0.108339
C	 0.1916780943	-0.9946431905	 2.2695137424	-0.041319
C	-1.3008525478	-1.0849302466	 2.4447842999	-0.27231
C	-2.0591488562	-0.2531322925	 1.4037040082	-0.211198
C	-1.4526457046	-0.4645090248	-0.0000800078	-0.214449
C	-2.2445743351	 0.1708213478	-1.0460806634	 0.319253
C	-2.9193080096	 0.6846670354	-1.8976886641	-0.43483
H	 0.0149190689	 1.7832034376	 0.7810435225	 0.278892
H	 0.4851342873	-0.3560963043	-0.9462682	 0.096722
H	 1.8654361382	-0.4595324264	 1.1119278345	 0.094091
H	 0.8041194345	-1.3508844693	 3.0951200177	 0.093448
H	-1.6084937711	-2.1397014685	 2.3795742774	 0.115737
H	-1.5749013798	-0.7662536568	 3.4580976837	 0.108519
H	-3.1210084379	-0.512484035	 1.3966765106	 0.110114
H	-2.0002619368	 0.8132773342	 1.6545145426	 0.101298
H	-1.4314085723	-1.5473197661	-0.1937810301	 0.104003
H	-3.5030175268	 1.1442114289	-2.6560930362	 0.188861
87.1233	135.1043	153.5327	248.7045	263.887	300.1794	344.9469	413.2165	476.1368	510.1264	527.3464	618.198	636.7783	649.621	714.9091	753.4272	812.5221	884.7543	906.7436	969.6628	1000.7517	1016.0739	1050.0751	1066.157	1078.9661	1091.0402	1163.5676	1213.1637	1237.7303	1265.1643	1307.9672	1327.3044	1335.9149	1365.9628	1389.0138	1408.5963	1428.2411	1473.0884	1496.1776	1716.0028	2238.2284	2995.7341	2997.535	3032.1968	3048.4073	3049.5429	3093.0965	3143.9561	3169.7955	3505.9262	3811.4569
OC1C=CCCC1C#C	O[C@H]1C=CCC[C@H]1C#C	
InChI=1S/C8H10O/c1-2-7-5-3-4-6-8(7)9/h1,4,6-9H,3,5H2	InChI=1S/C8H10O/c1-2-7-5-3-4-6-8(7)9/h1,4,6-9H,3,5H2/t7-,8+/m1/s1
