17
gdb 36329	5.02362	0.79703	0.72505	4.6091	79.27	-0.2512	0.013	0.2642	1501.9779	0.135577	-380.824853	-380.815983	-380.815039	-380.859109	32.399	
C	-0.280336463	-1.0435440598	 0.5746240208	-0.43005
C	-0.2162423378	 0.1392585392	 0.3694538313	 0.286425
C	-0.0748541604	 1.5689074644	 0.1239305426	-0.373305
C	 1.2903745029	 1.9146630875	-0.5043430765	 0.055904
C	 1.6702999171	 3.4150642334	-0.3961762178	-0.269278
C	 2.5924280846	 2.9847487928	 0.7854394481	-0.111949
N	 2.4723067536	 1.5871653001	 0.3236244094	-0.303189
C	 3.9559058546	 3.5176979268	 0.8139136006	 0.292173
N	 5.0241159731	 3.9579031719	 0.8397335084	-0.321149
H	-0.3589307932	-2.0880505414	 0.7501658978	 0.204323
H	-0.8723539073	 1.9192897173	-0.5442354385	 0.13797
H	-0.1994002675	 2.1169274098	 1.0678336494	 0.128959
H	 1.3417703967	 1.4747828787	-1.5052039562	 0.097895
H	 2.234307813	 3.7812275959	-1.2533966339	 0.138461
H	 0.8720077795	 4.1164162755	-0.1515049896	 0.12014
H	 2.1303895085	 3.1929471926	 1.7602125471	 0.114094
H	 2.3394342955	 0.8797510053	 1.039080257	 0.232574
57.3137	81.348	129.2832	170.8747	236.5526	328.2047	350.1301	379.082	519.7028	547.8935	566.0755	631.1331	635.4971	651.9736	777.3064	830.6904	881.7056	947.3526	956.1517	997.7259	1001.1005	1057.4325	1090.9857	1106.492	1148.6619	1219.9841	1240.6348	1258.6974	1288.3374	1334.4435	1347.9666	1370.1488	1415.3264	1466.5838	1486.7703	2237.221	2357.8949	3004.6456	3013.4492	3042.6073	3061.4573	3094.6161	3156.7211	3503.9281	3529.5016
C#CCC1CC(N1)C#N	C#CC[C@H]1C[C@@H](N1)C#N	
InChI=1S/C7H8N2/c1-2-3-6-4-7(5-8)9-6/h1,6-7,9H,3-4H2	InChI=1S/C7H8N2/c1-2-3-6-4-7(5-8)9-6/h1,6-7,9H,3-4H2/t6-,7+/m0/s1
