21
gdb 96029	3.03869	1.05082	0.84527	0.8642	83.89	-0.2431	0.0531	0.2962	1393.4262	0.181804	-387.067939	-387.05846	-387.057516	-387.102754	35.42	
C	 0.224376476	 1.5537112456	-0.3477656834	-0.393195
C	-0.001863822	 0.0923311487	 0.0371234573	 0.127412
O	 0.3371701526	-0.7330781067	-1.0861565352	-0.278088
C	 1.380651679	-1.6435895408	-0.7475897274	-0.071384
C	 2.0520689815	-1.0662082573	 0.4967930041	-0.232718
C	 0.8477336288	-0.4447871133	 1.2193578856	-0.003222
C	 1.1915703391	 0.5805815607	 2.3144581248	-0.400212
C	 1.9172758303	-0.0140743652	 3.4316675512	 0.294218
C	 2.5109001281	-0.5243462972	 4.3439645342	-0.427656
H	 1.2848088922	 1.7661892308	-0.5175317699	 0.114909
H	-0.3107014856	 1.7644706721	-1.2775239861	 0.12513
H	-0.1512767072	 2.235268917	 0.4225848221	 0.110289
H	-1.0701965376	-0.0502533427	 0.2518769319	 0.074797
H	 0.9626192883	-2.6408756899	-0.5375219699	 0.090134
H	 2.0507593775	-1.7342564437	-1.6086381583	 0.103717
H	 2.570915745	-1.8151428557	 1.0982580446	 0.113779
H	 2.7763531072	-0.2908565247	 0.2201980188	 0.103526
H	 0.2829294515	-1.2568953482	 1.692235011	 0.090051
H	 1.7882086471	 1.3959617587	 1.888017928	 0.132805
H	 0.2688594865	 1.0417350701	 2.6907834998	 0.131514
H	 3.0376771717	-0.9633447782	 5.1545240067	 0.194194
53.2214	75.4317	114.9472	189.9176	243.9672	264.7949	324.5762	355.6235	389.008	434.026	508.4464	618.3124	619.8793	638.6625	703.5898	796.9628	833.4201	874.6418	904.3603	950.1335	971.3375	990.4331	1029.3401	1062.3629	1087.2385	1123.3896	1141.6652	1152.3052	1191.6916	1226.3016	1252.0874	1300.2891	1312.3235	1327.8421	1358.3248	1383.0501	1389.0984	1400.5881	1409.3772	1470.2097	1488.6524	1491.2371	1500.0042	1526.7113	2238.1806	2976.64	2997.3567	3020.1019	3031.5447	3036.2609	3043.5647	3061.565	3069.7056	3106.5348	3116.7618	3117.8873	3507.0466
CC1OCCC1CC#C	C[C@H]1OCC[C@H]1CC#C	
InChI=1S/C8H12O/c1-3-4-8-5-6-9-7(8)2/h1,7-8H,4-6H2,2H3	InChI=1S/C8H12O/c1-3-4-8-5-6-9-7(8)2/h1,7-8H,4-6H2,2H3/t7-,8-/m1/s1
