19
gdb 88555	3.36611	1.15489	1.08978	0.4692	76.15	-0.2478	0.0678	0.3156	1201.3034	0.157887	-422.969432	-422.960953	-422.960009	-423.002912	31.998	
C	-0.1723376603	 1.4190493571	-0.1401542422	-0.435458
C	-0.1274436392	-0.0489444756	 0.1945456034	 0.086741
O	 1.1019194045	-0.7530832265	-0.0271341487	-0.262377
C	 0.6186070048	-0.6473024404	 1.3169625869	-0.088844
C	 1.4694570671	 0.0948569489	 2.2775807048	 0.448846
C	 2.4640044569	 1.2500731074	 2.0638087552	-0.297133
C	 3.2914471991	 0.7032172828	 3.2790895929	-0.254651
C	 2.2520552002	-0.4150560981	 3.4236139685	-0.044978
O	 0.9755355855	 0.2036299951	 3.6222526949	-0.294751
H	 0.7259654729	 1.9409348537	 0.1911440868	 0.137696
H	-0.2668285251	 1.5546371972	-1.2227286091	 0.129515
H	-1.0427612934	 1.8865125891	 0.3325138952	 0.128708
H	-1.0041077833	-0.6104978257	-0.1367349915	 0.091577
H	 0.2271120822	-1.5758219603	 1.7372159121	 0.092148
H	 3.0007332045	 1.1690828786	 1.1172097128	 0.125288
H	 2.040789963	 2.2514240619	 2.170135238	 0.108628
H	 4.2769508694	 0.3374018267	 2.9827903545	 0.111369
H	 3.3884655801	 1.3591995343	 4.1470655714	 0.113221
H	 2.3734508809	-1.4239237865	 3.8027378741	 0.104453
56.7698	128.4009	162.9647	190.9586	239.4032	308.6773	392.5386	429.7694	476.9314	541.9701	682.3315	742.8101	776.9204	785.6078	860.3773	878.9434	921.0598	936.4877	951.5895	979.4253	1011.6315	1026.8041	1055.007	1094.0584	1141.7046	1153.0131	1171.8041	1207.8538	1213.3358	1221.3088	1264.4258	1274.859	1319.8159	1361.5772	1408.0823	1438.6467	1465.3251	1478.5232	1486.7043	1495.9405	1518.0058	3042.263	3067.95	3074.6695	3078.2284	3094.2809	3100.8446	3122.3035	3140.2724	3150.8731	3180.3479
CC1OC1C12CCC1O2	C[C@H]1O[C@H]1[C@]12CC[C@H]1O2	
InChI=1S/C7H10O2/c1-4-6(8-4)7-3-2-5(7)9-7/h4-6H,2-3H2,1H3	InChI=1S/C7H10O2/c1-4-6(8-4)7-3-2-5(7)9-7/h4-6H,2-3H2,1H3/t4-,5-,6-,7+/m1/s1
