15
gdb 12836	3.2182	2.43001	1.77241	2.5989	61.16	-0.2477	-0.0015	0.2462	761.861	0.119865	-399.763927	-399.757264	-399.75632	-399.794438	25.88	
O	-0.2020976271	 1.4082784076	-0.106382429	-0.479407
C	-0.0788421035	 0.0020216239	-0.1048904909	 0.307884
C	 1.1423735523	-0.5385130783	-0.9235002278	-0.179034
O	 1.8612721489	-0.828189877	 0.3525388256	-0.276734
C	 0.6744485891	-0.6439544184	 1.0149235636	 0.359045
N	 0.0921081458	-1.1543275391	 2.0081520132	-0.308587
C	-1.3520441157	-0.8596794982	 1.7141694543	-0.160177
C	-1.449390981	-0.6282122423	 0.1561955793	-0.286877
H	 0.6434773478	 1.7978576822	 0.1444265273	 0.290566
H	 0.9954542805	-1.4675030067	-1.4787071335	 0.132987
H	 1.6794771741	 0.205070549	-1.5151192062	 0.125149
H	-1.9465769239	-1.717737509	 2.0359805323	 0.118924
H	-1.694830562	 0.0151521726	 2.277946798	 0.12209
H	-2.274888098	 0.0193795466	-0.1447034462	 0.120071
H	-1.5487444874	-1.5937551929	-0.3477891	 0.114099
152.9589	235.24	272.0947	328.9958	340.633	392.2225	540.2453	644.2997	676.0888	734.31	773.8184	833.212	883.0263	899.6354	928.2373	965.1685	978.6613	1033.3322	1120.0111	1130.2317	1142.6136	1202.06	1214.9534	1261.1027	1293.2445	1302.5728	1353.9636	1389.2296	1469.4717	1491.1637	1497.1127	1774.3696	3047.9032	3066.7236	3069.2928	3105.3982	3131.4092	3144.25	3795.3941
OC12COC1=NCC2	O[C@@]12CO[C]1[N]CC2	
InChI=1S/C5H7NO2/c7-5-1-2-6-4(5)8-3-5/h7H,1-3H2	InChI=1S/C5H7NO2/c7-5-1-2-6-4(5)8-3-5/h7H,1-3H2/t5-/m0/s1
