14
gdb 5764	6.31181	1.54117	1.37114	2.7384	64.54	-0.2319	0.0021	0.234	879.5938	0.108991	-378.713958	-378.70754	-378.706595	-378.74525	23.638	
C	 0.234912246	 1.5945832677	 0.1011611204	-0.22601
C	 1.269338337	 0.572113246	-0.1988780474	-0.22601
N	-0.1188193764	 0.1651211386	 0.0775658551	-0.192927
C	-0.4008864339	-0.4719711449	 1.2761841137	 0.379515
C	-1.2775421732	-1.453431759	 1.5984713296	-0.177737
N	-1.1726824144	-1.74565993	 2.9550221971	-0.256994
C	-0.2564895109	-0.9433315605	 3.3812785838	 0.074735
O	 0.2734149236	-0.1298319505	 2.4347861726	-0.184134
H	 0.2816053684	 2.0826512967	 1.0699558664	 0.136705
H	-0.2051917354	 2.1813426028	-0.699226517	 0.12971
H	 1.5937854461	 0.4031638073	-1.2210270368	 0.129711
H	 2.011505392	 0.372748868	 0.5681915704	 0.136709
H	-1.9697656815	-1.9633506822	 0.9495162865	 0.128954
H	 0.1347611625	-0.84101083	 4.3815596956	 0.147774
48.7384	181.6617	194.5498	426.7634	447.2387	605.2267	667.898	711.121	818.8709	822.309	835.6221	869.9066	897.3626	925.8639	970.6535	1039.7623	1099.8509	1119.864	1127.8124	1132.8313	1145.1811	1182.9592	1213.2176	1248.2863	1332.4613	1347.4719	1486.2057	1511.3351	1554.1706	1658.0582	3118.903	3122.2083	3205.8987	3220.6751	3271.025	3279.6842
C1CN1C1=CN=CO1	C1CN1c1cnco1	
InChI=1S/C5H6N2O/c1-2-7(1)5-3-6-4-8-5/h3-4H,1-2H2	InChI=1S/C5H6N2O/c1-2-7(1)5-3-6-4-8-5/h3-4H,1-2H2
