22
gdb 115801	3.98488	1.063	0.94404	2.8332	83.01	-0.233	0.0751	0.3081	1350.5569	0.194331	-404.340341	-404.331132	-404.330188	-404.374069	35.088	
C	 0.1141960372	 1.4861566968	 0.1983075414	-0.381466
C	 0.0427288935	-0.0363322374	 0.0543435703	-0.185628
C	 0.6292311443	-0.5417834055	-1.2597146609	 0.154766
O	 1.9991562044	-0.1311698935	-1.3410650772	-0.273916
C	 2.7564396501	-1.0890035971	-2.0655582982	-0.109337
C	 2.010445438	-2.4083418332	-1.9417807967	 0.314179
C	 2.2977066418	-3.5290860541	-2.9040213497	-0.497381
N	 1.6680388058	-2.6837824764	-0.5274453623	-0.362643
C	 0.6716848478	-2.0500952404	-1.422879642	-0.143008
H	 1.1507796639	 1.8276359273	 0.1440585345	 0.136954
H	-0.4468120169	 1.9883775191	-0.5983459089	 0.105748
H	-0.3052306262	 1.8101534453	 1.1557380942	 0.106095
H	 0.5855719883	-0.5249744479	 0.8697965785	 0.119481
H	-1.0016452354	-0.3701567768	 0.1125554516	 0.084298
H	 0.059951175	-0.1187480395	-2.1078261454	 0.057705
H	 2.8386336912	-0.8146428811	-3.1309850807	 0.082728
H	 3.7628900326	-1.1151689398	-1.6336443669	 0.108171
H	 3.3071788914	-3.9296768044	-2.7550070282	 0.12919
H	 1.5888988334	-4.3531377278	-2.7723443918	 0.117194
H	 2.226829993	-3.1871207006	-3.9423418564	 0.126801
H	 1.4404090766	-3.6720363572	-0.4340861851	 0.224367
H	-0.2257183199	-2.5908929658	-1.7060399702	 0.085701
87.3589	124.4467	166.1931	197.9795	216.5016	238.1851	298.7076	346.5263	401.0157	439.4004	512.0822	589.9455	681.1918	760.4414	790.2595	859.639	868.0987	924.8429	938.0063	960.909	962.9816	1008.0045	1038.6981	1058.8797	1083.6438	1092.6236	1113.8774	1139.0436	1161.5029	1173.084	1238.9342	1289.6274	1299.9927	1309.1562	1331.9521	1360.802	1379.6446	1407.5665	1410.7173	1416.6582	1457.9795	1479.818	1486.3678	1497.5226	1501.1246	1507.5829	1508.9526	2932.4308	2962.2495	3025.2416	3025.6776	3034.1196	3062.7848	3080.534	3087.664	3099.198	3100.5153	3125.7273	3164.0725	3482.5601
CCC1OCC2(C)NC12	CC[C@H]1OC[C@@]2(C)N[C@@H]12	
InChI=1S/C7H13NO/c1-3-5-6-7(2,8-6)4-9-5/h5-6,8H,3-4H2,1-2H3	InChI=1S/C7H13NO/c1-3-5-6-7(2,8-6)4-9-5/h5-6,8H,3-4H2,1-2H3/t5-,6+,7-/m1/s1
