19
gdb 93877	2.40669	1.49939	1.2065	1.8963	76.64	-0.2497	0.0357	0.2854	1101.9412	0.158254	-422.997393	-422.9883	-422.987356	-423.030998	34.501	
C	 0.6431254519	 1.295360129	-0.5562394837	-0.412605
C	-0.029221973	 0.1081956049	 0.1310159894	 0.114097
O	-0.263406993	-0.9762345972	-0.7624952973	-0.268403
C	 0.8651625915	-1.8489295704	-0.7731331372	-0.092761
C	 1.7216220664	-1.5329691521	 0.4673223058	 0.079695
O	 2.9281900048	-0.9315255463	 0.0380643837	-0.427646
C	 0.8012544312	-0.559805768	 1.2632098916	-0.211368
C	 1.5347905984	 0.3188234422	 2.1549035109	 0.290698
C	 2.1896552092	 1.0220499798	 2.8796153753	-0.445285
H	 1.6424212009	 1.0307432502	-0.909004626	 0.138451
H	 0.0349629473	 1.6101999151	-1.4086526965	 0.120111
H	 0.7348228978	 2.1373732327	 0.1362725646	 0.120227
H	-1.0115533725	 0.4111133017	 0.508195332	 0.088381
H	 0.4900080226	-2.8773396747	-0.7692578171	 0.106099
H	 1.4798672218	-1.7009986078	-1.66944102	 0.117427
H	 1.9335915802	-2.4318095947	 1.0615969111	 0.08075
H	 3.3322566253	-0.5091538587	 0.806991948	 0.286871
H	 0.1069268831	-1.1731778281	 1.8501865393	 0.113163
H	 2.7369578061	 1.6575848024	 3.5314499862	 0.202099
85.3515	117.1074	138.729	188.6613	249.5444	325.7304	369.9915	379.5542	413.9296	423.343	515.4041	550.5164	633.6375	653.8709	708.0846	772.0762	785.632	866.9553	875.5457	963.8121	1011.4939	1036.4514	1057.7952	1072.3282	1120.3695	1128.4307	1154.0704	1228.5731	1245.9522	1278.5156	1316.9285	1321.5095	1352.897	1381.0494	1392.8507	1409.5627	1422.2117	1488.972	1502.8598	1516.6719	2227.8671	3006.8375	3029.6752	3034.9599	3048.1603	3055.8717	3078.2091	3119.5443	3139.8679	3500.5263	3767.1868
CC1OCC(O)C1C#C	C[C@H]1OC[C@@H](O)[C@H]1C#C	
InChI=1S/C7H10O2/c1-3-6-5(2)9-4-7(6)8/h1,5-8H,4H2,2H3	InChI=1S/C7H10O2/c1-3-6-5(2)9-4-7(6)8/h1,5-8H,4H2,2H3/t5-,6+,7-/m1/s1
