15
gdb 105149	2.43606	1.23427	0.96352	4.1008	74.03	-0.2697	-0.0129	0.2568	1210.2204	0.110944	-416.74648	-416.737385	-416.736441	-416.780664	32.758	
O	 0.1431325179	 1.3166374927	-0.3664563002	-0.40756
C	 0.0352439422	 0.0921273696	 0.3222014029	-0.12176
C	-1.3720215618	-0.4827223212	 0.1906179576	 0.066608
N	-1.655714374	-0.9952656129	-1.1675105048	-0.346081
C	-1.5844822506	-1.9591600678	-0.0576547468	-0.237968
C	-0.4889534241	-2.8991759684	-0.0689123173	 0.34151
N	 0.3768700761	-3.6649280566	-0.0496906932	-0.330897
C	-2.4216767485	 0.2094411086	 0.8911986763	 0.287931
C	-3.2967417547	 0.7943402762	 1.4717758093	-0.412671
H	-0.0123975366	 1.126905159	-1.299098322	 0.295843
H	 0.7563283251	-0.6515718059	-0.0418069826	 0.120668
H	 0.2540427468	 0.2982033547	 1.3733027986	 0.128951
H	-2.6304761991	-0.8352224817	-1.4110834843	 0.257266
H	-2.5124518623	-2.3729349661	 0.3258157273	 0.147764
H	-4.0639252263	 1.3186816996	 1.986984439	 0.210397
72.7472	109.4672	123.0823	152.5847	224.9138	277.2514	335.4217	412.5676	427.7119	472.092	539.2498	585.5587	628.6551	649.5913	668.6246	718.0988	839.2587	905.0179	937.9409	969.7396	1036.6023	1070.5625	1092.6758	1192.2384	1211.2081	1292.0146	1323.3135	1391.7486	1420.2602	1432.8991	1493.1884	2238.907	2360.1436	3023.6259	3103.9879	3160.1728	3498.4131	3509.5985	3797.6765
OCC1(NC1C#N)C#C	OC[C@]1(N[C@H]1C#N)C#C	
InChI=1S/C6H6N2O/c1-2-6(4-9)5(3-7)8-6/h1,5,8-9H,4H2	InChI=1S/C6H6N2O/c1-2-6(4-9)5(3-7)8-6/h1,5,8-9H,4H2/t5-,6+/m0/s1
