16
gdb 48802	2.22146	1.5251	1.14723	5.1109	74.98	-0.2645	-0.0388	0.2257	1093.8719	0.124203	-400.748419	-400.740397	-400.739453	-400.781367	29.555	
O	-0.0875501473	-0.0013926092	 0.0694153315	-0.264198
C	-0.005680313	 1.2010340659	-0.015711229	 0.061239
C	 1.260051068	 1.9406701396	 0.0137923376	 0.265522
C	 1.3713539471	 3.4153836487	 0.3282038935	-0.342346
C	 1.7623134353	 2.9798709993	-1.0373542613	-0.087664
C	 3.1413819617	 2.313105707	-1.0465001162	-0.243348
C	 2.6419872278	 1.2646857044	 0.0162312617	-0.223352
C	 3.3525870154	 1.2215487906	 1.2867961672	 0.277856
N	 3.9256500805	 1.2269824	 2.2909330838	-0.330406
H	-0.9083405086	 1.8399085062	-0.1493459053	 0.074769
H	 0.4210301733	 3.9351475694	 0.4026016956	 0.136173
H	 2.1160670282	 3.7337670149	 1.0529934612	 0.147334
H	 1.223247188	 3.3060191939	-1.9177694588	 0.116689
H	 3.3878400733	 1.8329943696	-1.9938717742	 0.131158
H	 3.9754607016	 2.9468089225	-0.7359353877	 0.130923
H	 2.5751396688	 0.257627577	-0.3996822696	 0.14965
82.64	131.1012	146.8408	213.4106	258.8922	349.8324	408.1267	483.2147	532.8262	569.7687	677.999	754.7369	795.0124	817.223	879.0867	939.9299	977.0096	1011.3474	1035.3626	1048.2277	1054.3216	1092.0196	1096.1824	1146.558	1198.2335	1231.9352	1268.2349	1308.7784	1346.8273	1381.0662	1434.9803	1479.5118	1495.8842	1800.9978	2355.1388	2871.8375	3075.5684	3103.1084	3119.1132	3138.5449	3197.6893	3209.5954
O=CC12CC1CC2C#N	O=C[C@]12C[C@H]1C[C@H]2C#N	
InChI=1S/C7H7NO/c8-3-6-1-5-2-7(5,6)4-9/h4-6H,1-2H2	InChI=1S/C7H7NO/c8-3-6-1-5-2-7(5,6)4-9/h4-6H,1-2H2/t5-,6+,7-/m1/s1
