19
gdb 12100	3.34231	1.68455	1.46964	2.5138	71.37	-0.2198	0.0678	0.2876	948.1477	0.163615	-365.002918	-364.994177	-364.993233	-365.036029	32.554	
C	 0.363098233	 1.5338407145	-0.3884099479	-0.310946
N	 0.0791023095	 0.1509836399	-0.0235706423	-0.082086
C	 1.1854857796	-0.7951814845	-0.0441616156	-0.259538
C	 0.5826073778	-0.3670195947	 1.2504747318	-0.030141
C	 1.3055057967	 0.4800905137	 2.2550178996	 0.422252
O	 0.3835774572	 1.3838967873	 2.8212102104	-0.47538
C	 2.3447230568	-0.1553848549	 3.1409157645	-0.340754
C	 2.7480662422	 0.8984194712	 2.1237040567	-0.325926
H	 1.3853242154	 1.8654271464	-0.1553559825	 0.104963
H	 0.2039164184	 1.6470171202	-1.4656376675	 0.113699
H	-0.3347008225	 2.189684684	 0.1385907413	 0.134679
H	 0.9691661202	-1.7816351919	-0.4473224535	 0.111566
H	 2.174239909	-0.4147717058	-0.2950033507	 0.103903
H	-0.1253569227	-1.0429260609	 1.7293993248	 0.095138
H	 0.7700034285	 1.7663491728	 3.6151062227	 0.28061
H	 2.3507277314	 0.1198371392	 4.1918422996	 0.107099
H	 2.626531972	-1.1856983568	 2.9522037217	 0.122296
H	 3.3348236489	 0.5870481088	 1.2678178291	 0.118985
H	 2.9999770985	 1.8874298916	 2.4946057079	 0.109578
68.1849	132.411	143.9787	190.0005	239.3953	294.0043	358.7488	366.3951	424.6693	492.3225	546.4179	691.2302	764.0802	778.4465	857.4349	896.3466	916.7697	937.1163	976.0913	1029.4411	1045.9867	1056.7525	1069.5625	1096.7915	1132.4549	1137.9213	1168.4947	1184.507	1201.1621	1207.538	1274.8647	1338.5686	1383.3577	1448.0142	1450.8849	1460.9295	1486.8098	1498.7022	1501.2966	1514.0025	2996.4584	3073.0904	3092.7963	3104.8669	3116.0544	3120.6062	3130.8763	3173.0834	3204.1073	3221.3958	3823.3786
CN1CC1C1(O)CC1	CN1C[C@H]1C1(O)CC1	
InChI=1S/C6H11NO/c1-7-4-5(7)6(8)2-3-6/h5,8H,2-4H2,1H3	InChI=1S/C6H11NO/c1-7-4-5(7)6(8)2-3-6/h5,8H,2-4H2,1H3/t5-,7?/m0/s1
