25
gdb 121849	2.84856	0.76559	0.71307	1.5884	86.8	-0.2434	0.077	0.3204	1777.853	0.224721	-426.612109	-426.60008	-426.599136	-426.650034	42.497	
C	 0.0490454913	 1.3578604259	-0.1808816157	-0.22488
O	 0.0060182827	-0.0420720096	-0.0693705406	-0.231707
C	-1.3142869784	-0.5437273252	 0.0119645769	-0.068252
C	-1.2253764257	-2.0628706848	 0.1034746469	-0.206068
C	-2.5776004234	-2.8001646642	 0.1029940924	 0.347375
C	-2.3175245959	-4.3156797118	 0.1058634513	-0.420453
C	-3.4392080621	-2.4065041611	 1.3158810403	-0.424934
O	-3.1920353705	-2.3921505174	-1.1304797717	-0.273911
C	-4.4815165133	-2.879220786	-1.4214371367	-0.241751
H	 1.0999916597	 1.6515395243	-0.245980709	 0.122505
H	-0.475520195	 1.7146125863	-1.0821028121	 0.10107
H	-0.4035621528	 1.8547017235	 0.6931194579	 0.098118
H	-1.8215784198	-0.1176634892	 0.8938995413	 0.076822
H	-1.8965019983	-0.253077387	-0.8745086524	 0.103416
H	-0.6418714045	-2.4145156783	-0.7540627408	 0.1087
H	-0.6673742861	-2.3349846271	 1.0059003491	 0.097457
H	-1.7266982536	-4.5988893464	 0.9823116478	 0.11587
H	-3.2485671199	-4.888976915	 0.140444136	 0.111077
H	-1.7641772069	-4.6069837214	-0.7916191864	 0.1211
H	-3.7407865141	-1.3570555383	 1.263028352	 0.123429
H	-4.3444825905	-3.0171546852	 1.3821048643	 0.11281
H	-2.8770497579	-2.5556740665	 2.242871996	 0.117481
H	-4.7487633696	-2.4762925119	-2.402102012	 0.125681
H	-4.5209334708	-3.9760143976	-1.4801595445	 0.104686
H	-5.2366091347	-2.5449971058	-0.6960896803	 0.104359
58.1286	64.7753	67.0092	126.7963	129.2738	185.4828	230.0898	248.6824	257.4104	270.2792	307.3925	308.6489	366.2061	402.0453	431.6306	505.5847	564.2279	741.0395	790.2112	885.1638	918.5139	935.2536	984.3794	1004.3289	1054.952	1077.5544	1123.8196	1161.6227	1178.1708	1178.5322	1183.4402	1204.8466	1217.8826	1235.6118	1253.3044	1280.75	1324.2711	1340.8589	1393.3533	1410.8067	1425.3292	1472.1516	1475.4066	1479.96	1484.0599	1484.1729	1484.8405	1497.6237	1503.5051	1505.9361	1512.14	1517.5097	1536.5247	2955.9575	2967.7179	2992.2627	3003.3774	3016.1926	3034.7344	3040.914	3044.4262	3047.6485	3089.8555	3104.1099	3104.9645	3107.8997	3112.037	3116.785	3120.9535
COCCC(C)(C)OC	COCCC(C)(C)OC	
InChI=1S/C7H16O2/c1-7(2,9-4)5-6-8-3/h5-6H2,1-4H3	InChI=1S/C7H16O2/c1-7(2,9-4)5-6-8-3/h5-6H2,1-4H3
