21
gdb 85819	2.31601	1.24982	1.14642	4.5034	83.79	-0.2297	0.0259	0.2556	1240.0859	0.180837	-383.272587	-383.262617	-383.261673	-383.30693	37.022	
C	 0.1753842666	 1.5645831189	 0.0386376967	-0.406772
C	 0.0334474441	 0.0543678754	-0.0410495288	 0.076394
C	 0.6639740375	-0.6995173963	-1.2396377992	-0.297083
C	 1.1922051344	-1.7299470433	-0.1912857387	 0.158451
C	 0.3643789173	-3.0239815832	-0.1407770782	-0.449332
C	 2.6233770615	-2.0612786617	-0.2845401747	 0.26524
N	 3.7455109246	-2.3274271589	-0.3637012769	-0.345608
N	 0.916779301	-0.7170131698	 0.8550755926	-0.088725
C	 0.4847754623	-1.0995064823	 2.1810580664	-0.344275
H	 1.2207224494	 1.8585732391	-0.0931177264	 0.127282
H	-0.4289837266	 2.0501456349	-0.7353415773	 0.117504
H	-0.1652449354	 1.9405512194	 1.0093711264	 0.119869
H	-1.0280403164	-0.2241245151	 0.0813384709	 0.060075
H	-0.010948578	-1.1031999059	-1.9947469202	 0.114389
H	 1.4652870153	-0.136649529	-1.7197766596	 0.127685
H	 0.5543219446	-3.6239613184	-1.0352779549	 0.138715
H	 0.6220305124	-3.6285418454	 0.7329068499	 0.137332
H	-0.7031786784	-2.7904307434	-0.1022613346	 0.12658
H	 1.2592977216	-1.7049186413	 2.6629728493	 0.135002
H	 0.3508519109	-0.1970702674	 2.7860882358	 0.129697
H	-0.4634037388	-1.6649163463	 2.2027468217	 0.097579
79.6302	133.7699	188.4972	196.0209	211.3148	234.1814	254.8539	256.4984	309.7594	350.9363	409.9938	475.2295	531.7067	575.5954	610.4683	715.1151	790.7123	880.7676	900.7084	921.0581	944.0034	984.3415	1067.0358	1114.2346	1128.8238	1141.3947	1172.4571	1185.262	1225.4702	1242.239	1263.3499	1274.602	1317.3115	1393.8559	1403.8888	1412.1098	1451.1262	1479.9275	1486.0772	1488.3	1490.7762	1493.5973	1498.3897	1508.0008	2351.1509	2939.8434	2951.6029	3032.3381	3045.2266	3063.5322	3088.3357	3098.4449	3103.3628	3115.9471	3121.3088	3124.2345	3149.735
CC1CC(C)(C#N)N1C	C[C@H]1C[C@@](C)(C#N)N1C	
InChI=1S/C7H12N2/c1-6-4-7(2,5-8)9(6)3/h6H,4H2,1-3H3	InChI=1S/C7H12N2/c1-6-4-7(2,5-8)9(6)3/h6H,4H2,1-3H3/t6-,7-/m0/s1
