22
gdb 93092	2.20449	1.46337	0.92754	2.3455	84.22	-0.2363	0.023	0.2593	1314.1258	0.19461	-404.368099	-404.358745	-404.357801	-404.402314	35.248	
C	 0.0047891441	 1.5823513917	 0.0364637235	-0.400099
C	-0.0033051735	 0.0473458707	 0.0258349614	-0.011177
C	 0.4529109662	-0.4585561448	-1.3522223361	-0.137249
N	 0.4067379786	-1.876743745	-1.6533974597	-0.256406
C	 0.7581143661	-2.8172773927	-0.8941300117	 0.114211
O	 1.1849586386	-2.8654358661	 0.3975730663	-0.242942
C	 0.6486339419	-2.0061954787	 1.4219081121	 0.130294
C	 1.3081529029	-2.4747116698	 2.7136950258	-0.399155
C	 0.8550393928	-0.5164382195	 1.1627367672	-0.186665
H	 1.0201316581	 1.9717824755	-0.1040480796	 0.115769
H	-0.6204854937	 1.9887845269	-0.7648679044	 0.116443
H	-0.3719058094	 1.9737858401	 0.9867565333	 0.111747
H	-1.0381462735	-0.2913604306	 0.1815973134	 0.075967
H	-0.1458019427	 0.0462816103	-2.1192982944	 0.102279
H	 1.4896252511	-0.1221833004	-1.5150750674	 0.10783
H	 0.7964291209	-3.8286469064	-1.3038382762	 0.111449
H	-0.4330943472	-2.2023614153	 1.4723987093	 0.082339
H	 2.3827733641	-2.2680635192	 2.6926883766	 0.126047
H	 0.8721236735	-1.9594171102	 3.5741664511	 0.116914
H	 1.1688797256	-3.5506988618	 2.8432608862	 0.126814
H	 1.9197669994	-0.3276281336	 0.9674192846	 0.099406
H	 0.6084382361	 0.009850119	 2.0933740486	 0.096184
67.7001	93.5207	169.6622	215.6822	222.7597	263.5451	316.8289	367.4534	381.0497	419.8406	473.5981	489.0266	528.1509	782.2349	795.124	859.3072	876.2952	917.8323	947.4189	955.449	972.8647	1002.3579	1029.1683	1062.5084	1121.0557	1152.575	1157.7941	1160.277	1192.1776	1235.8202	1298.8256	1300.6609	1341.5589	1374.4933	1378.3674	1394.6499	1406.2847	1411.5806	1420.5537	1438.2668	1468.1468	1484.7038	1488.9824	1498.6511	1500.2412	1501.9727	1763.71	2980.3629	2989.6689	3000.5175	3016.0016	3028.3093	3045.1536	3045.4323	3058.8084	3093.8687	3103.5613	3115.7605	3118.2584	3127.6168
CC1CN=COC(C)C1	C[C@H]1CN=CO[C@@H](C)C1	
InChI=1S/C7H13NO/c1-6-3-7(2)9-5-8-4-6/h5-7H,3-4H2,1-2H3	InChI=1S/C7H13NO/c1-6-3-7(2)9-5-8-4-6/h5-7H,3-4H2,1-2H3/t6-,7+/m1/s1
