19
gdb 114185	2.91304	1.16418	0.93987	1.3316	78.37	-0.2457	-0.0278	0.2179	1311.9567	0.157017	-423.017131	-423.008005	-423.007061	-423.051463	33.505	
C	 0.0674212915	 1.6610068696	-0.1132101373	-0.384251
C	-0.2985312687	 0.1832212971	-0.2807896557	-0.192757
C	 0.697476289	-0.5654688963	-1.1517069976	 0.02034
O	 2.033617428	-0.6517439736	-0.5676176781	-0.336181
C	 2.0114201975	-2.0800605989	-0.5594057654	 0.335738
C	 3.1999747326	-2.943996934	-0.8719232431	-0.328008
C	 2.6181439617	-2.9281504133	 0.5208323497	-0.32387
C	 0.6340674315	-2.1045174494	-1.1458862012	 0.265237
O	-0.1635026779	-2.9405787102	-1.4535043568	-0.305041
H	 1.063083485	 1.7617383347	 0.3276249668	 0.137921
H	 0.0716449187	 2.1799399675	-1.0779409658	 0.116836
H	-0.6485450954	 2.169517727	 0.5389466727	 0.116989
H	-0.3500173158	-0.3058636008	 0.6989525581	 0.107336
H	-1.2881833011	 0.0780292047	-0.7420641722	 0.115915
H	 0.7466467375	-0.1358858965	-2.161742366	 0.106196
H	 3.0368630123	-3.8120857308	-1.5017602291	 0.136772
H	 4.1360206765	-2.4201893103	-1.0318049354	 0.13719
H	 3.1670264946	-2.3950107025	 1.2893514988	 0.136686
H	 2.0473341226	-3.7847532039	 0.8633964774	 0.136949
65.0436	94.7255	140.9423	175.3871	207.7333	229.5567	301.681	359.2034	408.6271	518.4561	591.5054	699.3541	739.7655	767.8905	779.4489	836.8376	882.2572	911.1736	930.9977	952.5158	994.7939	1031.6626	1056.8255	1065.3828	1069.6909	1100.9412	1144.6579	1194.041	1224.5694	1253.0564	1280.0791	1326.8604	1358.8631	1394.5139	1408.3044	1444.1356	1474.3328	1480.189	1496.9202	1507.9734	1909.56	3017.8239	3033.2409	3038.0624	3072.2345	3106.6768	3120.8117	3133.5738	3134.4834	3220.4949	3234.6239
CCC1OC2(CC2)C1=O	CC[C@H]1OC2(CC2)C1=O	
InChI=1S/C7H10O2/c1-2-5-6(8)7(9-5)3-4-7/h5H,2-4H2,1H3	InChI=1S/C7H10O2/c1-2-5-6(8)7(9-5)3-4-7/h5H,2-4H2,1H3/t5-/m1/s1
