15
gdb 54500	2.63004	1.67119	1.11777	1.6144	67.47	-0.2516	-0.0308	0.2208	1036.7774	0.112743	-453.954377	-453.946362	-453.945417	-453.987084	29.979	
N	 0.0028956508	 1.2797938631	-0.1994851877	-0.553419
C	 0.047716087	-0.0361501919	 0.1208830018	 0.32438
O	 1.041667495	-0.6360878804	 0.4960550461	-0.38636
C	-1.2630357397	-0.727794714	-0.0360159938	 0.134293
N	-1.5443142574	-1.9471747474	 0.7895817731	-0.355164
C	-1.5452432755	-2.1003838317	-0.6485115397	-0.10043
C	-2.9384951333	-1.6633998332	-1.1350629409	-0.335282
C	-2.5517013344	-0.2462850633	-0.6329399333	 0.370768
O	-2.9446492376	 0.8609444901	-0.8904387341	-0.33199
H	 0.8374845843	 1.8334309836	-0.0975055031	 0.266771
H	-0.8735662066	 1.7184761558	-0.4439513072	 0.284568
H	-0.6126267931	-2.2054453417	 1.130568346	 0.262069
H	-0.816671659	-2.7005393929	-1.1775964745	 0.137097
H	-3.0820668214	-1.666866849	-2.2180434602	 0.13913
H	-3.7735656892	-2.157088727	-0.6348740426	 0.143569
88.5359	126.8534	179.6122	196.3888	352.8658	376.8472	403.0589	444.7923	540.2424	579.9414	619.0484	674.5876	682.3508	756.3608	820.8039	857.588	891.4627	957.1544	1006.3555	1012.8354	1071.3044	1119.2473	1124.828	1173.0355	1201.8304	1281.7922	1322.2367	1360.8105	1431.7841	1447.064	1625.2418	1781.4616	1856.2706	3078.3836	3141.5858	3214.0355	3421.1655	3558.1071	3710.6829
NC(=O)C12NC1CC2=O	NC(=O)[C@]12N[C@H]1CC2=O	
InChI=1S/C5H6N2O2/c6-4(9)5-2(7-5)1-3(5)8/h2,7H,1H2,(H2,6,9)	InChI=1S/C5H6N2O2/c6-4(9)5-2(7-5)1-3(5)8/h2,7H,1H2,(H2,6,9)/t2-,5-/m0/s1
