17
gdb 50667	2.07814	1.7479	1.12532	1.5655	68.49	-0.2539	-0.0319	0.222	1083.7693	0.13494	-458.944781	-458.936537	-458.935593	-458.978719	29.814	
O	-0.3528267007	 0.1324938178	 0.2517217356	-0.258805
C	-0.1188165523	 1.2662231531	-0.080245946	 0.158036
C	 1.2392827381	 1.9284598861	 0.0389468231	-0.17451
C	 1.4708729316	 2.9383832355	-1.0993245171	-0.12578
O	 0.8429994437	 4.1350590812	-0.6567323472	-0.247547
C	 1.1477476393	 4.2809873618	 0.7206213178	-0.152889
C	 1.2782680591	 2.8568430336	 1.2705762269	 0.373706
C	 0.9031362667	 2.4345280701	 2.6237249968	-0.243696
O	 2.2767314291	 2.6193897633	 2.2520779183	-0.265998
H	-0.9155452271	 1.9251391142	-0.4946566379	 0.091826
H	 2.0066779901	 1.1578373083	 0.1301009754	 0.116398
H	 2.5485827432	 3.0871486675	-1.2652645194	 0.110569
H	 1.007514029	 2.6546683238	-2.0483236731	 0.121259
H	 2.1045572653	 4.8032566563	 0.8732662639	 0.115335
H	 0.3479676871	 4.8633729048	 1.1853043163	 0.12123
H	 0.5082455389	 3.1663272339	 3.3270863626	 0.121403
H	 0.6021781389	 1.4031158087	 2.8000635241	 0.139465
46.7441	62.9414	177.4016	213.6237	293.4719	324.9682	371.2442	441.2176	479.6555	523.0528	698.1603	808.2071	853.8414	895.2107	924.835	939.3095	962.8817	976.9504	1032.8573	1091.8311	1112.4365	1128.5815	1136.619	1166.4469	1194.8582	1214.3006	1238.1029	1261.476	1297.1319	1336.9619	1379.6494	1415.6527	1429.8359	1504.4234	1517.7983	1528.2934	1826.366	2877.0052	2991.9876	2996.9309	3085.2519	3091.9856	3094.2188	3110.3843	3176.5368
O=CC1COCC11CO1	O=C[C@H]1COC[C@]21CO2	
InChI=1S/C6H8O3/c7-1-5-2-8-3-6(5)4-9-6/h1,5H,2-4H2	InChI=1S/C6H8O3/c7-1-5-2-8-3-6(5)4-9-6/h1,5H,2-4H2/t5-,6+/m0/s1
