20
gdb 70448	2.62958	1.498	1.24721	1.6969	78.76	-0.2181	0.0789	0.297	1099.8708	0.170156	-403.078172	-403.069657	-403.068713	-403.11134	32.759	
C	 0.5488004286	 1.5049115111	-0.4295776225	-0.506528
C	 0.3609109878	 0.0328089486	-0.23894392	 0.378348
O	-0.9201625694	-0.424725056	 0.2325304132	-0.284165
C	 0.2460466637	-0.7899814288	 0.9821276912	-0.038584
C	 0.8416395541	-2.0283312254	 0.3099458376	-0.270126
C	 1.0533277749	-1.1604536041	-0.9781866443	-0.013913
N	 0.6141811787	-1.7282802828	-2.2322292048	-0.086675
C	-0.7855074219	-1.608346241	-2.6357903802	-0.226214
C	 0.2772415418	-0.8262303937	-3.3287474568	-0.229846
H	 1.6087112682	 1.7456563682	-0.5613277694	 0.125273
H	 0.0101528261	 1.8649506831	-1.3130682176	 0.132111
H	 0.1704958278	 2.0530305586	 0.4382113459	 0.13279
H	 0.2730851893	-0.4906305876	 2.0238297834	 0.101733
H	 1.7769731987	-2.3844948908	 0.7463685842	 0.106358
H	 0.1422347265	-2.8599963838	 0.2029664992	 0.116508
H	 2.1173632488	-0.9190104083	-1.0861942225	 0.084263
H	-1.2010421889	-2.4922921085	-3.1124788484	 0.111487
H	-1.4659594765	-1.0735917835	-1.9826141955	 0.143817
H	 0.3056110419	 0.2458611587	-3.1454380489	 0.109466
H	 0.6339983298	-1.125317354	-4.3108068036	 0.1139
65.283	145.7929	173.2174	209.0605	264.8995	292.4367	332.8698	425.8696	458.4204	575.7527	647.7079	713.6367	763.9153	809.4936	844.5152	883.7569	895.4663	918.4632	942.0516	966.342	1023.5726	1045.0112	1071.5169	1075.4008	1099.9351	1118.3399	1122.0341	1154.6908	1179.8229	1188.2248	1199.1508	1224.8049	1263.9427	1270.2933	1337.4735	1367.8005	1405.6993	1447.9067	1474.924	1482.9431	1493.1878	1499.3549	1524.7598	3032.7936	3039.2236	3074.3939	3095.5678	3101.0278	3113.9324	3117.9691	3132.5883	3181.4753	3183.4503	3217.7187
CC12OC1CC2N1CC1	C[C@]12O[C@H]1C[C@H]2N1CC1	
InChI=1S/C7H11NO/c1-7-5(8-2-3-8)4-6(7)9-7/h5-6H,2-4H2,1H3	InChI=1S/C7H11NO/c1-7-5(8-2-3-8)4-6(7)9-7/h5-6H,2-4H2,1H3/t5-,6+,7-/m1/s1
