14
gdb 61323	6.95287	0.58664	0.55317	2.6062	85.19	-0.257	-0.0304	0.2266	1852.3926	0.09799	-399.497413	-399.487847	-399.486902	-399.53262	33.441	
O	-0.0817853438	 1.4379494555	 0.055060648	-0.393514
C	 0.024209929	 0.0356357762	 0.0337298392	-0.006705
C	 0.6677249607	-0.5148696937	-1.2690902538	-0.420947
C	-0.0728840171	-0.1243877552	-2.4549144217	 0.374777
C	-0.6949745291	 0.1966837358	-3.4411016193	-0.211689
C	-1.394544427	 0.5583257837	-4.5505041696	 0.294304
C	-2.0147627818	 0.8789285459	-5.5353691717	-0.548933
C	 0.7746505665	-0.471201305	 1.203059089	 0.256466
N	 1.3919414521	-0.8494646709	 2.1035353564	-0.308198
H	 0.8045614502	 1.8181056567	 0.0366596287	 0.299028
H	-1.0030332519	-0.3365528255	 0.0994909897	 0.157783
H	 1.7036764398	-0.1545898046	-1.3271768208	 0.148586
H	 0.7268590637	-1.6081702351	-1.1952863264	 0.16237
H	-2.5608937013	 1.1616425562	-6.4010332578	 0.196672
46.0032	62.6257	156.7218	162.1745	201.8982	246.0292	325.0582	352.0188	360.7469	447.4618	525.0689	543.9396	557.113	589.0968	599.3016	606.8773	746.4231	855.6183	933.2282	1017.7553	1099.7054	1183.	1190.6866	1280.507	1320.8019	1355.9178	1421.1	1459.5921	2185.6628	2356.0228	2369.3798	3019.0281	3055.409	3079.9606	3504.2867	3796.6163
OC(CC#CC#C)C#N	O[C@@H](CC#CC#C)C#N	
InChI=1S/C7H5NO/c1-2-3-4-5-7(9)6-8/h1,7,9H,5H2	InChI=1S/C7H5NO/c1-2-3-4-5-7(9)6-8/h1,7,9H,5H2/t7-/m0/s1
