12
gdb 5673	5.4391	2.28341	1.60825	2.8723	60.47	-0.2047	0.0169	0.2215	715.089	0.087538	-377.548533	-377.543091	-377.542147	-377.577858	21.451	
N	-0.0543590221	 1.3245756706	 0.0102381119	-0.408951
C	 1.2706795633	 1.7557377022	-0.0004447762	-0.009634
N	 2.1456520099	 0.7765755757	-0.0147378342	-0.340462
C	 1.3710763718	-0.3679559994	-0.0129473502	 0.215841
C	 0.0452409283	-0.0346362036	 0.0021210944	 0.420396
O	-0.7926788423	-1.0786052466	 0.0050560219	-0.216554
C	 0.0733308857	-2.1778059376	-0.0093386151	-0.025107
C	 1.3834555383	-1.8074839997	-0.0206433313	-0.30277
H	-0.8785342824	 1.8998737902	 0.0214086576	 0.276807
H	 1.5040416342	 2.8098772475	 0.0029125419	 0.132923
H	-0.4262924785	-3.1311740464	-0.0093102212	 0.137079
H	 2.2241170237	-2.4830232029	-0.0326839795	 0.120431
198.1497	344.3302	408.1033	474.489	586.7001	637.5187	694.1739	699.6776	748.6792	754.6872	790.7366	833.6855	897.9674	967.6218	1003.7474	1053.6244	1128.2878	1165.2132	1250.0926	1312.975	1354.6602	1439.1628	1485.357	1527.5895	1561.4204	1613.1576	3254.9915	3260.7739	3296.7311	3680.5999
N1C=NC2=C1OC=C2	[nH]1cnc2c1occ2	
InChI=1S/C5H4N2O/c1-2-8-5-4(1)6-3-7-5/h1-3H,(H,6,7)	InChI=1S/C5H4N2O/c1-2-8-5-4(1)6-3-7-5/h1-3H,(H,6,7)
