17
gdb 70369	2.88969	1.69569	1.40489	0.6223	66.49	-0.2363	0.0612	0.2975	951.5521	0.136271	-458.915911	-458.908637	-458.907693	-458.947486	28.977	
O	 0.0118976964	 1.3704050445	-0.0789111504	-0.471743
C	 0.0072303697	-0.0177363925	 0.0314291542	 0.349679
C	-0.3812997485	-0.9024538858	-1.1354567659	-0.377866
C	-1.2872249135	-0.772970311	 0.0684681203	 0.053364
O	-1.2693172762	-1.7772921653	 1.0527331559	-0.26977
C	-0.038496333	-1.7414202035	 1.7608339996	 0.063723
C	 1.0435994238	-2.7401556292	 1.310157621	-0.106899
O	 1.8025604962	-1.6879793257	 0.6656770846	-0.290107
C	 0.8681722637	-0.6731401023	 1.1047074561	-0.003706
H	 0.7491368985	 1.6216919186	-0.6465348662	 0.287994
H	-0.7108345353	-0.3876634287	-2.0320084931	 0.117648
H	 0.1818038634	-1.8145029014	-1.2940102921	 0.133784
H	-2.2479569503	-0.280714167	-0.0297404503	 0.114065
H	-0.2417031935	-1.6932306024	 2.83319913	 0.0942
H	 1.6130764984	-3.2051004361	 2.1236540818	 0.105933
H	 0.7009631931	-3.5080353579	 0.60833085	 0.112364
H	 1.344014897	 0.0840261257	 1.7346546344	 0.087336
103.9964	188.2913	277.7613	306.7944	356.0988	395.7562	449.687	493.1291	587.6686	675.0861	733.1797	796.8509	857.1306	876.522	890.7202	934.6351	967.5619	984.2538	996.5074	1012.2542	1028.6352	1059.8578	1082.8507	1092.0876	1152.6817	1177.0208	1216.5483	1239.7931	1246.8827	1268.6376	1308.9145	1326.3828	1348.0871	1370.7405	1412.6652	1479.7211	1511.828	3025.464	3069.5947	3078.2065	3088.3486	3137.0349	3183.2242	3234.9685	3792.0445
OC12CC1OC1COC21	O[C@]12C[C@H]1O[C@H]1CO[C@@H]21	
InChI=1S/C6H8O3/c7-6-1-4(6)9-3-2-8-5(3)6/h3-5,7H,1-2H2	InChI=1S/C6H8O3/c7-6-1-4(6)9-3-2-8-5(3)6/h3-5,7H,1-2H2/t3-,4+,5+,6+/m0/s1
