23
gdb 90406	2.16086	1.5216	1.29918	1.4379	86.07	-0.2332	0.069	0.3022	1168.2978	0.203811	-388.272424	-388.262432	-388.261488	-388.306108	38.884	
C	-0.1476727738	 1.5186728454	-0.0865451083	-0.421473
C	 0.1393731455	 0.0204762829	-0.0563824745	 0.000479
C	 1.2953955209	-0.5793915858	-0.9210808759	-0.263482
C	 1.8335267622	-1.2971785963	 0.31912861	-0.154862
C	 2.19836085	-0.3146902278	 1.3828107399	 0.356994
C	 2.9148810863	-0.8652767285	 2.6012843385	-0.459155
O	 2.7436098351	 0.9196976461	 0.9643342528	-0.459984
C	 0.7317504765	-0.641913786	 1.207907411	 0.241844
C	-0.1570721364	-1.1995976885	 2.2882011577	-0.501226
H	 0.7651025965	 2.099794332	 0.0567942886	 0.120725
H	-0.5860116541	 1.8089626634	-1.0482996394	 0.109104
H	-0.8641763791	 1.7988482366	 0.6949149711	 0.103948
H	-0.7850386417	-0.5174814088	-0.2985071697	 0.067061
H	 0.9377291426	-1.2574797005	-1.6987035831	 0.092479
H	 1.9833533588	 0.1437333522	-1.365743069	 0.110013
H	 2.2192020819	-2.3114578805	 0.3408140855	 0.077166
H	 3.9936124796	-0.8502544058	 2.4190652427	 0.126893
H	 2.7140970475	-0.2575084676	 3.4924912473	 0.106332
H	 2.6218992358	-1.8936667261	 2.8260212923	 0.121088
H	 2.5440294159	 1.5735368108	 1.6433129542	 0.276962
H	-0.6781187685	-0.3932383176	 2.8206930149	 0.116036
H	-0.9262796139	-1.8550611638	 1.8626599755	 0.115962
H	 0.3938421621	-1.7771408459	 3.0348628779	 0.117097
151.6525	158.1748	176.3368	202.6252	214.9325	231.584	267.9124	295.4353	325.3554	372.6165	395.1408	403.9003	529.6324	553.564	637.9616	645.706	714.1352	827.9984	861.2626	883.0957	938.3578	950.6163	978.2738	1014.818	1033.177	1080.7289	1089.1272	1123.2453	1127.0138	1142.862	1180.2022	1196.5878	1245.8063	1251.6296	1275.7218	1289.4533	1331.9315	1382.23	1397.3522	1407.2251	1418.5339	1443.8273	1485.2139	1488.5212	1490.4505	1491.5968	1497.901	1508.4354	1514.4514	3016.4502	3022.0234	3025.7794	3029.916	3064.6559	3067.7314	3081.9911	3091.9338	3108.863	3115.4963	3122.9384	3132.7967	3159.2497	3798.3354
CC1CC2C(C)(O)C12C	C[C@H]1C[C@H]2[C@@](C)(O)[C@@]12C	
InChI=1S/C8H14O/c1-5-4-6-7(5,2)8(6,3)9/h5-6,9H,4H2,1-3H3	InChI=1S/C8H14O/c1-5-4-6-7(5,2)8(6,3)9/h5-6,9H,4H2,1-3H3/t5-,6+,7-,8+/m0/s1
