19
gdb 81497	3.68437	1.2434	1.05245	0.994	82.92	-0.2512	0.0373	0.2885	1180.12	0.157586	-385.800002	-385.791263	-385.790319	-385.832687	34.588	
C	-0.2305005327	 1.5693816626	-0.0328994277	-0.450684
C	 0.0250412298	 0.070545247	-0.0027554424	 0.029782
C	 1.2431325442	-0.5721235726	-0.7500845623	-0.121781
C	 2.1643961804	-0.0254969751	 0.3766070778	-0.259518
C	 0.9138849555	-0.5899206067	 1.1115593533	-0.097404
C	 1.0220051246	-1.8332149303	 0.1745245296	 0.302691
O	-0.1812643253	-2.5634592896	 0.0407869765	-0.489565
C	 2.1393527676	-2.7563456095	 0.3408679187	 0.254537
C	 3.0103690355	-3.581104382	 0.4343008373	-0.452105
H	 0.6588649224	 2.1808176479	 0.1371188033	 0.115937
H	-0.649435212	 1.8600275163	-1.0028554574	 0.118024
H	-0.9675803103	 1.8404421081	 0.7311966915	 0.11942
H	-0.9094318285	-0.4631317575	-0.1743448668	 0.096106
H	 1.4407266069	-0.5877259992	-1.82373374	 0.069804
H	 3.1091297363	-0.5451728227	 0.5404368113	 0.112263
H	 2.3020476517	 1.05303119	 0.4125962258	 0.098873
H	 0.7277155245	-0.6227367741	 2.1862660605	 0.075614
H	 0.0025921702	-3.3282170761	-0.5138903493	 0.285131
H	 3.7876410992	-4.2983106564	 0.5327056702	 0.192877
124.5171	154.6425	176.4485	253.7731	274.9681	278.0034	336.0856	407.221	478.9173	523.518	528.2016	601.38	617.6492	666.4421	686.9078	759.5692	794.0543	813.0403	896.5539	913.1251	1004.2033	1022.0855	1027.2208	1049.9467	1065.4924	1086.7434	1127.6638	1150.1799	1158.34	1183.5462	1204.8118	1228.7181	1240.1518	1265.1275	1362.7972	1410.7542	1426.2272	1496.201	1497.3573	1527.1025	2224.6137	3034.2337	3088.2633	3088.9635	3095.8278	3101.4876	3110.1813	3125.5499	3160.4253	3499.7079	3823.1602
CC1C2CC1C2(O)C#C	C[C@H]1[C@H]2C[C@@H]1[C@]2(O)C#C	
InChI=1S/C8H10O/c1-3-8(9)6-4-7(8)5(6)2/h1,5-7,9H,4H2,2H3	InChI=1S/C8H10O/c1-3-8(9)6-4-7(8)5(6)2/h1,5-7,9H,4H2,2H3/t5-,6+,7-,8-
