18
gdb 78925	4.39281	1.37848	1.35418	0.27	74.16	-0.216	0.0716	0.2877	1000.0099	0.148046	-401.849287	-401.842064	-401.84112	-401.880439	29.637	
C	-0.0109138369	 1.6305000282	 0.0156704355	-0.414917
C	 0.0252563305	 0.1184230402	-0.0584273048	 0.064167
C	 0.7004187961	-0.6345771622	-1.2284662625	-0.085551
C	 2.1997161308	-0.2651095544	-1.1632415846	-0.143236
C	 2.3438871975	-0.2278509366	 0.3854375011	-0.132521
N	 0.9834982986	-0.6083841965	 0.8703150269	-0.165179
C	 1.0605407998	-1.7392539701	-0.1786945294	-0.11005
C	 2.5860020162	-1.4933828982	-0.3794152911	 0.378429
O	 3.6700621687	-2.3137134162	-0.5324496575	-0.458716
H	 0.9727041294	 2.0635749527	-0.1895998593	 0.120712
H	-0.7185586131	 2.0356279004	-0.7155801264	 0.116076
H	-0.328065323	 1.9592291462	 1.0109741992	 0.125095
H	-0.9695144904	-0.302223045	 0.1312057226	 0.078082
H	 0.2333130072	-0.8146260842	-2.1963945196	 0.067352
H	 2.8014244348	 0.3482391857	-1.8190336055	 0.095001
H	 3.0116045324	 0.4404271093	 0.9130126587	 0.093356
H	 0.5164631521	-2.6638220374	 0.0054518839	 0.079623
H	 3.9014497992	-2.6776208918	 0.3302601726	 0.292274
184.9882	191.6441	211.9607	308.1014	338.8759	371.1178	540.0609	615.0856	624.8992	715.357	736.9828	774.5939	810.5157	841.3253	849.4664	854.9405	904.2054	924.3009	953.9333	972.4833	1016.8378	1038.7491	1057.274	1103.0573	1108.8904	1125.4183	1147.5679	1174.1241	1199.1494	1214.8198	1222.8593	1238.9113	1282.1709	1317.6694	1385.7932	1409.0894	1487.8212	1489.5945	1497.7133	3033.913	3040.3041	3101.0313	3111.1408	3117.1807	3134.1366	3200.9291	3219.7031	3783.8225
CC1C2C3C4N1C2C34O	C[C@H]1[C@H]2[C@H]3[C@H]4N1[C@@H]2[C@@]34O	
InChI=1S/C7H9NO/c1-2-3-4-6-7(4,9)5(3)8(2)6/h2-6,9H,1H3	InChI=1S/C7H9NO/c1-2-3-4-6-7(4,9)5(3)8(2)6/h2-6,9H,1H3/t2-,3-,4-,5-,6+,7-/m0/s1
