19
gdb 109821	3.53502	0.87904	0.81827	4.2712	76.52	-0.237	0.0274	0.2644	1430.3221	0.157871	-419.174432	-419.16442	-419.163476	-419.210152	35.269	
C	-0.6311486372	 0.8656316581	-1.6842434807	-0.322389
N	-0.1228478758	-0.215960287	-0.8494475118	-0.083644
C	 1.2842715055	-0.2661118783	-0.4605576066	-0.060434
C	 2.303991495	 0.7666865166	-0.8940115667	-0.082178
O	 2.6221145184	 0.6512536266	-2.2738140806	-0.414294
C	 0.2088618908	-0.0126030694	 0.5531256983	-0.014715
C	 0.0675853043	 1.3274943101	 1.2722615016	-0.378411
C	-1.3093652592	 1.5716451992	 1.7065644721	 0.26981
N	-2.3978175058	 1.7552796042	 2.0476746069	-0.301983
H	-0.2473432228	 1.8699581917	-1.4564380964	 0.100744
H	-0.3730449925	 0.6453027427	-2.7227982782	 0.141556
H	-1.7204735211	 0.8920823693	-1.5906340331	 0.13995
H	 1.6929834844	-1.2795721717	-0.4900650842	 0.089104
H	 1.9430495624	 1.789793253	-0.7700561143	 0.107075
H	 3.2026144744	 0.6641576567	-0.2646392822	 0.098151
H	 2.9379621485	-0.2447796942	-2.4321523759	 0.286022
H	-0.0888490777	-0.8437902439	 1.1913237176	 0.110914
H	 0.7120528427	 1.327848556	 2.159384803	 0.159819
H	 0.3854690359	 2.1702848404	 0.6548360712	 0.154905
47.2898	82.6931	101.6441	133.3527	186.3402	236.7952	274.3132	287.6745	329.7523	385.5016	438.0361	507.4883	553.3409	585.2095	748.3995	786.4172	840.7576	948.1582	967.321	1010.3437	1053.4831	1068.7639	1115.5604	1133.5717	1150.7642	1163.2887	1178.5224	1230.2816	1236.2579	1310.4367	1352.4959	1363.9557	1398.5875	1417.2678	1446.7255	1455.3201	1466.5327	1487.3413	1503.644	1513.3947	2363.7349	2978.2031	3001.0691	3049.6656	3063.1909	3082.7107	3099.9136	3107.0807	3120.3124	3125.7216	3808.58
CN1C(CO)C1CC#N	CN1[C@@H](CO)[C@H]1CC#N	
InChI=1S/C6H10N2O/c1-8-5(2-3-7)6(8)4-9/h5-6,9H,2,4H2,1H3	InChI=1S/C6H10N2O/c1-8-5(2-3-7)6(8)4-9/h5-6,9H,2,4H2,1H3/t5-,6+,8?/m1/s1
