23
gdb 117845	2.35748	0.98023	0.83903	2.1193	78.28	-0.2549	0.0638	0.3187	1514.4243	0.202704	-462.557526	-462.545935	-462.544991	-462.594441	41.737	
C	 0.1175343726	 1.6150394982	 0.0596239919	-0.383033
C	-0.0305538557	 0.0927136795	-0.0171734808	-0.180642
C	 0.6322644355	-0.4929232938	-1.2696479584	-0.183914
C	 0.6716140772	-2.0258206874	-1.3223418551	 0.341268
O	 1.4261830133	-2.48548169	-0.2046294504	-0.484064
C	-0.7303620347	-2.6555406985	-1.2370891198	-0.121797
O	-1.54376572	-2.1038260168	-2.2670273883	-0.426842
C	 1.3695553317	-2.4810316228	-2.6117222209	-0.122168
O	 1.608431665	-3.884618377	-2.4791888099	-0.442054
H	 1.172576089	 1.909834493	 0.0909994995	 0.111519
H	-0.3351124551	 2.1029853354	-0.8112003705	 0.110816
H	-0.3665754153	 2.0178202198	 0.955034131	 0.107401
H	 0.4123086732	-0.3699235269	 0.8712398035	 0.115441
H	-1.096231443	-0.1638689867	-0.0118563557	 0.099581
H	 0.1160963808	-0.1255504534	-2.163684759	 0.107212
H	 1.6695098683	-0.1386814957	-1.3225479003	 0.089613
H	 1.7466082104	-3.3629241047	-0.4524057292	 0.28477
H	-0.627961994	-3.7436921824	-1.3483036337	 0.096318
H	-1.1426159934	-2.451983157	-0.2403013247	 0.094788
H	-2.3820714101	-2.5737422256	-2.2728182077	 0.289874
H	 0.7283057794	-2.2680929474	-3.4760803099	 0.111545
H	 2.3171913093	-1.9364266353	-2.721502643	 0.08981
H	 2.2142300657	-4.1606900045	-3.1715892484	 0.294557
54.7783	75.902	109.4514	135.5224	179.1501	212.8455	223.9407	243.4946	249.3134	292.215	326.7039	348.2173	382.6391	434.0816	471.4398	515.725	632.6048	746.0565	781.3292	862.2723	893.2373	928.6207	961.2686	1040.7365	1049.9769	1070.6453	1076.5603	1100.6428	1129.5463	1161.3041	1195.0703	1223.5089	1248.582	1262.7099	1277.2099	1300.4021	1323.5608	1352.5684	1384.4172	1409.4623	1418.5504	1445.6575	1453.7023	1471.192	1493.3452	1500.26	1503.859	1509.2326	1521.6553	3003.2065	3005.2977	3024.0582	3026.8975	3037.3907	3046.3731	3055.8793	3065.4624	3080.079	3098.5417	3100.4586	3761.2191	3837.3975	3849.5396
CCCC(O)(CO)CO	CCCC(O)(CO)CO	
InChI=1S/C6H14O3/c1-2-3-6(9,4-7)5-8/h7-9H,2-5H2,1H3	InChI=1S/C6H14O3/c1-2-3-6(9,4-7)5-8/h7-9H,2-5H2,1H3
