14
gdb 42246	2.11559	1.62813	1.13463	5.2307	74.99	-0.2656	-0.0545	0.2111	1075.721	0.099503	-395.667838	-395.659303	-395.658359	-395.701511	30.662	
N	 0.1209784595	 1.0758400109	 0.5518067945	-0.476023
C	 0.1905535866	-0.1014229317	 0.074529942	 0.22184
C	-0.9951260141	-0.939465333	 0.1207237816	 0.33423
N	-1.9285834069	-1.6194465654	 0.1461597663	-0.320353
N	 1.2523205579	-0.6917950325	-0.6179677716	-0.101473
C	 2.6286000563	-0.5355368685	-0.2044866889	-0.260029
C	 1.9685874994	-1.8914043983	-0.1534214544	-0.194972
C	 1.6586980215	-2.4833047605	 1.1172388355	 0.338124
C	 1.3858313423	-2.9944871133	 2.1698909925	-0.426408
H	 1.0145300515	 1.5621583735	 0.4488482313	 0.233662
H	 3.3397024088	-0.3170050746	-0.9954674687	 0.144834
H	 2.8194388421	-0.0523134894	 0.7510898685	 0.145611
H	 2.1870855212	-2.5931612232	-0.9541872284	 0.142016
H	 1.1357767038	-3.4435462542	 3.0998627199	 0.218941
61.7063	91.564	149.6969	209.0833	249.1358	286.6308	335.8292	469.2433	521.8185	560.8769	600.6791	633.8764	687.0431	707.6151	744.4915	811.7279	900.2728	907.7617	956.5672	1042.7161	1075.4489	1127.617	1129.6235	1161.984	1278.9349	1375.8408	1384.8699	1498.2346	1684.5224	2244.0844	2365.2222	3109.8097	3145.462	3205.3131	3461.4567	3500.1706
N=C(C#N)N1CC1C#C	[NH][C](C#N)N1C[C@H]1C#C	
InChI=1S/C6H5N3/c1-2-5-4-9(5)6(8)3-7/h1,5,8H,4H2	InChI=1S/C6H5N3/c1-2-5-4-9(5)6(8)3-7/h1,5,8H,4H2/t5-,9?/m1/s1
