18
gdb 31561	3.32185	1.15231	0.86885	1.9695	77.44	-0.183	0.043	0.2259	1331.6318	0.146402	-439.106733	-439.097055	-439.096111	-439.143502	34.373	
C	 0.1133848031	 1.4408113245	 0.1348832943	-0.243549
O	 0.0708404135	 0.0219455205	 0.0219362558	-0.270172
C	 0.634969921	-0.6873872225	 1.0082199564	 0.462129
C	 0.7401054635	-2.0335676571	 1.1598007396	-0.443066
C	 1.4412951463	-2.2304853679	 2.4040894474	 0.290263
C	 1.8131710538	-3.5357719377	 3.0319896206	-0.504128
C	 1.7064023274	-0.9976030145	 2.9092969701	 0.159398
N	 2.3524135787	-0.5853704172	 4.0714951761	-0.594175
O	 1.201786438	-0.0212063824	 2.0359408891	-0.219563
H	 1.1449385531	 1.8076204307	 0.1623678888	 0.13052
H	-0.3908358536	 1.823061662	-0.7533821986	 0.135579
H	-0.4083485097	 1.7847908055	 1.0342593985	 0.130524
H	 0.3702571385	-2.7838256817	 0.4808307547	 0.102384
H	 2.464282576	-4.1246045795	 2.3753258763	 0.123078
H	 2.3384246516	-3.3660443616	 3.9745886425	 0.136797
H	 0.9272459698	-4.148439336	 3.2360331008	 0.123065
H	 3.1851609349	-0.0333998139	 3.8905506369	 0.240457
H	 1.7519965042	-0.0540938014	 4.6944892908	 0.240456
4.9125	128.755	153.4565	193.4644	195.4406	214.0937	255.845	262.2335	370.2632	385.4083	541.2544	608.9436	633.9799	658.9815	680.6057	752.16	759.3251	811.6347	976.462	995.4229	1041.3786	1066.9084	1083.3951	1177.1203	1192.678	1208.5045	1212.0779	1254.1874	1336.7535	1402.2687	1434.0188	1479.7943	1484.6821	1489.0301	1493.5881	1503.1822	1641.7657	1663.139	1718.069	3026.7783	3028.9752	3074.0869	3093.928	3125.6711	3145.8947	3267.5202	3486.7725	3548.3611
COC1=CC(C)=C(N)O1	COc1cc(C)c(N)o1	
InChI=1S/C6H9NO2/c1-4-3-5(8-2)9-6(4)7/h3H,7H2,1-2H3	InChI=1S/C6H9NO2/c1-4-3-5(8-2)9-6(4)7/h3H,7H2,1-2H3
