21
gdb 114112	4.04877	0.88208	0.82351	0.6713	79.12	-0.2448	0.0775	0.3223	1484.055	0.180838	-424.190241	-424.180568	-424.179624	-424.225128	35.608	
C	-0.2800053818	 1.5075041591	 0.1064079217	-0.378622
C	 0.0626411464	 0.0209020813	-0.0659815876	-0.299249
C	 0.9199870034	-0.5014533368	 1.0444136629	 0.439956
C	 2.4019379771	-0.2031527609	 1.3476717738	-0.306543
C	 2.5051252695	-1.6228029508	 2.0135935463	 0.007026
C	 2.9112467023	-1.6966786183	 3.4717359633	-0.091159
O	 4.2672706827	-1.2770370802	 3.5639838564	-0.424653
C	 1.0134223485	-1.8211677804	 1.6953141263	-0.090966
O	 0.2956267705	-0.7454014448	 2.3202207203	-0.294178
H	 0.6250483568	 2.1235133436	 0.1257331512	 0.12023
H	-0.9084304296	 1.8615198571	-0.7159296731	 0.113219
H	-0.8187391774	 1.6720125573	 1.0441300184	 0.134006
H	-0.8570899781	-0.5735380322	-0.1036823596	 0.109031
H	 0.5850058456	-0.1340711139	-1.0185175522	 0.101648
H	 3.0239770493	-0.1120194277	 0.4543526636	 0.104328
H	 2.5806702122	 0.6505566298	 2.0049940613	 0.109962
H	 3.1358270559	-2.2875579168	 1.4157154538	 0.08221
H	 2.2468260301	-1.0493664848	 4.0607964554	 0.1026
H	 2.7878855975	-2.729017476	 3.8401105704	 0.080355
H	 4.5002860967	-1.2209227131	 4.4951168758	 0.286106
H	 0.4652503924	-2.7415625315	 1.5221394416	 0.094694
70.1634	79.4864	130.2754	147.1367	220.1939	235.1046	263.5316	328.8248	344.2859	443.2074	453.9468	582.0349	656.9795	719.4066	781.4701	824.7663	869.3293	908.455	931.8526	953.6196	973.1938	1012.7644	1043.2545	1062.6771	1078.5284	1080.6306	1130.1669	1166.2745	1195.1208	1204.8139	1245.5261	1251.8483	1260.4815	1279.8768	1314.6273	1349.0769	1364.4689	1407.7928	1444.85	1463.5037	1472.404	1485.5935	1498.314	1510.4772	1524.6335	2960.966	3022.7737	3027.4191	3039.267	3067.1961	3069.3622	3072.9664	3108.5809	3117.8615	3126.6912	3170.4344	3830.3885
CCC12CC(CO)C1O2	CC[C@]12C[C@@H](CO)[C@H]1O2	
InChI=1S/C7H12O2/c1-2-7-3-5(4-8)6(7)9-7/h5-6,8H,2-4H2,1H3	InChI=1S/C7H12O2/c1-2-7-3-5(4-8)6(7)9-7/h5-6,8H,2-4H2,1H3/t5-,6+,7-/m0/s1
