18
gdb 16771	4.06698	1.59262	1.48947	2.604	67.48	-0.2431	0.085	0.3281	928.2226	0.154075	-384.921596	-384.91411	-384.913166	-384.953513	28.145	
C	 0.1865643437	 0.9308442915	 0.4889473191	-0.236191
O	 0.0662126676	-0.3496786578	-0.0805740465	-0.234674
C	 0.565804221	-0.4464055949	-1.4022178013	 0.127832
C	 2.1193221237	-0.5557535574	-1.4620675178	-0.267085
C	 2.4039265463	-2.0390383813	-1.5765461687	 0.057741
O	 1.7295799195	-2.8279966361	-0.5899846709	-0.249595
C	 1.1639014116	-2.7530225533	-1.9038466296	 0.050517
C	 0.025492743	-1.7611633203	-2.0171492112	-0.262559
H	 1.2339173606	 1.2425641331	 0.6209874668	 0.102681
H	-0.3216445339	 1.6961413592	-0.1205231329	 0.099323
H	-0.2869718451	 0.8912352714	 1.4730057302	 0.12864
H	 0.2195371505	 0.4274555751	-1.9745107046	 0.062661
H	 2.5148059665	-0.0381038578	-2.3444884689	 0.099131
H	 2.5858075559	-0.1072649124	-0.5802621361	 0.116751
H	 3.3891707696	-2.3957640435	-1.868615419	 0.089503
H	 1.1470409105	-3.6867865514	-2.4610321943	 0.08949
H	-0.873780232	-2.0770975646	-1.4826033204	 0.126146
H	-0.2348475892	-1.6226027597	-3.0728789541	 0.099688
84.7518	123.1439	203.5138	266.2233	324.0501	369.4071	426.1822	458.4144	676.5582	761.4716	801.421	819.9846	863.39	898.3611	942.0899	952.0795	961.9907	1032.5256	1052.6128	1097.1366	1108.0127	1148.2649	1182.8009	1191.5772	1206.9589	1243.5562	1251.4052	1274.0354	1318.5986	1326.5027	1364.4809	1393.801	1446.3499	1461.9595	1472.9221	1478.136	1491.8341	1510.7551	2965.7614	2980.6774	3013.2127	3039.9545	3048.0502	3094.931	3108.3111	3112.7836	3133.3191	3147.0615
COC1CC2OC2C1	CO[C@H]1C[C@H]2O[C@H]2C1	
InChI=1S/C6H10O2/c1-7-4-2-5-6(3-4)8-5/h4-6H,2-3H2,1H3	InChI=1S/C6H10O2/c1-7-4-2-5-6(3-4)8-5/h4-6H,2-3H2,1H3/t4-,5+,6-
