19
gdb 109282	2.78308	1.1511	0.8804	4.4516	78.69	-0.252	0.0076	0.2597	1343.1361	0.159082	-423.077746	-423.068667	-423.067723	-423.113541	32.52	
C	 0.0002558198	 1.576785273	 0.2020937575	-0.376128
C	-0.0130590982	 0.0593320216	-0.0551943082	-0.273256
C	-1.3971873632	-0.5385190277	-0.0897205646	 0.306785
C	-1.964137566	-0.9982538188	-1.2011361616	-0.184732
C	-3.3344337077	-1.5905209482	-1.2406015137	-0.110949
O	-4.131751696	-1.3898331424	-0.0677874844	-0.226061
C	-3.6324683299	-0.9602831848	 1.1115287689	 0.414621
O	-4.372608799	-0.8465492772	 2.050444856	-0.326247
C	-2.1493525795	-0.6362279672	 1.2103834691	-0.453107
H	 1.0269013182	 1.9545736187	 0.2145102987	 0.120038
H	-0.5492442111	 2.1089562799	-0.5803392888	 0.124214
H	-0.4554821248	 1.8318378487	 1.1636656755	 0.124658
H	 0.4906830516	-0.1506627628	-1.0049075838	 0.10522
H	 0.5749636982	-0.4387787346	 0.7283057263	 0.105462
H	-1.4376307159	-0.9755298808	-2.1518723197	 0.094885
H	-3.9145457477	-1.1630583322	-2.0676875749	 0.131229
H	-3.285771412	-2.6745174988	-1.4217289001	 0.127254
H	-1.6991212363	-1.4091208903	 1.8506531158	 0.148091
H	-2.0812153805	 0.2863494937	 1.7959814921	 0.148024
17.1461	63.9675	111.0996	168.9796	206.1224	296.0782	336.4224	430.7839	474.0374	496.2925	552.0383	602.5978	716.4046	785.3623	808.0082	832.6024	917.4518	953.8164	975.2598	986.057	1032.7943	1073.8175	1096.9496	1128.0724	1182.3126	1208.6071	1240.4981	1259.6122	1276.7424	1323.5118	1355.3491	1390.4019	1409.9516	1431.1526	1450.1202	1480.895	1499.6715	1506.556	1506.7781	1764.1121	1841.7063	2998.1605	3010.8407	3014.3143	3041.1709	3043.5385	3065.7523	3075.4259	3112.0821	3114.7365	3162.9165
CCC1=CCOC(=O)C1	CCC1=CCOC(=O)C1	
InChI=1S/C7H10O2/c1-2-6-3-4-9-7(8)5-6/h3H,2,4-5H2,1H3	InChI=1S/C7H10O2/c1-2-6-3-4-9-7(8)5-6/h3H,2,4-5H2,1H3
