18
gdb 103481	2.47199	1.4879	1.12893	1.5315	67.57	-0.2041	0.0592	0.2634	1105.4076	0.146915	-476.150522	-476.141703	-476.140759	-476.183605	34.198	
O	-0.1125071892	 1.3918273003	-0.0932798855	-0.426632
C	 0.02085347	-0.0132913089	 0.1564777479	-0.166429
C	-1.3372732289	-0.6614718494	 0.0488286846	 0.330974
O	-2.3029900538	-0.0184957972	 0.8465977308	-0.499597
C	-1.9124055641	-1.2222108832	-1.2449057594	-0.208649
N	-0.8162315953	-1.8993667117	-1.9808035174	-0.344351
C	-0.6908919787	-2.9080387057	-0.8644596329	-0.242209
C	-1.6754092514	-2.1212576619	-0.013653233	 0.339967
O	-2.4768364793	-2.7284957397	 0.921796447	-0.46397
H	-0.2563862012	 1.4967103342	-1.0403638133	 0.292889
H	 0.7303114859	-0.4794547992	-0.5341293881	 0.124411
H	 0.4054077357	-0.0949695664	 1.1780430303	 0.116076
H	-2.1045227304	 0.925009111	 0.7729220888	 0.292992
H	-2.7936715692	-0.8110038957	-1.7228166055	 0.099034
H	-1.1823811631	-2.3550656027	-2.8105416344	 0.227284
H	-1.1063806507	-3.884757416	-1.1303144112	 0.119279
H	 0.3289707385	-3.0402150115	-0.4870667316	 0.105975
H	-2.811820705	-2.0252502164	 1.495111243	 0.302959
86.329	151.6761	208.8224	261.0936	284.3939	299.2355	352.5858	388.7872	410.2349	431.0026	484.6849	507.6124	585.5141	698.7103	719.7595	796.7775	829.0778	907.4291	947.8282	966.9254	984.6439	1004.1491	1030.6607	1038.1486	1093.2932	1132.7262	1161.6412	1217.6866	1232.5768	1261.2927	1295.8813	1333.9316	1354.8884	1385.3138	1403.9505	1432.8748	1485.1375	1498.6156	1519.2124	3037.8821	3049.6033	3090.7912	3101.2235	3186.4564	3516.4216	3755.2545	3759.2013	3806.4898
OCC1(O)C2NCC12O	OC[C@@]1(O)[C@H]2NC[C@@]12O	
InChI=1S/C5H9NO3/c7-2-5(9)3-4(5,8)1-6-3/h3,6-9H,1-2H2	InChI=1S/C5H9NO3/c7-2-5(9)3-4(5,8)1-6-3/h3,6-9H,1-2H2/t3-,4-,5+/m0/s1
