22
gdb 22051	2.6942	1.00525	0.94271	1.7427	81.87	-0.2492	0.0058	0.2549	1404.2337	0.189869	-441.458084	-441.446757	-441.445813	-441.494425	41.455	
C	 0.0581524331	 1.4960066948	 0.2448790109	-0.3951
C	-0.0172525621	-0.014284359	 0.0049145889	-0.182158
C	 0.6877530086	-0.4773644961	-1.2987715088	 0.289488
C	 0.0508591396	 0.1399429714	-2.5578178763	-0.414789
O	 2.0399919924	-0.0500349339	-1.2572136899	-0.475484
C	 0.614352079	-2.0026589423	-1.3748988788	 0.335162
C	-0.6972530593	-2.7265557733	-1.4967126752	-0.482642
N	 1.739375797	-2.6013277549	-1.3129591677	-0.196544
O	 1.6195433519	-3.9947361776	-1.370697302	-0.405078
H	 1.0955029214	 1.8357627877	 0.1955623416	 0.1396
H	-0.5217443948	 2.0586962176	-0.4932085383	 0.112805
H	-0.3400659823	 1.7453936696	 1.2331889848	 0.107575
H	 0.4720174559	-0.536569521	 0.8355472374	 0.099488
H	-1.0641561387	-0.3404360161	-0.0020554892	 0.087811
H	 0.2040201585	 1.2211694514	-2.5462923109	 0.132572
H	 0.5360639573	-0.2582549524	-3.4530363541	 0.121336
H	-1.0235657252	-0.0558488618	-2.6213817757	 0.10741
H	 2.5759279594	-0.8530910842	-1.1801038499	 0.28233
H	-0.705473686	-3.335604185	-2.4064194908	 0.150101
H	-0.8219725058	-3.4200987845	-0.6589900127	 0.150688
H	-1.5455410213	-2.0431659664	-1.5207342785	 0.127402
H	 2.5366394413	-4.2846651241	-1.3192717948	 0.308026
54.4872	74.1981	94.0083	164.4778	213.7081	232.931	272.7064	274.939	303.4846	330.367	348.1582	358.4081	389.6953	414.8888	466.7996	496.3798	597.2059	638.0564	740.8938	787.9846	865.9581	935.7958	977.4772	1003.5025	1011.2034	1037.4425	1057.0638	1072.1562	1130.1505	1181.9545	1193.0448	1260.9996	1317.055	1351.553	1391.4136	1399.346	1405.2221	1408.392	1426.8191	1471.448	1475.569	1480.036	1491.8707	1498.1888	1507.3902	1511.486	1729.3949	3028.6277	3042.655	3046.861	3049.38	3067.1525	3101.5975	3104.6495	3119.5161	3129.103	3132.6494	3154.2459	3702.1157	3818.7033
CCC(C)(O)C(C)=NO	CC[C@@](C)(O)C(=NO)C	
InChI=1S/C6H13NO2/c1-4-6(3,8)5(2)7-9/h8-9H,4H2,1-3H3	InChI=1S/C6H13NO2/c1-4-6(3,8)5(2)7-9/h8-9H,4H2,1-3H3/t6-/m1/s1
