16
gdb 40487	3.89524	1.33455	1.20684	0.7167	68.38	-0.2418	0.0502	0.292	1030.7439	0.12414	-437.733885	-437.726924	-437.72598	-437.765669	27.011	
C	-0.4227669472	 1.0975927813	-0.4625559054	-0.179255
O	 0.5697225875	 1.5393478673	 0.4687500984	-0.240312
C	 0.4026400033	 0.1293310657	 0.2703728983	-0.11384
C	-0.1423307389	-0.6118461528	 1.4318958553	 0.351609
N	-1.3231402348	-0.15487619	 2.2324853631	-0.386195
C	-0.9223745913	-1.4295413285	 2.9141734766	-0.080828
C	-0.5623255946	-2.1134998725	 1.5636755336	 0.056155
O	 0.7482907427	-2.5741620092	 1.9958294794	-0.330052
C	 0.6098579656	-1.2780109369	 2.6460040102	 0.026422
H	-1.4532807567	 1.2497264529	-0.1499949583	 0.134426
H	-0.2036784798	 1.3014425781	-1.5093565324	 0.118925
H	 1.2289386306	-0.3623481239	-0.2430423462	 0.108685
H	-1.0609691328	 0.6533361416	 2.8013078098	 0.223043
H	-1.4391418429	-1.845033543	 3.7785752229	 0.09779
H	-1.1596906944	-2.7393565877	 0.9027017131	 0.108655
H	 1.4212253638	-0.9088723822	 3.2745920815	 0.104773
85.1527	149.4459	184.5321	309.2059	420.7671	514.4908	593.7419	652.0176	759.9556	788.8775	829.1834	829.8941	851.4991	889.0483	897.2796	905.4178	948.4748	972.8587	1028.3847	1054.7057	1101.3438	1103.7251	1113.156	1157.7864	1160.925	1169.4918	1173.5627	1191.907	1255.2121	1265.3316	1283.2054	1319.7876	1339.851	1458.166	1522.7296	3093.513	3114.899	3116.534	3128.8217	3143.8939	3189.6393	3422.8384
C1OC1C12NC3C1OC23	C1O[C@H]1[C@@]12N[C@H]3[C@@H]1O[C@@H]23	
InChI=1S/C6H7NO2/c1-2(8-1)6-4-3(7-6)5(6)9-4/h2-5,7H,1H2	InChI=1S/C6H7NO2/c1-2(8-1)6-4-3(7-6)5(6)9-4/h2-5,7H,1H2/t2-,3-,4-,5+,6+/m1/s1
