17
gdb 105926	3.37603	1.6648	1.44364	0.7588	70.12	-0.2296	0.0793	0.309	938.0013	0.135827	-421.721089	-421.714038	-421.713094	-421.752742	27.826	
C	-0.0105848682	 1.2909768529	 0.238817695	-0.259619
O	-0.110514227	-0.0458084332	-0.2380863925	-0.29021
C	-1.3664909702	-0.5718874012	-0.13053347	 0.457297
C	-2.0175740096	-1.0244331356	 1.1911826004	-0.184604
C	-1.7529863176	-2.0089678178	 0.0591796226	-0.205302
C	-3.1627675338	-1.6290049057	-0.4887275619	-0.093489
C	-3.4957436192	-0.7937705372	 0.7925870548	 0.076564
O	-3.5658426476	 0.4465024569	 0.0444656975	-0.29646
C	-2.6746744254	-0.1981514009	-0.8933404815	-0.023537
H	 1.0297888221	 1.5946749071	 0.107189214	 0.128162
H	-0.6594250606	 1.9709267549	-0.3280379652	 0.124392
H	-0.281645052	 1.3549323511	 1.3006839736	 0.116739
H	-1.5155698209	-0.9279064269	 2.1440273998	 0.095056
H	-1.1716140029	-2.9184098455	 0.036255023	 0.102174
H	-3.8574667485	-2.2406352789	-1.0579552569	 0.084249
H	-4.3154144736	-0.9359685678	 1.4954466328	 0.082777
H	-2.653076405	 0.2450914476	-1.8878965957	 0.085808
90.7855	151.1519	164.9933	356.0158	397.8534	528.1805	569.0776	654.6752	736.6785	772.1874	806.0424	819.6524	832.1822	854.3941	878.2281	892.3464	920.4572	954.9842	975.5668	1002.5939	1046.1419	1064.5549	1095.7062	1116.6114	1148.6335	1167.0122	1179.2856	1187.5513	1216.7518	1219.5924	1257.4591	1290.8338	1307.7794	1415.1324	1484.4517	1495.4644	1503.8117	3006.26	3064.4107	3129.2002	3129.6269	3134.5035	3157.2624	3212.9821	3231.9074
COC12C3C1C1C3OC21	CO[C@]12[C@@H]3[C@H]1[C@H]1[C@@H]3O[C@@H]21	
InChI=1S/C7H8O2/c1-8-7-3-2-5(4(3)7)9-6(2)7/h2-6H,1H3	InChI=1S/C7H8O2/c1-8-7-3-2-5(4(3)7)9-6(2)7/h2-6H,1H3/t2-,3+,4+,5-,6+,7-/m0/s1
