18
gdb 22749	2.29532	1.48256	1.16454	1.7656	75.89	-0.249	-0.0042	0.2448	1129.0041	0.144762	-439.001539	-438.992492	-438.991547	-439.034812	34.182	
C	-0.0315857574	 1.561060358	-0.0820071715	-0.442778
C	 0.01713405	 0.0387007111	 0.007698946	 0.172349
C	-1.3462022118	-0.5808812617	 0.3265107229	-0.43823
C	 0.7328706839	-0.6858939891	-1.1726894592	 0.009237
O	 2.066941552	-0.2001742396	-1.2416261632	-0.241212
C	 1.7770379312	-1.2482875718	-0.2861724644	-0.096929
C	 1.1324645549	-0.5684830078	 0.8866986672	 0.406846
N	 1.2669228303	-0.5499779978	 2.1436080369	-0.264381
O	 2.3440268599	-1.3537098862	 2.5602161995	-0.393285
H	 0.9410092536	 1.9589686602	-0.3795152727	 0.137423
H	-0.7807966473	 1.8828425308	-0.8140124577	 0.111711
H	-0.2995031016	 1.9920272811	 0.8876312851	 0.127544
H	-2.0844218969	-0.2926908987	-0.4302225296	 0.115541
H	-1.2946739728	-1.6741615896	 0.3550997248	 0.118208
H	-1.7023710923	-0.2367786063	 1.3014618148	 0.135859
H	 0.2922610077	-1.1008936062	-2.0722625115	 0.109929
H	 2.364024828	-2.1544977537	-0.3426906659	 0.124114
H	 2.3257071286	-1.2375953828	 3.5162996186	 0.308053
110.187	165.325	177.2373	221.0901	248.2244	264.9945	300.4953	317.9899	334.8056	417.726	531.9285	558.89	625.0146	690.4825	794.716	828.1106	848.9844	853.8101	954.6707	961.1796	969.0397	982.1244	1024.723	1037.5973	1111.9826	1184.4831	1205.9385	1216.8198	1237.911	1296.1612	1347.0223	1396.8136	1403.1618	1420.7402	1482.5292	1485.6227	1500.8745	1509.462	1788.8361	3030.3296	3035.9889	3097.6976	3102.0727	3115.2183	3130.0577	3184.3119	3222.1496	3817.5826
CC1(C)C2OC2C1=NO	CC1(C)[C@H]2O[C@H]2C1=NO	
InChI=1S/C6H9NO2/c1-6(2)4(7-8)3-5(6)9-3/h3,5,8H,1-2H3	InChI=1S/C6H9NO2/c1-6(2)4(7-8)3-5(6)9-3/h3,5,8H,1-2H3/t3-,5-/m0/s1
