19
gdb 63076	3.17284	1.40725	1.34219	0.2791	74.23	-0.2275	0.0794	0.3069	1040.0297	0.159036	-422.97956	-422.971647	-422.970702	-423.01138	32.17	
C	-0.0854985743	 1.5999345241	-0.0263661209	-0.468681
C	 0.0237026537	 0.0936215905	 0.0440659602	 0.33575
O	-1.1373962013	-0.5792183173	-0.3940475887	-0.458974
C	 1.2983440881	-0.6591313258	-0.2713792755	 0.003094
O	 2.5257404715	 0.0268838262	-0.1478359671	-0.263245
C	 2.9309852365	 0.0737949275	 1.2057551365	 0.099873
C	 2.30254554	 1.0941887439	 2.1171844301	-0.334069
C	 1.7653031594	-0.3253409041	 2.0739869672	-0.077997
C	 0.6860445976	-0.7646876425	 1.1127830537	-0.117606
H	 0.8946641598	 2.0730399148	-0.094186872	 0.142919
H	-0.6341972722	 1.8641244178	-0.9383692725	 0.103383
H	-0.6359915414	 2.0185490951	 0.821461386	 0.127362
H	-1.2545980991	-0.3786535757	-1.3302648787	 0.279667
H	 1.2976592976	-1.4542325837	-1.012218214	 0.095311
H	 3.9552188315	-0.2509984158	 1.3587456919	 0.098299
H	 2.874192317	 1.3534247069	 3.0032987714	 0.112052
H	 1.7303194035	 1.9126909277	 1.7078059653	 0.12343
H	 1.8988393544	-0.9483396621	 2.9501972917	 0.094342
H	 0.1106934476	-1.6397092873	 1.3885441555	 0.10509
150.8956	178.5627	251.3819	276.3385	287.2174	359.8398	402.5987	419.6006	493.819	562.109	670.0244	705.0381	746.1659	782.1345	794.7479	858.1311	873.4634	925.7412	970.7191	974.8823	1017.7979	1025.3333	1044.9015	1057.7389	1083.8253	1092.5785	1100.1711	1107.9994	1145.2738	1193.445	1208.3421	1276.1564	1290.7258	1318.4709	1339.7049	1377.2589	1413.4756	1421.6208	1473.0822	1497.1933	1513.1463	3032.0193	3091.4232	3141.7557	3142.1284	3146.4284	3158.5384	3177.9869	3194.0033	3262.5463	3780.2538
CC1(O)C2OC3CC3C12	C[C@@]1(O)[C@H]2O[C@H]3C[C@H]3[C@@H]12	
InChI=1S/C7H10O2/c1-7(8)5-3-2-4(3)9-6(5)7/h3-6,8H,2H2,1H3	InChI=1S/C7H10O2/c1-7(8)5-3-2-4(3)9-6(5)7/h3-6,8H,2H2,1H3/t3-,4+,5-,6+,7+/m1/s1
