22
gdb 116709	4.14658	0.63349	0.57971	2.79	91.57	-0.2256	0.0224	0.248	2005.3766	0.191765	-404.333301	-404.322597	-404.321653	-404.370479	37.439	
C	-0.1242602347	 1.62945722	-0.5332556776	-0.371589
C	-0.0503599212	 0.3142243557	 0.2505502879	-0.19086
C	-1.3564505586	-0.4518144026	 0.2263682934	-0.008919
C	-1.7087572002	-1.3454783238	-0.9354211195	-0.310298
C	-1.3997131581	-1.9566531194	 0.4163109572	 0.036835
N	-0.1715758952	-2.6566350956	 0.5532348039	-0.211361
C	-0.1439971932	-3.6718552006	 1.2966588607	 0.120027
O	 0.9999944016	-4.3675604408	 1.4645386579	-0.19675
C	 0.9045732415	-5.5060582626	 2.3095535674	-0.248051
H	 0.8285779927	 2.1670905898	-0.4951464872	 0.107714
H	-0.3664620471	 1.4474342346	-1.5857404042	 0.115166
H	-0.8966772903	 2.2929420685	-0.1276645792	 0.107361
H	 0.7437898659	-0.3221753156	-0.1505276439	 0.119381
H	 0.2263166157	 0.52342478	 1.2924293608	 0.090368
H	-2.1936239911	 0.0777894808	 0.6771383305	 0.077532
H	-2.7318339708	-1.3804941973	-1.2936719122	 0.105942
H	-0.9523672585	-1.4876799588	-1.6998513216	 0.120461
H	-2.2508028601	-2.3470615631	 0.9805616129	 0.067624
H	-1.0080314716	-4.0688347318	 1.8519588941	 0.07246
H	 1.903306268	-5.9422172272	 2.3522339494	 0.145569
H	 0.5909641494	-5.2305792645	 3.3242625722	 0.125486
H	 0.2061582359	-6.2500480958	 1.9065094871	 0.125903
41.7811	64.998	75.3854	118.965	153.7221	196.9774	205.29	241.036	284.3095	349.8015	409.817	461.8235	535.3257	630.1277	760.5834	792.7807	836.2704	874.043	947.8327	963.3187	982.2489	1013.1321	1050.016	1059.3975	1065.0948	1109.3071	1133.93	1162.6084	1177.4893	1193.1636	1200.5543	1240.2345	1273.7814	1289.8402	1340.9222	1374.3277	1406.9526	1415.776	1432.3478	1479.349	1487.6457	1493.2085	1494.0203	1496.8323	1501.8929	1508.3882	1770.063	2990.8071	3012.9115	3022.1016	3027.8079	3053.1324	3072.0824	3078.6001	3099.3533	3101.4208	3124.0729	3131.882	3143.3199	3220.926
CCC1CC1N=COC	CC[C@H]1C[C@H]1N=COC	
InChI=1S/C7H13NO/c1-3-6-4-7(6)8-5-9-2/h5-7H,3-4H2,1-2H3	InChI=1S/C7H13NO/c1-3-6-4-7(6)8-5-9-2/h5-7H,3-4H2,1-2H3/t6-,7+/m0/s1
