17
gdb 46599	2.80218	1.78328	1.42658	4.4527	71.16	-0.2472	0.0058	0.253	945.8501	0.138097	-421.827498	-421.820529	-421.819585	-421.858755	27.744	
O	-0.0698404613	-0.0165621613	 0.1805394834	-0.341761
C	-0.0095351283	 1.1692816295	 0.0355651796	 0.388515
O	-1.1503432454	 1.9453666587	-0.0739285254	-0.23839
C	-0.8736628985	 3.256785475	-0.6242533719	-0.155344
C	 0.6265017646	 3.4307066564	-0.5326083288	 0.205647
C	 1.239560393	 3.2695257704	 0.8168524615	-0.35728
C	 1.1697555345	 2.0676794328	-0.093282528	 0.09773
C	 2.2549589147	 2.1037926525	-1.1846562547	-0.291988
C	 1.6800791843	 3.4853538577	-1.6594556369	-0.283819
H	-1.2210777159	 3.278111994	-1.6637012696	 0.118522
H	-1.4558121173	 3.9793155297	-0.0449622725	 0.123823
H	 2.219933053	 3.6902181488	 1.0187314901	 0.126147
H	 0.561880013	 3.2739001094	 1.6635514026	 0.139868
H	 3.2855533946	 2.0960009052	-0.820653277	 0.112996
H	 2.1406224018	 1.3123075715	-1.9264982464	 0.129241
H	 1.2299316829	 3.4282325052	-2.6530709198	 0.115811
H	 2.3596035604	 4.3416935143	-1.6332608162	 0.110281
132.7286	181.4284	235.6763	316.1934	379.9797	432.8174	582.6934	619.1384	652.3094	717.6931	759.6672	770.5185	795.522	847.3767	925.6367	937.2949	954.1943	970.5027	989.2453	1014.4223	1028.3008	1084.1137	1111.4962	1164.0902	1206.8237	1228.8399	1246.2916	1258.5655	1288.878	1329.837	1373.3413	1389.8444	1478.1612	1480.5779	1499.6349	1517.6062	1874.907	3037.0644	3057.8441	3068.6058	3087.1172	3109.8566	3127.8554	3133.2306	3219.6188
O=C1OCC23CC12CC3	O=C1OC[C@@]23C[C@@]12CC3	
InChI=1S/C7H8O2/c8-5-7-2-1-6(7,3-7)4-9-5/h1-4H2	InChI=1S/C7H8O2/c8-5-7-2-1-6(7,3-7)4-9-5/h1-4H2/t6-,7+/m1/s1
