17
gdb 126348	2.86998	1.35333	0.93017	4.4719	80.31	-0.2263	-0.0423	0.1839	1234.1022	0.137626	-414.20322	-414.194768	-414.193824	-414.237413	30.714	
C	 0.1239828536	 1.5298293694	 0.0081313257	-0.369159
C	-0.045038393	 0.0119917919	 0.0028458216	-0.292373
C	-1.487400031	-0.4408116707	 0.0133583803	 0.431867
N	-2.4622741061	 0.3998315315	 0.023118197	-0.335025
C	-3.7733903965	-0.1011924091	 0.0321874039	 0.304334
N	-4.7590332142	 0.7178905354	 0.0420920447	-0.505808
C	-3.8933944097	-1.5692086348	 0.0292933688	-0.037222
N	-2.8968857003	-2.3852154536	 0.0194662281	-0.169069
N	-1.6739223214	-1.7991933834	 0.0114980823	-0.281666
H	 1.1867321076	 1.7871225589	-0.0002652434	 0.109946
H	-0.3541611541	 1.9786471952	-0.8648269038	 0.143174
H	-0.3382902642	 1.9708145482	 0.8935621113	 0.143013
H	 0.4427245706	-0.4260457534	-0.8790750039	 0.125088
H	 0.4581395504	-0.433953594	 0.8720404028	 0.124931
H	-5.6393238804	 0.1985976686	 0.047681216	 0.208822
H	-4.8800045802	-2.0264402419	 0.0357552669	 0.12499
H	-0.8992054412	-2.4423741483	 0.0038400217	 0.274158
37.1488	75.5728	165.3138	182.8985	234.8188	396.0982	399.4111	467.9355	518.9003	550.2368	602.6605	606.7926	724.0784	769.7573	810.8673	861.1161	931.9562	940.2	1000.2323	1036.896	1060.107	1106.097	1126.9059	1147.947	1234.2631	1288.6435	1351.0064	1377.7221	1398.0722	1418.1399	1466.6645	1482.9726	1489.2288	1498.7037	1638.6621	1676.095	1692.1956	3013.2296	3040.9556	3057.3734	3130.6149	3141.6593	3162.3093	3452.8922	3645.5966
CCC1=NC(=N)C=NN1	CC[C@H]1N=C([NH])C=NN1	
InChI=1S/C5H8N4/c1-2-5-8-4(6)3-7-9-5/h3H,2H2,1H3,(H2,6,8,9)	InChI=1S/C5H9N4/c1-2-5-8-4(6)3-7-9-5/h3,5-6,9H,2H2,1H3/t5-/m0/s1
