13
gdb 15476	2.89263	2.06902	1.45333	4.2128	58.57	-0.2701	-0.0575	0.2125	841.2332	0.09581	-398.622686	-398.615701	-398.614757	-398.654483	24.763	
O	 0.0065664584	 0.0660079356	-0.3512542807	-0.267147
C	-0.0036377861	 1.2260383711	-0.0690017809	 0.369888
C	-1.2167290996	 2.1133948038	 0.2156592228	-0.178592
O	-0.7068529043	 3.3650022465	 0.6209893565	-0.237341
C	 0.5519863178	 3.5529660958	-0.0137326666	-0.098797
C	 1.2407602579	 2.1723335086	 0.0334865594	-0.272604
C	 1.9515300793	 1.9345939747	 1.2828147174	 0.284094
N	 2.5063977163	 1.7502142546	 2.2799533992	-0.309792
H	-1.8203298001	 2.1836565342	-0.7046130084	 0.133153
H	-1.8419783567	 1.6950987665	 1.0088314168	 0.160161
H	 0.426286435	 3.8599020142	-1.0632839025	 0.11252
H	 1.0878506594	 4.3328852297	 0.5271568263	 0.148659
H	 1.9079360427	 1.9807167649	-0.8104334691	 0.155798
70.5976	140.052	173.0318	273.4003	404.4411	449.3088	505.0787	578.4694	621.6111	717.2011	804.1337	843.6858	950.9514	959.9285	1035.9517	1065.9044	1090.5483	1159.9387	1181.0947	1213.5345	1263.1404	1314.3633	1325.4082	1386.5707	1472.4277	1510.9562	1883.7353	2356.5115	2977.4472	2994.1814	3094.7993	3101.5061	3135.8894
O=C1COCC1C#N	O=C1COC[C@H]1C#N	
InChI=1S/C5H5NO2/c6-1-4-2-8-3-5(4)7/h4H,2-3H2	InChI=1S/C5H5NO2/c6-1-4-2-8-3-5(4)7/h4H,2-3H2/t4-/m1/s1
