16
gdb 123922	3.47731	1.58093	1.12774	5.32	70.38	-0.2301	-0.0258	0.2043	1026.4517	0.127897	-434.044331	-434.037563	-434.036619	-434.075462	26.802	
C	-0.0523618588	 1.5135714579	-0.014941304	-0.207262
C	 1.3427594025	 2.1474364876	 0.1032897917	-0.16789
N	 1.9649589944	 1.7648683136	 1.3725100452	-0.388492
C	 1.8791701488	 0.4384541782	 1.7070794846	 0.360649
N	 2.5676195025	-0.2020384158	 2.6148012257	-0.224152
O	 2.0463133739	-1.4904255833	 2.5978420943	-0.165664
N	 1.0494391601	-1.6166945399	 1.6728636155	-0.174427
C	 0.930197791	-0.4507996096	 1.1093416727	 0.309048
C	 0.0078660445	-0.0294760614	 0.0092926989	-0.328518
H	-0.6672794067	 1.8711732796	 0.8182190995	 0.125244
H	-0.5240348772	 1.8544249878	-0.9406803438	 0.112181
H	 1.9581290607	 1.8489843263	-0.7614705878	 0.106122
H	 1.2584443309	 3.2374457663	 0.0844270418	 0.119163
H	 2.8269590202	 2.2280482709	 1.6180708426	 0.255793
H	-0.9877842667	-0.4614273456	 0.142637487	 0.136459
H	 0.3870831199	-0.4034836625	-0.9500361239	 0.131747
120.8157	221.2379	310.83	363.6549	406.4641	423.8216	504.5009	564.4311	603.0671	680.3143	741.3075	755.1443	860.7535	876.2117	894.5866	927.141	976.4004	1004.3649	1044.0023	1096.3382	1110.3526	1200.6994	1209.2599	1271.0266	1287.9045	1353.9898	1369.1742	1374.3266	1433.2524	1470.0717	1484.1402	1486.8766	1509.6344	1584.8689	1671.7018	2968.0274	3032.0149	3050.2953	3085.8888	3092.3709	3102.9672	3615.8587
C1CNC2=NON=C2C1	C1CNc2nonc2C1	
InChI=1S/C5H7N3O/c1-2-4-5(6-3-1)8-9-7-4/h1-3H2,(H,6,8)	InChI=1S/C5H7N3O/c1-2-4-5(6-3-1)8-9-7-4/h1-3H2,(H,6,8)
