17
gdb 49098	1.95981	1.59357	0.89685	3.3507	88.62	-0.2445	-0.0728	0.1718	1254.9334	0.135179	-384.696235	-384.687628	-384.686683	-384.729705	31.727	
O	-0.0375716002	-0.0861097011	-0.1060429085	-0.269565
C	-0.0128355596	 1.1274634554	-0.1129049705	 0.037443
C	 1.2128887938	 1.9095956265	 0.0483695228	 0.138562
C	 1.275618976	 3.2628118165	 0.0817449612	 0.133098
C	 2.7017986122	 3.7368222827	 0.3061760362	-0.319483
C	 3.5450776826	 2.4664815945	 0.0412887959	-0.224602
C	 2.5709365851	 1.2806189843	 0.2426822814	-0.301161
C	 0.1980005288	 4.1694639774	-0.0263496847	 0.184473
C	-0.6772942557	 4.9941641917	-0.1153602819	-0.385873
H	-0.9388032003	 1.7240797268	-0.2475493611	 0.081742
H	 2.9632325958	 4.578390262	-0.3422826212	 0.123261
H	 2.8039744789	 4.0969674862	 1.3389182271	 0.126819
H	 3.8985230607	 2.4770658144	-0.9943992168	 0.114488
H	 4.4260788354	 2.4072556025	 0.6841254457	 0.107334
H	 2.6427122254	 0.8532838433	 1.2517939359	 0.122953
H	 2.7429492015	 0.4521115775	-0.4497938084	 0.128098
H	-1.4624599406	 5.7051957293	-0.1943963831	 0.202411
116.9918	124.3902	130.8658	157.6446	211.8051	278.3802	404.0518	432.5136	518.198	578.4378	596.1929	627.7788	641.7751	647.3671	755.3758	850.3479	887.328	924.9162	995.511	1015.2527	1020.2491	1064.6322	1148.46	1171.0821	1211.032	1229.4502	1272.9291	1318.7787	1330.7966	1369.884	1415.9912	1477.584	1482.2395	1503.5629	1645.1614	1768.8867	2212.806	2918.4267	3020.8254	3024.0231	3055.4944	3080.6662	3088.5645	3110.2923	3499.6493
O=CC1=C(CCC1)C#C	O=CC1=C(CCC1)C#C	
InChI=1S/C8H8O/c1-2-7-4-3-5-8(7)6-9/h1,6H,3-5H2	InChI=1S/C8H8O/c1-2-7-4-3-5-8(7)6-9/h1,6H,3-5H2
