20
gdb 15152	8.26454	0.6545	0.64097	0.1223	84.7	-0.2387	0.0657	0.3044	1802.0895	0.175627	-311.838557	-311.828883	-311.827938	-311.875251	33.517	
C	 0.0278194817	 1.4811403619	-0.018699359	-0.496838
C	 0.0002823748	 0.0281887812	 0.0763132945	 0.10263
C	-0.01127392	-1.1732782917	 0.158772595	 0.027254
C	-0.0631017902	-2.6285342354	 0.2453968391	-0.347223
C	-1.4020281274	-3.2198248757	-0.2479511483	-0.194335
C	-1.4376831005	-4.7292081005	-0.1532672128	 0.0374
C	-1.8103915915	-5.4041168601	 1.1446462622	-0.255667
C	-2.7503392791	-5.4592607904	-0.0353222605	-0.282382
H	 0.840506533	 1.8242923148	-0.6688564954	 0.144498
H	-0.9096818225	 1.8722293226	-0.4298962726	 0.144467
H	 0.1743143543	 1.9437960713	 0.9638544991	 0.144397
H	 0.758546445	-3.0630986764	-0.3402503948	 0.120758
H	 0.1075584325	-2.9476483901	 1.2818944643	 0.126053
H	-2.2194313231	-2.7923616988	 0.3449268704	 0.101625
H	-1.5714873658	-2.9002411955	-1.2832169807	 0.106161
H	-0.6712019413	-5.2315397031	-0.7397105187	 0.079866
H	-1.2871508597	-6.3098096959	 1.430714947	 0.11001
H	-2.0886986028	-4.7708191217	 1.9812762408	 0.110233
H	-3.6567188348	-4.8642450237	 0.0119734691	 0.110881
H	-2.8671286626	-6.4021298127	-0.5581474686	 0.110211
15.2241	54.139	79.5288	104.4568	200.5105	215.9653	283.6941	355.9516	386.7314	407.7914	501.1732	751.3002	762.2383	783.3744	822.5334	843.5965	921.3475	953.2956	1022.3295	1039.1801	1053.4019	1055.3784	1059.8504	1078.9817	1137.6806	1144.7359	1168.1921	1198.4955	1227.1846	1239.9642	1284.0769	1315.7481	1367.5869	1415.6249	1416.7782	1468.872	1474.6068	1479.6678	1479.99	1492.554	1508.0309	2372.8467	3009.8236	3023.5099	3029.6536	3037.4663	3070.6448	3082.6336	3082.7039	3126.445	3126.7832	3132.6788	3204.6003	3219.8586
CC#CCCC1CC1	CC#CCCC1CC1	
InChI=1S/C8H12/c1-2-3-4-5-8-6-7-8/h8H,4-7H2,1H3	InChI=1S/C8H12/c1-2-3-4-5-8-6-7-8/h8H,4-7H2,1H3
