25
gdb 117676	2.73951	0.9679	0.87835	0.9374	89.7	-0.2433	0.083	0.3262	1521.0923	0.225937	-389.478199	-389.467081	-389.466137	-389.515266	41.229	
C	-0.1128883613	 1.5834419462	-0.1566657134	-0.376124
C	 0.054849376	 0.0720388737	-0.099008505	-0.044286
O	-1.2346366279	-0.4920258249	 0.0389227768	-0.291473
C	-1.3591224454	-1.9216787702	 0.1417768091	 0.351178
C	-0.79724772	-2.6189649242	-1.1103117707	-0.417576
C	-0.6515198716	-2.4347242108	 1.4049124279	-0.440721
C	-2.87249545	-2.1195391543	 0.1689602094	 0.03427
C	-3.5441887929	-3.3887420873	 0.623948288	-0.282422
C	-3.7036969412	-2.117419039	 1.4232022319	-0.281038
H	 0.859560096	 2.0730581469	-0.2676962656	 0.108947
H	-0.7442727275	 1.8656967559	-1.0040375981	 0.122927
H	-0.5868150367	 1.9509451652	 0.7579484486	 0.123417
H	 0.5513465323	-0.2835925594	-1.0145149463	 0.084838
H	 0.7035042123	-0.1992061524	 0.747690437	 0.083291
H	 0.2882794327	-2.5104562466	-1.1903700262	 0.109637
H	-1.0225986264	-3.6886808646	-1.074792168	 0.117542
H	-1.2534223699	-2.2023340534	-2.0134548138	 0.116368
H	-0.9448741324	-1.8460326424	 2.2776501102	 0.124614
H	-0.888480191	-3.4854740637	 1.5939272254	 0.117233
H	 0.4345998358	-2.3674468197	 1.299539275	 0.11551
H	-3.3334857749	-1.6324203051	-0.6858350883	 0.086056
H	-4.3876857619	-3.7536039462	 0.0479783782	 0.108443
H	-2.9356428956	-4.1774458034	 1.0532408764	 0.109131
H	-3.2001769605	-2.062683482	 2.3813024605	 0.110798
H	-4.6585336278	-1.6041029583	 1.3986634611	 0.10944
24.0848	58.5278	96.8372	148.811	233.3726	237.0044	254.0292	268.7816	289.8161	331.3218	344.7075	380.3368	423.6294	498.7771	541.8407	703.6779	782.6512	816.6494	822.7372	830.9168	906.8337	914.9317	943.9337	958.4738	976.2322	1011.3772	1058.4118	1078.3674	1085.7883	1097.8192	1138.9014	1145.7743	1185.3616	1185.9967	1195.5703	1204.2188	1229.3406	1294.5656	1300.1641	1386.9092	1392.4844	1400.635	1416.1466	1425.0637	1466.7739	1480.9722	1482.6427	1494.4238	1497.8529	1503.6717	1508.6203	1512.9267	1532.2774	2978.8328	3006.9151	3039.6751	3042.6589	3049.7515	3109.4156	3114.5625	3116.3171	3116.9703	3120.4742	3125.2517	3132.9178	3139.6089	3145.1724	3208.4535	3225.9673
CCOC(C)(C)C1CC1	CCOC(C)(C)C1CC1	
InChI=1S/C8H16O/c1-4-9-8(2,3)7-5-6-7/h7H,4-6H2,1-3H3	InChI=1S/C8H16O/c1-4-9-8(2,3)7-5-6-7/h7H,4-6H2,1-3H3
