18
gdb 6949	2.61333	2.27485	1.66427	3.3478	73.36	-0.2339	-0.0433	0.1906	869.771	0.153375	-347.852325	-347.844325	-347.843381	-347.88458	30.283	
C	-0.0245117999	 1.5363624507	 0.0209374695	-0.423904
C	-0.0028740639	 0.0001743012	-0.0369028305	 0.188812
C	-1.4352899236	-0.5573191741	-0.0042214831	-0.423906
C	 0.8198198019	-0.5397765373	-1.2349248235	-0.318046
C	 1.9540936513	-1.3115115597	-0.6118808912	-0.048261
C	 1.924116288	-1.3073766529	 0.7258668323	-0.179565
C	 0.7613687458	-0.529688398	 1.2030534681	 0.373678
O	 0.4352219901	-0.3236926684	 2.3506024374	-0.355587
H	 0.9880513107	 1.9512977811	-0.0271927471	 0.114526
H	-0.6006315554	 1.9493956782	-0.813875687	 0.110651
H	-0.4799245418	 1.8680043545	 0.958290176	 0.136951
H	-2.0251279091	-0.1646239991	-0.8392694028	 0.110651
H	-1.4390374425	-1.6506471418	-0.0704917906	 0.114525
H	-1.9240910268	-0.2752527835	 0.9325437568	 0.136951
H	 0.2241672753	-1.1864473726	-1.8917686164	 0.116369
H	 1.2026880593	 0.2658175151	-1.8743458451	 0.116369
H	 2.7048973726	-1.8101238815	-1.2166933054	 0.114271
H	 2.622876608	-1.7862737921	 1.3997600426	 0.115513
51.1952	213.7889	232.3122	257.2114	289.0525	294.3805	337.1342	395.451	506.9833	595.6031	688.6138	689.4278	751.7965	838.8028	871.0733	924.3545	949.4271	963.7232	986.1943	1004.3547	1036.3734	1097.4847	1123.4896	1143.4369	1227.1516	1235.8731	1245.4256	1326.509	1364.1364	1393.1301	1415.0458	1470.1723	1482.2671	1489.2259	1501.1213	1509.9955	1650.5733	1805.3124	3021.3115	3027.8774	3032.1454	3048.7537	3094.9618	3097.6275	3114.515	3118.3285	3184.6703	3226.1578
CC1(C)CC=CC1=O	CC1(C)CC=CC1=O	
InChI=1S/C7H10O/c1-7(2)5-3-4-6(7)8/h3-4H,5H2,1-2H3	InChI=1S/C7H10O/c1-7(2)5-3-4-6(7)8/h3-4H,5H2,1-2H3
