17
gdb 53742	4.72333	0.65529	0.61319	4.5443	81.56	-0.2575	-0.0518	0.2056	1815.0488	0.133589	-421.790776	-421.781159	-421.780214	-421.827872	32.3	
C	-0.0923358614	 1.6160863894	 0.168678262	-0.478315
C	 0.1259285067	 0.1167734367	 0.1387282011	 0.2495
O	 1.224745728	-0.392909227	 0.1848986091	-0.271829
C	-1.0809556999	-0.6854183308	 0.0519342438	 0.04525
C	-2.0845063	-1.3548183558	-0.0167254688	 0.084167
C	-3.2937201766	-2.1521072581	-0.1067528571	-0.038138
C	-4.0019184779	-2.2157573616	-1.4912419452	-0.288215
C	-3.7724561053	-3.7347851355	-1.3744816336	-0.058791
O	-3.061353268	-3.5804505433	-0.1255823446	-0.271458
H	 0.8718293153	 2.1231929208	 0.226444533	 0.144824
H	-0.6328678041	 1.9371381975	-0.7282961398	 0.144965
H	-0.7117454931	 1.888274895	 1.0301648515	 0.147345
H	-3.9667404671	-1.8803255873	 0.7182010117	 0.112293
H	-5.0385034618	-1.8786967569	-1.4931682084	 0.122524
H	-3.4532653822	-1.7250274219	-2.2945760726	 0.129428
H	-4.6791003138	-4.3389604043	-1.252192972	 0.109039
H	-3.1419245788	-4.1869793068	-2.1475842001	 0.117412
24.6083	50.1372	78.0757	104.8069	123.2719	193.5849	245.1272	375.6609	477.2277	514.3653	603.0335	619.5033	670.4538	776.1356	813.5498	893.5486	946.1793	966.0148	1001.6244	1023.9867	1042.5822	1082.6956	1099.3321	1163.0131	1213.7746	1238.3977	1257.4881	1258.0284	1350.6344	1360.7914	1381.7805	1460.604	1468.9125	1489.0422	1530.8089	1769.597	2318.5542	3006.2762	3027.884	3039.1818	3071.6132	3095.3438	3103.4715	3152.068	3155.9861
CC(=O)C#CC1CCO1	CC(=O)C#C[C@H]1CCO1	
InChI=1S/C7H8O2/c1-6(8)2-3-7-4-5-9-7/h7H,4-5H2,1H3	InChI=1S/C7H8O2/c1-6(8)2-3-7-4-5-9-7/h7H,4-5H2,1H3/t7-/m0/s1
