20
gdb 15087	2.68109	1.64008	1.13157	2.4511	71.48	-0.249	0.083	0.332	1113.9651	0.174968	-386.10716	-386.097812	-386.096868	-386.141449	33.113	
C	 0.1711465191	 0.7605000308	 0.9693091551	-0.391274
C	 0.1583571251	-0.5313932336	 0.1512833029	-0.171961
C	 0.6090252318	-0.3337710482	-1.2994774983	 0.08816
O	 1.9529962144	 0.1243726339	-1.2826459528	-0.239743
C	 2.2891037188	 0.9691066905	-2.3609815847	-0.240381
C	 0.4427761708	-1.6255743856	-2.0925596427	 0.063466
C	 1.546936607	-2.2960578894	-2.791418615	-0.171179
O	 1.057737128	-2.7955434154	-1.5475939444	-0.231189
H	 1.1716137252	 1.2003092795	 0.9756535555	 0.131111
H	-0.5219220026	 1.5025739715	 0.555987694	 0.105562
H	-0.1254525205	 0.5709065972	 2.0052294566	 0.112039
H	 0.8195745971	-1.2801481965	 0.5990586056	 0.126171
H	-0.847855797	-0.9682700111	 0.1419398258	 0.094366
H	-0.0303721201	 0.4297979568	-1.7748359651	 0.058811
H	 2.1700525351	 0.4733222128	-3.3356942491	 0.104415
H	 1.6757651359	 1.8831296932	-2.3637697431	 0.108813
H	 3.3384264985	 1.2487268041	-2.2369428571	 0.128139
H	-0.5721393662	-1.7969185735	-2.4582559037	 0.089743
H	 1.3364261188	-2.915405577	-3.6629027996	 0.108847
H	 2.5427894309	-1.8631283099	-2.7468293498	 0.126083
67.1926	107.1688	129.9401	176.7627	181.5678	208.8222	273.2287	295.5222	334.1203	420.9341	517.553	659.3367	760.3394	791.3112	883.686	897.174	939.1434	981.9702	1018.6379	1058.3042	1094.7411	1117.8034	1144.8627	1158.21	1172.243	1177.499	1186.9394	1229.521	1286.105	1299.8409	1320.5422	1387.2345	1391.6132	1407.7024	1423.11	1478.2123	1481.8429	1487.4921	1496.7989	1509.2535	1511.2129	1519.3181	2956.0573	2979.948	3027.0704	3033.7936	3037.2289	3081.4621	3083.8917	3091.6897	3102.6044	3112.3375	3124.4727	3186.7663
CCC(OC)C1CO1	CC[C@@H](OC)[C@H]1CO1	
InChI=1S/C6H12O2/c1-3-5(7-2)6-4-8-6/h5-6H,3-4H2,1-2H3	InChI=1S/C6H12O2/c1-3-5(7-2)6-4-8-6/h5-6H,3-4H2,1-2H3/t5-,6-/m1/s1
