19
gdb 107976	2.80531	1.35989	1.30323	0.6539	75.32	-0.2376	0.0628	0.3004	1109.9355	0.156264	-422.929232	-422.920528	-422.919583	-422.962558	32.982	
C	-0.0568960152	 1.5717721397	-0.0467135823	-0.379831
C	-0.0070691692	 0.0390518655	-0.0796900418	-0.341167
C	 0.7314698502	-0.4911867929	-1.2659459343	 0.40065
O	 0.2641525067	-0.1781963031	-2.6190016066	-0.360538
C	 1.4403101902	-0.993123315	-2.8741864498	-0.005722
C	 2.2469525157	-0.4481606938	-1.6642605221	-0.008075
O	 2.545641895	-1.7605475134	-1.1138198689	-0.355704
C	 1.1993944918	-1.9461121868	-1.6555771652	 0.3652
C	 0.5194055654	-3.2689191662	-1.5461257455	-0.53856
H	 0.949358878	 1.9966385356	 0.0262525347	 0.119339
H	-0.520511828	 1.961967175	-0.9566389628	 0.140405
H	-0.6343778693	 1.9236480415	 0.8126891364	 0.115164
H	 0.4861716266	-0.3534998144	 0.8179894358	 0.119843
H	-1.024257078	-0.3718442035	-0.0902737833	 0.11424
H	 1.7312556549	-1.1963268937	-3.9046079815	 0.099107
H	 2.9955300304	 0.3401090178	-1.5914522964	 0.09982
H	 0.3945298109	-3.5564216189	-0.4976578518	 0.136396
H	-0.4680632755	-3.2102527771	-2.0141405307	 0.141042
H	 1.1004571394	-4.0466106563	-2.0509860538	 0.138392
76.6591	129.4322	176.9471	204.9918	233.6732	251.6108	282.9005	409.7605	529.2392	558.8217	662.9353	704.3315	731.2176	772.5256	785.0513	811.8738	826.8042	864.8595	916.8592	953.6547	974.2062	992.997	1053.8271	1102.3923	1109.2158	1127.2316	1146.9426	1169.7041	1220.7639	1264.8424	1299.6233	1317.228	1354.524	1397.6309	1409.9817	1431.1063	1467.7156	1475.0502	1489.3349	1496.8384	1506.9604	3028.5253	3039.6443	3042.8945	3066.484	3111.5112	3112.3979	3117.7976	3120.9185	3124.2244	3135.4453
CCC12OC3C1OC23C	CC[C@@]12O[C@H]3[C@@H]1O[C@@]23C	
InChI=1S/C7H10O2/c1-3-7-5-4(9-7)6(7,2)8-5/h4-5H,3H2,1-2H3	InChI=1S/C7H10O2/c1-3-7-5-4(9-7)6(7,2)8-5/h4-5H,3H2,1-2H3/t4-,5-,6+,7+/m0/s1
