16
gdb 20560	4.58776	1.46701	1.29292	5.6371	66.18	-0.246	0.0079	0.254	963.9746	0.133026	-376.09971	-376.092183	-376.091239	-376.131776	27.722	
C	-0.1902477023	 1.547676158	 0.050894112	-0.374906
C	-0.0546509128	 0.0274317174	-0.1277586356	-0.094058
N	 0.767947973	-0.2440852478	-1.3189526258	-0.530309
H	 2.6256064881	-0.5355738197	 0.4129099206	 0.282847
H	 0.7034472616	-1.2265804434	-1.5703302371	 0.237968
H	 0.4089720415	 0.2823723484	-2.1095220196	 0.2344
C	 0.6132709937	-0.6071273151	 1.0575961911	 0.372818
C	 0.1761016821	-1.1119208404	 2.2617171309	-0.182038
N	 1.2522510051	-1.5344581723	 2.9845130464	-0.19038
N	 2.3372411534	-1.3246496803	 2.2938559666	-0.119986
N	 1.9564184392	-0.7608822009	 1.1330443166	-0.215392
H	 0.7971368305	 2.0116519837	 0.1290956408	 0.131277
H	-0.7143141225	 1.9882478763	-0.8045318434	 0.113667
H	-0.757476245	 1.7799069227	 0.9551898162	 0.133281
H	-1.0702370212	-0.3936050385	-0.1997210131	 0.083256
H	-0.8291058242	-1.1967445181	 2.6424137834	 0.117553
67.2145	150.2722	201.5264	248.7839	302.9326	356.1008	427.9672	500.6711	650.949	672.6639	722.9381	748.6095	847.1706	874.9932	924.6665	996.6171	1006.9768	1058.39	1065.7261	1078.6023	1124.9681	1138.1692	1216.238	1263.0978	1306.5834	1355.7	1366.3981	1386.626	1406.0635	1456.4745	1490.4604	1496.3352	1600.9493	1655.2227	2966.2569	3037.1526	3109.2052	3132.1692	3266.3842	3491.0144	3572.0207	3650.4547
CC([NH3+])C1=CN=N[N-]1	C[C@@H](N)c1cnn[nH]1	
InChI=1S/C4H7N4/c1-3(5)4-2-6-8-7-4/h2-3H,5H2,1H3/q-1/p+1	InChI=1S/C4H8N4/c1-3(5)4-2-6-8-7-4/h2-3H,5H2,1H3,(H,6,7,8)/t3-/m1/s1
