23
gdb 41399	2.42726	1.82424	1.2717	0.031	88.17	-0.2579	0.0826	0.3404	1092.0354	0.208656	-351.151018	-351.143136	-351.142192	-351.184993	31.929	
C	-0.0947505418	 1.4755942752	-0.1744682142	-0.232113
C	 1.4335405045	 1.584386092	 0.1040695484	-0.32015
C	 1.5324082541	 0.0384605829	 0.1751971867	 0.414477
C	 2.5505946985	-0.7876604363	-0.6527893886	-0.320116
C	 3.0359773517	-1.4952057661	 0.646775084	-0.23212
C	 1.9353765655	-0.7500624926	 1.4572757916	-0.054199
C	 0.6653724484	-1.5412152713	 1.8366846018	-0.221359
C	-0.5026350588	-0.6554190001	 1.3521764918	-0.22138
C	-0.0134364724	-0.0679270379	 0.0111481733	-0.054199
H	-0.7498728095	 1.9964997796	 0.5294556675	 0.093072
H	-0.372737518	 1.7832721574	-1.1855143622	 0.096988
H	 2.0133567222	 2.0385391517	-0.7049293884	 0.095981
H	 1.6986281595	 2.0946045415	 1.0355039395	 0.094013
H	 2.093565423	-1.4487161402	-1.395954462	 0.094018
H	 3.3141419695	-0.1896054313	-1.1589952024	 0.095977
H	 2.9640525295	-2.586437601	 0.655596176	 0.093064
H	 4.0544607783	-1.221564257	 0.9330798712	 0.096989
H	 2.3024365263	-0.1507047198	 2.2963287286	 0.05607
H	 0.6490219698	-2.4961334586	 1.2958149101	 0.092126
H	 0.6050289118	-1.7796422717	 2.903130133	 0.092333
H	-1.4460596007	-1.2036484524	 1.267389263	 0.092334
H	-0.6697243682	 0.1557444668	 2.0724327719	 0.092124
H	-0.3683020032	-0.6570976708	-0.8402724108	 0.056071
9.946	139.4568	217.6158	285.9067	348.331	390.8021	502.4014	541.3711	583.4226	729.3807	742.1536	770.9224	794.3522	803.0974	851.6885	860.4634	915.8646	942.3371	957.463	959.3981	960.5136	971.348	1022.0693	1035.8255	1053.4844	1130.2024	1152.251	1160.4182	1169.724	1193.9465	1204.318	1226.9246	1230.1063	1242.3545	1254.3472	1265.5796	1272.4639	1287.8975	1294.6271	1304.7439	1321.5878	1335.7741	1343.4926	1473.0933	1475.7433	1483.9201	1489.7875	1494.3904	1499.4854	3021.1892	3025.8534	3041.058	3041.8972	3046.8275	3047.0434	3056.5493	3058.1174	3079.7573	3083.8641	3085.1494	3086.5616	3109.3741	3109.522
C1CC23CCC2CCC13	C1C[C@@]23CC[C@@H]2CC[C@@H]13	
InChI=1S/C9H14/c1-2-8-4-6-9(8)5-3-7(1)9/h7-8H,1-6H2	InChI=1S/C9H14/c1-2-8-4-6-9(8)5-3-7(1)9/h7-8H,1-6H2/t7-,8-,9-/m0/s1
