16
gdb 32620	4.66102	0.92353	0.81811	8.0532	79.18	-0.2464	-0.0163	0.2301	1380.9451	0.126182	-396.988413	-396.980174	-396.97923	-397.022141	29.549	
C	-0.0939420534	 1.5578712095	 0.0451992478	-0.374978
C	 0.0675070505	 0.0383923938	-0.0172819505	-0.165454
N	 0.7211190663	-0.5129184924	 1.1660630633	 0.020463
C	 2.0367305996	-0.875261287	 1.2800272889	 0.001898
N	 2.3436112472	-1.2917867809	 2.4826689012	-0.313253
C	 1.1667728591	-1.1940264065	 3.1973807212	 0.17097
C	 0.1544929353	-0.7118282774	 2.3952058014	-0.189875
C	 1.0623754417	-1.558455074	 4.5661492767	 0.216182
N	 0.9495568656	-1.8470392165	 5.6816565586	-0.34347
H	 0.8783199749	 2.0498418156	 0.1366378687	 0.140043
H	-0.580149354	 1.9184169758	-0.8658349428	 0.133229
H	-0.7081766929	 1.8538272352	 0.9001778151	 0.137928
H	-0.9049275081	-0.4509577638	-0.1283787701	 0.136425
H	 0.6726284603	-0.249992724	-0.8812448398	 0.134584
H	 2.7146255972	-0.8159256517	 0.4410343776	 0.140904
H	-0.8846700794	-0.5098274557	 2.5943002826	 0.154404
49.045	99.1278	149.9213	194.9731	228.0257	348.3573	391.6577	522.1597	543.3698	581.7457	654.7831	696.8307	710.9543	779.5554	797.0591	841.4589	964.6955	994.7656	1064.5707	1103.8494	1115.7434	1175.583	1246.7341	1278.6994	1303.946	1387.4465	1408.0121	1414.8487	1420.3128	1485.9763	1491.1656	1505.6896	1529.4832	1564.2348	2351.4686	3047.4172	3059.5717	3099.7922	3124.5751	3130.4372	3249.6493	3279.5936
CCN1C=NC(=C1)C#N	CCn1cnc(c1)C#N	
InChI=1S/C6H7N3/c1-2-9-4-6(3-7)8-5-9/h4-5H,2H2,1H3	InChI=1S/C6H7N3/c1-2-9-4-6(3-7)8-5-9/h4-5H,2H2,1H3
