19
gdb 103796	3.53052	0.93579	0.87724	3.1705	73.32	-0.2527	-0.0313	0.2214	1391.6481	0.155293	-460.160964	-460.150735	-460.149791	-460.196632	36.354	
C	 0.2302709771	 1.2380931884	-0.8139259852	-0.488854
C	 0.0216876608	 0.0677046555	 0.1284916533	 0.372192
O	 0.9148014452	-0.4074923249	 0.7893274274	-0.297527
C	-1.3941951963	-0.453899109	 0.1859597792	-0.111834
O	-1.6060347286	-1.7412709067	 0.7556285344	-0.275464
C	-2.125525885	-0.614161937	 1.4738831754	 0.343879
C	-1.4862689271	-0.3291241273	 2.811738351	-0.47347
C	-3.6443756272	-0.550571705	 1.4329277818	-0.108655
O	-4.2180002653	-1.5327242071	 2.2763493018	-0.412196
H	 1.2419654213	 1.6275211485	-0.6987629132	 0.148988
H	 0.0793733313	 0.9153431044	-1.8509376804	 0.147608
H	-0.5013713172	 2.0305623978	-0.6185043425	 0.140374
H	-1.9912681709	-0.2446041524	-0.7038599939	 0.091869
H	-0.4180469695	-0.5405661531	 2.7832007724	 0.163588
H	-1.6423631166	 0.7175661359	 3.094802302	 0.117787
H	-1.9626294787	-0.9540421865	 3.5721028376	 0.140251
H	-3.994319735	 0.4177205186	 1.8064087574	 0.114079
H	-3.9882812111	-0.6617453693	 0.3941644767	 0.091876
H	-3.9103858072	-2.3886427008	 1.9558085449	 0.295508
59.121	72.4463	126.3111	134.9436	165.7376	213.7915	264.3592	308.5934	337.9878	364.7913	429.5121	443.9782	508.86	615.0478	644.5456	733.3251	830.9925	881.3226	915.9049	942.0752	963.9227	1009.0383	1055.1699	1075.73	1107.3868	1115.352	1196.4001	1203.2151	1270.2605	1325.746	1377.9988	1389.2524	1411.3781	1422.7441	1442.5734	1462.8089	1473.8364	1486.8949	1495.4238	1503.3831	1814.1731	2997.4734	3033.0093	3046.1737	3077.672	3089.7183	3093.1414	3112.1243	3156.9347	3165.9065	3797.4126
CC(=O)C1OC1(C)CO	CC(=O)[C@H]1O[C@]1(C)CO	
InChI=1S/C6H10O3/c1-4(8)5-6(2,3-7)9-5/h5,7H,3H2,1-2H3	InChI=1S/C6H10O3/c1-4(8)5-6(2,3-7)9-5/h5,7H,3H2,1-2H3/t5-,6-/m1/s1
