19
gdb 121554	5.88996	0.42653	0.42355	1.6618	86.95	-0.2477	0.0419	0.2896	2542.8965	0.155783	-385.820934	-385.809919	-385.808975	-385.860074	37.642	
O	-0.0549194868	 1.2714851469	 0.8255819218	-0.421496
C	 0.0035701806	 0.0321120772	 0.1385278777	-0.074176
C	-1.3868465035	-0.5879638391	 0.1783555476	-0.156202
C	-1.4394295537	-1.9449635033	-0.5487870079	-0.357907
C	-2.7624870152	-2.5579712908	-0.5191639194	 0.027471
C	-3.8607760913	-3.0472933616	-0.4792430594	 0.136947
C	-5.1967176582	-3.6458644071	-0.4398168793	-0.492404
C	-5.2630900626	-4.8862863577	 0.3363044983	 0.319659
C	-5.3304102315	-5.9041206555	 0.9694074514	-0.447936
H	 0.8211412119	 1.6673662744	 0.8089042776	 0.286178
H	 0.319985414	 0.1699319756	-0.909137342	 0.084235
H	 0.7298203066	-0.6522224366	 0.6083497392	 0.085123
H	-1.6919533821	-0.7148178506	 1.2220127081	 0.119673
H	-2.0999446484	 0.1057259143	-0.2787537086	 0.117442
H	-1.1202856233	-1.8152552957	-1.5919682161	 0.126601
H	-0.7125769456	-2.6328046743	-0.0956433832	 0.129844
H	-5.9116822987	-2.9226357671	-0.0232614044	 0.159688
H	-5.542980863	-3.8435763176	-1.4639174374	 0.15847
H	-5.384448259	-6.8035663612	 1.5309006158	 0.19879
7.6468	60.6941	75.4186	101.3143	116.9631	219.3261	246.2229	259.6502	296.3751	322.5699	376.8522	399.0078	517.7017	554.2359	620.314	646.4367	755.5733	796.04	865.3151	934.7911	946.0607	1019.2595	1028.5723	1084.9976	1116.7562	1162.9351	1212.6735	1228.8545	1233.5321	1299.2114	1304.7237	1311.5859	1335.6487	1375.8164	1453.6881	1464.9722	1475.3091	1499.3394	1528.3893	2246.5301	2377.8277	2953.1075	2977.9939	3005.5173	3008.4922	3028.8919	3035.7621	3053.7213	3099.6736	3507.5378	3830.8065
OCCCC#CCC#C	OCCCC#CCC#C	
InChI=1S/C8H10O/c1-2-3-4-5-6-7-8-9/h1,9H,3,6-8H2	InChI=1S/C8H10O/c1-2-3-4-5-6-7-8-9/h1,9H,3,6-8H2
