22
gdb 77481	2.02332	1.48659	1.40183	2.0421	83.57	-0.2235	0.0702	0.2937	1147.3204	0.191605	-404.311583	-404.301391	-404.300447	-404.345753	38.351	
C	-0.1199259995	 1.4964909507	-0.0790333069	-0.321195
N	 0.1426785395	 0.0691702245	 0.0693720215	-0.157858
C	 1.4224833847	-0.5582620522	-0.1691645574	 0.28085
C	 1.5449544028	-1.6483366254	-1.1938840797	-0.484791
C	 2.5858868845	 0.3256615845	 0.3253279729	-0.351464
C	 1.9661334855	 0.26042861	 1.7606591609	 0.071555
O	 1.6134677893	 1.4478762378	 2.4422456717	-0.433852
C	 0.7788673411	-0.5478733023	 1.2165204012	 0.268396
C	 0.034645818	-1.5920240711	 1.998636249	-0.494809
H	 0.6626589966	 2.160322641	 0.3021225584	 0.1202
H	-0.283864119	 1.7078023154	-1.1412482948	 0.110023
H	-1.0443377087	 1.7334683757	 0.4567221298	 0.12109
H	 1.6946101713	-1.2288194919	-2.1963938038	 0.119722
H	 2.3986526336	-2.3005207116	-0.9787090226	 0.111962
H	 0.6356224613	-2.25439722	-1.219724773	 0.128322
H	 3.5612143031	-0.164205313	 0.2640621485	 0.096446
H	 2.6609919759	 1.3193965005	-0.1255720749	 0.097145
H	 2.5840871182	-0.3825124428	 2.4041476016	 0.070883
H	 2.4194391723	 1.8557948649	 2.7746762977	 0.283379
H	-0.6237808117	-1.1254462402	 2.7408931852	 0.127578
H	-0.5881492207	-2.1966975691	 1.3343969292	 0.126645
H	 0.7233406919	-2.2539614153	 2.5352636857	 0.109775
122.3331	160.3104	172.5281	174.5396	190.0248	221.937	241.4022	277.4789	289.6896	320.5881	369.8184	449.7838	529.0383	581.9822	613.7087	703.9618	739.9535	754.8954	852.6564	910.2536	926.2135	985.4491	1050.1369	1069.6201	1118.6106	1134.5232	1141.0035	1153.862	1169.3371	1188.6269	1212.889	1216.4815	1239.7927	1259.4727	1328.8174	1401.5831	1406.1794	1418.0931	1446.2072	1464.2509	1479.4907	1481.8904	1490.2486	1491.4122	1495.4361	1505.0702	1516.5132	2990.5555	3023.9618	3025.9667	3028.3138	3054.8477	3081.1612	3085.4969	3093.0508	3099.595	3106.0163	3116.3601	3118.4113	3812.9638
CN1C2(C)CC(O)C12C	CN1[C@@]2(C)C[C@@H](O)[C@@]12C	
InChI=1S/C7H13NO/c1-6-4-5(9)7(6,2)8(6)3/h5,9H,4H2,1-3H3	InChI=1S/C7H13NO/c1-6-4-5(9)7(6,2)8(6)3/h5,9H,4H2,1-3H3/t5-,6+,7-,8?/m1/s1
