18
gdb 88366	2.30614	1.4171	1.1631	5.2328	72.21	-0.2866	0.029	0.3156	1132.4133	0.145817	-439.078745	-439.069446	-439.068501	-439.112468	35.184	
C	 0.1589258573	 1.4426871687	 0.1179571542	-0.397086
C	-0.0580584357	-0.0731180424	 0.0213778769	 0.181025
O	 0.4872937852	-0.6364913455	 1.1965275805	-0.45009
C	-1.5210719009	-0.3510268401	-0.0399154234	 0.263209
N	-2.655039294	-0.5675457773	-0.0934366818	-0.342882
C	 0.5805103445	-0.6322549797	-1.2586774125	-0.039961
C	 2.0347053867	-1.0515564617	-1.2510759038	-0.350401
C	 0.9426767613	-2.0820375678	-1.3895731768	 0.080485
O	 0.6310942457	-2.9227507357	-0.3030251716	-0.422497
H	 1.2328150956	 1.6426482445	 0.1372929097	 0.131852
H	-0.289814204	 1.9589036878	-0.7339979844	 0.129209
H	-0.2895271442	 1.8204251557	 1.0391355479	 0.144109
H	 0.4558382474	-1.5998656535	 1.0812868914	 0.296729
H	 0.1998801278	-0.1609110508	-2.1595368233	 0.110215
H	 2.6566675812	-0.8209943379	-2.1085601993	 0.121304
H	 2.530494971	-1.0067351324	-0.2873581924	 0.135771
H	 0.792629048	-2.5508017619	-2.359911839	 0.108323
H	 1.3377822272	-3.57079463	-0.2088350624	 0.300686
71.2765	136.4215	196.1798	223.3291	233.1931	260.7147	295.7098	357.6444	404.4142	413.5806	488.2399	510.0346	587.1619	620.9654	664.6661	710.2322	802.0543	838.6114	874.9286	936.1166	991.2829	1027.8263	1059.3874	1067.5953	1092.8543	1133.6099	1169.1618	1175.6383	1217.1551	1239.1241	1291.025	1371.1882	1399.2358	1408.3813	1451.9483	1479.9599	1489.1986	1491.597	2349.4979	3055.2967	3124.5278	3137.3187	3137.9299	3142.0313	3160.5415	3230.3603	3681.6746	3805.3008
CC(O)(C#N)C1CC1O	C[C@@](O)(C#N)[C@H]1C[C@H]1O	
InChI=1S/C6H9NO2/c1-6(9,3-7)4-2-5(4)8/h4-5,8-9H,2H2,1H3	InChI=1S/C6H9NO2/c1-6(9,3-7)4-2-5(4)8/h4-5,8-9H,2H2,1H3/t4-,5+,6+/m0/s1
