14
gdb 20243	3.35822	3.33511	2.66907	1.8071	57.55	-0.2057	0.0772	0.2829	600.8141	0.110117	-382.498798	-382.493994	-382.49305	-382.527407	20.748	
O	-0.0145004742	 1.4321293712	-0.0748995922	-0.242015
C	 1.3077429839	 1.8953852304	 0.0401269613	 0.047187
C	 2.0981864193	 1.3563761563	 1.1975892445	 0.047173
O	 1.426777179	 0.4493625379	 2.035873055	-0.242015
C	 0.8188196104	-0.506675283	 1.2036806339	 0.047187
C	 0.0285160823	 0.0322372662	 0.0460779025	 0.047173
C	 1.4455132338	-0.484025159	-0.1876487172	-0.165136
C	 2.2977791561	 0.7573619364	-0.1917922391	-0.165136
H	 1.4393685126	 2.9050818238	-0.3299283777	 0.106876
H	 2.8387056771	 1.9508587102	 1.7191006136	 0.106871
H	 0.5314705744	-1.4089390931	 1.7300873339	 0.106876
H	-0.8675770184	-0.4549156458	-0.3192324485	 0.106871
H	 1.7003896832	-1.3586193704	-0.7687976646	 0.099044
H	 3.2037129906	 0.831119659	-0.7761336455	 0.099044
310.2751	566.2922	595.8468	683.2027	729.9031	729.941	745.5457	746.3193	758.1283	805.0418	811.4121	940.8298	965.3542	972.3607	990.3387	1023.7843	1042.2079	1059.9583	1061.2409	1077.9537	1117.2797	1119.7238	1130.7315	1196.2592	1246.3391	1266.2633	1278.8671	1365.5927	1390.1472	1418.3176	3183.0556	3185.4913	3189.896	3193.8149	3213.5203	3224.525
O1C2C3OC4C1C4C23	O1[C@H]2[C@H]3O[C@H]4[C@@H]1[C@H]4[C@@H]23	
InChI=1S/C6H6O2/c7-3-1-2-5(7)6(2)8-4(1)3/h1-6H	InChI=1S/C6H6O2/c7-3-1-2-5(7)6(2)8-4(1)3/h1-6H/t1-,2+,3+,4-,5-,6+
