18
gdb 120248	3.24815	1.00392	0.85437	2.6279	71.74	-0.2469	-0.0142	0.2327	1353.5186	0.147006	-439.055362	-439.046528	-439.045584	-439.089633	31.993	
O	-0.0375492891	 1.4615846907	 0.0638289585	-0.421868
C	-0.0000812789	 0.0518100074	-0.0906408705	-0.07603
C	-1.4115053485	-0.4716959708	 0.1621227357	-0.209242
C	-1.4915051933	-1.9894560626	 0.0284149732	-0.141177
C	-2.8321317485	-2.7312005543	 0.0614990396	-0.054913
C	-3.6395481893	-2.4789787232	-1.1386924636	-0.245798
N	-2.5255453284	-3.4749288069	-1.24576967	-0.172501
C	-1.3203025984	-2.664999051	-1.3484150292	 0.393458
O	-0.4960550085	-2.6492928163	-2.2088781819	-0.300745
H	 0.8254075933	 1.8124236496	-0.1742237137	 0.288547
H	 0.326433912	-0.240109959	-1.0990178992	 0.118176
H	 0.699208591	-0.4108958367	 0.6260323663	 0.084913
H	-1.7267612213	-0.1719412545	 1.1684825015	 0.114548
H	-2.0932039013	 0.0177023572	-0.5414772261	 0.11113
H	-0.7837037502	-2.4667727875	 0.7184013156	 0.116446
H	-3.2102229177	-3.2875548988	 0.9104963088	 0.114571
H	-4.6142593716	-2.949700677	-1.211981475	 0.14263
H	-3.5507187613	-1.5416484162	-1.6813344299	 0.137856
76.0366	89.9154	104.9436	184.7298	230.9036	257.0647	295.3452	385.5462	492.1583	506.4442	660.5098	719.2756	752.8433	767.2829	836.5512	847.8435	956.9026	987.9895	1007.8197	1033.4753	1050.9287	1080.2482	1093.6769	1118.2788	1135.3142	1155.1512	1195.3096	1220.0594	1248.6052	1258.7026	1312.2326	1320.3092	1363.4043	1371.6412	1465.4806	1493.1931	1509.4583	1531.8786	1908.4175	2961.8358	3018.7908	3035.9957	3040.3935	3085.1246	3121.0816	3193.1117	3212.6812	3833.3599
OCCC1C2CN2C1=O	OCC[C@H]1[C@H]2CN2C1=O	
InChI=1S/C6H9NO2/c8-2-1-4-5-3-7(5)6(4)9/h4-5,8H,1-3H2	InChI=1S/C6H9NO2/c8-2-1-4-5-3-7(5)6(4)9/h4-5,8H,1-3H2/t4-,5+,7?/m0/s1
