22
gdb 85972	2.76723	1.20685	1.01905	1.3566	81.89	-0.2263	0.0734	0.2998	1266.0648	0.19275	-404.301769	-404.292399	-404.291455	-404.335622	36.5	
C	-0.5793164893	 1.4965487575	-0.368335069	-0.426375
C	-0.0040326891	 0.1230379405	-0.0408847601	 0.315838
C	 1.1423880772	-0.3769667111	-0.994433179	-0.327346
C	 1.9862344302	-0.7543823772	 0.252359227	 0.177267
O	 3.360664885	-0.4560006886	 0.2691884344	-0.438071
C	 1.0143706912	 0.0688482342	 1.1394422251	-0.290082
N	-1.1367434108	-0.7730101962	 0.2110163561	-0.09506
C	-1.8354699356	-1.3683740456	-0.9183695031	-0.227236
C	-1.033988686	-2.2116916669	 0.0124862142	-0.235588
H	 0.2170714152	 2.2375905164	-0.4859646678	 0.101607
H	-1.1536473237	 1.4677481203	-1.3011169201	 0.114201
H	-1.2494734842	 1.8268726532	 0.4311221588	 0.125655
H	 0.9222397556	-1.1662998327	-1.7184360413	 0.10022
H	 1.5917985835	 0.4600864241	-1.5390872702	 0.0888
H	 1.9260302328	-1.8231072697	 0.4744276961	 0.090256
H	 3.4628426091	 0.4868446122	 0.1009404315	 0.274092
H	 1.423233224	 1.0582713495	 1.3713887216	 0.087251
H	 0.6547693952	-0.389791666	 2.0629709964	 0.108064
H	-2.9208813203	-1.3568601554	-0.8671653843	 0.115327
H	-1.4266850926	-1.218918618	-1.9168942693	 0.110363
H	-0.1118955695	-2.6352659183	-0.3790666532	 0.114805
H	-1.5228291078	-2.8214442023	 0.7675214663	 0.116013
73.5713	105.0173	202.9854	224.4225	242.0741	288.1455	311.7362	346.0914	388.35	408.425	470.0096	499.0861	568.7187	695.7769	781.7707	802.9252	830.0402	896.4686	915.7356	924.	956.9217	985.5218	997.1971	1029.3541	1064.5648	1078.3708	1107.3521	1112.5076	1121.7431	1154.7492	1166.0633	1189.8688	1207.128	1218.058	1253.3763	1282.2648	1288.5893	1324.9609	1340.4971	1405.9984	1435.1129	1458.7878	1481.4699	1485.6494	1492.2915	1496.001	1521.2775	3030.5279	3043.1996	3048.9667	3071.1828	3091.1047	3096.777	3099.8996	3102.8729	3111.9306	3116.6017	3172.0831	3187.4434	3803.7277
CC1(CC(O)C1)N1CC1	C[C@]1(C[C@@H](O)C1)N1CC1	
InChI=1S/C7H13NO/c1-7(8-2-3-8)4-6(9)5-7/h6,9H,2-5H2,1H3	InChI=1S/C7H13NO/c1-7(8-2-3-8)4-6(9)5-7/h6,9H,2-5H2,1H3/t6-,7-
