19
gdb 42029	3.18477	1.53768	1.10699	1.5821	71.15	-0.2328	0.0843	0.3171	1090.0507	0.162291	-460.155166	-460.147883	-460.146939	-460.187052	28.661	
C	 0.0129275856	 1.3938107943	 0.0692546091	-0.074579
C	 1.4773488932	 1.9186152489	-0.0179675252	-0.324101
C	 2.2228146967	 0.6830374104	 0.4539910702	 0.130447
O	 3.5778402742	 0.5278249278	 0.0973583908	-0.269374
C	 3.9968564271	-0.7571902399	 0.5618632776	-0.093543
C	 3.0893308213	-1.892886201	 0.0593196004	-0.0916
O	 1.70930825	-1.66392408	 0.355318677	-0.257327
C	 1.3801929216	-0.4130355923	-0.1810868012	 0.228813
O	 0.0616714865	-0.0515213643	 0.0964655472	-0.275078
H	-0.4867456742	 1.7248811644	 0.9852043944	 0.117138
H	-0.5885120916	 1.7209684446	-0.7859293676	 0.111464
H	 1.7558289367	 2.1578271021	-1.0487827199	 0.120862
H	 1.6390197842	 2.8052992752	 0.5972622939	 0.114832
H	 2.1074117767	 0.5721020872	 1.5458285976	 0.077476
H	 5.0170267849	-0.9091678264	 0.1982577203	 0.112972
H	 4.0110403836	-0.7625277695	 1.663203561	 0.101576
H	 3.219857859	-2.0098074725	-1.0281614359	 0.103131
H	 3.3624168125	-2.8325734313	 0.5464017729	 0.117411
H	 1.5683135619	-0.4342814578	-1.2760717426	 0.049478
89.9978	173.3141	227.2155	347.4238	367.9806	406.5906	446.9456	517.5035	568.2831	641.1032	675.3319	833.6073	868.0508	902.7818	910.9968	934.6672	988.7046	1044.4808	1066.3257	1116.6132	1120.7541	1142.1943	1157.8304	1161.3302	1176.1065	1204.683	1227.9611	1278.2043	1289.5238	1300.4089	1306.0501	1369.0463	1380.9846	1395.7449	1401.2278	1435.3306	1444.2994	1486.9831	1492.5747	1502.2257	1527.8068	2871.8913	2963.5411	2981.0824	2991.4227	3037.577	3064.3999	3077.6712	3095.5411	3101.1849	3124.0527
C1CC2OCCOC2O1	C1C[C@@H]2OCCO[C@H]2O1	
InChI=1S/C6H10O3/c1-2-8-6-5(1)7-3-4-9-6/h5-6H,1-4H2	InChI=1S/C6H10O3/c1-2-8-6-5(1)7-3-4-9-6/h5-6H,1-4H2/t5-,6+/m0/s1
