16
gdb 43798	2.49114	1.65667	1.1707	3.2	70.51	-0.2431	-0.0453	0.1978	1045.8516	0.12306	-437.830512	-437.822618	-437.821674	-437.863134	29.703	
O	-0.0365922662	 0.2986166614	-0.9259864858	-0.296697
C	-0.0116442721	 1.3051799184	-0.2834852124	 0.340279
C	-1.0812472611	 2.1314405888	 0.4840428762	-0.484975
C	-0.0121980957	 3.2268002014	 0.6678394422	 0.248034
C	-0.1521780412	 4.683909282	 0.469414311	-0.293386
N	 0.2149649792	 4.1264298813	 1.790307762	-0.363283
C	 1.0615539134	 2.3231100466	 0.0891748244	 0.308026
C	 2.4273082575	 2.0774158823	 0.5799236876	-0.249882
O	 2.1789591833	 2.7208430554	-0.6714115914	-0.264281
H	-1.9645547851	 2.3914871346	-0.1046347829	 0.142427
H	-1.3994062272	 1.6413051697	 1.4104417897	 0.139126
H	 0.6423901712	 5.2316263554	-0.0286548027	 0.138174
H	-1.1519615894	 5.0868690057	 0.3297629949	 0.119587
H	-0.5927170475	 4.1306364462	 2.4091200175	 0.237105
H	 2.8021283457	 2.7209968678	 1.3729398282	 0.143553
H	 2.8464955351	 1.0752897831	 0.5143033916	 0.136192
75.4895	170.6375	187.9032	212.7207	270.8737	311.8713	481.7879	512.8649	532.7008	559.1321	629.8046	771.7746	824.0617	853.2861	893.8706	908.7247	949.4558	966.8435	980.746	1017.024	1054.44	1113.3213	1127.5221	1132.6833	1142.6955	1159.2008	1188.1002	1262.463	1266.2536	1389.3702	1425.0789	1455.3689	1509.6312	1516.6901	1900.4453	3053.1044	3093.7214	3110.5798	3112.2565	3195.6182	3201.6165	3495.3959
O=C1CC2(CN2)C11CO1	O=C1C[C@]2(CN2)[C@]21CO2	
InChI=1S/C6H7NO2/c8-4-1-5(2-7-5)6(4)3-9-6/h7H,1-3H2	InChI=1S/C6H7NO2/c8-4-1-5(2-7-5)6(4)3-9-6/h7H,1-3H2/t5-,6+/m0/s1
