16
gdb 33939	3.33248	1.45378	1.28045	1.0083	74.79	-0.2333	0.0256	0.2589	1007.3896	0.124173	-400.666587	-400.659349	-400.658405	-400.698013	29.056	
C	 0.1076735707	-1.1683268078	 0.086481417	-0.36188
C	 0.070208595	 0.032070671	 0.03040255	 0.18702
C	-0.0274501754	 1.4622704097	-0.0196391893	 0.124878
C	 0.2628152159	 2.2605619221	-1.2534532439	-0.268449
N	 1.2192326202	 2.2820394271	-0.1486685223	-0.143222
C	 1.1184996726	 3.4145498822	 0.8000302982	-0.201568
C	-0.2249312448	 3.3298484499	 1.5057131062	 0.036491
O	-1.3545544363	 3.4541553897	 0.6292089034	-0.248711
C	-0.9268507142	 2.1416029626	 1.0013385153	-0.042204
H	 0.1572179922	-2.2281741403	 0.1289413107	 0.191598
H	 0.6180725455	 1.7413431621	-2.1389527498	 0.12425
H	-0.3705240827	 3.1249793242	-1.4253069932	 0.139066
H	 1.9242472185	 3.3122152245	 1.5355578339	 0.121249
H	 1.256500403	 4.3661009907	 0.2762998523	 0.125635
H	-0.3583765338	 3.7359162562	 2.5061630689	 0.10618
H	-1.6289835664	 1.5464138161	 1.5758349727	 0.109668
134.6856	147.8667	277.0921	317.0052	412.538	476.4724	498.3275	515.9962	587.5614	608.873	660.8743	723.8446	746.4515	803.3921	808.271	867.2065	910.4431	933.4588	953.5863	979.0175	1050.9577	1075.2127	1111.5185	1138.7342	1161.5975	1209.2009	1234.6414	1259.3205	1297.9337	1336.0012	1348.4707	1425.282	1480.8001	1495.0156	2240.4689	3042.7889	3087.4624	3115.6589	3138.2742	3177.1441	3213.6366	3502.3933
C#CC12CN1CC1OC21	C#C[C@]12CN1C[C@H]1O[C@@H]21	
InChI=1S/C7H7NO/c1-2-7-4-8(7)3-5-6(7)9-5/h1,5-6H,3-4H2	InChI=1S/C7H7NO/c1-2-7-4-8(7)3-5-6(7)9-5/h1,5-6H,3-4H2/t5-,6-,7-,8?/m1/s1
