19
gdb 90897	2.39446	1.99566	1.45483	1.0485	73.52	-0.2291	0.0628	0.292	964.2931	0.159351	-422.995506	-422.987721	-422.986777	-423.027164	31.578	
C	-0.1208856576	 1.5625529673	-0.0467109483	-0.426407
C	 0.0422622934	 0.0548830353	 0.01433044	 0.10455
O	 0.8390618702	-0.3980546775	-1.0907818905	-0.282839
C	 1.530605366	-1.5509658385	-0.6495397641	 0.107306
C	 2.5815942314	-1.4020434029	 0.4327376315	-0.099286
C	 2.3006892821	-0.1232647923	 1.2210936739	-0.303027
C	 0.7827690893	-0.5241442903	 1.2369621376	 0.361788
O	 0.0893762202	-0.4744932892	 2.4490424817	-0.495721
C	 1.1797103302	-1.9402458953	 0.7420803741	-0.1696
H	 0.8433052056	 2.0746898663	 0.0135274695	 0.125089
H	-0.6023560356	 1.8547832578	-0.9838718764	 0.133659
H	-0.7586569176	 1.9074653855	 0.7750456458	 0.108163
H	-0.9513540868	-0.4225284404	-0.0276173655	 0.070317
H	 1.6859028237	-2.2877305209	-1.4283200217	 0.10222
H	 3.5221594936	-1.9400553229	 0.3971723162	 0.084842
H	 2.6997686294	-0.1853534476	 2.2365008173	 0.1072
H	 2.5839375227	 0.8312726185	 0.7662924217	 0.09511
H	 0.020668614	 0.4474545205	 2.7205650403	 0.281291
H	 0.8184677557	-2.8912122835	 1.1088297069	 0.095344
158.4252	210.4413	227.9939	238.6324	293.269	370.0186	403.6602	486.9645	525.1594	580.5096	630.4867	718.4951	756.9526	786.4587	837.6743	866.7723	923.0598	930.822	958.7846	996.345	1004.8744	1034.9326	1057.6394	1063.0673	1105.2897	1125.7031	1136.4688	1147.3256	1201.0441	1213.5634	1250.2167	1256.0082	1307.5491	1345.0337	1368.2156	1384.2095	1402.7702	1412.4391	1482.1478	1487.101	1500.8114	2960.8749	3037.3592	3047.4023	3105.8094	3109.5067	3123.0589	3171.543	3190.9597	3210.734	3802.2367
CC1OC2C3CC1(O)C23	C[C@H]1O[C@H]2[C@H]3C[C@]1(O)[C@@H]23	
InChI=1S/C7H10O2/c1-3-7(8)2-4-5(7)6(4)9-3/h3-6,8H,2H2,1H3	InChI=1S/C7H10O2/c1-3-7(8)2-4-5(7)6(4)9-3/h3-6,8H,2H2,1H3/t3-,4+,5-,6+,7-/m1/s1
