16
gdb 48887	3.31732	1.56624	1.33292	2.0959	67.47	-0.223	-0.0403	0.1828	954.6699	0.125297	-437.836735	-437.829699	-437.828755	-437.868665	27.129	
O	-0.7165579606	 0.9598015844	 0.5831108623	-0.254701
C	 0.2536158913	 0.8904657908	-0.1283010232	 0.077419
C	 1.4096365866	 1.8544677155	-0.067765572	 0.19851
C	 1.6796956825	 2.5523276139	 1.2648288622	-0.122942
O	 2.6599605475	 3.5484019583	 0.9378680648	-0.271725
C	 2.5648340362	 3.7805452659	-0.4484065652	 0.099345
C	 2.8558092061	 2.6129970751	-1.3837863633	-0.048626
N	 2.6796967077	 1.3406005874	-0.6793666888	-0.36082
C	 1.4316116257	 3.042696036	-1.0837252777	-0.199286
H	 0.3690795522	 0.105557227	-0.9061936505	 0.096131
H	 0.7654031767	 3.0071051831	 1.6676871191	 0.120982
H	 2.106463497	 1.8819105619	 2.0180781977	 0.115765
H	 2.8200814878	 4.7903023882	-0.7471909436	 0.112974
H	 3.4353006538	 2.6849174698	-2.2976854845	 0.101116
H	 3.4054206446	 1.1645900351	 0.0161344154	 0.223661
H	 0.6218810746	 3.4195518876	-1.6916384827	 0.112198
56.4916	183.473	227.1143	283.3308	398.2412	453.5876	555.6668	639.2229	719.3535	736.6247	768.5696	797.8357	831.7051	867.9148	945.4456	977.9985	992.225	997.8009	1037.128	1058.567	1072.3236	1092.8911	1114.8266	1128.5141	1164.845	1195.3185	1228.1181	1250.4707	1300.8763	1355.9752	1392.8039	1393.9402	1402.4513	1512.4896	1821.6934	2910.766	3022.6403	3081.806	3170.9365	3193.385	3220.4046	3443.2054
O=CC12COC3C(N1)C23	O=C[C@@]12CO[C@H]3[C@@H](N1)[C@@H]23	
InChI=1S/C6H7NO2/c8-1-6-2-9-5-3(6)4(5)7-6/h1,3-5,7H,2H2	InChI=1S/C6H7NO2/c8-1-6-2-9-5-3(6)4(5)7-6/h1,3-5,7H,2H2/t3-,4+,5-,6+/m1/s1
