13
gdb 5196	5.93238	1.48673	1.1888	2.5392	62.23	-0.2084	0.0107	0.2192	925.2434	0.098458	-394.846966	-394.840358	-394.839414	-394.878032	24.302	
O	-0.2994275534	 0.0568389521	 0.0005644527	-0.318517
C	-0.075241264	 1.2499037076	 0.0081836725	 0.139066
N	 1.1647756875	 1.8112984732	 0.000906526	-0.386395
C	 2.3703232435	 1.1088316522	-0.015163894	 0.365867
C	 2.595756978	-0.2451811879	-0.0278676852	-0.174451
N	 3.9743274745	-0.3528305848	-0.040655301	-0.231218
C	 4.4912619497	 0.9022891109	-0.0352493836	 0.019839
N	 3.5443753536	 1.8163503982	-0.0199385866	-0.329158
H	-0.8714764173	 2.018133994	 0.0208210454	 0.082492
H	 1.2538999896	 2.8163060155	 0.0080586478	 0.262592
H	 1.929238577	-1.0860908287	-0.0285809532	 0.163785
H	 4.494736547	-1.2134284669	-0.0518581888	 0.271016
H	 5.5528733943	 1.0956243646	-0.042969902	 0.135082
88.3945	178.5147	219.8872	366.0376	399.6615	522.2002	585.6871	626.9964	659.2765	701.3389	747.1845	813.3902	870.6991	950.0138	991.6178	1013.7359	1078.0415	1145.6484	1167.0239	1243.6448	1273.7172	1362.4127	1427.4967	1463.115	1497.6866	1568.7607	1619.6674	1792.2739	2954.9254	3259.9174	3327.7975	3627.7436	3673.5576
O=CNC1=CNC=N1	O=CNc1c[nH]cn1	
InChI=1S/C4H5N3O/c8-3-7-4-1-5-2-6-4/h1-3H,(H,5,6)(H,7,8)	InChI=1S/C4H5N3O/c8-3-7-4-1-5-2-6-4/h1-3H,(H,5,6)(H,7,8)
