17
gdb 53547	2.6301	0.97484	0.82535	1.8157	77.76	-0.2467	-0.0369	0.2098	1453.2179	0.13199	-421.787986	-421.777992	-421.777047	-421.825016	33.911	
C	 0.1871756471	 1.4759998238	 0.4867010331	-0.496953
C	 0.1161520007	 0.0592893875	 0.1599649902	 0.074331
C	 0.058357655	-1.1105181174	-0.1150359501	 0.076131
C	-0.0269837375	-2.5318707582	-0.4355559351	-0.442361
C	-1.405482171	-3.1115459985	-0.1646067866	 0.310304
C	-1.5727852732	-4.4452328884	 0.4573508635	-0.223308
O	-1.8038648469	-3.261463944	 1.2024135555	-0.251932
C	-2.5253696837	-2.6712366398	-1.0621021174	 0.128274
O	-2.3675932914	-2.1494379333	-2.1344078933	-0.249793
H	 1.1675109488	 1.7401935865	 0.8983989773	 0.147603
H	 0.0200213947	 2.0979652052	-0.399424925	 0.150319
H	-0.5684891447	 1.7487569135	 1.2315252368	 0.15003
H	 0.1973209207	-2.6917979186	-1.4971828637	 0.149897
H	 0.7134656184	-3.0960265785	 0.1427184809	 0.130836
H	-2.4547683124	-5.0469288635	 0.2397560415	 0.126219
H	-0.6752430502	-5.0058452432	 0.7145950556	 0.130291
H	-3.5319395043	-2.8886433532	-0.6401806334	 0.090113
24.3524	41.1475	79.4479	135.8365	190.3288	221.9947	268.1614	328.7427	362.9486	377.4502	389.0224	496.8296	551.724	772.7879	783.1101	861.1007	880.7396	941.5115	972.9592	1046.1021	1053.3809	1054.3016	1132.0629	1160.0325	1170.3722	1209.4224	1306.0774	1329.8209	1359.5823	1414.6301	1427.4589	1448.2938	1477.8819	1478.9562	1521.0008	1831.5478	2380.0574	2892.749	3028.0638	3032.5429	3071.795	3081.206	3088.842	3090.0904	3170.6576
CC#CCC1(CO1)C=O	CC#CC[C@]1(CO1)C=O	
InChI=1S/C7H8O2/c1-2-3-4-7(5-8)6-9-7/h5H,4,6H2,1H3	InChI=1S/C7H8O2/c1-2-3-4-7(5-8)6-9-7/h5H,4,6H2,1H3/t7-/m1/s1
