21
gdb 68132	3.66319	1.19843	1.06725	0.8886	89.91	-0.2508	0.0513	0.3021	1211.5353	0.182828	-349.92732	-349.918871	-349.917927	-349.959652	34.473	
C	-0.0245733445	 1.5255081129	 0.0223249258	-0.499464
C	 0.0245369299	 0.0156624606	 0.0277606142	 0.326365
C	 0.9824656508	-0.7880551606	-0.9041126129	-0.289301
C	 0.7268640622	-1.9331750474	 0.1310346053	 0.259156
C	 0.665766551	-0.7907747304	 1.1984263019	-0.289297
C	-0.7808222001	-2.2183894261	-0.0964262286	-0.267098
C	-1.3026209733	-0.7503906653	-0.1731365619	-0.25235
C	 1.6115156022	-3.0623526493	 0.2628514303	 0.063031
C	 2.3472376911	-4.0082622552	 0.3724987266	-0.356791
H	 0.9697742708	 1.9589899824	 0.1725466186	 0.113373
H	-0.414102347	 1.9048936716	-0.9296861402	 0.115566
H	-0.6772141143	 1.9026250375	 0.8184625835	 0.115568
H	 0.6771971437	-0.9658513593	-1.9398527091	 0.091197
H	 2.0117101683	-0.4243557779	-0.8674053159	 0.101871
H	 1.6600175781	-0.4273800499	 1.4674554672	 0.101871
H	 0.0690083981	-0.9710701131	 2.097833113	 0.091197
H	-0.948413753	-2.7839677297	-1.0165786622	 0.104836
H	-1.211816083	-2.7862155034	 0.7321062382	 0.104837
H	-2.0297732329	-0.5194679955	 0.6117065293	 0.095066
H	-1.76639859	-0.5172137971	-1.1367716826	 0.095066
H	 2.9980482219	-4.8413167447	 0.4691778395	 0.175303
134.9995	141.47	217.3019	248.7579	293.3124	334.9362	428.3372	477.3719	506.8125	527.1441	540.7328	585.189	620.3184	627.536	690.2215	815.2789	833.5649	840.7998	919.7967	924.9185	960.1112	968.8192	989.4121	1000.075	1035.5507	1078.5403	1120.6726	1144.0964	1171.6954	1188.2889	1222.033	1232.5898	1247.5642	1253.1531	1261.7155	1331.5553	1351.7045	1415.0961	1485.2519	1489.9962	1492.6953	1495.6246	1499.4872	1531.4627	2232.7735	3021.6385	3043.4982	3047.4636	3054.2107	3064.5586	3081.8612	3084.8061	3093.2765	3109.9875	3116.7665	3121.2528	3503.9897
CC12CC(C1)(CC2)C#C	C[C@@]12C[C@@](C1)(CC2)C#C	
InChI=1S/C9H12/c1-3-9-5-4-8(2,6-9)7-9/h1H,4-7H2,2H3	InChI=1S/C9H12/c1-3-9-5-4-8(2,6-9)7-9/h1H,4-7H2,2H3/t8-,9+
