14
gdb 20602	3.39047	2.02449	1.28405	2.2083	60.62	-0.2228	0.006	0.2288	896.1598	0.106965	-415.856551	-415.848537	-415.847593	-415.889356	28.396	
C	 0.1185653967	 1.5110495944	 0.0369428938	-0.497745
C	-0.0374706048	 0.0351434837	 0.0375151682	 0.432416
C	-1.13627402	-0.7655950508	-0.0623168995	-0.057424
N	-2.4865884345	-0.3805809472	-0.2215155016	-0.622811
C	-0.5764144813	-2.0769012139	-0.0053109815	 0.413922
O	-1.2992281455	-3.2079792672	-0.0894463692	-0.427267
N	 0.7256983423	-2.0760909684	 0.1172135473	-0.265049
O	 1.0742482031	-0.7188243333	 0.1640900616	-0.229454
H	 0.9308159523	 1.8143753609	-0.6304542756	 0.148702
H	-0.8138463236	 1.9675976609	-0.3036365393	 0.151233
H	 0.3499009139	 1.8967335334	 1.0364789914	 0.143608
H	-2.9235748623	-0.1478603614	 0.6645787777	 0.247277
H	-3.0245006903	-1.1363702067	-0.6309214846	 0.250687
H	-0.6844801159	-3.9531465144	-0.0626571288	 0.311905
48.6566	137.9604	165.0141	237.2803	274.351	303.0109	376.629	450.1776	534.0903	587.393	618.1951	724.8708	739.48	785.1402	839.1023	946.8919	1007.3638	1053.4203	1067.4899	1210.2726	1242.3569	1261.8288	1348.8688	1411.7428	1475.6933	1486.0571	1533.8455	1577.3148	1657.1133	1714.7022	3036.1007	3095.5557	3133.075	3504.7907	3582.91	3783.5411
CC1=C(N)C(O)=NO1	Cc1c(N)c(O)no1	
InChI=1S/C4H6N2O2/c1-2-3(5)4(7)6-8-2/h5H2,1H3,(H,6,7)	InChI=1S/C4H6N2O2/c1-2-3(5)4(7)6-8-2/h5H2,1H3,(H,6,7)
