16
gdb 10904	3.17203	2.05315	1.42112	2.4976	65.98	-0.2396	-0.012	0.2276	884.0736	0.129276	-383.72948	-383.721687	-383.720742	-383.761431	29.189	
C	 0.0051079094	 1.6428107664	-0.0076043896	-0.415643
C	 0.0406193441	 0.1187023944	-0.0561620355	-0.094146
C	 0.6524500988	-0.6117031687	-1.2621581296	-0.154099
C	 2.0987932761	-0.265269025	-1.4189390578	-0.327503
C	 1.784338673	-1.2575795674	-0.3387369682	 0.325601
O	 2.4061545856	-2.4753333806	-0.3263949823	-0.446193
C	 1.0591790357	-0.6703819712	 0.8186368676	 0.299861
O	 1.0388437084	-1.0085247164	 1.9749943773	-0.341425
H	 0.9742702098	 2.0880313471	-0.2497881128	 0.120005
H	-0.731531952	 2.0396479173	-0.7135816845	 0.121777
H	-0.2735808099	 1.9800770067	 0.9955163796	 0.1351
H	-0.9526079429	-0.2798131728	 0.1828592209	 0.102036
H	 0.0887504204	-1.124255243	-2.0303094063	 0.112886
H	 2.5942827555	-0.739425778	-2.2615527935	 0.136783
H	 2.4786722267	 0.7259539653	-1.1885171518	 0.123363
H	 2.0196747915	-2.986690484	 0.3964776964	 0.301597
85.5978	187.9259	197.4005	213.0646	289.3473	372.3783	383.6505	474.4579	509.3862	605.919	652.7919	721.5764	769.4973	843.8433	900.1327	930.6299	942.9422	997.5464	1010.1668	1079.3733	1109.3326	1121.0849	1137.1319	1180.3474	1235.1522	1290.4389	1354.4511	1382.2679	1407.4974	1423.0207	1492.2514	1496.8424	1507.5701	1841.3216	3039.128	3044.1292	3105.7536	3112.3722	3117.65	3197.29	3211.2831	3771.8733
CC1C2CC2(O)C1=O	C[C@H]1[C@H]2C[C@@]2(O)C1=O	
InChI=1S/C6H8O2/c1-3-4-2-6(4,8)5(3)7/h3-4,8H,2H2,1H3	InChI=1S/C6H8O2/c1-3-4-2-6(4,8)5(3)7/h3-4,8H,2H2,1H3/t3-,4+,6-/m0/s1
