17
gdb 47751	2.7542	1.47499	1.01055	3.7171	76.82	-0.2343	0.0207	0.2549	1149.5478	0.136668	-417.966861	-417.95857	-417.957626	-417.99989	31.589	
N	-0.0215090997	 1.3290492574	-0.2453346157	-0.510119
C	 0.0530255302	 0.0902913362	 0.0426306541	 0.358126
N	 1.205567352	-0.6615550008	 0.1800910571	-0.350303
C	 1.2434397382	-1.9141561379	 0.9287525727	-0.165596
C	-0.0536995721	-2.6685786377	 0.6834855196	-0.062092
O	-1.1545935325	-1.8402520064	 1.0005387824	-0.256664
C	-1.247447661	-0.7319385435	 0.1060414483	-0.120315
C	-2.4051873183	 0.064152094	 0.4878887196	 0.349423
C	-3.3921598103	 0.6722452126	 0.7956938754	-0.434477
H	 0.9071154821	 1.7524060293	-0.32038963	 0.197315
H	 2.0512989508	-0.1093489647	 0.2159324084	 0.234139
H	 2.0981100318	-2.5090821223	 0.5877866321	 0.111083
H	 1.359039769	-1.7389989829	 2.0087915128	 0.114621
H	-0.1076066671	-3.0007120054	-0.3662928358	 0.099368
H	-0.1200160988	-3.5454048314	 1.3322153353	 0.117752
H	-1.4053473025	-1.1196862186	-0.917543336	 0.121215
H	-4.2514141018	 1.2317822921	 1.0714058098	 0.196524
64.4364	148.6668	151.0987	236.8291	347.426	375.1776	413.1862	454.973	482.0489	538.037	555.9954	631.0936	640.8586	671.2155	692.3665	850.5811	882.6993	912.2725	953.6193	976.3562	1067.8196	1076.7989	1127.3007	1129.8399	1182.8242	1257.7779	1270.9809	1306.6801	1335.255	1368.3231	1405.2407	1430.2563	1479.0573	1491.5229	1511.6808	1727.1744	2256.617	2932.332	2975.6943	2994.1874	3063.0784	3103.1078	3428.7944	3507.0773	3582.1298
N=C1NCCOC1C#C	[NH][C]1NCCO[C@H]1C#C	
InChI=1S/C6H8N2O/c1-2-5-6(7)8-3-4-9-5/h1,5H,3-4H2,(H2,7,8)	InChI=1S/C6H8N2O/c1-2-5-6(7)8-3-4-9-5/h1,5H,3-4H2,(H2,7,8)/t5-/m0/s1
