15
gdb 29945	3.35622	1.42851	1.00828	4.3403	71.73	-0.2335	-0.0379	0.1956	1106.9527	0.114516	-454.030129	-454.02244	-454.021496	-454.06252	28.671	
C	-0.0296914204	 1.444549396	 0.0135693029	-0.331095
N	-0.0409904417	-0.0139588928	 0.0025340505	-0.124881
C	-1.1805333184	-0.7232635915	-0.1539577546	 0.07101
C	-1.1757649091	-2.0831856129	-0.1623425033	-0.28284
C	 0.1009070612	-2.6848498585	 0.0037323318	 0.448718
O	 0.1466155525	-4.0242203341	 0.0009489266	-0.399481
N	 1.2209927988	-2.0337352812	 0.157259903	-0.443078
C	 1.2283725929	-0.6607508567	 0.1673433328	 0.444451
O	 2.2147621313	 0.0326131601	 0.303345594	-0.3963
H	 0.6109812614	 1.8193712087	-0.7876823314	 0.160213
H	-1.0486000004	 1.8115444522	-0.1205166857	 0.124735
H	 0.3768620091	 1.8080102036	 0.9599146147	 0.160163
H	-2.0908007676	-0.1457526893	-0.2713645456	 0.139344
H	-2.0739918363	-2.6682867184	-0.2858455131	 0.122826
H	 1.079264347	-4.2584448551	 0.1236415473	 0.306215
103.2874	114.5509	192.8115	275.4453	331.634	376.2725	425.7231	479.0443	566.498	606.729	619.5929	739.8482	760.122	791.505	791.9747	800.787	967.4381	975.2533	1058.6837	1147.0056	1155.8352	1180.0945	1220.9228	1261.8948	1345.618	1419.9073	1453.7663	1465.8029	1507.1782	1527.4143	1593.9482	1690.5854	1795.8554	3057.2488	3128.8122	3147.5939	3195.8851	3252.8951	3741.3606
CN1C=CC(O)=NC1=O	Cn1ccc(O)nc1=O	
InChI=1S/C5H6N2O2/c1-7-3-2-4(8)6-5(7)9/h2-3H,1H3,(H,6,8,9)	InChI=1S/C5H6N2O2/c1-7-3-2-4(8)6-5(7)9/h2-3H,1H3,(H,6,8,9)
