16
gdb 30510	2.50929	1.65414	1.00315	3.292	80.23	-0.1952	-0.0306	0.1646	1138.5626	0.124135	-437.908814	-437.900535	-437.89959	-437.94193	30.73	
C	-0.1710521276	 1.4025061581	 0.0854288971	-0.317452
N	-0.1948768622	-0.0483844599	 0.1109572868	-0.306059
C	 0.6235901127	-0.6539786978	 0.8621550757	 0.372213
O	 1.5299871697	 0.0477471605	 1.6498081825	-0.253194
C	 2.4195363865	-0.5752283985	 2.4651090827	 0.05042
C	 2.4873365066	-1.9095320892	 2.5687625985	-0.17064
C	 1.5845342496	-2.7121825218	 1.7876037678	-0.22698
C	 0.6879126493	-2.1143978296	 0.9667831625	 0.265666
O	-0.2076162423	-2.7584992473	 0.1870279435	-0.402368
H	 0.8033436227	 1.7934908633	-0.2392988458	 0.117599
H	-0.9349445887	 1.7599322238	-0.6089809302	 0.118155
H	-0.3717504969	 1.8359072039	 1.0752005283	 0.117599
H	 3.0382382052	 0.1364025921	 2.9952409491	 0.130546
H	 3.2111535398	-2.3657840448	 3.2305365266	 0.11036
H	 1.6245067948	-3.7951666086	 1.8582870634	 0.094364
H	-0.100489139	-3.7083051841	 0.3134185015	 0.299771
73.4348	115.7134	199.4856	203.0695	251.6201	336.1028	410.2455	504.6844	508.7125	539.3908	557.8035	573.9638	738.9565	750.322	766.1814	863.263	887.6193	902.7223	1039.9937	1049.9539	1072.1184	1106.7566	1122.1545	1170.6516	1229.0583	1268.8421	1308.7811	1422.5001	1436.5087	1468.8815	1486.9036	1497.5899	1623.2256	1688.1683	1742.225	2994.7018	3041.8853	3105.8807	3168.7497	3217.0537	3237.3143	3805.8243
CN=C1OC=CC=C1O	C[N]C1=C(CC=CO1)O	
InChI=1S/C6H7NO2/c1-7-6-5(8)3-2-4-9-6/h2-4,8H,1H3	InChI=1S/C6H8NO2/c1-7-6-5(8)3-2-4-9-6/h2,4,8H,3H2,1H3
