16
gdb 37680	3.12246	2.48329	2.13146	1.5748	67.99	-0.224	0.0781	0.3021	730.0131	0.12863	-400.692336	-400.687336	-400.686392	-400.721375	22.743	
O	 0.0093495004	 1.4639317762	 0.1252235604	-0.249687
C	 1.3310401125	 1.8703173194	-0.0999130458	 0.092364
C	 2.0774585851	 0.8893045815	-0.9822916113	-0.127492
C	 2.4584018333	 1.0472923603	 0.4826411903	-0.066994
N	 2.165050295	-0.1970946016	 1.2000219577	-0.115748
C	 0.7585391606	-0.6396421546	 1.1756487918	-0.066037
C	 1.7730919424	-1.2325503686	 0.2484095448	-0.058691
C	 1.2317895478	-0.3800849945	-0.9378361617	-0.1272
C	 0.044667732	 0.0554225599	 0.0224610658	 0.065662
H	 1.4260806461	 2.9467394015	-0.1801799773	 0.105453
H	 2.6972707794	 1.1693377801	-1.8240059735	 0.09309
H	 3.3710094129	 1.5420720133	 0.7943066573	 0.098278
H	 0.3207473448	-1.0007083976	 2.0995910719	 0.094458
H	 2.2588662961	-2.2003331549	 0.2417519227	 0.098313
H	 0.9780085545	-0.8441022428	-1.8877683313	 0.075888
H	-0.9514272829	-0.3213840876	-0.2117389516	 0.088342
370.3281	495.3347	598.5461	642.2544	680.0382	715.9239	743.3539	764.7321	777.1812	806.889	829.9119	860.6024	886.5361	935.152	944.7463	955.7346	963.0934	995.2897	1027.1776	1050.5172	1059.0801	1074.9846	1087.1585	1093.3976	1145.9698	1160.2442	1199.4165	1225.4837	1226.5918	1262.8175	1282.2831	1311.4383	1334.0497	1360.6289	1404.401	3113.0974	3149.5379	3171.346	3174.257	3187.4248	3194.9186	3200.1082
O1C2C3C2N2C4C2C3C14	O1[C@@H]2[C@H]3[C@@H]2N2[C@@H]4[C@H]2[C@H]3[C@H]14	
InChI=1S/C7H7NO/c9-6-2-1-3-5(7(1)9)8(3)4(2)6/h1-7H	InChI=1S/C7H7NO/c9-6-2-1-3-5(7(1)9)8(3)4(2)6/h1-7H/t1-,2+,3+,4-,5+,6+,7-,8?/m0/s1
