23
gdb 55452	3.08052	1.03547	0.90191	2.5808	85.93	-0.2361	-0.0068	0.2293	1407.4462	0.206726	-388.343289	-388.333918	-388.332973	-388.378108	35.415	
C	-0.0325839879	 1.5117847913	 0.0149523375	-0.482685
C	 0.0652065824	-0.0034397211	-0.0162934508	 0.375419
O	 1.1319281685	-0.5712727003	-0.0889361439	-0.311434
C	-1.2530976583	-0.7749028041	 0.0250171001	-0.069733
C	-1.7368114487	-1.0153966642	-1.4274139645	-0.189206
C	-3.0395044286	-1.8261619872	-1.460458007	-0.20095
C	-2.8939955556	-3.1543519014	-0.7054722871	-0.177446
C	-2.4125727874	-2.9251261183	 0.7337427905	-0.205792
C	-1.1128348721	-2.1105934688	 0.7731901924	-0.186687
H	 0.9410226271	 1.9573163283	-0.1929051818	 0.139502
H	-0.7749282159	 1.8743422094	-0.7041903135	 0.134877
H	-0.3729470802	 1.8327342202	 1.0071636788	 0.141136
H	-2.0052525331	-0.1502234283	 0.5277151722	 0.067269
H	-1.8734536677	-0.0600886974	-1.9479342581	 0.091307
H	-0.9495646232	-1.5583327787	-1.9664455353	 0.112629
H	-3.8456651466	-1.2346347603	-1.004495177	 0.09205
H	-3.3360388094	-2.0071728636	-2.4998962322	 0.093326
H	-3.8457132886	-3.6973562619	-0.7069865165	 0.08981
H	-2.1696500295	-3.7908225454	-1.2322272953	 0.096145
H	-3.1942608728	-2.3943289672	 1.2956142696	 0.089113
H	-2.2649118717	-3.8844048797	 1.2424884469	 0.092936
H	-0.2948446435	-2.6758911305	 0.3130042705	 0.117189
H	-0.8111220174	-1.925082391	 1.8103642947	 0.091226
34.0943	107.3205	133.9235	181.2281	229.1405	267.5119	306.9498	359.5791	440.7957	450.5492	510.029	588.2805	602.5587	782.7456	795.9483	838.6399	880.0765	888.9811	892.9853	926.3253	963.166	1009.7302	1033.6625	1040.7543	1065.6231	1092.5029	1097.0183	1154.4684	1181.4829	1203.0941	1267.8292	1284.7838	1292.4981	1325.6447	1337.112	1363.1696	1368.7425	1377.5471	1381.4437	1385.0043	1397.159	1462.0499	1474.9782	1482.7098	1485.5383	1487.4107	1492.3711	1505.8066	1806.7857	3001.9794	3007.776	3009.9251	3015.9866	3021.8506	3032.9167	3036.781	3058.5522	3061.7726	3062.9514	3068.4081	3082.3264	3093.1233	3150.1818
CC(=O)C1CCCCC1	CC(=O)C1CCCCC1	
InChI=1S/C8H14O/c1-7(9)8-5-3-2-4-6-8/h8H,2-6H2,1H3	InChI=1S/C8H14O/c1-7(9)8-5-3-2-4-6-8/h8H,2-6H2,1H3
