21
gdb 116056	2.9871	1.21945	0.92066	1.6242	81.26	-0.2449	0.019	0.2639	1308.9105	0.182853	-424.222793	-424.213742	-424.212797	-424.256982	33.674	
C	-0.2149975866	 1.4448719703	-0.0716019196	-0.240947
O	-0.0923354331	 0.0382823661	-0.1738988177	-0.236333
C	-1.2716467015	-0.6580672522	 0.0717680402	 0.219466
C	-0.9925031546	-2.1360934258	-0.1711511777	-0.211938
C	-2.2507164773	-2.9999772205	-0.3129485253	-0.269077
C	-3.2957101413	-2.9373084801	 0.7737895727	-0.049616
C	-3.6243609975	-1.935603286	 1.5909434002	-0.056392
C	-3.0269026615	-0.5559478861	 1.7036861052	-0.131253
O	-1.6501882055	-0.4344265672	 1.4183044389	-0.249403
H	 0.7564284798	 1.8667731085	-0.3379821949	 0.125638
H	-0.9745579165	 1.8303578927	-0.7695880855	 0.099556
H	-0.4812580946	 1.7540814207	 0.9447048762	 0.126583
H	-2.0824499328	-0.2840345525	-0.5887546808	 0.043237
H	-0.39193604	-2.2278840411	-1.0816733321	 0.104962
H	-0.3799069599	-2.4836888559	 0.6668139287	 0.116846
H	-2.7468577688	-2.7519348372	-1.2650018292	 0.114113
H	-1.9353757417	-4.0436556954	-0.4278042844	 0.106837
H	-3.9004572294	-3.8397938232	 0.8498963279	 0.088022
H	-4.4694516815	-2.0927756552	 2.2599716063	 0.086519
H	-3.6091264713	 0.1401243011	 1.069908456	 0.098048
H	-3.1377176843	-0.201688311	 2.7341466048	 0.115131
55.7811	105.2857	155.3451	175.292	209.2122	309.2885	340.2617	350.7276	422.7345	471.7157	510.3456	581.0475	694.6729	765.9045	809.377	890.1793	905.8625	910.7471	1001.5318	1023.5863	1033.3128	1060.1877	1083.5939	1095.6465	1144.8434	1171.0221	1180.6639	1209.9772	1228.7354	1258.7801	1281.6278	1301.8188	1341.9126	1380.8788	1395.0269	1414.5653	1418.1586	1429.9411	1471.1942	1475.1116	1479.3054	1482.8968	1482.9388	1514.0785	1735.5956	2877.9255	2923.9852	2984.6983	2986.5723	3043.9042	3055.9938	3063.2567	3071.3654	3099.4923	3122.2514	3126.2129	3146.6987
COC1CCC=CCO1	CO[C@H]1CCC=CCO1	
InChI=1S/C7H12O2/c1-8-7-5-3-2-4-6-9-7/h2,4,7H,3,5-6H2,1H3	InChI=1S/C7H12O2/c1-8-7-5-3-2-4-6-9-7/h2,4,7H,3,5-6H2,1H3/t7-/m1/s1
