17
gdb 31741	4.79354	0.96501	0.81461	2.2172	73.26	-0.1825	0.0386	0.2212	1395.1087	0.135824	-455.16373	-455.154481	-455.153537	-455.198536	32.243	
C	-0.0924734411	 1.4153653554	 0.1585530571	-0.328716
N	-0.0704487001	 0.0009599472	-0.1765904258	-0.381734
C	-1.1955802778	-0.7627548813	-0.0790748843	 0.512904
N	-1.2544440456	-2.065219688	-0.0149220298	-0.455812
C	-2.615454283	-2.3220929215	-0.0035637011	 0.360823
O	-3.1212761344	-3.5644504392	 0.0558875628	-0.274335
C	-2.1764035612	-4.6297103785	 0.0848024842	-0.232553
C	-3.3219331379	-1.1670641794	-0.0538372904	-0.203548
O	-2.379925386	-0.1343363484	-0.0994342816	-0.190336
H	 0.8733268769	 1.8506090692	-0.1057285927	 0.131828
H	-0.8659584899	 1.9174481966	-0.4262212673	 0.154473
H	-0.2885519194	 1.6077418858	 1.2229052477	 0.125403
H	 0.7646088367	-0.5119333236	 0.0593032001	 0.259439
H	-2.7672006038	-5.5461179272	 0.1285564139	 0.125521
H	-1.5501833515	-4.6312520228	-0.8130074113	 0.130796
H	-1.5262709982	-4.5619712474	 0.962787977	 0.129782
H	-4.3573081436	-0.8874233368	-0.0553514983	 0.136063
54.4122	84.181	129.3876	155.6595	172.9103	238.5787	256.3142	359.867	438.1089	517.188	533.8662	573.2475	688.923	691.4945	757.0761	761.5274	973.8765	996.9694	1072.2553	1087.5697	1109.2252	1152.8322	1179.0149	1184.8542	1208.1048	1247.4159	1353.0739	1415.2057	1440.4006	1475.9557	1480.924	1487.8359	1495.9838	1502.9582	1516.4112	1662.9484	1683.9873	3004.4694	3033.4855	3098.7282	3100.4707	3139.9224	3139.9378	3326.0221	3636.1422
CNC1=NC(OC)=CO1	CNc1nc(OC)co1	
InChI=1S/C5H8N2O2/c1-6-5-7-4(8-2)3-9-5/h3H,1-2H3,(H,6,7)	InChI=1S/C5H8N2O2/c1-6-5-7-4(8-2)3-9-5/h3H,1-2H3,(H,6,7)
