18
gdb 71349	3.32812	1.56036	1.24454	1.7138	76.56	-0.2402	0.0702	0.3105	1022.4784	0.148127	-401.837893	-401.830595	-401.829651	-401.869305	29.98	
O	 0.0685582542	 1.3158053099	 0.0381952319	-0.473543
C	 0.0688731431	-0.0598812972	 0.0555220815	 0.425483
C	 0.7737182692	-0.9234266861	 1.1029450411	-0.316592
C	 0.1151324404	-1.9301397572	 0.131697833	-0.040382
C	-1.1705425049	-1.0505702269	-0.0486525746	-0.228296
C	-1.0393222402	-1.0872474211	-1.5658391247	 0.398206
C	-1.7815800841	-1.7334725291	-2.6550001583	-0.346205
N	-1.6697404073	-0.2446310157	-2.5760872619	-0.40384
C	 0.4203587116	-1.0439484858	-1.1283884238	-0.20436
H	-0.2850175193	 1.6040024495	-0.8121876007	 0.294657
H	 1.8673551141	-0.8888268328	 1.1095949136	 0.098803
H	 0.3743664607	-0.8886994679	 2.1210211724	 0.098341
H	 0.1320517607	-3.0167859298	 0.1546192519	 0.083727
H	-2.0587863361	-1.0606559783	 0.5847769572	 0.07264
H	-1.2566013529	-2.1800442643	-3.495218004	 0.121249
H	-2.7447107167	-2.1863751383	-2.4330153952	 0.113661
H	-2.5459196644	 0.1329252844	-2.2200620535	 0.22817
H	 1.3347057818	-1.0505280431	-1.7215439659	 0.078281
108.6389	238.8192	263.288	321.3316	348.2279	406.0756	469.8995	502.886	569.0575	683.0549	709.5386	812.755	845.4343	850.5129	880.4046	904.1574	912.076	935.5542	966.2799	983.4717	1002.8398	1042.5979	1047.4272	1071.8734	1101.9922	1116.5912	1124.7321	1144.9363	1173.1286	1180.9306	1199.7036	1249.8972	1265.6836	1274.3453	1332.0342	1388.3412	1454.1766	1518.2064	1527.1346	3045.4755	3104.4041	3105.1642	3106.4023	3120.979	3152.1072	3187.9896	3478.6192	3790.9699
OC12CC3C1C1(CN1)C23	O[C@@]12C[C@H]3[C@@H]1[C@]1(CN1)[C@@H]23	
InChI=1S/C7H9NO/c9-7-1-3-4(7)6(2-8-6)5(3)7/h3-5,8-9H,1-2H2	InChI=1S/C7H9NO/c9-7-1-3-4(7)6(2-8-6)5(3)7/h3-5,8-9H,1-2H2/t3-,4+,5-,6+,7-
