17
gdb 76104	2.43723	1.26382	1.01895	5.1889	74.21	-0.2465	0.0211	0.2676	1205.3614	0.135934	-417.967194	-417.958414	-417.95747	-418.001339	31.914	
O	-0.004866267	 1.4170138159	-0.0107640467	-0.399054
C	-0.0138326441	 0.0315157782	 0.0091442871	 0.083298
C	-0.518200292	-0.6925950613	 1.2618433831	-0.260875
C	-0.8621006219	 0.0989385042	 2.4053732161	 0.297885
N	-1.1012012481	 0.7473130842	 3.3336741835	-0.339269
C	-1.3577873848	-0.6252078813	-0.0261849264	-0.082946
C	-2.6140896727	 0.1792688343	-0.0923136045	 0.027143
C	-3.5286873323	-0.0047999458	-1.2479346503	-0.249892
N	-3.9179420704	-0.4814723334	 0.0896351211	-0.318783
H	 0.6383194154	 1.7381802071	 0.6314965252	 0.305813
H	 0.8079991847	-0.4527590344	-0.517676333	 0.108206
H	-0.0613867854	-1.6471480003	 1.5010198416	 0.13599
H	-1.4032529862	-1.5721414284	-0.5586869501	 0.101689
H	-2.5535756356	 1.1592665399	 0.3679858257	 0.125506
H	-4.1040499935	 0.8367593417	-1.6221685163	 0.127485
H	-3.2515311236	-0.7340023212	-2.0057698783	 0.109248
H	-3.7947871823	-1.4899724894	 0.1491243122	 0.228555
57.7754	98.0559	126.1692	172.3291	252.8257	284.9293	334.6311	389.8653	406.4856	569.8953	637.0649	658.7609	756.0001	793.8413	817.5756	861.274	913.7446	956.6353	978.9127	998.7262	1025.5631	1072.3174	1120.0795	1127.3631	1141.7202	1167.2058	1226.1034	1247.0015	1250.2689	1290.4398	1307.4301	1325.203	1361.3949	1426.4304	1467.9285	1514.172	2351.2478	3105.0491	3106.3543	3138.8317	3168.7258	3176.6526	3194.2157	3491.0472	3799.7311
OC1C(C#N)C1C1CN1	O[C@H]1[C@@H](C#N)[C@H]1[C@H]1CN1	
InChI=1S/C6H8N2O/c7-1-3-5(6(3)9)4-2-8-4/h3-6,8-9H,2H2	InChI=1S/C6H8N2O/c7-1-3-5(6(3)9)4-2-8-4/h3-6,8-9H,2H2/t3-,4+,5-,6-/m0/s1
