14
gdb 9600	4.67047	1.33603	1.21956	2.1372	61.11	-0.2701	-0.0709	0.1992	971.6047	0.103204	-419.671077	-419.662851	-419.661907	-419.703973	28.353	
C	 0.1625652028	 1.5712773514	-0.0224071567	-0.481361
C	 0.0304853457	 0.0743442575	 0.0327728857	 0.276304
O	 1.1983770123	-0.7183435596	-0.1820644571	-0.248056
C	 0.638752215	-0.7787126996	 1.1136396062	-0.095874
C	 1.3856600726	-0.1505501644	 2.25334138	 0.144681
O	 2.2933413704	 0.6299168136	 2.1350394834	-0.238884
C	-1.1969320302	-0.5363681756	-0.5920812861	 0.128978
O	-2.170527293	 0.0919350457	-0.9122374172	-0.240267
H	 1.0592351996	 1.9011230833	 0.5010994698	 0.16469
H	 0.2224656573	 1.8904933452	-1.0670277164	 0.145333
H	-0.723450254	 2.0389080341	 0.4142300791	 0.144987
H	 0.1417568524	-1.7187878221	 1.3641607938	 0.11246
H	 1.0129370139	-0.471884473	 3.2508262174	 0.093474
H	-1.1144623849	-1.6362116666	-0.738732612	 0.093535
85.9614	118.1052	160.4525	198.4146	227.0416	267.839	308.9133	392.7664	446.6947	553.7384	743.2393	756.5912	805.9787	898.8577	936.9608	971.9922	1015.738	1070.2238	1107.9364	1118.3491	1265.7283	1316.6889	1392.3176	1410.4088	1421.8116	1439.013	1482.3085	1496.2728	1824.5119	1835.1698	2893.0446	2895.6388	3059.2768	3091.2867	3124.1811	3167.9577
CC1(OC1C=O)C=O	C[C@]1(O[C@H]1C=O)C=O	
InChI=1S/C5H6O3/c1-5(3-7)4(2-6)8-5/h2-4H,1H3	InChI=1S/C5H6O3/c1-5(3-7)4(2-6)8-5/h2-4H,1H3/t4-,5-/m0/s1
