20
gdb 116697	3.80855	0.90136	0.84739	2.901	82.79	-0.2305	0.0169	0.2475	1453.8361	0.170343	-403.103926	-403.094791	-403.093847	-403.138999	32.943	
C	 0.3623144893	 0.9082499875	-0.3245785497	-0.249533
O	-0.2498816684	-0.134592705	 0.4243580856	-0.191147
C	 0.5932175942	-0.9458636518	 1.0902294897	 0.140145
N	 0.15363866	-1.9442647596	 1.7207324569	-0.23593
C	 1.1083958285	-2.7288732933	 2.4565892189	 0.018376
C	 1.2797539125	-4.1979643328	 2.242401074	-0.073442
C	 1.1864896178	-4.5379561481	 0.7493610565	-0.22182
C	 2.4017818678	-3.597361658	 0.4735860173	-0.225025
C	 2.4483756379	-3.2221381068	 1.961349961	-0.097143
H	 0.9515509414	 0.5094703782	-1.1593708434	 0.128326
H	-0.4490606131	 1.519893078	-0.7207182486	 0.14664
H	 1.0068782723	 1.5326777883	 0.3060845339	 0.126827
H	 1.6515651716	-0.6499035362	 1.0392674229	 0.083558
H	 1.1194190357	-2.4657173942	 3.5135462991	 0.09552
H	 1.1630627734	-4.9078369518	 3.0531963956	 0.081048
H	 1.4074681216	-5.5832712922	 0.5260973473	 0.098404
H	 0.2407586574	-4.2635679452	 0.2741728258	 0.113084
H	 3.2874400997	-4.1598702502	 0.1693530599	 0.100702
H	 2.249784643	-2.7824290461	-0.2417646857	 0.084531
H	 3.3584581974	-3.066218511	 2.5305477429	 0.076879
40.5758	76.9852	118.898	149.5176	189.4517	238.0479	302.8703	366.0619	454.5528	526.582	681.0621	741.439	748.7943	793.9193	804.6465	922.8	951.928	960.8646	994.5607	1009.9021	1014.129	1024.1983	1065.7581	1080.6811	1120.2014	1145.6324	1157.3504	1177.0554	1199.7538	1226.442	1248.2974	1263.6064	1279.7574	1302.3901	1341.7343	1387.4748	1431.0267	1476.431	1484.1229	1493.9485	1499.1683	1501.1938	1757.8098	3002.9151	3017.6605	3044.7515	3063.8861	3076.6723	3095.8848	3114.6952	3120.5607	3144.6757	3161.3359	3177.2159
COC=NC1C2CCC12	COC=N[C@H]1[C@H]2CC[C@@H]12	
InChI=1S/C7H11NO/c1-9-4-8-7-5-2-3-6(5)7/h4-7H,2-3H2,1H3	InChI=1S/C7H11NO/c1-9-4-8-7-5-2-3-6(5)7/h4-7H,2-3H2,1H3/t5-,6+,7-
