17
gdb 90992	2.74021	1.87771	1.35764	4.192	67.02	-0.225	0.0565	0.2814	941.8225	0.136022	-458.893723	-458.886359	-458.885415	-458.925188	29.823	
O	-0.071343417	 1.3838906066	-0.1090976351	-0.449272
C	 0.0329798845	-0.032056655	 0.0041906273	 0.018456
C	 0.5439366767	-0.5588757671	 1.3737671429	-0.289756
C	-0.7012214686	-1.3030008689	 1.8490612936	-0.041763
C	-1.4184365584	-1.9869101644	 0.6419619812	-0.011288
O	-2.7297862838	-1.7385019829	 1.2503181045	-0.320786
C	-1.9701796631	-0.4983592991	 1.4723024882	-0.01354
C	-1.3902282803	-0.5716873195	 0.0062270134	 0.461246
O	-2.163602938	-0.3008672892	-1.1022077145	-0.494169
H	 0.8037096209	 1.7476625708	-0.2729788395	 0.291111
H	 0.6059520811	-0.4386888394	-0.8406103197	 0.075259
H	 1.4175907342	-1.2109388815	 1.278625093	 0.10313
H	 0.8077355437	 0.2747763153	 2.0319035126	 0.108772
H	-0.7058421103	-1.8374639418	 2.7965217091	 0.086333
H	-1.2422209691	-2.9586781008	 0.1793357303	 0.091119
H	-2.4631168211	 0.3213242669	 1.9938310923	 0.094318
H	-1.9821602514	 0.61750978	-1.3394959094	 0.29083
110.6192	238.457	287.9147	315.2913	340.376	391.2562	414.8114	505.8572	527.6316	671.1824	690.6723	700.9202	777.1449	816.773	874.3747	902.5207	914.8134	928.8098	988.9759	1013.5424	1048.8448	1056.2084	1094.3874	1139.9838	1149.9875	1170.5774	1193.8649	1210.9203	1225.2089	1253.2389	1278.6549	1298.8604	1329.9138	1348.9345	1419.8224	1436.1097	1485.0493	3005.4894	3049.8642	3096.3062	3113.6866	3126.7925	3152.0791	3779.4599	3830.5768
OC1CC2C3OC2C13O	O[C@H]1C[C@@H]2[C@H]3O[C@@H]2[C@@]13O	
InChI=1S/C6H8O3/c7-3-1-2-4-6(3,8)5(2)9-4/h2-5,7-8H,1H2	InChI=1S/C6H8O3/c7-3-1-2-4-6(3,8)5(2)9-4/h2-5,7-8H,1H2/t2-,3-,4-,5+,6-/m0/s1
