21
gdb 118861	3.08569	0.81949	0.72427	3.0521	76.95	-0.2432	0.0744	0.3177	1625.8798	0.179664	-461.322418	-461.311791	-461.310847	-461.358536	38.023	
C	 0.0232365198	 1.3238994564	-0.2465349385	-0.2266
O	 0.2640981254	-0.0601858589	-0.1508170477	-0.249324
C	 0.5453777018	-0.4910986548	 1.1714982098	-0.136857
C	 0.5862581779	-1.9983155432	 1.1298406051	 0.396772
O	-0.6138072566	-2.5405506892	 0.6482432436	-0.478385
C	 1.8700036407	-2.7235031392	 0.7980581536	-0.336699
C	 1.2551918027	-2.8319322801	 2.1809161315	-0.041116
C	 1.9403992171	-2.2617005096	 3.3946777831	-0.110449
O	 2.8960637895	-3.2167890494	 3.8381020069	-0.415989
H	 0.8993530536	 1.9117542896	 0.0684315705	 0.106968
H	-0.1922213662	 1.5471888649	-1.2942221279	 0.129609
H	-0.836369003	 1.6321460138	 0.3688486453	 0.108242
H	 1.4967854078	-0.0643293946	 1.5222142286	 0.087486
H	-0.2535920773	-0.1533174632	 1.8523138492	 0.09245
H	-0.7933286393	-2.0747589197	-0.1784772169	 0.286761
H	 1.795164426	-3.5849878648	 0.1454249889	 0.11713
H	 2.7806331397	-2.1419114697	 0.6935907173	 0.109284
H	 0.7324147599	-3.7633917704	 2.3779005685	 0.106853
H	 2.4283701656	-1.3050716507	 3.1492454624	 0.079181
H	 1.196250363	-2.0560264068	 4.1811398429	 0.089921
H	 3.278074412	-2.8960974904	 4.6605866635	 0.284763
65.4854	86.7662	103.8552	119.7925	186.042	227.9661	234.0974	264.4326	311.6866	343.6792	400.936	419.81	441.1674	475.1021	607.1073	752.5779	866.6041	885.2222	928.3916	943.7531	989.8966	1013.1554	1037.0116	1056.3263	1075.8917	1112.0344	1153.5688	1164.4911	1183.7812	1220.2952	1222.4913	1253.653	1277.9195	1288.1383	1301.4188	1362.8055	1405.4175	1437.7507	1468.3353	1479.1074	1485.7823	1499.2223	1509.2321	1517.9864	1522.5928	2959.8787	2966.076	2976.7343	2988.1471	3013.9157	3020.6314	3115.3507	3132.8133	3158.603	3227.1296	3776.7317	3824.5358
COCC1(O)CC1CO	COC[C@@]1(O)C[C@H]1CO	
InChI=1S/C6H12O3/c1-9-4-6(8)2-5(6)3-7/h5,7-8H,2-4H2,1H3	InChI=1S/C6H12O3/c1-9-4-6(8)2-5(6)3-7/h5,7-8H,2-4H2,1H3/t5-,6-/m0/s1
