19
gdb 116754	4.91534	0.65843	0.58702	3.7384	78.09	-0.2349	0.0256	0.2606	1875.5762	0.156429	-456.330351	-456.319537	-456.318592	-456.368553	35.81	
C	 0.1992219251	 1.0452259306	 0.3644604	-0.246996
O	-0.2120089024	 0.1858570167	-0.6900069125	-0.196323
C	 0.6596439262	-0.8032100347	-0.9945189891	 0.121013
N	 0.356391741	-1.6014441928	-1.9200763946	-0.254836
C	 1.1862264549	-2.6948351435	-2.347173277	-0.207906
C	 2.5375846228	-3.0213899486	-1.727816098	 0.40204
N	 3.087580424	-2.3829717716	-0.780311138	-0.54369
O	 3.0244263515	-4.1128231546	-2.3829231245	-0.224916
C	 4.2887338061	-4.6206447781	-1.9865552432	-0.264416
H	 0.3317148814	 0.496456979	 1.3051124478	 0.124655
H	 1.133063475	 1.5666692068	 0.1203991574	 0.124656
H	-0.5964473234	 1.7809271313	 0.4908641188	 0.139161
H	 1.5731613142	-0.8253258814	-0.3976386613	 0.129676
H	 0.5942837822	-3.6187419625	-2.2797860602	 0.136723
H	 1.3696054083	-2.5828550391	-3.4253253764	 0.136728
H	 3.9927024885	-2.7663551052	-0.5140727522	 0.216819
H	 4.2807269683	-4.9471555428	-0.9392892104	 0.131507
H	 4.4843475331	-5.4797656347	-2.6290543791	 0.144597
H	 5.082803733	-3.8767686247	-2.1263391877	 0.131509
21.9225	47.6574	82.737	118.2843	130.3812	147.1552	209.0815	227.5414	275.601	335.9857	375.6867	440.2751	530.853	601.3153	692.6169	855.2225	881.1144	975.5	977.513	1037.4019	1055.8897	1083.4108	1124.2285	1174.2108	1178.537	1182.7231	1215.4514	1270.8825	1284.4911	1288.9699	1403.7153	1409.945	1451.4238	1472.4936	1487.739	1491.6	1494.4488	1502.424	1505.4948	1730.0868	1781.6378	3010.6708	3011.9562	3013.6825	3026.47	3072.9732	3075.1336	3117.6961	3138.4102	3144.0939	3499.805
COC=NCC(=N)OC	COC=NC[C]([NH])OC	
InChI=1S/C5H10N2O2/c1-8-4-7-3-5(6)9-2/h4,6H,3H2,1-2H3	InChI=1S/C5H10N2O2/c1-8-4-7-3-5(6)9-2/h4,6H,3H2,1-2H3
