19
gdb 109077	3.43624	1.20662	1.15095	2.2042	75.72	-0.2309	0.0222	0.2532	1146.8949	0.161047	-423.019837	-423.011989	-423.011045	-423.052428	30.458	
O	-0.0017029541	 1.4101921859	-0.0908560229	-0.411507
C	-0.0254362904	 0.0011441008	 0.0491510656	-0.204379
C	-1.4338967959	-0.4718749485	 0.1105762763	 0.353263
C	-2.576434715	 0.2168004908	 0.1193192109	-0.193013
C	-3.6791497691	-0.8306820647	 0.0431040646	 0.019461
C	-3.6910556502	-1.3843063801	-1.420348468	-0.20991
C	-2.3557786254	-2.1851505862	-1.4325274383	-0.217554
C	-1.8587684437	-1.9386028982	 0.030898919	-0.046261
O	-3.0941932756	-1.9351480683	 0.7510823639	-0.247845
H	 0.9108228066	 1.7028861573	-0.0134410862	 0.289872
H	 0.4889116852	-0.496676788	-0.7938004644	 0.095035
H	 0.5077281545	-0.3209053057	 0.9614025185	 0.101599
H	-2.7056232434	 1.2878803578	 0.0659220365	 0.113727
H	-4.6509205071	-0.5761669349	 0.464488279	 0.077175
H	-4.5499228735	-2.0432869657	-1.5684170291	 0.103266
H	-3.730989083	-0.5898913691	-2.1683945857	 0.10128
H	-2.5332641522	-3.2510079566	-1.5931612693	 0.103838
H	-1.6430121262	-1.8379810097	-2.184384247	 0.099159
H	-1.1766367214	-2.6874695967	 0.4349222365	 0.072793
75.3672	156.3527	180.1819	239.2912	257.5646	379.3237	430.3306	525.9017	604.7401	646.2338	759.4841	810.4827	827.1804	835.1817	866.7619	892.2783	898.4458	935.3085	957.0853	987.178	1034.048	1044.0633	1053.7274	1076.2113	1130.6997	1168.8487	1196.8038	1211.2063	1230.3486	1246.0379	1248.5175	1269.3049	1292.3409	1322.7259	1327.3004	1348.229	1466.3103	1481.5351	1500.0416	1504.8699	1704.7998	2931.3256	2948.4708	3062.5366	3072.4566	3106.0606	3114.7078	3123.6811	3129.4979	3245.2685	3834.759
OCC1=CC2CCC1O2	OCC1=C[C@H]2CC[C@@H]1O2	
InChI=1S/C7H10O2/c8-4-5-3-6-1-2-7(5)9-6/h3,6-8H,1-2,4H2	InChI=1S/C7H10O2/c8-4-5-3-6-1-2-7(5)9-6/h3,6-8H,1-2,4H2/t6-,7+/m1/s1
