16
gdb 73612	2.3428	1.6596	1.32264	4.1795	69.13	-0.2673	0.0261	0.2934	999.8041	0.124848	-437.881358	-437.873486	-437.872542	-437.91364	29.804	
O	-0.0449952439	 1.3508530747	-0.0175101556	-0.458477
C	 0.009303574	-0.0318786177	-0.0427868224	 0.365556
C	 0.9229039971	-0.7239831461	-1.0471477806	-0.156744
O	 0.3830294452	-2.0232038142	-1.224818789	-0.243573
C	-1.0255954387	-1.9739567713	-1.0053259399	-0.100736
C	-1.2442697769	-0.8450418953	-0.0180294364	-0.123825
C	-0.3455987185	-0.8156312687	 1.221435032	-0.274568
C	 0.4012384341	-1.9516460853	 1.6828472055	 0.314984
N	 1.0055616845	-2.8480566617	 2.0954667367	-0.35111
H	 0.7710503778	 1.6845423215	 0.3725568857	 0.296304
H	 0.9086915781	-0.1323121749	-1.9763934838	 0.108931
H	 1.9592921206	-0.842067329	-0.7147582759	 0.123816
H	-1.5713090645	-1.7547474251	-1.9362380115	 0.107728
H	-1.3313398226	-2.9591144535	-0.6418432301	 0.132645
H	-2.2168450219	-0.3770259155	 0.0691360538	 0.119429
H	-0.7282583844	-0.1856759277	 2.0182958814	 0.139641
119.0249	135.7342	222.7603	236.346	312.4011	352.3527	374.1996	412.0977	544.9742	558.6598	599.0583	712.6011	732.118	849.0829	895.5918	931.2512	938.4509	990.1222	1028.8276	1070.0098	1095.1744	1101.9942	1122.6757	1194.5928	1227.4579	1242.902	1267.0088	1322.6684	1329.7976	1359.9202	1371.9704	1470.7382	1507.2447	1519.4451	2350.0894	2983.3882	2989.8274	3077.1392	3089.0179	3167.0887	3200.658	3795.4447
OC12COCC1C2C#N	O[C@]12COC[C@H]1[C@H]2C#N	
InChI=1S/C6H7NO2/c7-1-4-5-2-9-3-6(4,5)8/h4-5,8H,2-3H2	InChI=1S/C6H7NO2/c7-1-4-5-2-9-3-6(4,5)8/h4-5,8H,2-3H2/t4-,5+,6+/m1/s1
