14
gdb 128964	4.00257	1.71975	1.20291	4.3572	77.91	-0.2255	-0.0493	0.1761	940.8777	0.106712	-395.790949	-395.785175	-395.784231	-395.820948	23.638	
N	 0.0233059271	 1.3124587856	 0.0094119584	-0.15047
C	 1.2445910241	 1.8869782761	 0.0006698974	-0.187235
C	 2.1463797409	 0.8255470812	-0.0141791823	 0.219941
C	 3.546882807	 0.6563400431	-0.0288799374	-0.221345
C	 4.0102494016	-0.6342675021	-0.0407370074	-0.115193
C	 3.0909304315	-1.7258201734	-0.037895902	-0.025581
N	 1.781495274	-1.6199703393	-0.0244419801	-0.320502
C	 1.3133600716	-0.3491922279	-0.0126497547	 0.374026
N	 0.0062431375	-0.0292310602	 0.0020006638	-0.317543
H	-0.8620227456	 1.7939188559	 0.0208212534	 0.285084
H	 1.3719754993	 2.9575695299	 0.0054749061	 0.144857
H	 4.2233925802	 1.5048978779	-0.0307183373	 0.105792
H	 5.0733022994	-0.8464560328	-0.0523746668	 0.100641
H	 3.4900306314	-2.7387655139	-0.047545381	 0.10753
225.6369	262.8803	449.54	450.5387	559.5857	595.3926	622.9911	635.972	688.3009	736.6941	776.1291	805.6112	836.6459	919.0761	942.8527	970.9819	987.1963	1034.9246	1080.8861	1145.54	1203.1177	1260.6324	1308.0689	1367.0849	1382.9028	1408.1545	1448.8567	1500.042	1549.6232	1587.3698	1660.9008	3140.931	3178.275	3201.3889	3263.6679	3652.6308
N1C=C2C=CC=NC2=N1	[nH]1cc2cccnc2n1	
InChI=1S/C6H5N3/c1-2-5-4-8-9-6(5)7-3-1/h1-4H,(H,7,8,9)	InChI=1S/C6H5N3/c1-2-5-4-8-9-6(5)7-3-1/h1-4H,(H,7,8,9)
