14
gdb 11936	3.32385	1.84372	1.509	4.1549	64.46	-0.2303	0.0046	0.2349	848.9048	0.107253	-378.677729	-378.670349	-378.669404	-378.709361	27.247	
O	 0.0478208244	 1.4340398127	 0.0815979234	-0.437782
C	-0.007666592	 0.0662864257	 0.0447195859	 0.327077
C	-0.2960383382	-0.7578113996	-1.1668517803	-0.372622
C	-1.1857508794	-0.9521615623	 0.0495756605	 0.177015
N	-0.458304945	-1.8297635422	 0.9955727362	-0.361448
C	 0.608246352	-0.7776108315	 1.155730808	-0.217206
C	-2.5953541668	-0.7918574951	 0.0438315409	 0.180909
N	-3.7449384415	-0.6472283346	 0.0640055583	-0.351661
H	 0.1484787243	 1.7770164616	-0.8121246386	 0.300299
H	-0.7731870781	-0.2135411777	-1.9775242204	 0.136345
H	 0.3460535555	-1.5821095674	-1.468842968	 0.134387
H	-0.9846170777	-1.9321451325	 1.8581151049	 0.239354
H	 1.6267554611	-1.1463089666	 0.9976049726	 0.116228
H	 0.5489959413	-0.2560490006	 2.1152023767	 0.129105
109.8268	148.562	165.7769	270.1503	368.0872	386.0791	431.0676	549.8178	572.7017	619.1254	694.4303	762.1087	811.2727	828.8376	956.162	956.9472	1000.6515	1039.7976	1085.0065	1116.5425	1155.3643	1198.6815	1261.7207	1290.474	1351.5478	1407.3425	1413.6662	1479.6038	1511.5049	2334.7318	3048.0127	3104.1509	3104.5627	3201.9731	3520.7119	3821.7457
OC12CC1(NC2)C#N	O[C@]12C[C@]1(NC2)C#N	
InChI=1S/C5H6N2O/c6-2-4-1-5(4,8)3-7-4/h7-8H,1,3H2	InChI=1S/C5H6N2O/c6-2-4-1-5(4,8)3-7-4/h7-8H,1,3H2/t4-,5-/m0/s1
