21
gdb 80042	2.69328	1.54411	1.32949	0.2273	88.5	-0.2118	0.0211	0.2329	1081.8418	0.183659	-349.941928	-349.933864	-349.93292	-349.974079	32.785	
C	-0.1131456179	 1.5519566968	-0.0847545289	-0.41286
C	 0.0443338897	 0.0530332472	 0.0304706751	-0.007486
C	 1.3503599727	-0.6981865518	-0.2104500663	-0.117409
C	 2.6231951523	 0.0693275086	-0.0878350242	-0.095339
C	 2.7999614111	 0.5378856416	 1.1525041704	-0.159169
C	 1.6943674492	 0.1157503584	 2.0579133019	 0.372748
C	 1.9698448136	-0.3112581609	 3.4866535931	-0.325701
C	 1.2391864509	 0.9753574926	 3.2230515561	-0.307726
C	 0.7247419633	-0.6514620337	 1.1827918676	-0.165856
H	 0.7890569565	 2.0835868016	 0.2239908071	 0.126015
H	-0.3342117683	 1.8387643687	-1.11907569	 0.110126
H	-0.941016972	 1.9044952778	 0.5405429092	 0.111198
H	-0.8200226836	-0.4965902181	-0.3375204002	 0.080338
H	 1.3200717606	-1.5874640173	-0.8316936974	 0.080658
H	 3.2931708118	 0.2378912745	-0.923033004	 0.091761
H	 3.617094488	 1.1687658121	 1.4860355908	 0.090702
H	 1.4028237715	-1.1537384131	 3.8703614257	 0.112637
H	 2.9930992886	-0.2620248036	 3.8437649048	 0.111109
H	 1.7621405393	 1.9095360107	 3.4000570057	 0.110671
H	 0.175317575	 1.0147524526	 3.4304626077	 0.115168
H	 0.2369685678	-1.5226319148	 1.6075159459	 0.078413
109.3608	178.3518	192.109	266.7278	284.3517	292.122	455.7907	485.872	529.0283	641.6522	725.0553	740.4018	765.8076	778.8139	798.5443	848.6141	897.2168	909.2799	933.2562	941.2463	952.8001	974.336	991.3239	1019.662	1055.5371	1057.4663	1074.0515	1087.9445	1111.0004	1122.4681	1138.0754	1191.8977	1222.0654	1272.7047	1281.1505	1334.2964	1363.1457	1397.2476	1416.9942	1427.8578	1466.0766	1495.3335	1498.2066	1499.8455	1654.7611	3031.1495	3084.4223	3115.6725	3123.0628	3128.6515	3132.1859	3151.3842	3161.8123	3180.2533	3203.2017	3206.2651	3219.2797
CC1C2C=CC3(CC3)C12	C[C@H]1[C@H]2C=CC3(CC3)[C@@H]12	
InChI=1S/C9H12/c1-6-7-2-3-9(4-5-9)8(6)7/h2-3,6-8H,4-5H2,1H3	InChI=1S/C9H12/c1-6-7-2-3-9(4-5-9)8(6)7/h2-3,6-8H,4-5H2,1H3/t6-,7+,8-/m0/s1
