15
gdb 19115	4.62621	2.2365	2.18009	1.5023	62.52	-0.2238	0.0579	0.2817	681.5781	0.120687	-362.559417	-362.553708	-362.552764	-362.588926	23.351	
O	-0.0678690205	 1.5134425484	 0.0128785954	-0.436977
C	 0.0055501197	 0.1143806548	 0.0475240148	 0.139891
C	 0.2127654765	-0.6384636348	 1.3814529915	-0.075007
C	-0.9313069421	-0.2659567636	 2.3287350014	-0.081766
C	-2.0991292453	-0.2575900863	 1.3216574565	-0.078713
C	-1.6625161966	-1.5280113862	 1.9848202365	-0.024713
N	-0.6798475607	-1.7828873643	 0.8429195229	-0.197332
C	-1.3342322918	-0.6273077982	 0.0463481	-0.044266
H	 0.8256166685	 1.8683722125	-0.0219788346	 0.287195
H	 0.6665828671	-0.3002783455	-0.7263388549	 0.08359
H	 1.1952039509	-0.8923324408	 1.7804166429	 0.070534
H	-0.9374401153	 0.3227940677	 3.2356716877	 0.091603
H	-2.990315507	 0.3379276145	 1.463433825	 0.093736
H	-2.1668225517	-2.2906554871	 2.56432014	 0.095723
H	-1.8771863217	-0.865394071	-0.8675636952	 0.076502
188.7654	249.3677	295.9108	566.2615	610.4731	755.9795	767.071	782.3768	801.6525	806.1522	827.6185	864.4358	904.3449	919.9351	967.1181	990.8918	998.8693	1019.2841	1033.5284	1060.9475	1087.3769	1148.3377	1154.5996	1165.5202	1183.9817	1221.4749	1227.2258	1266.0161	1304.9298	1319.8967	1367.6926	1432.0293	3015.6304	3110.5374	3123.4722	3188.9068	3205.0651	3217.3829	3824.2581
OC1C2C3C4C3N2C14	O[C@H]1[C@H]2[C@H]3[C@@H]4[C@H]3N2[C@H]14	
InChI=1S/C6H7NO/c8-6-4-1-2-3(1)7(4)5(2)6/h1-6,8H	InChI=1S/C6H7NO/c8-6-4-1-2-3(1)7(4)5(2)6/h1-6,8H/t1-,2+,3-,4+,5-,6-
