18
gdb 50164	5.36164	0.85166	0.83208	2.7536	74.6	-0.2478	0.0187	0.2666	1386.6986	0.147401	-439.064753	-439.056093	-439.055148	-439.101211	30.07	
O	-0.007956811	 0.0477162989	 0.7165270356	-0.329909
C	 0.0278455976	 1.2396245607	 0.4882621513	 0.135043
N	 1.1132384073	 1.8941894225	 0.0227377714	-0.043519
C	 2.4246861515	 1.3860719366	-0.3725602544	-0.239824
C	 2.7950858561	 2.8237016755	-0.8272604289	 0.258665
C	 4.062069129	 3.5420147782	-0.3306263725	-0.126432
O	 4.5045157325	 3.7961256255	-1.6781252705	-0.270286
C	 3.3537026987	 3.1263901318	-2.228698401	-0.126216
C	 1.3720207336	 3.2732620305	-0.3935164154	-0.250209
H	-0.8331978562	 1.9225959187	 0.6432935483	 0.069339
H	 3.0159250696	 0.9867595568	 0.4591260253	 0.12634
H	 2.3851928995	 0.6349313506	-1.1695409732	 0.126855
H	 3.8911146982	 4.4699744683	 0.2307882097	 0.106133
H	 4.769479171	 2.9129542527	 0.2256571559	 0.109103
H	 3.6318324967	 2.2455702897	-2.8221933868	 0.109197
H	 2.7419444243	 3.7958335876	-2.847645688	 0.106006
H	 0.732469309	 3.6277217315	-1.2111480669	 0.119785
H	 1.3465804328	 4.0060164639	 0.4221531302	 0.119929
6.8936	60.7293	85.8256	173.3298	245.7145	323.7923	362.5111	373.9233	420.9076	613.7045	805.4728	858.9302	876.032	883.7057	902.1522	945.7928	990.7044	1012.739	1035.1171	1043.2871	1136.7577	1148.1617	1152.0826	1158.2316	1179.3299	1207.965	1226.9157	1230.788	1288.4414	1310.5892	1344.6955	1381.41	1405.9808	1455.9042	1501.8992	1505.4655	1519.5197	1532.4882	1792.4308	2919.3436	2997.7273	3009.6158	3014.427	3031.1031	3046.3869	3047.8803	3059.9361	3074.8127
O=CN1CC2(COC2)C1	O=CN1CC2(COC2)C1	
InChI=1S/C6H9NO2/c8-5-7-1-6(2-7)3-9-4-6/h5H,1-4H2	InChI=1S/C6H9NO2/c8-5-7-1-6(2-7)3-9-4-6/h5H,1-4H2
