20
gdb 111911	2.61426	1.22436	0.89442	3.2686	84.19	-0.1999	0.0036	0.2036	1358.8181	0.170253	-403.210075	-403.200583	-403.199639	-403.244829	34.625	
C	-0.1831277841	 1.5751656294	-0.0319106762	-0.375913
C	 0.1012472497	 0.0715000086	 0.023708178	-0.162168
N	 0.715933133	-0.4417720243	-1.1857584768	-0.079283
C	 0.0700619944	-0.6490777457	-2.4198752857	-0.107515
C	 0.9000901917	-1.1193080102	-3.3586806738	 0.242196
C	 0.5847590243	-1.464723542	-4.7753619025	-0.488114
C	 2.264949798	-1.2531947328	-2.7252639191	-0.452354
C	 2.0547698229	-0.7814678039	-1.2786716291	 0.412447
O	 2.8662693204	-0.7100407599	-0.3805773101	-0.389865
H	 0.7440001662	 2.1365873387	-0.177573128	 0.136127
H	-0.8655577238	 1.8236430226	-0.8512410711	 0.117677
H	-0.6440745898	 1.9077423377	 0.9034012492	 0.120233
H	 0.8024593007	-0.1525628059	 0.8316725183	 0.144815
H	-0.8239786052	-0.4849658417	 0.2179141696	 0.107802
H	-0.9864010704	-0.4300114465	-2.5011999719	 0.119034
H	-0.4708484782	-1.2860339844	-5.0011804946	 0.122388
H	 1.1826060769	-0.8721170046	-5.4802467635	 0.125037
H	 0.8001387282	-2.5188345086	-4.9940661585	 0.125118
H	 2.649142	-2.2803346868	-2.725293414	 0.1413
H	 3.0332018151	-0.6345640595	-3.2049134699	 0.141039
52.5269	88.5914	144.8218	186.2062	201.5966	258.4543	273.4991	318.8568	375.4003	445.9104	517.5171	559.5396	599.1461	642.8003	780.3766	821.2839	840.9064	904.192	939.2744	943.7288	1010.2563	1059.5997	1062.0041	1095.3857	1129.612	1154.2172	1180.1125	1230.582	1262.7678	1327.0125	1373.9331	1397.4326	1404.9936	1414.5651	1423.9857	1435.4868	1476.0263	1482.2675	1492.607	1496.6951	1502.1807	1714.9841	1811.1806	3010.0324	3029.4565	3038.6118	3039.2692	3052.0733	3071.0884	3097.7641	3101.129	3114.3768	3123.4808	3222.7804
CCN1C=C(C)CC1=O	CCN1C=C(C)CC1=O	
InChI=1S/C7H11NO/c1-3-8-5-6(2)4-7(8)9/h5H,3-4H2,1-2H3	InChI=1S/C7H11NO/c1-3-8-5-6(2)4-7(8)9/h5H,3-4H2,1-2H3
