23
gdb 74554	3.47775	1.11464	1.0886	0.2818	92.57	-0.2124	0.0275	0.2399	1288.5575	0.205186	-351.172019	-351.16265	-351.161706	-351.205284	36.808	
C	 0.0030403232	 1.5075056001	 0.0434488895	-0.489822
C	 0.0368596972	 0.01378962	-0.0338610926	 0.320043
C	-0.0094835101	-0.747639531	-1.1344031056	-0.188399
C	-0.0127917174	-2.2034131073	-0.8269010868	-0.116543
C	 0.0462832089	-2.2852011401	 0.6971477883	-0.092234
C	 0.1047866763	-0.8483569591	 1.2170569632	-0.333208
C	-1.1831955733	-2.7854478138	-0.0311848449	 0.337418
C	-2.5163237144	-2.0740697845	 0.0733085752	-0.460324
C	-1.315470086	-4.2975977057	-0.0994777983	-0.449354
H	 0.8791646613	 1.8972343047	 0.5783999727	 0.121408
H	-0.0175685202	 1.9619182334	-0.9510209401	 0.121737
H	-0.8774049416	 1.862823187	 0.5946853807	 0.123147
H	-0.0631627441	-0.3610584034	-2.1470601387	 0.081837
H	 0.5427398816	-2.8845687431	-1.4648696115	 0.074489
H	 0.6652735546	-3.0290170172	 1.1874540589	 0.074891
H	 1.0326559312	-0.6625765628	 1.7759289393	 0.10086
H	-0.715631891	-0.6144253272	 1.9104776497	 0.103405
H	-2.4164672153	-0.9882505806	 0.0256256463	 0.119774
H	-3.1810737387	-2.3815014249	-0.7427515781	 0.109084
H	-3.0168725396	-2.3283328149	 1.0156724002	 0.108581
H	-1.8095217553	-4.6904119591	 0.7975123264	 0.11148
H	-1.9137283876	-4.6018098296	-0.9665952153	 0.111614
H	-0.3381073797	-4.7839049511	-0.1808235986	 0.110118
121.8989	170.38	186.9396	191.657	222.8686	262.1234	306.4543	342.1084	348.9766	413.1521	449.6222	505.6484	624.8359	674.6105	731.6774	813.1553	845.2966	859.392	882.7971	951.9974	961.4954	969.6241	990.5685	998.2653	1022.6628	1049.4322	1061.423	1094.1937	1101.989	1151.2593	1181.3001	1194.6667	1226.5125	1285.1679	1315.5228	1317.5274	1351.0752	1405.2732	1406.6746	1415.1882	1424.4576	1474.8949	1478.1018	1485.0733	1489.3062	1490.3653	1504.284	1508.6734	1704.5925	3002.1256	3012.9086	3016.9371	3023.6852	3025.4694	3055.2682	3073.4905	3077.7718	3095.3044	3107.0416	3124.3402	3145.2788	3159.4968	3182.1116
CC1=CC2C(C1)C2(C)C	CC1=C[C@H]2[C@@H](C1)C2(C)C	
InChI=1S/C9H14/c1-6-4-7-8(5-6)9(7,2)3/h4,7-8H,5H2,1-3H3	InChI=1S/C9H14/c1-6-4-7-8(5-6)9(7,2)3/h4,7-8H,5H2,1-3H3/t7-,8+/m0/s1
