17
gdb 70964	4.1467	1.23036	1.11267	3.3531	77.82	-0.2573	0.0089	0.2663	1110.7612	0.13657	-380.826218	-380.818561	-380.817617	-380.85812	29.785	
C	-0.1130025796	 1.4903674078	-0.0181801831	-0.496986
C	-0.0028579768	 0.0004284871	-0.0632073132	 0.340295
C	 0.8852794801	-0.8492134879	-0.9752915928	-0.323797
C	 0.0850251073	-2.0719833558	-0.4363796789	 0.176531
C	 0.4633449078	-2.0607782395	 1.0628822878	-0.186508
N	-0.255505804	-0.7606443611	 1.2202276503	-0.177526
C	-1.050192678	-1.0483748076	-0.0045466118	-0.142541
C	-0.0509972704	-3.2803980588	-1.2025419848	 0.152957
N	-0.1703171396	-4.257539338	-1.8103999321	-0.340235
H	 0.8190185797	 1.9383199627	 0.3432964243	 0.131594
H	-0.3220235284	 1.8968809124	-1.0130238174	 0.125786
H	-0.9160091568	 1.7931130517	 0.6585363122	 0.141001
H	 0.6625729658	-0.6521904251	-2.0262716838	 0.127867
H	 1.968212543	-0.8620077421	-0.8150233966	 0.11113
H	-0.0580101588	-2.8250936047	 1.6423670185	 0.131651
H	 1.5294640993	-2.0523861685	 1.313267739	 0.113334
H	-2.1305853708	-1.0631077226	-0.0645678976	 0.115449
133.8689	148.7405	193.7904	267.072	307.788	419.9591	452.9736	494.5354	547.4013	555.4703	619.7775	710.3413	752.2175	841.0806	907.1988	920.8994	962.8673	973.5159	1002.5397	1018.8348	1029.1491	1087.3977	1107.0381	1144.5857	1155.4281	1162.5357	1201.6069	1253.1917	1275.7314	1322.7589	1397.8136	1437.1412	1484.7591	1490.5556	1494.9011	1514.8796	2348.7421	3036.7581	3046.2203	3053.317	3099.4572	3119.1956	3123.5378	3123.7119	3206.1644
CC12CC3(CN1C23)C#N	C[C@@]12C[C@]3(CN1[C@@H]23)C#N	
InChI=1S/C7H8N2/c1-6-2-7(3-8)4-9(6)5(6)7/h5H,2,4H2,1H3	InChI=1S/C7H8N2/c1-6-2-7(3-8)4-9(6)5(6)7/h5H,2,4H2,1H3/t5-,6-,7+,9?/m0/s1
