13
gdb 18429	3.35417	2.07149	1.73804	4.5462	58.57	-0.2495	-0.0486	0.2009	765.7881	0.09533	-398.591446	-398.584707	-398.583763	-398.622752	24.498	
O	-0.8177202512	 1.2181796457	-0.0964126101	-0.253423
C	 0.2931086069	 0.9843354356	 0.3122963665	 0.149564
C	 1.4560814634	 1.9246963816	 0.2333653113	-0.122657
C	 1.3608107402	 3.3516455547	-0.2026833614	-0.023508
N	 0.0939932529	 3.9807758684	 0.1882273285	-0.335273
C	 0.3123547712	 3.6935578798	 1.5533309075	 0.430729
O	-0.352813602	 3.8823458463	 2.5276691201	-0.325001
C	 1.6759587584	 3.0728855811	 1.2536098123	-0.247683
H	 0.5317492918	 0.0098899445	 0.7916954679	 0.091813
H	 2.3959303245	 1.4219506483	 0.0082477554	 0.121391
H	 1.9974118337	 3.8041323304	-0.9515583471	 0.125309
H	-0.7787210174	 3.7133971903	-0.2539668779	 0.261019
H	 2.5995648475	 3.1641099632	 1.807152417	 0.127719
79.7884	139.2334	209.6064	314.9133	394.6053	458.2489	615.3836	699.0321	739.208	791.9393	824.3447	836.5331	863.8277	921.0806	949.0051	1018.3506	1047.3531	1062.8669	1098.3653	1138.4619	1143.0175	1258.7934	1316.5642	1343.581	1414.2071	1429.9126	1812.1525	1909.5329	2894.7455	3129.4929	3205.4849	3227.7521	3557.5644
O=CC1C2NC(=O)C12	O=C[C@H]1[C@H]2NC(=O)[C@@H]12	
InChI=1S/C5H5NO2/c7-1-2-3-4(2)6-5(3)8/h1-4H,(H,6,8)	InChI=1S/C5H5NO2/c7-1-2-3-4(2)6-5(3)8/h1-4H,(H,6,8)/t2-,3+,4-/m1/s1
