20
gdb 17811	3.96373	1.41976	1.28869	2.0497	74.71	-0.2327	0.0766	0.3094	1045.7106	0.176472	-348.936819	-348.928805	-348.927861	-348.969205	30.859	
C	-0.1404282282	 1.490661486	 0.001724556	-0.383558
C	-0.1704099856	-0.0447843274	 0.0503794785	-0.025971
C	-1.6144473732	-0.5696276279	 0.0382234918	-0.383553
C	 0.611360832	-0.6248946498	-1.1245675601	 0.077578
C	 2.1661159159	-0.6394542762	-1.2217519095	 0.020885
C	 2.2470309401	-1.7788168143	-0.1771433239	-0.231647
C	 1.1253275067	-2.0937793517	-1.1962015817	 0.020884
O	 2.0452940961	-1.6713751848	-2.2794272088	-0.310591
H	 0.8836864769	 1.8747207583	 0.0502399073	 0.113272
H	-0.591211252	 1.8610131249	-0.926471355	 0.115777
H	-0.7004537314	 1.9213454448	 0.8381405602	 0.111685
H	 0.2928401299	-0.3595000455	 0.993228438	 0.072613
H	-2.1260339283	-0.2843737985	-0.8885038178	 0.115776
H	-1.6462518943	-1.6614450304	 0.1129748834	 0.113272
H	-2.1888784412	-0.158973518	 0.8749439357	 0.111685
H	 0.166123266	-0.3230285021	-2.0789830881	 0.076855
H	 2.8599974274	 0.1821301652	-1.4045753707	 0.089779
H	 3.1302242378	-2.4124240289	-0.265366679	 0.10771
H	 1.9812643324	-1.5703848208	 0.8608618403	 0.097769
H	 0.568744113	-3.0195049328	-1.3483310865	 0.089779
66.2736	160.3415	218.2736	224.7447	260.0958	305.0158	424.9967	439.1849	534.5751	593.4905	731.2968	820.5438	857.5967	875.1994	891.2367	894.3595	924.1351	930.9984	969.7756	1010.8261	1012.4912	1059.0519	1086.7305	1135.7091	1144.7431	1172.0944	1175.7373	1202.5883	1202.8824	1226.249	1262.3881	1283.5465	1315.0255	1346.8242	1400.3715	1409.8691	1425.4505	1487.0936	1492.0546	1492.2072	1505.2169	1510.6441	3025.6393	3028.8468	3029.877	3057.88	3075.5746	3091.7416	3098.5314	3099.4635	3102.6356	3106.2941	3113.4771	3150.1765
CC(C)C1C2CC1O2	CC(C)[C@H]1[C@H]2C[C@@H]1O2	
InChI=1S/C7H12O/c1-4(2)7-5-3-6(7)8-5/h4-7H,3H2,1-2H3	InChI=1S/C7H12O/c1-4(2)7-5-3-6(7)8-5/h4-7H,3H2,1-2H3/t5-,6+,7+
