15
gdb 127549	3.25651	1.48858	1.02821	4.1695	74.52	-0.2228	-0.0388	0.184	1093.9704	0.114361	-450.147207	-450.139195	-450.138251	-450.180623	29.038	
C	 0.0202036456	 1.4429759177	-0.0092353474	-0.322526
N	 0.0253386333	-0.0135565867	 0.0267042437	-0.076977
N	-0.0363307293	-0.6588176346	-1.1801577196	-0.197039
C	-0.031658777	-1.9439850484	-1.1467281674	 0.016148
C	 0.0343407736	-2.7495325004	 0.0801129327	 0.306776
N	 0.0324042943	-4.0263562883	-0.0090310167	-0.539104
N	 0.0952105052	-2.0187521597	 1.2716595506	-0.446143
C	 0.0873778025	-0.7332902921	 1.1778587856	 0.524038
O	 0.143404235	 0.0323726682	 2.2784654355	-0.399831
H	 0.9327010958	 1.8476375743	 0.4366691598	 0.149345
H	-0.0358085153	 1.727255827	-1.0587178966	 0.161263
H	-0.8420917635	 1.8436484571	 0.5303295035	 0.149357
H	-0.0804845565	-2.4568385355	-2.1011931676	 0.145716
H	 0.0824326964	-4.4283785818	 0.9295558371	 0.213749
H	 0.1837510699	-0.5865229966	 3.0222181069	 0.315227
43.7326	88.7884	190.1734	216.4875	320.8191	363.0978	440.8023	499.0277	531.1865	547.6974	601.751	717.7835	743.1628	761.0112	804.1137	900.4865	953.3947	974.6374	1008.6562	1128.4564	1153.7625	1227.0972	1264.0849	1287.4992	1316.7677	1384.2938	1441.9779	1483.4374	1503.4226	1523.307	1626.7205	1684.1746	1701.7439	3052.246	3115.6327	3173.6588	3201.6933	3458.567	3763.3443
CN1N=CC(=N)N=C1O	CN1N=CC(=N[C@H]1O)[NH]	
InChI=1S/C4H6N4O/c1-8-4(9)7-3(5)2-6-8/h2H,1H3,(H2,5,7,9)	InChI=1S/C4H7N4O/c1-8-4(9)7-3(5)2-6-8/h2,4-5,9H,1H3/t4-/m1/s1
