21
gdb 38988	2.86933	1.64478	1.20332	1.9201	81.65	-0.2261	0.0781	0.3042	1080.7312	0.185294	-387.071299	-387.063923	-387.062979	-387.102801	30.626	
C	 0.0373945638	 1.4928852238	 0.1045121936	-0.369126
C	 1.3292231778	 0.7364604299	 0.0349749945	 0.048051
O	 1.6375873796	 0.1589134122	 1.3053645263	-0.306888
C	 0.4455610807	-0.6823600378	 1.2184441069	 0.08182
C	 0.8032420577	-2.1571895861	 1.0315820862	-0.21645
C	-0.2229123802	-2.8689224989	 0.134987528	-0.200479
C	-0.2681740715	-2.2218738626	-1.257953873	-0.188004
C	-0.7069073588	-0.7477831037	-1.181169984	-0.316409
C	 0.0150384773	-0.0086518747	-0.0881060664	 0.296508
H	-0.2630744719	 1.9468146998	 1.0458651559	 0.109898
H	-0.2217624814	 2.061092341	-0.7850674981	 0.108238
H	 2.1477787068	 0.9357976024	-0.6481929069	 0.0986
H	-0.2102241663	-0.5301023249	 2.0858179256	 0.073883
H	 1.789118808	-2.2018861324	 0.5548411311	 0.108358
H	 0.8950944725	-2.6524992131	 2.0037256321	 0.095821
H	 0.0347587504	-3.9300380123	 0.0506467508	 0.096757
H	-1.2207614444	-2.828075182	 0.5944895726	 0.094226
H	 0.7306787626	-2.2856082571	-1.7093137903	 0.097435
H	-0.947624766	-2.7737526478	-1.9164206815	 0.091224
H	-0.5631526953	-0.2471039981	-2.1459661011	 0.096319
H	-1.7872629014	-0.7101024377	-0.9776005221	 0.100218
133.4859	162.9047	295.8064	333.7325	365.0126	426.8552	450.6495	475.5315	539.4159	625.32	771.4663	791.1754	838.4501	858.1522	869.8309	896.5506	927.9105	958.2276	958.6865	998.2555	1005.6532	1023.3046	1049.3804	1072.1068	1083.0304	1102.2402	1124.6191	1159.4284	1164.0469	1217.3026	1271.8273	1279.3796	1287.0245	1302.2351	1343.038	1364.0528	1369.4761	1374.1512	1381.4131	1412.6589	1478.0093	1484.3954	1488.2519	1490.2719	1500.0786	2998.3931	3010.1827	3017.1185	3021.5265	3038.3258	3052.2078	3069.0687	3070.6147	3084.9173	3103.3291	3169.5385	3194.4721
C1C2OC3CCCCC123	C1[C@H]2O[C@@H]3CCCC[C@]123	
InChI=1S/C8H12O/c1-2-4-8-5-7(8)9-6(8)3-1/h6-7H,1-5H2	InChI=1S/C8H12O/c1-2-4-8-5-7(8)9-6(8)3-1/h6-7H,1-5H2/t6-,7-,8-/m1/s1
