22
gdb 121928	2.28606	1.07295	0.80421	2.4984	78.99	-0.2425	0.0584	0.3009	1485.4808	0.192969	-441.44385	-441.433446	-441.432502	-441.480684	37.225	
C	 0.0329593357	 1.4775809374	 0.0294976951	-0.399238
C	-0.0164535313	-0.0526745295	-0.0091549149	 0.101472
O	 0.602762038	-0.5549517678	-1.1898019301	-0.281988
C	-0.2144395247	-0.5858628402	-2.3477800861	-0.072662
C	 0.5944870536	-1.2553742271	-3.4480817644	-0.06734
O	 0.9633018776	-2.5762579769	-3.104999327	-0.419134
C	 0.6995035387	-0.6631642514	 1.1857536504	 0.019326
C	 1.1749565899	-2.0639957668	 1.1586287821	-0.252023
N	 2.1398591744	-0.9461773145	 1.1182349824	-0.321017
H	 1.0707526922	 1.8234877097	 0.0292079462	 0.132575
H	-0.4802002581	 1.9149610826	-0.8317217299	 0.117364
H	-0.4555109281	 1.8522276886	 0.934554929	 0.120806
H	-1.0681346545	-0.3822093023	 0.011502999	 0.077517
H	-1.1284076483	-1.1660743417	-2.1477629593	 0.100807
H	-0.5086995255	 0.427719498	-2.6599319406	 0.091891
H	-0.0121175719	-1.3180276963	-4.3573271365	 0.111955
H	 1.4765093336	-0.6352804204	-3.6735565222	 0.095398
H	 1.4363625565	-2.5135140335	-2.2681281973	 0.292004
H	 0.3777698505	-0.2420277009	 2.1365872102	 0.08968
H	 1.1914932229	-2.6518163829	 2.0718402243	 0.116159
H	 1.0031621608	-2.6311586705	 0.2487091294	 0.111245
H	 2.439091698	-0.8168480436	 0.15358932	 0.235206
29.9837	55.9845	95.6263	141.1569	166.7505	216.486	246.9169	284.1206	331.2405	386.2151	409.6355	483.8714	521.7031	613.2425	761.4017	838.0115	861.7781	902.8655	909.4175	952.9326	961.6229	991.0824	1052.8246	1077.7143	1099.3846	1118.3865	1121.263	1138.7709	1152.8017	1162.7027	1203.791	1237.5347	1266.1507	1278.3871	1306.8591	1348.2304	1359.6918	1389.403	1404.5122	1416.5314	1420.6714	1436.4223	1490.4624	1492.5215	1496.0453	1501.4966	1511.3853	2969.3279	2980.1477	2983.0219	3022.2252	3041.6921	3082.3844	3111.2302	3114.3439	3120.7191	3125.0933	3201.3166	3493.5781	3812.7089
CC(OCCO)C1CN1	C[C@@H](OCCO)[C@H]1CN1	
InChI=1S/C6H13NO2/c1-5(6-4-7-6)9-3-2-8/h5-8H,2-4H2,1H3	InChI=1S/C6H13NO2/c1-5(6-4-7-6)9-3-2-8/h5-8H,2-4H2,1H3/t5-,6-/m1/s1
