16
gdb 24657	4.47192	1.16556	0.9899	1.952	78.92	-0.2402	-0.044	0.1962	1171.6424	0.127721	-396.947123	-396.940047	-396.939102	-396.979233	26.756	
C	 1.0928540228	 0.8670131427	-0.1473936234	-0.229434
N	 0.0317001117	 0.1894796487	-0.8941054217	-0.312246
C	-0.2559389375	 0.6684351105	 0.4674128183	-0.105931
C	-0.5019630033	-0.3552991576	 1.5176966175	 0.335529
C	-0.2074877823	-1.7122319155	 1.3285156495	-0.061965
N	-0.4030098904	-2.6219594482	 2.2815879838	-0.235935
C	-0.9052014621	-2.171518582	 3.4345442311	-0.012236
C	-1.2156451185	-0.828701577	 3.6227367367	-0.021858
N	-1.018322629	 0.0846052333	 2.670716277	-0.31045
H	 1.9156011212	 0.227102515	 0.1593677787	 0.127587
H	 1.3773183639	 1.8789089788	-0.4236718769	 0.122699
H	-0.3829733586	 0.8131990364	-1.5801862427	 0.24138
H	-0.8611043868	 1.5621164571	 0.5944724286	 0.100585
H	 0.1802497215	-2.0556990309	 0.3747508422	 0.134802
H	-1.0699831919	-2.900778311	 4.2232871955	 0.114266
H	-1.6377303707	-0.4787379604	 4.5616361358	 0.113206
66.2657	139.22	197.8858	304.9362	417.994	430.442	559.7308	579.615	645.8723	790.9605	800.6638	845.1834	884.571	908.9715	931.1727	974.0125	986.1986	994.3724	1031.8546	1078.948	1089.7384	1119.5821	1162.966	1197.9414	1227.8534	1239.31	1268.8657	1286.1679	1327.6451	1427.0526	1439.0156	1506.0666	1517.4103	1579.7677	1617.5764	3108.7193	3148.8607	3153.1373	3172.9523	3187.235	3197.9804	3518.1347
C1NC1C1=CN=CC=N1	C1N[C@H]1c1cnccn1	
InChI=1S/C6H7N3/c1-2-8-5(3-7-1)6-4-9-6/h1-3,6,9H,4H2	InChI=1S/C6H7N3/c1-2-8-5(3-7-1)6-4-9-6/h1-3,6,9H,4H2/t6-/m1/s1
