23
gdb 119398	3.86001	0.96771	0.92323	1.3909	85.88	-0.2331	0.0872	0.3204	1418.2694	0.206755	-388.28245	-388.2737	-388.272756	-388.316112	34.3	
C	-0.085179025	 1.5409590497	-0.0105635325	-0.381815
C	 0.1145322966	 0.0240133065	-0.0447609345	-0.163325
C	 0.683430502	-0.5297606305	 1.2688415087	-0.300525
C	 0.8418896106	-2.0277422428	 1.2743092385	 0.475803
C	 1.7502337674	-2.8436216822	 0.3078016572	-0.268656
C	 1.4298226074	-3.9659219821	 1.3421326233	-0.076953
C	 1.4870920781	-2.8465264297	 2.426765668	-0.279389
C	-0.0874471573	-4.0752722003	 1.1534320576	-0.073123
O	-0.4429958381	-2.6770311118	 1.1159208552	-0.319068
H	 0.860701605	 2.0642270631	 0.1713919787	 0.109565
H	-0.4925596339	 1.9110082583	-0.9566698434	 0.10973
H	-0.7794939194	 1.8303554792	 0.7862526355	 0.11414
H	-0.8366049293	-0.4767215717	-0.2528406522	 0.118671
H	 0.7881359585	-0.2392004745	-0.8703809034	 0.09311
H	 1.6609211439	-0.0757604067	 1.4756657605	 0.091692
H	 0.0245094507	-0.2506206623	 2.1016952391	 0.102585
H	 1.4035164446	-2.9715103454	-0.72080394	 0.0962
H	 2.7958037065	-2.5308393306	 0.3322318638	 0.097337
H	 2.0023006736	-4.8899882245	 1.411694431	 0.069825
H	 2.506458193	-2.5335990021	 2.6603718033	 0.096832
H	 0.8966314357	-2.9731518365	 3.338172882	 0.094899
H	-0.3775599458	-4.565662188	 0.2160990704	 0.095947
H	-0.5974316347	-4.572424745	 1.9875878632	 0.096516
79.0536	87.0627	127.3277	247.1837	292.1807	313.6622	334.1113	389.5961	490.9506	517.1251	642.9926	701.5133	743.9944	826.007	847.4322	860.9649	883.3161	903.6371	915.9995	948.8506	959.3659	973.1643	991.1067	1033.218	1052.858	1070.6423	1088.644	1104.3082	1127.9615	1159.1023	1188.7791	1192.2677	1214.8387	1249.0158	1270.0023	1294.0021	1299.6378	1328.2807	1345.7305	1366.1345	1405.8957	1412.4479	1472.3368	1474.4693	1494.0464	1499.872	1507.3841	1510.6849	1533.1878	3016.2212	3016.8805	3026.1853	3029.2088	3052.8472	3055.3421	3060.1459	3066.4794	3074.8986	3098.5871	3100.306	3125.5677	3126.6003	3133.3762
CCCC12CC(C1)CO2	CCC[C@@]12C[C@@H](C1)CO2	
InChI=1S/C8H14O/c1-2-3-8-4-7(5-8)6-9-8/h7H,2-6H2,1H3	InChI=1S/C8H14O/c1-2-3-8-4-7(5-8)6-9-8/h7H,2-6H2,1H3/t7-,8+
