18
gdb 58070	1.83545	1.45349	1.29266	5.3776	76.25	-0.2643	-0.0035	0.2609	1142.2022	0.145979	-398.148248	-398.138	-398.137056	-398.182959	36.897	
C	 0.0566541797	 1.5648811163	-0.0249161367	-0.422469
C	 0.0161823755	 0.0332591754	 0.0585157168	 0.012054
N	 0.6786538548	-0.5299997322	 1.2289933567	-0.504014
C	-1.4530737248	-0.5348799752	 0.0166852222	-0.067181
C	-2.2547444872	-0.0435232521	-1.2170996522	-0.425724
C	-1.3815406606	-2.007387836	-0.0311396567	 0.323735
N	-1.349031515	-3.1550254325	-0.1525091804	-0.332522
C	-2.1536592872	-0.1257957745	 1.2487222734	 0.310516
N	-2.6805874042	 0.253587107	 2.2041377006	-0.338433
H	 1.0966401554	 1.8962197937	 0.0467467532	 0.125129
H	-0.348755947	 1.950039584	-0.9647765861	 0.125941
H	-0.4988242601	 2.0181482829	 0.8033088856	 0.142796
H	 0.5065693586	-0.389169006	-0.8256150764	 0.110274
H	 1.6851287651	-0.4427654388	 1.1443343992	 0.241134
H	 0.4030697554	-0.0320276711	 2.0711346684	 0.244786
H	-1.6971702802	-0.2740062623	-2.1282298505	 0.145323
H	-3.2225197968	-0.5456565216	-1.2638518132	 0.159681
H	-2.4235181116	 1.0323186131	-1.1581722239	 0.148974
81.3273	129.5751	142.7437	168.0249	221.0963	223.9787	235.2527	256.1161	299.4728	365.5851	396.0899	441.8277	501.025	527.2862	585.8712	633.2277	654.7745	833.1312	870.8382	924.5176	938.7436	1019.1225	1065.1509	1089.8672	1124.6408	1178.1695	1204.1021	1264.9957	1346.8529	1401.0423	1406.538	1416.7153	1483.9455	1491.5021	1495.1293	1506.696	1659.8704	2359.1928	2368.598	3038.0273	3051.6692	3061.6201	3112.2953	3115.8532	3142.8549	3155.1052	3499.6212	3587.7055
CC(N)C(C)(C#N)C#N	C[C@@H](N)C(C)(C#N)C#N	
InChI=1S/C6H9N3/c1-5(9)6(2,3-7)4-8/h5H,9H2,1-2H3	InChI=1S/C6H9N3/c1-5(9)6(2,3-7)4-8/h5H,9H2,1-2H3/t5-/m1/s1
