16
gdb 87358	2.06935	1.51162	1.02487	4.9219	67.52	-0.2479	-0.0277	0.2202	1153.2077	0.121652	-475.034155	-475.024842	-475.023897	-475.068818	32.828	
O	-0.1339575006	 1.2442555161	-0.0970861139	-0.425498
C	-0.1123417205	-0.1344881342	 0.1154165606	 0.051667
C	-0.7397662973	-0.7333853008	 1.3270192355	-0.340367
C	-1.4657789949	-0.829798063	-0.0147724001	 0.24541
N	-2.5745698906	 0.0280452812	-0.2761775761	-0.362999
C	-3.8494534387	-0.3156223238	 0.0598097439	 0.13755
O	-4.1706190697	-1.387721718	 0.5248385596	-0.316951
C	-1.4662697424	-2.1589303566	-0.693523983	 0.132556
O	-0.6340225834	-3.0060861581	-0.4775357097	-0.275478
H	 0.2860545066	 1.6775648279	 0.6529061835	 0.302546
H	 0.7238766087	-0.6618008354	-0.3387062478	 0.12726
H	-0.3232354124	-1.6589724131	 1.7072452702	 0.153405
H	-1.1909808289	-0.0639205439	 2.0504855243	 0.128486
H	-2.3654397596	 0.9680388065	-0.5801080764	 0.261893
H	-4.5690433098	 0.4970262837	-0.1599723684	 0.08266
H	-2.2760994566	-2.2986403785	-1.436693652	 0.09786
50.7094	108.4748	144.7453	191.6745	211.7881	228.2697	231.2128	296.2862	411.1566	461.846	510.9696	569.9915	616.5827	717.5232	783.0409	860.8328	882.5146	977.258	1003.5627	1034.3296	1047.1869	1067.1274	1115.3291	1166.9827	1178.3436	1268.2409	1294.0918	1320.6117	1394.2548	1417.2257	1428.8206	1454.6779	1506.5305	1801.7051	1810.1281	2941.1707	2946.5695	3135.3745	3142.0003	3244.431	3607.5446	3817.799
OC1CC1(NC=O)C=O	O[C@H]1C[C@]1(NC=O)C=O	
InChI=1S/C5H7NO3/c7-2-5(6-3-8)1-4(5)9/h2-4,9H,1H2,(H,6,8)	InChI=1S/C5H7NO3/c7-2-5(6-3-8)1-4(5)9/h2-4,9H,1H2,(H,6,8)/t4-,5-/m0/s1
