14
gdb 99429	1.69009	1.48709	1.30385	3.5534	73.45	-0.2818	0.0047	0.2866	1106.6594	0.096186	-399.462193	-399.452123	-399.451179	-399.49727	35.007	
O	-0.0097466792	 1.4233437203	 0.0095349659	-0.405682
C	 0.0297373332	 0.0205094678	 0.001818597	-0.078956
C	-1.4510511621	-0.48376826	 0.0132687633	-0.305646
C	-2.136442344	-0.0324410544	 1.2344816129	 0.372145
C	-2.6832489916	 0.3242930653	 2.2400931212	-0.439626
C	-2.1596499799	-0.019339933	-1.1896506116	 0.372141
C	-2.725582859	 0.3481901393	-2.1806863014	-0.439604
C	-1.3971949491	-1.9660199723	 0.0047445661	 0.290806
N	-1.3156210426	-3.1174826281	-0.002156657	-0.33329
H	 0.8935309549	 1.7533409148	 0.0044297216	 0.301637
H	 0.5105238072	-0.3852038575	-0.8988881574	 0.120783
H	 0.5275251162	-0.3945862233	 0.8888995293	 0.120792
H	-3.1745524304	 0.6445722406	 3.1260232334	 0.212249
H	-3.2338579336	 0.6778008306	-3.0535227033	 0.212252
91.8792	109.9828	114.7311	133.6524	139.3743	168.5067	219.7415	341.0682	343.792	454.2501	509.4116	545.5923	568.5545	576.1157	657.2019	657.3626	663.0584	664.586	673.2612	948.7846	1022.7186	1074.8181	1121.827	1160.9404	1256.1756	1287.7764	1447.7276	1512.9664	2249.6336	2254.0468	2367.1123	2999.5397	3046.2082	3499.8231	3500.542	3837.8526
OCC(C#C)(C#C)C#N	OCC(C#C)(C#C)C#N	
InChI=1S/C7H5NO/c1-3-7(4-2,5-8)6-9/h1-2,9H,6H2	InChI=1S/C7H5NO/c1-3-7(4-2,5-8)6-9/h1-2,9H,6H2
