23
gdb 100066	4.00593	0.69385	0.68634	1.1825	90.82	-0.2406	0.0557	0.2963	1778.7251	0.201635	-388.273656	-388.261717	-388.260773	-388.311846	42.063	
C	 0.1373399534	 1.5205086029	 0.0087048829	-0.499303
C	 0.0637473807	 0.0657808729	 0.0015983835	 0.105796
C	 0.0132145348	-1.1377515909	-0.0043320643	 0.034195
C	-0.0497259414	-2.5954045758	-0.0114470636	-0.38424
C	-1.490693307	-3.1825761548	-0.0007671877	 0.256447
C	-2.2350096872	-2.7430991144	 1.2706778292	-0.405592
C	-2.2592625326	-2.729444894	-1.2528402239	-0.405587
C	-1.3427145932	-4.7127088325	-0.0104702164	-0.087319
O	-2.6333314678	-5.3045042058	-0.0013852607	-0.427651
H	 1.1773582832	 1.8657287823	 0.0004979188	 0.145858
H	-0.3592805654	 1.9509059962	-0.8681125441	 0.145589
H	-0.342180114	 1.9414225516	 0.8995328942	 0.14559
H	 0.4800229493	-2.9739658138	-0.8967850649	 0.117281
H	 0.496837963	-2.9832776014	 0.8595215853	 0.117285
H	-2.3417826324	-1.6553478585	 1.2988644127	 0.119678
H	-3.2277746253	-3.1969897144	 1.3066614673	 0.128343
H	-1.6906094469	-3.0510449789	 2.1711878718	 0.100014
H	-1.7322755301	-3.0275226006	-2.1669276806	 0.10001
H	-3.2525606568	-3.1830718623	-1.2746635126	 0.128341
H	-2.3664999958	-1.6414678174	-1.2671749952	 0.119678
H	-0.7774833722	-5.0185265814	-0.906614921	 0.079123
H	-0.760543447	-5.028166927	 0.8713765276	 0.079125
H	-2.5271958992	-6.2596812719	-0.0078973882	 0.287339
23.5745	56.1907	81.9317	118.1411	205.5305	216.0363	230.6682	234.867	252.7129	274.9261	322.1442	338.8435	383.3755	388.246	403.8705	430.8545	595.3684	751.1646	775.2211	894.3932	898.6641	938.307	965.5283	996.845	1053.7843	1054.4944	1058.5708	1079.9793	1169.1327	1174.916	1193.896	1222.5884	1245.0014	1285.0524	1331.6275	1347.5428	1394.5977	1408.4563	1415.787	1458.3421	1468.2345	1479.2311	1480.2409	1484.9324	1492.034	1498.3482	1514.0746	1518.3916	2369.8144	2951.3755	2982.2729	2999.4411	3024.8864	3029.6603	3032.4761	3035.9383	3084.465	3084.6678	3100.7991	3104.0402	3129.322	3133.2348	3838.264
CC#CCC(C)(C)CO	CC#CCC(C)(C)CO	
InChI=1S/C8H14O/c1-4-5-6-8(2,3)7-9/h9H,6-7H2,1-3H3	InChI=1S/C8H14O/c1-4-5-6-8(2,3)7-9/h9H,6-7H2,1-3H3
