18
gdb 11128	6.10596	0.94093	0.89494	3.1956	69.47	-0.2454	-0.0218	0.2236	1277.6353	0.152567	-384.931331	-384.922736	-384.921792	-384.965227	30.522	
O	 0.3287519747	 1.1334113599	-0.6137173485	-0.42144
C	 0.1039866754	-0.2097242762	-0.2154752467	-0.081082
C	-1.3188683614	-0.3068620749	 0.307223977	 0.026452
C	-2.4035381352	-0.15615664	-0.7936280398	-0.244831
C	-2.5829450324	-1.7095394995	-0.8195523079	-0.051493
C	-1.7977590136	-1.7677832296	 0.5312016022	-0.271344
C	-3.9963029294	-2.2147308441	-0.7880925721	 0.157322
O	-4.4761543607	-3.0089179915	-1.5557494193	-0.253221
H	 1.2138004195	 1.1970218718	-0.9841053679	 0.288827
H	 0.240525161	-0.9043291881	-1.0614454875	 0.085124
H	 0.8060077457	-0.5188812418	 0.5763640152	 0.087608
H	-1.4231268357	 0.3666595789	 1.1619147763	 0.080739
H	-3.3013998326	 0.3504410091	-0.4266362479	 0.104956
H	-2.0946016914	 0.3168124548	-1.7272128165	 0.121941
H	-2.0529535635	-2.1896765953	-1.6439820667	 0.09049
H	-1.0317529934	-2.5438842098	 0.6100470658	 0.10916
H	-2.468852991	-1.8578082346	 1.3908502623	 0.108144
H	-4.6068485661	-1.7781199092	 0.0410301321	 0.06265
57.2154	72.8035	126.3597	204.3066	250.7902	283.9428	318.4438	359.2789	455.9112	498.3454	721.2818	799.6983	826.136	892.8669	899.6165	922.9126	974.4742	1020.7188	1056.1005	1082.166	1090.2062	1104.1348	1165.0665	1202.9215	1220.9441	1251.2801	1264.1403	1270.253	1282.9528	1286.0189	1323.1446	1369.196	1431.2648	1460.2003	1472.4576	1492.4778	1520.5354	1830.1847	2826.9089	2955.8114	2983.5255	3050.5315	3057.9661	3074.7652	3094.0727	3107.99	3125.6479	3831.2006
OCC1CC(C1)C=O	OC[C@H]1C[C@@H](C1)C=O	
InChI=1S/C6H10O2/c7-3-5-1-6(2-5)4-8/h3,5-6,8H,1-2,4H2	InChI=1S/C6H10O2/c7-3-5-1-6(2-5)4-8/h3,5-6,8H,1-2,4H2/t5-,6-
