18
gdb 51577	3.72968	0.96304	0.85595	4.4034	74.89	-0.2334	0.035	0.2684	1354.732	0.147499	-439.068811	-439.060144	-439.0592	-439.103216	31.603	
O	-0.1455773737	 0.2259529538	-0.0555678456	-0.330825
C	 0.081029672	 1.4170274016	-0.1193993908	 0.151575
N	 1.3152470203	 1.9848291064	-0.1330872264	-0.287643
C	 2.5167177053	 1.2104172259	-0.0514792478	 0.054634
C	 3.7593209677	 1.6678886816	-0.7663240217	-0.340539
C	 3.7027964099	 1.7118956336	 0.7465386101	-0.071954
C	 3.6252585863	 3.0236632101	 1.4624431748	 0.058759
C	 4.466179841	 4.1759165886	 1.1070273865	-0.175389
O	 3.0862302965	 4.1309886133	 0.7253788601	-0.245732
H	-0.7173911412	 2.1826843915	-0.1787364206	 0.073264
H	 1.3993203422	 2.9896847428	-0.1605866967	 0.270767
H	 2.2861316061	 0.1533943888	-0.0213449848	 0.139088
H	 4.3909788714	 0.9286593096	-1.245652327	 0.122337
H	 3.6965886926	 2.6204894044	-1.2821286635	 0.12825
H	 4.2650576708	 0.9574631186	 1.2905415923	 0.100499
H	 3.2587531577	 2.9688735217	 2.4883748232	 0.105603
H	 4.709354397	 4.9249623912	 1.8580624939	 0.124233
H	 5.1760735082	 4.0787904865	 0.2880921239	 0.123073
38.6088	89.284	146.4374	197.6594	237.9272	252.3274	324.1612	424.3744	520.6187	596.9659	637.5798	725.1288	746.2525	827.959	839.2223	867.745	912.0979	969.7144	995.4097	1028.5266	1070.8205	1074.0176	1096.3442	1117.759	1135.9448	1151.2197	1165.8005	1173.2747	1207.4651	1255.7472	1289.9447	1355.1724	1393.4275	1431.3124	1431.6343	1476.9948	1521.7596	1553.4788	1800.3179	2939.2791	3094.3108	3103.68	3133.9431	3144.8131	3186.8149	3209.4996	3225.5275	3626.1268
O=CNC1CC1C1CO1	O=CN[C@H]1C[C@H]1[C@H]1CO1	
InChI=1S/C6H9NO2/c8-3-7-5-1-4(5)6-2-9-6/h3-6H,1-2H2,(H,7,8)	InChI=1S/C6H9NO2/c8-3-7-5-1-4(5)6-2-9-6/h3-6H,1-2H2,(H,7,8)/t4-,5+,6-/m1/s1
