16
gdb 20047	5.57894	1.32971	1.17302	2.3527	68.41	-0.2315	0.0025	0.234	1012.7344	0.130688	-383.713652	-383.706327	-383.705383	-383.746106	26.142	
C	 0.2187480744	 1.4769218972	 0.0296571682	-0.185419
O	 1.1633388891	 0.4436933866	-0.2241589775	-0.231365
C	-0.2016915759	 0.061482941	 0.0255823579	-0.032728
C	-0.4639512732	-0.6975955478	 1.2589896197	 0.330757
C	-1.3743773174	-1.6522553404	 1.4419050114	-0.23326
C	-1.3076858091	-2.1649197321	 2.8502123384	-0.100244
O	-0.2526955742	-1.4311293081	 3.4652741655	-0.267404
C	 0.310073196	-0.5054352374	 2.5412574408	-0.15833
H	 0.3400863781	 2.004223391	 0.9740993538	 0.120051
H	-0.0353440403	 2.104839299	-0.8235832714	 0.120726
H	-0.7290584906	-0.2958149369	-0.8587291503	 0.096082
H	-2.0726540256	-2.0268442182	 0.7035833461	 0.10341
H	-2.2482621055	-2.0062008682	 3.4024863626	 0.105812
H	-1.0886996761	-3.2439399824	 2.8935759715	 0.108179
H	 1.3821481472	-0.705865773	 2.4042845949	 0.122872
H	 0.2190435233	 0.5179526797	 2.9391581085	 0.100863
63.3558	93.8404	163.8664	185.6664	346.093	415.6271	535.4502	614.8134	773.8986	815.1483	847.7459	871.6693	919.5878	933.2694	966.2435	993.9462	1028.1249	1065.0892	1095.913	1116.82	1150.241	1169.0574	1172.6752	1214.7101	1223.5399	1271.2376	1311.6392	1377.8483	1391.9128	1418.2659	1517.0748	1524.0501	1530.3901	1724.0962	2966.9598	2975.2836	2983.2781	3013.2142	3084.9281	3113.3692	3173.6001	3211.9268
C1OC1C1=CCOC1	C1O[C@H]1C1=CCOC1	
InChI=1S/C6H8O2/c1-2-7-3-5(1)6-4-8-6/h1,6H,2-4H2	InChI=1S/C6H8O2/c1-2-7-3-5(1)6-4-8-6/h1,6H,2-4H2/t6-/m1/s1
