17
gdb 30805	2.37505	1.31379	0.88668	1.9425	73.52	-0.1949	0.0226	0.2175	1290.4277	0.135986	-455.190252	-455.180845	-455.1799	-455.226164	33.364	
C	-0.0422995697	 1.4448330669	 0.0073718971	-0.497497
C	-0.0227974154	-0.0466783124	-0.0067283513	 0.338682
N	 0.2366041103	-0.8029737022	-1.0625833973	-0.382581
C	 0.1671244984	-2.0901560603	-0.614193927	 0.260331
O	 0.38003024	-3.1379195629	-1.4433162301	-0.440593
C	-0.1434410598	-2.154234673	 0.7216513882	 0.168969
C	-0.3290322972	-3.2752853538	 1.6775120312	-0.196478
O	 0.5168649022	-3.1746289153	 2.8280532902	-0.421436
N	-0.2679369056	-0.81343436	 1.0854462668	-0.330601
H	 0.7195936415	 1.8568993788	 0.6794474151	 0.133715
H	 0.1582903467	 1.8076397907	-1.0013222853	 0.156585
H	-1.0135316739	 1.8368863939	 0.3299931785	 0.134211
H	 0.5741423401	-2.7586391964	-2.3088792035	 0.299776
H	-1.3451890631	-3.2956887793	 2.0908031051	 0.112934
H	-0.1797202564	-4.2193926522	 1.1364618206	 0.117812
H	 1.4240034501	-3.1406919205	 2.5047780434	 0.279613
H	-0.4258718083	-0.4908980519	 2.0258604082	 0.266559
18.3491	57.4919	120.3664	208.1228	235.8653	278.5714	310.1682	360.8183	379.532	421.4991	510.7378	539.5845	629.675	651.9397	696.1344	734.1733	834.1746	956.6043	999.4407	1028.7939	1045.9996	1059.8176	1140.4962	1185.9885	1217.3854	1282.3879	1344.266	1371.121	1409.5352	1416.5332	1447.014	1460.5476	1482.1421	1499.5661	1510.0312	1568.2023	1689.6799	3013.6319	3030.3587	3049.8287	3079.347	3148.7957	3659.9867	3800.9591	3805.5024
CC1=NC(O)=C(CO)N1	Cc1nc(O)c(CO)[nH]1	
InChI=1S/C5H8N2O2/c1-3-6-4(2-8)5(9)7-3/h8-9H,2H2,1H3,(H,6,7)	InChI=1S/C5H8N2O2/c1-3-6-4(2-8)5(9)7-3/h8-9H,2H2,1H3,(H,6,7)
