21
gdb 92264	2.14533	1.85731	1.21337	1.6998	84.08	-0.2328	0.0246	0.2574	1111.5386	0.183006	-387.101424	-387.09293	-387.091985	-387.134264	33.068	
C	-0.8093496392	 1.2857622839	 0.1606645292	-0.407792
C	-0.0113969183	 0.0102701324	-0.0080684042	 0.162048
O	 1.1364737641	 0.1896178134	-0.8731830257	-0.313516
C	 2.0114918761	-0.4984795907	 0.0489558129	 0.127904
C	 3.1527131565	 0.3883437601	 0.5701446805	-0.276193
C	 2.5818619302	 0.9603323143	 1.8459379668	-0.165882
C	 1.3817468343	 0.4649702586	 2.1681010911	 0.335739
C	 0.5744537121	 0.7869735706	 3.3884211102	-0.500849
C	 0.9058403497	-0.5270707073	 1.1335828798	-0.205042
H	-0.1932553152	 2.0754715881	 0.5987555583	 0.124914
H	-1.1650272526	 1.6294460516	-0.8160243216	 0.125165
H	-1.6838001905	 1.1167808984	 0.798578773	 0.111787
H	-0.6583869447	-0.7873241783	-0.4033747642	 0.066745
H	 2.3472821572	-1.4556688871	-0.3650371659	 0.068087
H	 4.0723456455	-0.183289569	 0.7555405131	 0.099291
H	 3.3985434484	 1.1538061647	-0.1759551544	 0.118579
H	 3.1186382271	 1.6892402047	 2.4455843232	 0.084836
H	 1.0879459019	 1.5077544008	 4.0306359768	 0.12364
H	-0.4056139396	 1.2037209617	 3.1270472406	 0.127858
H	 0.3797704305	-0.1168771498	 3.9802570647	 0.123591
H	 0.5985530964	-1.4863840415	 1.5599682559	 0.069091
89.7726	163.9991	172.0069	243.6128	248.0171	295.3227	339.4274	392.7649	451.6277	533.2104	614.4416	693.6891	762.4377	819.1794	838.6237	855.9936	910.3528	914.279	946.9307	960.8995	1016.5918	1035.6938	1045.5612	1052.5948	1091.0648	1103.2242	1150.3296	1171.4165	1180.0233	1225.309	1253.785	1288.9811	1296.6076	1327.5802	1346.3598	1359.0968	1392.8073	1413.0903	1414.8512	1468.4026	1476.7202	1484.1803	1489.7235	1498.6106	1710.3224	2982.9167	3011.3323	3018.9031	3035.1088	3041.1087	3056.1135	3066.109	3066.9341	3103.3982	3110.1851	3120.9647	3177.7019
CC1OC2CC=C(C)C12	C[C@H]1O[C@H]2CC=C(C)[C@@H]12	
InChI=1S/C8H12O/c1-5-3-4-7-8(5)6(2)9-7/h3,6-8H,4H2,1-2H3	InChI=1S/C8H12O/c1-5-3-4-7-8(5)6(2)9-7/h3,6-8H,4H2,1-2H3/t6-,7+,8+/m1/s1
