20
gdb 98841	2.7527	1.03958	0.92875	3.7183	76.76	-0.2321	-0.0273	0.2048	1358.9993	0.169291	-440.27204	-440.262441	-440.261497	-440.307107	34.669	
C	-0.1524090513	 0.4105925821	-0.9302633327	-0.330752
N	-0.0193560139	-0.4829626496	 0.2009661961	-0.069574
C	-1.1567856458	-0.6174720282	 1.1332054027	-0.160759
C	-0.1524996714	-0.6974315045	 2.305923649	-0.25193
C	 0.8838023124	-0.1019728293	 1.3007213811	-0.053622
C	 2.2612666729	-0.7258317572	 1.3049941677	 0.342631
O	 3.1536526486	-0.2982408843	 2.0092788421	-0.334684
C	 2.513573313	-1.9484126431	 0.4374288622	-0.130978
O	 3.8064356373	-2.439778397	 0.6311686447	-0.424511
H	 0.7986131632	 0.4763326827	-1.4691007836	 0.125967
H	-0.9033054191	 0.0181623312	-1.6235610414	 0.128225
H	-0.4542219366	 1.4336293353	-0.6382907928	 0.097611
H	-1.7781112773	 0.290952125	 1.1855661234	 0.092297
H	-1.8059908706	-1.4788003538	 0.9467398351	 0.109813
H	-0.3589007505	-0.1006705384	 3.1928796164	 0.124638
H	 0.0852694611	-1.721225489	 2.6001411042	 0.122084
H	 0.9926647629	 0.9850023504	 1.442475068	 0.083246
H	 1.7496726396	-2.7081182659	 0.6654044585	 0.119166
H	 2.3357905363	-1.6638247329	-0.6125509366	 0.119803
H	 4.2124851892	-1.8305806237	 1.2693508858	 0.291329
51.7903	94.9442	126.5767	145.9362	213.296	219.5063	304.7886	309.102	364.1994	440.109	482.9192	537.2759	604.9877	691.9648	788.1718	814.1305	906.1891	935.8956	962.2998	985.6071	1015.5791	1076.6209	1125.3336	1132.6603	1168.0336	1192.5846	1208.1183	1225.9295	1230.4113	1245.0452	1251.2822	1274.2746	1315.2215	1325.2995	1355.9103	1451.8805	1454.4833	1473.0581	1484.1533	1487.0749	1499.3069	1522.8588	1787.3949	2936.9495	2973.7733	2981.9423	2984.741	3001.1994	3061.0874	3066.1956	3089.6386	3102.9107	3155.3305	3674.0158
CN1CCC1C(=O)CO	CN1CC[C@H]1C(=O)CO	
InChI=1S/C6H11NO2/c1-7-3-2-5(7)6(9)4-8/h5,8H,2-4H2,1H3	InChI=1S/C6H11NO2/c1-7-3-2-5(7)6(9)4-8/h5,8H,2-4H2,1H3/t5-/m0/s1
