14
gdb 24936	4.7501	1.29476	1.03043	1.884	67.37	-0.2426	-0.0333	0.2093	1059.4385	0.102904	-436.737088	-436.730482	-436.729538	-436.768447	25.221	
O	-0.0141744342	 0.0757158207	 0.0040766882	-0.284507
C	-0.0169025668	 1.2732904603	 0.0107832224	 0.403198
C	-1.3185497344	 2.1488237151	 0.0333114765	-0.468883
C	-0.700724281	 3.4938606869	 0.0322195063	 0.308635
C	 0.6463199736	 3.5339871179	 0.0140996822	 0.24023
C	 1.2571049243	 2.1732229273	-0.0016345024	-0.461033
N	 1.0746059472	 4.8533008677	 0.0155708272	-0.336288
C	-0.0363677647	 5.5207398792	 0.0339531242	 0.03873
O	-1.1780622782	 4.7661275374	 0.045772492	-0.194716
H	-1.9350685795	 1.9135161633	-0.8423366142	 0.150784
H	-1.9109748027	 1.9038942924	 0.9228434896	 0.150784
H	 1.8795240902	 1.9365461769	 0.8691849584	 0.149287
H	 1.8555839129	 1.9461535786	-0.8915842889	 0.149287
H	-0.1752326465	 6.5900334964	 0.0416140786	 0.154491
79.1206	216.1407	254.6301	350.336	487.1128	503.6242	524.9971	641.7769	680.3173	718.4824	722.8325	810.2282	821.5029	864.0265	949.7194	995.7909	1030.3453	1079.2054	1129.9911	1150.3173	1167.612	1217.0617	1223.3161	1294.6776	1356.6765	1416.6272	1458.8374	1466.6064	1527.968	1660.5667	1865.5924	3035.9356	3041.5818	3069.1473	3073.7052	3283.068
O=C1CC2=C(C1)N=CO2	O=C1Cc2c(C1)nco2	
InChI=1S/C6H5NO2/c8-4-1-5-6(2-4)9-3-7-5/h3H,1-2H2	InChI=1S/C6H5NO2/c8-4-1-5-6(2-4)9-3-7-5/h3H,1-2H2
