15
gdb 11762	4.7373	1.75506	1.59206	4.2865	69.98	-0.2507	-0.0094	0.2413	818.4116	0.121032	-325.508288	-325.502133	-325.501189	-325.538357	24.81	
N	 0.01994823	-1.1674036741	-0.0152367146	-0.343272
C	 0.0109668813	-0.0111091276	-0.0090107519	 0.148892
C	 0.0095418736	 1.4334046946	 0.0100839281	 0.191577
C	-0.3016558564	 2.2622906057	 1.3141967957	-0.236722
C	 0.3643889358	 3.3950899199	 0.4610004695	-0.094995
C	 1.3359374754	 2.2820880101	-0.0606572256	-0.236716
C	-0.6223008581	 3.4742657864	-0.7130760339	-0.088984
C	-0.859355548	 2.1970535643	-1.0139054098	-0.117491
H	-1.3537071137	 2.3755988831	 1.5796772127	 0.113815
H	 0.2964112733	 1.9450229315	 2.1725815998	 0.115227
H	 0.7286055685	 4.3175376638	 0.9081063296	 0.078654
H	 2.0823097041	 1.9666074158	 0.6732145868	 0.115229
H	 1.7778052901	 2.413460495	-1.0494063472	 0.113817
H	-1.0128529591	 4.3740986714	-1.1652714089	 0.115225
H	-1.4847201469	 1.73964008	-1.7654034403	 0.125745
164.0335	171.1985	440.802	502.345	518.1659	523.5041	561.4992	568.4053	703.6022	729.1747	836.5943	847.293	896.7139	908.6002	919.5203	945.9861	996.9038	1011.8748	1060.3408	1073.2361	1092.6592	1159.6808	1168.8748	1223.6547	1227.9116	1248.7653	1269.6975	1328.4506	1477.8405	1514.6871	1627.642	2354.7113	3061.325	3070.5329	3138.7948	3142.7975	3143.5531	3233.3999	3261.95
N#CC12CC(C1)C=C2	N#C[C@@]12C[C@@H](C1)C=C2	
InChI=1S/C7H7N/c8-5-7-2-1-6(3-7)4-7/h1-2,6H,3-4H2	InChI=1S/C7H7N/c8-5-7-2-1-6(3-7)4-7/h1-2,6H,3-4H2/t6-,7-
