17
gdb 82088	2.44527	1.71736	1.20448	6.4794	67.44	-0.2517	0.0139	0.2656	1027.2647	0.137478	-455.120705	-455.112824	-455.11188	-455.153474	30.12	
N	-0.0306512578	 1.179539424	-0.091631383	-0.544986
H	-0.4926017313	 0.4503204527	-0.6269528695	 0.248913
H	 1.2735503919	 0.2209331057	 0.7598050344	 0.314522
H	 0.0249840266	 2.0028055713	-0.6799922321	 0.249376
C	-0.7445110134	 1.4495100275	 1.1586768228	-0.01626
C	-2.1857836435	 0.9975028856	 1.3633613618	-0.046509
C	-2.2950545901	-0.4743938972	 1.4671676811	-0.249578
N	-1.8508584201	 0.260852681	 2.6579769487	-0.107706
C	-0.3989599371	 0.5789914584	 2.4137192895	-0.134514
C	 0.5398334648	-0.624684607	 2.3084902944	 0.403799
O	 0.4460011953	-1.5807844167	 3.0281211477	-0.327681
O	 1.506842023	-0.5089560315	 1.3840335373	-0.380698
H	-0.6155213377	 2.5067464316	 1.3964851262	 0.103695
H	-3.0581064946	 1.6386126684	 1.2879198181	 0.103211
H	-3.294162978	-0.8844521225	 1.5731304155	 0.134366
H	-1.5975854138	-1.1356264173	 0.9570176242	 0.125861
H	-0.027861334	 1.194389076	 3.2382145229	 0.12419
56.2346	139.6407	225.5561	253.0434	284.3822	348.7938	434.3009	499.5586	552.8263	607.6019	695.4262	746.7376	762.865	797.7727	833.6261	870.9525	923.0168	970.4347	991.218	1008.0313	1035.1175	1065.3438	1116.9186	1131.3224	1163.5439	1177.725	1207.2124	1238.3923	1249.0373	1269.0734	1331.5112	1365.2521	1429.2742	1462.6907	1508.94	1654.8475	1862.4553	3071.4221	3097.7105	3110.0081	3165.3171	3201.9865	3332.2808	3504.6816	3591.5689
[NH3+]C1C2CN2C1C([O-])=O	N[C@H]1[C@H]2CN2[C@H]1C(=O)O	
InChI=1S/C5H8N2O2/c6-3-2-1-7(2)4(3)5(8)9/h2-4H,1,6H2,(H,8,9)	InChI=1S/C5H8N2O2/c6-3-2-1-7(2)4(3)5(8)9/h2-4H,1,6H2,(H,8,9)/t2-,3+,4-,7?/m1/s1
