17
gdb 64897	2.02163	1.72831	1.08912	3.0482	80.39	-0.2579	0.0058	0.2637	1135.2674	0.133021	-380.831373	-380.821627	-380.820683	-380.865528	35.582	
C	-0.0439559463	 1.5320496616	-0.0871439318	-0.461965
C	-0.023774737	 0.0175964259	 0.0272512457	 0.092578
N	 1.2935506255	-0.6299771755	-0.1543571117	-0.385378
C	 0.6787995361	-0.6760150573	 1.1866331715	 0.132851
C	 1.3913360951	 0.07808289	 2.2948059785	-0.457501
C	 0.1218531183	-1.9409270895	 1.6219253459	 0.250288
N	-0.2818088603	-2.9549118561	 2.0047499726	-0.341878
C	-1.1790906016	-0.6340695108	-0.5384630698	 0.298612
C	-2.1430337613	-1.1464781024	-1.0416578726	-0.436904
H	 0.8903395385	 1.9685813333	 0.2660938525	 0.135889
H	-0.1742418199	 1.8128088773	-1.1360122291	 0.142936
H	-0.8781947817	 1.9498269821	 0.4832661949	 0.137175
H	 1.1838264271	-1.5229350408	-0.6303078443	 0.255692
H	 1.8618528547	 0.9802959676	 1.9051803249	 0.141105
H	 0.6922937676	 0.3496510175	 3.0907829238	 0.141452
H	 2.173552537	-0.5530070425	 2.7263238193	 0.147282
H	-2.9934609619	-1.6185741504	-1.4687932403	 0.207766
111.8095	114.2894	147.7653	160.9637	188.899	197.7548	285.5931	324.0202	372.4784	415.2082	474.4422	553.7839	595.1668	620.8603	634.4538	646.6893	669.7535	698.6694	814.2403	908.1321	991.9496	1057.6552	1066.9692	1097.234	1123.8142	1136.4762	1255.0151	1323.676	1365.4709	1408.473	1420.1006	1474.5563	1484.6059	1489.414	1503.8655	2237.786	2349.9828	3052.6563	3056.0638	3120.0388	3121.746	3148.7701	3161.1812	3500.1595	3507.0251
CC1(NC1(C)C#N)C#C	C[C@]1(N[C@]1(C)C#N)C#C	
InChI=1S/C7H8N2/c1-4-6(2)7(3,5-8)9-6/h1,9H,2-3H3	InChI=1S/C7H8N2/c1-4-6(2)7(3,5-8)9-6/h1,9H,2-3H3/t6-,7+/m0/s1
