21
gdb 115144	2.98649	1.10024	0.88488	3.1628	78.13	-0.2333	-0.0139	0.2194	1338.4579	0.18213	-424.258983	-424.249487	-424.248543	-424.293455	35.396	
C	 0.0632161379	 1.6458085238	 0.2072454578	-0.401429
C	 0.0217145164	 0.1214915413	-0.0152485621	-0.127355
C	 0.7848038481	-0.4075281063	-1.253088659	 0.03096
C	 0.7221207479	 0.4631170454	-2.4989052869	-0.109362
O	 1.3872137433	-0.238219876	-3.5413882529	-0.423479
C	 2.2177830494	-0.6789404454	-0.7390860175	-0.219084
C	 2.0002442643	-1.2495696377	 0.6685804624	-0.327081
C	 0.7253082093	-0.5671809927	 1.170958724	 0.407231
O	 0.3363581593	-0.5406044188	 2.3106228165	-0.325003
H	 1.087697987	 2.0331097747	 0.2106675278	 0.119393
H	-0.4959385944	 2.1772863261	-0.5681565214	 0.118376
H	-0.3848608912	 1.8798584954	 1.1764870286	 0.139744
H	-1.0282166979	-0.1895227384	-0.0211281461	 0.095921
H	 0.3451790839	-1.3761568545	-1.5272155666	 0.085441
H	-0.3290067071	 0.6634786469	-2.7639880185	 0.086403
H	 1.2041992847	 1.4345153333	-2.308531403	 0.087385
H	 1.3910354548	 0.3186628582	-4.325116927	 0.287784
H	 2.7700337411	-1.3444279669	-1.4037723759	 0.118668
H	 2.7789136434	 0.2625434039	-0.6840567478	 0.099748
H	 1.7996120788	-2.328992391	 0.6296675728	 0.130251
H	 2.8242064111	-1.1051430513	 1.371218025	 0.125489
56.4979	114.7387	156.5493	186.2204	236.2077	257.5396	268.9217	295.8311	361.8062	457.573	490.5307	525.5908	617.3544	657.2774	759.0896	801.2153	829.0578	904.6565	960.8741	991.8894	1014.6668	1021.5932	1055.0257	1070.1038	1093.0507	1139.9266	1165.9919	1179.399	1222.6082	1249.3486	1261.8357	1269.7204	1299.0024	1319.3349	1330.0884	1340.7254	1385.7419	1403.2547	1451.4452	1461.1036	1496.4748	1498.9033	1505.2161	1523.4205	1840.464	2962.9511	2994.0716	3016.4529	3027.2816	3035.7023	3039.5697	3054.4715	3105.437	3107.0009	3120.6254	3121.2211	3832.9665
CC1C(CO)CCC1=O	C[C@H]1[C@@H](CO)CCC1=O	
InChI=1S/C7H12O2/c1-5-6(4-8)2-3-7(5)9/h5-6,8H,2-4H2,1H3	InChI=1S/C7H12O2/c1-5-6(4-8)2-3-7(5)9/h5-6,8H,2-4H2,1H3/t5-,6+/m0/s1
