20
gdb 63033	3.40789	1.21565	1.1566	2.5635	79.56	-0.2289	0.0733	0.3022	1167.7502	0.16932	-403.081982	-403.073311	-403.072367	-403.114735	33.863	
C	-0.0068438024	 1.4428668858	-0.0477658483	-0.442702
C	-0.0353745292	-0.0750359366	-0.0357678363	 0.326133
C	-1.3001634065	-0.6463085921	 0.5766799455	-0.469376
C	 0.7078784904	-0.7367298669	-1.1391024073	-0.186477
N	 1.3164736211	-0.6144326566	 0.2613810754	-0.173292
C	 1.2257915583	-2.1161030391	 0.3951643472	-0.263232
C	 0.6718511603	-2.241550604	-1.0233442483	 0.448346
C	-0.1298342629	-3.2533119148	-1.7158063234	-0.272799
O	 1.2697965515	-3.0829942749	-1.9894767426	-0.276668
H	 0.9448519915	 1.8087292324	-0.4400370329	 0.130295
H	-0.8196223842	 1.8430527633	-0.6633680658	 0.113651
H	-0.1249915697	 1.8336273337	 0.9685904502	 0.121095
H	-2.1753623126	-0.2054623744	 0.0881456842	 0.12332
H	-1.3837192452	-1.7293097631	 0.4789813696	 0.125195
H	-1.3552503067	-0.3917277199	 1.6413346082	 0.12474
H	 1.1098803038	-0.2006627764	-1.993944633	 0.101193
H	 2.2329388552	-2.5322951278	 0.470804999	 0.129653
H	 0.6196977462	-2.4712162913	 1.2334060739	 0.107124
H	-0.3933654249	-4.1796708759	-1.2064325631	 0.116814
H	-0.8026083542	-2.9566111113	-2.5195522522	 0.116987
113.8892	170.9606	191.1187	214.3174	255.6039	328.3101	343.4916	375.9886	410.6711	460.4132	505.9082	590.4316	655.1189	791.0752	831.4682	854.6449	881.1371	896.9354	954.4435	961.7375	996.8204	1010.0588	1030.9283	1065.6961	1084.7654	1123.7535	1141.4424	1155.2584	1157.5969	1192.0294	1234.2061	1274.873	1297.7652	1390.2617	1409.2691	1422.0726	1443.8164	1477.5626	1484.9181	1490.4699	1505.633	1509.8021	1536.1268	3033.1211	3038.1868	3057.6985	3078.7608	3093.2635	3099.1757	3116.3433	3125.1274	3136.0687	3156.5912	3165.5512
CC1(C)C2N1CC21CO1	CC1(C)[C@H]2N1C[C@]12CO1	
InChI=1S/C7H11NO/c1-6(2)5-7(4-9-7)3-8(5)6/h5H,3-4H2,1-2H3	InChI=1S/C7H11NO/c1-6(2)5-7(4-9-7)3-8(5)6/h5H,3-4H2,1-2H3/t5-,7-,8?/m1/s1
