20
gdb 6571	3.56145	1.67018	1.44576	1.1243	74.87	-0.2461	0.0821	0.3282	963.7709	0.175615	-348.980105	-348.971709	-348.970765	-349.011952	33.309	
C	-0.0797441479	 1.5602323489	 0.0797888621	-0.442772
C	 0.0291800878	 0.0372537607	 0.0269461141	 0.348737
C	-1.3412341957	-0.5967390039	-0.218790438	-0.439447
C	 1.119566097	-0.5568947568	-0.9458463042	-0.355154
C	 1.7688896001	-1.2603961923	 0.2525322614	 0.414842
O	 2.2216926715	-2.5696632895	 0.2340463429	-0.46656
C	 2.2120488278	-0.263714675	 1.2828005525	-0.362175
C	 0.7505601287	-0.6580453064	 1.2030814399	-0.133667
H	 0.8880747967	 2.0367338988	 0.2624341588	 0.109937
H	-0.4696502055	 1.9553454123	-0.8654462056	 0.110749
H	-0.7617893583	 1.8763594394	 0.8774942245	 0.111436
H	-1.7639943576	-0.2616604947	-1.1728016991	 0.10898
H	-1.2715795808	-1.6891246991	-0.2433966971	 0.119404
H	-2.0467947666	-0.3243692386	 0.5751254131	 0.108943
H	 0.6912205081	-1.2620791767	-1.662037209	 0.104329
H	 1.7469062716	 0.1628939486	-1.4834941577	 0.083668
H	 3.1525660534	-2.5632001095	-0.0147962971	 0.282908
H	 2.7372288904	-0.7030484668	 2.1254817328	 0.110784
H	 2.553096235	 0.7320774627	 1.0085300089	 0.100751
H	 0.2492209844	-1.1141222821	 2.0495793367	 0.084306
135.5641	216.6449	233.936	254.0884	263.8016	332.6656	348.8212	391.334	414.0482	428.0904	486.7836	573.724	681.6723	785.6455	829.3543	877.0972	910.5154	947.1811	953.3623	973.4311	984.9427	1008.1245	1030.2736	1048.927	1075.3563	1106.4366	1193.1634	1196.7064	1221.8324	1263.16	1279.3906	1288.7154	1330.6447	1397.5815	1405.4265	1424.1051	1476.5947	1484.1995	1487.6738	1501.9014	1506.7333	1509.1335	3019.5485	3026.1919	3037.7052	3083.1176	3088.5142	3097.0374	3100.8804	3105.2515	3107.233	3172.8711	3197.6161	3791.1183
CC1(C)CC2(O)CC12	CC1(C)C[C@@]2(O)C[C@@H]12	
InChI=1S/C7H12O/c1-6(2)4-7(8)3-5(6)7/h5,8H,3-4H2,1-2H3	InChI=1S/C7H12O/c1-6(2)4-7(8)3-5(6)7/h5,8H,3-4H2,1-2H3/t5-,7-/m0/s1
