16
gdb 18253	4.52059	1.67189	1.37378	2.7628	65.49	-0.2486	-0.0093	0.2393	911.4802	0.130198	-383.701367	-383.694134	-383.69319	-383.733151	26.728	
C	-0.0036655374	 1.3909736341	-0.0624712462	-0.23306
O	-0.0004155344	 0.0068538933	 0.202960423	-0.241148
C	-1.2642479249	-0.608823476	 0.0653658446	 0.094567
C	-1.7051464438	-0.8722467709	-1.3735039839	-0.117716
C	-2.0148404603	-2.1531296425	-1.5758709813	-0.078392
C	-1.753610046	-2.9493664278	-0.3333113168	-0.008258
O	-0.3585927587	-2.9293129778	 0.0423141558	-0.243769
C	-1.247799429	-2.0102414666	 0.6751245297	 0.002689
H	 1.00408079	 1.7585258463	 0.1448216888	 0.132229
H	-0.2488091004	 1.6192362935	-1.1103527885	 0.107027
H	-0.717774319	 1.9275120437	 0.5826427932	 0.103227
H	-2.0261906562	-0.0016591607	 0.5877747938	 0.070132
H	-1.7238746849	-0.0916804123	-2.1248604991	 0.106663
H	-2.3574517136	-2.5911285418	-2.5055967584	 0.107025
H	-2.2912772459	-3.8612049714	-0.0935408341	 0.099787
H	-1.3760661256	-2.1385055131	 1.7458199992	 0.098996
78.5137	131.0704	183.5803	252.6408	343.9914	427.4346	491.9954	560.0611	715.5309	746.8951	829.4789	835.1023	870.806	923.2502	945.3931	974.5161	1004.7374	1025.1797	1064.2412	1105.861	1125.3805	1161.8039	1181.0189	1221.8601	1255.5519	1299.4452	1309.2805	1356.1924	1380.3882	1421.551	1478.2601	1490.1915	1507.2386	1668.3184	2933.674	2972.9183	3021.8348	3116.4342	3155.8644	3170.659	3193.8389	3218.1296
COC1C=CC2OC12	CO[C@H]1C=C[C@H]2O[C@@H]12	
InChI=1S/C6H8O2/c1-7-4-2-3-5-6(4)8-5/h2-6H,1H3	InChI=1S/C6H8O2/c1-7-4-2-3-5-6(4)8-5/h2-6H,1H3/t4-,5+,6-/m0/s1
