20
gdb 92298	2.23162	1.87855	1.20952	3.5969	78.41	-0.2338	0.0319	0.2657	1076.5021	0.173248	-403.19265	-403.184467	-403.183523	-403.225535	31.635	
C	-1.0335742841	 1.1110157924	 0.1173431146	-0.403459
C	-0.0709601158	-0.0594050763	-0.0097227108	 0.041159
C	 1.175326676	 0.0755755908	-0.9341369185	-0.252544
C	 2.0492426265	-0.620692893	 0.1497966217	-0.01075
C	 3.2532705361	 0.1713434267	 0.686340418	-0.187859
N	 2.6327093575	 1.0799456803	 1.6358159998	-0.305625
C	 1.3493020336	 0.775346565	 2.014113314	 0.409633
O	 0.7074011676	 1.3594100806	 2.8620766666	-0.395325
C	 0.8935604789	-0.413589621	 1.1675351271	-0.160903
H	-0.5105574808	 2.034606597	 0.3819380569	 0.127488
H	-1.5605289464	 1.2773453852	-0.8290139272	 0.106007
H	-1.7813673627	 0.9271123805	 0.8950141118	 0.127413
H	-0.6276965762	-0.9639752223	-0.2772130328	 0.074935
H	 1.1221658115	-0.4113055488	-1.9105663264	 0.099514
H	 1.4664294493	 1.1205559876	-1.0841232987	 0.102703
H	 2.3023589724	-1.6541615887	-0.0876656982	 0.075486
H	 3.98849205	-0.4831201466	 1.1758106707	 0.104179
H	 3.7716546471	 0.7174285441	-0.1113055582	 0.109938
H	 3.1417244133	 1.7945514214	 2.1319551647	 0.248111
H	 0.586830746	-1.2293838249	 1.8256148648	 0.089899
68.9755	145.4449	166.3953	195.898	312.664	353.0773	398.6296	480.7952	536.9652	570.0009	687.8287	700.2354	727.1197	793.6489	829.6306	884.8045	913.0802	935.2112	939.9066	987.8916	1017.6965	1060.1773	1098.2917	1129.5138	1140.4324	1155.9818	1203.6675	1222.6632	1242.3403	1253.3177	1261.015	1273.605	1305.6417	1329.6459	1357.6859	1383.1092	1415.7002	1447.0723	1484.0482	1488.5322	1492.1687	1530.1494	1815.467	2996.7299	3032.1026	3040.8433	3041.9504	3049.1958	3087.5617	3098.7428	3099.4343	3111.0823	3115.5789	3637.7517
CC1CC2CNC(=O)C12	C[C@H]1C[C@H]2CNC(=O)[C@@H]12	
InChI=1S/C7H11NO/c1-4-2-5-3-8-7(9)6(4)5/h4-6H,2-3H2,1H3,(H,8,9)	InChI=1S/C7H11NO/c1-4-2-5-3-8-7(9)6(4)5/h4-6H,2-3H2,1H3,(H,8,9)/t4-,5-,6-/m0/s1
