20
gdb 121487	4.77847	0.59008	0.53063	2.4872	83.34	-0.2389	0.0108	0.2496	2074.4828	0.170281	-436.518187	-436.507675	-436.506731	-436.554615	37.265	
C	-0.1127117742	 1.5509788452	 0.0015502114	-0.393118
C	 0.0636132322	 0.0576640559	-0.2893157695	-0.177474
C	 0.5901801716	-0.1845323514	-1.7091147559	-0.108856
N	 0.8180499411	-1.5491310008	-2.1571568129	-0.282987
C	 0.5824690009	-2.5228522338	-1.3844874649	 0.128696
N	 0.7984228138	-3.822536181	-1.8217399681	-0.368289
C	 0.6162711954	-4.9297176598	-1.0043342753	 0.472615
N	 0.9142826873	-6.1285652699	-1.6241358247	-0.569211
O	 0.2660279882	-4.8480918176	 0.1556277839	-0.378381
H	 0.8375071004	 2.0885714654	-0.0907146581	 0.116562
H	-0.8210240747	 2.0105870945	-0.6967180522	 0.116051
H	-0.4905407683	 1.7164261297	 1.0148521965	 0.115001
H	 0.7546174668	-0.3785835405	 0.4430651972	 0.105668
H	-0.8966692882	-0.4565875175	-0.1559207816	 0.103664
H	-0.0981803578	 0.2795294924	-2.4303813025	 0.105948
H	 1.5386624188	 0.3571890953	-1.8364075782	 0.106824
H	 0.2100476673	-2.491243369	-0.3604047206	 0.136233
H	 1.1871260182	-3.9149659123	-2.7486582247	 0.251433
H	 0.8136455761	-6.2040717689	-2.6244338229	 0.252727
H	 0.6031255149	-6.9335680659	-1.1031751266	 0.266891
51.7748	80.0304	85.936	120.7338	191.4529	217.4492	232.6974	297.4924	302.9245	381.3284	388.2945	469.0094	511.5079	581.6778	637.062	663.1067	749.5455	772.237	883.2237	893.5463	985.8907	1014.3032	1031.6642	1062.0409	1109.7876	1118.9128	1163.833	1260.8394	1282.8006	1294.3359	1322.1769	1328.1166	1365.3069	1404.8349	1414.6053	1479.36	1494.1925	1499.4503	1510.6	1520.8544	1626.7819	1758.9807	1815.0164	2999.4051	3017.1375	3021.8112	3030.8191	3057.8216	3096.9546	3104.8811	3137.871	3583.2631	3617.2243	3701.7643
CCCN=CNC(N)=O	CCCN=CNC(=O)N	
InChI=1S/C5H11N3O/c1-2-3-7-4-8-5(6)9/h4H,2-3H2,1H3,(H3,6,7,8,9)	InChI=1S/C5H11N3O/c1-2-3-7-4-8-5(6)9/h4H,2-3H2,1H3,(H3,6,7,8,9)
