18
gdb 29510	2.99263	1.58501	1.05939	2.6625	79.82	-0.1737	0.0468	0.2205	1125.6519	0.14971	-401.977592	-401.969422	-401.968478	-402.010373	30.664	
C	 0.0282438756	 1.5304402267	 0.0277458689	-0.506746
C	-0.0151815245	 0.0337690976	 0.0277868736	 0.093948
C	-0.0304019733	-0.8045616607	-1.0783570184	-0.150804
N	-0.050651367	-2.1229841596	-0.6718258799	-0.381318
C	-0.0860658002	-2.1456725885	 0.7005289798	 0.20179
C	-0.04568681	-0.8546773368	 1.133220777	 0.312498
O	 0.0323891468	-0.7206434337	 2.4955977086	-0.297605
C	-0.1922821809	-2.059049368	 3.0078159286	-0.083775
C	 0.0429798732	-3.0911378291	 1.8499594108	-0.367625
H	 0.9251735225	 1.9121142097	 0.5295599729	 0.126833
H	 0.0289363791	 1.9213714003	-0.9939868713	 0.11525
H	-0.8340181826	 1.9623004057	 0.5489356684	 0.126101
H	-0.0522215948	-0.55153795	-2.1269963501	 0.112155
H	-0.1358087724	-2.9114434167	-1.2873893154	 0.257199
H	 0.4733045447	-2.2064184445	 3.8609177187	 0.113664
H	-1.2317375251	-2.1196365662	 3.3529027439	 0.109429
H	-0.7014579833	-3.8937455674	 1.8955445223	 0.108506
H	 1.0346979424	-3.562165719	 1.9120453216	 0.110502
103.4492	136.6683	139.0055	224.1056	240.7292	313.9296	389.2624	488.455	592.1662	612.5009	623.506	681.6112	697.7994	756.0435	798.1492	853.1134	928.9962	984.0899	1000.0604	1063.9146	1066.5536	1076.8867	1117.2529	1186.735	1194.8369	1234.8635	1265.8618	1293.594	1353.8911	1385.3017	1420.4194	1444.69	1481.1593	1493.5507	1498.0808	1515.1208	1521.437	1565.3784	1650.4631	2992.0505	3024.2506	3025.0241	3051.9029	3071.5871	3103.6495	3108.4115	3252.9135	3691.5674
CC1=CNC2=C1OCC2	Cc1c[nH]c2c1OCC2	
InChI=1S/C7H9NO/c1-5-4-8-6-2-3-9-7(5)6/h4,8H,2-3H2,1H3	InChI=1S/C7H9NO/c1-5-4-8-6-2-3-9-7(5)6/h4,8H,2-3H2,1H3
