16
gdb 77040	3.18073	0.91359	0.80779	2.8292	71.4	-0.2599	-0.0395	0.2204	1384.9128	0.122597	-437.884689	-437.87556	-437.874616	-437.919533	32.192	
O	-0.1767741866	 1.332809717	 0.1593846501	-0.40699
C	-0.119292884	-0.0508688908	 0.0187237531	 0.080818
C	-1.4271922912	-0.749870403	-0.0555466813	-0.056247
C	-2.7330944543	 0.0309943035	 0.0430811552	-0.367563
C	-3.2707194653	-0.010252522	 1.4037152588	 0.264669
N	-3.6900333684	-0.0603476563	 2.4789560653	-0.299684
C	-0.5450246324	-0.6909174308	-1.3128798712	-0.194333
C	-0.8938500513	 0.1635300851	-2.4714802169	 0.157227
O	-0.6951716313	-0.1595305463	-3.6182598147	-0.267293
H	 0.6242507955	 1.7165444148	-0.2130751245	 0.304203
H	 0.696174795	-0.5406243964	 0.5482230841	 0.116093
H	-1.4709412787	-1.7332388023	 0.400527921	 0.129714
H	-2.5792167095	 1.0773065985	-0.2320284457	 0.176062
H	-3.4840730191	-0.3846911435	-0.6378091009	 0.161866
H	-0.0579834179	-1.6177651465	-1.5969203485	 0.117928
H	-1.3430964105	 1.1486822392	-2.2270994139	 0.083531
48.0272	81.3764	123.4465	192.1719	208.2422	242.9255	342.652	385.5993	405.3535	436.2017	499.4294	563.9015	607.3888	774.8419	850.9536	896.2912	929.6228	964.5815	1007.9179	1020.3084	1055.3128	1128.1134	1148.5683	1181.385	1230.5635	1249.3376	1286.3002	1314.9375	1334.0074	1395.3155	1444.8062	1457.6242	1476.6529	1808.3608	2365.7953	2910.8487	3054.8997	3112.1848	3119.4772	3167.4912	3178.3305	3812.1943
OC1C(CC#N)C1C=O	O[C@H]1[C@@H](CC#N)[C@H]1C=O	
InChI=1S/C6H7NO2/c7-2-1-4-5(3-8)6(4)9/h3-6,9H,1H2	InChI=1S/C6H7NO2/c7-2-1-4-5(3-8)6(4)9/h3-6,9H,1H2/t4-,5+,6-/m0/s1
