16
gdb 21074	3.35379	2.03872	1.28845	1.1842	68.13	-0.2006	0.0291	0.2297	922.2693	0.130406	-379.942671	-379.934189	-379.933244	-379.975805	29.641	
C	-0.0357235219	 1.4058110988	-0.0320167948	-0.326247
N	 0.0088977374	-0.0371635441	 0.0333684985	-0.009771
N	 0.0005570646	-0.7551657345	-1.103380837	-0.269893
C	 0.0419290808	-2.028285448	-0.7067501803	-0.117503
C	 0.0783088123	-2.1178442148	 0.697689334	 0.153227
O	 0.1267681925	-3.2146445719	 1.5106953	-0.451883
C	 0.0554588298	-0.8136834118	 1.158013087	 0.293689
C	 0.0753658669	-0.2809086328	 2.5501942069	-0.514282
H	 0.841839111	 1.8507294676	 0.4491778665	 0.134909
H	-0.0459414604	 1.6783358876	-1.0867279218	 0.161089
H	-0.9370196981	 1.7977926252	 0.4519837488	 0.134884
H	 0.0454259323	-2.8247410844	-1.437342107	 0.099615
H	 0.1301167436	-4.0036668218	 0.9614243202	 0.298494
H	 0.9569795922	 0.3421322521	 2.7446369677	 0.130674
H	-0.8102344904	 0.3254755379	 2.7758166921	 0.130258
H	 0.0959602274	-1.1172456451	 3.2522190891	 0.15274
74.405	104.6893	151.8565	191.7906	240.9809	245.6295	295.3284	354.536	509.6755	591.278	647.2202	685.716	722.1433	786.1635	822.8167	952.6974	1042.8213	1062.654	1113.3652	1149.5053	1181.8489	1218.4862	1288.1869	1365.5847	1404.2473	1413.2939	1426.0579	1456.1929	1479.3662	1489.713	1492.4707	1504.8925	1542.6243	1660.2691	3020.1339	3031.3878	3065.9058	3085.8212	3128.9397	3164.0524	3232.0634	3844.9211
CN1N=CC(O)=C1C	Cn1ncc(O)c1C	
InChI=1S/C5H8N2O/c1-4-5(8)3-6-7(4)2/h3,8H,1-2H3	InChI=1S/C5H8N2O/c1-4-5(8)3-6-7(4)2/h3,8H,1-2H3
