13
gdb 123397	7.8405	0.81178	0.739	0.3082	66.14	-0.2732	-0.0248	0.2483	1413.113	0.088518	-452.693502	-452.685751	-452.684807	-452.7268	27.313	
C	 0.0659431308	-1.1676942927	-0.0054493089	-0.393647
C	 0.0582356417	 0.032319437	 0.0021425101	 0.2984
C	 0.0033294915	 1.4824483542	 0.0118601336	-0.253176
O	 1.3513086124	 1.9992430994	-0.0009743003	-0.242294
C	 1.4420978947	 3.3205253444	 0.0061988884	 0.478246
N	 0.41395709	 4.1380236245	 0.0235662057	-0.216015
O	 1.0341879299	 5.4018815237	 0.0240689221	-0.17126
C	 2.3457595411	 5.1699778007	 0.0069822592	 0.118141
N	 2.6788478369	 3.9201954058	-0.0048012268	-0.320293
H	 0.0784330742	-2.2298952017	-0.0122373388	 0.209386
H	-0.5357359058	 1.8666413291	-0.8623474772	 0.160202
H	-0.5146934954	 1.855604931	 0.90339864	 0.160202
H	 2.9977095179	 6.0314755644	 0.0045919928	 0.172109
46.8194	114.8529	124.7177	231.8137	322.4302	351.3921	431.6546	528.739	615.0568	619.7015	695.3261	776.0936	784.7648	912.094	933.7871	972.5689	983.452	1014.6657	1016.9309	1070.0201	1155.8959	1253.9778	1310.8155	1369.1824	1423.4474	1487.6929	1564.0301	1617.0237	2254.4927	3032.7961	3067.9745	3266.0763	3504.4137
C#CCOC1=NOC=N1	C#CCOc1nocn1	
InChI=1S/C5H4N2O2/c1-2-3-8-5-6-4-9-7-5/h1,4H,3H2	InChI=1S/C5H4N2O2/c1-2-3-8-5-6-4-9-7-5/h1,4H,3H2
