17
gdb 110811	2.36062	1.57833	1.19673	5.5772	72.62	-0.2348	0.0151	0.2499	1077.9634	0.136009	-417.945909	-417.937513	-417.936569	-417.979261	30.757	
C	 0.0972126403	 0.9823268267	-0.4329661219	-0.235275
O	-0.1972398837	 0.0270445961	 0.5733972055	-0.229161
C	-1.379698399	-0.6524488653	 0.357395291	 0.149369
C	-1.5493889941	-1.6745452847	-0.7264782276	-0.089935
N	-0.2344783613	-2.2858909555	-1.0092664905	-0.31611
C	-0.2183173517	-2.8617976749	 0.3769555619	-0.140417
C	 1.0128596136	-2.6475387562	 1.1434511527	 0.323195
N	 1.983702339	-2.5500909373	 1.761974504	-0.333303
C	-1.4956184871	-2.0909071568	 0.7568029736	-0.165926
H	 1.043779805	 1.4493223544	-0.1545889405	 0.137002
H	 0.2027867578	 0.5019531764	-1.4131174611	 0.127055
H	-0.6811551729	 1.7575832903	-0.4908082829	 0.102151
H	-2.2889836043	-0.0792438136	 0.5574720884	 0.09492
H	-2.3563137501	-1.6852062894	-1.4493945859	 0.104505
H	-0.3111205796	-3.0342316215	-1.6895328993	 0.234528
H	-0.4245844015	-3.9368662689	 0.3698308225	 0.126756
H	-2.2405867806	-2.4619006598	 1.4482049101	 0.110646
82.3005	109.6034	146.0188	186.4255	243.2091	269.2526	343.6001	477.0139	533.225	574.3174	642.1837	713.2036	749.2556	826.9607	869.7278	923.4418	948.8539	974.8407	1009.6338	1039.7816	1056.5205	1078.6483	1098.0033	1124.8481	1175.4589	1202.4803	1204.6308	1253.4087	1279.665	1314.7263	1354.3941	1375.3085	1442.0278	1488.0662	1490.8558	1502.312	2360.97	2992.6082	3055.7771	3063.4616	3073.2337	3132.2414	3183.6439	3199.5269	3535.5174
COC1C2NC(C#N)C12	CO[C@H]1[C@H]2N[C@@H](C#N)[C@@H]12	
InChI=1S/C6H8N2O/c1-9-6-4-3(2-7)8-5(4)6/h3-6,8H,1H3	InChI=1S/C6H8N2O/c1-9-6-4-3(2-7)8-5(4)6/h3-6,8H,1H3/t3-,4+,5-,6+/m0/s1
