17
gdb 86953	2.66505	1.24613	1.16242	4.0521	65.4	-0.2685	0.0009	0.2694	1123.5513	0.134903	-496.100977	-496.092425	-496.091481	-496.134369	31.868	
O	-0.7355347895	 1.0349521484	 1.2285433062	-0.4461
C	-0.2119989247	 0.2040362434	 0.2069270525	 0.083632
C	 0.7721456843	-0.8919349187	 0.6977531557	-0.285885
C	-0.4204386633	-1.8610605806	 0.8392497435	 0.037333
O	-0.9341302062	-1.7223585597	 2.1728878815	-0.217397
C	-2.0839742313	-2.3850292615	 2.4585596177	 0.178185
O	-2.6561916777	-2.2340268257	 3.4943707935	-0.275356
C	-1.2181143216	-0.9373053361	-0.1460924775	 0.127988
O	-2.5622174307	-0.6967263607	 0.1199308122	-0.427295
H	-0.7672230801	 0.5201085884	 2.0459809249	 0.302316
H	 0.1094231012	 0.8655906874	-0.5992797011	 0.095111
H	 1.4622802816	-1.207511295	-0.0879947963	 0.123299
H	 1.3333073149	-0.6821226389	 1.6104946108	 0.128349
H	-0.286725735	-2.917529436	 0.5918657814	 0.091815
H	-2.3928085689	-3.0768656046	 1.656837893	 0.095817
H	-1.0998817575	-1.2909534144	-1.1759680178	 0.092678
H	-2.5790166454	 0.0979670944	 0.67578531	 0.29551
78.114	117.028	173.9863	225.4219	256.5816	276.71	375.8678	408.319	421.3118	533.7338	595.2213	610.0458	666.2973	735.9865	850.3026	889.9773	917.8339	926.5044	1001.9494	1024.4508	1037.0874	1115.7074	1136.175	1140.1404	1176.5055	1190.0245	1236.2839	1258.3384	1278.2143	1322.0092	1334.4628	1358.2906	1421.4757	1430.976	1444.5638	1465.8647	1866.4305	2999.7359	3055.0754	3069.993	3080.5311	3102.2962	3135.7427	3704.7824	3769.1019
OC1CC(OC=O)C1O	O[C@H]1C[C@@H](OC=O)[C@H]1O	
InChI=1S/C5H8O4/c6-2-9-4-1-3(7)5(4)8/h2-5,7-8H,1H2	InChI=1S/C5H8O4/c6-2-9-4-1-3(7)5(4)8/h2-5,7-8H,1H2/t3-,4+,5-/m0/s1
