16
gdb 68988	2.88547	1.31795	1.07418	3.1297	68.83	-0.2443	0.029	0.2733	1118.2728	0.122782	-437.847221	-437.838692	-437.837748	-437.880832	31.304	
O	-0.7768572965	 0.971202648	 0.7536998771	-0.446332
C	-0.2803826547	-0.1551076462	 0.1400907782	 0.271925
C	-0.1622973331	-1.517781708	 0.7955357029	-0.41145
C	-0.9927345813	-1.3479208993	-0.4513944475	 0.415052
C	-2.4234920172	-1.7600555781	-0.677434323	-0.454382
C	-3.228998186	-1.7185450372	 0.5399368477	 0.275199
N	-3.8553677758	-1.6917990453	 1.5100378782	-0.313398
O	-0.1550255911	-1.3582433355	-1.6092449122	-0.326492
C	 0.5209355214	-0.1454226932	-1.1599974896	-0.13936
H	-0.321105635	 1.0974679601	 1.5926001039	 0.297796
H	 0.7619201098	-2.0893075047	 0.7598132973	 0.118758
H	-0.7411330264	-1.609010697	 1.7103080092	 0.14543
H	-2.8794922041	-1.1149075747	-1.4370877936	 0.166576
H	-2.4414713856	-2.7827230906	-1.07625793	 0.168802
H	 0.2669936693	 0.700154354	-1.80789125	 0.122122
H	 1.6077234664	-0.2722166624	-1.1047892986	 0.109753
51.4393	109.8217	164.1039	241.0875	251.4658	351.61	374.8971	389.3079	427.4316	483.2015	518.9615	648.8237	737.249	752.9246	859.723	920.8952	951.9593	967.4724	973.4617	1012.2432	1047.0775	1061.7939	1131.1483	1142.5097	1175.6498	1227.9778	1274.3585	1306.787	1341.3097	1364.8295	1420.4923	1463.7015	1498.8833	1526.7277	2368.9183	3032.0817	3033.8791	3072.2769	3091.6464	3108.8169	3208.3209	3807.5992
OC12CC1(CC#N)OC2	O[C@@]12C[C@]1(CC#N)OC2	
InChI=1S/C6H7NO2/c7-2-1-6-3-5(6,8)4-9-6/h8H,1,3-4H2	InChI=1S/C6H7NO2/c7-2-1-6-3-5(6,8)4-9-6/h8H,1,3-4H2/t5-,6+/m1/s1
