21
gdb 122241	2.78942	0.84941	0.72495	4.6615	84.41	-0.2354	0.0315	0.2669	1650.7362	0.181659	-383.263911	-383.253786	-383.252842	-383.29973	36.7	
C	 0.1750965328	 1.4648390113	 0.3037944663	-0.381693
C	-0.1279603088	 0.0243146881	-0.1149072766	-0.18567
C	 0.8534798958	-0.503600143	-1.1598802047	-0.124259
N	 0.5116234675	-1.8720525187	-1.5497165566	-0.356615
C	 1.3591586163	-2.4549173684	-2.5522556184	 0.1971
C	 2.809996755	-2.8587340838	-2.2651900923	-0.292322
C	 1.7505483462	-3.9111788558	-2.4362290267	-0.312041
C	 1.0933781595	-1.9571919474	-3.8876737791	 0.282556
N	 0.9009286784	-1.5464479473	-4.9516375148	-0.351989
H	 1.1784663042	 1.5532246933	 0.7346912206	 0.115593
H	 0.1214379602	 2.1449935594	-0.5530391102	 0.122753
H	-0.5403547085	 1.8167076798	 1.0526884424	 0.117198
H	-0.0985416319	-0.6282725811	 0.7692550399	 0.089145
H	-1.1434973193	-0.0502255176	-0.5193869669	 0.115582
H	 0.8027426572	 0.1200400184	-2.0609244578	 0.125596
H	 1.8875934171	-0.4189138384	-0.7789151017	 0.080345
H	 0.4611205715	-2.4775468361	-0.7388639374	 0.221032
H	 3.5479545973	-2.7348001799	-3.0490397963	 0.139766
H	 3.1659657023	-2.6502565809	-1.2624349994	 0.125853
H	 1.3926528994	-4.435368265	-1.5560121916	 0.127153
H	 1.7503663777	-4.5068262968	-3.3409621088	 0.144918
55.2158	72.6915	114.7443	136.8421	186.8541	223.6075	236.1949	294.4152	330.3351	392.3182	455.4024	575.9647	603.934	664.7639	711.455	762.2011	779.7562	872.8614	899.9324	903.9945	943.142	961.7786	991.8524	1046.5641	1059.1611	1088.8858	1102.0273	1148.4891	1170.603	1192.1764	1256.3684	1279.221	1315.8276	1333.8826	1337.7449	1412.1423	1416.7563	1459.3869	1489.1965	1490.4228	1493.2046	1501.1352	1505.7435	1523.162	2352.2395	2937.6891	3009.3181	3033.6513	3048.1724	3068.4265	3101.0214	3108.5541	3137.6851	3142.2457	3224.4503	3238.7226	3544.6463
CCCNC1(CC1)C#N	CCCNC1(CC1)C#N	
InChI=1S/C7H12N2/c1-2-5-9-7(6-8)3-4-7/h9H,2-5H2,1H3	InChI=1S/C7H12N2/c1-2-5-9-7(6-8)3-4-7/h9H,2-5H2,1H3
