18
gdb 15798	5.41469	1.01414	0.97337	2.8298	68.8	-0.2501	-0.0211	0.229	1223.0009	0.151691	-384.931493	-384.922663	-384.921719	-384.965662	31.518	
O	-0.4390080452	 1.3197194063	 0.1107984296	-0.425059
C	-0.0711428318	-0.0538842677	 0.0455948084	 0.089725
C	 0.7684386668	-0.3292138113	-1.213624009	-0.30633
C	 0.0653544018	 0.1596661856	-2.4612263179	 0.166851
O	 0.5472950441	 0.9083450208	-3.2707197057	-0.240811
C	 0.6242687145	-0.541410494	 1.3081509939	 0.017184
C	 1.5767315955	 0.3465029575	 2.0690427557	-0.270967
C	 0.2283420135	 0.0003530508	 2.6535449134	-0.272308
H	 0.3512249916	 1.8514189557	-0.03647116	 0.289877
H	-1.0280576582	-0.5848873397	-0.0485122477	 0.096232
H	 1.7504693295	 0.1518405466	-1.1455135746	 0.117899
H	 0.9289549077	-1.4121905969	-1.3093678007	 0.122023
H	-0.9696860853	-0.2346777704	-2.5873492096	 0.075051
H	 0.8855203807	-1.5959943007	 1.2690126652	 0.083876
H	 2.465990139	-0.1020907646	 2.4969208019	 0.114774
H	 1.7183680676	 1.3667880123	 1.7279826879	 0.100979
H	-0.5159389019	 0.7881585158	 2.6619982726	 0.129393
H	 0.18515198	-0.6832541764	 3.4938282967	 0.111612
55.4674	79.9514	97.1225	165.6498	258.2968	279.2327	322.5297	359.4232	448.7024	548.9568	590.6452	763.1959	790.645	808.3853	831.9356	925.2732	931.371	998.9602	1029.0197	1054.7777	1060.3384	1079.5752	1088.3679	1136.844	1159.5584	1182.9232	1199.1727	1229.5534	1270.1697	1315.2203	1358.6334	1397.1893	1419.4936	1429.989	1458.7529	1461.658	1504.5794	1837.9536	2864.5155	3020.0531	3021.5188	3084.9147	3133.3173	3137.7754	3143.4845	3213.3353	3233.6934	3802.3871
OC(CC=O)C1CC1	O[C@@H](CC=O)C1CC1	
InChI=1S/C6H10O2/c7-4-3-6(8)5-1-2-5/h4-6,8H,1-3H2	InChI=1S/C6H10O2/c7-4-3-6(8)5-1-2-5/h4-6,8H,1-3H2/t6-/m0/s1
