20
gdb 6631	6.07477	0.67295	0.63485	1.525	80.91	-0.2374	0.0649	0.3023	1804.8031	0.173973	-348.98954	-348.978981	-348.978036	-349.028872	36.124	
C	 0.0215139511	 1.509075828	-0.0027335837	-0.496908
C	 0.022190378	 0.052625566	-0.008831982	 0.102566
C	 0.0370330804	-1.1516659327	-0.0141427464	 0.025493
C	 0.0194657303	-2.610021103	-0.0215993611	-0.355122
C	-1.4031775274	-3.1987589905	 0.0446019661	-0.180051
C	-1.4118658308	-4.7300991354	-0.0320121839	 0.138034
C	-2.8218820267	-5.3083262467	 0.0863773223	-0.407266
O	-0.7594908847	-5.1977985261	-1.2129067235	-0.428324
H	 1.0416556967	 1.9081854696	-0.0339467276	 0.145562
H	-0.5158809855	 1.9130405642	-0.8681670091	 0.143476
H	-0.4596432361	 1.9063448232	 0.8981728152	 0.143621
H	 0.5123864941	-2.9935554498	-0.922252676	 0.13637
H	 0.6057859051	-2.9920596669	 0.8254361553	 0.120878
H	-1.8934867844	-2.875099581	 0.9699620877	 0.104764
H	-2.0025654403	-2.792068993	-0.7814585298	 0.094036
H	-0.7953405106	-5.1268037013	 0.7852954802	 0.088056
H	-3.4675646935	-4.9240864277	-0.7135805722	 0.106712
H	-2.7926499406	-6.3984322214	 0.0078006652	 0.12446
H	-3.2831235233	-5.0395104591	 1.0421449569	 0.117341
H	-1.2954437816	-4.9263168267	-1.9669653137	 0.276301
2.0554	49.5365	77.544	121.4889	201.7598	214.7382	246.9268	279.0504	306.1073	354.7009	384.9506	452.2481	474.9354	519.6244	759.4456	775.3934	857.56	936.0776	958.9428	1024.6079	1054.0189	1054.2568	1075.0827	1100.8693	1148.5071	1169.4791	1182.1432	1271.7779	1291.5134	1339.4516	1355.0048	1388.8747	1404.6323	1415.7923	1420.772	1473.1096	1479.6672	1480.3854	1486.9203	1494.3117	1496.5478	2373.1497	3011.2598	3018.3577	3022.7989	3023.9701	3032.7432	3055.2035	3075.586	3082.6618	3083.2444	3094.8181	3118.8063	3792.0175
CC#CCCC(C)O	CC#CCC[C@@H](C)O	
InChI=1S/C7H12O/c1-3-4-5-6-7(2)8/h7-8H,5-6H2,1-2H3	InChI=1S/C7H12O/c1-3-4-5-6-7(2)8/h7-8H,5-6H2,1-2H3/t7-/m1/s1
