18
gdb 18053	3.5696	2.17555	1.63192	1.8083	67.15	-0.2532	0.0839	0.3371	827.934	0.156651	-384.929338	-384.922825	-384.921881	-384.959836	25.984	
C	-0.0372821411	 1.5731231549	-0.0647499338	-0.236095
C	 1.5082819515	 1.5242539222	 0.0940525977	-0.226963
C	 1.3658370384	 0.1036358062	 0.6779125527	 0.106372
O	 1.2741656262	 0.208812666	 2.0961822637	-0.257403
C	 0.3475224527	-0.6862814036	 2.6518997157	 0.018
O	-0.963191433	-0.4370182051	 2.2230326841	-0.229413
C	-1.0989842579	-0.7148967687	 0.8336915824	-0.119948
C	-0.0455205286	 0.0194316736	 0.0192769449	-0.006784
H	-0.518575995	 2.0189338339	 0.8081533618	 0.122853
H	-0.4428793841	 2.0264443309	-0.9714808521	 0.095015
H	 2.0206957908	 1.5099439952	-0.8719200632	 0.099808
H	 1.9854339511	 2.2548798879	 0.7494154437	 0.11076
H	 2.1082299709	-0.6592861178	 0.4075832072	 0.062108
H	 0.6285008809	-1.7306453808	 2.4128879942	 0.070485
H	 0.3686717951	-0.5293246774	 3.7321229233	 0.116082
H	-1.0093828324	-1.8024998617	 0.6689479542	 0.088267
H	-2.1127730634	-0.4129493015	 0.5525153986	 0.111431
H	 0.0305315678	-0.4213184542	-0.979854865	 0.075429
158.4786	173.647	299.1117	367.505	408.966	459.5061	560.5932	662.4958	742.3545	755.053	840.2334	873.3263	904.0752	937.8767	940.1523	985.3735	1026.8876	1034.1585	1085.2439	1113.7441	1140.9097	1151.0501	1199.247	1208.3231	1248.8205	1257.5356	1272.204	1282.7732	1295.7965	1334.9497	1352.9943	1360.8775	1401.0827	1444.5617	1471.0477	1488.3313	1489.8556	1509.1985	2913.3474	2959.0082	3006.5537	3059.718	3066.7204	3072.8564	3076.7831	3112.0225	3121.3001	3135.1223
C1CC2OCOCC12	C1C[C@H]2OCOC[C@@H]12	
InChI=1S/C6H10O2/c1-2-6-5(1)3-7-4-8-6/h5-6H,1-4H2	InChI=1S/C6H10O2/c1-2-6-5(1)3-7-4-8-6/h5-6H,1-4H2/t5-,6-/m1/s1
