21
gdb 69577	3.42112	1.29302	1.18072	0.2022	89.58	-0.2132	0.0227	0.2359	1161.5653	0.183153	-349.945848	-349.937703	-349.936759	-349.977954	33.32	
C	-0.0178463198	 1.5473773832	 0.0358398299	-0.482735
C	 0.0408558979	 0.0381933177	 0.0039531069	 0.314372
C	-0.830639229	-0.7901876734	 0.9326439874	-0.326226
C	 0.6718136918	-0.8175913039	 1.096637499	-0.179354
C	 1.4385619451	-1.9259788358	 0.4107576253	 0.3604
C	 2.8020692975	-2.3708884832	 0.9015197002	-0.321406
C	 1.6226817377	-3.2950930504	 1.03452464	-0.308495
C	 1.1527576739	-1.7519279884	-1.0415634844	-0.159189
C	 0.4066663061	-0.6661920976	-1.2672818849	-0.163229
H	 0.9268123281	 1.9912784164	-0.2979480034	 0.118081
H	-0.8127578881	 1.9267623185	-0.6175745833	 0.115587
H	-0.2220161906	 1.9133659151	 1.0470110706	 0.113341
H	-1.3917789181	-0.2549199472	 1.6930462498	 0.101974
H	-1.3300605241	-1.6659160266	 0.5311673694	 0.108387
H	 1.0974183372	-0.3590482195	 1.9831798572	 0.079218
H	 3.5604719693	-2.6021634662	 0.1608965636	 0.111174
H	 3.1853558038	-1.8973123443	 1.8000569655	 0.112078
H	 1.2013955189	-3.455304583	 2.0213105731	 0.114498
H	 1.5733304709	-4.1613301659	 0.3827766133	 0.110556
H	 1.4982258235	-2.4552253151	-1.7915962588	 0.09197
H	 0.0698600181	-0.3222581904	-2.2392567164	 0.088999
114.3411	204.616	206.2933	242.0839	306.9888	338.37	376.7004	430.3924	515.6407	598.2174	624.0261	758.4391	774.6286	779.0035	785.5049	835.9666	887.7026	917.5438	926.3534	946.302	949.647	962.1063	976.7998	1006.6191	1051.6349	1057.1424	1069.6296	1073.5036	1084.8681	1112.1387	1129.9289	1191.5042	1235.8278	1260.7712	1315.1578	1325.5013	1354.172	1415.6527	1424.4214	1466.2092	1478.3723	1488.8981	1498.1032	1501.1892	1658.0304	3021.8379	3080.6974	3098.3268	3117.5389	3123.1595	3128.1104	3159.9009	3177.4823	3201.8904	3202.9522	3207.1742	3218.9107
CC12CC1C1(CC1)C=C2	C[C@]12C[C@H]1C1(CC1)C=C2	
InChI=1S/C9H12/c1-8-2-3-9(4-5-9)7(8)6-8/h2-3,7H,4-6H2,1H3	InChI=1S/C9H12/c1-8-2-3-9(4-5-9)7(8)6-8/h2-3,7H,4-6H2,1H3/t7-,8+/m1/s1
