18
gdb 13970	5.52733	1.07638	0.99994	0.2701	83.91	-0.2168	0.0474	0.2642	1238.9471	0.15338	-310.622684	-310.614349	-310.613405	-310.657172	30.184	
C	-0.0179705013	 1.4893880218	-0.013785817	-0.507156
C	-0.0186670707	 0.034000955	-0.0086797281	 0.218508
C	-0.0215867331	-1.1724616875	-0.0090588028	-0.190594
C	-0.0024843193	-2.5955063803	 0.0190870742	 0.240472
C	-0.3782387817	-3.4493127234	-1.1739505627	-0.315888
C	-1.1720374906	-3.6121060856	 0.0845754862	-0.098073
C	-0.3982304192	-4.465059431	 1.0930540757	-0.221367
C	 0.7931171084	-3.456135247	 1.0223868558	-0.292852
H	 0.7894130498	 1.8857921404	 0.6124281809	 0.146747
H	 0.124292563	 1.8885828229	-1.0246037186	 0.144974
H	-0.9608321103	 1.8940024706	 0.3721718407	 0.144632
H	-0.8723598674	-2.9121704878	-1.9759962767	 0.120628
H	 0.2971710714	-4.2362355916	-1.5052391375	 0.104455
H	-2.2330722725	-3.396919488	 0.119293765	 0.094425
H	-0.8597789871	-4.4856469136	 2.0823067981	 0.105503
H	-0.1929448237	-5.495086443	 0.7829358098	 0.096971
H	 1.7512921945	-3.8383398889	 0.6561321523	 0.095608
H	 0.9584612397	-2.9418527729	 1.9704447849	 0.113008
13.7569	99.3851	106.364	230.1957	298.8066	318.0752	389.9752	465.7939	520.3823	531.4586	706.2152	785.4246	818.7377	837.2978	917.9534	935.0135	965.4659	993.5839	1023.4459	1051.4749	1053.79	1063.9884	1088.0867	1101.4656	1149.9239	1208.4953	1222.9291	1243.5536	1281.746	1307.8273	1395.6999	1417.5415	1476.9615	1479.8306	1481.5417	1482.4181	1507.9172	2358.8818	3020.8575	3043.5456	3052.5276	3078.1945	3081.6768	3099.6506	3101.6858	3122.9166	3185.6955	3207.8617
CC#CC12CC1CC2	CC#C[C@]12C[C@H]1CC2	
InChI=1S/C8H10/c1-2-4-8-5-3-7(8)6-8/h7H,3,5-6H2,1H3	InChI=1S/C8H10/c1-2-4-8-5-3-7(8)6-8/h7H,3,5-6H2,1H3/t7-,8+/m1/s1
