19
gdb 88285	3.86295	0.94847	0.88882	3.4138	79.39	-0.25	-0.0315	0.2184	1378.8761	0.15945	-419.171284	-419.162292	-419.161347	-419.205797	32.848	
C	 0.4075650341	 1.7185950109	-0.3753054115	-0.404891
C	 0.0691896077	 0.2651636998	-0.1608147167	 0.012115
N	 1.1770545741	-0.6651904133	 0.0016359344	-0.310287
C	 0.280796557	-0.453134702	 1.1529138107	-0.160166
C	 0.8401671163	 0.2413172828	 2.3537340799	 0.417411
O	 1.8231415926	 0.9562817978	 2.3202240183	-0.345777
C	 0.0942794403	 0.0356116273	 3.6377042699	-0.111736
C	 0.926618448	-0.3379018069	 4.8294100493	-0.219263
N	 0.3506629764	 0.9940993788	 4.7205485266	-0.304392
H	 1.2728491019	 2.0024392432	 0.2244872232	 0.165615
H	 0.6417861243	 1.8919981727	-1.4310315541	 0.121527
H	-0.4407270319	 2.3575232138	-0.1081795939	 0.116075
H	-0.8015103544	-0.0896919729	-0.7129372909	 0.091977
H	 0.9690757135	-1.5643819663	-0.4246936635	 0.238089
H	-0.44615097	-1.2294714801	 1.3830917434	 0.088442
H	-0.9239655545	-0.3362029132	 3.5689965155	 0.096735
H	 0.4906967208	-0.9785415678	 5.5905930621	 0.125564
H	 1.9927154925	-0.4605504972	 4.6596531357	 0.134473
H	 1.0731184514	 1.6277260225	 4.3737411116	 0.248488
44.857	78.3429	170.01	180.3382	229.4882	260.6762	304.9182	366.3021	386.1492	445.0513	677.8609	737.2412	791.1487	820.6136	848.7434	861.0675	886.2712	937.6637	971.7603	1001.146	1005.9713	1024.8541	1078.4592	1090.6109	1121.5998	1136.6933	1149.1949	1181.1559	1192.8207	1237.9254	1258.2753	1291.6815	1322.9992	1385.5681	1400.8314	1434.0672	1462.948	1494.0215	1496.6481	1500.3819	1773.7317	3039.9228	3099.5838	3099.8426	3112.0964	3125.3541	3152.1642	3155.5409	3206.2105	3454.2381	3505.2065
CC1NC1C(=O)C1CN1	C[C@H]1N[C@H]1C(=O)[C@H]1CN1	
InChI=1S/C6H10N2O/c1-3-5(8-3)6(9)4-2-7-4/h3-5,7-8H,2H2,1H3	InChI=1S/C6H10N2O/c1-3-5(8-3)6(9)4-2-7-4/h3-5,7-8H,2H2,1H3/t3-,4-,5-/m1/s1
