18
gdb 53177	3.12198	1.04138	0.93185	2.3719	80.97	-0.2289	0.0523	0.2812	1337.1253	0.146914	-401.874561	-401.865427	-401.864482	-401.910632	32.959	
C	 0.0694135171	 1.5398385464	-0.0540639725	-0.499545
C	 0.0723690816	 0.0847078661	-0.0194513436	 0.083557
C	 0.0794601755	-1.1196464591	 0.0097968694	 0.102957
C	 0.0574438189	-2.5657688631	 0.0433007578	-0.277433
C	 0.2673104693	-3.2787163397	 1.3893723678	-0.046434
N	-0.8814614675	-2.9079683999	 2.246301164	-0.348512
C	-1.0148923315	-4.0201077499	 1.2717639027	-0.092694
C	-1.3666152111	-3.3127453809	-0.0446563026	 0.148731
O	-2.5204451749	-2.5390152556	-0.0531090267	-0.427448
H	 1.0129423191	 1.9326525499	-0.4495169366	 0.144736
H	-0.7383596281	 1.9198208119	-0.6896026488	 0.149017
H	-0.0713619744	 1.9622632322	 0.947162759	 0.146473
H	 0.7227472144	-2.9873790144	-0.7173689935	 0.096584
H	 1.2095800053	-3.5869578505	 1.8244165558	 0.100206
H	-0.7305855738	-3.3177371948	 3.1662586769	 0.234983
H	-1.2865017235	-5.016848828	 1.5966950792	 0.096397
H	-1.4073435778	-3.9789644595	-0.9082775904	 0.094116
H	-2.4883565085	-2.0144072011	 0.7593544922	 0.29431
11.3994	80.3048	85.5618	170.1197	241.6699	269.4319	364.2401	397.0679	472.5902	492.9478	549.6306	643.2066	708.2139	758.9209	837.8396	843.3964	880.9006	922.1459	957.2744	979.9266	1029.244	1051.8789	1053.7001	1080.8783	1098.6319	1141.1683	1160.3044	1188.3732	1226.2117	1248.6141	1314.0115	1330.7795	1355.2422	1374.1718	1414.003	1453.1271	1478.2821	1478.6791	2367.6181	3024.5359	3051.2687	3084.0707	3085.2262	3101.6821	3186.3444	3200.4779	3492.5091	3749.7882
CC#CC1C2NC2C1O	CC#C[C@H]1[C@H]2N[C@H]2[C@H]1O	
InChI=1S/C7H9NO/c1-2-3-4-5-6(8-5)7(4)9/h4-9H,1H3	InChI=1S/C7H9NO/c1-2-3-4-5-6(8-5)7(4)9/h4-9H,1H3/t4-,5+,6+,7-/m0/s1
