17
gdb 103520	3.05417	1.34076	1.27785	1.5774	68.22	-0.2446	-0.0029	0.2417	1047.1192	0.135186	-458.933937	-458.925764	-458.924819	-458.9664	31.644	
O	-0.0721180615	 1.4400342783	 0.1036841057	-0.439961
C	 0.0256694687	 0.0195529439	 0.002614396	-0.131688
C	-1.4160264013	-0.4959558532	-0.0323178177	 0.348278
O	-2.1054147764	-0.0325819557	 1.1208186545	-0.487784
C	-2.1389255709	-0.1286011478	-1.3257014196	-0.124199
C	-2.6160468925	-1.201718811	-1.959768722	-0.099327
C	-2.2427207888	-2.4466996342	-1.2234405067	-0.00343
O	-0.8064829304	-2.6453082269	-1.1197843728	-0.263283
C	-1.4934040035	-2.0247450208	-0.0341425563	-0.023556
H	 0.7977213663	 1.7963301851	 0.3032225566	 0.297149
H	 0.5604915618	-0.2912775649	-0.9020523776	 0.117481
H	 0.5343136563	-0.4018164809	 0.8815212147	 0.096977
H	-1.8196997388	 0.8826013291	 1.2425661121	 0.288482
H	-2.2027045478	 0.8991373139	-1.6627849776	 0.112973
H	-3.1648589248	-1.2022004413	-2.8935693704	 0.106575
H	-2.8248795416	-3.3607177288	-1.2785016988	 0.102047
H	-1.4954832847	-2.5487173149	 0.9177000499	 0.103264
115.5122	143.4806	186.1093	250.2222	295.771	372.5166	396.8718	414.2862	447.0847	483.7868	614.497	684.549	755.6053	773.453	823.034	858.0038	874.0682	957.1663	960.9864	976.4045	1032.2228	1042.6965	1083.0385	1104.2885	1123.1643	1136.1241	1165.0724	1236.3978	1242.0369	1277.208	1290.7072	1363.5025	1396.7018	1427.065	1441.5237	1511.125	1658.3823	2999.902	3065.1679	3155.7781	3173.8624	3198.2346	3221.751	3765.795	3844.5065
OCC1(O)C=CC2OC12	OC[C@@]1(O)C=C[C@H]2O[C@@H]12	
InChI=1S/C6H8O3/c7-3-6(8)2-1-4-5(6)9-4/h1-2,4-5,7-8H,3H2	InChI=1S/C6H8O3/c7-3-6(8)2-1-4-5(6)9-4/h1-2,4-5,7-8H,3H2/t4-,5-,6+/m1/s1
