25
gdb 93666	2.06338	1.54849	1.21626	1.43	87.63	-0.2581	0.0693	0.3275	1209.0201	0.228404	-389.515677	-389.505424	-389.504479	-389.549822	40.128	
C	-0.886391323	 1.0880444423	-0.0845719962	-0.420567
C	-0.0037146681	-0.1592912911	-0.104874924	 0.026424
C	 1.0302899833	-0.1940175591	-1.2514587197	 0.095888
O	 1.5587056079	 1.1204939041	-1.4389781581	-0.427115
C	 2.1149571099	-1.2055578749	-0.7867384256	-0.247872
C	 1.7537345431	-1.5936769263	 0.6669060439	-0.228175
C	 0.8032144209	-0.4869108496	 1.1877503909	 0.291959
C	 1.607285018	 0.7219457563	 1.70430014	-0.426152
C	-0.1006851332	-1.0116011776	 2.3106055192	-0.442048
H	-0.2919193654	 1.9985976473	 0.0073524225	 0.136975
H	-1.4644793715	 1.1669796956	-1.0113766792	 0.107596
H	-1.5990627517	 1.0515456135	 0.7458542568	 0.105965
H	-0.6543087866	-1.0301035717	-0.2742637864	 0.0619
H	 0.5501532834	-0.5195556913	-2.1857242719	 0.057677
H	 2.2101185434	 1.076269125	-2.1453161615	 0.280545
H	 2.1633100381	-2.0823381801	-1.4393039225	 0.093756
H	 3.0924370995	-0.7155421012	-0.8371979187	 0.096445
H	 1.222913317	-2.5529358751	 0.6740097975	 0.088671
H	 2.6364102984	-1.7170100104	 1.3021279905	 0.089888
H	 2.2447057222	 1.1466126113	 0.9262550885	 0.129404
H	 0.942767589	 1.5175627068	 2.0564850467	 0.108312
H	 2.2371601993	 0.423124235	 2.5498770533	 0.099209
H	 0.4937338367	-1.3373479827	 3.1718970003	 0.10735
H	-0.7909245736	-0.2388515113	 2.6666413952	 0.110685
H	-0.698037747	-1.8673872248	 1.9758606684	 0.103282
85.9099	135.2413	210.6425	222.4917	239.7731	257.4899	275.3322	280.4282	292.776	349.554	381.3496	416.0606	445.5412	526.3305	597.6587	677.4918	713.5492	795.0037	828.7861	893.8181	937.5129	947.6281	954.6818	970.4446	998.7652	1012.5275	1041.1852	1083.0987	1107.0773	1113.9475	1156.3681	1194.916	1224.0277	1237.421	1256.033	1276.3504	1310.3132	1326.7143	1338.7008	1361.5321	1375.4463	1400.5154	1410.0176	1418.3795	1432.0386	1478.3294	1483.4567	1490.0044	1493.8823	1501.9515	1505.2017	1508.1888	1517.4826	2978.0166	2996.085	3019.1635	3029.1213	3034.2381	3040.0872	3048.1352	3073.9206	3085.1853	3087.4999	3092.1573	3094.6838	3096.4062	3133.0511	3136.8342	3823.9779
CC1C(O)CCC1(C)C	C[C@H]1[C@@H](O)CCC1(C)C	
InChI=1S/C8H16O/c1-6-7(9)4-5-8(6,2)3/h6-7,9H,4-5H2,1-3H3	InChI=1S/C8H16O/c1-6-7(9)4-5-8(6,2)3/h6-7,9H,4-5H2,1-3H3/t6-,7-/m0/s1
