18
gdb 16670	3.13763	2.16037	1.56101	1.3891	66.78	-0.2391	0.0695	0.3087	863.2313	0.153725	-384.925245	-384.917485	-384.916541	-384.957225	29.641	
C	 0.1305607659	 1.5725784529	-0.1143432893	-0.38765
C	 0.0850781015	 0.0633438531	 0.0154429969	 0.111199
O	 0.7377654183	-0.5331642608	-1.121689873	-0.27798
C	 1.1976403284	-1.805112518	-0.7502849103	 0.108225
C	 2.5689998504	-1.8182292087	-0.1418938864	-0.326782
C	 1.3310289783	-1.8580706368	 0.7447264964	-0.098083
C	 0.7800521714	-0.5344698178	 1.2758466517	 0.081065
O	 1.7333149008	 0.3140169069	 1.8925727574	-0.426714
H	 1.1614783337	 1.9322966744	-0.0962314609	 0.116879
H	-0.3366521061	 1.8845406415	-1.0521655946	 0.121375
H	-0.4065282775	 2.0396652746	 0.7161840063	 0.120463
H	-0.9628147876	-0.2792055278	 0.0257373924	 0.0673
H	 0.8274283091	-2.6272384009	-1.3555200047	 0.095612
H	 3.1607857841	-2.72620341	-0.1884429449	 0.117341
H	 3.1447542369	-0.9023798575	-0.2401150561	 0.112798
H	 1.1451872495	-2.7654561575	 1.3055571069	 0.096102
H	 0.0283734517	-0.719505367	 2.0493562995	 0.087909
H	 2.5661630513	 0.2235279495	 1.4190153527	 0.28094
72.7401	168.3138	208.3711	253.7035	263.0358	360.4216	405.096	487.9833	545.3428	686.0677	724.3223	767.635	796.9526	819.9484	895.3049	927.1961	986.2406	1003.6454	1034.8446	1042.0811	1056.4344	1096.9796	1112.6885	1137.8641	1141.4096	1175.4562	1200.1568	1256.5764	1294.5499	1318.0747	1362.0842	1370.721	1390.3935	1410.3302	1434.8978	1472.9138	1481.1349	1491.1823	2962.1372	3051.4799	3064.7431	3120.905	3123.2062	3134.3389	3149.9219	3186.0748	3210.2647	3821.1477
CC1OC2CC2C1O	C[C@H]1O[C@H]2C[C@H]2[C@H]1O	
InChI=1S/C6H10O2/c1-3-6(7)4-2-5(4)8-3/h3-7H,2H2,1H3	InChI=1S/C6H10O2/c1-3-6(7)4-2-5(4)8-3/h3-7H,2H2,1H3/t3-,4-,5+,6+/m1/s1
