25
gdb 95749	2.28728	1.28103	1.03954	1.4428	88.25	-0.2573	0.0738	0.3312	1315.272	0.229475	-389.522485	-389.512754	-389.51181	-389.555965	39.032	
C	 0.0458074604	 1.5192883448	 0.0312366842	-0.417167
C	-0.0589119109	-0.0150251644	 0.0039790488	 0.263971
C	-1.5532931642	-0.3955374202	-0.0031995513	-0.411527
C	 0.6497753533	-0.5476842891	-1.2653838821	-0.194197
C	 0.8182376655	-2.0736451523	-1.2865119344	-0.224797
C	 1.5390279191	-2.567058211	-0.0241481116	-0.211235
C	 0.8162375295	-2.1048165231	 1.2452184596	 0.113557
O	 1.5409897995	-2.4401885992	 2.4251530201	-0.440462
C	 0.6517837202	-0.584876336	 1.2546119498	-0.192892
H	 1.0916274647	 1.845202087	 0.0359688372	 0.108014
H	-0.4400752618	 1.9628290629	-0.8453019512	 0.105311
H	-0.4369472922	 1.932297817	 0.924097569	 0.107905
H	-2.058181839	 0.0425613473	-0.8715115415	 0.107176
H	-1.7166990665	-1.4758772496	-0.0390866765	 0.112009
H	-2.0525001954	-0.0185611597	 0.8962464778	 0.1104
H	 0.1030567499	-0.2152386221	-2.1565530648	 0.085277
H	 1.6452581949	-0.0863944383	-1.3248861604	 0.088064
H	-0.1616558407	-2.561360211	-1.3652867979	 0.096825
H	 1.377796659	-2.372870448	-2.1797130859	 0.093381
H	 1.6213017074	-3.6621436317	-0.0313506819	 0.076024
H	 2.5628161671	-2.1707546873	 0.0046948477	 0.099334
H	-0.1787505761	-2.5797454991	 1.2765820994	 0.06048
H	 1.6740765235	-3.3935722142	 2.4283227472	 0.27591
H	 1.6579718506	-0.1512534583	 1.3283670111	 0.094818
H	 0.1175342121	-0.2873235544	 2.1643860675	 0.093823
140.7615	145.3865	207.0937	243.3471	275.4127	278.0632	290.1361	318.5614	335.168	403.0182	415.3295	439.0789	469.8789	489.2715	558.089	731.0444	820.1316	862.9593	881.7552	902.2503	928.421	944.9446	957.0163	983.6905	1023.0704	1048.4751	1054.978	1081.2898	1091.2005	1115.8171	1187.7842	1199.7593	1216.6114	1258.7507	1274.6178	1301.504	1319.9573	1334.217	1345.1392	1371.8386	1378.3101	1395.9731	1398.785	1422.8272	1439.4399	1476.9184	1479.2401	1483.9991	1489.8433	1496.1749	1504.2774	1505.3321	1512.1572	2954.5188	3007.7058	3009.9156	3018.3328	3022.3161	3023.8681	3031.6681	3049.4792	3052.8357	3064.087	3068.6566	3087.0937	3092.5666	3093.374	3110.0719	3812.1268
CC1(C)CCCC(O)C1	CC1(C)CCC[C@@H](O)C1	
InChI=1S/C8H16O/c1-8(2)5-3-4-7(9)6-8/h7,9H,3-6H2,1-2H3	InChI=1S/C8H16O/c1-8(2)5-3-4-7(9)6-8/h7,9H,3-6H2,1-2H3/t7-/m1/s1
