18
gdb 22497	3.36919	0.69229	0.58044	1.5866	80.08	-0.2402	-0.0308	0.2094	1829.9639	0.143953	-439.00265	-438.992131	-438.991186	-439.039036	36.988	
O	 0.0369731148	 1.4066518484	 0.0093203253	-0.421203
C	 0.0374103817	-0.0123573965	 0.0017480654	-0.083338
C	-1.4130312147	-0.4774514742	 0.0129760842	-0.162876
C	-1.5206325839	-2.0027477916	 0.0059181691	-0.288901
C	-2.9332617645	-2.5452028827	 0.0163697316	 0.164655
N	-3.909279604	-1.7095885915	 0.030190988	-0.158699
O	-5.1496756675	-2.3327020024	 0.0386774748	-0.387068
C	-3.0917591521	-3.9627979986	 0.0102793635	 0.329775
C	-3.1555823795	-5.164939335	 0.0044356285	-0.443318
H	 0.9500134751	 1.7079057234	 0.0020666939	 0.285247
H	 0.5499444286	-0.4061345689	-0.892070337	 0.082721
H	 0.5667038305	-0.4155897197	 0.8814749424	 0.082719
H	-1.9126409585	-0.0666514894	 0.8955262941	 0.120231
H	-1.9291743428	-0.057382181	-0.8555867028	 0.120223
H	-1.0097904249	-2.4186592327	-0.8735945272	 0.122556
H	-0.9933305865	-2.4278833747	 0.871194647	 0.122562
H	-5.7558421379	-1.583443584	 0.0485132323	 0.310095
H	-3.2356255939	-6.2240998091	-0.0004881732	 0.204619
52.4451	82.9474	95.4644	132.2368	150.0276	261.4056	263.5204	267.5915	283.7371	324.4966	422.6134	444.2909	520.2325	619.3462	643.1227	650.5437	681.7139	760.2975	814.8794	871.7246	1016.3421	1043.7145	1050.2667	1087.1484	1119.2041	1189.4465	1212.0116	1245.9127	1300.692	1309.0396	1311.6824	1396.2278	1404.5606	1465.1359	1475.0665	1494.7495	1528.2171	1686.117	2220.2556	2952.8112	2977.2344	3013.2173	3037.1449	3062.4102	3105.8497	3499.928	3809.5774	3831.3863
OCCCC(=NO)C#C	OCCCC(=NO)C#C	
InChI=1S/C6H9NO2/c1-2-6(7-9)4-3-5-8/h1,8-9H,3-5H2	InChI=1S/C6H9NO2/c1-2-6(7-9)4-3-5-8/h1,8-9H,3-5H2
