21
gdb 69766	2.96911	1.60713	1.43014	1.5502	80.49	-0.2366	0.0854	0.322	1020.8641	0.185023	-387.070908	-387.06352	-387.062576	-387.102127	31.161	
C	 0.004817328	 1.4798063518	 0.003817076	-0.469488
C	-0.0236296748	-0.0352443196	 0.0116290812	 0.373617
C	-0.8594005666	-0.7119817542	 1.0739368666	-0.348672
C	 0.6511698916	-0.7745366335	 1.1514325192	-0.06603
C	 1.4321672613	-1.9952911152	 0.6950622443	 0.075781
C	 0.6399076068	-2.9399569312	-0.2314899835	-0.258357
C	 1.0872360937	-1.9184382913	-1.2917245767	 0.102279
C	 0.1647488889	-0.6907043914	-1.3669605972	-0.303193
O	 2.2397853599	-1.5913030153	-0.4625332975	-0.298763
H	 0.9508235299	 1.852586862	-0.4050146644	 0.121884
H	-0.8082232122	 1.8893993534	-0.6081630327	 0.112879
H	-0.1061292624	 1.8850280655	 1.014863628	 0.109895
H	-1.3631595683	-0.0679510179	 1.7880510654	 0.105216
H	-1.4189273691	-1.6077352574	 0.8318721455	 0.10854
H	 1.1352358045	-0.1795549409	 1.9203323124	 0.082241
H	 2.0463306754	-2.4327205933	 1.4854402614	 0.073418
H	 1.1613282795	-3.8907645034	-0.3521287711	 0.10915
H	-0.4223883916	-3.1185405286	-0.0627162011	 0.097549
H	 1.3794409189	-2.2766445169	-2.2826951949	 0.07134
H	-0.7941643168	-0.9647270069	-1.826307324	 0.095685
H	 0.6374502735	 0.0384411245	-2.0342388069	 0.105028
163.1239	229.4032	243.1185	335.2885	362.3686	418.1375	447.1121	470.3195	549.0156	588.6381	709.2093	775.4355	831.6026	862.8458	864.1603	884.0932	914.191	932.2435	944.7519	957.1964	988.2717	1023.6758	1033.2054	1064.8689	1067.521	1101.3911	1113.5027	1122.4607	1132.	1194.7748	1234.044	1253.31	1262.0001	1299.2918	1329.8761	1332.428	1355.197	1378.1123	1409.0352	1417.2195	1474.8436	1487.3007	1493.5251	1501.7288	1514.194	3017.9254	3022.0456	3064.5121	3071.5445	3078.5816	3080.2166	3088.5722	3097.0357	3129.5218	3138.2309	3147.7775	3213.7572
CC12CC1C1CC(C2)O1	C[C@]12C[C@H]1[C@H]1C[C@@H](C2)O1	
InChI=1S/C8H12O/c1-8-3-5-2-7(9-5)6(8)4-8/h5-7H,2-4H2,1H3	InChI=1S/C8H12O/c1-8-3-5-2-7(9-5)6(8)4-8/h5-7H,2-4H2,1H3/t5-,6-,7+,8-/m0/s1
