20
gdb 11748	4.95825	1.28912	1.21825	1.7526	75.2	-0.2432	0.0854	0.3285	1101.1008	0.175858	-348.981782	-348.973272	-348.972328	-349.014632	31.988	
C	 0.0402688781	 1.5098248965	-0.2661236325	-0.378258
C	 0.0425905688	 0.0210540499	 0.1090081396	-0.299766
C	-1.3397342401	-0.5317280516	 0.2666854808	 0.445301
C	-2.3700521435	-0.2606452441	 1.3804071146	-0.317118
C	-2.9776173819	-1.6892100002	 1.1094614358	 0.012612
C	-4.4406441948	-1.7893822958	 0.7033920569	-0.402816
C	-1.9237670541	-1.8573986529	-0.0011729195	-0.066403
O	-2.1070190348	-0.7761407485	-0.9281209903	-0.294494
H	 1.0608799341	 1.8857977498	-0.3824249529	 0.112861
H	-0.4922212769	 1.6677259007	-1.2085385368	 0.134721
H	-0.4529395824	 2.1124151203	 0.5037860023	 0.118621
H	 0.5612766951	-0.5583601403	-0.6629738433	 0.109235
H	 0.5933094701	-0.127386507	 1.0465861591	 0.100082
H	-1.9280116604	-0.1700015183	 2.3759875749	 0.100435
H	-3.0324411109	 0.5892003419	 1.1960450911	 0.104214
H	-2.7568574481	-2.3557630545	 1.9497500789	 0.073047
H	-4.6312365	-1.1636515199	-0.1730259684	 0.132963
H	-4.7142721482	-2.8206513592	 0.4537064391	 0.111081
H	-5.0993591062	-1.45661657	 1.5126372392	 0.111861
H	-1.4776721941	-2.7663664068	-0.3922532586	 0.091819
78.6374	111.1601	180.7568	222.2229	237.7126	275.3092	354.1659	384.3332	440.9144	585.0985	645.1128	703.1216	777.3155	802.8638	861.7887	904.7217	911.9323	936.7353	964.6091	1009.7729	1024.4729	1069.7381	1073.0567	1111.118	1135.4862	1186.1244	1205.7927	1220.1486	1251.4831	1274.0816	1316.9265	1350.4187	1363.016	1401.8329	1408.0087	1453.8104	1471.885	1483.6923	1493.1229	1498.4588	1504.4824	1510.8334	3026.8652	3030.8485	3038.9288	3051.4274	3060.3451	3069.0979	3092.747	3107.831	3114.6817	3117.6952	3118.6423	3167.5729
CCC12CC(C)C1O2	CC[C@]12C[C@@H](C)[C@H]1O2	
InChI=1S/C7H12O/c1-3-7-4-5(2)6(7)8-7/h5-6H,3-4H2,1-2H3	InChI=1S/C7H12O/c1-3-7-4-5(2)6(7)8-7/h5-6H,3-4H2,1-2H3/t5-,6-,7+/m1/s1
