17
gdb 9489	2.96804	1.68511	1.52089	3.7435	68.98	-0.2473	0.0253	0.2726	927.0374	0.142899	-360.026896	-360.018595	-360.017651	-360.059276	30.795	
C	-0.5623678296	 1.3167969675	 0.0353883086	-0.39283
C	 0.1928487686	 0.0066764644	-0.0531224618	 0.038537
N	 1.5556388565	 0.0564179478	-0.639006285	-0.334185
C	 2.0186319885	-1.0072710538	 0.2765432259	-0.205644
C	 0.843487738	-0.6153511207	 1.2389800955	 0.127075
N	 1.1333974588	 0.3861742267	 2.2552741092	-0.548319
C	 0.1221209374	-1.7321088405	 1.8424759841	 0.264944
N	-0.4335975812	-2.6353330229	 2.3020852912	-0.339921
H	 0.0225986512	 2.0866660868	 0.5421487308	 0.12424
H	-0.8012245786	 1.6757129655	-0.9715538062	 0.118312
H	-1.5019127029	 1.1816456375	 0.5796361468	 0.132638
H	-0.4412010164	-0.7598709124	-0.522925891	 0.084972
H	 1.6143959666	-0.1617405265	-1.6278861832	 0.224703
H	 1.9142000973	-2.0301732374	-0.1094609664	 0.110492
H	 3.0283708028	-0.8695487579	 0.6776227671	 0.106001
H	 1.658095686	-0.0325007077	 3.0176914954	 0.241169
H	 1.7216682269	 1.1053209734	 1.8441179289	 0.247816
110.9023	144.2263	183.1589	205.4112	257.2272	291.3191	359.7518	384.49	506.4915	542.8882	565.2427	608.2335	698.1032	820.4263	865.088	932.4826	945.4437	979.7928	1013.1821	1023.4302	1087.8378	1099.0597	1141.1112	1167.3686	1220.6206	1271.6537	1307.2845	1360.9144	1369.8728	1398.7083	1417.6323	1482.8324	1488.0987	1512.8466	1649.5395	2358.5916	2988.919	3008.7333	3043.159	3071.0079	3108.8072	3135.7722	3492.6223	3528.2816	3576.6647
CC1NCC1(N)C#N	C[C@H]1NC[C@]1(N)C#N	
InChI=1S/C5H9N3/c1-4-5(7,2-6)3-8-4/h4,8H,3,7H2,1H3	InChI=1S/C5H9N3/c1-4-5(7,2-6)3-8-4/h4,8H,3,7H2,1H3/t4-,5-/m1/s1
