19
gdb 107437	2.84348	1.48722	1.34672	1.2565	73.92	-0.2245	0.0777	0.3022	1046.0583	0.158829	-422.971144	-422.963177	-422.962232	-423.0035	31.368	
C	 0.0487014777	 1.3728801898	 0.1832629781	-0.256113
O	-0.0458727337	-0.0001273153	-0.155837435	-0.288762
C	-1.3239704397	-0.5358357443	-0.0607639587	 0.40332
C	-1.743813876	-1.4860235698	-1.1482791557	-0.37638
C	-2.4677638138	-0.1621712197	-0.9783918942	 0.019476
O	-3.668408032	-0.1140782457	-0.2488466125	-0.259724
C	-3.4121182471	-0.3185143561	 1.1245860792	 0.106809
C	-3.0251313967	-1.6972919125	 1.5872357956	-0.330458
C	-1.9564759217	-0.6534359532	 1.3193281917	-0.150975
H	 1.0817841084	 1.6720263572	-0.0070768183	 0.129782
H	-0.6249493942	 1.9868644558	-0.4299819355	 0.112559
H	-0.1812161786	 1.5575407277	 1.2415126766	 0.11122
H	-1.0689545186	-1.5314774098	-1.9968561133	 0.122837
H	-2.2402552352	-2.4184058377	-0.9098448901	 0.118387
H	-2.4100845005	 0.5835002991	-1.763979205	 0.104924
H	-3.9909081732	 0.3415285433	 1.7616401946	 0.099979
H	-3.2175300954	-1.931865642	 2.6293667621	 0.114073
H	-3.148870424	-2.5368660879	 0.9143277508	 0.122259
H	-1.3709419158	-0.2763853488	 2.1484427795	 0.096788
97.7265	151.6716	177.7954	256.095	284.9217	363.8724	434.3485	473.7902	532.8495	595.16	702.5304	709.4756	778.5288	822.8148	842.2682	886.8259	959.3902	967.3788	981.116	995.1388	1004.308	1039.9778	1064.6555	1084.0162	1087.4763	1099.819	1111.1566	1167.6335	1180.6409	1192.7074	1206.29	1249.5031	1274.6035	1322.3248	1370.0841	1392.2006	1460.9251	1481.55	1489.0144	1491.6914	1507.2162	2997.8228	3050.7438	3122.0926	3134.6712	3140.7489	3165.0775	3169.9625	3188.6574	3223.8941	3232.5339
COC12CC1OC1CC21	CO[C@]12C[C@H]1O[C@H]1C[C@@H]21	
InChI=1S/C7H10O2/c1-8-7-3-6(7)9-5-2-4(5)7/h4-6H,2-3H2,1H3	InChI=1S/C7H10O2/c1-8-7-3-6(7)9-5-2-4(5)7/h4-6H,2-3H2,1H3/t4-,5+,6-,7+/m1/s1
