16
gdb 28682	3.62628	1.03143	0.83995	2.1762	76.36	-0.2276	0.0125	0.24	1331.8735	0.125506	-396.993936	-396.985351	-396.984406	-397.028404	30.366	
C	 0.2119930466	 1.4141643546	 0.1550920592	-0.499838
C	 0.0037160152	-0.0523009421	-0.0197276082	 0.345881
N	-0.4736777504	-0.6442676824	-1.093782022	-0.290392
C	-0.472564188	-1.9909156113	-0.8138159104	-0.179017
C	 0.004577888	-2.2228392425	 0.4474725785	 0.312027
C	 0.1607318476	-3.4837498546	 1.2435479804	-0.458353
C	 1.4212275002	-3.5309748181	 1.991436566	 0.255985
N	 2.4036817435	-3.5218425343	 2.5996100752	-0.306808
N	 0.2997344474	-0.9706997957	 0.9508183307	-0.336958
H	 1.2630194146	 1.6563882584	 0.3496427522	 0.1372
H	-0.0942834377	 1.9191341074	-0.7615631341	 0.161196
H	-0.3796306358	 1.8145450346	 0.9862669078	 0.134592
H	-0.8177343897	-2.7186896784	-1.5332913888	 0.110544
H	-0.6575099189	-3.6151140155	 1.9656762951	 0.166225
H	 0.1150010882	-4.3420427188	 0.5659349308	 0.174853
H	 0.7348044491	-0.7838112812	 1.8403428876	 0.272863
37.8478	90.1046	99.4657	192.77	259.7865	316.161	379.3904	396.2952	481.1602	535.6173	636.2536	675.4106	697.224	764.3895	845.082	932.1168	933.9913	989.8764	1006.6028	1048.826	1063.7821	1178.962	1212.0395	1227.8147	1273.8236	1328.9212	1400.3516	1424.1655	1433.0848	1457.0152	1483.6691	1497.1607	1548.3477	1625.2127	2361.7162	3011.6888	3032.9771	3083.1399	3086.9241	3151.7502	3243.8339	3645.8603
CC1=NC=C(CC#N)N1	Cc1ncc(CC#N)[nH]1	
InChI=1S/C6H7N3/c1-5-8-4-6(9-5)2-3-7/h4H,2H2,1H3,(H,8,9)	InChI=1S/C6H7N3/c1-5-8-4-6(9-5)2-3-7/h4H,2H2,1H3,(H,8,9)
