16
gdb 51954	3.72389	0.80008	0.71087	3.3358	67.8	-0.2548	-0.035	0.2198	1534.9812	0.122181	-475.03181	-475.022653	-475.021709	-475.067523	31.307	
O	 0.8874908036	-0.2873128198	-0.1561984394	-0.227263
C	 0.7356749306	 0.8635032077	-0.4661412505	 0.153282
C	 1.6881614914	 1.9842331549	-0.0695894114	-0.244942
N	 1.7877053221	 3.0122642026	-1.0793461456	-0.330931
C	 1.238196732	 4.2485594717	-0.9144374325	 0.38166
O	 0.6253103294	 4.6099799801	 0.0726162268	-0.373636
C	 1.4735103401	 5.1816167498	-2.0775130106	-0.020859
C	 2.8420042252	 5.5748061635	-2.4546400245	-0.166478
O	 2.1050075225	 4.6358286615	-3.2395118504	-0.236336
H	-0.1340249294	 1.2054719257	-1.0725740233	 0.088321
H	 1.2803032456	 2.4685519231	 0.8269889571	 0.17436
H	 2.6630866671	 1.5539218323	 0.1794972502	 0.135036
H	 2.2065237305	 2.8174105892	-1.9771994775	 0.26817
H	 0.6560623306	 5.8750665557	-2.2589129241	 0.131057
H	 3.0067695687	 6.544063973	-2.9202568732	 0.13751
H	 3.6851372898	 5.1636276291	-1.9031411608	 0.13105
44.7198	62.7522	90.8535	109.9704	191.1278	262.7214	290.4599	374.2969	473.1757	500.8004	602.5784	625.2394	746.9489	763.1785	852.0562	883.1085	923.5493	992.9984	1049.5168	1083.8517	1111.0202	1139.2251	1154.843	1166.8622	1242.0908	1265.009	1275.8058	1337.9618	1392.8309	1411.551	1444.5573	1518.5783	1544.8804	1788.6237	1841.7064	2879.1615	3039.6112	3096.5746	3097.5671	3154.9353	3192.0238	3612.095
O=CCNC(=O)C1CO1	O=CCNC(=O)[C@H]1CO1	
InChI=1S/C5H7NO3/c7-2-1-6-5(8)4-3-9-4/h2,4H,1,3H2,(H,6,8)	InChI=1S/C5H7NO3/c7-2-1-6-5(8)4-3-9-4/h2,4H,1,3H2,(H,6,8)/t4-/m1/s1
