19
gdb 75137	2.55987	1.45424	1.16099	2.7434	78.32	-0.2389	-0.0484	0.1905	1141.4026	0.157602	-423.076693	-423.067341	-423.066396	-423.110733	34.843	
C	-0.1033598546	 1.4879554117	 0.0763523562	-0.494979
C	-0.032961481	-0.0018809702	-0.0097449133	 0.209259
C	-0.0534151388	-0.8006002331	-1.0900904704	-0.15263
C	 0.0985805745	-2.2684068899	-0.7784979683	-0.313223
C	 0.0397606255	-2.3337280958	 0.7605963371	 0.3107
C	-1.2798537121	-2.9190487104	 1.2815974217	-0.430423
O	 1.1470418867	-3.0524466526	 1.2797945781	-0.475844
C	 0.1508962722	-0.8533670779	 1.1837583065	 0.282577
O	 0.3981489143	-0.5048311709	 2.3194850503	-0.360409
H	 0.7668519295	 1.8790459036	 0.6141588938	 0.147676
H	-0.1435501549	 1.9504849144	-0.912896546	 0.123417
H	-0.9850814545	 1.8049240671	 0.6445312254	 0.140682
H	-0.1479441764	-0.4431478755	-2.1113702391	 0.109561
H	-0.6736763918	-2.8740032668	-1.2661256191	 0.112209
H	 1.0671867709	-2.6470144637	-1.1244393602	 0.137871
H	-1.3309193544	-3.9829339122	 1.0333405703	 0.125635
H	-1.330796517	-2.8078237014	 2.3691295415	 0.127027
H	-2.1463626661	-2.4116707627	 0.8439662594	 0.114763
H	 1.2991326281	-2.6952223836	 2.1660279464	 0.286133
56.0808	105.2625	187.5669	229.3807	244.234	269.3153	292.8814	339.2083	362.1037	400.0891	448.8116	543.0306	573.9174	671.7973	712.0071	768.3538	862.3284	911.3903	919.937	952.0692	978.5036	1008.3756	1047.3132	1068.7926	1101.7528	1125.8112	1178.1495	1231.5103	1254.1063	1327.8094	1355.9336	1391.6273	1396.0668	1414.8046	1471.4531	1473.9775	1486.2205	1488.7926	1494.863	1689.4037	1798.2346	3032.4993	3036.5419	3039.1493	3073.735	3091.1281	3107.003	3118.9626	3122.4162	3178.4639	3746.0551
CC1=CCC(C)(O)C1=O	CC1=CC[C@@](C)(O)C1=O	
InChI=1S/C7H10O2/c1-5-3-4-7(2,9)6(5)8/h3,9H,4H2,1-2H3	InChI=1S/C7H10O2/c1-5-3-4-7(2,9)6(5)8/h3,9H,4H2,1-2H3/t7-/m1/s1
