14
gdb 129962	3.32199	1.48078	1.02547	2.1729	70.38	-0.2292	-0.0276	0.2016	1075.648	0.102467	-466.192394	-466.184405	-466.183461	-466.224669	30.537	
N	-0.0173308959	 1.3404546852	 0.1416604165	-0.556297
C	-0.0448875689	-0.013664449	 0.0538626714	 0.519097
N	-1.164405644	-0.6640193111	 0.0512774137	-0.412267
C	-1.0823348663	-2.0363263196	 0.0175475273	 0.303477
N	-2.0672724469	-2.8524787526	-0.0315039528	-0.553452
C	 0.2871359097	-2.6246626345	 0.024815022	 0.418142
N	 0.3521407929	-3.9742382967	 0.0759783827	-0.550477
N	 1.3822587403	-1.9308516189	-0.0071928392	-0.231574
O	 1.1924093196	-0.5193090763	 0.0011057492	-0.258759
H	 0.8367744264	 1.8133409283	-0.1019993228	 0.27519
H	-0.8886929026	 1.812066432	-0.0333298177	 0.277769
H	-2.9449675328	-2.3307655428	-0.0414892982	 0.222064
H	-0.5224692918	-4.4476971627	-0.0958659005	 0.282637
H	 1.2266908105	-4.4333958215	-0.1136315315	 0.26445
85.4155	178.9139	273.0042	315.875	341.1455	354.5739	366.697	448.273	474.1558	499.2738	536.0409	558.4034	588.2165	723.5263	738.3348	807.9211	826.2705	902.0359	908.5454	1003.2063	1083.0541	1152.9659	1216.4028	1336.4986	1418.8292	1487.7471	1590.1885	1599.8871	1656.1449	1670.8099	1714.5679	3474.6594	3576.2476	3611.3033	3719.4222	3739.1296
NC1=NC(=N)C(N)=NO1	N[C]1N=C([NH])C(=NO1)N	
InChI=1S/C3H5N5O/c4-1-2(5)8-9-3(6)7-1/h(H2,5,8)(H3,4,6,7)	InChI=1S/C3H5N5O/c4-1-2(5)8-9-3(6)7-1/h(H2,5,8)(H3,4,6,7)
