14
gdb 55249	3.28789	1.29634	1.05267	2.4671	57.6	-0.2694	0.0019	0.2713	1084.3491	0.101897	-511.043128	-511.035259	-511.034315	-511.076536	28.202	
N	 0.4947771372	-0.0848796434	 0.7973747964	-0.518278
C	-0.1711178102	 0.2973492875	-0.3148887722	 0.367613
O	 0.2009851914	 1.1439684095	-1.1034431717	-0.359706
C	-1.5220416035	-0.4028633186	-0.5386951457	-0.013033
C	-1.6604249616	-0.9588123698	-1.9645268529	-0.112024
O	-1.4236491866	-2.3611473656	-1.7873740807	-0.238775
C	-1.5165958145	-2.691841646	-0.4810034286	 0.502905
O	-1.459259896	-3.792127981	-0.0390200774	-0.36472
O	-1.6832923856	-1.5646353177	 0.2811471933	-0.26395
H	 1.3863376452	 0.33669589	 0.9996468618	 0.2736
H	 0.1415203167	-0.8216367359	 1.3844805247	 0.285613
H	-2.3124717608	 0.3095470433	-0.2913472149	 0.142275
H	-2.6635164543	-0.8182915324	-2.3765193551	 0.132641
H	-0.9156214375	-0.54058315	-2.6407734471	 0.165839
59.8125	72.8677	151.4394	258.3204	324.9395	347.9298	438.3815	498.1078	555.7706	604.0065	698.4248	739.4261	774.9676	793.2727	846.1813	901.1654	1011.2722	1046.2116	1084.6242	1088.8452	1114.1347	1145.7402	1219.0251	1301.6195	1339.1313	1387.1811	1397.6843	1528.4468	1607.113	1806.8224	1934.193	3068.2262	3094.786	3151.2996	3600.1885	3736.0286
NC(=O)C1COC(=O)O1	NC(=O)[C@H]1COC(=O)O1	
InChI=1S/C4H5NO4/c5-3(6)2-1-8-4(7)9-2/h2H,1H2,(H2,5,6)	InChI=1S/C4H5NO4/c5-3(6)2-1-8-4(7)9-2/h2H,1H2,(H2,5,6)/t2-/m1/s1
