14
gdb 5209	8.85876	1.02587	0.92471	3.6418	78.95	-0.2091	-0.0057	0.2034	1218.7797	0.108444	-341.605306	-341.597692	-341.596748	-341.639199	26.481	
C	-0.0571275498	 1.4450701175	 0.0102472399	-0.510266
C	-0.0014313303	-0.0073534463	 0.002420165	 0.226373
C	 0.0614380454	-1.2120259786	-0.0041864449	-0.057458
C	 0.1149773075	-2.6239449148	-0.0117945239	 0.168419
N	 1.1976236404	-3.3876437911	-0.0229892418	-0.304117
C	 0.7394891503	-4.6771173273	-0.0265312694	-0.098135
C	-0.6332662784	-4.7096842754	-0.0174754186	-0.107236
N	-1.0220545644	-3.3949520734	-0.0081135922	-0.286523
H	 0.951779058	 1.8713173008	 0.0047313251	 0.160253
H	-0.5857543382	 1.8304498161	-0.8689365348	 0.151505
H	-0.572269908	 1.8214369227	 0.9012613181	 0.15151
H	 1.4211273722	-5.5140648385	-0.0354078775	 0.107091
H	-1.3460738975	-5.5173215739	-0.0168330505	 0.129516
H	-1.9649275172	-3.0438055678	 0.0000256355	 0.269068
13.585	97.5796	109.4861	278.9172	318.9015	466.3604	484.6266	539.1637	550.9959	644.8001	731.1812	748.155	860.922	921.1283	951.1982	1044.5167	1051.2719	1051.5296	1108.1302	1143.7254	1192.5237	1282.6926	1403.6243	1412.1466	1427.7556	1473.4402	1475.9635	1485.7052	1572.74	2360.3877	3025.6592	3083.8515	3093.0505	3247.8469	3279.8856	3667.7881	13.5834	97.578	109.485	278.9205	318.9049	466.3658	484.6266	539.1644	550.9959	644.7991	731.1803	748.1545	860.9214	921.1281	951.198	1044.5166	1051.2725	1051.5305	1108.1296	1143.7251	1192.5237	1282.6923	1403.6243	1412.1467	1427.755	1473.4405	1475.9639	1485.7055	1572.74	2360.3887	3025.6591	3083.8514	3093.0505	3247.8468	3279.8853	3667.7881
CC#CC1=NC=CN1	CC#Cc1ncc[nH]1	
InChI=1S/C6H6N2/c1-2-3-6-7-4-5-8-6/h4-5H,1H3,(H,7,8)	InChI=1S/C6H6N2/c1-2-3-6-7-4-5-8-6/h4-5H,1H3,(H,7,8)
