16
gdb 96969	3.52316	1.23718	1.16751	2.6444	73.28	-0.2391	-0.0343	0.2048	1106.0486	0.124295	-437.878182	-437.87041	-437.869466	-437.911008	28.819	
C	-0.0959967088	 1.3944681485	-0.035962404	-0.339934
N	-0.0463150204	-0.0592087195	-0.0989259293	-0.362785
C	-1.1046347857	-0.7231057909	-0.0180828627	 0.493272
O	-2.4031620505	-0.2269026025	 0.1389332795	-0.272721
C	-3.2090605823	-1.4310847857	 0.1494271748	-0.030501
C	-2.3842380626	-2.377178186	 1.056704784	-0.254788
C	-1.3040191883	-2.2165204907	-0.0822765586	-0.274834
C	-2.5624254914	-2.2342473372	-1.0124864922	 0.440195
O	-2.8951612049	-2.7670447906	-2.0198268524	-0.29445
H	 0.5926842711	 1.7376341758	 0.7433332	 0.12889
H	 0.2687412985	 1.8032155397	-0.9849587533	 0.132712
H	-1.0918369775	 1.8051632923	 0.1630750174	 0.127334
H	-4.2615835054	-1.1921085701	 0.2680413847	 0.115871
H	-2.1137414832	-1.971170957	 2.0327439425	 0.136268
H	-2.791351724	-3.3866906838	 1.132725367	 0.134959
H	-0.4303209048	-2.8455052822	-0.2090524677	 0.120512
72.9486	96.0248	198.0146	220.7548	266.7358	404.3927	467.9715	495.3298	629.635	635.5975	696.8244	779.6167	812.6412	843.7181	856.3314	938.6151	976.74	1002.507	1029.8181	1042.9994	1071.6022	1107.5623	1132.4611	1137.4647	1176.5444	1197.6892	1214.4836	1259.6461	1303.0558	1439.5565	1480.5541	1494.3001	1497.6942	1831.0307	1929.7136	3021.965	3081.7621	3084.9137	3094.8804	3154.7669	3179.1161	3201.133
CN=C1OC2CC1C2=O	CN=C1O[C@@H]2C[C@H]1C2=O	
InChI=1S/C6H7NO2/c1-7-6-3-2-4(9-6)5(3)8/h3-4H,2H2,1H3	InChI=1S/C6H7NO2/c1-7-6-3-2-4(9-6)5(3)8/h3-4H,2H2,1H3/t3-,4+/m0/s1
