19
gdb 67376	2.5263	1.71686	1.65555	1.8665	78.96	-0.2172	0.0069	0.2241	966.066	0.160635	-385.86312	-385.855681	-385.854737	-385.894602	30.037	
C	-0.0297346654	 1.5580985595	 0.077680419	-0.511426
C	-0.0260973199	 0.0620507132	-0.0036309247	 0.259441
C	 0.7364004389	-0.78168453	-1.0069420575	-0.128427
C	 1.763520845	-1.8250596766	-0.5624911458	-0.284354
C	 1.8564068984	-1.9818055829	 0.9346095269	-0.057862
C	 0.8959186311	-1.5568995037	 1.755103172	-0.054521
C	-0.3179916358	-0.9031751719	 1.1648065989	 0.00911
O	-1.0580292598	-1.8039393824	 0.2621999361	-0.308115
C	-0.7556925743	-0.9515310626	-0.8400606109	 0.041909
H	 0.830405898	 1.925796108	 0.6505386678	 0.123512
H	 0.0259391622	 2.0054619274	-0.9200200448	 0.120679
H	-0.9389357366	 1.9328785465	 0.5617941796	 0.120101
H	 0.9987861305	-0.234103661	-1.9097834723	 0.084846
H	 1.5263765882	-2.7982935061	-1.0146613452	 0.125821
H	 2.75220091	-1.5530043847	-0.953451121	 0.105437
H	 2.747268617	-2.4668358741	 1.3250941553	 0.092945
H	 0.967538809	-1.6809665874	 2.8307655648	 0.088692
H	-1.0033769834	-0.499100312	 1.9149082439	 0.075896
H	-1.4889019231	-0.8710765094	-1.635106272	 0.096315
157.2492	182.8529	187.4436	281.7146	312.8333	447.4393	487.2823	511.4805	594.3442	671.9053	710.6475	734.5594	768.4623	866.5564	895.7328	911.6799	919.5316	945.783	963.5835	989.9562	1010.2667	1017.6841	1048.9805	1077.474	1108.5331	1122.7194	1188.7619	1220.3908	1230.5689	1238.3654	1270.8544	1308.8777	1348.0735	1360.6721	1406.4231	1414.1353	1465.27	1479.5281	1486.1852	1499.26	1705.2056	3009.7702	3019.4805	3038.8388	3068.9053	3078.1735	3095.831	3134.3201	3156.9653	3173.9145	3185.2381
CC12C3CC=CC1OC23	C[C@@]12[C@H]3CC=C[C@@H]1O[C@@H]23	
InChI=1S/C8H10O/c1-8-5-3-2-4-6(8)9-7(5)8/h2,4-7H,3H2,1H3	InChI=1S/C8H10O/c1-8-5-3-2-4-6(8)9-7(5)8/h2,4-7H,3H2,1H3/t5-,6-,7+,8+/m0/s1
