20
gdb 115067	3.15321	1.30319	1.02394	1.5605	80.64	-0.2278	0.013	0.2407	1207.2412	0.172339	-403.121745	-403.113402	-403.112458	-403.154823	32.066	
C	 0.1127418057	 1.2984897786	-0.117585621	-0.236335
O	 0.0027616951	-0.0889186582	 0.0993332718	-0.251167
C	-1.3262375148	-0.588086301	 0.0790817581	 0.148156
C	-1.91477313	-0.6463487454	-1.3461132223	-0.290438
C	-3.1741646535	-1.4730056079	-1.422192955	-0.087697
C	-3.3893076749	-2.5139800043	-0.6174645919	-0.015142
C	-2.3870566949	-2.9112073633	 0.4041190447	-0.088629
N	-0.994031496	-3.1054803283	-0.0893293244	-0.328723
C	-1.3099899952	-1.9432301229	 0.7476077527	-0.057926
H	 1.1596087364	 1.5672715577	 0.0456746518	 0.12573
H	-0.1648291034	 1.5927491703	-1.1401098775	 0.107332
H	-0.5125620516	 1.8710477069	 0.5864305414	 0.100095
H	-1.9658378852	 0.0678614653	 0.6966506822	 0.063093
H	-2.108855433	 0.3679586784	-1.7091752328	 0.096166
H	-1.1464680807	-1.0785761419	-1.9986720303	 0.140626
H	-3.902932495	-1.2118273964	-2.1843812461	 0.089175
H	-4.2951432228	-3.1071739363	-0.6994283265	 0.08669
H	-2.7296798992	-3.5783465526	 1.190201572	 0.082361
H	-0.5256138044	-3.813690395	 0.4705235099	 0.231245
H	-0.9381347427	-1.9304166036	 1.7695556733	 0.08539
78.0182	110.4776	201.6041	207.9504	272.7226	337.1532	360.3822	448.5586	505.2309	511.7477	651.6905	721.0456	729.0605	815.1886	864.205	898.94	909.758	949.0294	981.9794	984.4386	1011.5069	1026.0002	1075.7005	1120.8672	1147.5173	1158.9862	1175.2013	1185.8761	1201.0016	1223.6747	1235.7297	1262.851	1324.1209	1356.4076	1369.4988	1405.0028	1426.5363	1457.143	1471.7724	1479.1237	1494.0634	1510.8555	1712.3683	2941.347	2972.8481	3023.9438	3037.3925	3077.3909	3108.6668	3132.0356	3144.8954	3158.246	3181.6743	3498.702
COC1CC=CC2NC12	CO[C@H]1CC=C[C@H]2N[C@@H]12	
InChI=1S/C7H11NO/c1-9-6-4-2-3-5-7(6)8-5/h2-3,5-8H,4H2,1H3	InChI=1S/C7H11NO/c1-9-6-4-2-3-5-7(6)8-5/h2-3,5-8H,4H2,1H3/t5-,6+,7-/m1/s1
