21
gdb 93281	2.17138	1.79333	1.10915	2.9105	82.73	-0.2347	-0.0115	0.2231	1147.7334	0.183064	-387.125103	-387.116501	-387.115557	-387.158155	33.738	
C	-0.1664774864	 1.5487744153	-0.0615775526	-0.415239
C	 0.0272364485	 0.0355313401	-0.005523829	-0.068639
C	 0.8874829523	-0.5238701169	-1.1672981378	-0.226105
C	 1.3413609146	-1.9108598671	-0.6884302293	-0.331277
C	 1.4725190398	-1.7601557501	 0.8283686519	 0.351037
O	 2.0743265973	-2.4974890906	 1.5730119053	-0.341833
C	 0.7263490533	-0.5216456571	 1.2361472554	 0.247915
C	 1.3928489	 0.324846362	 2.3165250573	-0.295569
C	 0.1717638336	-0.4691995368	 2.6418845375	-0.305842
H	 0.7949485233	 2.073018945	-0.0493706285	 0.119695
H	-0.6899952721	 1.8344628383	-0.9798825055	 0.115838
H	-0.7620993237	 1.9145022506	 0.7820334357	 0.115773
H	-0.9641410968	-0.4374555494	-0.0672914996	 0.077444
H	 0.3390144436	-0.5490715456	-2.1126754281	 0.10047
H	 1.7614289782	 0.1232179392	-1.3132445944	 0.104319
H	 0.5673965171	-2.6671941164	-0.8777981749	 0.127889
H	 2.268298579	-2.2808453712	-1.1318147574	 0.125323
H	 2.3458965906	-0.0394071748	 2.6839463368	 0.133008
H	 1.3047891851	 1.4018966358	 2.2346049798	 0.118026
H	-0.7648376829	 0.0610318887	 2.7823711976	 0.113827
H	 0.2952679455	-1.3680215791	 3.2366904498	 0.133939
66.0542	165.3867	224.909	242.7757	258.7028	270.6712	299.6483	460.692	466.8004	533.2906	551.9088	633.6628	666.9244	782.7393	808.1536	836.9325	863.0037	909.9891	940.1291	961.1132	978.0954	998.0546	1053.3196	1074.1428	1084.1049	1090.7513	1109.6287	1127.0684	1186.987	1203.9015	1226.8118	1278.3284	1298.858	1307.3314	1333.5898	1355.027	1383.2851	1413.1782	1450.9538	1454.8317	1483.7393	1494.6539	1501.9346	1502.4735	1823.541	2989.0538	3027.2386	3029.5372	3035.0546	3092.6459	3095.54	3102.0547	3111.3271	3126.6435	3138.9988	3215.6742	3234.1158
CC1CCC(=O)C11CC1	C[C@H]1CCC(=O)C21CC2	
InChI=1S/C8H12O/c1-6-2-3-7(9)8(6)4-5-8/h6H,2-5H2,1H3	InChI=1S/C8H12O/c1-6-2-3-7(9)8(6)4-5-8/h6H,2-5H2,1H3/t6-/m0/s1
