20
gdb 68676	2.26236	1.7461	1.48002	3.1859	78.17	-0.236	-0.0127	0.2233	1023.2646	0.17256	-403.160642	-403.152515	-403.151571	-403.192855	32.073	
C	 0.0286217766	 1.5783386595	 0.0464733261	-0.467765
C	-0.0140186183	 0.0656275558	 0.000876321	 0.190253
C	 0.6079788387	-0.5642661523	-1.2700198339	-0.245403
C	 0.1968920237	-2.051006076	-1.4125948117	-0.221748
C	 0.0123664675	-2.7614733395	-0.0492974195	-0.219686
C	-0.499568789	-1.7539797473	 1.0001866205	-0.111688
N	 0.4927239625	-0.6575315789	 1.2187324367	-0.345809
C	-1.3387259715	-0.6761044896	 0.288319745	 0.421409
O	-2.4979652545	-0.4562218476	 0.1076249704	-0.320085
H	 1.0493077907	 1.9484280818	-0.1025971938	 0.114548
H	-0.6031336082	 2.0002427015	-0.7415743334	 0.128925
H	-0.3300073431	 1.9405701968	 1.0129496665	 0.131563
H	 0.3033823091	-0.0111046154	-2.1651992219	 0.109304
H	 1.6977272525	-0.4531865914	-1.1893407458	 0.100557
H	-0.7617873755	-2.0854597868	-1.942158172	 0.123745
H	 0.9116181578	-2.5913043225	-2.0404352921	 0.099543
H	-0.6813425673	-3.602078314	-0.1571606354	 0.112112
H	 0.9579360162	-3.1789487179	 0.3200026286	 0.103168
H	-0.8921240079	-2.2226185932	 1.9058824599	 0.090054
H	 1.4557805201	-0.9739170529	 1.1171488246	 0.207006
140.2248	171.0578	198.2687	218.7868	242.5839	322.7598	431.8287	447.5569	494.0551	537.7974	664.5459	687.9171	761.2834	786.9159	833.2848	854.0337	877.7617	910.9183	931.054	983.5252	1018.0224	1049.5931	1063.5174	1075.3323	1097.869	1146.1946	1188.2871	1206.5738	1225.8298	1250.2616	1293.7557	1311.6628	1332.0383	1356.8435	1371.5936	1377.2942	1405.9766	1477.9809	1485.6013	1487.4754	1493.0719	1504.0619	1913.3267	3015.4546	3023.4203	3034.4951	3039.5277	3068.0375	3070.6581	3083.4415	3088.5863	3101.0411	3125.6231	3466.5863
CC12CCCC(N1)C2=O	C[C@@]12CCC[C@@H](N1)C2=O	
InChI=1S/C7H11NO/c1-7-4-2-3-5(8-7)6(7)9/h5,8H,2-4H2,1H3	InChI=1S/C7H11NO/c1-7-4-2-3-5(8-7)6(7)9/h5,8H,2-4H2,1H3/t5-,7+/m1/s1
