18
gdb 124707	3.87258	0.98934	0.96485	1.4046	74.1	-0.2576	0.0006	0.2582	1285.4042	0.148633	-435.268646	-435.259742	-435.258798	-435.303327	31.636	
C	-0.0673800421	 1.5590044479	 0.0114582788	-0.396261
C	 0.0380872164	 0.0345121031	-0.0028720391	 0.055377
C	 0.7427631054	-0.4971817103	-1.2573217754	-0.083416
O	-0.0585133781	-0.1274154688	-2.3663276943	-0.416398
N	 0.7307437422	-0.4642979724	 1.184241818	 0.129058
N	 1.987552038	-0.135065799	 1.4611577328	-0.232678
C	 2.2435049469	-0.7928631755	 2.5946880187	-0.055823
C	 1.0985430358	-1.5098365755	 2.9610540702	-0.069186
N	 0.1485346556	-1.288057628	 2.0488304143	-0.219563
H	 0.9277262013	 2.0095212748	 0.0572672202	 0.138437
H	-0.5641553796	 1.8900659874	-0.90237627	 0.142776
H	-0.6441366309	 1.8998618956	 0.875286713	 0.124717
H	-0.9558042976	-0.4149406865	 0.0482497232	 0.126808
H	 1.7520672448	-0.0658513031	-1.3150844031	 0.112545
H	 0.8435741209	-1.5897190614	-1.1744092403	 0.100434
H	 0.407199299	-0.3715750923	-3.1708483478	 0.294194
H	 3.2062851223	-0.7189994978	 3.0745779654	 0.123943
H	 0.9157888997	-2.1517747184	 3.8077295655	 0.125036
34.1583	104.6822	115.3827	201.846	222.5449	234.2169	296.8103	376.8171	395.7199	499.3072	681.6579	709.0296	747.2274	845.3203	888.9394	892.8127	938.7218	981.6404	989.7531	1031.6651	1084.6755	1101.9496	1120.5725	1163.3199	1187.6591	1244.0447	1263.0169	1282.7649	1298.6627	1359.4077	1380.1784	1401.9521	1402.9819	1447.4829	1457.0913	1491.5572	1499.9635	1505.0876	1525.5411	2988.0027	3030.6016	3053.7142	3103.8352	3129.8672	3146.2044	3262.9566	3280.6978	3840.393
CC(CO)N1N=CC=N1	C[C@@H](CO)n1nccn1	
InChI=1S/C5H9N3O/c1-5(4-9)8-6-2-3-7-8/h2-3,5,9H,4H2,1H3	InChI=1S/C5H9N3O/c1-5(4-9)8-6-2-3-7-8/h2-3,5,9H,4H2,1H3/t5-/m0/s1
