14
gdb 15553	3.29816	2.05656	1.42943	4.0783	61.4	-0.2772	-0.0072	0.27	843.7163	0.108183	-378.74814	-378.74091	-378.739966	-378.780396	25.703	
C	-0.3115709685	 1.5432715034	-0.0313781606	-0.407444
C	 0.0668917276	 0.0755378686	-0.0646918837	 0.093289
O	 1.1071134787	-0.13924108	-1.0606633206	-0.219491
C	 2.0851604057	-0.8288383897	-0.4458884635	 0.132669
N	 1.9944609736	-1.1231570766	 0.7854993345	-0.257857
C	 0.7093459499	-0.5416809651	 1.2320122309	-0.1587
C	 0.9308956578	 0.4277839473	 2.3131610845	 0.304672
N	 1.080620951	 1.1979064513	 3.1610210797	-0.326078
H	 0.5388225695	 2.1614291063	 0.2665746061	 0.151209
H	-0.6524340807	 1.8616670905	-1.0196626164	 0.135744
H	-1.1215804607	 1.7082618051	 0.6846195071	 0.141208
H	-0.7870248314	-0.5353774868	-0.3723300235	 0.11191
H	 2.9215852847	-1.0940125382	-1.0830695061	 0.15717
H	 0.0749962528	-1.3372692561	 1.6361775415	 0.1417
38.1827	157.5012	210.793	237.2029	331.7357	412.7326	481.2744	522.7827	605.9725	729.6624	811.074	852.6818	894.582	959.677	981.2311	1014.687	1067.5488	1112.2774	1150.9307	1158.0045	1255.7685	1316.6196	1325.2006	1362.3513	1383.4133	1418.7289	1481.6636	1493.4055	1699.18	2362.0405	3051.5054	3052.5887	3068.5191	3128.7096	3136.6933	3219.9324
CC1OC=NC1C#N	C[C@H]1OC=N[C@H]1C#N	
InChI=1S/C5H6N2O/c1-4-5(2-6)7-3-8-4/h3-5H,1H3	InChI=1S/C5H6N2O/c1-4-5(2-6)7-3-8-4/h3-5H,1H3/t4-,5+/m1/s1
