18
gdb 92987	3.2316	1.11858	0.88582	2.1476	78.05	-0.2457	0.0192	0.2649	1297.9243	0.146915	-401.931321	-401.922377	-401.921433	-401.966139	32.721	
C	-0.3595729738	 1.5205303619	-0.0622413775	-0.402753
C	 0.0595273853	 0.0595834711	-0.034410477	 0.091082
O	 1.0440739889	-0.1634476664	-1.0865252997	-0.231515
C	 2.0644900958	-0.8252295832	-0.4977689059	 0.116793
N	 2.0312089276	-1.0808460846	 0.7418546822	-0.258935
C	 0.7718499734	-0.5008218155	 1.2454279865	-0.010179
C	 1.0647907817	 0.527770001	 2.3615539813	-0.375776
C	 1.5886678448	-0.0927167279	 3.5708949505	 0.309866
C	 1.9967135372	-0.6090231769	 4.5759747398	-0.422412
H	 0.4799927158	 2.1844648957	 0.1597070559	 0.130684
H	-0.7421384976	 1.7761325475	-1.0538402254	 0.130821
H	-1.1554729137	 1.7079657234	 0.6647933797	 0.126063
H	-0.8008766885	-0.5711035178	-0.2830396496	 0.097835
H	 2.8724890261	-1.0912339277	-1.1709603943	 0.141157
H	 0.1698914631	-1.3009319972	 1.6871215988	 0.101336
H	 1.7773698482	 1.2732234981	 1.9894614216	 0.134679
H	 0.1416005445	 1.0670349227	 2.6064739532	 0.127918
H	 2.3718635109	-1.0659709843	 5.4576786299	 0.193339
28.2023	73.9387	126.0711	238.2118	247.6904	303.753	347.5173	368.48	449.5802	494.9339	588.554	615.6541	639.0054	717.4337	818.7642	838.0139	865.934	938.5866	957.7074	970.8407	1015.1742	1041.9167	1072.7027	1129.3925	1138.6947	1158.0224	1228.0559	1288.4433	1317.0557	1328.8115	1353.7935	1378.9313	1388.8489	1413.8394	1462.3535	1487.6834	1499.0347	1708.5026	2243.3233	3027.0063	3037.5117	3047.1845	3056.6084	3071.0023	3119.0267	3126.5559	3211.5223	3508.4007
CC1OC=NC1CC#C	C[C@H]1OC=N[C@H]1CC#C	
InChI=1S/C7H9NO/c1-3-4-7-6(2)9-5-8-7/h1,5-7H,4H2,2H3	InChI=1S/C7H9NO/c1-3-4-7-6(2)9-5-8-7/h1,5-7H,4H2,2H3/t6-,7+/m1/s1
