21
gdb 76517	2.79999	1.20937	1.1818	1.3981	83.68	-0.2297	0.0345	0.2642	1197.834	0.182374	-387.087033	-387.078017	-387.077073	-387.120715	34.602	
C	 0.0130728569	 1.541203008	-0.2394252848	-0.423588
C	 0.0712568475	 0.0401223915	-0.05883067	-0.108909
C	 1.4000110929	-0.6842538141	-0.0074343896	 0.034716
O	 2.594365328	 0.0450224891	-0.0102427581	-0.418178
C	 0.5534724246	-0.5927599832	 1.2349536249	 0.310207
C	 1.0383946184	 0.2456397506	 2.4291825062	-0.335946
C	 0.7885642999	-0.6638113424	 3.6070363286	-0.060374
C	 0.1686535077	-1.7910438226	 3.2659417554	-0.062786
C	-0.1240835422	-1.8592351553	 1.7872238242	-0.339754
H	 0.9089320536	 2.0236247098	 0.1588949337	 0.129398
H	-0.0654141455	 1.8047753306	-1.30057246	 0.108898
H	-0.8563866991	 1.9716314933	 0.2694395618	 0.118848
H	-0.7278492817	-0.5030611288	-0.5606591107	 0.075434
H	 1.4694565816	-1.6604441593	-0.4905061985	 0.077662
H	 2.7340807571	 0.3908766593	-0.8979668094	 0.28902
H	 2.0930149627	 0.5227418745	 2.3252920659	 0.126377
H	 0.4820556298	 1.1879576136	 2.5335753123	 0.099953
H	 1.0824725126	-0.3922985854	 4.6152391917	 0.087994
H	-0.1205644089	-2.5805603034	 3.9509265819	 0.087657
H	-1.2071929568	-1.8640191632	 1.5949104739	 0.101655
H	 0.2700356308	-2.7748498526	 1.3255902204	 0.101718
56.7188	158.3235	170.1444	192.7827	248.4011	255.0324	299.6415	385.1134	411.3783	496.0458	556.9674	587.5112	697.9834	769.4853	793.334	798.7536	847.1495	940.0002	960.4424	979.3673	980.4669	983.7491	1016.6851	1057.0886	1063.4389	1090.8161	1131.4387	1142.9134	1164.5475	1176.638	1212.9667	1224.8519	1258.9776	1297.3885	1300.1461	1348.1902	1370.2151	1378.7508	1413.1351	1456.913	1487.2404	1492.8738	1497.6013	1505.4303	1695.0186	2993.9945	3004.1791	3021.9162	3029.1687	3062.7481	3078.7955	3082.8928	3111.2872	3126.5788	3179.0946	3204.8638	3805.229
CC1C(O)C11CC=CC1	C[C@H]1[C@@H](O)[C@]21CC=CC2	
InChI=1S/C8H12O/c1-6-7(9)8(6)4-2-3-5-8/h2-3,6-7,9H,4-5H2,1H3	InChI=1S/C8H12O/c1-6-7(9)8(6)4-2-3-5-8/h2-3,6-7,9H,4-5H2,1H3/t6-,7+/m0/s1
