17
gdb 56782	2.9042	1.31154	1.07396	3.7906	72.27	-0.2416	0.0103	0.2518	1136.0313	0.13635	-417.964014	-417.955605	-417.954661	-417.997323	31.412	
O	 0.3130184351	 1.5444610537	-0.0342212006	-0.404821
C	 0.1187502653	 0.1407243224	 0.0215041556	-0.12252
C	 0.6225096268	-0.5205005008	-1.2023752678	 0.268153
N	 1.0506232252	-1.0282904092	-2.1481101254	-0.332663
C	 0.729530547	-0.4776664299	 1.254478081	 0.364884
C	 2.1998017149	-0.7836541963	 1.4150518492	-0.344898
C	 1.1871090007	-1.889889054	 1.5877771151	-0.137342
C	 0.4753304615	-1.7271939568	 2.9323811015	-0.172355
N	 0.0200036396	-0.3589806821	 2.5294270236	-0.372639
H	 1.2637100313	 1.7078281567	-0.0099777451	 0.292134
H	-0.9662564881	 0.0019724363	 0.0681619136	 0.149279
H	 2.7786931568	-0.8444393767	 0.498351168	 0.137653
H	 2.7410683986	-0.3953435229	 2.2750755125	 0.109352
H	 1.1833762475	-2.7695049072	 0.9581987736	 0.120203
H	-0.3762387111	-2.3984568575	 3.0766538242	 0.120057
H	 1.1194712866	-1.7727326228	 3.8185215412	 0.104858
H	 0.3582339623	 0.393901807	 3.1231743097	 0.220665
63.5921	118.3877	171.1237	213.644	300.9439	304.5006	382.6399	406.279	432.8077	523.8696	598.8712	714.3556	740.9807	836.7466	859.7578	896.1716	953.7527	967.2003	978.6175	1008.6418	1014.9402	1029.802	1065.6396	1079.2298	1116.3828	1184.4624	1196.1166	1258.2865	1277.2595	1305.7287	1345.8426	1364.0569	1382.5834	1421.0931	1481.1453	1513.3511	2354.2631	3029.8051	3073.5424	3083.0528	3106.0845	3200.7281	3211.7226	3491.5158	3791.2347
OC(C#N)C12CC1CN2	O[C@@H](C#N)[C@]12C[C@H]1CN2	
InChI=1S/C6H8N2O/c7-2-5(9)6-1-4(6)3-8-6/h4-5,8-9H,1,3H2	InChI=1S/C6H8N2O/c7-2-5(9)6-1-4(6)3-8-6/h4-5,8-9H,1,3H2/t4-,5-,6-/m0/s1
