19
gdb 77706	3.01899	1.35757	1.11918	0.4241	76.52	-0.2233	0.0747	0.298	1147.1442	0.157584	-422.971685	-422.963159	-422.962215	-423.004763	33.319	
O	 0.3474025052	 1.0968689275	-0.357234885	-0.423598
C	 0.1455852207	-0.2718537555	-0.1337530328	-0.090106
C	 0.2341045538	-0.8068024286	 1.2984224887	 0.414222
C	 1.3520490675	-1.4217690156	 2.0601902428	-0.34348
C	 0.7492607045	-0.0941120534	 2.5071454267	-0.340276
O	-1.0757933576	-1.3841819915	 1.2408008752	-0.325255
C	-1.2884864433	-0.8026499888	-0.051135964	 0.414221
C	-2.5481301423	-0.0851192356	-0.4155167246	-0.340277
C	-2.1808288818	-1.4121332189	-1.0711992538	-0.34348
H	-0.206535272	 1.5773202361	 0.2691786729	 0.285753
H	 0.7810626251	-0.7955953174	-0.8523191903	 0.105386
H	 1.1180836558	-2.2974404573	 2.6561526726	 0.12711
H	 2.343131842	-1.4219409839	 1.617822585	 0.119808
H	 1.3265737585	 0.8127151331	 2.3559732208	 0.121268
H	 0.125203544	-0.104034047	 3.3941150081	 0.125259
H	-3.3537920451	-0.0945481273	 0.3104866304	 0.125259
H	-2.4645915128	 0.8230551633	-1.0043456592	 0.121267
H	-1.860641615	-1.4104732755	-2.1082197727	 0.119808
H	-2.7470655473	-2.2868991336	-0.7697494507	 0.12711
58.5476	194.9959	195.8368	218.0449	240.1045	312.6607	384.9117	403.9965	455.5462	501.9172	582.9182	706.8035	761.4487	768.1732	809.5238	869.1815	869.2558	906.4913	910.099	963.1671	981.681	987.4874	1021.0575	1043.3905	1045.6927	1069.2406	1069.2909	1141.6952	1185.3057	1188.8094	1189.1403	1221.9086	1277.5257	1291.79	1340.5119	1397.4984	1444.36	1446.3376	1448.5199	1487.2422	1512.2792	3083.4504	3127.2286	3127.394	3129.1691	3129.2239	3211.7251	3211.937	3225.7555	3225.8316	3795.4292
OC1C2(CC2)OC11CC1	OC1C2(CC2)OC21CC2	
InChI=1S/C7H10O2/c8-5-6(1-2-6)9-7(5)3-4-7/h5,8H,1-4H2	InChI=1S/C7H10O2/c8-5-6(1-2-6)9-7(5)3-4-7/h5,8H,1-4H2
