17
gdb 83453	3.03923	1.20513	1.05368	1.6045	72.88	-0.2376	0.0416	0.2792	1173.3152	0.134117	-421.739658	-421.731105	-421.730161	-421.773048	32.413	
O	-0.5926293057	 1.7584034777	 0.4001212617	-0.439002
C	-0.6215938816	 0.5032354648	-0.1984222221	 0.089529
C	-0.2283820357	-0.7800353848	 0.5267980779	-0.220912
C	-0.7324068741	-0.6816506773	 1.9572751317	-0.109219
O	-2.0670450299	-0.2902026378	 1.5047862859	-0.341691
C	-1.6758041651	-0.4959979047	 0.1341361119	 0.386381
C	-2.6991846163	-1.1561266151	-0.7535132091	-0.471301
C	-2.2002846773	-1.4087844024	-2.0993605821	 0.293543
C	-1.7693893138	-1.6140027367	-3.2019604705	-0.436445
H	-1.302825962	 1.7583120507	 1.0566045636	 0.294822
H	-0.3129311721	 0.5299239987	-1.2386565007	 0.122255
H	 0.4860755625	-1.4940088011	 0.1397763328	 0.107141
H	-0.7816775143	-1.6383010974	 2.4860122649	 0.117531
H	-0.2772156766	 0.081019631	 2.5982109879	 0.116087
H	-3.0212497434	-2.0963260109	-0.2875901893	 0.142558
H	-3.5900184228	-0.5140295157	-0.7976713189	 0.146891
H	-1.4015952619	-1.798369659	-4.1810279159	 0.201833
57.8859	114.7761	210.4699	227.7758	267.4669	307.297	343.8965	430.3804	464.9782	529.1324	627.2777	637.6569	659.684	686.8234	790.9243	798.5804	885.4517	959.0188	966.6062	970.8508	979.7933	1019.7438	1027.964	1103.2003	1111.8088	1157.8902	1165.7059	1229.074	1245.0479	1299.3921	1324.7698	1350.8353	1379.3216	1467.1777	1486.0495	1516.357	2243.5932	3012.5202	3039.4168	3045.3846	3092.0287	3175.3127	3205.8185	3504.8559	3750.5572
OC1C2COC12CC#C	O[C@H]1[C@H]2CO[C@@]12CC#C	
InChI=1S/C7H8O2/c1-2-3-7-5(4-9-7)6(7)8/h1,5-6,8H,3-4H2	InChI=1S/C7H8O2/c1-2-3-7-5(4-9-7)6(7)8/h1,5-6,8H,3-4H2/t5-,6+,7-/m1/s1
