19
gdb 100489	4.0767	0.57497	0.5531	1.0328	87.4	-0.2487	0.0321	0.2808	2056.529	0.154745	-385.811745	-385.800685	-385.799741	-385.850852	37.925	
C	 0.3306998701	 1.4705695889	 0.1158004582	-0.230534
O	 0.3676673733	 0.0690757722	-0.0304099832	-0.241548
C	 0.5430933947	-0.639115824	 1.1935829076	-0.039331
C	-0.7672889388	-0.7437491895	 1.991246849	-0.392056
C	 1.0760818633	-1.9641982666	 0.8745965688	 0.059576
C	 1.5047976057	-3.0636466255	 0.6443225346	 0.127155
C	 2.028128805	-4.3974224199	 0.3428849887	-0.495196
C	 3.2725571847	-4.7133226565	 1.0472224907	 0.318021
C	 4.2916186025	-4.9852542895	 1.6205014193	-0.444914
H	 1.2352110581	 1.8512583848	 0.6160279961	 0.10583
H	 0.2826590813	 1.8923765865	-0.8909799462	 0.130546
H	-0.5470433433	 1.8187513585	 0.6798558771	 0.10625
H	 1.2895312106	-0.1079108868	 1.8092792535	 0.093022
H	-1.5249320139	-1.2567865478	 1.3937715819	 0.133423
H	-0.6042072632	-1.3082431383	 2.9133205159	 0.127407
H	-1.1396685794	 0.2488449211	 2.2591788627	 0.116509
H	 1.2715882976	-5.1558310014	 0.5874521238	 0.160446
H	 2.1929002072	-4.4841044755	-0.7400637913	 0.165257
H	 5.1937942046	-5.2204721906	 2.1285247327	 0.200138
6.9756	53.0894	75.2298	100.5319	160.7918	199.2013	239.927	289.8687	304.4217	323.8954	361.7831	390.9244	503.7162	539.0757	578.4031	622.1792	649.1728	776.4359	858.0995	934.2535	939.1113	1005.4227	1063.0446	1099.6229	1132.9491	1179.4667	1185.9814	1217.8393	1230.642	1333.4099	1344.8521	1372.917	1396.8228	1452.2117	1475.6678	1481.5757	1490.8907	1498.1122	1510.529	2247.5674	2380.0279	2950.9309	2976.1093	3008.9135	3024.0007	3033.4506	3048.2128	3114.8463	3121.9277	3133.1196	3507.2626
COC(C)C#CCC#C	CO[C@@H](C)C#CCC#C	
InChI=1S/C8H10O/c1-4-5-6-7-8(2)9-3/h1,8H,5H2,2-3H3	InChI=1S/C8H10O/c1-4-5-6-7-8(2)9-3/h1,8H,5H2,2-3H3/t8-/m0/s1
