19
gdb 108597	2.61401	1.34223	1.19825	1.7366	70.46	-0.2407	0.0696	0.3103	1117.8652	0.160066	-460.139669	-460.131234	-460.13029	-460.172668	32.384	
O	 0.0649824316	 1.3865526612	-0.1169025839	-0.414354
C	 0.0073636236	-0.0066971017	 0.1595646323	-0.163073
C	-1.3963053877	-0.5451350526	 0.0857064165	 0.218812
C	-2.4396495007	 0.0175082607	 1.0391321397	-0.14847
O	-3.5078902403	-0.9378073041	 1.0605704017	-0.277448
C	-2.9377880381	-2.2395330934	 0.8764358764	-0.112395
C	-1.7384182235	-2.0309059832	-0.0285560729	-0.185575
C	-1.9648885085	-1.109193784	-1.2008218959	 0.08844
O	-3.2270653198	-0.7882575718	-1.696752555	-0.437429
H	-0.3148903947	 1.5225259885	-0.9918293675	 0.286447
H	 0.6637042567	-0.5801504109	-0.5144492489	 0.087758
H	 0.4098194119	-0.1174701456	 1.1738559109	 0.109203
H	-2.004245409	 0.1479201839	 2.041910171	 0.104539
H	-2.8694443202	 0.9721316406	 0.7236558596	 0.122731
H	-2.6285912689	-2.6748933863	 1.8384250368	 0.105696
H	-3.7205390832	-2.8713750917	 0.4444849727	 0.120968
H	-0.9730512814	-2.7986493583	-0.066953815	 0.092634
H	-1.2629039701	-1.2101810771	-2.0240991511	 0.102357
H	-3.8230563877	-0.7179472143	-0.9371492475	 0.299159
84.0126	141.4132	198.0958	239.5185	265.9801	294.2108	340.0856	395.6687	495.3453	544.677	564.2457	631.8316	729.3612	747.2682	848.2546	890.4808	921.8597	954.9903	960.0603	1019.4686	1042.0391	1049.8993	1088.4168	1096.6754	1100.5029	1145.4948	1199.4914	1205.418	1234.0121	1251.8937	1296.1325	1320.3241	1341.1212	1361.2159	1381.6503	1418.8848	1424.1618	1473.7025	1502.9171	1510.4241	1523.0433	2975.0598	2988.9464	2995.663	3051.7912	3075.6396	3089.7156	3148.9093	3170.49	3726.045	3804.5234
OCC12COCC1C2O	OC[C@]12COC[C@H]1[C@H]2O	
InChI=1S/C6H10O3/c7-2-6-3-9-1-4(6)5(6)8/h4-5,7-8H,1-3H2	InChI=1S/C6H10O3/c7-2-6-3-9-1-4(6)5(6)8/h4-5,7-8H,1-3H2/t4-,5+,6-/m0/s1
