16
gdb 41054	3.28147	2.19767	1.93996	0.9834	69.58	-0.213	0.0343	0.2473	773.3778	0.126057	-400.584968	-400.579229	-400.578285	-400.6146	24.88	
C	 0.0479895891	 1.5184878767	 0.1036563572	-0.176693
O	 1.4971474666	 1.5447881477	-0.1977652342	-0.324106
C	 1.4201662522	 0.1911108828	-0.6192843662	 0.334424
C	 0.8694132078	-0.4054944313	-1.9466953845	-0.144345
C	 0.867165251	-1.6947936146	-1.2264096521	-0.034091
C	 1.7073319083	-1.2262471108	 0.0128855832	-0.153294
C	 0.632837314	-0.9353271668	 1.0938552729	-0.294775
C	 0.0521869485	-0.0135056175	-0.0054830788	 0.219846
N	-0.3847851164	-0.830776336	-1.203103294	-0.197674
H	-0.1632229114	 1.9575633901	 1.0826325016	 0.121281
H	-0.5248049295	 2.0338267689	-0.6746404442	 0.124312
H	 0.8980232039	-0.1616808794	-3.0009621862	 0.103972
H	 0.7779740329	-2.6974911918	-1.619508174	 0.108474
H	 2.6660177755	-1.7145687418	 0.1863525827	 0.081948
H	 0.0238194026	-1.7634905522	 1.4624336215	 0.111052
H	 1.0309384049	-0.3542705039	 1.929109895	 0.119668
262.0548	320.4924	384.8999	475.8273	542.5498	589.4944	737.1812	750.3678	760.0541	788.4842	808.3369	834.2409	873.1133	894.1861	905.9733	923.6689	962.4545	977.158	1004.2491	1047.7074	1058.2025	1109.9115	1117.5821	1143.0745	1145.834	1179.5629	1210.789	1223.1557	1254.4235	1265.9734	1283.0395	1307.4942	1333.7498	1474.9919	1499.0114	3040.6054	3068.5844	3103.1013	3120.0551	3130.5519	3196.7783	3223.6077
C1OC23C4C5C2CC13N45	C1O[C@@]23[C@H]4[C@H]5[C@@H]2C[C@@]13N45	
InChI=1S/C7H7NO/c1-3-4-5-7(3)6(1,2-9-7)8(4)5/h3-5H,1-2H2	InChI=1S/C7H7NO/c1-3-4-5-7(3)6(1,2-9-7)8(4)5/h3-5H,1-2H2/t3-,4+,5+,6+,7+,8?/m0/s1
