17
gdb 83099	2.59257	1.75135	1.26613	2.9644	72.89	-0.2457	-0.0138	0.2319	1008.0277	0.137834	-418.032611	-418.024976	-418.024031	-418.065066	28.606	
C	-0.3145578799	 1.5525315561	 0.1634000139	-0.4058
C	-0.0799692652	 0.0533910899	 0.0071422416	-0.163604
C	 0.7582511658	-0.4787910869	-1.2023926952	-0.005793
C	 1.6399358544	 0.4219612324	-2.1044717288	-0.194643
N	 3.0359608103	 0.2021976573	-1.6638810463	-0.207464
C	 3.0194101328	-0.563174656	-0.6502906768	 0.024259
N	 1.7509786907	-1.047428772	-0.241515531	-0.141904
C	 1.0513056668	-0.514529802	 0.8910765838	 0.399742
O	 1.3340253701	-0.4983732375	 2.0498619801	-0.314006
H	 0.6132929282	 2.1236671628	 0.0642066091	 0.134019
H	-1.0234156446	 1.9175395137	-0.5859620245	 0.126565
H	-0.726012108	 1.7614463815	 1.1547617794	 0.143936
H	-1.0209296451	-0.4902135714	 0.1384402609	 0.109474
H	 0.2492610586	-1.2572522582	-1.7742561845	 0.097408
H	 1.5424673846	 0.1473610688	-3.158136018	 0.125539
H	 1.4143807352	 1.4920470148	-2.0314782729	 0.12159
H	 3.9021597353	-0.8477352733	-0.0885686508	 0.150681
71.738	150.5469	196.1578	219.662	265.4244	376.176	466.5237	548.4954	637.8216	646.1558	719.1412	787.2259	818.7993	870.6686	920.6325	945.7244	957.4786	976.8166	1022.8734	1075.0294	1085.4689	1116.2046	1147.0612	1184.803	1202.3971	1243.2422	1265.2098	1306.7188	1329.3793	1335.1112	1366.63	1411.8361	1486.6189	1494.4426	1506.3857	1678.9964	1899.0408	3041.7215	3048.6145	3060.7332	3078.1521	3096.0274	3113.9372	3119.802	3210.434
CC1C2CN=CN2C1=O	C[C@H]1[C@H]2CN=CN2C1=O	
InChI=1S/C6H8N2O/c1-4-5-2-7-3-8(5)6(4)9/h3-5H,2H2,1H3	InChI=1S/C6H8N2O/c1-4-5-2-7-3-8(5)6(4)9/h3-5H,2H2,1H3/t4-,5+/m0/s1
