16
gdb 116593	4.0739	0.9334	0.79692	3.1266	69.58	-0.2776	-0.0125	0.2652	1414.4372	0.124025	-475.082792	-475.074312	-475.073368	-475.11742	29.667	
C	 0.1816632542	 1.5484362372	 0.1620710242	-0.363776
C	 0.1258786421	 0.0304162535	-0.0152043619	-0.156183
N	 0.93001405	-0.3709508483	-1.16580592	-0.307257
C	 1.8189626669	-1.2400140348	-1.0652511173	 0.399356
C	 2.7276318611	-1.7425111605	-2.1611969036	-0.185168
O	 3.5479512502	-2.7127566717	-1.5055071097	-0.236119
C	 3.204573113	-2.8110411556	-0.2032355987	 0.506308
O	 3.7054909838	-3.5315401782	 0.5925363788	-0.350461
O	 2.1729576601	-1.9436707665	 0.0795286248	-0.240942
H	 1.1981378858	 1.8765135177	 0.3997067576	 0.122472
H	-0.1337673888	 2.0552682893	-0.7539577254	 0.129568
H	-0.4766695424	 1.8590288747	 0.9787785155	 0.118652
H	 0.4328454193	-0.4761436759	 0.9075453553	 0.121265
H	-0.9071924319	-0.2708085016	-0.227639912	 0.120179
H	 2.1706838245	-2.2193235318	-2.9722500439	 0.161044
H	 3.3551106119	-0.9479002775	-2.5734070636	 0.161062
30.055	104.4121	139.7254	169.8565	190.0189	262.8899	381.2626	440.9879	553.6795	604.6865	672.9467	733.6568	775.0303	810.3903	866.1749	912.5552	962.3103	1028.8898	1058.9364	1074.6116	1099.6915	1117.4875	1166.0702	1202.1029	1270.0378	1304.7802	1379.5024	1384.4436	1408.5273	1489.0638	1493.4259	1502.1799	1510.8249	1836.7555	1955.9163	3023.7285	3042.6393	3062.5095	3066.3361	3112.7901	3115.1393	3123.6791
CCN=C1COC(=O)O1	CCN=C1COC(=O)O1	
InChI=1S/C5H7NO3/c1-2-6-4-3-8-5(7)9-4/h2-3H2,1H3	InChI=1S/C5H7NO3/c1-2-6-4-3-8-5(7)9-4/h2-3H2,1H3
