18
gdb 63878	2.59772	1.43593	1.23292	3.3585	73.95	-0.2399	-0.0314	0.2085	1083.4375	0.145685	-439.053689	-439.044845	-439.0439	-439.08673	33.543	
C	-0.0671132261	 1.6017734215	-0.1357695626	-0.459853
C	 0.0015842853	 0.0866485995	-0.0462891941	 0.333625
O	-1.2668174949	-0.5204460881	-0.2278823295	-0.479903
C	 1.1349429774	-0.6420834063	-0.871799999	-0.277189
C	 1.672352915	-1.2273351377	 0.4361160172	-0.0813
N	 2.0209207566	-0.1144916699	 1.3070024561	-0.372752
C	 0.599360893	-0.5167098908	 1.2385363162	 0.234219
C	-0.0708699955	-1.0819838426	 2.4162616462	 0.042968
O	 0.537069345	-1.4636893526	 3.3956428267	-0.292436
H	 0.899043869	 2.040234966	 0.1232650922	 0.148152
H	-0.3241311144	 1.9168833434	-1.1548336449	 0.107176
H	-0.8302058511	 1.9891402172	 0.5464634656	 0.124004
H	-1.639709538	-0.1916694216	-1.0527951415	 0.281304
H	 0.6957590894	-1.3950926542	-1.52828507	 0.111084
H	 1.8393992539	-0.0133699897	-1.4220881313	 0.108008
H	 2.0576043362	-2.2238618238	 0.6153607613	 0.116575
H	 2.3605962117	-0.4995014048	 2.1915322403	 0.253254
H	-1.1719053023	-1.1603084254	 2.3432810509	 0.103063
114.048	155.8617	180.9732	230.6753	250.1853	263.6693	319.469	338.5363	387.9133	457.9211	488.995	582.7688	632.5041	747.9818	819.4577	840.6521	856.1391	927.0717	948.6726	961.0171	987.4051	1035.0693	1073.5284	1097.1547	1110.2038	1171.7295	1191.3322	1225.1632	1245.5738	1271.1833	1325.5616	1382.0345	1392.3784	1405.3764	1438.2432	1463.6604	1486.5154	1499.6913	1771.6674	2959.7565	3026.9903	3065.9861	3095.46	3133.4242	3135.9983	3193.09	3449.6284	3809.9094
CC1(O)CC2NC12C=O	C[C@@]1(O)C[C@H]2N[C@@]12C=O	
InChI=1S/C6H9NO2/c1-5(9)2-4-6(5,3-8)7-4/h3-4,7,9H,2H2,1H3	InChI=1S/C6H9NO2/c1-5(9)2-4-6(5,3-8)7-4/h3-4,7,9H,2H2,1H3/t4-,5-,6-/m1/s1
