22
gdb 77585	2.64126	1.40142	1.19773	1.7078	87.21	-0.2175	0.0797	0.2971	1178.1777	0.193522	-367.162348	-367.153277	-367.152333	-367.19546	35.719	
C	-0.1017083167	 1.5539293331	 0.0706427762	-0.411213
C	-0.0006486317	 0.039098555	-0.0285831321	-0.121141
C	 0.7328218854	-0.5932927488	-1.2473377632	 0.428575
C	 0.0908321307	-1.1993818443	-2.4579059601	-0.345214
C	 1.0085420888	-0.0020043288	-2.5943995443	-0.3162
C	 1.7057085249	-1.2738256317	-0.3127534369	-0.231092
N	 2.3642200715	-0.1817690254	 0.4632788768	-0.37588
C	 1.0287570273	-0.6844655341	 0.8768990617	 0.354096
C	 0.7766288806	-1.228396315	 2.2487472774	-0.508719
H	 0.8923638736	 2.0031790688	 0.0091357795	 0.139084
H	-0.7178281148	 1.9637954485	-0.7376985568	 0.10677
H	-0.5621149327	 1.8570249831	 1.0178465587	 0.10582
H	-0.9862289183	-0.4258728038	 0.0934035057	 0.067723
H	 0.4518516436	-2.1632818178	-2.8039869294	 0.107598
H	-0.9747940619	-1.0484958709	-2.60277017	 0.107827
H	 0.55864325	 0.9569492698	-2.8312535221	 0.11096
H	 1.991721196	-0.150297871	-3.028799767	 0.111617
H	 2.1886589974	-2.2371462316	-0.4364455994	 0.085623
H	 3.0457601589	-0.6281230683	 1.078776043	 0.218268
H	 0.7080849672	-0.4236535306	 2.9908035312	 0.127223
H	-0.161891088	-1.7924620833	 2.2828765211	 0.1234
H	 1.5836832383	-1.9006709929	 2.5613712097	 0.114876
102.105	197.4217	202.6823	214.9304	221.431	226.0315	273.4734	339.6941	422.0797	478.1096	547.0023	570.5733	676.5117	727.0248	772.4469	835.3481	844.4242	877.5432	918.6769	932.1386	964.7239	980.3168	998.361	1006.509	1051.6923	1071.1747	1076.5733	1097.87	1104.9544	1141.2799	1141.9489	1185.1287	1212.7346	1225.9772	1290.5551	1311.0256	1347.2652	1400.7932	1407.5891	1414.4471	1446.8055	1464.2924	1482.1919	1492.5654	1497.3759	1502.4946	1509.4842	3019.2336	3027.8545	3035.6029	3080.1423	3085.9722	3091.734	3116.6166	3125.9246	3127.2039	3170.7897	3194.8652	3213.1198	3451.6346
CC1C2(CC2)C2NC12C	C[C@H]1C2(CC2)[C@H]2N[C@@]12C	
InChI=1S/C8H13N/c1-5-7(2)6(9-7)8(5)3-4-8/h5-6,9H,3-4H2,1-2H3	InChI=1S/C8H13N/c1-5-7(2)6(9-7)8(5)3-4-8/h5-6,9H,3-4H2,1-2H3/t5-,6+,7+/m1/s1
