17
gdb 18494	5.89417	1.1833	1.11164	3.5064	71.11	-0.2549	0.0259	0.2808	1092.1285	0.14255	-363.827434	-363.819888	-363.818944	-363.860549	27.573	
N	-0.0471824671	 1.3032893441	 0.0659817491	-0.443289
C	-0.0302806277	 0.0409942993	 0.0405323208	 0.12399
O	-1.1707138689	-0.6495782069	-0.1378613815	-0.190289
C	-1.1121955706	-2.0652770572	 0.0021525725	 0.129678
C	-1.5512963699	-2.6746915592	 1.3756879577	-0.269914
C	-2.6364937014	-3.4627618608	 0.6325881334	-0.042419
C	-3.5602878264	-2.5061674499	-0.0570965462	-0.270292
C	-2.2334133308	-2.810105903	-0.6998378529	-0.073878
H	 0.8998132035	 1.6585016931	 0.180817403	 0.226711
H	 0.858590523	-0.5995293273	 0.139016738	 0.079904
H	-0.121048561	-2.4227506026	-0.2987381011	 0.085418
H	-0.7695775521	-3.2907134395	 1.8253875589	 0.105678
H	-1.9102530075	-1.9522674164	 2.1146325673	 0.112971
H	-2.8964670195	-4.4970592831	 0.8155148219	 0.092359
H	-4.4120872054	-2.9530326099	-0.5589603561	 0.11546
H	-3.7508552475	-1.5229692456	 0.3636216249	 0.128354
H	-2.1636116205	-3.243038875	-1.6898498896	 0.089558
31.9773	105.5893	111.3009	273.2884	355.9273	396.6782	474.7314	622.2098	706.4688	783.8038	811.109	819.8209	859.0118	922.4396	961.7053	972.1466	1019.7101	1025.4918	1043.7528	1046.1585	1062.7283	1087.3333	1110.0255	1132.2078	1153.1388	1212.5102	1238.3708	1264.3671	1293.9264	1315.4778	1368.3234	1383.1162	1427.9934	1478.4586	1497.8509	1744.2899	3005.8025	3040.6318	3057.4047	3114.9742	3123.2902	3187.5141	3199.4049	3213.5466	3516.0001
N=COC1CC2CC12	[NH][CH]O[C@H]1C[C@H]2C[C@@H]12	
InChI=1S/C6H9NO/c7-3-8-6-2-4-1-5(4)6/h3-7H,1-2H2	InChI=1S/C6H9NO/c7-3-8-6-2-4-1-5(4)6/h3-7H,1-2H2/t4-,5-,6+/m1/s1
