15
gdb 67174	3.01647	1.5799	1.50756	4.9824	64.14	-0.2509	-0.0132	0.2377	931.9224	0.112921	-457.747443	-457.74051	-457.739566	-457.778744	26.891	
C	 0.0099112837	 1.5745786393	-0.103456222	-0.518393
C	-0.0063899253	 0.0810185231	-0.0004787479	 0.221291
C	 0.4635453795	-1.0763429687	-0.8637024374	 0.017067
O	 1.1024488668	-1.760371048	 0.205971371	-0.285118
C	 0.4711980543	-0.8338575856	 1.1527598273	-0.137174
C	-0.7736261846	-1.602124452	 1.6012529738	 0.485115
O	-1.0452494809	-2.0980938322	 2.6512857874	-0.339607
O	-1.5617168175	-1.7161301401	 0.4807935178	-0.225186
C	-1.0141911161	-0.8993183597	-0.535636309	 0.014473
H	 1.0173902277	 1.9758162056	 0.0467482569	 0.136329
H	-0.3341094713	 1.8950396199	-1.0918205909	 0.132973
H	-0.6526983035	 2.0300434329	 0.6407871239	 0.138348
H	 0.8895596475	-1.1608050691	-1.8566295659	 0.121114
H	 1.1447375224	-0.4962161707	 1.9365125786	 0.113218
H	-1.7301559528	-0.6295998845	-1.3008857537	 0.12555
136.7984	184.5705	232.7807	275.9908	363.9196	458.3622	552.508	577.0775	650.5402	748.3462	767.1744	806.435	844.7752	872.5443	890.7386	935.0273	967.0545	1009.6455	1042.9974	1069.4102	1100.292	1125.8294	1144.8097	1188.9469	1213.1922	1245.9818	1280.3337	1319.8207	1418.4319	1466.2008	1485.357	1497.5643	1898.3355	3031.7803	3096.6008	3105.9152	3160.0209	3188.5976	3211.7284
CC12C3OC1C(=O)OC23	C[C@@]12[C@H]3O[C@@H]1C(=O)O[C@@H]23	
InChI=1S/C6H6O3/c1-6-2-3(6)9-5(7)4(6)8-2/h2-4H,1H3	InChI=1S/C6H6O3/c1-6-2-3(6)9-5(7)4(6)8-2/h2-4H,1H3/t2-,3+,4+,6-/m0/s1
