15
gdb 128746	6.74521	0.77783	0.70053	2.8058	79.35	-0.2283	-0.0425	0.1857	1541.4246	0.112098	-453.934928	-453.926464	-453.92552	-453.96984	28.76	
C	 0.1835895094	 1.3695222894	-0.1291360482	-0.25471
O	-0.1880664257	 0.0188182366	 0.1490748775	-0.18089
C	 0.5758991798	-0.6276525379	 1.0283798108	 0.128925
N	 0.3000481818	-1.8348272878	 1.3215840717	-0.350674
C	 1.0768888881	-2.5101967793	 2.223594029	 0.526006
C	 0.9678056825	-3.7934967638	 2.6810458589	-0.358357
C	 2.0468327264	-3.9168302697	 3.5885208136	 0.043873
N	 2.7559171012	-2.8170315334	 3.6846002964	-0.149649
O	 2.1416133296	-1.9126730639	 2.8143269322	-0.224063
H	 1.1905396739	 1.4215723821	-0.5573534907	 0.140328
H	-0.5388422379	 1.7379248222	-0.857091904	 0.15571
H	 0.1359306333	 1.9862058462	 0.7749978909	 0.140324
H	 1.4101294982	-0.0540459434	 1.4463591746	 0.126994
H	 0.2251994688	-4.519656887	 2.400195629	 0.124951
H	 2.3375917405	-4.7727707804	 4.181729328	 0.131234
32.4637	64.8411	117.754	160.579	172.0558	324.898	366.1289	415.0779	533.0565	641.0131	726.084	786.6674	814.2689	921.773	927.8182	936.0987	999.5954	1010.3847	1050.9924	1059.4014	1168.8096	1175.7926	1221.7844	1259.8145	1297.7397	1363.6526	1405.9845	1482.631	1495.0797	1497.0669	1516.0243	1644.3671	1724.699	3027.3641	3073.8964	3097.9072	3157.6737	3240.819	3293.4937
COC=NC1=CC=NO1	COC=Nc1ccno1	
InChI=1S/C5H6N2O2/c1-8-4-6-5-2-3-7-9-5/h2-4H,1H3	InChI=1S/C5H6N2O2/c1-8-4-6-5-2-3-7-9-5/h2-4H,1H3
