19
gdb 88300	2.49436	1.09994	0.96679	2.2318	82.5	-0.2418	-0.02	0.2217	1326.616	0.156452	-385.868104	-385.858338	-385.857394	-385.903676	35.64	
C	 0.7513620869	 1.9394079127	 0.0248319246	-0.418631
C	 0.0625315853	 0.6756363452	 0.4853804571	 0.016149
C	 0.5117879526	-0.6749295459	 0.0468757333	-0.292737
C	 0.6997525076	-0.2871710242	 1.5061721015	-0.115646
C	 2.076853311	-0.0489552959	 2.002957265	 0.389992
O	 3.0128629596	 0.2364074485	 1.2870136137	-0.328479
C	 2.3085074631	-0.2268101463	 3.5198270335	-0.443161
C	 1.2879592982	 0.3713126923	 4.3669716999	 0.301548
C	 0.4398775389	 0.8758613809	 5.0532472872	-0.456556
H	 1.828300612	 1.7913959164	-0.0688517291	 0.15518
H	 0.3579487366	 2.244932436	-0.9509216006	 0.116553
H	 0.5772948946	 2.7613089471	 0.7273337688	 0.118848
H	-1.0073991767	 0.7829694215	 0.6450651294	 0.096178
H	-0.2241129673	-1.4406798074	-0.1714028017	 0.116182
H	 1.4285826271	-0.7292318178	-0.5309702036	 0.137624
H	 0.015026406	-0.7046198176	 2.2347631457	 0.098631
H	 2.3572273752	-1.3094999966	 3.7083908599	 0.152224
H	 3.3002913379	 0.1782409208	 3.7408427504	 0.154794
H	-0.3030984986	 1.3233069103	 5.6658486148	 0.201308
34.4566	55.7396	131.0761	179.7572	211.9142	245.9454	313.2033	335.0378	373.1626	407.9149	464.7052	582.4704	621.7146	644.4477	693.0768	749.8262	760.6471	862.2862	866.628	944.4596	953.3323	984.8061	1004.8884	1074.2658	1090.0305	1114.5597	1128.9528	1146.3658	1207.5272	1215.0166	1239.6652	1291.8629	1391.4989	1414.9996	1425.3983	1446.4807	1477.1893	1500.7638	1505.087	1785.6506	2237.9082	3010.3368	3036.7275	3089.4536	3093.1308	3131.4778	3134.2948	3149.2935	3182.659	3227.1719	3505.4186
CC1CC1C(=O)CC#C	C[C@H]1C[C@H]1C(=O)CC#C	
InChI=1S/C8H10O/c1-3-4-8(9)7-5-6(7)2/h1,6-7H,4-5H2,2H3	InChI=1S/C8H10O/c1-3-4-8(9)7-5-6(7)2/h1,6-7H,4-5H2,2H3/t6-,7+/m0/s1
