16
gdb 97089	6.22818	0.85666	0.76018	0.6907	83.74	-0.2493	-0.0896	0.1597	1437.9779	0.123366	-437.916317	-437.907582	-437.906638	-437.951578	30.068	
C	 0.0524857388	 1.4405221599	 0.0016587979	-0.338745
N	 0.1406474858	-0.0073711253	-0.0570410563	-0.330622
C	 0.6242885575	-0.6456489828	 0.9208035778	 0.482039
O	 1.101097753	-0.1010288283	 2.0937692783	-0.266136
C	 1.5668057661	-1.1431787216	 2.9589095684	-0.174491
C	 1.3253818414	-2.4138252544	 2.18793699	 0.206453
C	 1.6576862216	-3.7436677123	 2.7008714873	 0.081117
O	 2.1549761294	-3.9284823247	 3.7899350504	-0.2613
C	 0.776428009	-2.099865913	 1.0052219886	-0.31007
H	 0.606048992	 1.8632813995	-0.8449484473	 0.131801
H	-0.9945806171	 1.7369609882	-0.1314794868	 0.131833
H	 0.4309653332	 1.8827341462	 0.9292338519	 0.129203
H	 2.6271483833	-0.9834016718	 3.1870515472	 0.14357
H	 1.0110167855	-1.1109401623	 3.9033458798	 0.143571
H	 1.4210977815	-4.5859940607	 2.0171003229	 0.086606
H	 0.4752655492	-2.7638276768	 0.2074515498	 0.145172
17.7632	74.6544	146.9846	166.185	211.7487	251.8116	324.099	392.7205	440.6797	573.4109	692.7755	696.8639	721.8406	880.0932	908.9282	915.5199	1008.5024	1029.9516	1053.6799	1055.7386	1126.4957	1140.4712	1187.6128	1191.3803	1219.4135	1347.6331	1380.3765	1417.2653	1434.8743	1492.0315	1492.1245	1500.4122	1670.715	1758.6918	1780.8018	2910.9525	3017.4571	3034.7548	3068.8347	3073.5697	3094.0111	3247.5801
CN=C1OCC(C=O)=C1	C[N]C1=C[C](CO1)C=O	
InChI=1S/C6H7NO2/c1-7-6-2-5(3-8)4-9-6/h2-3H,4H2,1H3	InChI=1S/C6H7NO2/c1-7-6-2-5(3-8)4-9-6/h2-3H,4H2,1H3
