16
gdb 72007	2.75994	1.65021	1.20585	3.2274	71.13	-0.2246	-0.0241	0.2005	1010.0079	0.123934	-437.813603	-437.806075	-437.80513	-437.845492	29.398	
O	-0.0718944908	 1.3472996734	-0.0480106946	-0.448537
C	 0.0500847886	-0.0187573276	-0.0497968033	 0.336701
C	 0.922613842	-0.9098822853	-0.9356506695	-0.27608
C	 0.0313771822	-2.0609315682	-0.395818428	-0.047336
N	 0.4807623624	-2.1596777929	 1.0354333456	-0.361474
C	-0.2352748445	-0.8893777108	 1.2299575315	 0.198483
C	-0.6329045734	-0.3213206776	 2.512756644	 0.034784
O	-0.4344249698	-0.8574361034	 3.5805198522	-0.280299
C	-1.0818869105	-0.9864637665	-0.0490009227	-0.195315
H	 0.7187285978	 1.7297602194	 0.3507459665	 0.297906
H	 0.7325020757	-0.7001916374	-1.9910103274	 0.114681
H	 1.9926202803	-0.9909752705	-0.7286161538	 0.110948
H	-0.1081720067	-2.983637595	-0.9522644996	 0.092007
H	-0.0595972192	-2.8840484393	 1.5079607179	 0.227744
H	-1.1598974669	 0.654603573	 2.4330492436	 0.080207
H	-2.1456944273	-0.8819045813	-0.2163084222	 0.11558
106.5349	165.952	239.4742	287.0746	345.5558	380.9809	430.4632	487.616	554.3073	616.5941	690.0381	699.3761	793.2334	815.3503	891.2596	907.3488	921.1529	977.2175	997.9186	1019.7318	1032.2985	1058.7613	1117.3779	1126.0752	1161.2864	1206.1667	1242.9685	1284.0373	1288.0377	1321.2767	1376.7892	1428.5277	1446.2945	1494.5974	1789.2728	2892.9086	3061.8381	3128.0536	3159.2269	3205.8657	3463.0391	3788.65
OC12CC3NC1(C=O)C23	O[C@@]12C[C@H]3N[C@]1(C=O)[C@@H]23	
InChI=1S/C6H7NO2/c8-2-5-4-3(7-5)1-6(4,5)9/h2-4,7,9H,1H2	InChI=1S/C6H7NO2/c8-2-5-4-3(7-5)1-6(4,5)9/h2-4,7,9H,1H2/t3-,4+,5-,6-/m1/s1
