23
gdb 39668	4.23776	0.94977	0.81491	0.1185	91.77	-0.2333	0.0296	0.2628	1473.6073	0.208025	-351.160244	-351.151731	-351.150787	-351.193931	33.098	
C	-0.1084672386	 1.5488887174	-0.0574881321	-0.212921
C	 1.4427124605	 1.55131473	-0.1098423032	-0.231612
C	 1.4302249434	 0.1479485398	 0.5643152893	 0.060178
C	-0.0586471644	 0.0089001945	 0.131096632	-0.235653
C	 2.4433688546	-0.9004473389	 0.1168760639	-0.031561
C	 3.9129031051	-0.5590077548	 0.4954216379	-0.22333
C	 4.5849633272	-1.9077048022	 0.8582137686	-0.255436
C	 3.404546357	-2.8034924152	 1.1526197957	-0.073852
C	 2.2558473856	-2.2657276921	 0.7474024649	-0.068135
H	-0.4834135456	 2.0535951701	 0.8377064584	 0.100283
H	-0.6477010622	 1.9383040512	-0.9242890219	 0.093708
H	 1.809132198	 1.4882796579	-1.1404200316	 0.094931
H	 1.9738016204	 2.3610103735	 0.3968549986	 0.092774
H	 1.4874914057	 0.260168867	 1.6543996552	 0.064487
H	-0.758771529	-0.4455942799	 0.836736398	 0.092926
H	-0.1435375956	-0.515004922	-0.8273699986	 0.095597
H	 2.3504885697	-0.997690686	-0.9779802744	 0.064524
H	 4.43908836	-0.0204688975	-0.2967967598	 0.094746
H	 3.9074887442	 0.0911891625	 1.3778749606	 0.098986
H	 5.1743192087	-2.3096505844	 0.021408744	 0.103012
H	 5.2783870261	-1.8185808404	 1.7023840507	 0.099707
H	 3.5121654888	-3.784802142	 1.6026201176	 0.087863
H	 1.2826297905	-2.7403988684	 0.8180755763	 0.088776
78.6737	83.1198	142.0141	145.6798	279.0239	334.669	397.5794	449.1782	590.377	667.2083	745.4469	770.9304	785.6421	804.1761	850.6125	891.1417	907.6994	922.9892	934.5558	954.3426	973.7469	977.851	1000.1898	1009.271	1038.3162	1089.8043	1106.4287	1123.1226	1158.9978	1192.6617	1203.9663	1226.1169	1233.3105	1256.9446	1263.6774	1271.4239	1289.4996	1298.3859	1303.5993	1320.8819	1330.8312	1375.9196	1395.3526	1477.9482	1483.5333	1485.8	1499.954	1510.1527	1685.169	2954.5941	3004.0899	3024.3987	3036.8962	3041.229	3045.9411	3054.6254	3056.3242	3092.7235	3096.3255	3097.5142	3114.3048	3174.8725	3200.8424
C1CC(C1)C1CCC=C1	C1CC(C1)[C@H]1CCC=C1	
InChI=1S/C9H14/c1-2-5-8(4-1)9-6-3-7-9/h1,4,8-9H,2-3,5-7H2	InChI=1S/C9H14/c1-2-5-8(4-1)9-6-3-7-9/h1,4,8-9H,2-3,5-7H2/t8-/m1/s1
