18
gdb 38437	4.03778	1.33528	1.22546	2.7213	78.46	-0.2195	0.0144	0.2339	1058.7674	0.148814	-401.898579	-401.891321	-401.890377	-401.930357	28.917	
C	-0.024320718	 1.4764909153	 0.13107131	-0.299184
C	 1.4814824372	 1.5935773957	-0.1131733475	-0.040555
N	 2.1145880761	 0.9065436339	 1.0337423443	-0.327437
C	 1.650006889	 0.1116924727	-0.129516092	-0.121843
C	 0.1321853465	-0.0969786664	 0.0227154724	 0.442181
O	-0.306551496	-0.8661355176	 1.1281815189	-0.309432
C	-1.1900742412	-1.9010833896	 0.7060417808	-0.134987
C	-1.2895217923	-1.7432500166	-0.78450692	-0.11302
C	-0.5389541759	-0.7178613046	-1.1684788594	-0.144768
H	-0.3526418907	 1.8270771029	 1.1111933257	 0.117737
H	-0.6569899309	 1.8927609554	-0.655841834	 0.0995
H	 2.008668937	 2.3491306604	-0.6809141712	 0.091462
H	 3.1246896509	 1.0025187277	 0.9261881779	 0.226827
H	 2.3399302431	-0.5162012731	-0.6820842107	 0.084981
H	-0.7869704602	-2.8827131427	 1.0006930826	 0.106988
H	-2.1642432304	-1.7893463544	 1.207365718	 0.107173
H	-1.894448831	-2.3833675827	-1.4139790191	 0.107213
H	-0.4006967532	-0.3467753465	-2.1759828466	 0.107163
93.2597	137.8653	214.0314	327.0772	406.6792	416.5941	500.5916	548.5781	732.855	756.0358	785.4633	813.0193	835.3893	840.5567	884.8954	930.2736	952.4274	959.51	973.9142	993.6035	1011.0566	1034.0982	1047.4831	1077.9712	1111.7918	1123.6132	1140.4321	1171.2268	1196.0023	1215.6162	1225.6861	1290.7787	1323.4803	1359.7583	1379.9169	1381.2781	1466.2053	1519.3832	1688.938	2977.155	2993.7723	3070.4994	3134.8758	3173.804	3202.2112	3206.3379	3230.8925	3464.8404
C1C2NC2C11OCC=C1	C1[C@H]2N[C@H]2[C@]21OCC=C2	
InChI=1S/C7H9NO/c1-2-7(9-3-1)4-5-6(7)8-5/h1-2,5-6,8H,3-4H2	InChI=1S/C7H9NO/c1-2-7(9-3-1)4-5-6(7)8-5/h1-2,5-6,8H,3-4H2/t5-,6-,7+/m1/s1
