22
gdb 101406	2.10549	1.22465	1.15479	3.4146	83.45	-0.2376	0.0372	0.2748	1285.7639	0.193315	-404.383736	-404.373589	-404.372645	-404.420112	36.455	
C	 0.1809721667	 1.5592322544	-0.0295604307	-0.38824
C	 0.0505784112	 0.0349412082	-0.0227717993	-0.170573
C	-1.4041024759	-0.4641137127	 0.0503958406	 0.026587
C	-1.4958513666	-1.9875590959	-0.1241165718	-0.399576
N	-2.0370942266	-0.0462594866	 1.2968201955	-0.066595
C	-3.369904939	 0.5010548258	 1.5810987097	-0.172628
C	-3.0284401922	 0.3782665683	 3.0919271111	-0.368286
C	-1.6900894813	-0.2322524263	 2.6141568641	 0.410039
O	-0.7108077498	-0.7057385779	 3.1352960057	-0.384429
H	 1.2311022704	 1.8609968575	-0.0840029179	 0.116947
H	-0.3369219708	 2.0013479218	-0.8887839145	 0.10679
H	-0.2428398734	 1.9970387677	 0.8791031601	 0.122593
H	 0.4997377715	-0.3796581304	-0.9331431079	 0.092447
H	 0.6005404274	-0.3852931583	 0.8253924821	 0.135828
H	-1.9777317851	 0.0207046414	-0.7506563221	 0.083835
H	-1.0733952429	-2.2927699686	-1.0865704076	 0.114873
H	-0.9420726998	-2.4921077932	 0.6729745299	 0.145302
H	-2.5361139023	-2.325101245	-0.0858549302	 0.110778
H	-3.5208310371	 1.5191900144	 1.2068016044	 0.111312
H	-4.1957656419	-0.1351737419	 1.2428797108	 0.110178
H	-2.9290835739	 1.3216731945	 3.6313597933	 0.131495
H	-3.6552529084	-0.3074908273	 3.6643909645	 0.131326
20.9532	71.3306	118.4683	157.8104	183.732	221.6557	231.3336	254.5248	356.3936	429.6193	469.6416	478.7689	574.2333	678.781	776.5699	808.6669	823.0566	846.3906	936.0894	966.4033	996.6282	1018.9376	1032.8557	1045.0496	1100.2444	1124.3631	1147.6061	1156.4109	1185.8694	1194.289	1231.0349	1266.8857	1302.7274	1321.5329	1373.5955	1383.2068	1403.8437	1410.9873	1433.0893	1461.876	1482.9061	1492.0984	1497.9607	1502.6593	1505.2323	1531.3029	1858.1125	3018.758	3029.3332	3032.1822	3034.826	3039.8375	3072.2514	3083.0987	3088.3641	3103.6251	3107.9678	3113.0971	3120.4856	3145.7848
CCC(C)N1CCC1=O	CC[C@@H](C)N1CCC1=O	
InChI=1S/C7H13NO/c1-3-6(2)8-5-4-7(8)9/h6H,3-5H2,1-2H3	InChI=1S/C7H13NO/c1-3-6(2)8-5-4-7(8)9/h6H,3-5H2,1-2H3/t6-/m1/s1
