18
gdb 32121	3.67227	1.18223	0.90467	0.5579	84.84	-0.2105	-0.0204	0.1901	1296.544	0.148797	-398.205407	-398.196245	-398.195301	-398.241091	32.091	
C	-0.0359767366	 1.4249844329	-0.0230957494	-0.309296
N	-0.0566497551	-0.0129168373	 0.1300182629	-0.344748
C	 0.6228261259	-0.6789435219	 1.0993540885	 0.449764
N	 1.2437856905	 0.0570612331	 2.039366901	-0.331143
C	 1.8736938955	-0.6421941227	 2.9807585284	 0.015047
C	 1.9070495121	-2.0295067163	 3.0089593278	-0.200819
C	 1.2358920609	-2.6937598624	 1.9768627707	 0.32701
C	 1.1967849049	-4.1960174971	 1.8899362129	-0.470051
N	 0.5946120331	-2.0238216657	 1.0207952145	-0.380109
H	 0.9520387946	 1.8020555021	-0.3181591975	 0.125961
H	-0.7614123399	 1.704123904	-0.7904965937	 0.119338
H	-0.3087004864	 1.9133218523	 0.9157894499	 0.146895
H	-0.4225094722	-0.5906989919	-0.607292604	 0.250908
H	 2.3797438714	-0.0595055582	 3.7488503823	 0.107263
H	 2.4316133646	-2.5692231297	 3.7869094616	 0.091629
H	 0.1666288418	-4.5524876508	 1.9942149542	 0.14183
H	 1.5500437315	-4.5264724936	 0.9085548804	 0.140847
H	 1.8086092333	-4.6627594769	 2.6651180096	 0.119672
21.5446	58.6704	96.3346	182.5157	203.905	217.3458	332.2889	435.0037	459.6453	496.4012	544.3748	641.5271	644.3772	779.172	816.7342	826.5767	925.1533	999.2496	1000.5362	1026.2814	1057.7916	1098.8956	1133.7782	1159.4156	1198.2736	1273.1186	1274.4047	1368.5136	1382.032	1406.0443	1449.1791	1475.1397	1477.5442	1483.	1504.4634	1516.6966	1581.3762	1602.1153	1633.5251	3016.7507	3042.8689	3088.883	3104.3817	3130.4453	3130.4704	3140.6368	3210.0024	3667.1508
CNC1=NC=CC(C)=N1	CNc1nccc(C)n1	
InChI=1S/C6H9N3/c1-5-3-4-8-6(7-2)9-5/h3-4H,1-2H3,(H,7,8,9)	InChI=1S/C6H9N3/c1-5-3-4-8-6(7-2)9-5/h3-4H,1-2H3,(H,7,8,9)
