20
gdb 102840	1.85736	1.2515	0.79709	3.2617	83.34	-0.2528	0.0279	0.2807	1463.737	0.167687	-403.119397	-403.10878	-403.107836	-403.155873	37.514	
C	-0.0602796791	 1.5070352759	 0.4058719487	-0.399633
C	 0.00135515	-0.0039173145	 0.1732771683	-0.178933
C	 0.6475897058	-0.3838420942	-1.1590719826	 0.105725
C	 0.7365786406	-1.914585945	-1.3381030074	-0.357259
C	 1.4816138945	-2.3173347063	-2.52347151	 0.284593
C	 2.1098611825	-2.6277717857	-3.500068663	-0.427241
O	-0.1541357145	 0.1761153688	-2.2017075112	-0.191739
C	 0.4641729928	 0.6727458648	-3.29361208	 0.134827
N	-0.222764371	 1.1258910016	-4.2501563464	-0.449571
H	 0.94274554	 1.9484482261	 0.4165458111	 0.112317
H	-0.6375240181	 1.9973362662	-0.381789076	 0.145644
H	-0.5326619626	 1.7328787102	 1.3660979196	 0.117654
H	 0.5691664969	-0.4874476038	 0.9771035349	 0.10008
H	-1.0093474841	-0.4290490145	 0.1993413839	 0.114605
H	 1.6598688551	 0.0411410717	-1.2131643029	 0.090449
H	 1.206801382	-2.3434066134	-0.4445362823	 0.131999
H	-0.2843515051	-2.3125692112	-1.382603981	 0.146903
H	 2.6529955778	-2.9165042647	-4.3656709476	 0.199904
H	 1.5588216648	 0.6398410447	-3.2288822003	 0.09291
H	 0.3939243017	 1.4748273634	-4.9808260256	 0.226765
59.4709	62.7839	101.4814	122.7166	137.8216	203.7323	234.398	262.8898	336.3955	344.7331	406.0935	478.01	559.4969	589.1385	622.0006	648.875	784.9248	813.9183	874.5552	920.4389	955.6016	980.3656	1031.9366	1036.7783	1070.5859	1107.9494	1139.4275	1150.1254	1236.2085	1281.7407	1289.7988	1316.3411	1357.8235	1382.1676	1394.0634	1411.0585	1430.1812	1456.5523	1479.143	1497.4779	1509.4673	1741.0811	2238.883	3006.8362	3027.4817	3034.6162	3038.315	3042.2717	3066.0462	3075.3113	3105.1274	3128.1319	3505.4002	3518.0236
CCC(CC#C)OC=N	CC[C@@H](CC#C)O[CH][NH]	
InChI=1S/C7H11NO/c1-3-5-7(4-2)9-6-8/h1,6-8H,4-5H2,2H3	InChI=1S/C7H11NO/c1-3-5-7(4-2)9-6-8/h1,6-8H,4-5H2,2H3/t7-/m0/s1
