22
gdb 121890	3.12231	0.7357	0.65013	3.02	80.28	-0.2337	0.0325	0.2662	1784.1747	0.191995	-441.511044	-441.499676	-441.498732	-441.548964	39.095	
C	-0.0897177975	 1.4912002125	 0.078975663	-0.345101
N	 0.0081323601	 0.0462886802	 0.0114212538	-0.068244
C	 0.0925806778	-0.6671238257	 1.2842380653	-0.173894
C	-1.2782898187	-1.0535658459	 1.8548914734	-0.203383
C	-1.1654645872	-1.7921239783	 3.1890187574	-0.055475
O	-2.4287897543	-2.1246598842	 3.7422066494	-0.419406
C	-0.0666244535	-0.7041484113	-1.1345248675	 0.399482
C	-0.1469449212	 0.0305212543	-2.4664727014	-0.499595
O	-0.0604484712	-1.9255393754	-1.09116611	-0.385297
H	-0.1711609448	 1.9238276912	-0.9160897952	 0.139537
H	-0.9711590733	 1.8033996177	 0.6544706393	 0.129789
H	 0.7964163361	 1.9196252955	 0.5651406892	 0.128101
H	 0.68535353	-1.5691132437	 1.1173389017	 0.137165
H	 0.6339191249	-0.0263458503	 1.9906961119	 0.095805
H	-1.9035860627	-0.1640209315	 1.9965774076	 0.100727
H	-1.7810986601	-1.6961962518	 1.1221030296	 0.115213
H	-0.5327816458	-2.6865124496	 3.0687546364	 0.093646
H	-0.6778141095	-1.1541727986	 3.935466268	 0.107296
H	-2.8646584517	-2.7267869449	 3.1305781252	 0.282041
H	 0.6958357415	 0.712801333	-2.6142252029	 0.135909
H	-0.1346285505	-0.726172753	-3.25006091	 0.148476
H	-1.0694229484	 0.6136272496	-2.5543713641	 0.137209
44.301	71.0462	81.0961	95.5911	124.7847	131.1016	193.9582	231.0768	299.4678	313.5627	344.7486	401.8039	467.4543	514.7093	590.9854	606.9496	749.1476	754.4987	857.8345	968.2716	1014.2847	1040.1271	1049.2153	1051.1086	1079.9581	1097.1597	1147.7813	1154.7252	1203.952	1268.2986	1284.7996	1316.5208	1338.9376	1386.6343	1395.6554	1410.4085	1425.613	1440.196	1462.0886	1472.7362	1478.1683	1489.8438	1493.7002	1500.1934	1514.906	1531.1415	1747.6825	2974.3131	3009.1822	3027.5478	3036.409	3043.9979	3050.5719	3053.3484	3079.0756	3106.9473	3112.7334	3160.5593	3168.4401	3814.827
CN(CCCO)C(C)=O	CN(CCCO)C(=O)C	
InChI=1S/C6H13NO2/c1-6(9)7(2)4-3-5-8/h8H,3-5H2,1-2H3	InChI=1S/C6H13NO2/c1-6(9)7(2)4-3-5-8/h8H,3-5H2,1-2H3
