23
gdb 113203	2.67727	1.11091	0.97104	1.5727	82.22	-0.2254	0.0671	0.2924	1366.968	0.202481	-425.404476	-425.393723	-425.392779	-425.439829	40.035	
C	-0.3058507481	 1.0665657734	-0.2086524422	-0.248757
O	 0.4379592836	-0.1001095871	 0.1137168636	-0.251675
C	 0.9806854086	-0.7147703204	-1.021939903	 0.019154
C	 1.4312308785	-2.1412735427	-0.838593296	-0.401743
C	 0.1704658525	-1.8370035515	-1.6277358604	 0.438056
O	-1.0594151182	-2.1057825656	-1.0096392146	-0.49107
C	 0.1175285014	-2.0645962908	-3.1263554973	-0.011008
C	-0.159828459	-3.5417506872	-3.4456300681	-0.389205
C	-0.9152814798	-1.1428193021	-3.7906738475	-0.392558
H	 0.333675361	 1.823398251	-0.684934503	 0.114885
H	-1.1427895712	 0.8391249781	-0.8820056755	 0.124824
H	-0.6925012921	 1.4691251501	 0.730336512	 0.130538
H	 1.5607313347	-0.0486260405	-1.6620929664	 0.084681
H	 2.3273996952	-2.4650568543	-1.3575160177	 0.112672
H	 1.2955897012	-2.5647842911	 0.1511254523	 0.120728
H	-1.0584195137	-1.6144304809	-0.1772075836	 0.286616
H	 1.11208708	-1.8096143755	-3.5174164501	 0.06637
H	-0.1644705505	-3.7130316262	-4.5268257658	 0.10364
H	 0.600005437	-4.1921509624	-3.0009578623	 0.111458
H	-1.1332489531	-3.8427065305	-3.0475857735	 0.133326
H	-0.6845911558	-0.0881807812	-3.6057824132	 0.102538
H	-0.9372237568	-1.297566467	-4.8740751104	 0.105661
H	-1.9149482756	-1.3431627056	-3.3951750173	 0.130865
73.7449	110.6958	113.4897	177.7264	221.1464	226.2149	252.7578	266.7958	281.7982	297.8561	379.7137	429.9517	450.3227	472.9072	533.2046	631.3503	731.2137	801.0697	871.5204	876.8275	930.6554	936.2537	968.6141	998.3795	1052.3093	1057.8859	1084.6944	1115.2748	1139.2361	1147.6663	1182.0616	1188.218	1206.5175	1244.0709	1285.5113	1338.9783	1350.0195	1366.1481	1394.5981	1415.6107	1434.9775	1472.1349	1485.5369	1487.4791	1490.8825	1494.6895	1500.7917	1509.1752	1518.4689	2994.9532	3011.1781	3033.612	3037.971	3053.5446	3090.5099	3098.0076	3103.579	3115.224	3119.6476	3122.9396	3127.1773	3219.2397	3754.1964
COC1CC1(O)C(C)C	CO[C@H]1C[C@]1(O)C(C)C	
InChI=1S/C7H14O2/c1-5(2)7(8)4-6(7)9-3/h5-6,8H,4H2,1-3H3	InChI=1S/C7H14O2/c1-5(2)7(8)4-6(7)9-3/h5-6,8H,4H2,1-3H3/t6-,7-/m0/s1
