25
gdb 118229	2.03972	1.02138	0.74898	0.9567	87.42	-0.2394	0.0879	0.3272	1661.5095	0.224692	-426.620501	-426.608512	-426.607568	-426.658685	42.226	
C	 0.2138454021	 0.9952427871	-2.2251775098	-0.227117
O	 0.343050174	-0.3719972947	-1.9232057853	-0.230751
C	 0.7768904961	-0.6077856752	-0.6029088859	-0.044719
C	 0.7652854328	-2.1084511724	-0.3348000856	 0.108542
C	 1.5138560555	-2.4581775574	 0.9533213982	-0.396246
O	-0.5846554381	-2.5414698264	-0.2266643449	-0.27441
C	-0.9648574831	-3.6535855958	-1.034803144	 0.142759
C	-2.1429447085	-4.3211807887	-0.3323054868	-0.385106
C	-1.3132832138	-3.2098755148	-2.4575601388	-0.379497
H	-0.5232768433	 1.4898289831	-1.5730343053	 0.105621
H	 1.1721143746	 1.5302803621	-2.1241582274	 0.100705
H	-0.1240788237	 1.0721776088	-3.2616026058	 0.125733
H	 1.7938397944	-0.2054740141	-0.4550856882	 0.077153
H	 0.1115448308	-0.1113106559	 0.1226502892	 0.092797
H	 1.25302051	-2.598899287	-1.1887225229	 0.080059
H	 1.467527711	-3.5357557624	 1.1331479823	 0.118847
H	 2.5669361315	-2.163636075	 0.8985674267	 0.109885
H	 1.0538226737	-1.9543699141	 1.8095038138	 0.123023
H	-0.1274016725	-4.3696074409	-1.0764994303	 0.061555
H	-2.9757475736	-3.6163811716	-0.2422550999	 0.12155
H	-2.4885305815	-5.1921823328	-0.8974053831	 0.108998
H	-1.8596298936	-4.6445188282	 0.6729830752	 0.11422
H	-0.483711994	-2.6671822989	-2.9163292729	 0.130636
H	-1.5574942583	-4.0756665773	-3.0826830297	 0.099912
H	-2.1778675322	-2.5386276875	-2.4381644589	 0.115849
38.2692	56.3663	81.6357	113.0731	170.2495	196.3797	208.7367	228.4354	235.3087	252.0271	304.9666	330.1895	389.0741	423.6989	476.174	505.8771	537.7734	805.6258	872.238	911.4064	929.2602	933.6412	942.7451	984.5992	1039.135	1115.1545	1130.2801	1146.3034	1150.0515	1168.9291	1179.204	1191.8453	1206.2512	1235.4134	1279.0904	1324.8272	1359.2499	1366.8046	1399.2801	1402.6121	1414.1397	1418.7446	1429.7134	1477.1073	1478.6729	1483.3648	1485.4657	1488.2132	1492.7621	1494.9227	1499.1418	1506.7134	1522.5836	2952.604	2960.9754	2969.5981	2989.6536	3011.2603	3015.5925	3034.7411	3036.8703	3041.0233	3103.5363	3109.3644	3112.118	3113.803	3115.5835	3118.7363	3129.2639
COCC(C)OC(C)C	COC[C@@H](C)OC(C)C	
InChI=1S/C7H16O2/c1-6(2)9-7(3)5-8-4/h6-7H,5H2,1-4H3	InChI=1S/C7H16O2/c1-6(2)9-7(3)5-8-4/h6-7H,5H2,1-4H3/t7-/m1/s1
