15
gdb 45574	3.42389	1.506	1.30439	5.3197	60.54	-0.2811	0.0406	0.3217	963.191	0.115182	-494.956205	-494.949589	-494.948645	-494.987746	25.023	
O	 0.0022312851	-0.0335672032	-0.0417339842	-0.36606
C	-0.0137078965	 1.1532609073	-0.020682365	 0.498604
O	-1.1392377149	 1.9138938731	-0.0002579184	-0.249534
C	-0.8194682553	 3.3018565637	 0.0702206183	 0.06258
C	-1.1626409364	 3.8913701288	 1.4435782315	-0.110834
O	-0.0168270786	 3.6610463125	 2.2473131261	-0.240142
C	 1.0997341056	 3.9223273295	 1.41247733	-0.110834
C	 0.7352046271	 3.3231175345	 0.0488560066	 0.062582
O	 1.0907424277	 1.9443863039	-0.0308726482	-0.249534
H	-1.3053953922	 3.8134939912	-0.7621837964	 0.110266
H	-1.3660273872	 4.9701480376	 1.3428866814	 0.099769
H	-2.0221819479	 3.4019763554	 1.9044188083	 0.141551
H	 1.2706818564	 5.0062278851	 1.3066298118	 0.099769
H	 1.9846849317	 3.4568142069	 1.8493416881	 0.141551
H	 1.1839100054	 3.8475179237	-0.7964032898	 0.110266
107.2646	114.0162	254.8795	354.3745	410.1813	540.2522	606.0087	701.0633	736.0531	768.4592	843.2109	856.064	908.7009	917.3171	950.7607	973.5713	1008.8403	1061.0852	1099.346	1136.4777	1143.91	1148.3152	1221.9633	1245.1918	1290.8191	1315.4547	1354.133	1361.7527	1394.051	1403.2369	1486.7207	1501.3993	1932.5387	2973.9474	2980.4629	3097.1456	3108.5149	3124.7022	3126.8722
O=C1OC2COCC2O1	O=C1O[C@H]2COC[C@H]2O1	
InChI=1S/C5H6O4/c6-5-8-3-1-7-2-4(3)9-5/h3-4H,1-2H2	InChI=1S/C5H6O4/c6-5-8-3-1-7-2-4(3)9-5/h3-4H,1-2H2/t3-,4+
