17
gdb 22739	2.51996	1.39916	1.00056	1.7856	73.68	-0.2404	-0.0202	0.2202	1174.7798	0.134844	-455.052516	-455.043726	-455.042782	-455.086224	32.788	
O	-0.2580790898	 1.2508474439	-0.387048619	-0.404665
N	-0.0691863789	-0.1496165075	-0.4690115716	-0.259797
C	-1.1370348246	-0.7475545523	-0.1404133241	 0.327222
C	-2.5482461012	-0.3156029279	 0.2455499761	 0.037338
O	-3.2028100181	 0.5437356328	-0.6545980752	-0.431528
C	-2.9769033992	-1.813567716	 0.1375153839	-0.330728
C	-1.5022448988	-2.1922999008	-0.1004020981	 0.267951
C	-0.8748889047	-3.3141954863	-0.8400123813	-0.293227
N	-0.7822941796	-3.2464409614	 0.6252655956	-0.355669
H	 0.5889998094	 1.5935786276	-0.6912868007	 0.311768
H	-2.5912166033	 0.0608619239	 1.2786578974	 0.091247
H	-2.6325661072	 1.3145134168	-0.7622396422	 0.297376
H	-3.4307660345	-2.2442689157	 1.0308171071	 0.119702
H	-3.6174884877	-1.9814283975	-0.7304968831	 0.12474
H	-1.5046737397	-4.1137508174	-1.2210342384	 0.126769
H	 0.0043028529	-3.0896141549	-1.4380013569	 0.129365
H	 0.1344474151	-2.8982469973	 0.8995011705	 0.242136
56.076	129.0789	161.7138	226.9467	263.2557	313.5994	368.0171	376.4043	414.6198	434.0724	517.5393	536.3315	687.4339	791.9783	796.8398	829.4254	914.5458	933.23	958.1992	982.1077	1010.6213	1063.8955	1082.4604	1123.896	1142.668	1165.3375	1215.6137	1240.5254	1274.3514	1276.2865	1332.9326	1370.0934	1403.5233	1427.8962	1470.0465	1504.8111	1770.1928	2987.1717	3081.3429	3107.2754	3144.2714	3197.6148	3489.466	3793.8876	3822.2246
ON=C1C(O)CC11CN1	O[N][C]1[C@@H](O)C[C@]21CN2	
InChI=1S/C5H8N2O2/c8-3-1-5(2-6-5)4(3)7-9/h3,6,8-9H,1-2H2	InChI=1S/C5H8N2O2/c8-3-1-5(2-6-5)4(3)7-9/h3,6,8-9H,1-2H2/t3-,5+/m0/s1
