19
gdb 96774	2.32199	1.5133	1.18597	1.584	78.81	-0.2344	0.0056	0.2399	1141.8405	0.1572	-419.160169	-419.150735	-419.149791	-419.194011	34.93	
C	 0.0257767346	 1.406992688	-0.0264044685	-0.342386
N	-0.1007760937	-0.0401215613	 0.0916385545	-0.331784
C	 0.4728492768	-0.626366555	 1.0390909588	 0.332364
N	 1.367757713	-0.1575904009	 2.0914489506	-0.1822
C	 0.7980100091	-0.6881556871	 3.3642590304	-0.258286
C	 1.5251259551	-1.6289793689	 2.5031664314	-0.057262
C	 0.6666989616	-2.1186920396	 1.3256643322	 0.317125
C	-0.5429403796	-3.0033691485	 1.5828876417	-0.445233
O	 1.5250109235	-2.6996250936	 0.3532802856	-0.471625
H	 0.6929113483	 1.8540275585	 0.719142741	 0.135118
H	 0.3938921309	 1.6487624202	-1.0291790163	 0.128849
H	-0.9684525235	 1.8584214425	 0.0640734341	 0.12864
H	 1.3105484246	-0.2974016545	 4.2375790471	 0.135662
H	-0.2821854374	-0.7498732786	 3.4659647979	 0.127314
H	 2.5049697177	-2.0286068088	 2.7335070248	 0.118598
H	-1.1650440232	-2.6270709821	 2.3998226909	 0.115076
H	-1.1640290411	-3.0474876276	 0.6823933823	 0.130333
H	-0.2137371474	-4.0176240851	 1.8266581136	 0.127938
H	 1.1621592906	-2.4759149277	-0.5115771922	 0.291758
96.4074	137.8052	171.6309	177.5748	214.1951	230.3637	275.0776	315.8281	330.7827	371.9562	496.8648	559.4898	640.0146	693.2476	739.5396	757.8973	827.0071	918.6115	965.5073	995.0738	1019.6895	1039.2268	1051.4998	1108.3359	1121.331	1127.5361	1147.2852	1172.8421	1184.1305	1207.306	1265.9678	1341.2817	1373.2266	1405.6168	1434.0056	1484.6948	1486.6573	1490.6833	1494.7276	1508.2102	1823.3685	3020.0832	3040.3391	3086.5686	3095.3854	3111.7238	3116.7371	3121.7198	3197.5616	3208.4701	3801.5198
CN=C1N2CC2C1(C)O	CN=C1N2C[C@H]2[C@]1(C)O	
InChI=1S/C6H10N2O/c1-6(9)4-3-8(4)5(6)7-2/h4,9H,3H2,1-2H3	InChI=1S/C6H10N2O/c1-6(9)4-3-8(4)5(6)7-2/h4,9H,3H2,1-2H3/t4-,6-,8?/m0/s1
