17
gdb 49232	3.3852	1.36764	1.1418	3.9605	75.77	-0.2441	-0.062	0.1821	1077.1662	0.137295	-421.827417	-421.820267	-421.819323	-421.859098	27.996	
O	-0.0833083744	-0.0214303797	-0.009094813	-0.27746
C	-0.0016118808	 1.1861726911	 0.0441492171	 0.066108
C	 1.2584562819	 1.9338916856	 0.0177091739	 0.268882
C	 1.2953402884	 3.275499502	 0.0450741313	-0.143596
C	 2.6349279069	 3.9680773707	-0.0031771864	-0.268307
C	 3.7415221723	 2.9030353726	-0.1015894868	 0.086844
C	 3.4421240387	 1.8488257488	-1.1908461446	-0.245592
C	 2.6043756422	 1.2363562197	-0.0446114335	-0.028759
O	 3.4892273868	 1.893513155	 0.9167371678	-0.294128
H	-0.9118342591	 1.8239281835	 0.1162639673	 0.068683
H	 0.3856727235	 3.8687539777	 0.1091463702	 0.110125
H	 2.6801435224	 4.6642825162	-0.8517871247	 0.119789
H	 2.7745027532	 4.5757332644	 0.9007367386	 0.130894
H	 4.7455765881	 3.32806401	-0.0288051237	 0.082424
H	 2.9308105169	 2.152627923	-2.1063324409	 0.103154
H	 4.3250537905	 1.2496945698	-1.4169424386	 0.116851
H	 2.5405138925	 0.1576461397	 0.0924264058	 0.10409
100.8093	190.1144	218.064	326.1295	355.452	420.8749	454.8389	590.0978	614.359	697.5903	777.9294	815.8876	832.762	875.699	899.4902	946.5004	961.9341	969.0227	1005.6002	1041.419	1066.2547	1088.4918	1112.8242	1173.5427	1199.876	1229.2742	1253.5948	1280.7179	1325.9557	1334.5503	1367.9745	1379.7414	1423.1914	1451.6172	1486.74	1686.1197	1783.5083	2872.1301	3017.6348	3048.0954	3073.6843	3084.617	3132.5831	3141.9503	3156.1989
O=CC1=CCC2CC1O2	O=CC1=CC[C@@H]2C[C@H]1O2	
InChI=1S/C7H8O2/c8-4-5-1-2-6-3-7(5)9-6/h1,4,6-7H,2-3H2	InChI=1S/C7H8O2/c8-4-5-1-2-6-3-7(5)9-6/h1,4,6-7H,2-3H2/t6-,7-/m1/s1
