21
gdb 68597	2.27378	1.84677	1.46113	1.6826	81.71	-0.2471	0.0894	0.3365	1023.6617	0.183458	-387.064785	-387.056786	-387.055841	-387.096696	32.447	
C	-0.0567568668	 1.5152605321	 0.0477107109	-0.505465
C	-0.0131479456	 0.007918463	 0.0233966246	 0.248629
C	 0.3154670775	-0.8135905568	-1.2724138929	-0.275125
C	-0.4188527531	-1.9655366004	-0.5181017382	-0.119683
C	 0.529130794	-2.2239376065	 0.6702423533	-0.220478
C	 0.835440875	-0.7403441959	 1.0766527449	-0.248766
C	-1.2992351029	-0.8448377104	 0.0493822401	 0.505785
C	-2.5337331572	-0.7960006339	 0.8221391088	-0.315736
O	-2.4927379691	-0.41260365	-0.572200544	-0.310256
H	 0.9228508192	 1.9437843352	-0.1911577189	 0.115468
H	-0.7832080861	 1.8937907529	-0.6778393071	 0.130193
H	-0.3451971599	 1.8876170795	 1.0378913051	 0.112733
H	-0.2420535121	-0.457465963	-2.140566148	 0.113139
H	 1.3702534442	-0.9623879275	-1.5230780664	 0.085491
H	-0.8472291145	-2.8219831964	-1.0373563354	 0.068951
H	 0.0477663413	-2.7884420652	 1.4738737525	 0.09718
H	 1.426644618	-2.7700698947	 0.3668957683	 0.099277
H	 1.8976028568	-0.4901734245	 0.9943854214	 0.096646
H	 0.5164893073	-0.5101252467	 2.0980668172	 0.094186
H	-3.0873394209	-1.710664282	 1.0312537948	 0.114503
H	-2.715899335	 0.0225678513	 1.5175833688	 0.113328
156.9996	196.8181	199.806	242.972	261.6632	342.8506	403.2005	420.875	566.0272	600.9242	607.9602	683.8931	796.0442	833.7506	852.4951	882.1579	906.333	914.3231	929.6511	958.536	988.3404	996.8562	1031.9386	1069.7904	1089.5748	1113.9517	1136.1502	1153.0047	1161.3823	1178.6131	1227.083	1233.7874	1253.4657	1259.5073	1269.7394	1312.9789	1351.8051	1412.7298	1446.7714	1487.6485	1490.7254	1492.8542	1498.1162	1515.239	1547.5408	3025.8959	3043.7776	3052.7325	3057.389	3079.1233	3081.2524	3086.5066	3102.782	3105.4468	3124.6577	3128.7981	3163.4408
CC12CC(CC1)C21CO1	C[C@@]12C[C@@H](CC1)[C@]12CO1	
InChI=1S/C8H12O/c1-7-3-2-6(4-7)8(7)5-9-8/h6H,2-5H2,1H3	InChI=1S/C8H12O/c1-7-3-2-6(4-7)8(7)5-9-8/h6H,2-5H2,1H3/t6-,7+,8+/m1/s1
