19
gdb 115763	3.90455	0.84983	0.74488	2.0884	77.03	-0.2505	0.0416	0.2921	1503.4792	0.157729	-422.963756	-422.954189	-422.953244	-422.999218	34.446	
O	-0.02868059	 1.4756181548	-0.398699551	-0.427129
C	 0.0435201922	 0.1975022648	 0.2011837829	-0.062099
C	-1.312275937	-0.4870344037	 0.099051391	 0.088562
O	-1.6965657953	-0.5820443288	-1.2988090951	-0.305759
C	-1.6901740053	-2.0278764272	-1.2525690233	-0.077146
C	-1.4346427358	-2.0253385728	 0.2687700701	-0.051354
C	-0.2476413549	-2.8382157379	 0.8031955506	-0.389373
C	-0.4914393405	-4.2734764332	 0.708248617	 0.288567
C	-0.7231578743	-5.4487931762	 0.6107268802	-0.425771
H	-0.4122577632	 1.3306085519	-1.2732242807	 0.293566
H	 0.8213690158	-0.4196834375	-0.275527136	 0.082397
H	 0.3261771642	 0.346106533	 1.249529033	 0.108074
H	-2.0505729463	 0.1009220295	 0.6581858946	 0.087159
H	-2.6421242553	-2.4495820437	-1.5906666777	 0.11314
H	-0.8778536161	-2.4563468011	-1.8542394923	 0.106081
H	-2.3288500886	-2.2955564481	 0.8340824561	 0.099174
H	 0.6650884209	-2.590949768	 0.2480868741	 0.136503
H	-0.0548060535	-2.567308876	 1.8493671159	 0.136628
H	-0.9129308071	-6.49060802	 0.5326619206	 0.19878
51.8562	67.584	101.0131	116.8406	183.1643	271.3156	335.216	353.8372	452.2244	470.7115	480.9506	534.4341	625.6739	645.4685	779.1065	836.075	871.3637	898.0381	938.4927	966.2439	1013.0795	1044.7659	1078.5871	1084.6323	1121.9428	1145.1046	1159.0577	1214.4565	1240.9979	1251.7148	1290.8133	1320.5623	1341.761	1357.3836	1391.9438	1403.8398	1438.4587	1471.453	1499.8632	1526.8115	2239.2565	2977.2785	3015.5308	3023.838	3030.5626	3056.4443	3068.9959	3070.1119	3094.0993	3506.5128	3775.6348
OCC1OCC1CC#C	OC[C@H]1OC[C@H]1CC#C	
InChI=1S/C7H10O2/c1-2-3-6-5-9-7(6)4-8/h1,6-8H,3-5H2	InChI=1S/C7H10O2/c1-2-3-6-5-9-7(6)4-8/h1,6-8H,3-5H2/t6-,7-/m1/s1
