14
gdb 129556	3.30369	1.14323	1.06132	5.1412	68.22	-0.2717	-0.0392	0.2325	1141.466	0.102176	-432.856259	-432.848298	-432.847354	-432.889772	28.321	
N	 0.0149915363	 1.4674570893	 0.0712599891	-0.490714
C	-0.0461167031	 0.0060154934	-0.0219091578	-0.249525
C	-1.4533005674	-0.4283139196	 0.0667866977	 0.309299
N	-2.5498655908	-0.7836331636	 0.1315370231	-0.308251
C	 0.6105239422	-0.5904400268	-1.2428504835	 0.449697
C	 1.607012089	-1.4983946019	-1.4169159426	-0.352352
C	 1.7574967354	-1.5492852206	-2.8296435131	 0.043199
N	 0.9310195694	-0.7424065007	-3.4462743723	-0.125595
O	 0.1950841743	-0.1296140961	-2.4349545609	-0.21219
H	 0.9888584987	 1.7573816225	 0.0653330494	 0.246026
H	-0.4184178571	 1.8769469452	-0.7517817702	 0.25923
H	 0.4695253191	-0.408260817	 0.8521123982	 0.153467
H	 2.1451616732	-2.0484980558	-0.6633080307	 0.133048
H	 2.4420364607	-2.1453616682	-3.4163609465	 0.144662
42.8972	102.8785	178.0363	207.3397	262.3835	338.3855	399.4021	470.2561	587.5999	646.8543	714.6374	748.6232	819.6662	879.336	905.7132	920.2644	933.6894	946.6165	1016.439	1051.6969	1115.9524	1193.7604	1213.8527	1245.1348	1297.1518	1389.5492	1397.4451	1505.0347	1629.3319	1661.8645	2369.5825	3056.7951	3248.1852	3281.8465	3494.4843	3577.6033
NC(C#N)C1=CC=NO1	N[C@@H](C#N)c1ccno1	
InChI=1S/C5H5N3O/c6-3-4(7)5-1-2-8-9-5/h1-2,4H,7H2	InChI=1S/C5H5N3O/c6-3-4(7)5-1-2-8-9-5/h1-2,4H,7H2/t4-/m0/s1
