22
gdb 62642	2.7279	1.6508	1.19791	1.828	87.08	-0.2245	0.0833	0.3077	1124.9033	0.192697	-367.125978	-367.116999	-367.116055	-367.158892	35.42	
C	-0.0726263255	 1.6385292078	 0.1853462757	-0.45598
C	-0.1890544591	 0.1133473071	 0.1915480149	 0.329994
C	-1.6229262775	-0.3171016832	-0.100282413	-0.477155
C	 0.9762719058	-0.6431590532	-0.4889761239	-0.097976
N	 1.9507876171	-0.2261987803	 0.6465329886	-0.163098
C	 2.4096868107	-1.6659923186	 0.7716071193	-0.220838
C	 0.932542061	-1.8921447425	 0.466892111	 0.30864
C	 0.2438780205	-3.2312653211	 0.3501170125	-0.530926
C	 0.5992043289	-0.6069658909	 1.3110235512	-0.097934
H	 0.9498996306	 1.9573999136	 0.3929869145	 0.14385
H	-0.3742674299	 2.0429816142	-0.787929759	 0.107008
H	-0.7358677514	 2.0775697479	 0.939799007	 0.107012
H	-1.9435955636	 0.0655224174	-1.0761449019	 0.116538
H	-1.7596121737	-1.3989038726	-0.1074079838	 0.116881
H	-2.3051968614	 0.0998752114	 0.649500999	 0.116533
H	 1.3115381169	-0.6171187646	-1.5301093569	 0.06973
H	 3.1442117982	-1.9583439539	 0.0119627421	 0.092954
H	 2.775532582	-1.9228995322	 1.7727098522	 0.092947
H	 0.3498798416	-3.7914225597	 1.2863956705	 0.122292
H	-0.8222572803	-3.1592306487	 0.1257975635	 0.127508
H	 0.7113010854	-3.826775464	-0.4426684837	 0.122286
H	 0.4889181936	-0.5379961636	 2.3973561	 0.069735
114.9414	160.2428	176.1208	230.335	233.4095	306.2202	316.8674	342.1309	362.7588	473.5929	519.8782	608.5595	657.7158	724.4802	820.3062	834.1273	858.2504	862.7987	900.3167	942.9209	949.6936	966.602	1008.2961	1015.2379	1057.0033	1078.5657	1107.0986	1121.0365	1154.8817	1180.0141	1185.3181	1209.2596	1229.2653	1233.6359	1263.2287	1325.7045	1357.5213	1397.1911	1406.7039	1421.5986	1479.2023	1481.9118	1490.546	1492.2741	1507.9329	1512.5257	1521.5299	3020.676	3026.2666	3030.169	3033.6979	3066.6472	3074.1987	3076.5218	3080.5021	3086.3401	3087.0798	3119.6244	3137.9688	3144.7265
CC1(C)C2N3CC2(C)C13	CC1(C)[C@H]2N3C[C@@]2(C)[C@H]13	
InChI=1S/C8H13N/c1-7(2)5-8(3)4-9(5)6(7)8/h5-6H,4H2,1-3H3	InChI=1S/C8H13N/c1-7(2)5-8(3)4-9(5)6(7)8/h5-6H,4H2,1-3H3/t5-,6+,8-
