16
gdb 55074	2.36929	1.33182	0.99824	5.9481	66.24	-0.2592	0.0063	0.2655	1183.7801	0.122572	-475.054975	-475.045775	-475.044831	-475.089978	32.368	
N	 0.3578670153	 0.6739194308	-0.5776752417	-0.512796
C	 0.0288744414	-0.243650844	 0.369412397	 0.397866
O	 0.7569545437	-0.5268440202	 1.3022610849	-0.365907
C	-1.3308359978	-0.8898377154	 0.212392624	-0.160569
C	-1.8979220394	-1.3244939235	-1.1223005281	-0.337408
C	-1.406731647	-2.3512082463	-0.1493000766	 0.114701
O	-0.2320432497	-3.0254736806	-0.5307102409	-0.196388
C	 0.5741281077	-3.4613936429	 0.4797320282	 0.18043
O	 1.5485326843	-4.1110243558	 0.2594450582	-0.272048
H	 1.2461823979	 1.1427989385	-0.5044931547	 0.268966
H	-0.2722779731	 0.9279676926	-1.3169469296	 0.265907
H	-2.0313924613	-0.5612693037	 0.9745600512	 0.128668
H	-2.9636738403	-1.2370629602	-1.2990941171	 0.128644
H	-1.2742158044	-1.1901100786	-1.9996156966	 0.137706
H	-2.1271754148	-2.9788620493	 0.367274128	 0.115436
H	 0.2226397475	-3.1468059212	 1.4751363138	 0.106792
38.7377	83.1186	141.5238	171.4988	193.9599	225.6758	263.9778	369.7426	475.8966	488.7944	535.7958	597.4506	661.4719	735.042	783.4123	826.5704	888.5794	996.043	1023.9634	1033.4917	1073.3274	1089.0979	1096.0289	1125.7894	1140.1486	1172.0654	1231.3582	1318.1732	1382.457	1406.6917	1432.4843	1479.5965	1612.8344	1786.2369	1872.4214	3023.2802	3138.7553	3147.1972	3159.0961	3229.1591	3605.7712	3746.0346
NC(=O)C1CC1OC=O	NC(=O)[C@H]1C[C@H]1OC=O	
InChI=1S/C5H7NO3/c6-5(8)3-1-4(3)9-2-7/h2-4H,1H2,(H2,6,8)	InChI=1S/C5H7NO3/c6-5(8)3-1-4(3)9-2-7/h2-4H,1H2,(H2,6,8)/t3-,4+/m0/s1
