14
gdb 9120	3.68741	1.03745	0.81783	2.814	70.46	-0.2573	-0.102	0.1553	1341.7348	0.10384	-382.532021	-382.522977	-382.522033	-382.568512	29.425	
C	-0.1328761674	 1.6010731751	-0.2453733352	-0.369284
C	-0.0418245174	 0.0661920075	-0.1713030464	-0.328223
C	 0.7410833831	-0.519988485	-1.2474422731	 0.097479
C	 1.3944068629	-0.99133417	-2.1478778886	 0.073145
C	 2.1714117457	-1.5401501119	-3.2203518737	 0.110134
O	 2.3940631098	-2.722106232	-3.3893602373	-0.260922
C	 2.7630149251	-0.5409739619	-4.2281854416	 0.082943
O	 2.6155134247	 0.6484727765	-4.1710832754	-0.216744
H	 0.8609710502	 2.0522532297	-0.1927501246	 0.13982
H	-0.5988567389	 1.9179325874	-1.1816039012	 0.139813
H	-0.731548241	 1.9813667371	 0.5867736694	 0.123796
H	 0.3974476713	-0.2418045054	 0.7865014648	 0.149191
H	-1.0470023889	-0.374717475	-0.1919278599	 0.149188
H	 3.3465401307	-1.0572322919	-5.0195478672	 0.109664
9.8698	59.9502	114.665	130.7615	174.7826	228.9018	271.3903	393.5998	478.7305	502.7067	607.2051	618.2033	708.5858	777.2301	916.1774	1028.4433	1040.1921	1084.9289	1096.7608	1253.6428	1279.0426	1345.2403	1363.8221	1412.1692	1457.927	1494.3698	1503.2957	1749.136	1833.2355	2329.9371	2926.8618	3024.0323	3051.6821	3052.5499	3127.5714	3132.8242
CCC#CC(=O)C=O	CCC#CC(=O)C=O	
InChI=1S/C6H6O2/c1-2-3-4-6(8)5-7/h5H,2H2,1H3	InChI=1S/C6H6O2/c1-2-3-4-6(8)5-7/h5H,2H2,1H3
