16
gdb 39065	2.72533	2.03632	1.37158	0.7639	68.5	-0.2362	0.0144	0.2506	916.5091	0.126114	-437.849565	-437.842863	-437.841919	-437.88061	26.63	
C	 0.0653830044	 1.494581134	 0.1010334104	-0.394994
C	 1.2955817778	 0.6182145771	-0.1000836464	 0.008885
O	 2.2122217638	 0.3960230331	 0.9533777676	-0.224744
C	 1.9719694568	-0.662777247	 1.774611153	 0.129857
N	 0.9244933879	-1.3582574319	 1.9244141186	-0.27025
C	-0.2454338971	-0.9850968425	 1.1653552163	-0.100859
C	-0.7178369324	-1.9104403226	 0.0099135524	-0.094082
O	-0.7102641683	-0.7922661788	-0.9237385057	-0.31614
C	-0.0547178662	 0.0127854545	 0.0403812026	 0.410769
H	-0.0948122543	 1.9830500175	 1.0577313563	 0.130234
H	-0.2303451571	 2.0732594993	-0.7680718172	 0.135465
H	 1.7974287549	 0.6647488089	-1.0600329999	 0.122561
H	 2.8604635273	-0.8647364603	 2.3689023097	 0.130452
H	-1.058206135	-0.7450390302	 1.8582502723	 0.101157
H	 0.0166208501	-2.6754306488	-0.2637295604	 0.115541
H	-1.7135080626	-2.3518932725	 0.0995079803	 0.116148
123.5828	192.3104	287.6249	360.7976	424.2552	493.8889	523.6529	572.2869	591.2135	765.9159	794.2951	856.6555	878.2819	923.3589	964.4784	974.803	985.2902	1016.2229	1027.8426	1074.4743	1078.7689	1089.4474	1103.7068	1152.7162	1178.4001	1224.9157	1257.6931	1321.244	1327.1181	1379.7445	1398.5188	1417.3905	1475.5452	1518.32	1710.2404	3042.8266	3052.7938	3108.1581	3124.8682	3168.0717	3177.916	3217.913
C1C2OC=NC3COC123	C1[C@H]2OC=N[C@@H]3CO[C@]123	
InChI=1S/C6H7NO2/c1-5-6(1)4(2-9-6)7-3-8-5/h3-5H,1-2H2	InChI=1S/C6H7NO2/c1-5-6(1)4(2-9-6)7-3-8-5/h3-5H,1-2H2/t4-,5-,6+/m1/s1
