17
gdb 74723	2.47235	1.77238	1.22765	3.9356	78.3	-0.2463	-0.0052	0.2411	1030.542	0.136991	-380.836069	-380.828313	-380.827369	-380.86819	30.055	
C	-0.055669186	 1.4573994057	 0.0422065724	-0.518362
C	-0.0319124455	-0.0265444728	-0.0245946378	 0.356593
C	-0.0324530506	-0.9060342898	-1.0282021022	-0.182156
C	 0.0389004062	-2.2553363816	-0.3081182964	-0.070569
C	-1.0310149227	-2.057413125	 0.8101747672	-0.25027
C	 0.038037543	-0.9785648646	 1.2016008123	 0.123008
N	 1.1310104381	-1.932339747	 0.7149385361	-0.332854
C	 0.1378565647	-0.414939147	 2.529825415	 0.155435
N	 0.2003470414	 0.0307103437	 3.5946770955	-0.344006
H	 0.8419542635	 1.8445844796	 0.5393078887	 0.150151
H	-0.1087730301	 1.8922516639	-0.9590594747	 0.132287
H	-0.9134202747	 1.8201759308	 0.6216296788	 0.140838
H	-0.0526769883	-0.7403712933	-2.0950593097	 0.114552
H	 0.138659855	-3.1722531192	-0.8851030211	 0.084765
H	-2.0301884653	-1.7122610378	 0.5333922984	 0.112017
H	-1.0783675723	-2.8823542251	 1.5276635661	 0.110987
H	 1.1606667935	-2.7104137504	 1.3829483814	 0.217583
129.2825	140.0192	177.0037	208.0172	306.7195	488.2532	510.0923	521.0557	531.9725	571.586	599.5657	647.055	782.9417	804.6063	839.7402	898.7642	924.5227	932.5315	953.4584	1010.9657	1033.1494	1066.793	1082.3047	1121.5322	1179.025	1201.9975	1228.5065	1253.7198	1255.6857	1291.637	1348.6922	1416.8847	1475.2188	1481.2219	1498.7901	1698.8412	2356.1602	3024.7446	3049.0181	3073.5324	3118.7671	3119.7154	3147.5194	3243.976	3386.5077
CC1=CC2CC1(N2)C#N	CC1=C[C@@H]2C[C@]1(N2)C#N	
InChI=1S/C7H8N2/c1-5-2-6-3-7(5,4-8)9-6/h2,6,9H,3H2,1H3	InChI=1S/C7H8N2/c1-5-2-6-3-7(5,4-8)9-6/h2,6,9H,3H2,1H3/t6-,7+/m1/s1
