18
gdb 28337	3.1348	1.33961	0.94952	3.9721	85.43	-0.205	-0.0275	0.1775	1234.4436	0.148634	-402.042954	-402.034355	-402.033411	-402.076069	32.251	
C	-0.0143492299	 1.5324870341	 0.0592178025	-0.49266
C	-0.0058268326	 0.0381687263	-0.0650299124	 0.396489
C	-0.0858339287	-0.6488673959	-1.2390029572	-0.239562
C	-0.0666628582	-2.0723801467	-1.2123869111	-0.137662
C	 0.0292040462	-2.7851990637	-0.0528002242	 0.122174
C	 0.0525926656	-4.2830275688	 0.0174021133	-0.472229
C	 0.1163809555	-2.076805238	 1.2185038265	 0.374174
O	 0.205849204	-2.5926815041	 2.3241548878	-0.398383
N	 0.0902044483	-0.6781765196	 1.0966765602	-0.419979
H	 0.9039074784	 1.8964648081	 0.5353728232	 0.142024
H	-0.0954227912	 1.9977949677	-0.9243706923	 0.143309
H	-0.8576786419	 1.8751891695	 0.6705515176	 0.141967
H	-0.1627365025	-0.1117038801	-2.1748901664	 0.097892
H	-0.1311948144	-2.6082622121	-2.1560972539	 0.099569
H	 0.9704088803	-4.6356160097	 0.5006468999	 0.140281
H	-0.773563419	-4.6566439146	 0.6323045111	 0.140288
H	-0.0172078004	-4.7291721366	-0.9779306184	 0.11006
H	 0.1511537705	-0.1948811657	 1.9831991737	 0.252248
113.3188	134.7996	147.4665	176.6203	276.2126	304.1599	323.2806	429.3345	452.8985	532.9903	579.7769	604.4556	703.3543	731.037	749.614	791.9128	800.9721	943.1777	958.2387	1029.0086	1037.6969	1062.9427	1069.3955	1134.8355	1163.1897	1219.3736	1256.4794	1355.6902	1404.2484	1415.2858	1416.2099	1468.9164	1470.1909	1478.8985	1487.574	1506.8537	1621.7381	1674.1477	1761.9274	3027.6989	3033.958	3078.7774	3086.0119	3119.7576	3137.7002	3160.4791	3217.7447	3592.6506
CC1=CC=C(C)C(=O)N1	Cc1ccc(C)c(=O)[nH]1	
InChI=1S/C7H9NO/c1-5-3-4-6(2)8-7(5)9/h3-4H,1-2H3,(H,8,9)	InChI=1S/C7H9NO/c1-5-3-4-6(2)8-7(5)9/h3-4H,1-2H3,(H,8,9)
