19
gdb 85535	2.34697	1.7131	1.15709	4.3844	75.27	-0.2591	0.0164	0.2755	1097.2505	0.160213	-423.066525	-423.058469	-423.057524	-423.099118	31.303	
C	-0.3110883407	 1.4171903938	 0.0077765797	-0.389449
C	-0.0056496225	-0.0656579108	 0.1671307803	 0.107662
O	 0.4972244626	-0.5051249086	-1.1147066644	-0.23778
C	 1.1117352005	-1.7049939629	-1.2759409244	 0.396925
O	 1.3912383798	-2.0731224018	-2.3838215072	-0.325151
C	 1.4226692278	-2.5071794021	-0.0212743381	-0.356887
C	 1.7196231404	-1.6575367795	 1.1980259026	-0.048225
C	 2.4497181592	-0.3422154399	 1.0479930154	-0.303901
C	 0.9614586039	-0.3660286913	 1.2949168325	-0.025911
H	 0.6097801634	 1.9775501462	-0.1759771578	 0.132103
H	-0.9912706984	 1.5781461473	-0.8322567132	 0.13266
H	-0.7802108414	 1.8048721365	 0.9170348416	 0.117499
H	-0.9438998175	-0.6086294925	 0.3551171057	 0.089761
H	 0.5508338062	-3.1455706855	 0.1800645953	 0.1332
H	 2.247202932	-3.1767169215	-0.2784627959	 0.138974
H	 1.8947279262	-2.2169639059	 2.1114562996	 0.093287
H	 3.0902269367	-0.0239804354	 1.8623400146	 0.116345
H	 2.8052677135	-0.0559900358	 0.0638734144	 0.136111
H	 0.6034976083	-0.0465415903	 2.2688806394	 0.092778
93.3927	121.6528	219.5246	248.3205	292.3665	328.3256	434.079	461.18	516.7259	559.7356	619.3894	688.75	763.0467	795.2193	834.6719	864.0184	913.0518	968.9776	1000.6923	1026.8952	1036.6161	1070.9061	1090.046	1100.1617	1123.2543	1141.1835	1173.0067	1210.2955	1216.0865	1253.3665	1332.3234	1353.763	1374.805	1385.7244	1410.218	1422.6219	1468.6083	1485.5608	1496.3076	1498.7349	1846.1945	2991.8244	3020.7844	3046.7788	3099.7758	3121.664	3130.1655	3138.5782	3151.3362	3160.6639	3224.0819
CC1OC(=O)CC2CC12	C[C@H]1OC(=O)C[C@H]2C[C@@H]12	
InChI=1S/C7H10O2/c1-4-6-2-5(6)3-7(8)9-4/h4-6H,2-3H2,1H3	InChI=1S/C7H10O2/c1-4-6-2-5(6)3-7(8)9-4/h4-6H,2-3H2,1H3/t4-,5-,6+/m1/s1
