22
gdb 94584	3.11536	0.91622	0.83349	3.4062	84.63	-0.2397	0.0353	0.275	1509.8956	0.193265	-404.383241	-404.37298	-404.372036	-404.419957	36.932	
C	-0.083528246	 1.532590246	 0.0563942946	-0.402183
C	 0.0550807559	 0.0131033299	 0.0610636443	-0.001355
C	 1.1151652094	-0.532085541	-0.9427425737	-0.224411
C	 2.1365899895	-0.6409195412	 0.2227673842	-0.250302
C	 0.9452719459	-0.5695256209	 1.2120568743	 0.067726
N	 1.1035139899	 0.1601219791	 2.4434331943	-0.327667
C	 0.7219201417	-0.3317321827	 3.6633834276	 0.405963
C	 0.9577412407	 0.6050630555	 4.8395305358	-0.485542
O	 0.2262016073	-1.4342310802	 3.8086398463	-0.372415
H	 0.8918022369	 2.0344909428	 0.0799565477	 0.103856
H	-0.5966308167	 1.8690601276	-0.8503896606	 0.119914
H	-0.6615062037	 1.8825579726	 0.9181459916	 0.117281
H	-0.9374302953	-0.4414323856	-0.0099481898	 0.074079
H	 0.8418255925	-1.5112955353	-1.3436345415	 0.105975
H	 1.380780329	 0.1225701607	-1.7764982457	 0.096352
H	 2.7765926053	-1.5247606378	 0.271970777	 0.105673
H	 2.7730394618	 0.2475778476	 0.2898984653	 0.093545
H	 0.6003120296	-1.5642199194	 1.4966303327	 0.122553
H	 1.50011733	 1.0844143738	 2.4025670616	 0.238736
H	-0.0089989001	 0.8722526733	 5.2758095422	 0.151621
H	 1.5230416198	 0.0689346205	 5.6056034369	 0.152575
H	 1.4915497665	 1.5221316248	 4.5759961549	 0.108028
38.1789	44.6826	84.3218	100.5322	191.401	237.1023	245.1613	336.5173	362.1933	398.2511	462.3871	531.0073	586.9467	634.604	689.6329	780.8599	817.3688	882.5142	907.1034	940.8957	959.403	969.2913	998.5409	1024.4064	1049.8224	1078.1621	1125.8277	1166.7249	1186.1399	1214.8351	1241.8363	1260.5367	1266.8449	1280.5934	1295.3233	1361.9426	1370.7828	1395.8721	1408.7291	1470.0788	1479.5977	1486.7767	1497.2977	1498.592	1500.0327	1533.4777	1780.6335	3021.6786	3048.0691	3049.1777	3053.4312	3064.3154	3087.554	3099.6566	3100.4651	3113.6299	3122.5736	3123.9066	3132.1345	3642.9868
CC1CCC1NC(C)=O	C[C@H]1CC[C@H]1NC(=O)C	
InChI=1S/C7H13NO/c1-5-3-4-7(5)8-6(2)9/h5,7H,3-4H2,1-2H3,(H,8,9)	InChI=1S/C7H13NO/c1-5-3-4-7(5)8-6(2)9/h5,7H,3-4H2,1-2H3,(H,8,9)/t5-,7+/m0/s1
