17
gdb 90075	2.59924	1.82786	1.53492	1.8214	69.06	-0.2361	0.0572	0.2934	921.5789	0.1347	-458.826657	-458.819167	-458.818222	-458.857948	30.749	
O	 0.2896743666	 1.3448963817	-0.3110921847	-0.423478
C	 0.0861910467	-0.0000306437	-0.0280027372	 0.080342
C	 0.1731695531	-0.449062584	 1.5137352812	-0.371353
C	-1.3506701766	-0.5044225462	 1.4638174986	 0.331021
C	-2.8215353694	-0.9765064759	 1.5860997318	-0.323125
C	-2.7009044602	 0.0853606314	 0.4156019857	-0.028443
O	-1.8677931792	 0.9053509925	 1.3005257933	-0.353259
C	-1.393136552	-0.6199827603	-0.0623798998	 0.295445
O	-1.4629870201	-1.8978343017	-0.6254104672	-0.458191
H	-0.3805831228	 1.809465862	 0.2100094252	 0.287847
H	 0.751115723	-0.5781574326	-0.6744344395	 0.092158
H	 0.6308851611	-1.435839419	 1.6121583	 0.125674
H	 0.6275141738	 0.255315618	 2.2140407588	 0.119226
H	-3.0217562878	-2.0110058598	 1.3066737507	 0.128114
H	-3.3894291965	-0.6363438736	 2.4534042239	 0.113564
H	-3.5133216742	 0.5862439024	-0.1190803775	 0.093356
H	-1.4448169957	-1.8027282912	-1.5837646334	 0.291101
182.7417	235.3152	249.3571	280.4477	333.5391	383.7824	451.5625	488.7383	558.529	602.7337	613.6947	669.7392	709.4494	773.6508	783.8415	844.792	896.5481	908.843	957.9688	1015.1165	1028.6776	1078.3824	1085.7073	1122.1082	1156.9253	1164.623	1168.395	1196.5704	1211.1134	1225.5398	1246.1849	1274.7629	1315.0789	1372.9705	1445.2972	1460.9574	1476.387	3068.9658	3070.8586	3083.2111	3086.2959	3138.422	3166.7391	3737.6961	3804.0109
OC1CC23CC(O2)C13O	O[C@H]1C[C@@]23C[C@@H](O2)[C@@]13O	
InChI=1S/C6H8O3/c7-3-1-5-2-4(9-5)6(3,5)8/h3-4,7-8H,1-2H2	InChI=1S/C6H8O3/c7-3-1-5-2-4(9-5)6(3,5)8/h3-4,7-8H,1-2H2/t3-,4+,5-,6-/m0/s1
