19
gdb 83207	2.54944	1.49148	1.23471	4.5672	79.	-0.2417	0.0304	0.2722	1086.1763	0.161382	-382.071724	-382.063431	-382.062487	-382.104539	31.683	
C	 0.0191508019	 1.5854729954	-0.3969625167	-0.4273
C	 0.0467315192	 0.1052644168	-0.0724513019	-0.004029
C	 1.2169420275	-0.8263628952	-0.2979020704	-0.068009
C	 2.6179960297	-0.2504864402	-0.4164431369	-0.182095
N	 2.7307323445	 0.6776411953	 0.7173333884	-0.302903
C	 1.8824359147	 0.1917011317	 1.8103633259	-0.14063
C	 1.4525856233	 1.3037978776	 2.6774787255	 0.295213
N	 1.1224294659	 2.1543837631	 3.3864332543	-0.331623
C	 0.737715436	-0.537651119	 1.110538264	-0.059568
H	 0.9795793842	 2.0655928554	-0.207635641	 0.151319
H	-0.2412481533	 1.7336604769	-1.4508880477	 0.111632
H	-0.7402211	 2.0939201215	 0.2059137335	 0.128915
H	-0.9033680367	-0.3834972123	-0.2803542161	 0.091046
H	 1.0394004946	-1.789157853	-0.7629528697	 0.091049
H	 3.344862754	-1.0784212069	-0.376545158	 0.093227
H	 2.7885289094	 0.2936530369	-1.3534239446	 0.112591
H	 3.6841518171	 0.8476593732	 1.0094705257	 0.233936
H	 2.3863565356	-0.5382086449	 2.4682597161	 0.107915
H	 0.2026056124	-1.2687717025	 1.7041657698	 0.099314
86.4269	149.2233	193.0044	200.339	251.392	274.3681	416.7785	475.634	500.4489	536.7879	634.2697	673.0879	742.1395	775.8775	844.1354	873.7318	937.65	970.7677	978.0979	1019.1676	1030.0227	1058.1448	1080.5099	1107.0952	1130.5895	1141.1554	1147.9063	1219.8261	1239.6155	1269.7137	1326.7446	1346.1127	1359.6988	1375.0789	1418.7116	1443.1006	1450.6974	1499.1362	1508.4644	1523.0852	2358.0526	2938.7098	2964.0762	3037.0824	3040.2628	3093.8696	3118.6072	3148.9312	3173.8957	3186.3975	3569.9946
CC1C2CNC(C#N)C12	C[C@H]1[C@H]2CN[C@@H](C#N)[C@@H]12	
InChI=1S/C7H10N2/c1-4-5-3-9-6(2-8)7(4)5/h4-7,9H,3H2,1H3	InChI=1S/C7H10N2/c1-4-5-3-9-6(2-8)7(4)5/h4-7,9H,3H2,1H3/t4-,5+,6-,7-/m0/s1
