20
gdb 111983	3.28906	1.2326	1.02926	2.5269	80.14	-0.2259	0.0054	0.2313	1215.2795	0.171093	-403.12658	-403.117943	-403.116999	-403.159593	33.6	
C	 0.3334864201	 1.578365136	 0.5354010501	-0.48148
C	 0.0352399162	 0.1168822399	 0.3092470197	 0.308924
C	-0.8698369692	-0.6678324022	 1.1985926105	-0.288984
N	 0.5895051387	-0.8953050633	 1.2438549329	-0.166271
C	 1.0949647713	-2.0272199392	 0.418040393	-0.033419
C	 0.6138066406	-3.3724753357	 0.9637964837	-0.055836
O	 1.0614762509	-3.5782741668	 2.2896289288	-0.424429
C	 0.7091277789	-1.6857681229	-1.0053536551	-0.109997
C	 0.1550335237	-0.4756620307	-1.0617913499	-0.141401
H	 1.3325354859	 1.8372927958	 0.1693301884	 0.125066
H	-0.3932881337	 2.2071570639	 0.008881566	 0.118761
H	 0.2869463069	 1.8201156879	 1.6000578311	 0.129067
H	-1.2657634089	-0.2191872688	 2.1065932657	 0.112788
H	-1.5155670154	-1.4049770637	 0.7297681594	 0.116991
H	 2.1901146318	-2.0290001411	 0.5237630833	 0.098515
H	-0.4836752187	-3.4395807481	 0.8924443525	 0.084445
H	 1.0295954861	-4.1857795247	 0.3587844966	 0.10564
H	 0.8982087258	-2.754657683	 2.7641320611	 0.293996
H	 0.87850782	-2.3516561193	-1.8438100835	 0.103627
H	-0.183882371	 0.0368820259	-1.9543897744	 0.103998
100.2228	126.7795	184.4151	207.1392	276.5403	317.4142	383.4358	394.5748	425.212	499.0108	550.7914	625.6484	727.8891	759.6361	770.1863	785.2338	866.139	922.2211	951.5634	966.1113	1006.6564	1014.4145	1042.3917	1077.4425	1098.8196	1103.5784	1117.4574	1130.777	1171.0677	1221.513	1255.7942	1301.0553	1329.8577	1350.7709	1373.0926	1383.0632	1415.9277	1433.9389	1485.2855	1495.3604	1495.6297	1509.858	1670.1754	2974.8932	2994.1194	3033.49	3066.0136	3096.0204	3101.3882	3121.8799	3190.0805	3191.4231	3214.7559	3792.9312
CC12CN1C(CO)C=C2	C[C@]12CN1[C@@H](CO)C=C2	
InChI=1S/C7H11NO/c1-7-3-2-6(4-9)8(7)5-7/h2-3,6,9H,4-5H2,1H3	InChI=1S/C7H11NO/c1-7-3-2-6(4-9)8(7)5-7/h2-3,6,9H,4-5H2,1H3/t6-,7+,8?/m1/s1
