16
gdb 20936	7.46798	1.09671	0.97249	4.1136	67.92	-0.2014	0.0077	0.2091	1174.7414	0.13236	-376.097103	-376.089399	-376.088455	-376.129691	27.802	
C	-0.0664275349	 1.5474492568	 0.0081313813	-0.398675
C	-0.0407664781	 0.0269507762	 0.1201876367	-0.113197
N	-1.3460426125	-0.5346769355	-0.1910808727	-0.38175
C	-1.52436719	-1.9006611023	-0.0903557808	 0.381931
C	-0.6106540033	-2.9341547399	-0.1532112385	-0.178993
N	-1.393528866	-4.0455057953	-0.0464788861	-0.151794
N	-2.684766045	-3.7374443247	 0.0822739164	-0.114629
N	-2.7730050751	-2.4339101697	 0.0584287449	-0.277073
H	 0.9223074894	 1.9648669631	 0.2167186297	 0.122491
H	-0.3716252614	 1.8574883513	-0.9953346411	 0.133091
H	-0.7694017863	 1.9823134108	 0.7277339718	 0.12074
H	 0.6846740263	-0.3796160397	-0.5963665762	 0.108979
H	 0.3075422811	-0.2730159995	 1.1238951272	 0.093285
H	-2.1255200212	-0.0290907546	 0.2087197161	 0.24145
H	 0.4580468474	-2.9791054101	-0.2602926061	 0.135045
H	-1.1153629003	-5.0132614869	-0.0478720626	 0.279098
73.0894	89.4327	139.237	257.6711	339.0847	345.6663	435.7364	532.81	579.3377	675.2383	701.7758	750.4081	782.4393	822.4243	931.5951	989.6022	1037.6681	1061.9388	1097.7314	1140.6735	1155.5807	1176.6936	1270.4938	1292.6136	1307.7372	1355.8605	1393.7351	1416.6713	1461.507	1492.2414	1501.1599	1528.1026	1538.1995	1634.9682	2950.5682	3028.7946	3038.553	3105.5921	3124.1754	3298.6883	3580.1186	3663.5161
CCNC1=CNN=N1	CCNc1c[nH]nn1	
InChI=1S/C4H8N4/c1-2-5-4-3-6-8-7-4/h3H,2H2,1H3,(H2,5,6,7,8)	InChI=1S/C4H8N4/c1-2-5-4-3-6-8-7-4/h3H,2H2,1H3,(H2,5,6,7,8)
