24
gdb 9415	5.60517	0.71327	0.6661	0.9714	83.28	-0.2493	0.0828	0.332	1788.4206	0.221134	-351.405818	-351.394926	-351.393981	-351.442446	38.018	
C	-0.1780690201	 1.5065070841	 0.0943303737	-0.392461
C	 0.0209574809	-0.0078812087	-0.0236799955	-0.164739
C	 0.8181175438	-0.4665535181	-1.2608081845	 0.040057
C	 2.2673724245	 0.0437362476	-1.2292143775	-0.390937
C	 0.7491468004	-1.9992990875	-1.385028238	-0.195157
C	 1.3201233843	-2.5627018713	-2.6811628294	-0.063034
O	 1.0556695429	-3.9502105508	-2.7138769352	-0.229463
C	 1.5620813807	-4.5771063453	-3.8652956163	-0.225993
H	 0.7681195097	 2.039455329	 0.2285864311	 0.117445
H	-0.6634028887	 1.9121057735	-0.8008846952	 0.112116
H	-0.8124685856	 1.7495452804	 0.952608653	 0.111986
H	 0.5186759057	-0.3848645142	 0.8806802161	 0.092107
H	-0.9638144844	-0.4914625951	-0.0488331066	 0.092127
H	 0.3261178951	-0.0358622855	-2.1467401526	 0.066795
H	 2.8178296999	-0.2347546411	-2.1325956667	 0.113716
H	 2.3101980363	 1.1336268577	-1.1503162616	 0.114022
H	 2.8063097905	-0.3741495089	-0.3699092508	 0.111822
H	 1.2697103984	-2.4655649218	-0.5383072936	 0.09928
H	-0.2966857531	-2.3226507551	-1.3215653064	 0.101413
H	 0.8563402944	-2.065089687	-3.5521943944	 0.079871
H	 2.4060710233	-2.3862967354	-2.7528588696	 0.084158
H	 1.1218186464	-4.1621774669	-4.7867008231	 0.10014
H	 2.6574983571	-4.4791873752	-3.939039463	 0.100306
H	 1.3077284375	-5.6381951944	-3.8014213739	 0.124424
54.4882	64.8968	95.6413	117.3145	127.8795	210.5768	233.8276	255.6653	261.5516	300.4204	332.8951	419.6201	465.4375	524.3003	772.7329	791.1991	834.4246	916.3835	962.5241	977.3921	993.3794	1032.5515	1036.9451	1072.1164	1149.9299	1161.8922	1172.2891	1181.136	1199.3744	1228.4226	1245.5011	1285.9121	1303.3517	1314.7554	1353.3976	1378.2043	1385.3095	1412.3337	1416.8534	1427.5924	1479.846	1481.7768	1485.2978	1491.4608	1497.3086	1500.3878	1504.9233	1508.8019	1513.546	1533.0294	2938.5842	2964.4394	2976.6648	2983.5406	3005.0805	3010.8494	3024.3179	3031.0101	3032.697	3044.9839	3067.8909	3096.5744	3097.2458	3103.7851	3109.6693	3112.2628
CCC(C)CCOC	CC[C@@H](C)CCOC	
InChI=1S/C7H16O/c1-4-7(2)5-6-8-3/h7H,4-6H2,1-3H3	InChI=1S/C7H16O/c1-4-7(2)5-6-8-3/h7H,4-6H2,1-3H3/t7-/m1/s1
