16
gdb 42271	3.46624	1.24791	1.00433	4.0548	77.98	-0.2381	-0.0263	0.2117	1162.1186	0.12345	-400.694833	-400.686644	-400.6857	-400.728176	30.331	
O	-0.1145987675	-0.0603480142	-0.0605767067	-0.359116
C	-0.1137837569	 1.1544420941	 0.0323889039	 0.251703
C	 1.1005286577	 1.9563279679	-0.0659342975	 0.237477
C	 2.1195170906	 2.5870562932	-0.1675856033	-0.427744
N	-1.2340797865	 1.8869015992	 0.2831584943	-0.079654
C	-1.5628757649	 3.3163772176	 0.1034349744	-0.191086
C	-3.0365156736	 2.9067400597	-0.058216174	-0.089213
C	-3.1824753086	 1.8838442636	-1.1582601777	-0.278373
C	-2.6168668914	 1.4579477377	 0.1666324237	-0.006055
H	 3.0288466601	 3.1297829136	-0.2570844797	 0.209102
H	-1.3638389534	 3.9005377954	 1.0070093739	 0.127033
H	-1.0815165263	 3.7945452244	-0.7557647096	 0.125649
H	-3.8735683418	 3.4419083885	 0.3660463823	 0.108409
H	-4.201356854	 1.5612655865	-1.3479558038	 0.125516
H	-2.5427463741	 1.9135818277	-2.0359431461	 0.122864
H	-3.0204342096	 0.6770366151	 0.796729046	 0.12349
67.3569	91.5498	124.6827	236.9474	276.4129	343.5971	449.8027	475.8534	542.4857	658.1429	665.3934	677.4943	753.8896	775.7413	792.994	827.7385	928.2099	950.8648	986.5431	1004.8778	1049.0043	1071.5519	1081.9084	1106.423	1151.9153	1188.6033	1209.5931	1264.9953	1307.8389	1355.5163	1423.9978	1476.2122	1509.7442	1742.768	2222.7372	3042.973	3093.2479	3118.6527	3206.7742	3211.1954	3225.7062	3496.3121
O=C(C#C)N1CC2CC12	O=C(C#C)N1C[C@H]2C[C@@H]12	
InChI=1S/C7H7NO/c1-2-7(9)8-4-5-3-6(5)8/h1,5-6H,3-4H2	InChI=1S/C7H7NO/c1-2-7(9)8-4-5-3-6(5)8/h1,5-6H,3-4H2/t5-,6-/m1/s1
