16
gdb 60781	2.19371	1.20892	0.94489	3.3757	78.5	-0.256	0.0056	0.2615	1271.8368	0.120491	-400.688011	-400.678075	-400.677131	-400.723387	34.971	
C	-0.0811651715	 1.4953825732	 0.0326207526	-0.352579
N	-0.0473474197	 0.0410198959	 0.0138242666	-0.011486
C	-0.0577179186	-0.671827832	 1.1810826827	 0.165179
O	-0.0940516401	-0.195671519	 2.2928627012	-0.334603
C	-0.0020936806	-0.6514236813	-1.2716745993	-0.404065
C	-1.2035394469	-0.3909526589	-2.0814228269	 0.358348
C	-2.1921974199	-0.1834744043	-2.7298429747	-0.43786
C	 1.2217929496	-0.3352510329	-2.0260946812	 0.358329
C	 2.2284156429	-0.0819154968	-2.6289824448	-0.437846
H	 0.8114585018	 1.9062768263	-0.4497290212	 0.139289
H	-0.9688901691	 1.8654210316	-0.4901448751	 0.139287
H	-0.1119482613	 1.804332317	 1.0768690518	 0.170085
H	-0.0283383095	-1.7639280113	 0.9945105963	 0.077006
H	 0.0172600304	-1.7253843927	-1.0371104491	 0.150024
H	-3.0659606299	-0.001948119	-3.3063978157	 0.210446
H	 3.1182759623	 0.1401197545	-3.1653407231	 0.210446
46.2042	102.702	123.5203	140.5981	149.3113	260.0855	312.404	330.2499	339.0523	345.5059	478.9384	511.3329	563.6508	648.4205	649.3926	672.5047	672.5458	761.0226	862.6766	942.1564	1021.6925	1026.4574	1081.5509	1163.7488	1252.9386	1283.6018	1290.8285	1424.1922	1439.1838	1446.5639	1494.5494	1517.4715	1803.7474	2240.9287	2245.4256	2931.2633	3007.1957	3040.2607	3099.6639	3166.0154	3499.5444	3500.2885
CN(C=O)C(C#C)C#C	CN(C=O)C(C#C)C#C	
InChI=1S/C7H7NO/c1-4-7(5-2)8(3)6-9/h1-2,6-7H,3H3	InChI=1S/C7H7NO/c1-4-7(5-2)8(3)6-9/h1-2,6-7H,3H3
