15
gdb 27959	2.93832	1.36667	0.93336	4.7621	80.14	-0.227	-0.0638	0.1632	1177.4788	0.114399	-416.883994	-416.876396	-416.875451	-416.916155	28.912	
N	-0.0148094679	 1.3762500803	 0.1586095966	-0.567313
C	 0.0237482181	 0.0036972982	 0.0602139504	 0.38504
N	-1.149977807	-0.6250023278	 0.0463473265	-0.365124
C	-1.1455368106	-1.9648630829	 0.0088478604	 0.224648
C	-2.4655319386	-2.6640087585	-0.0046062598	 0.104327
O	-3.5425129546	-2.1259803463	 0.0111674492	-0.250994
C	 0.0128490668	-2.7340516975	-0.0260415328	-0.19048
C	 1.2412803414	-2.0669771771	-0.0207937708	-0.062231
C	 1.2575554199	-0.6882423161	 0.0250946087	-0.178112
H	 0.7755204105	 1.8952148469	-0.1881312372	 0.253455
H	-0.917134599	 1.7809660576	-0.0415376683	 0.263616
H	-2.3723104338	-3.7745405591	-0.0327241587	 0.066722
H	-0.0452796163	-3.8158926866	-0.0605205758	 0.106348
H	 2.1727876701	-2.6224966469	-0.0500733843	 0.111901
H	 2.1921354608	-0.137428224	 0.0397655861	 0.098197
99.9557	188.9768	210.6912	232.0865	381.9658	409.9371	447.7648	453.5019	511.3903	568.7376	631.4366	675.2094	755.1405	768.401	816.5872	891.3632	981.7277	991.6443	996.8215	1030.4176	1099.0868	1126.3625	1188.1698	1219.1099	1341.9284	1363.0649	1434.203	1482.7567	1499.9517	1606.0686	1625.6	1652.0758	1820.0472	2862.3302	3175.0883	3188.9209	3201.0959	3583.5817	3702.2823
NC1=NC(C=O)=CC=C1	Nc1nc(C=O)ccc1	
InChI=1S/C6H6N2O/c7-6-3-1-2-5(4-9)8-6/h1-4H,(H2,7,8)	InChI=1S/C6H6N2O/c7-6-3-1-2-5(4-9)8-6/h1-4H,(H2,7,8)
