18
gdb 106566	2.00378	1.56389	1.16102	2.158	68.01	-0.2482	0.0551	0.3033	1118.6381	0.147233	-476.137917	-476.129137	-476.128193	-476.171472	33.32	
O	-0.0040052186	 1.3649816695	-0.0139109205	-0.415857
C	-0.0425007723	-0.0551425324	 0.0727666385	-0.227056
C	-1.4442751433	-0.5916327187	 0.105357779	 0.220753
N	-2.4432037712	-0.2994764912	-1.0141465343	-0.409893
C	-3.2057282642	-1.1693185462	-0.0208749698	-0.113426
C	-1.937738017	-2.0757840001	-0.0030332668	 0.162053
O	-1.6103121714	-2.8006098039	-1.1413722486	-0.455039
C	-2.5947377232	-0.3469612134	 1.131320392	 0.101136
O	-2.5694488488	-0.9488408727	 2.3980300334	-0.436259
H	-0.2591277122	 1.6057470782	-0.9101826455	 0.289235
H	 0.5122836452	-0.5280657329	-0.7507767889	 0.108396
H	 0.4680509166	-0.3218787673	 1.0052367883	 0.116176
H	-2.7717793715	 0.669247432	-0.9447994553	 0.209197
H	-4.2474262371	-1.4445712796	-0.1885110475	 0.087339
H	-1.7959148501	-2.7012719863	 0.8747911547	 0.107413
H	-1.7844056711	-2.2016039352	-1.8823125368	 0.28874
H	-2.9377586454	 0.6959411703	 1.1659864663	 0.075514
H	-2.0649782044	-0.3840820302	 2.9920677619	 0.291579
59.1173	144.5187	203.1967	226.3053	256.3113	279.9339	312.7503	361.0461	425.8229	490.7226	588.8803	600.7228	653.8659	715.0319	782.1341	831.6937	868.0927	901.8291	937.393	979.011	1035.0713	1070.6649	1087.8578	1132.9696	1140.0584	1169.1872	1180.4944	1195.0009	1217.2694	1239.6537	1280.2857	1299.0683	1324.6386	1340.597	1386.8152	1408.8403	1427.3973	1466.144	1487.7537	3001.4092	3017.1841	3067.9324	3115.6345	3161.9422	3382.4448	3732.0893	3820.3766	3820.8183
OCC12NC(C1O)C2O	OC[C@@]12N[C@@H]([C@H]1O)[C@H]2O	
InChI=1S/C5H9NO3/c7-1-5-3(8)2(6-5)4(5)9/h2-4,6-9H,1H2	InChI=1S/C5H9NO3/c7-1-5-3(8)2(6-5)4(5)9/h2-4,6-9H,1H2/t2-,3-,4-,5+/m1/s1
