19
gdb 48135	2.87617	1.28003	0.91873	3.8022	79.41	-0.2252	-0.0534	0.1719	1259.9036	0.1609	-419.230786	-419.222128	-419.221184	-419.264728	31.563	
N	 0.0648979101	 1.4760352163	 0.2991520499	-0.529664
C	 0.0866368349	 0.1949118316	 0.1418414117	 0.280115
C	-1.2932532934	-0.4133816855	 0.2170384169	 0.141389
O	-1.5682797946	-1.5857348431	 0.1617433254	-0.272708
N	 1.1696047217	-0.6089954031	-0.0439909977	-0.104794
C	 1.1702656917	-2.053838594	-0.3379279654	-0.145565
C	 2.5926659972	-2.3043206353	-0.8559810892	-0.223673
C	 3.4361425096	-1.280812511	-0.0821069125	-0.228334
C	 2.5218022158	-0.0500093123	-0.0248053815	-0.171385
H	 0.9959761204	 1.8893387304	 0.2550870276	 0.214218
H	-2.054106263	 0.379765384	 0.3481969495	 0.116775
H	 0.9671316502	-2.6375486133	 0.5682073937	 0.115585
H	 0.3997572783	-2.3101064504	-1.0640269093	 0.134211
H	 2.9135173578	-3.3365882471	-0.6997612407	 0.110315
H	 2.6412898651	-2.0964539721	-1.9305673972	 0.111122
H	 3.6351671403	-1.6442589388	 0.9316418655	 0.114544
H	 4.3966065115	-1.0613530976	-0.5530187769	 0.110421
H	 2.6803454924	 0.611905854	-0.8898296279	 0.111138
H	 2.6803852641	 0.5511508572	 0.8789176083	 0.11629
72.4621	84.5162	154.8617	194.3645	205.8996	256.3354	297.0246	443.2505	556.2321	564.5478	579.5527	689.887	766.9346	846.9102	874.7529	881.555	927.8385	933.4168	989.8053	997.7442	1047.4872	1050.0186	1143.8507	1172.5495	1182.9157	1202.0845	1244.2089	1260.4993	1273.8368	1326.5579	1349.2049	1365.2905	1379.9196	1386.8481	1453.8847	1490.8632	1498.0461	1515.247	1530.2441	1653.3892	1817.5697	2964.4599	2985.2248	3027.7402	3036.0027	3049.0517	3057.6471	3108.5383	3115.6875	3131.439	3488.6544
N=C(C=O)N1CCCC1	[NH][C](C=O)N1CCCC1	
InChI=1S/C6H10N2O/c7-6(5-9)8-3-1-2-4-8/h5,7H,1-4H2	InChI=1S/C6H10N2O/c7-6(5-9)8-3-1-2-4-8/h5,7H,1-4H2
