21
gdb 120164	3.38597	0.97542	0.88619	1.7196	80.35	-0.2325	0.0813	0.3138	1429.0733	0.180147	-424.160919	-424.151469	-424.150525	-424.195712	34.988	
C	 0.0095196066	 1.5448158934	 0.0245217641	-0.385913
C	-0.0676642596	 0.0512379775	 0.2878951716	-0.038584
O	-1.2458035873	-0.4537162665	-0.3241855228	-0.264213
C	-1.3881979594	-1.8342472125	-0.2180657998	 0.127746
C	-2.0828062501	-2.4997686622	 1.0129559243	 0.000046
C	-3.4196304337	-1.8533652707	 0.5963555578	-0.263333
C	-2.7404175071	-2.4408183708	-0.673363684	 0.356765
C	-3.2801561321	-2.6323470199	-2.054638531	-0.518616
O	-2.3746879876	-3.6442810786	 0.1264586311	-0.341957
H	 0.9101141691	 1.9658014226	 0.4813103343	 0.116741
H	 0.0388586785	 1.7434012997	-1.0505452076	 0.12802
H	-0.8627375546	 2.0546813136	 0.4433406437	 0.127239
H	 0.8156671983	-0.4628896114	-0.1241794983	 0.092588
H	-0.0847858176	-0.151568931	 1.370338205	 0.092504
H	-0.5072377272	-2.3854290706	-0.5722436849	 0.07571
H	-1.6969940927	-2.7266432	 2.006526097	 0.087903
H	-4.3121682644	-2.3870457152	 0.9265265793	 0.100125
H	-3.5054850691	-0.7680699345	 0.663772198	 0.107711
H	-3.4468801683	-1.6589042324	-2.52607277	 0.135293
H	-2.5720964743	-3.1982509224	-2.6677371546	 0.132116
H	-4.2302310974	-3.1741414281	-2.028292763	 0.132109
64.2087	70.6444	122.6154	181.102	228.6257	244.544	291.4879	338.5106	354.9374	447.331	562.9322	620.0452	651.483	723.4059	818.9901	846.3256	871.6919	905.925	909.0332	935.9252	980.328	1020.3163	1052.6156	1064.6022	1090.1109	1151.5299	1154.3675	1169.0035	1183.8413	1190.6374	1213.6881	1229.2387	1267.1149	1297.3982	1317.5255	1370.7539	1402.3815	1413.7399	1436.0705	1477.3352	1483.5319	1486.2738	1488.598	1499.4596	1528.1823	2969.738	2998.8671	3031.7566	3040.5283	3045.31	3077.4069	3115.1245	3117.0026	3119.9356	3121.8817	3122.6814	3156.571
CCOC1C2CC1(C)O2	CCO[C@H]1[C@H]2C[C@]1(C)O2	
InChI=1S/C7H12O2/c1-3-8-6-5-4-7(6,2)9-5/h5-6H,3-4H2,1-2H3	InChI=1S/C7H12O2/c1-3-8-6-5-4-7(6,2)9-5/h5-6H,3-4H2,1-2H3/t5-,6+,7+/m1/s1
