14
gdb 29470	3.39667	1.66407	1.1254	1.1247	69.09	-0.2227	-0.0099	0.2128	993.072	0.104479	-432.899369	-432.892682	-432.891738	-432.930291	26.15	
N	-0.0073708906	 1.3509515467	 0.1295242488	-0.574468
C	 0.020223266	-0.0109059459	 0.0390720729	 0.298714
N	-1.0412105833	-0.7599428292	 0.0158690089	-0.335925
C	-0.6310099443	-2.1782580626	-0.0119173441	-0.280646
C	 0.8594858617	-2.0925017577	-0.0172740328	 0.281217
C	 1.2532664075	-0.8040079308	 0.0144922877	 0.176026
N	 2.6370685751	-0.7230041488	 0.0082382902	-0.353396
C	 2.9911521996	-1.9698669684	-0.0245985705	 0.027367
O	 1.9592629711	-2.8820864497	-0.0410497503	-0.196125
H	 0.8071128565	 1.8498858756	-0.1891819157	 0.266233
H	-0.8951649449	 1.7862209863	-0.0690082172	 0.260458
H	-1.0317256494	-2.706658688	 0.8621558176	 0.138906
H	-1.0424256654	-2.6720086178	-0.9008865565	 0.13768
H	 3.9864725906	-2.3853690598	-0.0411912589	 0.153959
190.2047	211.3178	263.842	303.6762	408.4199	490.4088	507.2906	615.8664	631.7085	637.8417	665.6001	772.5465	801.7552	811.7221	939.9555	950.8177	961.3367	1054.9662	1092.8921	1146.4812	1162.1172	1231.6763	1282.0819	1297.2943	1399.6807	1453.0702	1485.0967	1527.7056	1584.8011	1624.4807	1688.0179	3032.9271	3060.5341	3277.7114	3588.0032	3707.1253
NC1=NCC2=C1N=CO2	NC1=NCc2c1nco2	
InChI=1S/C5H5N3O/c6-5-4-3(1-7-5)9-2-8-4/h2H,1H2,(H2,6,7)	InChI=1S/C5H5N3O/c6-5-4-3(1-7-5)9-2-8-4/h2H,1H2,(H2,6,7)
