18
gdb 40857	5.05677	1.24911	1.15443	2.3634	75.82	-0.2375	0.0722	0.3097	1077.2881	0.148634	-401.814662	-401.807693	-401.806749	-401.846433	27.352	
C	-0.1029669021	 1.610157041	-0.0549034636	-0.186807
C	 1.3983327933	 1.3484766153	-0.0246986334	-0.066922
C	 1.1495197387	 0.1360719071	 0.9256431334	-0.104861
N	-0.0905381131	 0.0838673586	-0.0147909049	-0.162931
C	 1.1781965282	 0.0878648743	-0.917659704	-0.104841
C	 1.9050692657	-0.8509464532	 0.040708166	 0.349109
C	 3.4166208402	-1.1258228664	 0.071359051	-0.163445
O	 3.1869767642	-2.5490486427	 0.1048045679	-0.277208
C	 1.7512310494	-2.3780321793	 0.078200058	-0.150185
H	-0.568151418	 2.0648459917	 0.8259153013	 0.103787
H	-0.540169847	 2.0178136997	-0.9723185649	 0.103787
H	 2.2480285052	 2.0393337621	-0.0295454206	 0.071376
H	 1.0204025662	 0.148602339	 2.0100506121	 0.085204
H	 1.0828660403	 0.0436016348	-2.0047295621	 0.085207
H	 3.9779579836	-0.8184880477	-0.8211038855	 0.101987
H	 3.9501752397	-0.7720697926	 0.9636747421	 0.101981
H	 1.269912187	-2.7881673209	 0.9746275688	 0.107376
H	 1.2974202684	-2.834787101	-0.8099921114	 0.107385
69.1925	145.4841	236.7868	291.1816	434.9105	459.7677	542.4341	724.0542	794.9929	836.2518	839.5508	862.0578	863.5294	882.3706	924.53	962.9393	976.4425	1029.3342	1030.8145	1032.5894	1077.5395	1090.7882	1103.4476	1117.1797	1140.6138	1154.1102	1170.1735	1170.6729	1192.4393	1195.641	1224.6936	1275.5136	1286.8129	1307.1162	1350.3858	1407.3922	1505.8803	1518.8281	1531.6208	2998.5843	3016.6703	3034.5057	3039.9045	3049.4408	3056.9203	3092.3996	3095.6951	3098.585
C1C2C3N1C2C31COC1	C1[C@H]2[C@H]3N1[C@@H]2C13COC1	
InChI=1S/C7H9NO/c1-4-5-7(2-9-3-7)6(4)8(1)5/h4-6H,1-3H2	InChI=1S/C7H9NO/c1-4-5-7(2-9-3-7)6(4)8(1)5/h4-6H,1-3H2/t4-,5+,6-
