16
gdb 31594	3.27314	1.12507	0.84982	1.9662	68.84	-0.1853	0.0361	0.2214	1294.7343	0.125074	-471.231101	-471.221886	-471.220942	-471.265401	33.086	
N	 0.2419061746	 1.4407221198	-0.0546104101	-0.618755
C	 0.0447331288	 0.0463536971	-0.0458858421	 0.142611
C	-1.0462274747	-0.7875736139	 0.0224337822	 0.288236
O	-2.3443904878	-0.4024225377	 0.0836651929	-0.446532
N	-0.6839710657	-2.1019195536	 0.0341947001	-0.405092
C	 0.63875208	-2.0925391734	-0.0332293428	 0.344918
C	 1.5262444778	-3.2928760226	-0.0981133265	-0.188886
O	 2.8356813296	-2.8802731453	 0.2754091067	-0.427203
N	 1.1228540698	-0.8345379348	-0.0885353323	-0.27699
H	-0.1833815057	 1.8839168452	 0.7531522123	 0.246446
H	-0.1603399601	 1.8754470274	-0.8790768981	 0.244849
H	-2.8609017764	-1.2152600685	 0.1368401482	 0.297083
H	 1.1260079324	-4.067807043	 0.5709675802	 0.120696
H	 1.5232569005	-3.7109712762	-1.1178830975	 0.110488
H	 3.4496372745	-3.5817667415	 0.0421270664	 0.295705
H	 2.0971706223	-0.581327319	-0.0941829897	 0.272428
54.8333	124.4235	154.51	191.8333	236.0212	261.346	268.7013	355.2704	363.2891	393.6175	553.4093	585.8792	659.4974	667.8702	694.4431	731.7973	784.564	844.4272	1030.3334	1042.9249	1075.5479	1144.7432	1175.7278	1216.4742	1225.3812	1247.1577	1268.7078	1362.3661	1429.2031	1466.2653	1496.8413	1515.0242	1566.5868	1661.2408	1691.1549	2967.6587	3016.2537	3496.901	3557.3135	3669.9458	3807.6786	3843.9908
NC1=C(O)N=C(CO)N1	Nc1c(O)nc(CO)[nH]1	
InChI=1S/C4H7N3O2/c5-3-4(9)7-2(1-8)6-3/h8-9H,1,5H2,(H,6,7)	InChI=1S/C4H7N3O2/c5-3-4(9)7-2(1-8)6-3/h8-9H,1,5H2,(H,6,7)
