15
gdb 27640	3.23073	1.22693	0.8949	4.8051	77.81	-0.2042	-0.0001	0.2041	1237.0875	0.113126	-416.867904	-416.859389	-416.858444	-416.900993	31.183	
C	 0.1108373155	 1.4610473805	 0.0030679769	-0.491115
C	-0.0743775896	-0.0103230359	-0.0010183939	 0.364324
C	-1.135020816	-0.8336302295	-0.1377786887	-0.391781
C	-0.6353657863	-2.1905442071	-0.059215126	 0.107007
C	-1.3310181814	-3.4103437867	-0.1632076983	 0.17308
N	-1.8739957179	-4.4325595183	-0.2507078496	-0.365167
C	 0.7231301397	-2.0677939458	 0.1327295454	 0.309803
N	 1.709832076	-2.9882712776	 0.351961658	-0.601813
O	 1.0788284831	-0.7736389806	 0.1688341109	-0.205778
H	 0.7778297117	 1.7881881479	-0.8031253062	 0.139395
H	-0.855745073	 1.9503314931	-0.1350447344	 0.142794
H	 0.5408206388	 1.8129421983	 0.9479614528	 0.141546
H	-2.1622981013	-0.5418967874	-0.2851645593	 0.128527
H	 1.4696695279	-3.9326235819	 0.0874554459	 0.280356
H	 2.6343738929	-2.707111119	 0.0590855567	 0.268822
120.8897	126.5838	148.963	215.3114	260.0382	293.0165	308.2449	417.9081	511.7967	535.1453	563.0315	594.8648	628.1812	655.6915	726.7345	804.2765	815.5201	946.1024	1013.5121	1066.6734	1081.1897	1163.5431	1192.6914	1260.0978	1325.3228	1419.8118	1467.5042	1469.9885	1495.9507	1605.9034	1670.6329	1672.3579	2326.7663	3028.0398	3077.0872	3131.1064	3269.5753	3569.4166	3677.0337
CC1=CC(C#N)=C(N)O1	Cc1cc(C#N)c(N)o1	
InChI=1S/C6H6N2O/c1-4-2-5(3-7)6(8)9-4/h2H,8H2,1H3	InChI=1S/C6H6N2O/c1-4-2-5(3-7)6(8)9-4/h2H,8H2,1H3
