22
gdb 96485	2.52243	1.4338	1.04827	2.3613	83.29	-0.2491	0.0109	0.26	1224.3612	0.195659	-404.360225	-404.351426	-404.350482	-404.393292	34.262	
C	-0.0953680944	 1.5812803142	 0.0823761442	-0.393517
C	-0.0473501663	 0.0611913181	-0.0044223232	 0.125719
C	 0.467618867	-0.4319899276	-1.3657948715	-0.183046
C	 0.4780666513	-1.9624908364	-1.5691019067	-0.206511
C	 1.780894743	-2.7022192048	-1.2109611156	-0.185526
C	 2.3490785547	-2.4346219661	 0.1961679871	-0.155368
N	 1.330062175	-2.6509655447	 1.219714624	-0.207813
C	 0.6159743588	-1.659527954	 1.526953801	 0.092053
O	 0.7977088286	-0.3763381578	 1.0795407838	-0.244425
H	 0.9082695116	 1.9996164158	-0.0427378574	 0.127674
H	-0.7418431726	 1.9926397745	-0.6981624911	 0.116545
H	-0.4779597786	 1.8973668609	 1.0560020507	 0.12409
H	-1.0568026938	-0.3476890774	 0.1594646441	 0.076379
H	-0.1849205331	 0.0211840253	-2.1222370823	 0.097873
H	 1.4682330078	-0.0137985658	-1.5352060313	 0.101826
H	-0.3566125345	-2.4044834029	-1.0118545537	 0.104756
H	 0.2703865406	-2.1754953385	-2.6238289912	 0.095498
H	 1.6005444518	-3.7773172119	-1.3263120256	 0.105433
H	 2.562028944	-2.4370476168	-1.9346530706	 0.09642
H	 3.1711623039	-3.1327515311	 0.3815838152	 0.099082
H	 2.752825595	-1.4166804471	 0.2419986828	 0.106581
H	-0.1988248498	-1.7690959358	 2.2474590475	 0.106274
116.3417	133.2638	206.2803	227.0871	245.4084	290.3481	318.0002	347.7392	427.0543	478.2016	494.8928	594.7818	707.7081	726.2646	814.1734	844.782	880.3982	909.9138	945.3841	966.1161	994.9327	1021.0884	1043.0167	1101.7096	1104.0543	1120.8175	1146.9093	1162.9367	1222.9974	1234.7223	1273.1682	1302.6384	1334.2779	1363.721	1367.6787	1388.8429	1390.3862	1395.8059	1405.8043	1412.8407	1469.9055	1478.2146	1485.2717	1494.4392	1499.1934	1508.3432	1731.2399	2981.9276	3020.6057	3023.6721	3029.2273	3034.5179	3044.6212	3059.52	3064.1063	3070.9551	3082.6008	3100.073	3117.8421	3125.4031
CC1CCCCN=CO1	C[C@H]1CCCCN=CO1	
InChI=1S/C7H13NO/c1-7-4-2-3-5-8-6-9-7/h6-7H,2-5H2,1H3/b8-6-	InChI=1S/C7H13NO/c1-7-4-2-3-5-8-6-9-7/h6-7H,2-5H2,1H3/b8-6-/t7-/m0/s1
