15
gdb 104945	2.9715	0.8512	0.71256	4.9638	81.77	-0.2748	-0.0486	0.2262	1522.9071	0.112021	-416.755513	-416.74648	-416.745536	-416.790272	31.828	
O	 0.1646531021	 1.2807654922	 0.5248100596	-0.405905
C	 0.0078879495	 0.052937417	-0.1532089534	-0.141713
C	-1.4093603884	-0.5026637108	-0.0452484084	 0.018143
C	-1.5882250567	-1.9709273728	 0.2025180005	-0.258772
N	-1.8752552893	-1.0119691874	 1.2646609586	-0.313414
C	-2.3933001851	 0.2257453342	-0.800266414	 0.10997
C	-3.1738167573	 0.8675357766	-1.4649016587	 0.082965
C	-4.0640587405	 1.582406586	-2.2124078205	 0.19729
N	-4.8172923325	 2.1939008337	-2.851795307	-0.333269
H	-0.3737876977	 1.9441846378	 0.0790399741	 0.29749
H	 0.2923290739	 0.127303357	-1.2129494037	 0.112051
H	 0.69589453	-0.6494234547	 0.3293626299	 0.113659
H	-2.4569137731	-2.4760811984	-0.2073022489	 0.141842
H	-0.6829548148	-2.5716607262	 0.2477317758	 0.128759
H	-1.1055609901	-0.9489366343	 1.9283268562	 0.250903
54.2908	92.3179	99.7252	196.3329	250.0977	259.6224	307.7054	355.4361	439.5446	507.5256	540.654	576.0157	601.3077	644.8605	808.151	874.3838	916.6059	970.7073	1006.1015	1033.6627	1083.027	1124.3758	1148.4336	1200.3484	1243.1721	1298.6145	1378.4507	1389.4748	1421.7639	1492.1723	1505.7332	2261.9734	2393.8538	3000.56	3076.4678	3111.4218	3206.4984	3494.0737	3806.1224
OCC1(CN1)C#CC#N	OC[C@]1(CN1)C#CC#N	
InChI=1S/C6H6N2O/c7-3-1-2-6(5-9)4-8-6/h8-9H,4-5H2	InChI=1S/C6H6N2O/c7-3-1-2-6(5-9)4-8-6/h8-9H,4-5H2/t6-/m1/s1
