21
gdb 53086	3.21581	0.9229	0.74252	0.3488	99.32	-0.2114	-0.0057	0.2058	1592.478	0.181883	-349.963044	-349.953075	-349.952131	-350.000125	35.719	
C	-0.0469512955	 1.4571887108	 0.0163926098	-0.508289
C	 0.0165388069	 0.0040792343	 0.031142255	 0.203858
C	 0.087789092	-1.201920169	 0.0442824426	-0.12891
C	 0.1056252057	-2.6174610877	 0.0598640047	 0.216653
C	 1.1917389832	-3.4063576018	 0.0460814144	-0.192263
C	 0.8383549024	-4.8692686948	-0.0025882067	-0.254252
C	-0.6694316191	-4.8720154334	 0.345238984	-0.21779
C	-1.1823732352	-3.4445844378	 0.027355739	-0.088743
C	-2.2814108174	-2.9518811847	 0.9712608362	-0.397704
H	 0.8725892192	 1.8927738503	-0.3902793743	 0.149168
H	-0.8822923139	 1.8134775495	-0.5969550043	 0.148424
H	-0.1850244619	 1.8607643716	 1.0263425417	 0.149113
H	 2.2118932702	-3.0407036746	 0.0232789097	 0.090062
H	 1.0275100169	-5.2767059889	-1.0070379067	 0.107471
H	 1.4337852894	-5.4779256611	 0.6876349085	 0.102852
H	-1.2299914879	-5.6469309407	-0.1844254338	 0.094548
H	-0.7924988399	-5.0589936627	 1.4181887025	 0.101323
H	-1.5774076678	-3.4089991261	-0.9992275533	 0.080859
H	-1.9364983703	-2.9651452961	 2.0111461364	 0.112888
H	-2.578688695	-1.9272413998	 0.729456199	 0.121839
H	-3.1688427418	-3.5897058273	 0.9011273256	 0.10889
9.5411	79.0271	87.1582	125.3671	233.5645	249.7966	259.0098	324.0028	351.1846	435.122	444.0482	522.6773	610.6581	646.7303	766.0107	824.586	863.8393	894.808	925.61	952.0093	975.1289	1019.5268	1049.3546	1053.0132	1069.4895	1105.3069	1121.3896	1189.279	1216.1296	1271.3579	1275.2888	1316.6227	1322.7948	1333.1897	1363.7685	1407.8514	1413.5576	1476.3117	1476.7469	1481.7351	1494.04	1497.7006	1501.2353	1672.7405	2344.1534	2984.4935	2995.6733	3021.989	3029.4139	3037.1009	3053.0729	3079.4445	3085.0075	3092.816	3098.013	3109.0639	3198.688
CC#CC1=CCCC1C	CC#CC1=CCC[C@H]1C	
InChI=1S/C9H12/c1-3-5-9-7-4-6-8(9)2/h7-8H,4,6H2,1-2H3	InChI=1S/C9H12/c1-3-5-9-7-4-6-8(9)2/h7-8H,4,6H2,1-2H3/t8-/m1/s1
