16
gdb 123824	3.49176	1.54754	1.11694	3.8048	70.17	-0.2429	-0.0342	0.2087	1031.1397	0.127501	-434.051064	-434.044204	-434.04326	-434.082383	26.834	
C	-0.0036211577	 1.4551077186	 0.0621169623	-0.168062
C	 1.4366657824	 2.0397124797	-0.0081040148	-0.347463
C	 2.1514653796	 1.3057190427	-1.0851356647	 0.361365
C	 1.7236741734	 0.158194114	-1.6763486683	 0.193273
C	 0.4493842435	-0.5387380988	-1.3021870926	-0.294168
N	-0.0841043505	-0.0022352486	-0.0409568705	-0.281132
N	 2.6625892339	-0.1708675106	-2.6242598616	-0.188844
N	 3.5996825826	 0.6650098833	-2.6375030275	-0.029689
O	 3.3052960353	 1.6726679085	-1.6272169352	-0.233074
H	-0.4813385252	 1.76517506	 0.9959004101	 0.115577
H	-0.5957814233	 1.8794613886	-0.7576531447	 0.12231
H	 1.4147605154	 3.1168736659	-0.2079548194	 0.133894
H	 1.957953735	 1.9081216715	 0.9493136744	 0.130288
H	-0.3051366046	-0.4112597964	-2.0905151641	 0.130984
H	 0.6014032301	-1.6165641814	-1.1904240603	 0.131708
H	 0.4122764501	-0.4247374971	 0.737208637	 0.223034
105.6593	220.5312	291.4429	319.0839	367.1605	449.3747	518.3175	568.8644	657.4678	696.0263	701.0553	731.2151	786.6444	865.0682	930.6686	963.7068	975.5961	1010.7111	1106.4653	1125.9808	1184.1264	1203.5083	1220.8362	1268.5778	1300.3917	1333.3134	1361.1886	1386.8622	1430.4705	1455.6994	1472.0958	1483.104	1490.4184	1498.5968	1643.4168	3015.7797	3024.0973	3038.5407	3071.939	3081.9636	3093.3611	3517.1979
C1CC2=C(CN1)N=NO2	C1Cc2c(CN1)nno2	
InChI=1S/C5H7N3O/c1-2-6-3-4-5(1)9-8-7-4/h6H,1-3H2	InChI=1S/C5H7N3O/c1-2-6-3-4-5(1)9-8-7-4/h6H,1-3H2
