19
gdb 47937	2.5613	1.46689	1.04025	3.4608	72.39	-0.2291	-0.0239	0.2052	1158.4057	0.159525	-460.159782	-460.151292	-460.150348	-460.193522	31.685	
O	 0.0466197649	 0.6902130981	 1.5928056931	-0.295613
C	 0.0288477267	 1.3309150277	 0.5699454349	 0.364249
C	-1.271865044	 1.5640742004	-0.2008269385	-0.17967
O	-1.2445880798	 2.8247278341	-0.8389848841	-0.247368
C	-1.3853565134	 2.8305271318	-2.2504968841	-0.075431
C	-0.2260847658	 2.1653668257	-3.002746134	-0.225742
C	 1.1593749573	 2.4532245365	-2.4087395566	-0.058382
O	 1.5001868831	 1.5514027149	-1.3642249839	-0.256693
C	 1.300403385	 1.9499886245	-0.0226743825	-0.16432
H	-1.4101464094	 0.7378588528	-0.9116346745	 0.125072
H	-2.0992280839	 1.5241303664	 0.5170256159	 0.131326
H	-2.3428483766	 2.3741061051	-2.5460521956	 0.096784
H	-1.434062797	 3.8926281836	-2.5128499746	 0.113088
H	-0.3440492364	 1.0764289906	-3.0383868035	 0.116117
H	-0.2601473554	 2.5126502421	-4.0429276432	 0.103336
H	 1.9195759217	 2.3030877474	-3.1833688756	 0.108622
H	 1.2348275701	 3.4939127298	-2.0631480746	 0.101086
H	 1.2487934053	 3.0430647567	 0.073728917	 0.119446
H	 2.1431377777	 1.5811832119	 0.5698797544	 0.124093
40.7029	129.0715	162.8303	230.532	263.8243	325.0404	400.5035	415.2395	486.2474	501.4596	527.7448	564.03	749.3681	787.4832	877.6236	893.0791	937.3284	960.4469	1010.9608	1031.373	1050.2689	1132.9052	1145.8228	1166.946	1201.8603	1252.8207	1266.5673	1289.5101	1302.35	1320.696	1362.2725	1370.2661	1386.7993	1401.6751	1421.6753	1462.9504	1464.5294	1481.9551	1491.9873	1500.3362	1821.6187	2986.2817	3005.5103	3013.8856	3016.0505	3034.6822	3063.2988	3066.1871	3069.5832	3085.2105	3091.88
O=C1COCCCOC1	O=C1COCCCOC1	
InChI=1S/C6H10O3/c7-6-4-8-2-1-3-9-5-6/h1-5H2	InChI=1S/C6H10O3/c7-6-4-8-2-1-3-9-5-6/h1-5H2
