21
gdb 69315	2.95194	1.33387	1.26877	1.7559	83.38	-0.2411	0.0061	0.2472	1146.6119	0.180734	-387.094875	-387.085778	-387.084834	-387.127778	35.758	
C	-0.1127284711	 1.5541373371	 0.0511943792	-0.493429
C	 0.1210138496	 0.0724182293	-0.0245851703	 0.383258
O	-0.7184843535	-0.7517491523	 0.8335870678	-0.304799
C	 0.6961011737	-0.7778250127	 1.0328666748	-0.055747
C	 1.422349468	-1.9705965179	 0.3935967124	 0.213345
C	 2.933266621	-1.8726293444	 0.6688099789	-0.426602
C	 0.8623285253	-3.3158326205	 0.8878700412	-0.422514
C	 1.122081202	-1.7457083168	-1.0841035327	-0.10049
C	 0.4399717516	-0.6230598742	-1.3145841405	-0.156272
H	 0.7412175828	 2.1038065659	-0.3587441318	 0.124181
H	-1.0006667926	 1.8361863294	-0.5256044963	 0.128028
H	-0.2683444436	 1.8661294848	 1.086668394	 0.131023
H	 1.0405833185	-0.3880971697	 1.9897281319	 0.082268
H	 3.1396063149	-1.9827768337	 1.73982045	 0.113092
H	 3.4781398861	-2.661682104	 0.1403409326	 0.115835
H	 3.3345064222	-0.9089555046	 0.3396370766	 0.117469
H	-0.2227297158	-3.342898271	 0.7651071779	 0.137938
H	 1.2985739387	-4.1496417658	 0.327305163	 0.108646
H	 1.0951761098	-3.4691528654	 1.9473311699	 0.111271
H	 1.4219473292	-2.4682438852	-1.8369853117	 0.096027
H	 0.118796453	-0.2547752884	-2.2821187166	 0.097472
123.8707	183.8925	195.5511	228.0945	245.631	271.745	315.422	319.2358	377.153	416.2446	503.6539	559.8896	605.0103	646.1446	747.8695	780.5969	843.2441	845.7561	907.0543	926.1311	948.7567	955.6037	961.4775	1017.5377	1036.0113	1057.5491	1097.0772	1123.8776	1180.539	1209.0078	1251.0818	1269.1591	1302.1632	1360.4612	1391.2086	1405.2495	1413.9502	1448.554	1483.9257	1485.6895	1486.8846	1495.1019	1500.8877	1510.9479	1665.9318	3025.2281	3032.2424	3034.6538	3092.0428	3095.5257	3096.0702	3104.765	3120.7044	3124.9787	3127.7762	3173.753	3204.6828
CC12OC1C(C)(C)C=C2	C[C@]12O[C@H]1C(C)(C)C=C2	
InChI=1S/C8H12O/c1-7(2)4-5-8(3)6(7)9-8/h4-6H,1-3H3	InChI=1S/C8H12O/c1-7(2)4-5-8(3)6(7)9-8/h4-6H,1-3H3/t6-,8+/m0/s1
