20
gdb 22271	2.78037	1.05322	0.93497	1.3682	78.9	-0.2492	0.006	0.2551	1364.0267	0.166298	-440.237414	-440.226619	-440.225675	-440.273775	38.332	
C	 0.0632432818	 1.4347776531	-0.3128830694	-0.429296
C	 0.1677538862	-0.0413690367	-0.0306144015	 0.050764
O	 1.4844183864	-0.5910981277	 0.1613195295	-0.30341
C	 0.5527725622	-0.6382907717	 1.2591548934	 0.303825
C	 0.9231185582	 0.1806291391	 2.4779067233	-0.475344
C	 0.0848974533	-2.0348730318	 1.5687636163	 0.297451
C	 1.0972109884	-3.0402202142	 2.0449774113	-0.484717
N	-1.1617989906	-2.2607102213	 1.4068468696	-0.176336
O	-1.505402299	-3.577025503	 1.7513767282	-0.392997
H	 0.7041126873	 2.0290696076	 0.3407912895	 0.124909
H	 0.3568029372	 1.637782489	-1.348141296	 0.130904
H	-0.9724133859	 1.7690206456	-0.1883642294	 0.126865
H	-0.4683632048	-0.66268886	-0.6609220865	 0.096594
H	 1.3529471866	 1.1425855584	 2.1949301099	 0.130627
H	 0.0405341257	 0.3533243573	 3.102195213	 0.132572
H	 1.6647451599	-0.3507802079	 3.0836894245	 0.127973
H	 1.0660866914	-3.1413060285	 3.1361629621	 0.140724
H	 0.875652403	-4.02431794	 1.6268181953	 0.151917
H	 2.1031043567	-2.7348586072	 1.7502357546	 0.140573
H	-2.4442406441	-3.6024275401	 1.5386307622	 0.306402
43.524	69.3923	132.8702	144.7386	154.5487	162.7025	271.1928	279.8536	298.3666	354.4574	366.8105	438.8678	475.0857	519.836	560.3218	610.8375	729.4955	781.2587	865.639	910.9273	969.083	990.1875	1021.984	1036.344	1063.2849	1100.6446	1133.4498	1141.8587	1193.9748	1296.6907	1349.4899	1394.7877	1400.445	1402.3751	1413.785	1459.8266	1474.7404	1476.9261	1482.2626	1488.9485	1498.4104	1521.3304	1725.8537	3039.5995	3040.8366	3043.4468	3100.8133	3103.3856	3108.5323	3109.8471	3133.4581	3143.7191	3144.8281	3820.4006
CC1OC1(C)C(C)=NO	C[C@H]1O[C@]1(C)C(=NO)C	
InChI=1S/C6H11NO2/c1-4(7-8)6(3)5(2)9-6/h5,8H,1-3H3	InChI=1S/C6H11NO2/c1-4(7-8)6(3)5(2)9-6/h5,8H,1-3H3/t5-,6-/m1/s1
