15
gdb 131868	5.78874	0.80015	0.73585	3.0763	65.73	-0.25	-0.0292	0.2208	1464.6803	0.1109	-491.042567	-491.033947	-491.033003	-491.077183	29.981	
O	-0.0266117113	 1.4288922391	 0.0137451648	-0.413341
C	-0.0015085319	 0.0180184447	-0.0013448042	-0.070118
C	-1.3933825405	-0.5838280959	 0.0488109008	-0.094524
O	-2.0534928246	-0.169681806	-1.1733626213	-0.280186
C	-3.3144845178	-0.5293927666	-1.342558577	 0.510101
C	-4.146661361	-0.2400406897	-2.4002695908	-0.246297
N	-5.3357369947	-0.836735503	-2.1120037577	-0.067622
N	-5.3406334497	-1.4454606496	-1.0302145344	-0.029231
O	-3.9350060448	-1.2587334841	-0.4474552047	-0.249826
H	-0.5208184447	 1.7134254296	-0.7625916789	 0.29424
H	 0.5313583065	-0.3745372154	-0.8810477119	 0.106238
H	 0.5470512809	-0.3008695159	 0.8907044797	 0.126143
H	-1.3631994719	-1.6773858432	 0.0925565903	 0.131671
H	-1.9576681938	-0.2016974847	 0.9043632821	 0.142526
H	-3.9676614706	 0.3265893107	-3.2955344967	 0.140226
43.0869	69.1469	125.3888	160.4108	272.2869	306.4776	317.9245	377.9887	482.7811	519.2795	667.8642	739.5578	742.4279	754.8101	881.5939	903.9692	949.7786	1023.5057	1065.0095	1095.4751	1124.9447	1145.7782	1230.7177	1266.5384	1322.1217	1384.9194	1396.2304	1414.1189	1431.9253	1486.0909	1492.9752	1502.0265	1615.9416	2994.5271	3051.372	3087.9058	3112.0058	3305.9016	3814.636
OCCOC1=CN=NO1	OCCOc1cnno1	
InChI=1S/C4H6N2O3/c7-1-2-8-4-3-5-6-9-4/h3,7H,1-2H2	InChI=1S/C4H6N2O3/c7-1-2-8-4-3-5-6-9-4/h3,7H,1-2H2
