18
gdb 23392	3.02374	1.33121	1.25414	0.7539	75.45	-0.2376	0.0105	0.2481	1072.0662	0.149269	-439.023881	-439.016253	-439.015309	-439.055936	29.928	
O	-0.1611400401	 1.3305575863	 0.0330402475	-0.401366
N	 0.0048061046	-0.0744746322	 0.0223699276	-0.296935
C	-1.1161499964	-0.6598353397	 0.0353167504	 0.47501
C	-2.5843604754	-0.2959504201	-0.0211959094	-0.143231
C	-2.7650634399	-1.6453788007	-0.7941131662	-0.235358
C	-1.4848402656	-2.1219913896	-0.0281984055	-0.135628
C	-1.9201086447	-2.5474827286	 1.3949642786	-0.079215
O	-3.087011935	-1.8483573745	 1.8029215434	-0.253859
C	-3.1560625564	-0.486183678	 1.4044091214	-0.080516
H	 0.7504115541	 1.6383944031	-0.0081081293	 0.30523
H	-2.8840978545	 0.653404587	-0.4646486561	 0.094874
H	-3.6864141274	-2.2013816105	-0.6124143196	 0.113692
H	-2.5831730425	-1.5317194562	-1.863521313	 0.111972
H	-0.7932587882	-2.836159589	-0.4772559648	 0.08684
H	-2.1891383749	-3.608970407	 1.4150391648	 0.111611
H	-1.0890852553	-2.3870782596	 2.0988108291	 0.105339
H	-2.6199085136	 0.1659887794	 2.1100238663	 0.109232
H	-4.2189659387	-0.2238549001	 1.4326537749	 0.112307
100.1827	178.1754	224.2713	265.8839	326.8432	391.147	402.0883	482.6949	548.8533	593.2903	712.4007	761.7567	829.1713	834.8976	856.3967	912.0128	925.0144	957.7008	997.5719	1028.9252	1056.4638	1072.9817	1094.3498	1135.9109	1157.4435	1177.4884	1228.7267	1249.7332	1273.5947	1280.2666	1282.6524	1304.8767	1373.4752	1402.4463	1414.3953	1482.5598	1505.6178	1515.2237	1793.1128	2988.49	2995.2303	3067.5092	3069.5969	3078.5472	3108.0005	3119.9252	3143.4769	3820.0984
ON=C1C2CC1COC2	ON=C1[C@H]2C[C@@H]1COC2	
InChI=1S/C6H9NO2/c8-7-6-4-1-5(6)3-9-2-4/h4-5,8H,1-3H2	InChI=1S/C6H9NO2/c8-7-6-4-1-5(6)3-9-2-4/h4-5,8H,1-3H2/t4-,5+
