18
gdb 35344	3.61556	1.37411	1.23234	4.1598	82.04	-0.255	0.0246	0.2796	1047.2218	0.149336	-364.708507	-364.701447	-364.700503	-364.739821	28.792	
N	-0.1532732385	-1.2556307548	-0.0077528769	-0.344853
C	-0.0947563412	-0.0998889234	 0.008885569	 0.297496
C	-0.0464224124	 1.3499282025	 0.0170020703	-0.218251
C	-0.3052828323	 2.073014744	 1.4269418815	-0.348795
C	 1.2146645431	 2.3389122558	 1.4530317161	 0.299348
C	 2.4847476651	 3.2440331122	 1.3907937929	-0.306912
C	 2.7872103819	 1.9427585461	 0.5081341591	-0.079923
C	 2.1819426753	 1.1248879946	 1.6636584863	-0.259071
C	 1.3402360109	 2.1403112446	-0.0554258855	-0.011314
H	-0.7208556848	 1.7031822494	-0.7666515523	 0.131633
H	-0.9199136235	 2.9640470286	 1.2779270887	 0.121207
H	-0.7290268815	 1.462286493	 2.2267546399	 0.127262
H	 2.3817355397	 4.1882476768	 0.8499852289	 0.101728
H	 3.0965328534	 3.3564758378	 2.290803681	 0.101841
H	 3.7154232746	 1.7452073315	-0.0336735498	 0.081487
H	 2.7351187207	 1.1235403652	 2.6063656313	 0.093641
H	 1.8133996155	 0.1277654568	 1.4275764604	 0.133923
H	 1.2004511341	 3.0262638594	-0.6796831708	 0.079554
136.6406	140.1896	297.5842	330.0379	398.5684	467.9814	524.1462	556.0989	641.9061	693.4455	750.304	785.9253	808.272	842.9198	877.8432	915.5304	931.5177	987.9384	1002.17	1011.9587	1024.0135	1054.662	1087.1301	1113.9433	1129.5571	1144.3533	1178.8054	1192.3733	1202.9091	1209.9917	1227.6779	1250.308	1269.3511	1308.0979	1372.5277	1473.5118	1498.1203	1543.2476	2344.0755	3047.4364	3066.3554	3067.4164	3067.8413	3082.1527	3088.7683	3120.5234	3131.8384	3152.8964
N#CC1CC23CC(C2)C13	N#C[C@H]1C[C@@]23C[C@@H](C2)[C@@H]13	
InChI=1S/C8H9N/c9-4-6-3-8-1-5(2-8)7(6)8/h5-7H,1-3H2	InChI=1S/C8H9N/c9-4-6-3-8-1-5(2-8)7(6)8/h5-7H,1-3H2/t5-,6-,7+,8+/m1/s1
