21
gdb 87196	3.37904	0.97579	0.85872	2.3806	80.01	-0.2244	0.0319	0.2563	1416.7197	0.180428	-420.416616	-420.406034	-420.40509	-420.453019	38.192	
C	-0.4763614912	 1.1951742772	-0.2772101994	-0.312729
N	-0.1728471862	-0.177629629	 0.098297304	-0.119905
C	 1.1167532792	-0.7289310754	-0.3089376126	-0.283104
C	 0.8306502166	-0.460802086	 1.1331729066	 0.345982
C	 1.5647480796	 0.6529888392	 1.8549731647	-0.479131
C	 0.4375213952	-1.6410318449	 2.0241149287	-0.371674
C	 1.6349089444	-2.5100655313	 2.4030579848	 0.408932
N	 1.557062434	-3.8090681114	 1.990855919	-0.511497
O	 2.6005137045	-2.0853348399	 3.0118108307	-0.364159
H	 0.3983533805	 1.859141015	-0.3455421733	 0.102112
H	-0.9667391152	 1.1862245862	-1.2561771903	 0.122802
H	-1.1773731368	 1.6249104712	 0.4457987202	 0.121316
H	 1.1020562567	-1.7410199924	-0.7084778461	 0.101866
H	 1.8244048326	-0.0634855237	-0.8028324878	 0.104889
H	 1.9667631831	 1.402106109	 1.1697954648	 0.110998
H	 0.8969078174	 1.1589964539	 2.5630555519	 0.112221
H	 2.3902118694	 0.2227273106	 2.4263386272	 0.165438
H	-0.0007463954	-1.2646739606	 2.9562965551	 0.123938
H	-0.33297464	-2.2184688808	 1.5068651695	 0.102673
H	 0.7455635026	-4.1831232982	 1.5331903175	 0.259903
H	 2.308235999	-4.4326306687	 2.2384037948	 0.259129
26.4481	68.7424	137.9121	158.2753	181.5512	199.438	232.1116	288.3814	324.8911	361.6106	431.311	445.5768	490.9972	536.2768	610.2432	680.9878	738.0625	796.6498	884.7049	896.8079	922.9813	951.5432	1003.0605	1057.0321	1071.5746	1101.7572	1115.2278	1145.152	1165.0581	1193.9658	1221.3525	1274.9427	1310.8207	1376.5903	1390.3395	1414.509	1450.1293	1473.4359	1487.0665	1488.5016	1501.7285	1514.4477	1515.7409	1615.7188	1786.6605	2986.8063	3031.8095	3040.4542	3066.265	3080.5834	3098.1324	3099.963	3107.1314	3139.3855	3161.2308	3602.9287	3743.8528
CN1CC1(C)CC(N)=O	CN1C[C@]1(C)CC(=O)N	
InChI=1S/C6H12N2O/c1-6(3-5(7)9)4-8(6)2/h3-4H2,1-2H3,(H2,7,9)	InChI=1S/C6H12N2O/c1-6(3-5(7)9)4-8(6)2/h3-4H2,1-2H3,(H2,7,9)/t6-,8?/m0/s1
