21
gdb 86218	2.42038	1.29883	0.97979	4.2772	83.52	-0.2344	0.027	0.2615	1282.6831	0.183382	-383.291009	-383.281689	-383.280745	-383.326018	34.522	
C	 0.645609333	 1.4473115387	-0.0571279862	-0.396806
C	-0.1003561243	 0.1109141568	-0.1236174592	 0.020872
C	 0.3880591726	-0.7737602567	-1.3090200912	-0.254714
C	 0.9897944541	-2.0359369755	-0.6357062738	-0.084287
C	 2.1675370683	-2.5659419014	-1.331887212	 0.284015
N	 3.0840595028	-2.9947762823	-1.8897870581	-0.332696
N	 1.3096280571	-1.5926357294	 0.719225375	-0.062244
C	 1.6411979686	-2.6596813627	 1.645139619	-0.335096
C	 0.1689015796	-0.7709871859	 1.1118815215	-0.165005
H	 1.7163442146	 1.2786963623	 0.0973415959	 0.133437
H	 0.5220603198	 2.015474983	-0.9848933799	 0.116512
H	 0.2749176229	 2.0662246187	 0.7665226805	 0.11382
H	-1.1730457787	 0.3050631813	-0.2135503419	 0.077474
H	-0.4148769819	-1.0504010977	-1.9948833005	 0.115811
H	 1.1537202952	-0.2554789006	-1.8903460873	 0.127833
H	 0.231641857	-2.8447784137	-0.6274903508	 0.094531
H	 2.5123206071	-3.2118874175	 1.2813307421	 0.143855
H	 1.8932933024	-2.2316695875	 2.6195612158	 0.126569
H	 0.8098142064	-3.3760023238	 1.7882353525	 0.095698
H	 0.4118270543	-0.1915484506	 2.0082681752	 0.105628
H	-0.7170261912	-1.3935807755	 1.3473601335	 0.074792
20.8452	117.4024	149.5798	219.6709	257.2617	264.3102	307.7587	341.9604	377.0018	391.2225	505.2504	556.2543	590.9982	662.3298	804.3872	829.6149	923.4356	941.8967	951.6433	984.9203	1024.6448	1047.4284	1078.7196	1120.8068	1138.3054	1159.0646	1191.1811	1222.0192	1257.4398	1265.1795	1291.6109	1308.906	1338.3691	1370.0536	1371.3823	1384.5333	1409.7293	1461.4136	1492.0895	1495.9346	1497.2536	1502.1238	1504.4453	1517.7419	2360.3592	2892.5123	2905.4893	2932.5423	3031.2581	3058.053	3067.7299	3073.5831	3076.008	3100.6184	3109.1002	3117.27	3122.5935
CC1CC(C#N)N(C)C1	C[C@H]1C[C@@H](C#N)N(C)C1	
InChI=1S/C7H12N2/c1-6-3-7(4-8)9(2)5-6/h6-7H,3,5H2,1-2H3	InChI=1S/C7H12N2/c1-6-3-7(4-8)9(2)5-6/h6-7H,3,5H2,1-2H3/t6-,7-/m0/s1
