19
gdb 36280	4.01884	1.06573	1.00354	0.5962	85.2	-0.2259	0.0142	0.2401	1239.2447	0.159809	-348.682288	-348.674467	-348.673523	-348.714836	31.484	
C	 0.0575367889	-1.1903276594	 0.038521797	-0.453173
C	 0.005307421	 0.0043829758	 0.1620602795	 0.310034
C	-0.0206122105	 1.4567757271	 0.3014004559	-0.407238
C	 1.3704617921	 2.0799087097	 0.1035211682	 0.063427
C	 1.9780390999	 2.127660913	-1.3516754935	-0.071922
C	 1.0910601632	 3.3993351482	-1.5837668339	-0.219733
C	 1.464230543	 3.645280025	-0.0808225708	-0.092314
C	 2.9869311627	 3.7894063904	-0.2067908434	-0.091861
C	 3.3222077004	 2.7975612551	-1.0384244434	-0.084475
H	 0.0903652889	-2.246216609	-0.0666432634	 0.193869
H	-0.7532786408	 1.8737008668	-0.3976488805	 0.129876
H	-0.3794974491	 1.7183854195	 1.3061281224	 0.129896
H	 2.0504186278	 1.6719359742	 0.8557248121	 0.078661
H	 1.9575284572	 1.2638557657	-2.0149479314	 0.069222
H	 1.4563554623	 4.1307066545	-2.3075885446	 0.095355
H	 0.0334983935	 3.188706478	-1.7619909611	 0.094316
H	 0.919342434	 4.3427856371	 0.5561942271	 0.057545
H	 3.6037933433	 4.5259760909	 0.2879756645	 0.099027
H	 4.290585152	 2.4972202874	-1.4123779309	 0.099487
62.6516	106.742	274.0562	285.5772	346.2711	409.9613	503.5135	535.7514	578.0001	616.6728	635.2465	693.2132	724.4477	799.2843	832.3022	841.0625	899.8095	912.0599	915.5677	941.4063	970.9547	979.6946	1001.9511	1052.579	1074.6205	1080.9149	1110.6262	1140.1395	1194.0741	1217.5375	1232.2038	1237.9374	1247.0428	1264.4939	1306.7396	1332.768	1387.2707	1467.6998	1511.0909	1621.0282	2236.5886	3019.6512	3058.9068	3069.1262	3083.1031	3110.0737	3125.0114	3126.8672	3219.6989	3246.7084	3507.364
C#CCC1C2CC1C=C2	C#CC[C@H]1[C@H]2C[C@@H]1C=C2	
InChI=1S/C9H10/c1-2-3-9-7-4-5-8(9)6-7/h1,4-5,7-9H,3,6H2	InChI=1S/C9H10/c1-2-3-9-7-4-5-8(9)6-7/h1,4-5,7-9H,3,6H2/t7-,8+,9+
