21
gdb 106296	3.69687	1.14199	1.072	2.6727	78.78	-0.231	0.0678	0.2989	1219.8639	0.182282	-424.208337	-424.199541	-424.198597	-424.241422	34.423	
C	-0.1033513576	 1.5027310365	 0.003787813	-0.489454
C	 0.0838381575	 0.0126211203	 0.0356495905	 0.436073
C	 1.0573407709	-0.7822151733	-0.8808635882	-0.323804
C	 0.7152627896	-1.9133552798	 0.1392887594	 0.306553
C	 1.5354898105	-3.1681952964	 0.2650870409	-0.205919
O	 0.9922324008	-3.9452356413	 1.325515644	-0.423728
C	 0.6856675471	-0.7878376432	 1.2232389242	-0.294959
C	-0.793055169	-2.0498865519	-0.1238639462	-0.106938
O	-1.1746191388	-0.6596459311	-0.1895050702	-0.312982
H	 0.847962366	 2.0151575339	 0.1721316328	 0.114204
H	-0.5029930073	 1.8178319134	-0.9652325049	 0.126143
H	-0.8092689977	 1.8151368786	 0.7796185612	 0.127694
H	 0.7618417429	-0.917273128	-1.9250682082	 0.094618
H	 2.0933601987	-0.4440014032	-0.8068468372	 0.094219
H	 1.5096208405	-3.7222865096	-0.6887555516	 0.086287
H	 2.5871381176	-2.9046613706	 0.4611577142	 0.085879
H	 1.5116440684	-4.7503066101	 1.4065957886	 0.289638
H	 1.6862019441	-0.4550456837	 1.5086619109	 0.091347
H	 0.0528796817	-0.9313637537	 2.1017819403	 0.102627
H	-1.02077031	-2.5521268377	-1.07289941	 0.089949
H	-1.324239986	-2.5574833489	 0.6869850265	 0.112553
83.3778	154.4605	205.6735	230.202	264.1623	276.8216	325.3925	370.4582	446.9099	485.0159	520.1207	615.0776	625.683	697.7545	810.76	868.254	891.3459	900.0738	947.0394	971.0269	997.9631	1011.5775	1024.0494	1044.7495	1064.2392	1124.6168	1138.7651	1165.9216	1184.3491	1190.855	1198.0136	1208.4472	1252.5796	1290.4019	1307.4806	1334.0477	1377.0989	1419.052	1467.0229	1472.3886	1480.8188	1492.9441	1508.9025	1515.543	1534.9569	2955.4776	2987.0236	3018.1862	3039.9398	3055.4606	3067.5005	3078.6562	3109.5907	3117.449	3122.5776	3132.1889	3832.2163
CC12CC(CO)(C1)CO2	C[C@@]12C[C@@](CO)(C1)CO2	
InChI=1S/C7H12O2/c1-6-2-7(3-6,4-8)5-9-6/h8H,2-5H2,1H3	InChI=1S/C7H12O2/c1-6-2-7(3-6,4-8)5-9-6/h8H,2-5H2,1H3/t6-,7+
