19
gdb 94880	2.7847	1.70388	1.38704	1.0107	74.13	-0.2339	0.0531	0.287	1000.3387	0.159961	-422.972696	-422.965078	-422.964134	-423.004387	30.424	
C	 0.0352923781	 1.5634265	-0.0483344215	-0.404452
C	 0.0630743536	 0.0460265027	 0.0265983277	 0.063207
O	 0.7954594652	-0.4489867281	-1.1120424925	-0.276485
C	 1.2774855203	-1.7755883715	-0.8317636222	-0.15053
C	 1.534180555	-1.79619805	 0.656770573	 0.105012
C	 2.2735187605	-0.6275963002	 1.2832124648	-0.373766
C	 0.7857076184	-0.5953108048	 1.1924066276	 0.36415
O	 0.1388438431	-1.33080364	 2.2401337591	-0.329728
C	 0.7474739861	-2.5550756224	 1.7334678427	-0.13899
H	 1.0490321966	 1.9703521815	 0.0012842174	 0.122923
H	-0.4247360026	 1.8915121344	-0.9842486806	 0.126292
H	-0.5457798388	 1.9698299161	 0.7847108819	 0.124948
H	-0.9655961108	-0.3508787799	 0.0271841363	 0.079321
H	 0.5239694169	-2.5360511388	-1.0911327313	 0.094934
H	 2.1533024915	-1.9249170743	-1.4701847823	 0.113029
H	 2.7334928485	-0.7523719356	 2.257609397	 0.123223
H	 2.8122861276	 0.0047128305	 0.5862066549	 0.135508
H	-0.0131774443	-3.2273460949	 1.3196049139	 0.111005
H	 1.3207738551	-3.0764122647	 2.5080861641	 0.110398
136.9962	197.5427	232.719	258.0388	312.1623	340.8852	420.1795	479.2922	574.141	626.4184	653.8446	745.3863	810.4832	859.537	866.9505	930.8573	933.6653	970.2549	983.4233	992.5612	1008.9208	1058.7246	1069.1811	1093.4438	1130.6371	1154.0197	1164.0296	1213.5105	1244.9618	1286.0416	1317.3761	1339.9583	1370.9144	1380.525	1392.6558	1412.8438	1463.1899	1486.4673	1494.6251	1506.1308	1516.7143	2970.3736	2982.6654	3023.5711	3045.781	3074.9791	3078.66	3121.0838	3124.1565	3134.0733	3229.3764
CC1OCC23CC12OC3	C[C@H]1OC[C@@]23C[C@@]12OC3	
InChI=1S/C7H10O2/c1-5-7-2-6(7,3-8-5)4-9-7/h5H,2-4H2,1H3	InChI=1S/C7H10O2/c1-5-7-2-6(7,3-8-5)4-9-7/h5H,2-4H2,1H3/t5-,6-,7-/m1/s1
