17
gdb 68468	2.48949	1.95492	1.33067	1.4862	67.86	-0.2584	-0.0304	0.228	955.5321	0.136303	-458.968591	-458.96109	-458.960146	-459.000622	29.592	
O	-0.0347413455	 1.398730221	-0.0728760306	-0.488036
C	-0.0102299151	 0.0234976137	 0.0315987949	 0.3282
C	 0.2557996454	-0.6759074754	 1.407168113	-0.309269
C	-0.5883606877	-1.8455707722	 0.8427063712	 0.116407
C	-1.3310660503	-0.8142849699	-0.0428355232	-0.309293
O	 0.1979167167	-2.7423718702	 0.0679027126	-0.273533
C	 1.0309876757	-2.1282213951	-0.9030308161	-0.171244
C	 0.9467842103	-0.6053062638	-0.9556345338	 0.320934
O	 1.5951107161	 0.0637482185	-1.7285422508	-0.353198
H	 0.5923277532	 1.6236810023	-0.7801268793	 0.292406
H	 1.284347215	-0.8806470988	 1.7137481389	 0.110558
H	-0.2726517793	-0.1379342086	 2.1973504664	 0.123767
H	-1.161276009	-2.4673040425	 1.5290283822	 0.093787
H	-2.1205562532	-0.2991104028	 0.5088551003	 0.123774
H	-1.7036925258	-1.1411745389	-1.016547469	 0.110553
H	 2.0790882594	-2.3982826861	-0.7155112195	 0.142103
H	 0.7798860241	-2.5109355312	-1.9015959372	 0.142084
71.2148	143.2784	307.9865	359.2739	400.6043	405.1092	416.7167	477.1736	525.0188	566.9067	605.8693	680.6679	802.6085	835.2446	845.8465	923.8814	945.9694	950.1437	985.6013	1035.96	1052.265	1071.5913	1124.6764	1164.3144	1184.2551	1211.7971	1227.942	1248.1267	1248.7678	1338.7167	1347.0411	1388.0797	1426.3784	1466.879	1474.5336	1503.4302	1810.2999	3013.6886	3042.7585	3065.1782	3068.944	3127.1742	3129.5424	3132.8449	3675.8566
OC12CC(C1)OCC2=O	O[C@@]12C[C@@H](C1)OCC2=O	
InChI=1S/C6H8O3/c7-5-3-9-4-1-6(5,8)2-4/h4,8H,1-3H2	InChI=1S/C6H8O3/c7-5-3-9-4-1-6(5,8)2-4/h4,8H,1-3H2/t4-,6-
