25
gdb 100947	2.08734	1.11109	0.82586	1.7529	86.43	-0.241	0.0735	0.3144	1552.0455	0.224927	-426.611175	-426.599103	-426.598159	-426.649159	42.162	
C	 0.1299541579	 1.1139670117	 0.747989123	-0.393944
C	 0.0296751993	-0.31206554	 0.2036359997	-0.169789
C	 0.600600753	-0.4636187676	-1.2101190998	 0.111928
O	 1.9902177258	-0.1415424426	-1.1965157573	-0.250387
C	 2.3673304857	 0.9397345225	-2.0179088791	-0.234792
C	 0.3898892907	-1.8830787613	-1.7711121076	 0.139819
C	 1.0191417856	-2.0596286715	-3.1549791276	-0.41402
O	 0.9238119623	-2.8011805773	-0.828961125	-0.242855
C	 0.4512432502	-4.120309556	-0.9508630817	-0.230665
H	 1.1730602956	 1.4404189204	 0.7830993389	 0.128239
H	-0.4277208477	 1.8244468425	 0.1261881322	 0.103608
H	-0.2745921346	 1.1758158581	 1.7629619329	 0.109325
H	 0.5651044879	-1.0072495048	 0.8558423072	 0.123158
H	-1.0188328336	-0.6368002248	 0.1900373167	 0.084082
H	 0.0714240234	 0.2253215897	-1.887271698	 0.059554
H	 1.8560039734	 1.8723369869	-1.7361990621	 0.104666
H	 3.4439886646	 1.0809552573	-1.8873389172	 0.124447
H	 2.1685368893	 0.7461472254	-3.0826931598	 0.101867
H	-0.7015617009	-2.0379171005	-1.8457977747	 0.055744
H	 2.0981927327	-1.902559612	-3.0902884264	 0.138799
H	 0.834270596	-3.0611145066	-3.5528292025	 0.11236
H	 0.597105589	-1.3415362842	-3.865981335	 0.108173
H	 0.8551382623	-4.6854523884	-0.1067895547	 0.126191
H	-0.6493104517	-4.1643994197	-0.9111345191	 0.099217
H	 0.7792954938	-4.607525317	-1.8807905429	 0.105276
59.7618	63.0664	75.4229	99.9375	155.1919	167.8672	203.5458	221.0312	244.2295	260.8287	296.5911	339.627	341.4514	359.8581	470.5668	508.1894	688.8607	764.1437	810.3648	888.3414	933.4936	960.414	1003.8714	1043.577	1073.5082	1120.4687	1130.3662	1136.8257	1163.1668	1180.9362	1182.8503	1186.1529	1216.1856	1229.9674	1286.9392	1308.1413	1362.1103	1376.3849	1386.3418	1394.8216	1396.8534	1409.943	1475.9261	1479.4284	1480.3564	1483.8323	1489.7334	1496.0839	1501.4805	1501.9837	1507.8263	1512.639	1516.1207	2940.2477	2970.9043	2973.2656	2986.224	3020.9505	3025.1707	3029.4632	3031.541	3044.0432	3086.3082	3103.5547	3105.2295	3107.0102	3108.5884	3116.9615	3134.3745
CCC(OC)C(C)OC	CC[C@@H](OC)[C@@H](C)OC	
InChI=1S/C7H16O2/c1-5-7(9-4)6(2)8-3/h6-7H,5H2,1-4H3	InChI=1S/C7H16O2/c1-5-7(9-4)6(2)8-3/h6-7H,5H2,1-4H3/t6-,7-/m1/s1
