17
gdb 24599	4.98969	0.96581	0.91705	3.8914	74.35	-0.2217	0.0238	0.2455	1272.7193	0.138807	-418.016724	-418.009076	-418.008132	-418.050957	27.835	
C	 0.0862404242	 1.568260044	-0.0456493158	-0.077973
O	 1.520620654	 1.4792698486	 0.037322242	-0.269668
C	 1.4576158473	 0.0741082058	 0.3436215104	-0.078008
C	-0.0620939466	 0.0227585888	 0.0227514908	-0.168846
C	-0.9982456376	-0.5803058573	 1.0061894632	 0.304565
C	-1.1846084626	-0.4014606064	 2.3576514543	-0.16458
N	-2.1952124173	-1.203744368	 2.8324489028	-0.249839
C	-2.6266617542	-1.8692378117	 1.7865476313	 0.008473
N	-1.9395381125	-1.5317984981	 0.6586863346	-0.312777
H	-0.3484685925	 2.0875801003	 0.8183303219	 0.10831
H	-0.2468596998	 2.0575903877	-0.9678183733	 0.105909
H	 2.1193592549	-0.5204818905	-0.2961818796	 0.105931
H	 1.6891978824	-0.1323637768	 1.3966558619	 0.108327
H	-0.2391520632	-0.3986032778	-0.970738121	 0.075101
H	-0.6441110941	 0.2633328408	 3.0150782369	 0.111213
H	-3.4223415872	-2.5991889309	 1.7806039046	 0.130532
H	-2.0853907751	-1.9042630786	-0.2650921052	 0.263331
15.9973	85.6317	142.7328	222.3012	376.499	382.8985	532.5494	600.2519	680.2734	693.0687	805.1958	832.5824	853.883	885.6392	910.6909	944.807	1005.934	1007.3293	1038.4633	1062.1949	1102.113	1115.9234	1152.2519	1156.0896	1168.5416	1221.2623	1245.6455	1285.9345	1302.4993	1334.6656	1368.9163	1422.9205	1442.3518	1496.259	1512.7991	1539.4871	1605.9695	3008.4251	3019.397	3053.2184	3065.0488	3077.4404	3243.1615	3252.2685	3657.6912
C1OCC1C1=CN=CN1	C1OCC1c1cnc[nH]1	
InChI=1S/C6H8N2O/c1-6(8-4-7-1)5-2-9-3-5/h1,4-5H,2-3H2,(H,7,8)	InChI=1S/C6H8N2O/c1-6(8-4-7-1)5-2-9-3-5/h1,4-5H,2-3H2,(H,7,8)
