19
gdb 37336	3.24461	1.84732	1.77513	2.0675	76.45	-0.2229	0.0775	0.3004	865.9828	0.164545	-382.007478	-382.001558	-382.000614	-382.037254	26.704	
C	 0.0471512956	 1.4704070744	-0.2073593991	-0.250814
C	 1.2971678011	 0.6996120688	 0.0176996118	-0.013554
C	 1.8770872139	 0.4712545257	 1.4337942277	-0.053253
C	 1.3050319501	-0.9556176823	 1.671716918	-0.215186
C	-0.1501911005	-0.4987739856	 1.4323677706	 0.005331
C	-0.2882014511	 0.6601478913	 2.420577586	-0.046968
N	 0.5859631552	 0.5650001961	 3.6166759464	-0.353276
C	 1.0546584041	 1.302486374	 2.4208003625	-0.039918
N	-0.0265640385	 0.0136049408	 0.0130752978	-0.118192
H	-0.3046189607	 2.1611761884	 0.5480180228	 0.11071
H	-0.2080039152	 1.7591656777	-1.2243300403	 0.109772
H	 1.9527650644	 0.4833596722	-0.823032021	 0.088064
H	 2.9596762175	 0.5858505669	 1.4943661079	 0.06373
H	 1.6275049915	-1.6606915864	 0.90368254	 0.100529
H	 1.4934864528	-1.3552452428	 2.665926906	 0.12571
H	-0.9252542912	-1.2641194205	 1.4737502854	 0.07187
H	-1.2103912309	 1.226516011	 2.4856396457	 0.093278
H	 0.257424863	 1.2493313005	 4.2942080563	 0.230956
H	 1.186145099	 2.3775227997	 2.4772363754	 0.091211
309.371	322.5813	385.533	463.2197	525.9811	566.5522	600.9748	704.2747	764.4108	792.2885	811.86	845.9588	853.3165	866.3899	903.62	931.3514	935.0749	955.5705	979.5324	1001.3597	1017.4736	1057.8644	1083.1685	1091.7532	1107.8346	1118.2088	1142.6538	1156.5628	1165.7457	1209.1836	1232.6268	1241.3774	1275.9116	1288.2299	1297.3207	1322.0016	1351.4601	1378.7416	1406.1939	1488.7623	1494.2887	3091.9537	3108.0785	3113.0146	3116.6005	3128.3539	3164.9485	3166.8554	3177.7078	3214.6905	3498.1736
C1C2C3CC(C4NC34)N12	C1[C@H]2[C@@H]3C[C@@H]([C@H]4N[C@@H]34)N12	
InChI=1S/C7H10N2/c1-3-5-2-9(5)4(1)7-6(3)8-7/h3-8H,1-2H2	InChI=1S/C7H10N2/c1-3-5-2-9(5)4(1)7-6(3)8-7/h3-8H,1-2H2/t3-,4-,5-,6-,7+,9?/m0/s1
