14
gdb 133510	2.80452	1.34133	1.11493	3.8917	57.15	-0.2605	-0.014	0.2465	1064.9157	0.097165	-564.339638	-564.331407	-564.330463	-564.373802	29.312	
F	 0.1306239751	 0.1639506143	 0.0156396809	-0.037736
C	-0.0902163219	 1.4678274393	 0.0326209327	 0.286391
F	 1.1055247648	 2.0930310706	-0.0419496973	-0.089004
F	-0.7768850644	 1.7997613329	-1.0674080207	-0.070238
C	-0.8228026312	 1.919576193	 1.2990106402	 0.163229
N	-0.9176780898	 1.100069677	 2.2620741261	-0.484575
N	-1.3674493286	 3.1939504651	 1.1918542955	-0.083922
C	-0.5928819711	 4.40581405	 0.9590982884	-0.226766
C	-1.2933839078	 4.1702079522	 2.2608869626	-0.240128
H	-1.4095507683	 1.5248962665	 3.0515124714	 0.226188
H	 0.4886462751	 4.3194428864	 0.9472827385	 0.147304
H	-1.013836509	 5.0919610854	 0.2306645343	 0.138872
H	-2.2168366207	 4.6947433756	 2.4863512267	 0.137303
H	-0.6776629923	 3.9232911719	 3.1235612508	 0.133082
28.2632	98.4263	177.2549	212.2597	280.0807	301.8262	392.6788	413.7758	518.8141	564.1451	645.0395	744.7978	753.6352	819.9768	868.4098	907.9944	956.4838	1045.4232	1058.7527	1123.0232	1138.8081	1161.9351	1173.7313	1179.4689	1215.9151	1248.6487	1326.795	1434.7398	1496.5941	1523.6402	1730.6986	3106.9038	3126.923	3196.8741	3221.6996	3455.8808
FC(F)(F)C(=N)N1CC1	FC(F)(F)[C]([NH])N1CC1	
InChI=1S/C4H5F3N2/c5-4(6,7)3(8)9-1-2-9/h8H,1-2H2	InChI=1S/C4H5F3N2/c5-4(6,7)3(8)9-1-2-9/h8H,1-2H2
