23
gdb 112625	3.89733	0.90569	0.87823	0.4286	83.09	-0.2396	0.0866	0.3262	1466.4675	0.203019	-425.400313	-425.38995	-425.389006	-425.435407	38.338	
C	-0.203980316	 1.3923992759	-0.1909716916	-0.237357
O	-0.1225112294	 0.09647369	 0.3570490382	-0.243065
C	-1.3028739099	-0.6605461676	 0.18107959	 0.131073
C	-1.4556417451	-1.299700096	-1.2308065152	-0.308852
C	-0.8662363095	-2.6209716261	-0.6720553326	 0.441493
C	 0.6083637523	-2.819498418	-1.0139254062	-0.456761
C	-1.1060322251	-2.072333672	 0.7751319746	-0.303391
O	-1.6746899956	-3.7175746425	-1.0582967171	-0.287639
C	-1.3998075889	-4.9374213033	-0.4060342966	-0.252394
H	 0.7445115992	 1.8934734712	 0.0172861101	 0.126296
H	-0.3631054403	 1.3769376091	-1.2795115268	 0.10701
H	-1.0212893532	 1.9722329377	 0.2661689733	 0.104463
H	-2.1681168526	-0.089127994	 0.5451567852	 0.063836
H	-2.5022332578	-1.4390557219	-1.5109473067	 0.108628
H	-0.9173318271	-0.8226833607	-2.0536134175	 0.099305
H	 1.1628114059	-1.9055099604	-0.7876150417	 0.135674
H	 1.0550386216	-3.6330709674	-0.4334950362	 0.110957
H	 0.7215029178	-3.0486765161	-2.078859704	 0.115079
H	-0.2947828712	-2.1604930572	 1.5010515182	 0.105061
H	-2.0322667257	-2.4671210892	 1.1991402154	 0.103783
H	-2.1912577094	-5.6350116461	-0.6920362775	 0.123947
H	-0.4336245149	-5.3690339822	-0.7028438774	 0.107956
H	-1.4075217254	-4.8304846632	 0.689241712	 0.104897
75.9563	105.9636	126.6463	159.916	193.0365	228.3408	269.6683	289.7091	325.4091	344.4113	359.5629	450.1672	469.9531	491.8449	650.8086	820.228	821.9502	836.5332	910.4839	913.3987	945.9804	977.1485	1003.7832	1084.6321	1106.9566	1120.7103	1162.904	1168.503	1181.758	1184.7835	1213.3433	1218.9502	1230.0984	1245.7477	1283.3173	1289.2696	1300.4595	1385.6842	1400.9669	1448.58	1470.7447	1476.7494	1481.146	1486.9558	1487.3948	1492.1577	1508.1431	1509.6237	1513.4383	2974.9864	2984.4153	2998.0582	3023.6639	3031.6287	3038.6884	3063.486	3069.0158	3103.3528	3108.4385	3113.8091	3124.9589	3127.1311	3129.6872
COC1CC(C)(C1)OC	CO[C@H]1C[C@@](C)(C1)OC	
InChI=1S/C7H14O2/c1-7(9-3)4-6(5-7)8-2/h6H,4-5H2,1-3H3	InChI=1S/C7H14O2/c1-7(9-3)4-6(5-7)8-2/h6H,4-5H2,1-3H3/t6-,7-
