19
gdb 92677	3.25838	1.16905	0.93976	1.7279	87.3	-0.2339	-0.0242	0.2096	1275.0903	0.158075	-385.876298	-385.867066	-385.866122	-385.910042	35.096	
C	-0.0228385807	 1.5703527088	 0.0317223485	-0.397249
C	 0.1154472814	 0.050684172	 0.0152697198	-0.002443
C	 0.9087991811	-0.5272448519	-1.1845904508	-0.27497
C	 1.5582382187	-1.7572944438	-0.611332465	-0.167783
C	 1.4722674239	-1.8092802048	 0.7288400199	 0.120511
C	 1.9900210436	-2.8144490885	 1.5797785956	 0.224866
C	 2.4043284015	-3.6546568194	 2.3378627714	-0.410145
C	 0.8053662543	-0.5496853859	 1.2759073018	 0.018367
O	 1.7550766388	 0.3058639386	 1.9040601689	-0.422953
H	 0.9548980148	 2.0548763823	 0.1050205906	 0.113958
H	-0.51327679	 1.925439814	-0.8805845307	 0.108889
H	-0.6171221068	 1.9053165116	 0.8873635551	 0.119987
H	-0.8855126789	-0.3966247329	-0.02081225	 0.082544
H	 0.2619497733	-0.7542981748	-2.0398534283	 0.112541
H	 1.6658921156	 0.1775463548	-1.5602890699	 0.108448
H	 2.051207051	-2.5071329029	-1.2200448642	 0.104472
H	 2.7764996191	-4.3971887158	 2.9990818667	 0.190897
H	 0.0770775258	-0.767485787	 2.0623529089	 0.090663
H	 2.5409414034	 0.3347424356	 1.3472070618	 0.279399
66.9423	132.3221	163.7595	221.1747	250.9683	271.0044	320.409	346.6788	396.2162	446.0164	533.7908	592.2202	597.6717	630.3446	642.5041	692.0991	818.9713	852.1514	883.9	915.0668	940.8475	997.3399	1010.9935	1075.1426	1115.4027	1137.8562	1166.1732	1206.1551	1247.1564	1276.3947	1301.3902	1308.6842	1346.8473	1367.5585	1411.0143	1430.3187	1483.3052	1491.7956	1497.0817	1665.8262	2222.0479	2997.0146	3025.9735	3038.0124	3055.689	3074.2292	3104.2137	3114.1032	3197.5419	3504.1719	3802.2873
CC1CC=C(C#C)C1O	C[C@H]1CC=C(C#C)[C@H]1O	
InChI=1S/C8H10O/c1-3-7-5-4-6(2)8(7)9/h1,5-6,8-9H,4H2,2H3	InChI=1S/C8H10O/c1-3-7-5-4-6(2)8(7)9/h1,5-6,8-9H,4H2,2H3/t6-,8-/m0/s1
