20
gdb 16150	4.14437	1.60332	1.36331	0.2393	79.34	-0.2226	0.0252	0.2477	986.935	0.178133	-311.875063	-311.867424	-311.86648	-311.906731	30.207	
C	-0.2949197703	 1.4922208059	-0.0672424948	-0.374133
C	 0.1403658935	 0.0254201452	 0.0490513128	-0.278219
C	 0.8406228323	-0.4924346888	-1.1891944933	 0.381161
C	 0.0135816896	-1.0078764772	-2.3415330421	-0.319001
C	 0.8763049991	-1.973709199	-1.5462240367	-0.136081
C	 2.2322515254	-2.2201777943	-2.1136932656	-0.06776
C	 2.9613942855	-1.1023161416	-2.1491474016	-0.085894
C	 2.2243358783	 0.0740936774	-1.5437098638	-0.327211
H	 0.5650500156	 2.1508408047	-0.2283670339	 0.117088
H	-0.9810769007	 1.6315586981	-0.9092244656	 0.11665
H	-0.8033020857	 1.8272274983	 0.8423200508	 0.108696
H	 0.8047033391	-0.0901424444	 0.9163456791	 0.093873
H	-0.7386461532	-0.5987448078	 0.2531163151	 0.091386
H	-1.0606242567	-1.0557256136	-2.1875195706	 0.103364
H	 0.3151060301	-0.7861942403	-3.3607006472	 0.106166
H	 0.3890928742	-2.7252209087	-0.9332160844	 0.080669
H	 2.5489413295	-3.1901739058	-2.4805375847	 0.091627
H	 3.9566301122	-1.0121898179	-2.5697484342	 0.089654
H	 2.1648365832	 0.9246715795	-2.2349048479	 0.107231
H	 2.739301819	 0.4468345004	-0.6458081314	 0.100733
91.3324	157.8493	214.5906	269.6745	344.3975	374.0058	397.2587	494.7549	613.4613	715.9122	745.9871	773.0885	788.7335	845.3798	887.5926	918.0201	947.4607	958.3924	969.8298	992.5418	1011.2783	1037.1698	1065.1447	1073.0514	1085.0923	1112.6799	1142.7293	1177.1711	1245.0111	1250.4882	1297.6459	1333.5392	1358.6018	1376.2834	1400.4472	1410.1427	1470.7022	1478.556	1492.8183	1498.899	1508.1711	1669.3906	2996.9725	3011.6282	3032.7571	3037.683	3046.9822	3101.9115	3103.6717	3114.4432	3156.638	3183.0147	3202.3227	3208.0411
CCC12CC1C=CC2	CC[C@]12C[C@H]1C=CC2	
InChI=1S/C8H12/c1-2-8-5-3-4-7(8)6-8/h3-4,7H,2,5-6H2,1H3	InChI=1S/C8H12/c1-2-8-5-3-4-7(8)6-8/h3-4,7H,2,5-6H2,1H3/t7-,8+/m1/s1
