14
gdb 5507	3.70836	1.97398	1.29897	4.4471	72.4	-0.2291	-0.0215	0.2076	883.5896	0.109159	-341.640686	-341.633448	-341.632504	-341.672646	25.861	
C	-0.0063757217	 1.4357411322	 0.0565847652	-0.346487
N	-0.0289596165	-0.015676092	 0.016639132	-0.054638
C	-0.0025576615	-0.785070056	-1.1072296002	-0.091637
C	 0.0411440703	-2.1170585343	-0.7407304859	-0.149779
C	 0.0459466398	-2.162150025	 0.6678743304	-0.237695
C	 0.0050295697	-0.8505121102	 1.120441046	 0.203596
C	-0.0129237228	-0.3424657444	 2.4359587137	 0.206278
N	-0.0295501848	 0.0921069216	 3.511556996	-0.363221
H	 1.0118170913	 1.8140724473	 0.1940113449	 0.153038
H	-0.4072273916	 1.8236726212	-0.8812760406	 0.14624
H	-0.6256529952	 1.7935642492	 0.8813931941	 0.168404
H	-0.0176957829	-0.3238439703	-2.0823651087	 0.130428
H	 0.0573558964	-2.957930602	-1.4158877111	 0.11235
H	 0.0657187994	-3.0358715073	 1.2997072242	 0.123123
64.5233	151.6807	159.3612	201.6605	355.7847	508.4946	540.6222	603.791	612.8909	668.9093	719.4509	746.797	809.1388	868.1787	903.9891	1036.7277	1079.0473	1115.1801	1151.2126	1195.2519	1259.4592	1344.1331	1406.9093	1443.1783	1454.5084	1485.9287	1503.7112	1523.6633	1570.1795	2329.5361	3046.0873	3118.2834	3148.9009	3250.768	3263.0126	3274.3673
CN1C=CC=C1C#N	Cn1cccc1C#N	
InChI=1S/C6H6N2/c1-8-4-2-3-6(8)5-7/h2-4H,1H3	InChI=1S/C6H6N2/c1-8-4-2-3-6(8)5-7/h2-4H,1H3
