17
gdb 62319	3.97319	1.30044	1.13764	5.2055	76.82	-0.2434	0.0072	0.2506	1080.0387	0.13564	-380.77917	-380.771302	-380.770358	-380.811408	30.592	
C	-0.0787690379	 1.5985495252	 0.0148234925	-0.504555
C	 0.0299897089	 0.0737162228	-0.0885150667	 0.146031
C	-1.08185761	-0.5778226382	 0.5922112767	 0.275055
N	-1.9933575866	-1.0644968002	 1.1105915675	-0.341509
C	 0.5577709275	-0.7961451055	-1.193675371	-0.06302
C	 1.8220878452	-0.3580762035	-1.9484321747	-0.084376
C	 2.4108283122	 0.9425233585	-1.4812997241	-0.309458
C	 2.4849293667	-0.2661357805	-0.5887092767	-0.00914
N	 1.2495218549	-0.7758305508	 0.1335191999	-0.165521
H	-0.1827000983	 2.0696688573	-0.9643060682	 0.149051
H	-0.9633911687	 1.853717778	 0.6009554887	 0.151058
H	 0.7875870333	 2.020414407	 0.5275295423	 0.154523
H	-0.003550331	-1.6730462066	-1.5030371689	 0.121661
H	 2.1522969195	-0.8715843793	-2.8409765218	 0.110104
H	 3.3740191781	 1.1438339148	-1.9438014897	 0.126765
H	 1.8413797182	 1.8364539197	-1.2880122969	 0.123989
H	 3.422318968	-0.6692002089	-0.2292906387	 0.119341
84.113	164.923	193.9829	262.7416	304.3354	348.5015	436.4462	523.8865	544.402	586.4676	667.7356	698.676	737.7762	772.0652	852.9458	874.5015	892.7709	954.5016	988.8595	1004.1624	1018.7663	1058.3759	1071.4433	1079.7925	1088.3334	1093.1314	1178.8651	1213.2716	1270.3135	1283.4422	1335.9176	1371.0062	1416.0473	1485.6148	1502.7327	1513.8867	2354.9496	3060.726	3134.7911	3140.4564	3142.6999	3152.2311	3199.55	3210.9284	3267.8684
CC1(C#N)C2C3CC3N12	C[C@@]1(C#N)[C@H]2[C@H]3C[C@H]3N12	
InChI=1S/C7H8N2/c1-7(3-8)6-4-2-5(4)9(6)7/h4-6H,2H2,1H3	InChI=1S/C7H8N2/c1-7(3-8)6-4-2-5(4)9(6)7/h4-6H,2H2,1H3/t4-,5+,6+,7+,9?/m0/s1
