13
gdb 129256	3.45064	1.82243	1.20166	3.1844	66.14	-0.2744	-0.0366	0.2378	928.329	0.093208	-448.954255	-448.948043	-448.947099	-448.985067	23.454	
N	-0.1009547808	 1.3151382732	 0.0099802749	-0.53638
C	-0.0476083405	 0.0643581843	 0.00289464	 0.506309
O	 1.0643183416	-0.7408847758	-0.0062932836	-0.267484
C	 0.7192471374	-2.1481160788	-0.012538333	-0.20736
C	-0.7720915491	-2.1131085592	-0.005932593	 0.374299
N	-1.8191650801	-2.8998997445	-0.0057494525	-0.363711
C	-2.8444657286	-1.9783792902	 0.0037205074	 0.032741
N	-2.4885884779	-0.7012094758	 0.0091958191	-0.233057
N	-1.1406997824	-0.8169353271	 0.0027630725	-0.019981
H	 0.833548027	 1.7201083127	 0.0081850448	 0.245963
H	 1.1413984737	-2.6139862603	-0.9081808323	 0.162615
H	 1.149067848	-2.6237771316	 0.8742657899	 0.162615
H	-3.8841911383	-2.2697288969	 0.0065937659	 0.14343
147.7852	185.9336	252.077	320.3552	558.7957	648.8105	653.6967	672.6956	675.812	723.6881	797.9206	840.1636	915.7181	957.5199	981.8549	1030.6952	1051.9427	1144.1269	1170.8753	1185.7934	1204.5665	1284.8429	1337.8642	1387.4618	1437.7329	1469.4969	1502.0147	1604.5097	1820.113	3056.4171	3099.2759	3266.6913	3526.426
N=C1OCC2=NC=NN12	[NH][C]1OCc2ncnn12	
InChI=1S/C4H4N4O/c5-4-8-3(1-9-4)6-2-7-8/h2,5H,1H2	InChI=1S/C4H4N4O/c5-4-8-3(1-9-4)6-2-7-8/h2,5H,1H2
