16
gdb 44097	3.87393	1.47055	1.21897	5.111	68.27	-0.2368	-0.0019	0.2349	999.3204	0.125742	-437.855678	-437.848829	-437.847885	-437.886891	27.215	
O	 0.0483735708	 0.0823549061	-0.1696101209	-0.312306
C	 0.0826819433	 1.2622094995	-0.0653558987	 0.450496
O	-1.0000403719	 2.1298952955	 0.0656204773	-0.296805
C	-0.1340900707	 3.2709212576	 0.1994245978	 0.476688
C	-0.327535176	 4.6833978324	-0.2986946556	-0.332403
C	 0.6835625309	 5.1183985756	 0.8231793528	-0.239378
C	 0.5335553085	 3.7207768908	 1.5292139738	-0.059099
N	 1.5987693755	 2.7083258055	 1.3647824222	-0.323241
C	 1.1207433941	 2.4077796982	-0.0088313755	-0.265416
H	-0.0755647363	 4.8995929268	-1.3395944358	 0.112917
H	-1.3351955201	 5.0546065765	-0.0917556028	 0.128317
H	 1.6943111488	 5.3017618314	 0.4514806161	 0.10865
H	 0.3672583332	 5.9714531994	 1.4245873657	 0.119418
H	 0.0408126201	 3.7318085171	 2.5026428107	 0.09503
H	 2.5522768201	 3.0489427759	 1.4175692464	 0.229163
H	 1.8175155396	 2.4858857616	-0.8450662436	 0.107968
119.9906	189.8466	266.8682	336.3173	404.5958	461.7601	479.9272	647.3232	685.5814	727.6214	784.6257	800.3859	843.221	873.0207	891.4783	904.2018	958.3494	968.7052	1009.3068	1054.6003	1097.6596	1123.7263	1127.6506	1157.6239	1204.126	1221.9055	1239.8236	1253.7913	1292.6005	1316.3441	1329.8253	1381.1029	1469.89	1493.6251	1948.0217	3061.7202	3073.7981	3100.2681	3104.5937	3112.39	3137.5963	3538.4194
O=C1OC23CCC2NC13	O=C1O[C@@]23CC[C@@H]2N[C@@H]13	
InChI=1S/C6H7NO2/c8-5-4-6(9-5)2-1-3(6)7-4/h3-4,7H,1-2H2	InChI=1S/C6H7NO2/c8-5-4-6(9-5)2-1-3(6)7-4/h3-4,7H,1-2H2/t3-,4-,6-/m0/s1
