22
gdb 9423	6.38832	0.68887	0.64991	2.4036	75.31	-0.255	0.062	0.3171	1767.6111	0.198638	-387.345107	-387.334858	-387.333914	-387.380763	36.631	
C	-0.0266313983	 1.5851167787	-0.046183296	-0.379517
C	-0.0168085809	 0.0540553923	-0.0471894622	-0.166764
C	-1.419361996	-0.5541618687	 0.0517614232	-0.156233
C	-1.4200514517	-2.0868272927	 0.0539408265	-0.214976
C	-2.8190785989	-2.7001348021	 0.0861599358	 0.094959
O	-3.6117900958	-2.3074688733	-1.0448450378	-0.438461
C	-2.808794443	-4.2287543442	 0.1676582912	-0.060717
O	-4.1201144609	-4.7468130894	 0.1258367307	-0.425492
H	 0.986502936	 1.9921550271	-0.1214086144	 0.111538
H	-0.6072265907	 1.977030151	-0.8886998346	 0.114675
H	-0.4757279781	 1.9771332428	 0.8731217688	 0.114997
H	 0.4720594156	-0.3086914815	-0.9614736767	 0.091996
H	 0.5977912297	-0.3096087097	 0.7872076853	 0.094191
H	-1.9095765799	-0.1934274921	 0.9664652357	 0.095047
H	-2.0381844057	-0.1983535369	-0.7806783833	 0.103733
H	-0.8897925701	-2.4601786217	-0.8361014336	 0.085361
H	-0.854271779	-2.4596585786	 0.9182974998	 0.101587
H	-3.3772558904	-2.31426283	 0.9480217972	 0.096199
H	-3.1016868013	-2.5089452299	-1.839008309	 0.280734
H	-2.1902560165	-4.6273281713	-0.6589479154	 0.068237
H	-2.3496825656	-4.5593443496	 1.1060801061	 0.105175
H	-4.5844509883	-4.2009745502	-0.5227753973	 0.283729
61.5543	72.8142	98.2928	138.5364	160.9654	240.5135	246.2328	293.8427	323.163	354.5868	434.2205	484.4785	519.1405	585.0195	736.3139	790.2903	856.344	903.418	912.9347	990.4402	1015.3498	1055.6171	1071.0148	1088.6296	1103.0011	1120.3296	1150.1136	1210.5254	1232.665	1258.8707	1295.3067	1315.1783	1330.2553	1339.3739	1377.1776	1388.155	1401.9802	1414.2494	1421.5772	1445.9889	1476.9346	1486.4852	1499.5264	1499.87	1507.2541	1513.6487	2925.15	2990.4545	3009.4474	3019.8644	3030.1019	3033.8396	3037.9491	3047.7565	3065.6471	3072.3255	3096.6347	3102.3695	3757.8979	3780.2155
CCCCC(O)CO	CCCC[C@@H](O)CO	
InChI=1S/C6H14O2/c1-2-3-4-6(8)5-7/h6-8H,2-5H2,1H3	InChI=1S/C6H14O2/c1-2-3-4-6(8)5-7/h6-8H,2-5H2,1H3/t6-/m1/s1
