16
gdb 12766	3.33109	1.70851	1.37697	3.2542	65.5	-0.2398	-0.0251	0.2147	926.3616	0.128547	-383.715412	-383.707672	-383.706728	-383.747732	28.274	
C	-0.0860484997	 1.5317590008	 0.0786351718	-0.501452
C	 0.1436099759	 0.0576322916	 0.0280968588	 0.391945
O	-0.7506569642	-0.8052322449	 0.7448912928	-0.281592
C	 0.6573329615	-0.9270184415	 0.9967253001	-0.034187
C	 1.2296998436	-1.817738825	-0.1101209403	-0.274223
C	 0.6929119282	-0.7771387764	-1.1678204507	-0.145507
C	-0.3352049673	-1.2599368661	-2.1554420997	 0.153863
O	-0.2356173574	-1.1486530534	-3.3525309287	-0.259028
H	 0.8012604449	 2.0742667559	-0.2619999116	 0.131456
H	-0.9237733387	 1.8174610795	-0.5671416585	 0.140013
H	-0.3207607264	 1.8430056378	 1.0999748977	 0.139264
H	 0.9831582393	-0.8107388147	 2.0239683849	 0.109628
H	 2.3198497855	-1.8739316908	-0.1214607772	 0.120358
H	 0.8101151779	-2.8259921338	-0.1544786408	 0.120346
H	 1.5021195593	-0.2736021909	-1.7005857468	 0.095833
H	-1.2232021924	-1.738438168	-1.6896012918	 0.093284
69.3295	140.2129	197.4179	216.2872	287.1252	335.3448	433.9363	447.0393	541.5575	629.7729	740.9228	820.0659	858.7658	886.9525	917.1839	970.0538	1000.8572	1042.5832	1065.0376	1097.8492	1113.4049	1173.7511	1184.5503	1209.8372	1259.6361	1267.8879	1298.1679	1404.8188	1420.7308	1458.4301	1476.2913	1484.4296	1495.8156	1820.0078	2909.4294	3037.4016	3069.1211	3098.8351	3102.1914	3123.8782	3130.4173	3188.2131
CC12OC1CC2C=O	C[C@]12O[C@H]1C[C@H]2C=O	
InChI=1S/C6H8O2/c1-6-4(3-7)2-5(6)8-6/h3-5H,2H2,1H3	InChI=1S/C6H8O2/c1-6-4(3-7)2-5(6)8-6/h3-5H,2H2,1H3/t4-,5-,6+/m0/s1
