21
gdb 96247	2.35967	1.48223	1.03628	1.4585	87.4	-0.2249	-0.0214	0.2035	1203.6304	0.18475	-387.096809	-387.088391	-387.087447	-387.129513	33.58	
O	 0.0856868275	 1.4450159024	 0.0254056997	-0.434545
C	 0.0592385884	 0.008310279	 0.0013217576	 0.088238
C	-1.3799791044	-0.4915629874	 0.1937091738	-0.217348
C	-1.5196322306	-1.9154853221	 0.749576503	-0.201731
C	-0.7815590499	-2.9887547729	-0.0790755554	-0.252414
C	-1.1670426942	-2.9639634254	-1.5288922149	-0.050899
C	-0.6067305813	-2.1711179889	-2.4515297527	-0.084344
C	 0.5134949897	-1.2472722731	-2.2525401453	-0.094072
C	 0.819040454	-0.4289344762	-1.233416037	-0.086801
H	-0.3346961295	 1.7459960587	-0.7883790814	 0.273951
H	 0.6492985669	-0.2691126836	 0.8865551022	 0.091827
H	-1.8486418884	 0.2052299297	 0.8964231446	 0.104472
H	-1.9244883299	-0.4009961092	-0.7528677983	 0.099135
H	-1.1425668668	-1.9486281039	 1.7794636038	 0.097405
H	-2.5867680051	-2.163180415	 0.8045857975	 0.095883
H	 0.2983989723	-2.8183345853	 0.0072063313	 0.11345
H	-0.9874934231	-3.975510958	 0.349927414	 0.095004
H	-1.9723711055	-3.6262681906	-1.8395817526	 0.087553
H	-0.9423585677	-2.2671333107	-3.4829544225	 0.086966
H	 1.221223368	-1.2427900252	-3.0826730855	 0.092721
H	 1.7539888095	 0.1233654475	-1.3184491719	 0.09555
80.2975	217.0304	243.104	245.107	275.1294	302.1886	337.1571	399.6597	456.5019	532.3068	543.3036	626.8439	696.3966	801.9027	813.1972	817.8908	831.3004	872.6077	903.0679	990.8201	1003.4071	1007.824	1025.4908	1038.224	1068.7014	1082.3678	1128.5677	1180.1049	1191.1253	1250.2559	1275.2242	1285.8437	1297.6666	1336.0359	1366.9718	1378.7462	1400.4836	1406.2797	1424.9955	1450.6234	1483.2198	1494.0281	1497.4163	1690.8103	1704.0477	3003.6054	3020.9048	3028.1464	3042.516	3057.8651	3074.2687	3086.2766	3106.5265	3129.8496	3141.7253	3156.5249	3793.3381
OC1CCCC=CC=C1	O[C@H]1CCCC=CC=C1	
InChI=1S/C8H12O/c9-8-6-4-2-1-3-5-7-8/h1-2,4,6,8-9H,3,5,7H2/b2-1-,6-4-	InChI=1S/C8H12O/c9-8-6-4-2-1-3-5-7-8/h1-2,4,6,8-9H,3,5,7H2/b2-1-,6-4-/t8-/m1/s1
