17
gdb 111728	3.31979	1.17358	1.00448	3.0412	74.22	-0.25	0.0072	0.2572	1178.7382	0.137561	-417.963551	-417.955407	-417.954463	-417.996583	30.598	
O	 0.2709048641	 0.7946311825	-0.8880785643	-0.419351
C	 0.0122728405	 0.0459891981	 0.2792793859	-0.095682
C	-1.3861634422	-0.5798989136	 0.2784809912	-0.088149
C	-2.0002064289	-1.1201794719	-0.9635606729	-0.065716
N	-0.9350813589	-1.669908903	-1.8270469602	-0.342814
C	-0.6563137296	-2.7387780418	-0.8083262352	-0.235863
C	-1.6412149977	-2.0895469525	 0.1803590868	 0.156647
C	-2.4592729885	-2.8009799283	 1.0996598134	 0.183927
N	-3.1245200269	-3.3885369016	 1.8440760561	-0.349696
H	 0.1769829	 0.1648405884	-1.6183058777	 0.293185
H	 0.7738722902	-0.7317760811	 0.4409795619	 0.093889
H	 0.0899561493	 0.7391794613	 1.1220207034	 0.118117
H	-2.1185293166	-0.1059486786	 0.9259199141	 0.121252
H	-2.9686639178	-0.8277863678	-1.349971912	 0.124265
H	-1.3111393738	-2.0719864178	-2.6781634292	 0.242039
H	-1.0081256789	-3.7227532951	-1.1263787649	 0.134423
H	 0.3921541857	-2.8067359072	-0.5038258164	 0.129526
77.2828	120.1494	165.4535	224.7599	252.6572	361.5647	393.341	504.6349	547.2792	587.7076	603.0209	679.7552	751.2721	783.3705	846.4177	904.5324	940.521	965.8232	989.7004	1013.4989	1052.1933	1062.219	1091.7814	1114.0375	1156.638	1213.3941	1225.07	1256.8502	1283.4686	1342.3064	1358.3688	1390.8476	1451.4721	1468.0748	1498.4534	1518.686	2340.3212	2985.1853	3056.7554	3080.6852	3113.0132	3159.8181	3199.2557	3544.0152	3706.5812
OCC1C2NCC12C#N	OC[C@H]1[C@H]2NC[C@@]12C#N	
InChI=1S/C6H8N2O/c7-2-6-3-8-5(6)4(6)1-9/h4-5,8-9H,1,3H2	InChI=1S/C6H8N2O/c7-2-6-3-8-5(6)4(6)1-9/h4-5,8-9H,1,3H2/t4-,5+,6-/m0/s1
