17
gdb 28159	5.09517	1.24113	1.00427	3.2467	83.35	-0.1693	0.0505	0.2198	1159.0928	0.138028	-380.921301	-380.913048	-380.912104	-380.953874	31.037	
C	-0.016083134	 1.4781680799	 0.0777844258	-0.502841
C	-0.0015438101	-0.0082265885	-0.0457907808	 0.337197
C	-0.0382375095	-0.8168927712	-1.1575602863	-0.42943
C	-0.0003262101	-2.1791636237	-0.7070145102	 0.329029
C	 0.058195841	-2.1162981452	 0.6798459126	 0.385231
N	 0.0980758616	-3.3712613684	 1.2154134282	-0.413626
C	 0.064628929	-4.2694046346	 0.144898887	-0.074376
C	 0.0047177991	-3.5737970904	-1.0383132406	-0.328108
N	 0.0588941429	-0.8154935375	 1.0998749776	-0.467609
H	 0.8855511459	 1.8669764616	 0.5699203737	 0.119858
H	-0.0672719506	 1.9293011689	-0.9159140395	 0.136968
H	-0.8797571507	 1.8429632839	 0.6498836689	 0.11972
H	-0.0866173765	-0.4563749002	-2.1743869914	 0.085539
H	 0.1447202401	-3.6254761882	 2.1848273055	 0.254547
H	 0.0870244881	-5.330042478	 0.3363449503	 0.109825
H	-0.0312052373	-4.0219481754	-2.0195360426	 0.087422
H	 0.0923761211	-0.4735457728	 2.0431736619	 0.250654
122.3179	130.5827	149.4425	214.5094	273.5843	281.1508	352.4413	492.5458	556.3375	597.525	613.397	658.8498	744.2849	749.7236	782.589	803.9314	809.8721	928.6353	978.0738	1008.4827	1061.4506	1066.7226	1096.5698	1157.1566	1193.5089	1235.7653	1320.9614	1347.895	1395.5994	1415.2663	1470.4914	1477.6786	1492.3361	1508.1646	1542.9045	1612.3516	1633.8491	3005.118	3044.1255	3120.0484	3239.5679	3243.8743	3269.8725	3688.7771	3698.8645
CC1=CC2=C(NC=C2)N1	Cc1cc2c([nH]cc2)[nH]1	
InChI=1S/C7H8N2/c1-5-4-6-2-3-8-7(6)9-5/h2-4,8-9H,1H3	InChI=1S/C7H8N2/c1-5-4-6-2-3-8-7(6)9-5/h2-4,8-9H,1H3
