17
gdb 38504	3.15556	1.78479	1.60305	0.6657	70.07	-0.2522	0.0706	0.3228	891.9672	0.137219	-421.766089	-421.759501	-421.758557	-421.796755	27.201	
C	-0.0001296306	 1.6026706709	 0.0554757429	-0.294588
C	 1.5724606945	 1.5855027927	 0.1555474586	-0.295524
C	 1.5157888592	 0.0695734935	-0.1048020713	 0.282374
O	 0.7014417171	-0.5370239395	 0.9060462436	-0.302766
C	 0.0500731308	 0.0851849693	-0.2069751693	 0.32274
C	-0.4527163032	-0.8743253323	-1.266593302	-0.350039
C	 0.8644981509	-1.4554370541	-1.8074137604	 0.070703
O	 1.6967188669	-0.4850286536	-2.4541106152	-0.255154
C	 2.0470183687	-0.8874069916	-1.1195303514	-0.081974
H	-0.5563986717	 1.9079747609	 0.9441786192	 0.112194
H	-0.3511606224	 2.1697629201	-0.8093453886	 0.115825
H	 2.0429464082	 2.1330004477	-0.6629812162	 0.123108
H	 2.0189811417	 1.885084743	 1.1057737599	 0.112267
H	-1.1018227434	-1.6570004551	-0.8614449472	 0.118022
H	-0.9974367307	-0.3541864566	-2.0609406951	 0.121384
H	 0.8846908774	-2.4468615105	-2.2531425795	 0.101403
H	 2.9886451967	-1.4208001048	-1.0213708981	 0.100024
159.1228	208.9552	317.2768	371.6757	472.5189	478.2289	518.0842	642.1531	698.4176	750.9463	770.1374	794.6486	837.3979	855.9606	895.9086	918.8218	932.5872	951.6142	974.4283	1036.7808	1077.2048	1088.4034	1126.0085	1163.4431	1202.0833	1217.3055	1226.3229	1250.9202	1259.8541	1271.1425	1317.1513	1345.6669	1400.7273	1424.2441	1462.5407	1469.1303	1486.6896	3051.0675	3069.4709	3077.1292	3096.2596	3123.2213	3140.8145	3143.8366	3155.7134
C1CC23OC12CC1OC31	C1C[C@@]23O[C@@]12C[C@H]1O[C@@H]31	
InChI=1S/C7H8O2/c1-2-7-5-4(8-5)3-6(1,7)9-7/h4-5H,1-3H2	InChI=1S/C7H8O2/c1-2-7-5-4(8-5)3-6(1,7)9-7/h4-5H,1-3H2/t4-,5-,6-,7+/m1/s1
