20
gdb 14352	3.03496	1.99922	1.93228	1.3883	73.22	-0.2588	0.0691	0.3279	845.8897	0.179486	-349.008744	-349.001499	-349.000555	-349.039995	29.104	
O	-0.0501203822	 1.3977186602	 0.5496379196	-0.433513
C	 0.0303920331	 0.0542751154	 0.0686673795	 0.123103
C	 0.7434075439	-0.8847744855	 1.0633840707	-0.251728
C	-0.3194296083	-1.2733338611	 2.1048764771	 0.010003
C	-0.6732328151	-0.2173679941	 3.1939297742	-0.214567
C	-2.0472218131	 0.0391614907	 2.5113991055	-0.215198
C	-1.7106172669	-1.0199868494	 1.4192722633	 0.002831
C	-1.4024100542	-0.4969708242	 0.0059755681	-0.223065
H	 0.8470364227	 1.709690589	 0.7041549251	 0.279107
H	 0.514820619	 0.0435101921	-0.9186913041	 0.056908
H	 1.0858036755	-1.7767760887	 0.5239781887	 0.094035
H	 1.632589056	-0.4177589071	 1.5046175159	 0.083149
H	-0.1488504105	-2.2770635524	 2.5003424941	 0.057677
H	-0.7401711687	-0.6286586117	 4.2045735807	 0.088753
H	-0.0088620495	 0.6489815997	 3.2181716511	 0.090089
H	-2.9124550742	-0.2162349436	 3.1286078307	 0.087011
H	-2.1781404762	 1.0518917967	 2.126889492	 0.110858
H	-2.3989527814	-1.8676742369	 1.3965677382	 0.056512
H	-2.1025050469	 0.2700330671	-0.3381141914	 0.106258
H	-1.4317264628	-1.3220560461	-0.7149804188	 0.091779
91.1915	160.0869	305.2541	312.5983	347.0173	394.2371	409.738	600.6449	724.7706	731.3984	767.8243	807.002	829.3932	842.6712	886.185	925.1924	950.1646	958.1807	966.9812	1021.3803	1051.5729	1069.5893	1081.2828	1154.9021	1160.4078	1177.2364	1200.7452	1235.7453	1253.2577	1266.8253	1270.6487	1283.0104	1304.8433	1323.4465	1334.045	1358.027	1372.6395	1421.5001	1463.7622	1470.9515	1479.4944	1490.2053	2987.1548	3023.0497	3041.1967	3054.8315	3060.8752	3063.2349	3069.9173	3083.7818	3094.4361	3106.8227	3126.9825	3816.8809
OC1CC2CCC2C1	O[C@H]1C[C@H]2CC[C@H]2C1	
InChI=1S/C7H12O/c8-7-3-5-1-2-6(5)4-7/h5-8H,1-4H2	InChI=1S/C7H12O/c8-7-3-5-1-2-6(5)4-7/h5-8H,1-4H2/t5-,6+,7+
