17
gdb 53628	17.33464	0.40872	0.40228	1.3989	102.42	-0.241	-0.0132	0.2278	2599.0959	0.132265	-347.483246	-347.472524	-347.47158	-347.521625	36.308	
C	-0.017267748	 1.4976766861	 0.0058329414	-0.497043
C	 0.0027002385	 0.0430128223	-0.0536113536	 0.103845
C	 0.0346231073	-1.1595166997	-0.1063835708	 0.030134
C	 0.0327222557	-2.6157520929	-0.1606963115	-0.343706
C	-1.3692588009	-3.2104491048	 0.1507319671	-0.381541
C	-1.3833976989	-4.6628510876	 0.0994130956	 0.344097
C	-1.3693287618	-5.8722789145	 0.0505125275	-0.20544
C	-1.3580582155	-7.2319318897	-0.0033816893	 0.28843
C	-1.3477040777	-8.438600208	-0.0512981367	-0.552588
H	 0.6949038245	 1.8760110839	 0.7474366391	 0.149041
H	 0.2451787996	 1.9398319003	-0.9615948766	 0.148971
H	-1.0100826188	 1.8704633784	 0.2810371102	 0.148427
H	 0.3502726744	-2.9617622924	-1.1512106337	 0.141078
H	 0.7561597975	-3.0258860976	 0.5535222796	 0.141076
H	-1.6889870736	-2.8681263619	 1.1421883277	 0.14764
H	-2.0951289014	-2.8038970436	-0.563567816	 0.147646
H	-1.339116931	-9.4992674283	-0.09329442	 0.189934
12.5227	37.6307	51.5159	114.0836	153.2119	220.0812	221.7606	288.1265	354.6308	389.6041	433.2206	483.2673	531.1256	533.4641	590.2789	596.0757	710.7079	762.912	806.149	991.7059	1026.6994	1053.7328	1056.3412	1169.3104	1178.2372	1191.7598	1283.9328	1302.8706	1363.5899	1415.3305	1467.6204	1478.2471	1479.0065	1481.2612	2181.8812	2363.5143	2374.36	3026.8157	3028.234	3037.7457	3055.9834	3077.4022	3087.4973	3087.7848	3506.5764
CC#CCCC#CC#C	CC#CCCC#CC#C	
InChI=1S/C9H8/c1-3-5-7-9-8-6-4-2/h1H,8-9H2,2H3	InChI=1S/C9H8/c1-3-5-7-9-8-6-4-2/h1H,8-9H2,2H3
