17
gdb 30003	3.28605	1.64461	1.11126	4.0942	81.25	-0.1899	0.0036	0.1936	1061.9362	0.138731	-380.910306	-380.902876	-380.901932	-380.942268	28.385	
C	-0.0185389909	 1.4570645319	 0.0244688021	-0.34551
N	-0.0203646771	 0.010215609	 0.0413525543	-0.12315
C	-0.0703814036	-0.8239811074	-1.0586988287	-0.036991
N	-0.0592143216	-2.104826104	-0.7473993195	-0.363951
C	 0.0009798436	-2.1016973117	 0.6226828766	 0.264514
C	 0.0255674682	-0.8252290099	 1.1246150556	 0.279867
C	 0.0908526591	-0.8254887322	 2.6165381057	-0.414256
C	 0.0994105108	-2.3325249602	 2.8856306762	-0.090634
C	 0.0478198704	-3.0425883741	 1.7395534875	-0.179673
H	 0.8926157914	 1.8530877989	 0.4846137813	 0.143123
H	-0.0638046064	 1.8013660875	-1.0105125214	 0.146188
H	-0.8840266982	 1.8562106598	 0.5633404145	 0.143126
H	-0.1133788165	-0.4158922435	-2.0584758932	 0.12129
H	 0.9906245154	-0.3431212651	 3.0219291285	 0.12787
H	-0.7680190973	-0.3393348681	 3.0988128689	 0.127861
H	 0.14249299	-2.7343207399	 3.8889546253	 0.096078
H	 0.0419105828	-4.1212666312	 1.6558568163	 0.104247
99.3097	152.076	197.0367	244.8958	298.6455	436.6568	508.8524	612.913	615.5459	662.748	684.2191	762.1816	775.8958	791.3925	861.1216	920.4177	926.8981	948.5925	1051.6771	1067.1077	1125.2712	1128.1177	1151.8741	1204.3279	1241.7109	1266.903	1307.814	1355.618	1431.2585	1440.1893	1454.7389	1462.2387	1481.3174	1510.5535	1532.4339	1546.4936	1614.1476	3020.0821	3035.1428	3046.9875	3093.3457	3134.9649	3214.7874	3236.8745	3240.5413
CN1C=NC2=C1CC=C2	Cn1cnc2c1CC=C2	
InChI=1S/C7H8N2/c1-9-5-8-6-3-2-4-7(6)9/h2-3,5H,4H2,1H3	InChI=1S/C7H8N2/c1-9-5-8-6-3-2-4-7(6)9/h2-3,5H,4H2,1H3
