16
gdb 54641	4.16221	1.21643	1.01178	1.3985	70.9	-0.216	-0.0265	0.1895	1144.2547	0.125682	-434.101725	-434.093553	-434.092608	-434.135042	30.578	
N	-0.0808249554	 1.2892019144	-0.056105354	-0.528588
C	 0.0119362192	-0.0590129624	-0.0577661247	 0.354352
O	 1.0472906487	-0.702711635	-0.0977112467	-0.381035
C	-1.3211465625	-0.7432290654	 0.0022344396	 0.290638
N	-2.4640977862	-0.1407232839	 0.0544005863	-0.338297
C	-3.4633221193	-1.1772882151	 0.0496993595	-0.007373
C	-3.5320682187	-2.0943537107	-1.1548745367	-0.303511
C	-2.7148963488	-2.5326568884	 0.032223062	-0.023629
N	-1.3511175497	-2.1026527295	 0.0446131434	-0.32258
H	 0.7567100704	 1.8453856781	-0.0541085852	 0.265625
H	-0.9923753623	 1.7151236106	 0.0026613727	 0.280505
H	-4.3667698486	-0.9866184729	 0.6170693355	 0.098959
H	-4.4759041949	-2.6070609952	-1.3022173167	 0.118377
H	-3.0163755846	-1.7994454483	-2.0627759524	 0.119511
H	-2.9699672634	-3.4096391412	 0.6154689995	 0.10665
H	-0.5219815838	-2.6697845552	 0.0063888278	 0.270397
44.1694	98.8222	193.659	259.4198	295.7356	366.6766	399.2765	452.4775	503.5054	592.5628	644.0016	666.2047	718.8994	740.4308	816.4829	823.9218	899.8754	953.5685	1002.3491	1034.7796	1051.3756	1077.411	1099.7451	1110.3238	1140.7211	1177.2827	1224.1923	1320.0659	1360.2807	1385.1291	1459.6219	1511.176	1602.2188	1633.8523	1793.5329	3130.4008	3171.6589	3178.2263	3225.2077	3590.3759	3680.789	3737.8086
NC(=O)C1=NC2CC2N1	NC(=O)C1=N[C@H]2C[C@H]2N1	
InChI=1S/C5H7N3O/c6-4(9)5-7-2-1-3(2)8-5/h2-3H,1H2,(H2,6,9)(H,7,8)	InChI=1S/C5H7N3O/c6-4(9)5-7-2-1-3(2)8-5/h2-3H,1H2,(H2,6,9)(H,7,8)/t2-,3+
