18
gdb 77761	2.16746	1.87488	1.16115	4.6149	74.18	-0.2233	0.0113	0.2346	1077.9258	0.144078	-439.002808	-438.993589	-438.992645	-439.036567	34.471	
C	 0.1148988513	 1.4816631719	-0.0619871392	-0.33424
N	 0.0320476881	 0.0339002386	 0.0502764974	-0.102095
C	-1.0826967826	-0.7198656907	 0.741997794	-0.253367
C	-0.1070851366	-1.9105569299	 0.4797717968	 0.509693
O	-0.0522615576	-2.9828926196	-0.0165480376	-0.315696
C	 0.787693348	-0.7757006215	 1.0782483191	-0.223384
C	-0.353097818	-0.6112945833	 2.1402255029	 0.433698
C	-0.5079585528	 0.6141302525	 3.0249902719	-0.484849
O	-0.4201219563	-1.7802024407	 2.9381469828	-0.456991
H	 0.0966349858	 2.0712620127	 0.8633854217	 0.105577
H	 1.0467584442	 1.7214059954	-0.5849019028	 0.133909
H	-0.7109677859	 1.8200039347	-0.6956558535	 0.132039
H	-2.1316687059	-0.5844532077	 0.4791535673	 0.089587
H	 1.8673536818	-0.7128911105	 1.204303593	 0.096681
H	-0.511597636	 1.5596999635	 2.489120253	 0.133884
H	-1.4610240778	 0.546305603	 3.5654245947	 0.114259
H	 0.292895993	 0.6320867443	 3.770251974	 0.137504
H	-1.233144573	-1.7579797827	 3.4547430045	 0.283792
62.6964	152.3451	158.3536	192.577	258.8867	270.4797	293.3843	312.494	415.2604	428.8137	498.8175	562.4332	629.9814	679.1576	715.	775.5349	782.4524	800.8208	945.837	954.971	1019.759	1087.7694	1104.1491	1112.6818	1114.8443	1128.793	1143.5869	1195.8887	1205.9459	1226.078	1289.8829	1363.9701	1412.2563	1449.1772	1475.1151	1487.7409	1501.4109	1513.6732	1957.1077	3012.2883	3030.1143	3070.5614	3096.8342	3101.7775	3126.2723	3140.5413	3181.2929	3803.2279
CN1C2C(=O)C1C2(C)O	CN1[C@H]2C(=O)[C@@H]1[C@]2(C)O	
InChI=1S/C6H9NO2/c1-6(9)4-3(8)5(6)7(4)2/h4-5,9H,1-2H3	InChI=1S/C6H9NO2/c1-6(9)4-3(8)5(6)7(4)2/h4-5,9H,1-2H3/t4-,5+,6+
