21
gdb 104283	2.25041	1.20018	1.0402	1.2709	79.28	-0.252	-0.0344	0.2176	1291.3644	0.179742	-424.224948	-424.214875	-424.213931	-424.260807	36.227	
C	 0.1167134458	 1.4680581847	-0.0715058132	-0.39862
C	-0.0308469644	-0.0016746972	 0.3388711232	-0.215434
C	-1.4358207845	-0.5657646188	 0.1002202902	 0.415254
C	-2.5203128777	 0.1561560739	 0.8873325372	-0.43623
O	-1.7492260227	-0.5676051878	-1.323937781	-0.317391
C	-1.8156006273	-2.0006386998	-1.3661076591	-0.094989
C	-1.5712866569	-2.1372994803	 0.1507597139	-0.198576
C	-0.380932677	-2.9505735838	 0.5820966149	 0.14582
O	-0.344359988	-3.6199182261	 1.5834098461	-0.251653
H	 1.1641823637	 1.7772899777	-0.0128728789	 0.115764
H	-0.2227516553	 1.6095319058	-1.1016586783	 0.139298
H	-0.4598077443	 2.1367566115	 0.5738483035	 0.119783
H	 0.6853635284	-0.5962410791	-0.2379970594	 0.098146
H	 0.2290721556	-0.1339844999	 1.3971370847	 0.106776
H	-2.5688773882	 1.2096103003	 0.5994302678	 0.13261
H	-3.4981795287	-0.2910670355	 0.6900524515	 0.121441
H	-2.3211427878	 0.0983421957	 1.9628101002	 0.123666
H	-2.7866761333	-2.3637044009	-1.7203243635	 0.113149
H	-1.0263473705	-2.4319758774	-1.9979367929	 0.10324
H	-2.435625419	-2.4611028577	 0.7317703616	 0.099061
H	 0.4948310425	-2.9075450052	-0.1055501784	 0.078885
44.1027	57.3866	97.4649	177.506	214.825	220.9103	281.3389	293.9436	352.959	366.6111	448.3321	462.3287	489.2521	659.5792	786.0194	808.2966	880.5722	887.2167	909.1892	996.0349	1008.0548	1013.6707	1040.4175	1064.5971	1077.6799	1121.8286	1160.4849	1174.4329	1197.3391	1221.8361	1260.383	1299.9356	1336.0527	1354.9481	1379.423	1407.6644	1409.272	1434.8482	1472.2062	1485.1647	1492.6118	1506.213	1509.9728	1524.6917	1822.6172	2863.5163	3001.4108	3028.0709	3040.8057	3045.2619	3057.5189	3070.5058	3107.513	3111.5665	3114.7544	3120.7435	3125.6378
CCC1(C)OCC1C=O	CC[C@@]1(C)OC[C@H]1C=O	
InChI=1S/C7H12O2/c1-3-7(2)6(4-8)5-9-7/h4,6H,3,5H2,1-2H3	InChI=1S/C7H12O2/c1-3-7(2)6(4-8)5-9-7/h4,6H,3,5H2,1-2H3/t6-,7-/m1/s1
