17
gdb 8840	4.65375	1.21745	0.98261	3.7721	66.98	-0.2557	-0.0283	0.2274	1167.6855	0.140459	-401.060939	-401.051817	-401.050873	-401.095202	31.381	
C	 0.0341725405	 1.5654001828	 0.0425378979	-0.378406
C	-0.0304802123	 0.039723447	 0.023604794	-0.312035
C	-1.4621205896	-0.4732286126	 0.0136563479	 0.437421
O	-2.4191693305	 0.2700098324	 0.0196674098	-0.3378
N	-1.6180489702	-1.8723593668	-0.0020328873	-0.146028
C	-0.4927324102	-2.804307913	-0.0092065714	-0.358049
C	-2.9095117268	-2.4053805879	-0.0109846599	 0.170604
O	-3.1449557767	-3.5897686408	-0.0239934377	-0.318033
H	 1.0748804277	 1.9002796658	 0.048993196	 0.112469
H	-0.4631234472	 1.9879964575	-0.8334224868	 0.137418
H	-0.4670241877	 1.9663576685	 0.9264239903	 0.137371
H	 0.4934856688	-0.3627802563	-0.8526626877	 0.130588
H	 0.4893870594	-0.3843732245	 0.8920709407	 0.130551
H	 0.1260205644	-2.6891737547	 0.8848440532	 0.138308
H	-0.9171987231	-3.8077325557	-0.0230060046	 0.176823
H	 0.1326349373	-2.6673296119	-0.8955001903	 0.138277
H	-3.6721895139	-1.6174954699	-0.003896914	 0.140523
56.4717	80.363	151.5936	185.418	194.3059	215.6322	322.2237	325.1302	350.1179	412.0731	543.8503	564.0776	703.423	820.2104	826.3811	958.7194	1017.3721	1061.3704	1077.5421	1097.2014	1128.9365	1152.8036	1277.4313	1286.3783	1311.3856	1386.4437	1415.4696	1417.1696	1449.1102	1452.6237	1492.4518	1498.7604	1505.6465	1507.2425	1786.0818	1811.1841	3028.905	3049.0386	3056.2641	3059.5805	3080.3021	3111.4699	3128.7077	3135.8769	3161.5572
CCC(=O)N(C)C=O	CCC(=O)N(C)C=O	
InChI=1S/C5H9NO2/c1-3-5(8)6(2)4-7/h4H,3H2,1-2H3	InChI=1S/C5H9NO2/c1-3-5(8)6(2)4-7/h4H,3H2,1-2H3
