17
gdb 78130	2.52888	1.47215	1.24996	4.707	75.78	-0.2532	-0.0213	0.2318	1070.169	0.135705	-418.002588	-417.994233	-417.993289	-418.035833	30.766	
C	 0.1168927844	 1.5812485643	-0.1908398923	-0.426159
C	 0.1253072766	 0.0714340922	-0.1188967667	-0.024656
C	 0.6899776836	-0.842279795	-1.1678286851	-0.048995
C	 1.3550353353	-0.7769760679	 0.2105391795	-0.180868
C	 2.5730893269	-0.2228619872	-0.481935646	 0.397267
N	 3.7178170974	 0.1310306144	-0.105737852	-0.546092
N	 1.9119690498	-0.2815948516	-1.7516700057	-0.094257
C	 2.1656681206	 0.3631350545	-2.9292147521	 0.133183
O	 3.2009561649	 0.9432197685	-3.1736442584	-0.310476
H	 1.0311255021	 1.9752315827	-0.6406360218	 0.146379
H	-0.7348261251	 1.9355835818	-0.7808797003	 0.124711
H	 0.0325740639	 2.0084315609	 0.8129995535	 0.134594
H	-0.7643372367	-0.3565012555	 0.341644444	 0.107048
H	 0.1787791564	-1.6693130194	-1.6424620417	 0.125311
H	 1.3656706835	-1.5120784747	 1.0017782052	 0.123295
H	 4.2674620069	 0.4635814021	-0.9000726505	 0.252019
H	 1.3287947797	 0.26824329	-3.6491536893	 0.087696
69.7539	134.3504	168.5738	179.3027	244.3643	273.9263	367.0221	434.4735	496.8305	604.6683	676.6774	719.739	789.6898	808.9457	849.1335	881.4219	912.8385	952.1529	994.3986	1029.5321	1043.8938	1060.5628	1070.1585	1120.6996	1160.5495	1196.2952	1234.2904	1295.6196	1301.563	1386.6122	1413.9698	1427.41	1432.182	1490.1441	1498.8969	1760.5166	1825.0107	2940.2051	3042.251	3105.4858	3118.4216	3134.2365	3205.1461	3232.6791	3483.0305
CC1C2C1C(=N)N2C=O	C[C@H]1[C@@H]2[C@H]1[C]([NH])N2C=O	
InChI=1S/C6H8N2O/c1-3-4-5(3)8(2-9)6(4)7/h2-5,7H,1H3	InChI=1S/C6H8N2O/c1-3-4-5(3)8(2-9)6(4)7/h2-5,7H,1H3/t3-,4+,5-/m1/s1
