19
gdb 117038	4.49532	0.69802	0.61323	1.3576	73.07	-0.2398	-0.0817	0.1581	1804.7167	0.154871	-460.192909	-460.181956	-460.181012	-460.230885	36.862	
C	-0.0383949524	 1.5541996586	-0.0253700726	-0.384307
C	 0.0264844129	 0.0314234299	 0.0464068658	-0.274811
C	 0.7583786636	-0.4783219811	 1.2675594853	 0.293241
O	 1.2490019187	 0.2334828015	 2.1133103414	-0.282726
C	 0.8657569769	-2.0189611221	 1.4093468143	 0.276387
O	 0.3755644911	-2.7347969061	 0.5645047335	-0.291247
C	 1.5954453796	-2.5286809305	 2.627014807	-0.279415
C	 1.6560552519	-4.0469291538	 2.6915507563	-0.079707
O	 2.362936273	-4.3849880352	 3.8741839968	-0.422057
H	 0.9643157572	 1.9891399625	-0.0495408923	 0.131445
H	-0.5751891267	 1.8735322216	-0.9225061824	 0.115466
H	-0.5495893654	 1.9669698247	 0.8484042488	 0.131459
H	-0.972505118	-0.4237849213	 0.0462165105	 0.139502
H	 0.5146259666	-0.4020933111	-0.8361701821	 0.139499
H	 2.6044463868	-2.0982063561	 2.6395732499	 0.148658
H	 1.1136155378	-2.1199926539	 3.5238645373	 0.148657
H	 0.6359882412	-4.458147062	 2.6938162037	 0.100699
H	 2.1553350354	-4.4357928258	 1.792032332	 0.100719
H	 2.4105190299	-5.3436870298	 3.9304054167	 0.288538
34.1431	51.0272	70.1866	98.3722	108.2026	184.1905	222.3308	273.7274	289.9415	310.896	362.6607	393.1647	527.1769	582.6207	690.3711	753.3123	792.9453	822.4349	911.2458	1000.9917	1023.4315	1039.5653	1077.8574	1100.3047	1102.8731	1186.6987	1200.4168	1259.6294	1261.1347	1293.9051	1352.13	1378.5832	1415.7922	1435.6521	1436.141	1468.9055	1493.4673	1497.729	1522.7467	1794.4595	1803.0624	2990.2093	3017.9174	3036.2844	3046.5133	3051.2671	3058.2244	3075.4389	3123.854	3124.2434	3832.2493
CCC(=O)C(=O)CCO	CCC(=O)C(=O)CCO	
InChI=1S/C6H10O3/c1-2-5(8)6(9)3-4-7/h7H,2-4H2,1H3	InChI=1S/C6H10O3/c1-2-5(8)6(9)3-4-7/h7H,2-4H2,1H3
