17
gdb 23019	2.57153	1.09224	1.004	3.5891	73.45	-0.251	-0.0185	0.2325	1261.5049	0.133318	-455.093538	-455.083949	-455.083005	-455.12932	33.368	
C	-0.170148034	 1.4198889762	-0.1134888763	-0.482524
C	-0.0554204789	-0.0807267749	-0.0964749886	 0.346643
N	-0.1209854325	-0.7929754954	 0.963908751	-0.15144
O	-0.3436048436	-0.0115461508	 2.0980609673	-0.389901
C	 0.1266959487	-0.8094312644	-1.3890894586	-0.096497
C	 0.0162731383	-2.3040998214	-1.4748199993	-0.242645
N	-1.0111180267	-1.4649707289	-2.0433642584	-0.069663
C	-2.3251235852	-1.4432230398	-1.6013075592	 0.146323
O	-2.977887075	-2.4215116147	-1.3383969903	-0.283645
H	 0.5175065459	 1.8633811337	 0.6124699279	 0.154917
H	 0.0391474917	 1.8238925257	-1.1057582981	 0.12564
H	-1.1784544296	 1.7281072695	 0.1848011023	 0.154795
H	-0.3563778655	-0.6685014015	 2.8028411846	 0.313033
H	 0.7861583268	-0.3017507717	-2.0910070466	 0.107679
H	 0.6422002622	-2.8382433521	-2.1838625995	 0.127034
H	-0.2327299771	-2.8359842565	-0.5628093858	 0.157777
H	-2.7393473255	-0.4165007528	-1.5973255322	 0.082473
37.0954	67.781	80.3754	163.9888	190.2691	249.2515	290.4781	319.0064	397.7356	435.5242	484.6177	559.1352	608.0485	677.9976	779.1823	843.3405	946.2695	962.9432	1012.5958	1036.1386	1043.9201	1068.073	1091.0905	1117.6207	1138.2638	1166.9921	1235.6023	1369.4423	1394.8623	1404.3631	1419.0137	1426.8081	1473.6476	1486.8783	1503.0756	1719.2417	1805.1807	2948.1563	3042.7188	3101.7397	3120.8566	3125.2875	3137.5757	3223.2659	3814.394
CC(=NO)C1CN1C=O	CC(=NO)[C@H]1CN1C=O	
InChI=1S/C5H8N2O2/c1-4(6-9)5-2-7(5)3-8/h3,5,9H,2H2,1H3	InChI=1S/C5H8N2O2/c1-4(6-9)5-2-7(5)3-8/h3,5,9H,2H2,1H3/t5-,7?/m1/s1
