22
gdb 101498	2.71985	0.97158	0.83773	2.1469	86.67	-0.2469	0.0304	0.2773	1514.4728	0.19299	-404.355685	-404.345585	-404.344641	-404.392104	36.359	
C	 0.3590579712	 1.4542023299	 0.0661981111	-0.386371
C	 0.0861726775	-0.0497450473	 0.003346685	-0.15144
C	-1.4084572118	-0.4056509842	 0.0066519637	 0.03944
C	-1.6223387525	-1.9170192921	-0.139842609	-0.384805
N	-1.9982723106	 0.0300654418	 1.2768621948	-0.325997
C	-3.0583279356	 0.6897803993	 1.2789542704	 0.46202
C	-3.9466596537	 1.2942428873	 2.3474866167	-0.376735
C	-4.7854637399	 1.7713883915	 1.1447944921	-0.075701
O	-3.8508487621	 1.1335443535	 0.2245350658	-0.263901
H	 1.4336160292	 1.662265695	 0.0596792971	 0.106609
H	-0.0861865562	 1.9745416987	-0.7897118936	 0.10918
H	-0.0628081805	 1.8871592175	 0.9780177409	 0.121596
H	 0.5370570577	-0.4714392695	-0.9037043717	 0.086146
H	 0.5600825704	-0.5495529284	 0.8572508346	 0.098369
H	-1.8887445817	 0.09935187	-0.84461612	 0.081848
H	-1.1624150099	-2.2837890051	-1.0632899434	 0.107697
H	-1.1764626695	-2.4495387182	 0.7062875585	 0.120301
H	-2.6888166584	-2.1590152661	-0.1691099676	 0.112334
H	-4.4258075936	 0.568790495	 3.0070642456	 0.137882
H	-3.4766350806	 2.0753117011	 2.9472490881	 0.13779
H	-5.7850100361	 1.3402558239	 1.0483355659	 0.12171
H	-4.8228676633	 2.8509848065	 0.9789700149	 0.122028
19.3691	95.0222	129.1496	144.3508	159.7526	222.5636	232.0018	259.5116	356.3215	418.8486	468.8845	491.4313	604.0952	745.5741	789.9234	800.2544	833.6122	900.0545	935.1273	962.4051	981.5277	1007.7202	1025.2742	1046.2185	1056.3426	1113.526	1122.3785	1159.1873	1162.8903	1193.421	1200.8047	1240.617	1297.1579	1329.1381	1349.2991	1378.3374	1389.6198	1404.1656	1408.0607	1467.618	1475.8892	1489.606	1497.6147	1500.4564	1507.7638	1522.1557	1840.1113	2992.7462	3022.7469	3031.5869	3034.9578	3061.4892	3061.6717	3087.8197	3096.8906	3107.2823	3111.2935	3111.8837	3114.0465	3143.208
CCC(C)N=C1CCO1	CC[C@@H](C)N=C1CCO1	
InChI=1S/C7H13NO/c1-3-6(2)8-7-4-5-9-7/h6H,3-5H2,1-2H3	InChI=1S/C7H13NO/c1-3-6(2)8-7-4-5-9-7/h6H,3-5H2,1-2H3/t6-/m1/s1
