21
gdb 58178	3.04888	0.99108	0.86227	3.6084	82.95	-0.2258	-0.0667	0.159	1423.9051	0.180203	-420.41473	-420.404025	-420.40308	-420.450827	38.021	
C	-0.3566803678	 1.3364070898	 0.169081879	-0.397252
C	 0.0995994571	-0.1100989239	-0.0729142527	 0.064646
C	 0.9640028932	-0.2458639917	-1.3299386038	-0.408341
N	 0.7808689686	-0.6847317364	 1.1030357429	-0.08287
C	 2.1419496552	-0.23963712	 1.3708180802	-0.354165
C	-0.0082791788	-1.2196455128	 2.0944402544	 0.260197
N	-1.2884881479	-1.1446789044	 2.0758713896	-0.519681
C	 0.6861065498	-2.0622303167	 3.1540135188	 0.093746
O	 0.1084967685	-2.4488176207	 4.1374488824	-0.238907
H	 0.4927155626	 2.0100456112	 0.3285047628	 0.106951
H	-0.9089460296	 1.7055634008	-0.7009672195	 0.116061
H	-1.0152862147	 1.3826883346	 1.0386514223	 0.147011
H	-0.7981068919	-0.7203573373	-0.1968752458	 0.121868
H	 1.8484507154	 0.3992063002	-1.3005267636	 0.115068
H	 1.2949853465	-1.2790150046	-1.4728730563	 0.119985
H	 0.3784036107	 0.0468878689	-2.2061743318	 0.123706
H	 2.2261048562	 0.8489872049	 1.261464876	 0.1333
H	 2.4368020056	-0.471724572	 2.393931555	 0.136008
H	 2.8646863257	-0.7043700663	 0.6912981259	 0.1317
H	-1.651215779	-1.6856808666	 2.8626191292	 0.233834
H	 1.7325810944	-2.3666394168	 2.9517579951	 0.097138
65.8177	68.5518	100.0404	126.4217	190.372	231.8303	246.1224	256.9284	296.6089	336.1359	379.2449	414.2908	446.3216	532.0217	573.6728	659.3494	789.2035	861.9215	875.1426	925.8861	944.2015	954.1929	1028.3439	1064.4049	1111.4118	1139.7128	1152.0373	1188.711	1236.9213	1269.4	1351.3746	1380.3945	1394.6143	1413.2848	1426.3698	1459.74	1473.98	1481.6945	1489.2455	1492.4254	1505.2768	1512.9543	1527.5507	1664.9798	1818.5932	2926.1513	3020.3788	3034.4213	3039.2308	3068.3136	3080.6735	3098.5926	3111.1815	3115.0273	3135.399	3142.9161	3469.903
CC(C)N(C)C(=N)C=O	CC(C)N(C)C(=N)C=O	
InChI=1S/C6H12N2O/c1-5(2)8(3)6(7)4-9/h4-5,7H,1-3H3	InChI=1S/C6H12N2O/c1-5(2)8(3)6(7)4-9/h4-5,7H,1-3H3
