13
gdb 130466	4.11191	1.66595	1.1856	2.5764	76.08	-0.2377	-0.0779	0.1599	934.6295	0.092446	-415.608408	-415.602539	-415.601595	-415.638589	23.377	
O	-0.0381247455	 1.263559198	 0.009558333	-0.211333
C	 1.0696063754	 1.9997010122	 0.0026746117	 0.017352
C	 2.3106406749	 1.4459276694	-0.0126314582	 0.197918
C	 3.6687818892	 1.8668192672	-0.0241130397	-0.309101
C	 4.3910295384	 0.6886337784	-0.0368413221	-0.03179
N	 3.6134101511	-0.4557919886	-0.0355045256	-0.34227
C	 2.3707674197	-0.0071603917	-0.0211079156	 0.259454
C	 1.1438774696	-0.7055939884	-0.0128460481	-0.03308
N	-0.0297892077	-0.1352531075	 0.0018405341	-0.094917
H	 0.8267596455	 3.057592491	 0.0106486221	 0.163317
H	 4.0493329249	 2.8764181704	-0.0227563416	 0.113469
H	 5.4695305965	 0.5932857906	-0.0478128496	 0.114931
H	 1.1010733078	-1.7910082211	-0.0181577605	 0.15605
202.7972	234.1977	398.1887	404.2846	575.4757	579.4972	612.8898	617.5559	763.8272	767.2145	787.2461	829.3185	903.6512	911.3589	932.9629	936.3387	970.5582	1079.9527	1130.4853	1199.1208	1226.0953	1265.3005	1322.1339	1381.8119	1442.5213	1463.8733	1514.6821	1611.3341	1656.5546	3187.0382	3193.4696	3219.2554	3258.1575
O1C=C2C=CN=C2C=N1	O1[CH]c2ccnc2C=N1	
InChI=1S/C6H4N2O/c1-2-7-6-3-8-9-4-5(1)6/h1-4H	InChI=1S/C6H5N2O/c1-2-7-6-3-8-9-4-5(1)6/h1-4,7H
