23
gdb 42112	1.99213	1.68815	1.06153	0.3266	93.39	-0.2275	0.0035	0.2311	1225.8756	0.208247	-351.164109	-351.155412	-351.154468	-351.197187	34.475	
C	 0.0166074987	 1.5319425107	-0.1173786302	-0.172697
C	 1.4411091024	 2.0987662852	-0.0189880462	-0.189606
C	 2.2512438533	 1.6665372803	 1.2170937227	-0.239771
C	 1.5952459677	 1.9462580764	 2.5411721231	-0.025149
C	 1.1767813311	 1.0171236171	 3.4081202245	-0.109005
C	 1.2488144794	-0.4364018869	 3.1686267761	-0.098153
C	 0.5662293319	-1.1108586969	 2.237607873	-0.042056
C	-0.5288599625	-0.5722247516	 1.3488734867	-0.234736
C	-0.1367691672	-0.0071558536	-0.0497746489	-0.190972
H	-0.6036504149	 1.980991995	 0.6677888955	 0.096805
H	-0.4057334892	 1.8846388656	-1.0659259799	 0.088954
H	 2.0098201858	 1.8086033979	-0.9122103964	 0.091902
H	 1.3739383667	 3.194514878	-0.0465562052	 0.090166
H	 2.4768265418	 0.5988137942	 1.1483934846	 0.10809
H	 3.2153894389	 2.193455306	 1.1876340568	 0.095891
H	 1.5039352303	 2.9954260789	 2.8213757078	 0.080978
H	 0.8080903824	 1.3381142846	 4.3825570558	 0.088748
H	 1.9263073446	-0.9951595023	 3.8155234244	 0.08882
H	 0.7642304985	-2.1777547557	 2.1433683868	 0.082835
H	-1.2404421031	-1.3912438025	 1.1920470734	 0.094386
H	-1.0758558572	 0.2088071388	 1.8879610205	 0.106684
H	-0.9322785709	-0.2923491838	-0.7465120302	 0.093436
H	 0.7703374116	-0.5012755455	-0.4185734848	 0.094449
95.0764	131.2927	180.3988	208.297	287.869	306.8432	353.1375	412.5183	457.6344	471.0882	592.7305	679.1837	710.3372	753.9334	786.8917	791.7752	852.6501	889.2719	950.0788	954.0399	974.6854	997.5416	1004.8011	1012.3384	1050.9233	1065.873	1108.0908	1114.4193	1172.8691	1205.1803	1244.9545	1255.2008	1277.2389	1286.3037	1314.4457	1351.4378	1351.764	1366.3596	1389.3259	1393.5407	1406.2612	1444.8163	1476.4371	1479.7011	1483.118	1491.6462	1495.6946	1698.6715	1708.4537	3004.3354	3014.3962	3021.4244	3023.6141	3030.6897	3042.6599	3059.2504	3067.0021	3071.2686	3088.2339	3106.7821	3114.227	3137.8387	3140.8742
C1CCC=CC=CCC1	C1CCC=CC=CCC1	
InChI=1S/C9H14/c1-2-4-6-8-9-7-5-3-1/h1-4H,5-9H2/b3-1-,4-2-	InChI=1S/C9H14/c1-2-4-6-8-9-7-5-3-1/h1-4H,5-9H2/b3-1-,4-2-
