15
gdb 65797	2.20814	1.629	1.41598	2.9404	73.14	-0.2451	-0.0611	0.1841	997.0748	0.111014	-420.617497	-420.609228	-420.608284	-420.650442	31.169	
O	 0.0051980056	 1.4648307798	 0.1056707907	-0.449565
C	-0.0317400974	 0.0521055011	 0.0538523801	 0.126479
C	-1.4828832097	-0.4610297647	-0.0977400672	-0.316422
C	-1.4202691465	-1.3962492026	-1.2787231075	-0.044092
C	-0.2397709042	-1.3920423656	-1.9125181567	-0.174297
C	 0.6635602265	-0.4286141966	-1.2647898348	 0.336354
O	 1.7160236359	 0.0228528926	-1.64691452	-0.341521
C	 0.6514082035	-0.5639241275	 1.1952003475	 0.331516
C	 1.2313848659	-1.0710010153	 2.1181171638	-0.499283
H	 0.8954782495	 1.7138809949	-0.1827683598	 0.293364
H	-1.857045855	-0.9553507245	 0.8026902118	 0.134146
H	-2.141288634	 0.3907135958	-0.3031432273	 0.146691
H	-2.2790253859	-1.9891710305	-1.5752062553	 0.125478
H	 0.0271429658	-1.9451194979	-2.8032882534	 0.127438
H	 1.7460010601	-1.509877919	 2.9372346082	 0.203714
60.6755	132.3959	182.3104	240.2103	297.4407	377.8503	410.2079	434.335	485.806	577.9478	627.5802	638.9549	653.8236	671.7241	717.9348	759.3884	838.5112	911.1479	952.5531	995.3292	998.8684	1089.7327	1102.9963	1120.9935	1185.8248	1225.109	1323.0463	1357.9061	1390.6839	1462.8097	1642.9643	1820.2682	2227.0368	3051.1845	3098.3413	3193.8678	3232.0415	3500.1492	3739.4279
OC1(CC=CC1=O)C#C	O[C@]1(CC=CC1=O)C#C	
InChI=1S/C7H6O2/c1-2-7(9)5-3-4-6(7)8/h1,3-4,9H,5H2	InChI=1S/C7H6O2/c1-2-7(9)5-3-4-6(7)8/h1,3-4,9H,5H2/t7-/m0/s1
