21
gdb 26347	2.39255	1.34301	0.9753	1.0531	84.4	-0.2132	0.0285	0.2417	1293.3165	0.181863	-387.133561	-387.123988	-387.123043	-387.168093	35.653	
C	-0.0557535432	 1.681154333	 0.4499862967	-0.392192
C	-0.101174777	 0.2421048681	-0.0828763877	-0.082662
C	 0.8600707663	-0.6610369692	 0.7165134307	-0.380467
C	-1.4985149661	-0.3229041477	-0.0965673404	 0.172778
C	-2.5714558402	 0.0794742309	 0.6376217576	-0.111224
O	-3.6661510074	-0.6816428869	 0.3687348177	-0.152548
C	-3.2818930399	-1.5916442092	-0.5647328439	-0.093696
C	-1.9737092588	-1.4332019808	-0.8960985438	 0.144596
C	-1.1997138547	-2.2314174052	-1.899528964	-0.510349
H	 0.9603686868	 2.0832163312	 0.3888274425	 0.109813
H	-0.7195496118	 2.3385407624	-0.1190542129	 0.117487
H	-0.3600377249	 1.7212668428	 1.5021264879	 0.115337
H	 0.2567194419	 0.2602745828	-1.1220619201	 0.077057
H	 0.8631342333	-1.6863619075	 0.3358007821	 0.117228
H	 1.8853321813	-0.2787384272	 0.6654988147	 0.108398
H	 0.5618283528	-0.6989992204	 1.7697465513	 0.117441
H	-2.7203399783	 0.8646174729	 1.3599425564	 0.130402
H	-4.045832404	-2.275985818	-0.8974157003	 0.129753
H	-0.7466683746	-1.5888589472	-2.6636878685	 0.128565
H	-0.3841301539	-2.7981127326	-1.4356720765	 0.13028
H	-1.8474930477	-2.947920442	-2.4124731897	 0.124003
46.3522	134.5578	157.5543	175.7891	232.8751	258.379	264.3863	286.5021	349.7984	429.9314	487.9924	591.1064	620.6121	683.6405	698.1501	750.4311	778.4999	880.1876	899.7863	925.9463	965.5808	1012.4348	1063.7421	1087.5233	1092.0128	1111.5418	1141.8346	1189.6757	1204.9111	1256.3952	1306.4613	1336.9479	1346.588	1392.6303	1404.8283	1415.3226	1423.879	1481.47	1485.2482	1490.8066	1496.6037	1501.8002	1511.5432	1579.3352	1649.9418	2999.7838	3025.9211	3028.9799	3032.9426	3073.8683	3094.4372	3101.2302	3106.6472	3109.0293	3110.8667	3266.7024	3276.609
CC(C)C1=COC=C1C	CC(C)c1cocc1C	
InChI=1S/C8H12O/c1-6(2)8-5-9-4-7(8)3/h4-6H,1-3H3	InChI=1S/C8H12O/c1-6(2)8-5-9-4-7(8)3/h4-6H,1-3H3
