18
gdb 32605	2.85805	1.24758	0.93194	4.6484	75.85	-0.2044	0.029	0.2334	1287.8769	0.147148	-439.155401	-439.146316	-439.145372	-439.189957	32.661	
C	 0.0948145199	 1.565961007	-0.1078218735	-0.376594
C	-0.0742642857	 0.0589571158	 0.0968535056	-0.158451
N	 0.7026969049	-0.457856529	 1.2097401775	-0.116024
C	 2.0828674766	-0.6772441957	 1.2624046648	-0.233263
C	 2.3707171252	-1.1233468305	 2.4927859325	 0.341377
C	 3.6230582449	-1.5374416629	 3.1668243945	-0.485773
O	 1.1997457895	-1.186049925	 3.2291556864	-0.248251
C	 0.1507134176	-0.7659293898	 2.4326658412	 0.475253
O	-0.9972567971	-0.7048524286	 2.7901684377	-0.418567
H	 1.1382651288	 1.8261826709	-0.311801873	 0.120147
H	-0.5095586732	 1.9002369323	-0.9565644174	 0.124034
H	-0.2278085122	 2.1134964226	 0.7819965919	 0.141368
H	-1.1158226558	-0.1819451631	 0.3228960924	 0.151162
H	 0.2077091085	-0.4878968269	-0.8102116483	 0.114644
H	 2.7254899543	-0.5047490802	 0.4158407454	 0.144399
H	 3.82301055	-0.919328651	 4.0494427587	 0.144709
H	 3.5689261326	-2.5791046132	 3.5030539053	 0.144868
H	 4.4663716512	-1.4401478125	 2.4790285082	 0.134961
43.7375	86.3463	170.9653	193.2128	203.5298	270.1608	284.75	315.3699	395.539	559.7586	594.0866	610.2243	672.4668	724.5526	767.3825	792.9115	849.0463	955.4358	963.3926	1018.2036	1067.966	1078.8833	1096.1196	1111.1911	1182.9912	1256.5643	1296.1395	1379.6979	1400.3492	1409.4268	1418.2415	1433.3813	1468.0127	1482.758	1491.4986	1495.6915	1503.0775	1723.007	1871.5772	3031.1458	3040.7493	3041.8791	3082.5141	3102.5229	3118.4958	3127.3125	3127.6625	3280.6741
CCN1C=C(C)OC1=O	CCn1cc(C)oc1=O	
InChI=1S/C6H9NO2/c1-3-7-4-5(2)9-6(7)8/h4H,3H2,1-2H3	InChI=1S/C6H9NO2/c1-3-7-4-5(2)9-6(7)8/h4H,3H2,1-2H3
