25
gdb 93817	2.19836	1.33928	0.98936	0.2421	95.81	-0.2262	0.0323	0.2585	1364.9204	0.229639	-352.393164	-352.383308	-352.382364	-352.427294	38.424	
C	-0.1166441919	 1.5730563556	 0.0116630418	-0.397275
C	-0.0274039235	 0.0391503446	-0.0046782774	-0.002728
C	 0.6267566085	-0.4793308035	-1.2938361796	-0.202589
C	 0.998601619	-1.9596006771	-1.1665049099	-0.229663
C	 2.0128360154	-2.1979447344	-0.0306453618	-0.051059
C	 3.4527422319	-1.8503063076	-0.4629432449	-0.391858
C	 1.6018568027	-1.4587394264	 1.2328405353	 0.29796
C	 2.2534439689	-1.9041303417	 2.5170646406	-0.479268
C	 0.6904012534	-0.4812841357	 1.2171108022	-0.139452
H	 0.8827408714	 2.022011991	-0.0048038352	 0.114037
H	-0.6682800069	 1.9431682748	-0.8592763672	 0.107969
H	-0.6288028671	 1.9323059782	 0.9107069777	 0.10882
H	-1.0611804717	-0.3434421674	 0.0293877493	 0.075935
H	-0.04696741	-0.322802412	-2.1441087826	 0.086833
H	 1.5275453333	 0.1131492026	-1.5014429368	 0.094725
H	 0.0888437415	-2.5382714064	-0.9614198521	 0.091463
H	 1.4048083711	-2.3378604808	-2.1118342184	 0.08472
H	 2.0076878655	-3.2722792881	 0.2050485133	 0.067221
H	 3.541896636	-0.7947783595	-0.73851141	 0.117862
H	 4.1735357405	-2.0435846674	 0.3368096408	 0.113172
H	 3.7494575905	-2.4530593299	-1.327970214	 0.109575
H	 3.3427829656	-1.7781967277	 2.4881166811	 0.122472
H	 1.8759787545	-1.3400575177	 3.3743177592	 0.116795
H	 2.0703733248	-2.9705859468	 2.7040623855	 0.117756
H	 0.4178507666	-0.0066783865	 2.1599431933	 0.066577
73.4842	139.1126	197.8565	210.8627	231.3451	256.4756	264.5111	298.3174	340.8446	403.2577	430.3797	443.7555	554.1503	586.9768	616.2426	760.5608	808.8176	853.8824	873.2582	920.43	949.8973	969.0997	995.9184	1012.3991	1027.8592	1044.1153	1065.5132	1087.7107	1126.9177	1139.0631	1170.3648	1196.6045	1209.154	1251.1446	1317.4004	1332.782	1342.5051	1356.2535	1361.7812	1385.9229	1389.9927	1405.6736	1411.6689	1417.2874	1477.8712	1485.334	1491.4487	1495.0556	1497.7784	1499.8427	1501.2424	1508.7576	1731.0789	2958.4285	2988.2612	3014.767	3020.4888	3021.8062	3026.0763	3035.4357	3058.4043	3061.2143	3064.667	3095.229	3096.3798	3101.8609	3106.0212	3110.9429	3119.9391
CC1CCC(C)C(C)=C1	C[C@H]1CC[C@@H](C)C(=C1)C	
InChI=1S/C9H16/c1-7-4-5-8(2)9(3)6-7/h6-8H,4-5H2,1-3H3	InChI=1S/C9H16/c1-7-4-5-8(2)9(3)6-7/h6-8H,4-5H2,1-3H3/t7-,8+/m0/s1
