18
gdb 9889	4.94737	1.0497	0.98582	4.0326	69.93	-0.2737	0.01	0.2837	1214.2721	0.152136	-384.953338	-384.944634	-384.94369	-384.987424	31.03	
C	-0.2418044661	 1.4444231619	 0.0569574194	-0.475326
C	-0.0518396926	-0.0574741632	-0.020377246	 0.373854
C	-1.2537792669	-0.8300102133	-0.5052234707	-0.151678
O	-1.5577377834	-0.4867455152	-1.8688746687	-0.179844
C	-2.7894537573	-0.0325184747	-2.1581544988	 0.174343
O	-3.1302218753	 0.2593196076	-3.2649420776	-0.277147
C	 1.3081923649	-0.6022267345	-0.3842559503	-0.288713
C	 0.7962228475	-0.7421606956	 1.0277606707	-0.311986
H	 0.6639932888	 1.9351464291	 0.4242353541	 0.119944
H	-0.471438459	 1.8631316691	-0.9281422819	 0.13773
H	-1.0611039804	 1.7077617297	 0.7370973788	 0.113606
H	-1.0600057844	-1.9073114032	-0.4809400657	 0.114733
H	-2.1306144373	-0.626332728	 0.1254586579	 0.107471
H	-3.4415918338	 0.0393149221	-1.2646956945	 0.074541
H	 1.3560142392	-1.491858018	-1.0028488544	 0.120138
H	 2.1024562104	 0.1113320924	-0.5735007058	 0.118228
H	 1.2354656407	-0.1201391011	 1.7999105384	 0.117155
H	 0.5031287249	-1.7290909149	 1.3712270149	 0.112951
43.8803	69.2551	146.0243	231.3739	236.3345	293.3138	318.3705	368.5989	394.9666	460.5829	678.3627	731.7548	782.8598	873.2938	920.3529	942.3535	961.1032	994.29	1043.1932	1046.9054	1049.3915	1081.8181	1084.1232	1124.2022	1179.9706	1187.472	1283.9876	1333.8906	1364.6449	1402.4685	1421.3388	1437.0566	1471.2723	1489.2991	1499.8172	1505.7266	1514.0311	1865.0315	2935.9898	3007.8005	3026.8703	3074.2197	3090.9926	3110.7009	3130.2281	3137.0956	3209.1891	3224.1018
CC1(COC=O)CC1	CC1(COC=O)CC1	
InChI=1S/C6H10O2/c1-6(2-3-6)4-8-5-7/h5H,2-4H2,1H3	InChI=1S/C6H10O2/c1-6(2-3-6)4-8-5-7/h5H,2-4H2,1H3
