20
gdb 38720	2.54313	2.02999	1.5827	2.3099	77.24	-0.2314	0.0775	0.3088	926.5246	0.175016	-403.106694	-403.09994	-403.098996	-403.137321	28.877	
C	-0.076102732	 1.5820554114	-0.1309750587	-0.258061
C	 1.3954087322	 1.9754550701	 0.078635636	-0.01978
N	 2.53471514	 1.9757063254	-0.8666811031	-0.406809
C	 2.1871792074	 0.7368510648	-0.1725221449	 0.269923
C	 1.2356164778	-0.2489124654	-0.8589093626	-0.273488
C	 0.0053312243	 0.0361415115	 0.0151177917	-0.01556
C	 0.3982531554	-0.4698345248	 1.4355310564	-0.063994
O	 1.633221625	 0.005279462	 1.9807634896	-0.267577
C	 2.7559908533	 0.1359561916	 1.0857929347	-0.145306
H	-0.7045699548	 2.0606442813	 0.6255621996	 0.105083
H	-0.4833993464	 1.852918685	-1.1128640863	 0.097353
H	 1.6096532296	 2.5649478592	 0.9635571853	 0.105085
H	 2.2446711529	 1.9059165428	-1.8404587338	 0.226466
H	 1.0655974722	-0.0026043757	-1.9126968545	 0.08769
H	 1.5850984613	-1.2839518484	-0.8042110809	 0.097784
H	-0.9147727883	-0.4840015381	-0.280497321	 0.059013
H	-0.3576467633	-0.1856855112	 2.1754623496	 0.107226
H	 0.4129493907	-1.5715320459	 1.3836484201	 0.089019
H	 3.2324543155	-0.8419240842	 0.9200363768	 0.087153
H	 3.4669185873	 0.7948704985	 1.5906065161	 0.118779
201.363	246.5401	332.048	362.9582	392.1035	451.6758	478.1938	571.0647	624.5852	748.605	758.3229	784.4516	843.4357	866.0257	917.5752	923.5707	943.2272	965.4722	978.2363	998.4776	1014.5062	1038.4171	1071.3706	1086.74	1115.6576	1124.1051	1173.5579	1204.1106	1215.8337	1243.8253	1284.4839	1290.9087	1302.7878	1332.1479	1342.6657	1357.2926	1364.9146	1404.9821	1441.4425	1480.5485	1493.2325	1499.653	1513.498	2961.305	2991.2612	3023.9246	3031.9846	3043.2554	3067.741	3089.6357	3091.7005	3098.979	3165.0265	3473.8011
C1C2NC22CC1COC2	C1[C@@H]2N[C@@]32C[C@H]1COC3	
InChI=1S/C7H11NO/c1-5-2-7(4-9-3-5)6(1)8-7/h5-6,8H,1-4H2	InChI=1S/C7H11NO/c1-5-2-7(4-9-3-5)6(1)8-7/h5-6,8H,1-4H2/t5-,6-,7-/m0/s1
