19
gdb 119301	2.1117	1.29648	0.93985	1.8381	78.12	-0.2523	0.0418	0.2941	1311.7783	0.156589	-422.950918	-422.941156	-422.940212	-422.98611	34.716	
C	-0.1342666257	 1.3670662037	-0.1433855035	-0.226346
O	-0.1411169982	-0.0412486311	-0.1167050735	-0.235006
C	 0.7574796127	-0.6140369402	-1.0339967511	-0.107879
C	 0.6766378383	-2.1367856137	-0.9060317347	 0.058068
C	-0.6784510442	-2.69238278	-1.4345768779	-0.101934
O	-0.0761677808	-3.0676354353	-2.6896843546	-0.272851
C	 1.2455402027	-2.8504751914	-2.1677962995	-0.122893
C	 1.1369103806	-2.6108055437	 0.3849335141	 0.276061
C	 1.5336190672	-3.0284735981	 1.4400776275	-0.445641
H	 0.8550330117	 1.7742249002	 0.1171421182	 0.108244
H	-0.4173050775	 1.7582687217	-1.1333821447	 0.106073
H	-0.8632638699	 1.709940463	 0.5943060326	 0.131722
H	 0.4956947457	-0.3290710091	-2.0672591025	 0.096251
H	 1.7890935366	-0.2758188184	-0.841576772	 0.096023
H	-1.0462670113	-3.5608548673	-0.8762004488	 0.10897
H	-1.4794013264	-1.9568589795	-1.5526931836	 0.119809
H	 1.8646271549	-2.2391678716	-2.8351337565	 0.106424
H	 1.7651141996	-3.7888234533	-1.9401762951	 0.109869
H	 1.8757845441	-3.3894219458	 2.3782719455	 0.195036
65.9853	100.9877	108.3724	136.6819	177.1311	203.6242	241.0434	335.5736	374.6444	403.9144	526.6538	533.9062	627.8646	634.8455	675.157	845.3084	921.0186	941.5088	971.837	991.104	1010.87	1034.1457	1083.5132	1153.5326	1160.2958	1165.2088	1177.7718	1204.6215	1230.1646	1257.5311	1299.0787	1311.2727	1369.3981	1414.6412	1479.4958	1485.7895	1500.7051	1509.1342	1525.0098	1535.2515	2237.0923	2953.7271	2974.4311	2992.0063	3016.6713	3019.096	3033.4918	3068.426	3093.8307	3119.1863	3502.2185
COCC1(COC1)C#C	COCC1(COC1)C#C	
InChI=1S/C7H10O2/c1-3-7(4-8-2)5-9-6-7/h1H,4-6H2,2H3	InChI=1S/C7H10O2/c1-3-7(4-8-2)5-9-6-7/h1H,4-6H2,2H3
