16
gdb 57087	3.3107	1.17039	0.91156	1.2361	71.01	-0.2489	0.0141	0.2629	1222.2277	0.123575	-437.851488	-437.842792	-437.841848	-437.885593	31.313	
O	-0.197432027	 1.3162073062	 0.0640544571	-0.423709
C	 0.0373295925	-0.0904089014	 0.0123916462	-0.057281
C	 0.6971523309	-0.482909873	-1.230393101	 0.304586
C	 1.2778953807	-0.7436540449	-2.2496455373	-0.433608
C	 0.8355897217	-0.5430091433	 1.2592287403	-0.010244
C	 0.1562768163	-0.0959735568	 2.5804638434	-0.126172
O	-0.134263201	-1.3434669721	 3.2626620428	-0.219039
C	 0.337271673	-2.3124682691	 2.4482890896	 0.125137
N	 0.8932689983	-2.0115295983	 1.3492104904	-0.268399
H	 0.586785558	 1.7538033186	-0.2854405395	 0.289146
H	-0.9552549602	-0.5546384533	 0.0644784019	 0.122399
H	 1.7770600876	-0.9974574216	-3.1522516044	 0.20282
H	 1.8520374721	-0.1440983097	 1.1666923671	 0.091185
H	 0.8055589268	 0.4996631608	 3.2258551905	 0.120914
H	-0.7800193296	 0.4431333923	 2.4208380833	 0.137844
H	 0.1936211998	-3.3203616543	 2.8224106099	 0.144421
60.7788	78.4499	124.6736	214.0748	235.0707	284.1573	333.6274	427.7037	458.8496	558.2489	597.5201	638.1903	674.555	759.5256	863.8927	889.7984	951.3357	965.0027	968.7443	1012.3758	1037.6428	1075.5038	1114.3949	1143.5144	1205.2862	1248.8118	1289.4058	1296.977	1318.3691	1371.3642	1375.5558	1415.6261	1518.226	1700.5719	2237.4564	3031.2869	3048.1459	3071.0013	3121.1118	3215.1757	3503.0108	3808.1261
OC(C#C)C1COC=N1	O[C@@H](C#C)[C@H]1COC=N1	
InChI=1S/C6H7NO2/c1-2-6(8)5-3-9-4-7-5/h1,4-6,8H,3H2	InChI=1S/C6H7NO2/c1-2-6(8)5-3-9-4-7-5/h1,4-6,8H,3H2/t5-,6+/m1/s1
