24
gdb 60130	2.69862	0.97516	0.83868	2.1731	86.	-0.2101	0.0631	0.2732	1515.439	0.214811	-405.518242	-405.507146	-405.506202	-405.554468	40.683	
C	 4.2141718368	-5.1854094899	-0.8948157601	-0.405699
C	 2.6940496446	-5.049360938	-0.9899655685	 0.138331
O	 2.0845768661	-6.3004494076	-1.3025615232	-0.426309
C	 2.0856006945	-4.4186524339	 0.2737039787	-0.228666
C	 0.6084131918	-4.1164394893	 0.1102540609	-0.000582
C	-0.4855634996	-5.0554491344	 0.5059562445	 0.0225
C	-0.2391870728	-6.4197989115	 1.1127818282	-0.421398
N	-0.2893337458	-3.7916744123	 1.2242759491	-0.123502
C	 0.19966652	-3.7801820805	 2.5937097978	-0.310581
H	 4.6081260823	-5.6591520457	-1.7979428749	 0.124823
H	 4.6955560691	-4.2095823577	-0.774727364	 0.116934
H	 4.4968953062	-5.8037013629	-0.0330658445	 0.10541
H	 2.4492060215	-4.4121594213	-1.8494620892	 0.090962
H	 2.3239819473	-6.922041421	-0.6062445423	 0.275354
H	 2.2810918448	-5.0823297492	 1.1235187352	 0.085355
H	 2.6207319097	-3.4834090519	 0.4884269318	 0.100061
H	 0.4201820198	-3.49059539	-0.7643755839	 0.08149
H	-1.3827951554	-5.0392387911	-0.1137020729	 0.08413
H	 0.6573033924	-6.4658288458	 1.7346589425	 0.107848
H	-1.0872427967	-6.7242871903	 1.7362309502	 0.118326
H	-0.1297508251	-7.1571582633	 0.3114159376	 0.129634
H	 0.9356670691	-4.5545758421	 2.8538936778	 0.095201
H	 0.6572034721	-2.805847456	 2.7958114456	 0.120046
H	-0.6534918826	-3.8923095541	 3.2711014537	 0.120333
52.4519	87.6781	120.3655	153.9151	178.7622	217.6029	234.4222	249.3889	286.8973	300.7331	348.5755	415.5986	453.8372	482.9744	527.8752	547.0469	716.394	780.6485	846.7716	872.0157	915.8317	946.6749	995.4449	1030.7927	1052.934	1074.7471	1098.9578	1133.8446	1139.5258	1159.0812	1171.4104	1190.4686	1195.7091	1213.6009	1305.6245	1333.0969	1352.1868	1376.4017	1395.4686	1403.1294	1413.8691	1421.9405	1440.406	1463.7281	1473.9509	1489.1194	1491.506	1495.2791	1498.9683	1507.3505	1511.7421	2988.9174	3016.7801	3022.9431	3031.0882	3038.9291	3059.1302	3064.1449	3079.5413	3090.3617	3092.9644	3093.8709	3098.8536	3118.892	3127.8292	3800.3135
CC(O)CC1C(C)N1C	C[C@@H](O)C[C@H]1[C@@H](C)N1C	
InChI=1S/C7H15NO/c1-5(9)4-7-6(2)8(7)3/h5-7,9H,4H2,1-3H3	InChI=1S/C7H15NO/c1-5(9)4-7-6(2)8(7)3/h5-7,9H,4H2,1-3H3/t5-,6-,7+,8?/m1/s1
