22
gdb 14554	2.99099	1.77586	1.42277	0.1563	81.64	-0.2454	0.0881	0.3334	1012.197	0.200534	-313.048012	-313.039532	-313.038588	-313.080441	33.153	
C	 0.1164889789	 1.385108315	-0.3565870086	-0.37875
C	-0.0418326296	-0.0195137077	 0.2421376724	-0.256773
C	-1.4437522965	-0.5974813035	 0.0955726154	 0.369228
C	-2.5007710525	 0.1234892683	 0.9213628978	-0.461988
C	-1.9736389466	-1.1337526995	-1.2135864766	-0.08708
C	-0.8975574289	-1.8537714555	-2.0394025097	-0.24529
C	-0.6438219647	-2.8230111956	-0.8396921189	-0.245007
C	-1.7122152682	-2.0804020657	-0.0283982294	-0.103732
H	 1.1487962654	 1.7365651152	-0.2614356398	 0.108506
H	-0.1426820349	 1.3886445926	-1.4207541879	 0.118183
H	-0.5257919907	 2.1173712034	 0.1423323424	 0.115341
H	 0.6928851486	-0.68262395	-0.2234317671	 0.097681
H	 0.2157966086	 0.0068604546	 1.3096831885	 0.089129
H	-2.5999457886	 1.1732443648	 0.6261430234	 0.116246
H	-3.483178075	-0.3442269839	 0.8014533851	 0.112118
H	-2.247851998	 0.0999316174	 1.9878701672	 0.111749
H	-2.923690135	-0.7919205041	-1.6098654131	 0.074576
H	-1.3124199864	-2.3747306282	-2.9051439675	 0.10061
H	-0.0526698415	-1.246494121	-2.3800097035	 0.095108
H	-0.9436955285	-3.8465508222	-1.0759715801	 0.100051
H	 0.3669668468	-2.8541752425	-0.4196823193	 0.095031
H	-2.4323750528	-2.563697762	 0.623177979	 0.075063
80.9608	184.4238	208.3089	221.0849	267.7558	290.032	309.155	367.5215	480.0843	485.7888	650.7926	736.2491	784.9106	791.488	839.3019	840.7148	912.5105	944.1624	973.952	993.4034	1002.6756	1020.3678	1028.6934	1064.4487	1065.1333	1102.4451	1114.5441	1143.2279	1205.2731	1223.6221	1252.2357	1260.4586	1290.8775	1292.2263	1317.4156	1365.6709	1408.473	1417.3105	1423.0457	1477.5699	1487.8181	1494.9684	1502.5854	1504.2731	1510.8305	1511.297	3017.7804	3025.8695	3035.2009	3042.5754	3050.8493	3078.0577	3087.8655	3091.0109	3098.4482	3101.487	3108.0849	3110.7168	3157.3023	3168.9281
CCC1(C)C2CCC12	CC[C@@]1(C)[C@H]2CC[C@@H]12	
InChI=1S/C8H14/c1-3-8(2)6-4-5-7(6)8/h6-7H,3-5H2,1-2H3	InChI=1S/C8H14/c1-3-8(2)6-4-5-7(6)8/h6-7H,3-5H2,1-2H3/t6-,7+,8-
