21
gdb 120050	4.25136	1.01462	0.97626	1.0136	82.57	-0.2397	0.0887	0.3284	1324.7516	0.182985	-387.03599	-387.027688	-387.026743	-387.069505	32.003	
C	 0.0753938508	 1.4945228167	-0.0561176205	-0.385066
C	 0.2815007028	-0.0099376639	-0.0058154988	-0.039694
O	 0.5202516405	-0.4766607171	-1.3211773261	-0.263967
C	 0.6872681873	-1.8670313409	-1.4056512337	 0.188244
C	 0.9081419369	-2.4431613198	-2.7876997274	-0.122524
C	 2.4139800686	-2.397786904	-3.0755029212	-0.0587
C	 3.0915061971	-1.7424211446	-1.8731122682	-0.223933
C	 2.0547802175	-2.5116492549	-1.0106017119	-0.120681
C	 1.8369107696	-3.5007398901	-2.2234539591	-0.086902
H	 0.9641249897	 1.9899290395	-0.4574023939	 0.126064
H	-0.7734596236	 1.7429865618	-0.6995073557	 0.125921
H	-0.119345609	 1.8882564257	 0.9460774005	 0.112083
H	 1.1298561415	-0.2592508073	 0.6519758184	 0.08811
H	-0.6084082503	-0.5084970348	 0.4148320484	 0.084504
H	-0.1373471055	-2.3880199019	-0.8944793836	 0.060017
H	 0.1840295903	-2.5511389377	-3.584507236	 0.084782
H	 2.7738660625	-2.4684448842	-4.0939412392	 0.083516
H	 4.1018795876	-2.1329258732	-1.7251003048	 0.093056
H	 3.0883303222	-0.650548096	-1.7999275928	 0.099759
H	 2.2684593573	-2.7901190485	 0.018999731	 0.066058
H	 1.8269358964	-4.5760361749	-2.3150243451	 0.089351
67.5694	75.6305	134.8863	233.8536	275.1398	335.2443	370.9841	493.343	611.2196	734.397	741.4635	791.5719	799.7387	818.2884	823.3017	880.1431	912.9499	935.7404	965.8155	989.7886	995.9577	1027.8212	1031.3664	1045.1607	1061.3087	1085.5132	1134.2765	1152.1903	1158.0613	1164.938	1172.0294	1189.7779	1217.2105	1252.6803	1283.5154	1296.9304	1335.9175	1367.8637	1373.895	1404.4955	1442.0464	1483.6519	1489.0576	1499.9216	1528.2822	2956.8009	2983.4893	2986.5249	3044.0412	3049.3294	3106.485	3117.9164	3121.0021	3137.3725	3194.3954	3203.6042	3235.0213
CCOC1C2C3CC1C23	CCO[C@H]1[C@H]2[C@H]3C[C@@H]1[C@@H]23	
InChI=1S/C8H12O/c1-2-9-8-5-3-4-6(5)7(4)8/h4-8H,2-3H2,1H3	InChI=1S/C8H12O/c1-2-9-8-5-3-4-6(5)7(4)8/h4-8H,2-3H2,1H3/t4-,5+,6-,7-,8+/m0/s1
