19
gdb 98434	2.67487	1.20248	1.03551	3.268	71.59	-0.2502	-0.03	0.2202	1232.1622	0.156611	-460.161057	-460.151465	-460.150521	-460.196355	34.547	
C	-0.2484672367	 1.710195463	-0.4120790012	-0.436925
C	-0.0700054724	 0.237821875	-0.0693262314	 0.330595
C	 0.7859703644	-0.6113555758	-1.0527148608	-0.319407
C	 1.7354652708	-0.7874177655	 0.1470931706	-0.073119
O	 0.895382222	 0.0311626228	 0.993288854	-0.315349
C	-1.4146747292	-0.3952745408	 0.2657520825	 0.292414
O	-2.3376486643	-0.3764826152	-0.5229927745	-0.34381
C	-1.5907559626	-1.0608720402	 1.6187372021	-0.12856
O	-2.8840758281	-1.5668008862	 1.7634492252	-0.425201
H	 0.7078863042	 2.1450646056	-0.7141963609	 0.121684
H	-0.9709322698	 1.81465005	-1.2257710209	 0.146422
H	-0.6189825974	 2.2635587825	 0.4566314193	 0.13254
H	 0.3110389471	-1.5180413183	-1.4289454184	 0.127543
H	 1.1861717474	-0.0410413216	-1.8919435634	 0.122322
H	 1.8275463	-1.8092478383	 0.532896146	 0.111898
H	 2.7368692666	-0.3579342011	 0.0355784549	 0.113638
H	-0.8297813056	-1.8511710711	 1.7186574338	 0.120397
H	-1.3467839728	-0.3224968187	 2.3991813947	 0.130586
H	-3.3343646434	-1.3570076962	 0.9293562683	 0.292333
34.4088	76.4169	123.5373	191.2315	216.7859	242.0055	293.4149	339.4031	344.5997	425.3393	492.0054	502.9939	568.5218	754.312	788.1808	839.7434	875.8372	901.2307	973.415	975.6609	1013.5574	1024.1379	1065.8612	1140.2966	1148.1545	1164.5912	1192.7941	1207.703	1235.4957	1257.0134	1271.9819	1321.3981	1351.2514	1395.2321	1448.6735	1470.7335	1481.5348	1488.262	1496.3954	1530.7289	1785.9135	2988.5836	3001.2418	3028.3553	3042.7485	3071.4458	3086.9338	3116.6953	3133.2237	3143.4886	3680.6437
CC1(CCO1)C(=O)CO	C[C@]1(CCO1)C(=O)CO	
InChI=1S/C6H10O3/c1-6(2-3-9-6)5(8)4-7/h7H,2-4H2,1H3	InChI=1S/C6H10O3/c1-6(2-3-9-6)5(8)4-7/h7H,2-4H2,1H3/t6-/m0/s1
