18
gdb 125948	2.93286	1.59681	1.08821	4.7619	77.55	-0.2352	0.0028	0.2379	1099.1005	0.151052	-398.140596	-398.133086	-398.132142	-398.172639	29.023	
C	-0.0589844675	 1.6103782421	-0.0469922257	-0.399517
C	-0.00101597	 0.0815033924	 0.0366833692	-0.118239
C	 0.7565802411	-0.585131695	-1.1716621937	-0.210351
C	 1.548660586	-1.8282741259	-0.6412363057	-0.346372
C	 1.6247844589	-1.5146829072	 0.8227061513	 0.284362
C	 0.7897845932	-0.4903731052	 1.1726089234	 0.358092
N	 0.9474527441	-0.3799501728	 2.5065763141	-0.338352
N	 1.8544997749	-1.294789468	 2.9561424348	-0.128291
N	 2.2585260305	-1.9885103812	 1.9248430285	-0.290319
H	 0.9484047415	 2.0388159399	-0.0639274033	 0.125607
H	-0.5777107428	 1.9260088022	-0.9577008896	 0.123561
H	-0.5969000421	 2.040231033	 0.8047544623	 0.112106
H	-1.0312092661	-0.3003752653	 0.0792527941	 0.095121
H	 0.0716408946	-0.8397889081	-1.9843622355	 0.104987
H	 1.4686139755	 0.1467181862	-1.5680116884	 0.112548
H	 1.0031483171	-2.7620643548	-0.8243670565	 0.118139
H	 2.5232101847	-1.9287609923	-1.1273181304	 0.121465
H	 0.5348387165	 0.2539705501	 3.171180981	 0.275454
100.2626	156.4749	229.9015	246.4917	284.855	426.1311	473.9332	554.3686	561.4829	647.3575	714.9208	716.791	747.774	820.0066	898.3346	948.0763	977.368	1004.5312	1025.2356	1040.4452	1100.8616	1104.7559	1156.3384	1186.3417	1212.3428	1244.1767	1287.4661	1302.6668	1321.2544	1351.5199	1371.8436	1396.4181	1411.702	1484.6749	1495.1336	1499.0575	1504.1095	1519.4438	1609.7943	2995.8499	3031.6701	3033.0809	3049.5268	3082.9204	3098.8425	3104.367	3109.1685	3664.0271
CC1CCC2=C1NN=N2	C[C@H]1CCc2c1[nH]nn2	
InChI=1S/C6H9N3/c1-4-2-3-5-6(4)8-9-7-5/h4H,2-3H2,1H3,(H,7,8,9)	InChI=1S/C6H9N3/c1-4-2-3-5-6(4)8-9-7-5/h4H,2-3H2,1H3,(H,7,8,9)/t4-/m0/s1
