18
gdb 35517	3.08956	1.43478	1.32817	2.9682	73.92	-0.2739	0.0304	0.3044	1017.4175	0.15146	-401.983243	-401.976119	-401.975174	-402.015024	28.157	
N	-0.1597374628	-1.1763968813	-0.2619276988	-0.337971
C	-0.1029879634	-0.0286225538	-0.131425407	 0.264967
C	-0.013413176	 1.4148756251	 0.0321524766	-0.136482
C	-0.5866027513	 1.9610415471	 1.3870061484	-0.248029
C	 0.6186874565	 2.7829084085	 1.8989981546	 0.080949
C	 1.7047458563	 1.8388219764	 2.4573011576	-0.220885
C	 2.2872230876	 1.2435481127	 1.1390583057	-0.236765
C	 1.4437027221	 1.9874704566	 0.0832645422	 0.058152
O	 1.2107570286	 3.2615013703	 0.6795822956	-0.255765
H	-0.5342493017	 1.8827609249	-0.8072326226	 0.132197
H	-1.4543330565	 2.5965559055	 1.2032411347	 0.120506
H	-0.8813784855	 1.1635315753	 2.0711355453	 0.125825
H	 0.358213512	 3.6294785866	 2.5335019217	 0.087189
H	 2.4598023953	 2.4061434369	 3.0054333554	 0.112082
H	 1.2966422219	 1.0799167126	 3.1289474955	 0.10978
H	 3.3426136869	 1.4949118958	 1.0179524406	 0.114309
H	 2.187142756	 0.1586731876	 1.0700687001	 0.134337
H	 1.903937394	 2.1092329234	-0.8962669656	 0.095602
80.9519	157.02	224.61	335.9101	384.3481	495.0012	540.39	556.6293	599.235	752.7199	789.0026	813.6575	830.5727	854.7072	896.3697	941.2311	951.7625	989.6055	1008.3852	1023.2101	1046.1059	1060.9453	1087.2045	1126.0304	1183.404	1209.7407	1234.5613	1269.9699	1277.4129	1296.2382	1303.7865	1329.6586	1334.009	1343.0482	1364.6149	1483.9669	1494.2161	1509.5496	2352.0481	3070.0988	3075.9877	3081.1453	3083.3944	3112.0292	3126.2356	3130.681	3134.3206	3137.3757
N#CC1CC2CCC1O2	N#C[C@H]1C[C@H]2CC[C@@H]1O2	
InChI=1S/C7H9NO/c8-4-5-3-6-1-2-7(5)9-6/h5-7H,1-3H2	InChI=1S/C7H9NO/c8-4-5-3-6-1-2-7(5)9-6/h5-7H,1-3H2/t5-,6-,7+/m1/s1
