24
gdb 105220	1.78112	1.46184	1.02924	1.498	85.34	-0.2402	0.0636	0.3038	1328.3623	0.215804	-405.528103	-405.517208	-405.516264	-405.563498	40.746	
C	 1.4444715745	 0.2319714276	-2.3894616004	-0.423917
C	 0.58839658	-0.4697117678	-1.3222657476	-0.011383
C	 0.9748041757	-0.0169625481	 0.0936838706	-0.401632
C	-0.906786794	-0.3035817723	-1.5970875109	 0.306773
C	-1.4304682262	 1.1274602809	-1.7305484431	-0.173864
O	-1.4488415242	 1.5935824425	-3.0774879377	-0.415556
N	-1.4671988877	-1.2643258492	-2.567197972	-0.376729
C	-1.9001604228	-1.3377128847	-1.1643445414	-0.04055
C	-1.5841409944	-2.6019876711	-0.3993213856	-0.407403
H	 2.5064041828	 0.0060946222	-2.2483641691	 0.115359
H	 1.1641491332	-0.1004724626	-3.3944357053	 0.129626
H	 1.347395102	 1.3243391188	-2.3359004343	 0.107019
H	 0.798728561	-1.5405319156	-1.4058155857	 0.08429
H	 0.8121653307	 1.0572089265	 0.2371485877	 0.114248
H	 0.392057018	-0.5456359757	 0.8540981858	 0.117827
H	 2.0351588728	-0.2117763841	 0.2851598982	 0.112617
H	-2.4734793077	 1.1800100917	-1.4042072502	 0.108985
H	-0.8556628744	 1.8085955548	-1.0873085904	 0.094322
H	-0.5448202922	 1.5860221621	-3.4066250036	 0.286697
H	-2.1539922277	-0.7883574558	-3.1484109771	 0.234106
H	-2.8919615932	-0.9420253582	-0.9424175274	 0.075973
H	-0.601692472	-3.0011263452	-0.6581233953	 0.127669
H	-1.6168923109	-2.4253938984	 0.6814023139	 0.114414
H	-2.3243599234	-3.3750384285	-0.633253499	 0.12111
81.0845	91.0082	155.0976	178.8101	195.5964	224.1456	237.079	266.1299	296.1927	332.5974	352.6704	357.8125	431.1054	486.2739	494.5005	593.4199	709.6648	822.61	868.7875	897.2141	929.1499	941.0334	954.8405	966.101	1025.5093	1044.4653	1056.8988	1081.383	1111.5843	1134.1693	1151.6834	1194.2417	1208.4037	1250.5727	1280.1526	1329.5554	1347.453	1379.9326	1390.3379	1394.6396	1410.2769	1419.0192	1431.0524	1462.0057	1486.8772	1492.0129	1496.7092	1500.0567	1502.4825	1513.7124	1518.931	3006.9136	3015.4588	3031.7484	3035.2413	3054.3197	3078.9341	3082.5502	3092.3243	3093.787	3097.0847	3101.4505	3107.2012	3132.8799	3490.8867	3829.1898
CC(C)C1(CO)NC1C	CC(C)[C@@]1(CO)N[C@H]1C	
InChI=1S/C7H15NO/c1-5(2)7(4-9)6(3)8-7/h5-6,8-9H,4H2,1-3H3	InChI=1S/C7H15NO/c1-5(2)7(4-9)6(3)8-7/h5-6,8-9H,4H2,1-3H3/t6-,7+/m0/s1
