19
gdb 72400	3.12178	1.51026	1.3853	1.461	70.15	-0.2465	0.0526	0.2991	1009.2558	0.159311	-460.174003	-460.166004	-460.16506	-460.205827	32.171	
C	-0.0566010429	 1.4537498681	 0.0805355927	-0.464129
C	 0.0326541366	-0.0420874263	-0.0546753964	 0.486761
C	 0.7362622344	-0.7066178034	-1.2461864752	-0.308189
C	 0.4174096218	-2.0997214057	-0.6870624571	 0.308196
O	 0.8730467995	-3.1795321513	-1.4513380609	-0.487192
C	 1.0260751206	-1.949599793	 0.7261326169	-0.123581
O	 0.725090645	-0.5893966845	 1.0723542774	-0.292822
C	-1.1145851185	-1.9638089415	-0.5300103936	-0.123573
O	-1.2834814697	-0.6027150255	-0.1063108803	-0.292819
H	 0.9443061883	 1.887497335	 0.131101676	 0.128057
H	-0.5932761371	 1.8772892722	-0.7709946107	 0.128059
H	-0.5960536077	 1.7046883119	 0.9971698178	 0.140014
H	 0.2549048026	-0.5007380442	-2.2039045334	 0.111458
H	 1.8050349898	-0.4904520211	-1.2942709081	 0.111456
H	 0.6193917748	-3.9973470231	-1.0093965182	 0.284143
H	 0.576278011	-2.6315881027	 1.4597871067	 0.094122
H	 2.1117293433	-2.1110019302	 0.7072823617	 0.102958
H	-1.625980263	-2.1358355171	-1.4860063338	 0.102961
H	-1.5289498689	-2.6455437776	 0.2244510885	 0.094121
181.4363	186.5085	244.1342	248.2155	290.6614	328.8197	398.7754	438.8623	495.5981	519.9886	575.9244	592.4206	652.5626	795.6117	832.958	836.4705	902.4238	959.5942	962.1727	972.9116	1020.9223	1032.2787	1060.2688	1122.5094	1136.4964	1172.679	1178.6523	1192.3108	1205.2175	1255.7208	1266.4961	1344.9503	1348.7079	1358.9155	1409.2569	1425.3967	1479.7915	1486.8944	1489.6646	1519.1674	1537.6107	3004.0348	3008.6916	3045.9534	3051.829	3059.3607	3078.5318	3137.0994	3139.1644	3143.5324	3801.3441
CC12CC(O)(CO1)CO2	C[C@@]12C[C@@](O)(CO1)CO2	
InChI=1S/C6H10O3/c1-5-2-6(7,3-8-5)4-9-5/h7H,2-4H2,1H3	InChI=1S/C6H10O3/c1-5-2-6(7,3-8-5)4-9-5/h7H,2-4H2,1H3/t5-,6-
