23
gdb 116888	5.092	0.47816	0.45153	1.3845	92.7	-0.2417	0.061	0.3027	2478.2219	0.203049	-388.270516	-388.258719	-388.257775	-388.310343	40.79	
C	-0.147928531	 1.5369623933	 0.032540914	-0.393534
C	-0.0111657683	 0.0132245088	-0.0285576663	-0.155124
C	 0.809044971	-0.5031202127	-1.2372185273	-0.142943
C	 2.2816410122	-0.0459458435	-1.1985608792	-0.381879
C	 0.7243398895	-1.9622393143	-1.3226801293	 0.074742
C	 0.6567058989	-3.1649331723	-1.3604440767	 0.044813
C	 0.5840198774	-4.6185442871	-1.4449003318	-0.324357
C	 1.1420608143	-5.1594507015	-2.7656881726	-0.061917
O	 1.0124954393	-6.5708681138	-2.724322873	-0.415839
H	 0.8160740512	 2.033078231	 0.179797017	 0.11947
H	-0.5892174603	 1.9329075813	-0.8893999164	 0.11373
H	-0.7970376861	 1.8323100727	 0.8626609619	 0.114145
H	 0.45168178	-0.361532636	 0.8926146238	 0.102857
H	-1.0072890757	-0.4399093414	-0.0762912521	 0.105506
H	 0.3519708686	-0.0833658043	-2.1458916861	 0.096514
H	 2.8313305918	-0.443798219	-2.0555900191	 0.120862
H	 2.3569872358	 1.0447232352	-1.223518609	 0.113792
H	 2.7711451683	-0.4057835518	-0.2878654652	 0.121495
H	 1.1408639122	-5.0814897029	-0.6208283413	 0.133535
H	-0.4538661738	-4.959527826	-1.3448106238	 0.133721
H	 0.5803606272	-4.7228876878	-3.6050158851	 0.09632
H	 2.1923180606	-4.8492719935	-2.8724121616	 0.096036
H	 1.3561135368	-6.9296922242	-3.5473242208	 0.288056
7.5699	60.3417	70.0611	96.5439	142.2353	159.2934	221.4522	239.4226	267.6527	287.3234	314.5464	347.7247	396.3964	482.3978	513.011	552.0899	749.2045	791.6197	794.3701	850.5261	960.5976	977.8	1001.1217	1030.4211	1077.0206	1079.21	1087.7579	1131.8506	1153.7909	1199.7857	1220.9539	1237.7591	1284.4212	1303.1695	1315.637	1332.8385	1346.1161	1376.4338	1405.5515	1414.429	1453.7057	1479.7774	1483.2785	1492.7879	1498.7657	1505.0169	1510.4945	1527.9072	2363.7342	2982.6555	2989.8495	3012.8569	3027.8282	3032.0769	3034.4866	3041.4773	3064.3487	3069.3823	3099.2717	3108.2836	3114.2297	3120.0374	3835.561
CCC(C)C#CCCO	CC[C@@H](C)C#CCCO	
InChI=1S/C8H14O/c1-3-8(2)6-4-5-7-9/h8-9H,3,5,7H2,1-2H3	InChI=1S/C8H14O/c1-3-8(2)6-4-5-7-9/h8-9H,3,5,7H2,1-2H3/t8-/m1/s1
