17
gdb 106902	2.95138	1.30671	1.08754	2.3885	69.77	-0.2352	-0.0202	0.215	1136.1752	0.133434	-458.929509	-458.920456	-458.919511	-458.963578	32.661	
C	 0.1661613488	 1.3336051811	-0.1945818557	-0.263128
O	-0.1686554287	-0.0153567672	 0.1154162064	-0.287502
C	 0.5427028079	-0.5185203117	 1.1725671721	 0.452117
C	 1.9373453553	-1.0200505265	 1.0602716958	-0.338048
C	 0.8237527721	-2.0185427709	 1.4307805893	-0.291092
C	 0.4964144772	-1.8099398519	 2.8737645697	 0.408136
O	 0.4229203199	-2.5090494857	 3.8461277349	-0.326916
C	 0.1626612281	-0.3055772255	 2.6426112925	-0.091806
O	 0.8816722651	 0.6821351837	 3.3406014631	-0.437003
H	 1.2234583695	 1.4255754977	-0.4760643549	 0.118012
H	-0.4613920816	 1.6260294029	-1.0383731133	 0.132732
H	-0.0312733348	 1.999440475	 0.6551458357	 0.13181
H	 2.2909707307	-1.1546998309	 0.043113973	 0.132013
H	 2.6984570767	-0.7482022314	 1.7832805214	 0.138086
H	 0.626238679	-2.884696393	 0.8124085583	 0.123939
H	-0.9280992273	-0.1709941604	 2.7268911658	 0.100484
H	 0.7967550221	 0.4926730548	 4.2820467359	 0.298164
74.4691	91.582	152.707	178.68	213.39	250.9434	288.6452	354.5672	415.508	503.7594	517.0782	591.5444	695.2785	736.2831	827.3303	847.6108	928.8234	970.516	979.3125	1029.0503	1067.686	1080.3693	1109.0363	1136.5345	1149.4302	1182.0783	1217.0003	1232.2907	1265.8851	1304.4328	1354.818	1416.1727	1476.0721	1487.9246	1502.3361	1507.2976	1883.0163	2982.628	3005.8321	3066.1995	3132.5351	3133.4569	3205.0648	3223.8051	3801.5797
COC12CC1C(=O)C2O	CO[C@]12C[C@H]1C(=O)[C@H]2O	
InChI=1S/C6H8O3/c1-9-6-2-3(6)4(7)5(6)8/h3,5,8H,2H2,1H3	InChI=1S/C6H8O3/c1-9-6-2-3(6)4(7)5(6)8/h3,5,8H,2H2,1H3/t3-,5+,6+/m0/s1
