20
gdb 15439	4.65195	0.96008	0.87733	0.9795	73.33	-0.2428	0.0905	0.3334	1385.8177	0.174848	-386.098064	-386.088516	-386.087572	-386.133155	33.121	
C	 0.3620002062	 1.3525861375	-0.0881649772	-0.223013
O	 0.4812236096	-0.0478516148	-0.0748329031	-0.232977
C	 0.302142123	-0.5946099265	 1.2183481001	-0.067298
C	 0.39452582	-2.0938743608	 1.1232482633	-0.06457
C	 1.7577045039	-2.7591944299	 1.0750794945	-0.313949
C	 0.8775722321	-2.8983936077	 2.2923118896	 0.114362
O	 1.2004154389	-2.2055849788	 3.4572808051	-0.236535
C	 2.1768680414	-2.8662659299	 4.236502307	-0.230752
H	 1.1135686187	 1.835763795	 0.5574599078	 0.099986
H	 0.5160007663	 1.6862887316	-1.1175455368	 0.123361
H	-0.6345140963	 1.6843618468	 0.2467193888	 0.100118
H	 1.0618767128	-0.2098323418	 1.9146469693	 0.096431
H	-0.6821172163	-0.2984185437	 1.6207176345	 0.084942
H	-0.3890482767	-2.5480433179	 0.523897923	 0.09235
H	 1.9055638253	-3.6144039821	 0.4251542554	 0.110994
H	 2.615858545	-2.1015698531	 1.1664147725	 0.120296
H	 0.4067465593	-3.8668351499	 2.4716003311	 0.083735
H	 1.8303900533	-3.859205333	 4.5614493761	 0.105922
H	 3.1189444864	-2.9932197724	 3.6843448426	 0.110129
H	 2.3568412371	-2.2485195985	 5.1194347665	 0.126468
52.8462	89.9143	110.4831	119.1754	197.8227	217.9311	235.1642	309.4653	321.5806	442.8623	492.3869	597.0581	777.927	832.9756	898.8275	924.5366	979.9602	1020.3029	1043.5941	1053.5265	1103.782	1134.1146	1151.1771	1168.5199	1177.3481	1185.2072	1196.2506	1219.967	1233.7908	1260.1897	1270.9851	1362.2034	1402.01	1438.0672	1473.6433	1480.7658	1483.8834	1485.7827	1492.9747	1505.259	1509.6163	1527.9559	2952.6676	2965.2678	2983.0913	3002.5611	3012.0814	3034.9547	3080.4618	3109.2372	3118.3188	3133.5621	3153.0895	3222.3635
COCC1CC1OC	COC[C@H]1C[C@H]1OC	
InChI=1S/C6H12O2/c1-7-4-5-3-6(5)8-2/h5-6H,3-4H2,1-2H3	InChI=1S/C6H12O2/c1-7-4-5-3-6(5)8-2/h5-6H,3-4H2,1-2H3/t5-,6-/m1/s1
