15
gdb 6265	3.3335	1.36595	1.11402	4.6189	62.92	-0.2864	-0.0859	0.2005	1068.1866	0.116193	-399.818578	-399.809625	-399.808681	-399.852931	30.777	
C	 0.0899901991	 1.4266172402	 0.3344546507	-0.411057
C	-0.0530479882	-0.0900989097	 0.2476824042	 0.143348
O	-0.176015518	-0.693658374	 1.5269752461	-0.424761
C	-1.2250130111	-0.5041331134	-0.6779456121	-0.329544
C	-1.3656990676	-2.0102554194	-0.7023428766	 0.326902
O	-0.8095794433	-2.7350618668	-1.4871800699	-0.266837
C	-2.2461600086	-2.5783033603	 0.3426022263	 0.2243
N	-2.9698493638	-3.0018322205	 1.1389973201	-0.311586
H	 0.9264390575	 1.6827835805	 0.989858845	 0.138212
H	 0.2711602922	 1.8667544584	-0.6509560731	 0.127458
H	-0.8204389676	 1.8816035655	 0.7436690467	 0.116152
H	 0.8642145248	-0.5205158169	-0.1695779163	 0.118664
H	-0.9171136211	-0.2880805868	 1.9919765993	 0.288229
H	-2.1548966583	-0.0443568731	-0.3228700193	 0.120521
H	-1.0270175061	-0.1687279237	-1.6997769011	 0.14
48.417	62.6475	143.1404	181.9207	238.7798	281.9431	320.6703	329.205	417.3775	446.8413	465.4388	620.5931	677.1512	792.9625	855.4325	917.5713	933.0498	1041.9532	1083.5676	1122.7075	1136.4283	1228.3034	1296.1115	1324.2989	1361.1741	1405.2236	1424.3221	1465.4686	1489.8152	1493.1012	1800.9905	2336.6971	3028.8224	3039.2526	3057.963	3099.8622	3113.0888	3124.8307	3795.7447
CC(O)CC(=O)C#N	C[C@@H](O)CC(=O)C#N	
InChI=1S/C5H7NO2/c1-4(7)2-5(8)3-6/h4,7H,2H2,1H3	InChI=1S/C5H7NO2/c1-4(7)2-5(8)3-6/h4,7H,2H2,1H3/t4-/m1/s1
