17
gdb 123428	5.20255	0.96268	0.84155	5.3757	73.83	-0.2517	0.0019	0.2536	1324.1658	0.139097	-414.157825	-414.150178	-414.149234	-414.190842	28.296	
C	 0.065366886	 1.2807948513	 0.6643322882	-0.355636
C	-0.0626579245	-0.0911400107	 0.0377038135	 0.01961
C	-1.3646824846	-0.6371162148	-0.4012329198	-0.251745
N	-0.3682193096	-0.207394709	-1.4059380887	-0.326268
C	 1.3714052056	 1.9369672395	 0.3238977393	 0.342476
C	 2.132642557	 2.912916947	 0.9268767175	-0.16145
N	 3.2384497088	 3.1524147381	 0.1678210816	-0.18778
N	 3.2135726039	 2.3762184821	-0.8768560859	-0.116429
N	 2.0870850466	 1.6421696893	-0.7920445527	-0.229404
H	-0.7725718278	 1.9086571291	 0.3290272548	 0.120842
H	-0.0238319315	 1.210250479	 1.7542925763	 0.135687
H	 0.6965539631	-0.8015738477	 0.3593641147	 0.111029
H	-1.5450760872	-1.7069325043	-0.3625277007	 0.131079
H	-2.250661016	-0.0226351468	-0.2646576835	 0.120311
H	-0.6496556921	 0.7032120896	-1.7661391216	 0.233594
H	 1.9512990155	 3.4450984957	 1.846963405	 0.120458
H	 1.8834466068	 0.9451925025	-1.494006958	 0.293626
63.0901	102.3245	134.478	270.938	305.5566	353.9597	454.5534	633.3177	686.4291	728.2905	744.9439	787.1369	833.9122	846.8144	929.8326	944.6132	990.2106	997.2996	1052.3517	1067.6647	1080.4293	1129.7886	1134.367	1150.6895	1184.0292	1234.6917	1260.7889	1269.3324	1296.5968	1312.0921	1340.6657	1381.1331	1428.8059	1446.0939	1476.8009	1513.0614	1603.8666	3006.7985	3064.3909	3114.9084	3129.858	3202.1432	3266.5154	3474.3046	3626.6326
C(C1CN1)C1=CN=NN1	C([C@H]1CN1)c1cnn[nH]1	
InChI=1S/C5H8N4/c1(4-2-6-4)5-3-7-9-8-5/h3-4,6H,1-2H2,(H,7,8,9)	InChI=1S/C5H8N4/c1(4-2-6-4)5-3-7-9-8-5/h3-4,6H,1-2H2,(H,7,8,9)/t4-/m0/s1
