18
gdb 51571	3.93151	0.86299	0.79457	3.2305	73.09	-0.2512	-0.0289	0.2223	1442.8082	0.146458	-439.038127	-439.029208	-439.028263	-439.073164	31.606	
O	-0.5512285308	 0.6711772845	 0.4372111454	-0.233724
C	 0.1226431216	 1.6572841281	 0.2915311091	 0.160617
C	 1.4912271923	 1.6738419981	-0.3663991417	-0.33195
C	 1.569981437	 2.7161227071	-1.4629633183	 0.048094
O	 1.5285401428	 4.1019956334	-1.0728931855	-0.260656
C	 2.7257221445	 3.6038592123	-1.679940039	 0.021093
C	 3.9532825935	 3.5911981283	-0.8168005185	-0.035204
C	 4.4527071416	 4.866042451	-0.2431134066	-0.239612
N	 3.8345493277	 3.8473045764	 0.6249633389	-0.315134
H	-0.22488719	 2.6531046729	 0.6456509232	 0.093227
H	 2.2375928978	 1.8864223204	 0.4078342085	 0.154706
H	 1.6919031551	 0.6786512795	-0.7749854272	 0.129372
H	 0.9428265446	 2.5041774931	-2.3302716421	 0.109808
H	 2.8864451091	 3.9599671265	-2.6993272898	 0.105116
H	 4.6773513073	 2.8222599402	-1.0802183016	 0.104403
H	 5.518268314	 5.014814624	-0.0967307831	 0.124161
H	 3.8854554953	 5.7688610019	-0.4535304697	 0.1247
H	 2.8730599965	 4.1349462022	 0.803190198	 0.240983
48.0582	65.8458	110.9246	139.0388	200.4765	255.6703	304.4967	436.8214	505.0387	538.6041	627.7582	741.5859	806.6353	824.6647	863.4129	879.5455	947.4755	967.71	1001.1352	1007.1124	1072.5895	1098.8208	1117.3696	1136.4099	1152.8253	1161.1292	1193.7312	1237.104	1275.6284	1290.2606	1303.6492	1316.517	1383.2334	1418.9679	1425.0272	1458.6313	1470.487	1508.7431	1835.4161	2891.9564	3047.3783	3088.217	3098.713	3112.2568	3112.8299	3125.7379	3201.8779	3479.9931
O=CCC1OC1C1CN1	O=CC[C@H]1O[C@H]1[C@H]1CN1	
InChI=1S/C6H9NO2/c8-2-1-5-6(9-5)4-3-7-4/h2,4-7H,1,3H2	InChI=1S/C6H9NO2/c8-2-1-5-6(9-5)4-3-7-4/h2,4-7H,1,3H2/t4-,5-,6+/m1/s1
