19
gdb 63321	2.55818	1.51727	1.23686	3.4749	75.11	-0.2349	-0.008	0.2269	1079.8407	0.158516	-423.050876	-423.042464	-423.041519	-423.083402	33.394	
C	 0.0229438984	 1.564673163	-0.0300096368	-0.43752
C	 0.0061992042	 0.0365530343	-0.0014410278	 0.363398
O	-1.3352175935	-0.4443355707	 0.1243543725	-0.472993
C	 0.6883249811	-0.6319162857	-1.219261486	-0.391891
C	 1.212606724	-1.9788584293	-0.692624772	 0.430147
O	 1.3654915421	-2.979306357	-1.34655313	-0.334967
C	 1.43337323	-1.8364380504	 0.778430776	-0.147453
C	 2.2157264638	-0.5946598042	 1.1958116605	-0.311697
C	 0.7256230252	-0.5630798328	 1.2090025337	-0.028138
H	 1.0450313	 1.9545676247	-0.0501230367	 0.118096
H	-0.495148867	 1.9427442049	-0.9196162646	 0.108638
H	-0.4841210022	 1.9622542211	 0.8540450448	 0.125851
H	-1.8449043985	-0.0983331814	-0.6161597046	 0.278034
H	-0.0032584468	-0.7910288773	-2.0492178821	 0.119007
H	 1.5276367939	-0.0392919597	-1.601831481	 0.121537
H	 1.4912612462	-2.7306863082	 1.3848385835	 0.107852
H	 2.721186847	-0.6605698744	 2.1524376691	 0.127586
H	 2.7687726492	-0.0436430989	 0.4423699102	 0.120544
H	 0.1961856228	-0.5145738479	 2.1532219411	 0.103968
93.6243	175.5293	244.4803	252.8303	288.4608	344.8219	351.793	406.0579	460.5495	480.2003	538.789	579.5414	658.4818	747.1725	789.0719	841.4704	867.805	897.8098	934.0599	946.263	959.755	1004.3675	1048.7891	1072.62	1102.0227	1105.9515	1112.9884	1177.7547	1195.9257	1199.7923	1227.3184	1273.9916	1321.6506	1352.0258	1395.3351	1409.8398	1447.9765	1488.708	1494.2779	1497.2763	1839.5241	3027.6846	3047.1659	3095.0257	3113.6616	3117.8209	3135.3527	3184.3011	3205.4192	3221.1971	3806.1365
CC1(O)CC(=O)C2CC12	C[C@@]1(O)CC(=O)[C@H]2C[C@@H]12	
InChI=1S/C7H10O2/c1-7(9)3-6(8)4-2-5(4)7/h4-5,9H,2-3H2,1H3	InChI=1S/C7H10O2/c1-7(9)3-6(8)4-2-5(4)7/h4-5,9H,2-3H2,1H3/t4-,5+,7+/m0/s1
