23
gdb 7589	2.59939	1.62878	1.42248	1.1492	82.03	-0.2176	0.0797	0.2973	1072.2236	0.20974	-330.307037	-330.297102	-330.296158	-330.340889	37.337	
C	 0.7636587799	-2.1936517492	-1.4458778715	-0.397315
C	 0.217244035	-1.3574581014	-0.2765228112	-0.017814
C	 0.9465323433	-0.006998678	-0.1817079284	-0.403143
C	-1.3048995264	-1.1999263275	-0.3606864562	 0.359756
C	-1.8409625868	-0.4019000401	-1.5373328332	-0.454626
C	-2.1482027693	-2.3143754534	 0.1738384879	-0.299119
N	-2.1202118638	-1.0245635203	 0.853828475	-0.123114
C	-1.5351720016	-0.9661289009	 2.183208807	-0.317897
H	 1.8362742904	-2.3750985491	-1.3202040185	 0.1092
H	 0.2617820749	-3.1641862639	-1.5103634647	 0.113977
H	 0.6292297079	-1.6817338966	-2.4044734832	 0.117306
H	 0.4368707633	-1.9158414093	 0.6400541478	 0.070627
H	 0.8405405505	 0.5724688109	-1.104502883	 0.118367
H	 0.5628508133	 0.6030252618	 0.6415675562	 0.117358
H	 2.0177445017	-0.1612501566	-0.0148737178	 0.110231
H	-1.5720407962	-0.8612775822	-2.4944220398	 0.112712
H	-2.9300809669	-0.3459067089	-1.476657604	 0.1239
H	-1.4569054842	 0.6233466137	-1.5353820118	 0.116704
H	-3.0864798672	-2.5877281199	-0.3048774039	 0.104388
H	-1.6268581704	-3.1477274468	 0.6469681976	 0.096097
H	-0.6993251037	-1.6607491869	 2.3613494587	 0.100093
H	-1.1850649485	 0.051184947	 2.3867815394	 0.121119
H	-2.3177240353	-1.2015346621	 2.9125412175	 0.121193
70.3964	161.2161	182.6469	211.5564	224.3357	238.6121	247.6603	280.3504	295.4445	351.6374	415.1775	452.3954	489.0519	537.3234	670.4236	752.9483	858.8587	911.8637	925.3379	932.6577	965.9881	982.5138	1040.5287	1082.6038	1094.6049	1118.5704	1139.4548	1153.353	1178.3255	1194.5711	1209.1019	1296.105	1319.2685	1348.8229	1397.0864	1399.3196	1418.2247	1424.8926	1451.3257	1481.7859	1486.8693	1490.4067	1493.36	1502.3749	1503.4861	1507.9707	1512.8754	1515.4434	2975.0318	3030.6077	3035.0534	3039.2901	3043.4419	3061.0116	3072.9071	3093.8536	3094.386	3100.9126	3103.3628	3105.1999	3110.4927	3124.6243	3155.8441
CC(C)C1(C)CN1C	CC(C)[C@@]1(C)CN1C	
InChI=1S/C7H15N/c1-6(2)7(3)5-8(7)4/h6H,5H2,1-4H3	InChI=1S/C7H15N/c1-6(2)7(3)5-8(7)4/h6H,5H2,1-4H3/t7-,8?/m1/s1
