20
gdb 102483	2.39589	1.10788	0.81589	0.7564	72.75	-0.221	0.0132	0.2342	1437.3216	0.168818	-477.430412	-477.419478	-477.418534	-477.467348	37.406	
C	 0.2599396563	-1.7504062213	-0.8933850511	-0.316348
N	-0.1349029623	-0.5085463508	-0.2362448842	-0.302178
C	-1.5678283826	-0.3832983321	 0.0392033742	-0.079039
C	-1.7743143563	 0.5619354829	 1.2207080338	-0.10225
O	-1.090770365	-0.004771965	 2.3330124995	-0.429327
C	-2.2831337366	 0.1916598369	-1.1826401023	 0.48522
O	-2.7115321218	 1.3149421517	-1.2760250436	-0.366439
O	-2.3779990856	-0.722838045	-2.1673190975	-0.234473
C	-2.9888817633	-0.2583405412	-3.3791922159	-0.244345
H	 1.3518720362	-1.7929124543	-0.9431683828	 0.114542
H	-0.0991429748	-2.6580196745	-0.3760607993	 0.09527
H	-0.1273309468	-1.7773506042	-1.9143502851	 0.131387
H	 0.3267909204	-0.4507772522	 0.6657862217	 0.232472
H	-2.0276724807	-1.3592968294	 0.2785768784	 0.082449
H	-1.3753849419	 1.5493678197	 0.9585606381	 0.117706
H	-2.848361151	 0.672226834	 1.4199051173	 0.103549
H	-1.0431375664	 0.6595090478	 3.0258516471	 0.293531
H	-4.0114555021	 0.0768166771	-3.1892930302	 0.141294
H	-2.4197978601	 0.5729932886	-3.8024495952	 0.143676
H	-2.9851907655	-1.1104693085	-4.0587202129	 0.133302
34.1933	107.792	110.1239	126.4629	140.5328	175.8946	220.0649	250.3754	272.5185	297.6083	334.9399	362.9368	378.7723	538.849	687.6976	758.8709	825.2678	866.766	945.7437	1016.1284	1047.0942	1068.2003	1086.0519	1144.6537	1161.2533	1178.6938	1200.8981	1203.0778	1219.4191	1258.0951	1277.42	1347.1049	1366.9235	1454.7436	1458.6761	1470.8394	1481.726	1489.2846	1497.4958	1507.3515	1509.6327	1531.476	1815.9878	2938.3957	2948.3455	3014.7415	3053.6456	3061.494	3078.3108	3124.8644	3129.1812	3160.571	3523.0066	3842.1421
CNC(CO)C(=O)OC	CN[C@@H](CO)C(=O)OC	
InChI=1S/C5H11NO3/c1-6-4(3-7)5(8)9-2/h4,6-7H,3H2,1-2H3	InChI=1S/C5H11NO3/c1-6-4(3-7)5(8)9-2/h4,6-7H,3H2,1-2H3/t4-/m0/s1
