21
gdb 57792	4.33336	0.61963	0.59137	1.9154	89.15	-0.2458	0.0432	0.2891	1966.3842	0.181099	-387.047524	-387.03727	-387.036325	-387.085274	35.966	
C	 0.4989535488	 1.686549587	-0.2481764511	-0.373287
C	-0.0019064359	 0.2570722532	 0.0392660213	-0.124005
C	 0.2661595072	-0.6817194252	-1.1541112621	-0.373464
C	 0.5890747219	-0.2724557165	 1.2691486765	 0.107688
C	 1.0949050667	-0.7034454469	 2.2753846469	 0.032543
C	 1.6849255322	-1.2438384237	 3.4813662882	-0.211981
C	 0.7841076732	-2.0312496568	 4.4757007476	-0.072665
O	 1.7079386885	-3.1347504038	 4.5010741714	-0.269251
C	 2.4634282049	-2.5884832519	 3.4044718289	-0.072287
H	 1.5809470551	 1.6893522965	-0.4126905204	 0.123187
H	 0.0142449967	 2.0853980357	-1.1450888197	 0.111954
H	 0.2821624908	 2.3553382406	 0.5888522258	 0.122928
H	-1.0902020716	 0.3075022159	 0.1859100085	 0.104547
H	 1.3402884017	-0.7590026948	-1.3492459417	 0.123132
H	-0.1155003056	-1.6870112383	-0.9576496757	 0.123323
H	-0.2197291106	-0.2965609946	-2.0563231118	 0.112183
H	 2.2702796441	-0.4799060698	 4.0015429157	 0.107677
H	 0.6414991799	-1.5863299622	 5.4663174098	 0.107611
H	-0.1891456421	-2.3137376615	 4.0553259533	 0.106435
H	 2.296173486	-3.1384167603	 2.4699134452	 0.106204
H	 3.5365878079	-2.5470364327	 3.6195131035	 0.107527
10.9071	63.1251	86.2963	114.4146	195.8103	207.7761	228.4386	268.66	335.5939	433.2081	482.6792	517.0296	557.1115	623.3703	787.1628	870.3422	890.6007	921.544	930.8701	963.7828	1001.6631	1009.1291	1038.9509	1098.2946	1106.9233	1120.9497	1158.5656	1162.7837	1173.2837	1216.2425	1241.7069	1303.429	1324.3614	1341.6412	1352.2865	1383.4679	1395.1556	1417.3283	1485.5769	1489.0378	1498.4154	1509.4236	1510.1547	1535.282	2357.2926	3001.8597	3013.3805	3023.838	3035.3356	3038.8015	3053.4591	3071.325	3079.6674	3106.2004	3111.3368	3118.0571	3119.8966
CC(C)C#CC1COC1	CC(C)C#CC1COC1	
InChI=1S/C8H12O/c1-7(2)3-4-8-5-9-6-8/h7-8H,5-6H2,1-2H3	InChI=1S/C8H12O/c1-7(2)3-4-8-5-9-6-8/h7-8H,5-6H2,1-2H3
