17
gdb 105326	2.45597	1.55543	1.1856	2.5047	74.02	-0.2527	0.0262	0.2788	1082.2091	0.132864	-421.730046	-421.721331	-421.720387	-421.76327	32.642	
C	 0.075829033	 1.3596998561	-0.0474052267	-0.254082
O	 0.0022184052	-0.0456953749	 0.1092112249	-0.270493
C	-1.2887412284	-0.5825016796	 0.0305780408	 0.239072
C	-2.0012643024	-0.6198949885	-1.3962717348	-0.336726
C	-1.9988850001	-2.1470750914	-1.2839558992	 0.05652
O	-0.6282370832	-2.5468052609	-1.1882091694	-0.238149
C	-1.2846015087	-2.1288499277	 0.0017450982	-0.039943
C	-2.1850701785	-0.0791740411	 1.072441345	 0.301855
C	-2.9131342398	 0.322518212	 1.9411707907	-0.486911
H	 1.1341715339	 1.6224681637	 0.0058057244	 0.132502
H	-0.3219198333	 1.6806761225	-1.0208120665	 0.109152
H	-0.4692528216	 1.8872693995	 0.7460856859	 0.121072
H	-2.9881079481	-0.1561143702	-1.3886714719	 0.121902
H	-1.3960891229	-0.2332154617	-2.218642424	 0.120621
H	-2.7076017088	-2.8657047237	-1.6759917696	 0.109294
H	-1.2906339904	-2.7991438445	 0.8525672064	 0.112699
H	-3.5564046957	 0.6780034403	 2.7082744359	 0.201615
115.411	123.9444	162.0265	171.8939	193.0009	284.4332	382.8468	419.7756	478.1318	537.7052	566.504	627.7875	647.1364	674.3389	796.6907	829.7066	865.309	904.4439	959.8259	967.6768	1024.9143	1033.6543	1072.4422	1115.3279	1149.0263	1184.4524	1203.2017	1223.0108	1235.9942	1249.5559	1273.2001	1383.4496	1458.5969	1478.1822	1486.8108	1509.2965	2226.241	2997.1259	3054.9371	3079.4181	3127.4073	3147.8648	3192.2062	3207.1749	3498.5974
COC1(CC2OC12)C#C	CO[C@]1(C[C@H]2O[C@@H]12)C#C	
InChI=1S/C7H8O2/c1-3-7(8-2)4-5-6(7)9-5/h1,5-6H,4H2,2H3	InChI=1S/C7H8O2/c1-3-7(8-2)4-5-6(7)9-5/h1,5-6H,4H2,2H3/t5-,6-,7+/m1/s1
