23
gdb 101001	2.70053	1.05784	0.9936	2.8544	81.37	-0.2357	0.0666	0.3023	1374.1519	0.203478	-425.413923	-425.403411	-425.402466	-425.449415	38.798	
C	-1.8437719852	 1.7112882895	 1.3340312626	-0.380618
C	-1.7566148902	 0.1847638673	 1.4213211622	-0.206173
C	-1.3600701214	-0.4590985574	 0.0842029635	 0.097508
O	-0.0765713605	-0.0208862542	-0.3459405773	-0.436638
C	-1.4620342253	-1.9955060133	 0.0834408362	 0.432652
C	-0.4457759103	-2.6774820876	 0.9915159862	-0.46319
C	-2.9099990284	-2.5491704804	 0.1662686823	-0.332632
C	-2.6271170265	-3.1168658801	-1.2360263477	-0.072131
O	-1.325903255	-2.501845325	-1.2775265748	-0.321307
H	-2.0525688982	 2.153984185	 2.3124657717	 0.108739
H	-0.9053028002	 2.1277299092	 0.9585978115	 0.129436
H	-2.6404481874	 2.0204495429	 0.6487611982	 0.116038
H	-1.0189356249	-0.0982260996	 2.1854478921	 0.08941
H	-2.7152339455	-0.2278878103	 1.7582472413	 0.1005
H	-2.0426349434	-0.1058806227	-0.6990249681	 0.083551
H	 0.5485169626	-0.1839544661	 0.3686169804	 0.277925
H	-0.576839932	-2.3856176477	 2.0389260026	 0.115891
H	-0.5517621972	-3.763576615	 0.924956883	 0.122272
H	 0.5721766701	-2.4270065432	 0.6771309384	 0.123873
H	-3.0924278559	-3.2783036477	 0.957575306	 0.106307
H	-3.6881524239	-1.7836375786	 0.1993814626	 0.107069
H	-2.5666042169	-4.2112232631	-1.2968100508	 0.098672
H	-3.2780354343	-2.7580294916	-2.042145082	 0.102847
71.5377	82.943	104.103	171.3994	220.8218	225.9259	252.2341	284.5144	304.9275	324.9173	339.444	451.3681	482.9721	506.3136	730.7544	781.472	784.3895	849.8205	889.0263	908.5446	958.6206	964.5337	991.289	999.5567	1029.4783	1055.1072	1094.7725	1115.3244	1149.3645	1163.0713	1187.0605	1211.6505	1256.6341	1262.0767	1285.7587	1318.0448	1339.5674	1352.1946	1385.7412	1401.9552	1408.3257	1426.6173	1482.818	1484.6855	1489.4118	1496.9666	1499.8479	1510.4145	1532.9774	3010.4661	3011.052	3035.2874	3037.4612	3038.9479	3050.2278	3058.0009	3072.1513	3104.0043	3109.3225	3114.3277	3121.882	3126.3279	3805.631
CCC(O)C1(C)CCO1	CC[C@@H](O)[C@@]1(C)CCO1	
InChI=1S/C7H14O2/c1-3-6(8)7(2)4-5-9-7/h6,8H,3-5H2,1-2H3	InChI=1S/C7H14O2/c1-3-6(8)7(2)4-5-9-7/h6,8H,3-5H2,1-2H3/t6-,7-/m1/s1
