21
gdb 83597	2.14963	1.62273	1.23222	2.7177	82.77	-0.2297	-0.0151	0.2146	1144.1671	0.181309	-387.096697	-387.087389	-387.086445	-387.130974	34.785	
C	-0.8213185848	 1.1841026695	-0.5041244188	-0.405047
C	-0.0659214036	-0.136695937	-0.3568276159	-0.110358
C	 0.9090007794	-0.5340883353	-1.5097921001	-0.08647
C	 1.0790007081	-2.0560571012	-1.7156154352	-0.226595
C	 2.1604810084	-2.0924830857	-0.597831819	-0.278632
C	 2.1319243099	-0.5253494985	-0.4942117793	 0.224284
C	 3.4405324079	 0.2169928869	-0.6525489575	-0.493397
C	 1.1562084147	-0.0521308661	 0.5837083986	 0.363299
O	 1.3015228067	 0.3645316115	 1.6992455576	-0.319467
H	-0.1488746737	 1.9946597007	-0.8047935531	 0.119159
H	-1.6098234332	 1.1026216375	-1.2587862807	 0.118876
H	-1.2797576604	 1.4686772647	 0.4473315312	 0.135825
H	-0.763758301	-0.9358401643	-0.0794623406	 0.093115
H	 0.8765361355	 0.1117962981	-2.3884545082	 0.069093
H	 0.1835150362	-2.6628833318	-1.5530270148	 0.099132
H	 1.4871535832	-2.3112105107	-2.6967274023	 0.103971
H	 1.8849611268	-2.6210495541	 0.3183749708	 0.111374
H	 3.1326112204	-2.4703588948	-0.9235426869	 0.110836
H	 3.9839312667	-0.1217799828	-1.5412962762	 0.114786
H	 3.2832746896	 1.2970011269	-0.7410631674	 0.120944
H	 4.0811220731	 0.0476287666	 0.2199911878	 0.135272
40.0241	151.6296	174.2319	186.9845	216.481	232.9006	261.8869	301.2395	353.251	476.2067	574.6635	636.1001	717.5025	749.0793	774.7561	817.2242	864.591	892.9307	952.8602	962.8445	969.5015	1004.8331	1031.0176	1053.9698	1083.2754	1119.3365	1151.3442	1170.0225	1192.9502	1219.0326	1237.2088	1247.7879	1271.5566	1283.605	1319.9288	1340.8179	1403.4938	1405.9472	1478.9087	1486.1072	1489.5263	1494.455	1496.1885	1497.5505	1871.1058	3026.757	3034.0783	3034.9189	3051.8067	3061.0991	3092.7135	3095.3977	3097.5129	3100.1969	3102.9385	3114.5969	3116.4162
CC1C2CCC2(C)C1=O	C[C@H]1[C@@H]2CC[C@]2(C)C1=O	
InChI=1S/C8H12O/c1-5-6-3-4-8(6,2)7(5)9/h5-6H,3-4H2,1-2H3	InChI=1S/C8H12O/c1-5-6-3-4-8(6,2)7(5)9/h5-6H,3-4H2,1-2H3/t5-,6-,8-/m0/s1
