21
gdb 72463	2.50354	1.85178	1.43939	1.7144	81.6	-0.2335	0.0147	0.2481	1006.8877	0.185287	-387.112774	-387.105213	-387.104269	-387.144182	31.423	
C	-0.0528859721	 1.5211354142	 0.0085482286	-0.470105
C	 0.0165725583	-0.0042703508	 0.0226364899	 0.261704
C	 0.8635418572	-0.5738992731	-1.1528075817	-0.094083
O	 1.5889700781	-1.7023058279	-0.6527215233	-0.26987
C	 1.05472354	-1.9970490546	 0.6483422603	 0.04967
C	 0.7811783995	-0.6040829942	 1.2225122549	-0.248336
C	-0.2488078994	-2.7668916609	 0.5270502425	-0.062216
C	-1.3725009542	-2.1194234666	 0.2204410448	-0.061391
C	-1.4011526899	-0.625365436	 0.0059420334	-0.281638
H	 0.9491530378	 1.9618236734	 0.0403055965	 0.114611
H	-0.5513294794	 1.8880660073	-0.8965545763	 0.113739
H	-0.6151459268	 1.9000072828	 0.8688685163	 0.114527
H	 0.2301450136	-0.8725783741	-1.9989333521	 0.093049
H	 1.5919644854	 0.1609081369	-1.5176054474	 0.09454
H	 1.8171077068	-2.5680947383	 1.1825204653	 0.070926
H	 1.7220852959	-0.0728933686	 1.399342485	 0.095093
H	 0.1963907946	-0.6145624263	 2.1460026456	 0.097853
H	-0.2342507747	-3.8450617754	 0.6538504024	 0.088294
H	-2.3124794553	-2.6554774548	 0.1113919741	 0.088867
H	-2.0254572948	-0.1514640702	 0.7789977256	 0.101406
H	-1.8956255607	-0.3957271127	-0.9486186243	 0.103359
141.9282	235.9783	271.4946	293.6037	323.097	388.3496	436.3579	482.2849	491.2944	584.8595	654.883	726.6274	781.076	859.6807	870.9398	897.781	926.8237	940.0115	945.9606	969.4667	994.5588	1001.1192	1023.2682	1034.9948	1064.1254	1131.9115	1148.001	1176.5454	1191.9789	1210.4863	1275.1291	1287.27	1292.627	1314.8399	1350.4013	1363.6622	1395.8383	1403.8097	1415.895	1471.2165	1490.6072	1496.3253	1500.2206	1524.6582	1709.0771	2989.9209	3005.2117	3019.6693	3024.0793	3043.5538	3048.4122	3087.2124	3090.755	3097.6164	3105.5128	3148.62	3179.9708
CC12COC(C1)C=CC2	C[C@@]12CO[C@@H](C1)C=CC2	
InChI=1S/C8H12O/c1-8-4-2-3-7(5-8)9-6-8/h2-3,7H,4-6H2,1H3	InChI=1S/C8H12O/c1-8-4-2-3-7(5-8)9-6-8/h2-3,7H,4-6H2,1H3/t7-,8+/m1/s1
