22
gdb 83864	2.07447	1.81872	1.33344	0.4763	81.8	-0.2129	0.0842	0.2971	1093.0244	0.195523	-404.326961	-404.318357	-404.317413	-404.359566	34.086	
C	-0.2367576525	 1.536697131	 0.1795778563	-0.433755
C	-0.0188180906	 0.0450744269	 0.0470352181	 0.011424
C	 0.5569782212	-0.6183253271	-1.1564676674	-0.046107
C	 1.0803690729	 0.1257930398	-2.3794806111	 0.105631
C	-0.022449252	 0.7221915985	-3.2443180643	-0.408204
O	 1.9836725714	 1.1673109953	-2.025851938	-0.250804
C	 3.0276359227	 0.6722553846	-1.2039081472	-0.083021
C	 2.4998993525	 0.2760130915	 0.1748771223	-0.158408
N	 1.3116933193	-0.5899689023	 0.1091754324	-0.129512
H	 0.4329826095	 2.1171626391	-0.4548835298	 0.145179
H	-1.2682868627	 1.7811571352	-0.0961480989	 0.117626
H	-0.0977866091	 1.8545378509	 1.2200673644	 0.116907
H	-0.7574186019	-0.5360502867	 0.6004616249	 0.083621
H	 0.1830646935	-1.6109023388	-1.4113950598	 0.083325
H	 1.6392573944	-0.612663283	-2.9830611996	 0.069499
H	-0.5978094171	 1.4661642527	-2.6882667128	 0.128161
H	 0.4096933264	 1.2047923959	-4.125415475	 0.123608
H	-0.7062513524	-0.0636164599	-3.5795748505	 0.117784
H	 3.5049776815	-0.1933298705	-1.6923644705	 0.092577
H	 3.7741855366	 1.4675698883	-1.1200476517	 0.106714
H	 3.2838799218	-0.2667203038	 0.7174335763	 0.102311
H	 2.2790880644	 1.1791502122	 0.7552175819	 0.105444
120.6501	173.8432	212.5792	235.3749	264.7575	290.909	321.0882	389.4443	452.9295	470.2742	517.1982	619.1883	706.1823	717.3302	778.9603	789.7031	868.5563	909.5651	935.8093	987.7743	1026.6507	1057.3164	1067.5522	1081.0354	1122.7569	1133.6273	1152.9012	1154.5504	1189.3436	1196.8508	1260.981	1294.2292	1332.1568	1362.357	1366.5165	1377.8891	1392.1191	1407.2178	1410.5504	1420.7394	1449.2034	1482.7215	1495.7529	1497.5092	1502.9481	1505.1743	1517.0121	2930.2959	2971.5602	3022.5697	3030.4001	3046.9553	3058.2361	3082.5702	3084.5284	3085.6884	3093.3781	3117.2313	3131.8402	3149.8588
CC1C2C(C)OCCN12	C[C@H]1[C@H]2[C@@H](C)OCCN12	
InChI=1S/C7H13NO/c1-5-7-6(2)9-4-3-8(5)7/h5-7H,3-4H2,1-2H3	InChI=1S/C7H13NO/c1-5-7-6(2)9-4-3-8(5)7/h5-7H,3-4H2,1-2H3/t5-,6+,7-,8?/m0/s1
