22
gdb 93501	2.71104	1.27851	0.98855	3.9972	82.59	-0.2325	0.0373	0.2697	1272.0279	0.195874	-404.41109	-404.401945	-404.401	-404.444762	35.415	
C	-0.0375320066	 1.5898396912	-0.0489541813	-0.416606
C	 0.0431081438	 0.0609268475	-0.0331140686	 0.036058
C	 0.670162665	-0.5103247476	-1.3113274196	-0.219297
C	 0.5557144586	-2.0373256253	-1.3272281526	-0.314409
C	 0.9535007845	-2.7151692969	-0.0217424069	 0.388694
O	 1.2496761447	-3.8954489483	 0.0310020315	-0.381083
N	 0.9023635347	-1.9401027148	 1.1067150603	-0.308325
C	 0.7764155837	-0.485474421	 1.2121685916	 0.030718
C	 2.1453819533	 0.1573170446	 1.4895960468	-0.390105
H	 0.9434039136	 2.0479665851	-0.2105203482	 0.121815
H	-0.6935493391	 1.9257931997	-0.8580454399	 0.117494
H	-0.4411845168	 1.9821583874	 0.8908343644	 0.114048
H	-0.9829654949	-0.3285988786	 0.0258324632	 0.080726
H	 0.1760665961	-0.0876102248	-2.1931081761	 0.09826
H	 1.7230200842	-0.2084047254	-1.3771178638	 0.103933
H	-0.4841161385	-2.3315225005	-1.5211719639	 0.128059
H	 1.1549555765	-2.4927801459	-2.1192705921	 0.126527
H	 1.2041166635	-2.4370378601	 1.9341501281	 0.238652
H	 0.1363569162	-0.2810262893	 2.0814133342	 0.083311
H	 2.8218552551	 0.0518497487	 0.6360483428	 0.125192
H	 2.0462036043	 1.2201210779	 1.7269876221	 0.12103
H	 2.6190882682	-0.3306555736	 2.347427558	 0.115307
79.7389	97.4202	203.7218	232.7764	264.249	295.1301	306.6979	387.01	417.5708	425.2401	504.7457	539.1443	578.5992	668.6635	702.1316	726.0586	804.8007	865.3691	924.3125	962.3764	971.6985	1026.7687	1037.4717	1046.3088	1099.1729	1119.5326	1142.5844	1185.2865	1211.5988	1246.2161	1306.2539	1330.3577	1342.6382	1354.1131	1380.1683	1398.7681	1401.6664	1411.15	1417.1705	1462.0337	1475.1671	1488.457	1498.9888	1499.6497	1506.6438	1513.0546	1784.1486	2995.8757	3009.6315	3029.3056	3032.9112	3033.8913	3040.839	3068.4835	3099.4037	3103.8718	3105.2166	3108.2906	3120.1963	3587.9318
CC1CCC(=O)NC1C	C[C@H]1CCC(=O)N[C@H]1C	
InChI=1S/C7H13NO/c1-5-3-4-7(9)8-6(5)2/h5-6H,3-4H2,1-2H3,(H,8,9)	InChI=1S/C7H13NO/c1-5-3-4-7(9)8-6(5)2/h5-6H,3-4H2,1-2H3,(H,8,9)/t5-,6-/m0/s1
