21
gdb 84434	2.49729	1.62117	1.21984	1.1979	83.81	-0.2232	0.0205	0.2437	1117.6529	0.181317	-387.092962	-387.083763	-387.082819	-387.125998	36.064	
C	-0.1979340551	 1.5698477953	 0.0208931178	-0.401857
C	 0.0219171157	 0.051718645	-0.0234468125	-0.091246
C	 0.8415605476	-0.440664223	-1.199977352	-0.087532
C	 1.8328391286	-1.2521681836	-0.824846552	-0.145621
C	 1.8922938863	-1.4196977909	 0.6618149454	 0.261187
C	 2.2447216083	-2.7518396631	 1.2769992694	-0.48443
C	 2.2178742943	-0.119605946	 1.3999624655	-0.393086
C	 0.7816320718	-0.5267867368	 1.1777727966	 0.355074
O	 0.0275978576	-0.9417568734	 2.2793962438	-0.475797
H	 0.7534739672	 2.1099453088	 0.0538885061	 0.117103
H	-0.7491516663	 1.9153440145	-0.8597783151	 0.113903
H	-0.7803115381	 1.8521179712	 0.9051782564	 0.106314
H	-0.967446411	-0.4303869201	-0.0386424625	 0.088813
H	 0.6225471178	-0.1449207495	-2.220413621	 0.09088
H	 2.5379297394	-1.7373293726	-1.4918511446	 0.091904
H	 3.3033046968	-2.9933600045	 1.1280395336	 0.112349
H	 2.0434362615	-2.7417787827	 2.3513168147	 0.127609
H	 1.6508358892	-3.5593385241	 0.8352450074	 0.119352
H	 2.5750694125	-0.2269151112	 2.420334235	 0.105483
H	 2.65012629	 0.7047762682	 0.8424697845	 0.107357
H	-0.090765384	-0.1852975814	 2.8634861436	 0.282241
128.2537	171.0739	195.2714	213.1512	221.7275	268.979	289.6775	325.0733	387.0993	445.7431	501.5684	558.637	577.9884	689.6367	709.2146	757.5933	802.4024	852.3283	908.2465	922.4214	953.5761	967.1791	970.8717	1024.0428	1046.4172	1083.2213	1096.3315	1107.5348	1117.1298	1194.7632	1200.001	1257.1993	1306.2791	1320.0367	1334.1499	1382.3501	1396.7721	1408.6583	1415.8468	1477.1129	1488.2527	1495.8402	1499.1462	1500.3876	1668.1432	2990.8682	3028.7012	3029.2693	3087.498	3093.3544	3105.0123	3114.9656	3118.0887	3174.8578	3200.0503	3209.0032	3799.9854
CC1C=CC2(C)CC12O	C[C@H]1C=C[C@@]2(C)C[C@@]12O	
InChI=1S/C8H12O/c1-6-3-4-7(2)5-8(6,7)9/h3-4,6,9H,5H2,1-2H3	InChI=1S/C8H12O/c1-6-3-4-7(2)5-8(6,7)9/h3-4,6,9H,5H2,1-2H3/t6-,7-,8+/m0/s1
