23
gdb 121303	4.01015	0.78739	0.68819	1.2264	87.54	-0.2363	0.0317	0.268	1666.2777	0.207055	-388.306948	-388.297502	-388.296558	-388.341518	35.693	
O	-0.1279303179	 1.5094081545	 0.1061770967	-0.421587
C	 0.0260426717	 0.1037955257	-0.0369798445	-0.084905
C	-1.3654631126	-0.5178604775	-0.0010162819	-0.180814
C	-1.3829116327	-2.0523110222	-0.0215641481	 0.020242
C	-2.812128021	-2.5933849716	 0.1470029743	-0.200812
C	-2.8316410791	-4.1232355208	 0.2674946495	-0.264916
C	-1.9440187611	-4.7785106596	-0.7578890645	-0.038453
C	-1.0331533582	-4.1128222878	-1.466114931	-0.062229
C	-0.7555524114	-2.6402759218	-1.300487626	-0.242709
H	 0.7418262297	 1.9143921501	 0.0430075629	 0.283847
H	 0.5340952251	-0.1397143247	-0.9826491826	 0.086247
H	 0.6393204246	-0.3138358639	 0.7794662592	 0.08189
H	-1.8634966981	-0.1592753899	 0.9081784353	 0.100753
H	-1.9457457771	-0.1264772167	-0.8469418086	 0.09963
H	-0.7909557163	-2.4133982448	 0.8334567269	 0.069292
H	-3.2864744347	-2.1388574604	 1.0242223898	 0.089525
H	-3.4092816654	-2.2910796457	-0.7240970662	 0.096412
H	-2.5153385304	-4.428164129	 1.276681372	 0.104751
H	-3.8586340369	-4.4958877604	 0.1622305804	 0.100143
H	-2.0725975634	-5.8473362113	-0.9133445259	 0.080299
H	-0.4372705906	-4.6398464121	-2.2081544417	 0.079724
H	-1.1293952748	-2.0924731654	-2.1803836142	 0.103057
H	 0.3298328907	-2.4783253946	-1.3004307917	 0.100613
78.0087	91.8715	125.0396	163.2911	216.405	269.3643	308.4175	354.705	394.122	430.3252	507.8154	536.7397	672.4713	744.4589	787.9785	825.9532	879.0062	917.6667	935.3015	958.2733	1003.3575	1008.3875	1022.1905	1055.6598	1065.3037	1096.505	1110.3096	1125.1052	1164.8746	1200.6056	1215.3603	1246.9793	1261.0192	1285.0666	1309.7384	1317.0423	1334.1546	1359.9403	1367.3777	1380.5063	1398.6974	1418.4464	1462.9979	1474.2471	1478.8603	1488.6562	1498.5356	1528.7403	1727.8633	2957.9994	2978.6392	2988.3187	2993.2277	2994.569	3014.3579	3023.9576	3035.6027	3038.1019	3060.0597	3068.7809	3137.5405	3161.9196	3829.6393
OCCC1CCC=CC1	OCC[C@H]1CCC=CC1	
InChI=1S/C8H14O/c9-7-6-8-4-2-1-3-5-8/h1-2,8-9H,3-7H2	InChI=1S/C8H14O/c9-7-6-8-4-2-1-3-5-8/h1-2,8-9H,3-7H2/t8-/m1/s1
