17
gdb 110083	2.08252	1.38685	1.06975	4.2264	75.67	-0.2561	-0.0039	0.2522	1187.4247	0.136128	-414.155068	-414.145762	-414.144818	-414.189573	32.935	
N	 0.354340091	 1.4765986372	-0.0245841702	-0.513418
C	 0.2027557502	 0.0194815173	-0.0334745283	-0.194753
C	 0.7002958309	-0.5552583891	 1.2756923961	 0.001006
C	 1.0522361296	-2.0251903457	 1.3962731568	-0.187721
C	 0.8922002674	-2.887263849	 0.2456535463	 0.330108
N	 0.689033129	-3.6033034642	-0.6389103209	-0.342348
N	 2.0716641695	-0.9960780813	 1.4534989141	-0.056868
C	 3.1116708914	-0.8547721435	 0.5403051432	 0.050479
N	 3.7326446642	-1.8509278203	 0.0623415235	-0.40669
H	 1.3317128823	 1.7307308217	-0.1343849063	 0.22909
H	-0.1329692663	 1.8768836742	-0.819751991	 0.238557
H	-0.8671548924	-0.2053918188	-0.1126784463	 0.129379
H	 0.6978551537	-0.4942790158	-0.8718298923	 0.119733
H	 0.2727657517	-0.0802987954	 2.1564590533	 0.123509
H	 0.8623797929	-2.531665924	 2.3390669053	 0.146735
H	 3.3589000195	 0.2012496283	 0.3719313766	 0.09972
H	 4.5148171551	-1.5462140118	-0.5143839501	 0.23348
80.8087	110.5592	124.2897	129.2803	193.39	235.555	264.9761	311.8841	402.4447	465.4085	541.4633	617.0153	655.0643	769.997	833.3385	850.3622	852.1238	873.3743	1001.6255	1033.9565	1056.0036	1073.3562	1076.8724	1136.7464	1153.36	1200.6005	1232.0325	1308.73	1346.6234	1368.3326	1402.5347	1418.505	1453.9692	1495.1433	1662.712	1713.385	2357.6056	2989.0976	3036.8685	3063.5064	3136.5999	3147.4968	3495.4305	3505.6831	3575.1861
NCC1C(C#N)N1C=N	NC[C@H]1[C@@H](C#N)N1[CH][NH]	
InChI=1S/C5H8N4/c6-1-4-5(2-7)9(4)3-8/h3-5,8H,1,6H2	InChI=1S/C5H8N4/c6-1-4-5(2-7)9(4)3-8/h3-5,8H,1,6H2/t4-,5+,9?/m0/s1
