21
gdb 114102	2.95309	1.2585	1.05613	1.3141	78.68	-0.2417	0.0632	0.3049	1246.359	0.181179	-424.198186	-424.189061	-424.188117	-424.23202	34.307	
C	 0.0252751022	 1.3648282844	-0.3841463513	-0.381601
C	 0.0256264484	-0.1212850773	-0.0116364442	-0.19976
C	-1.371382012	-0.6531888633	 0.2388874146	 0.129913
O	-2.2694939335	-0.5104755926	-0.906268334	-0.356184
C	-2.6461612948	-1.9068741933	-0.8594552036	 0.408451
C	-4.1341698947	-2.1227786522	-0.8542084071	-0.485151
C	-1.7147920415	-2.7695840324	-1.7331721276	-0.118484
O	-0.7672544822	-2.9112978774	-0.642324789	-0.291408
C	-1.6116466356	-2.1742938423	 0.2593773129	-0.019705
H	 1.0401540472	 1.7178805472	-0.5894177085	 0.111454
H	-0.5834832546	 1.5343746913	-1.2766124993	 0.135078
H	-0.3863344582	 1.9798527157	 0.4239243544	 0.110507
H	 0.4890315432	-0.717421592	-0.8035712878	 0.114143
H	 0.6194960054	-0.2863433366	 0.8972417989	 0.096193
H	-1.8238643567	-0.1608937529	 1.1135379334	 0.070752
H	-4.5682731168	-1.7623492639	-1.793716633	 0.133644
H	-4.3774363128	-3.1845297752	-0.7498277442	 0.122831
H	-4.6036981464	-1.570903067	-0.0350771144	 0.128835
H	-2.1192452672	-3.7456432974	-2.0310081646	 0.09911
H	-1.2903630799	-2.2552200082	-2.6015265741	 0.110623
H	-1.7688522696	-2.6865333646	 1.2108260483	 0.08076
85.6346	112.1482	151.8865	199.5316	216.1437	246.3604	289.9284	339.8164	404.4752	468.5264	523.1641	653.9561	709.9459	783.8238	824.832	847.8534	910.9674	916.2532	948.5569	964.8102	967.9376	1003.4788	1037.9253	1070.9938	1108.3163	1144.8403	1150.9821	1170.1803	1193.1493	1209.9311	1276.4562	1280.4821	1291.5118	1312.0581	1347.6978	1379.3086	1402.412	1407.8673	1413.5831	1481.299	1481.5764	1489.7473	1497.0457	1503.7973	1509.8623	2983.2563	3014.0528	3027.555	3035.3886	3035.7864	3081.0625	3083.2014	3090.4246	3103.1253	3105.1944	3118.3993	3119.6932
CCC1OC2(C)COC12	CC[C@H]1O[C@@]2(C)CO[C@@H]12	
InChI=1S/C7H12O2/c1-3-5-6-7(2,9-5)4-8-6/h5-6H,3-4H2,1-2H3	InChI=1S/C7H12O2/c1-3-5-6-7(2,9-5)4-8-6/h5-6H,3-4H2,1-2H3/t5-,6+,7+/m1/s1
