17
gdb 12327	2.94304	2.20381	1.36027	3.5092	70.68	-0.2387	0.0135	0.2521	911.2822	0.143965	-363.913951	-363.906341	-363.905397	-363.946273	28.322	
C	-0.3403947223	 1.5066781833	 0.0367416814	-0.385661
C	 0.0829365896	 0.0246380668	-0.021666907	-0.156892
C	 0.8337371539	-0.3008483123	-1.2820450754	-0.04855
C	 2.0383599996	-0.8590906558	-1.3058864967	-0.069305
C	 2.7873220152	-1.2464620323	-0.0702034519	-0.198524
N	 2.0535623145	-0.9268836034	 1.1393967389	-0.325553
C	 0.8250560511	-0.3462951857	 1.263792894	 0.405547
O	 0.335704473	-0.1309920753	 2.359301915	-0.388421
H	 0.5343922334	 2.1634809191	-0.0044391997	 0.118806
H	-0.9897988021	 1.7535104383	-0.808750072	 0.10975
H	-0.8767570487	 1.698579726	 0.9674604005	 0.146451
H	-0.8417551759	-0.5706704351	 0.0042347563	 0.114385
H	 0.3383442273	-0.0434822509	-2.2158045962	 0.094262
H	 2.5410808618	-1.0675135289	-2.2454697186	 0.098013
H	 3.0102171487	-2.325026793	-0.0990444031	 0.120458
H	 3.7661234426	-0.7410372096	-0.0592451405	 0.119999
H	 2.4832001381	-1.1478060313	 2.0263938351	 0.245235
50.3564	121.5893	229.5054	270.001	277.4286	451.6318	459.4051	507.3678	556.7973	595.4937	697.2378	723.8638	778.0641	864.4646	916.8884	941.8572	1003.7082	1029.1203	1040.2537	1085.8807	1102.089	1146.2813	1188.2976	1246.0411	1301.8747	1316.7898	1356.4275	1391.0168	1393.3146	1430.7683	1488.9776	1493.3045	1503.7863	1527.3616	1746.7348	1779.8992	2973.3262	2983.1635	2999.7291	3041.0853	3107.5046	3142.9665	3145.9943	3180.3271	3605.1542
CC1C=CCNC1=O	C[C@H]1C=CCNC1=O	
InChI=1S/C6H9NO/c1-5-3-2-4-7-6(5)8/h2-3,5H,4H2,1H3,(H,7,8)	InChI=1S/C6H9NO/c1-5-3-2-4-7-6(5)8/h2-3,5H,4H2,1H3,(H,7,8)/t5-/m0/s1
