20
gdb 90462	2.51301	1.39127	1.18433	4.0883	82.47	-0.2815	0.0323	0.3138	1149.3932	0.17292	-366.040038	-366.03172	-366.030776	-366.072904	32.167	
C	-0.790027963	 0.9453673476	-0.0264862993	-0.417813
C	 0.3043561229	-0.1215549413	 0.0179963313	 0.022841
C	 1.3027504546	-0.0380121465	-1.1691002281	-0.234092
C	 2.6445442286	-0.5046588276	-0.6290098915	-0.05518
C	 2.5749294722	-0.5133978173	 0.8740498563	-0.055181
C	 1.1887071882	-0.0523296702	 1.2931828958	-0.234092
C	 2.7255608406	-1.8324258702	 0.1201898613	-0.192331
C	 1.702823858	-2.8378186359	 0.0669777943	 0.302389
N	 0.895718415	-3.6667835023	 0.0247808197	-0.358747
H	-0.359422369	 1.9535231	-0.0006788501	 0.110455
H	-1.38933355	 0.8604380777	-0.9390118873	 0.11817
H	-1.471067076	 0.8501743684	 0.8256916339	 0.11817
H	-0.1783988804	-1.1014871859	-0.0100610952	 0.114416
H	 0.9605271067	-0.6161110344	-2.0335211627	 0.115047
H	 1.4130486545	 1.0021887699	-1.5006004778	 0.101879
H	 3.5471288456	-0.2113004389	-1.1536109374	 0.097299
H	 3.4250021039	-0.2266292757	 1.4832005507	 0.097299
H	 1.2673321938	 0.9838949846	 1.6455076063	 0.101879
H	 0.7683603094	-0.6402367859	 2.1155042257	 0.115047
H	 3.7217873145	-2.2621176461	 0.1638307442	 0.132545
107.8029	117.6517	142.6004	241.4331	289.2222	343.462	346.6423	422.9013	544.5626	552.473	626.978	712.9009	757.2892	785.5761	821.2919	888.4753	891.0588	932.3524	942.2297	996.1605	997.7101	1035.3763	1049.2935	1088.4797	1112.558	1132.3063	1161.1276	1190.1924	1202.8614	1259.7398	1307.8963	1308.6121	1327.2805	1358.2407	1362.185	1382.8212	1406.5102	1421.363	1486.7018	1494.1086	1496.9729	1502.1383	2344.8099	3023.7332	3027.9942	3031.4252	3067.3762	3077.1205	3082.4635	3099.3131	3101.5212	3155.0143	3166.5253	3178.24
CC1CC2C(C1)C2C#N	C[C@H]1C[C@H]2[C@@H](C1)[C@H]2C#N	
InChI=1S/C8H11N/c1-5-2-6-7(3-5)8(6)4-9/h5-8H,2-3H2,1H3	InChI=1S/C8H11N/c1-5-2-6-7(3-5)8(6)4-9/h5-8H,2-3H2,1H3/t5-,6-,7+,8-
