19
gdb 93250	2.70426	1.40223	0.97632	2.0783	72.29	-0.2341	-0.0305	0.2036	1217.934	0.157489	-460.188762	-460.17969	-460.178746	-460.222717	33.517	
C	-0.1023902121	 1.4882303793	 0.0411303718	-0.411334
C	 0.0310809498	-0.0180861687	-0.0034945327	 0.22027
O	 0.7336496131	-0.3635337126	-1.175705918	-0.239378
C	 0.8686475134	-1.7630592004	-1.3314198955	-0.19267
C	 1.304255824	-2.4883659415	-0.0595944176	 0.354272
O	 1.8979619914	-3.5387011425	-0.102772229	-0.29801
C	 0.8401935242	-1.8531662026	 1.2568065944	 0.012912
C	 1.7537727123	-2.1805259508	 2.4255373508	-0.402055
O	 0.7319440874	-0.4368016009	 1.1419570722	-0.255216
H	 0.8925225021	 1.9393930631	 0.0588764672	 0.14019
H	-0.6385618474	 1.8412065286	-0.8422757761	 0.129402
H	-0.6466850361	 1.7882087791	 0.9389384204	 0.128836
H	-0.9613770415	-0.5122705973	-0.0205638105	 0.053203
H	-0.0889333329	-2.2182245185	-1.6461182619	 0.118225
H	 1.6007733931	-1.9500711128	-2.1197269113	 0.144007
H	-0.1666141556	-2.2767268303	 1.4423126532	 0.095942
H	 2.7389980407	-1.733401122	 2.269432354	 0.134125
H	 1.3326487136	-1.7841466291	 3.3522343574	 0.124945
H	 1.8719574205	-3.2618781402	 2.5111617511	 0.142333
56.1633	132.357	193.6673	205.7852	209.4556	253.8401	295.7846	377.3304	412.4117	442.9936	502.1997	549.7651	596.4492	684.1254	772.5059	854.1891	879.0423	927.2585	960.3388	1057.3056	1080.2322	1103.2292	1116.4735	1148.8572	1172.68	1194.3618	1207.5426	1265.6331	1327.1601	1343.871	1365.7927	1392.9625	1401.4295	1405.1211	1435.4598	1464.1937	1482.2735	1482.9373	1489.8609	1496.6195	1825.6161	2899.4278	2915.5229	2943.663	3058.6033	3061.0246	3114.1058	3132.7665	3143.1045	3145.2082	3151.1176
CC1OCC(=O)C(C)O1	C[C@H]1OCC(=O)[C@@H](C)O1	
InChI=1S/C6H10O3/c1-4-6(7)3-8-5(2)9-4/h4-5H,3H2,1-2H3	InChI=1S/C6H10O3/c1-4-6(7)3-8-5(2)9-4/h4-5H,3H2,1-2H3/t4-,5+/m1/s1
