15
gdb 129843	4.02969	1.06496	0.84298	1.8055	72.87	-0.2081	0.0046	0.2126	1287.1256	0.114461	-450.126059	-450.117929	-450.116984	-450.159007	30.293	
N	 0.2368706376	 1.4301298772	 0.1524833763	-0.595686
C	 0.0189719168	 0.0775299024	 0.0550265426	 0.504928
C	-1.1159081532	-0.6844507891	 0.0449554637	-0.451337
C	-0.5926029778	-2.0031512961	 0.0044875136	 0.517667
N	-1.2677192418	-3.2121483056	-0.018478963	-0.38881
C	-2.624974387	-3.4222661345	-0.0185863245	 0.08668
N	-3.4908983483	-2.4882208393	 0.0008899424	-0.45391
N	 0.7258287213	-2.0461503264	-0.0125071431	-0.269059
O	 1.1156956651	-0.6894747552	 0.0202356992	-0.21498
H	 1.136323084	 1.729414132	-0.1969007711	 0.265922
H	-0.5235484933	 2.0032610131	-0.1803561426	 0.266789
H	-2.1482362683	-0.3925482026	 0.0670179534	 0.146686
H	-0.6696427168	-4.0230070732	-0.039699929	 0.264487
H	-2.8515214597	-4.4946854056	-0.0370920245	 0.095634
H	-4.4276603987	-2.883503697	-0.0019397035	 0.224989
72.825	157.0689	166.698	262.1217	269.5708	321.3972	403.2498	447.882	525.6235	553.0416	589.1806	683.3428	733.5178	745.4307	783.8109	798.2377	820.7497	947.1748	1010.3846	1030.1174	1044.8298	1084.822	1133.0722	1188.8776	1249.196	1383.6227	1414.2115	1469.8735	1525.1018	1592.9488	1636.5988	1677.5446	1731.4598	3051.7442	3325.254	3521.1455	3571.9464	3640.9872	3677.7674
NC1=CC(NC=N)=NO1	Nc1cc(NC=N)no1	
InChI=1S/C4H6N4O/c5-2-7-4-1-3(6)9-8-4/h1-2H,6H2,(H2,5,7,8)	InChI=1S/C4H6N4O/c5-2-7-4-1-3(6)9-8-4/h1-2H,6H2,(H2,5,7,8)
