19
gdb 49752	3.4182	1.28599	1.13846	3.0041	80.71	-0.2372	-0.03	0.2071	1117.2966	0.161055	-385.89261	-385.885085	-385.884141	-385.925159	29.62	
O	 0.0233100579	-0.0790633095	-0.2749423201	-0.251394
C	 0.0210192153	 1.0951179455	-0.00838429	 0.14767
C	 1.2627425923	 1.9753930561	 0.0200854704	-0.100252
C	 1.297890355	 2.8461540523	-1.2258209004	-0.093464
C	 1.3722881417	 4.171177347	-1.0936106262	-0.063733
C	 1.4261533348	 4.7577504854	 0.300247977	-0.051737
C	 2.4451627366	 3.9219457768	 1.1358691375	-0.226678
C	 1.3050172934	 2.8718356698	 1.2801181435	-0.046182
C	 0.3164751375	 4.0733357452	 1.1559097356	-0.225116
H	-0.9294105063	 1.627405683	 0.2241705437	 0.076291
H	 2.1176958012	 1.2869418188	 0.0140102969	 0.099149
H	 1.2675077047	 2.3537936912	-2.1927643653	 0.104298
H	 1.4116314636	 4.8284698056	-1.9568421973	 0.095351
H	 1.50307956	 5.8454059018	 0.3060519253	 0.063733
H	 3.3727694603	 3.6172369313	 0.6454081256	 0.099737
H	 2.666949006	 4.3931658413	 2.0969157976	 0.099878
H	 1.2718608039	 2.2708341563	 2.192034746	 0.072197
H	 0.1837254649	 4.5654713054	 2.1229389942	 0.100811
H	-0.6562794329	 3.9195452169	 0.6842234659	 0.099442
45.0251	137.102	231.6173	347.7145	375.1937	393.1281	430.1856	540.2332	573.7033	678.5684	742.0411	816.7839	836.5672	873.781	902.7427	912.5703	927.2409	955.4848	977.1465	997.0953	1040.7707	1062.0936	1091.7456	1095.2234	1115.6778	1128.8995	1149.0139	1188.777	1246.5197	1248.7949	1264.564	1271.0066	1314.0589	1326.9357	1352.4497	1394.8887	1426.4823	1477.0553	1505.8699	1690.8261	1826.1619	2872.2272	3027.4518	3055.7457	3059.3327	3077.552	3101.275	3116.5827	3119.2519	3165.3747	3188.5574
O=CC1C=CC2CC1C2	O=C[C@H]1C=C[C@@H]2C[C@H]1C2	
InChI=1S/C8H10O/c9-5-7-2-1-6-3-8(7)4-6/h1-2,5-8H,3-4H2	InChI=1S/C8H10O/c9-5-7-2-1-6-3-8(7)4-6/h1-2,5-8H,3-4H2/t6-,7-,8+/m1/s1
