19
gdb 114756	2.29441	1.53383	1.15077	1.7847	70.1	-0.25	0.0576	0.3076	1112.8321	0.159409	-460.140331	-460.131697	-460.130753	-460.173527	32.83	
O	 0.0433294995	 1.2039332769	-0.5679810016	-0.4291
C	-0.0690379215	-0.2170019134	-0.560053278	-0.075921
C	-1.3948140251	-0.5537324199	 0.1242517403	-0.065137
C	-2.6193464187	-0.0522846007	-0.6889436559	-0.250868
C	-3.0929449244	-1.269411827	-1.460126538	 0.044518
O	-2.0375210606	-1.9513871571	-2.1549100042	-0.250998
C	-2.4840029009	-2.4795137772	-0.8996310984	 0.041903
C	-1.6264448474	-2.0901632148	 0.2858375317	 0.08813
O	-0.4565297547	-2.8901562027	 0.3338880367	-0.43125
H	 0.8028326855	 1.4363170286	-1.1093573353	 0.286074
H	-0.0578824952	-0.6298127293	-1.5748334847	 0.119086
H	 0.7626157918	-0.672006263	-0.0035830249	 0.072814
H	-1.3728872297	-0.0686272368	 1.1058205175	 0.076358
H	-3.425648842	 0.2869219769	-0.0281703295	 0.099433
H	-2.351071543	 0.7896994969	-1.3326338912	 0.126876
H	-4.0584701179	-1.2787234243	-1.9598940889	 0.092699
H	-2.9389177472	-3.4656063506	-0.9409105356	 0.097675
H	-2.2388875742	-2.2644001719	 1.186652181	 0.070661
H	-0.0078648242	-2.7173957205	 1.1673243789	 0.287049
95.1928	120.8946	201.3241	219.7442	261.5729	292.7892	306.6455	364.2118	425.7035	498.1996	537.7673	658.8375	790.4656	798.4294	846.6997	875.1068	887.8141	908.0041	967.3402	1017.8697	1048.7854	1065.2775	1074.0863	1099.0661	1123.4367	1136.4803	1196.4701	1219.1623	1234.5087	1257.8098	1267.6101	1278.014	1319.7443	1338.1731	1348.4638	1369.5109	1435.6224	1440.3018	1458.1615	1489.9048	1523.7959	2956.6244	2997.6394	3038.5595	3051.258	3070.9906	3100.2015	3142.5325	3157.5443	3822.7654	3835.1743
OCC1CC2OC2C1O	OC[C@H]1C[C@H]2O[C@H]2[C@H]1O	
InChI=1S/C6H10O3/c7-2-3-1-4-6(9-4)5(3)8/h3-8H,1-2H2	InChI=1S/C6H10O3/c7-2-3-1-4-6(9-4)5(3)8/h3-8H,1-2H2/t3-,4-,5+,6-/m1/s1
