15
gdb 23416	3.79888	1.25039	0.99347	3.1616	69.65	-0.2536	-0.0146	0.239	1125.3731	0.113212	-453.867795	-453.860422	-453.859477	-453.899829	28.025	
O	-0.2232045749	 1.4520795048	 0.0925844427	-0.384549
N	 0.047621395	 0.077262161	 0.0361516685	-0.213287
C	-1.0239778435	-0.6013480088	 0.005611876	 0.346619
C	-2.4962186099	-0.1232265742	-0.0371956573	-0.243626
N	-3.2705310779	-1.2442094557	-0.6411921142	-0.305306
C	-2.4864952704	-2.2282201428	-0.5512762388	 0.421506
O	-2.3058976069	-3.3844752422	-1.2606061011	-0.265926
C	-0.8411680168	-3.1755473371	-1.112900917	-0.119545
C	-1.1045899353	-2.1070082545	-0.0045340368	-0.241253
H	 0.6594888983	 1.8374172543	 0.0675764822	 0.311792
H	-2.8608856468	 0.1470585187	 0.9624183229	 0.132687
H	-2.5986466963	 0.7654292935	-0.6656597475	 0.148653
H	-0.3477869138	-4.0934803445	-0.7936046933	 0.136686
H	-0.4268799625	-2.7933723608	-2.0477070616	 0.143861
H	-0.9536913783	-2.5380712116	 0.9891053053	 0.131689
87.7442	186.677	222.4224	272.6525	335.1918	408.2261	455.0158	505.967	530.5708	655.2427	705.8574	761.3872	778.2459	875.4278	933.2952	945.7446	979.2824	989.3173	1033.2755	1039.7376	1143.0226	1150.4749	1174.0195	1196.001	1210.2133	1282.1838	1311.5897	1357.4528	1408.5182	1476.3368	1498.9192	1758.4365	1772.2724	3029.1526	3073.2642	3080.8572	3097.2743	3157.6276	3815.2321
ON=C1CN=C2OCC12	ON=C1C[N][C]2OC[C@@H]12	
InChI=1S/C5H6N2O2/c8-7-4-1-6-5-3(4)2-9-5/h3,8H,1-2H2	InChI=1S/C5H6N2O2/c8-7-4-1-6-5-3(4)2-9-5/h3,8H,1-2H2/t3-/m0/s1
