16
gdb 90394	2.18596	1.56926	1.30839	3.9425	69.63	-0.2559	0.0226	0.2785	1040.2761	0.122635	-437.849685	-437.841177	-437.840233	-437.882551	31.714	
C	-0.2072390902	 1.5522140431	-0.0776875664	-0.436781
C	 0.0423452141	 0.0665885957	 0.0402529079	 0.079555
O	 1.1223386907	-0.4479074796	-0.811712262	-0.289915
C	 1.6535753272	-1.1917801216	 0.2685035604	 0.041698
C	 2.2038389739	-0.2747132014	 1.3535798861	-0.290974
C	 2.8269070868	 0.9917538199	 1.0917081147	 0.312389
N	 3.3419310215	 2.0103914537	 0.9013405377	-0.349799
C	 0.7038351981	-0.5928892918	 1.2604028877	 0.273548
O	 0.030055857	-1.1925768009	 2.2947285094	-0.444757
H	 0.6803590745	 2.1401223422	 0.1588952799	 0.163882
H	-0.5210067666	 1.7940293661	-1.0978493312	 0.138497
H	-1.0194289213	 1.8422782715	 0.598106291	 0.121123
H	-0.867764694	-0.5029050513	-0.1879767294	 0.105623
H	 2.0271816572	-2.1928597652	 0.0909711716	 0.132478
H	 2.6541212313	-0.8338679799	 2.1702928798	 0.143198
H	-0.1039475501	-0.5458336504	 2.9976032828	 0.300233
122.3575	138.5662	200.3877	202.4898	234.9258	288.6491	346.9858	390.7455	415.2301	478.9334	586.2344	627.2327	662.6703	741.883	817.284	847.5363	910.6605	922.6937	1001.5673	1033.0267	1060.2658	1091.3311	1109.0679	1151.6834	1210.1268	1228.695	1274.6227	1315.4482	1330.0221	1388.2815	1414.4189	1476.5171	1492.8034	1499.977	2348.3487	3029.6354	3044.51	3106.9741	3152.32	3152.537	3196.6113	3786.4471
CC1OC2C(C#N)C12O	C[C@H]1O[C@H]2[C@@H](C#N)[C@@]12O	
InChI=1S/C6H7NO2/c1-3-6(8)4(2-7)5(6)9-3/h3-5,8H,1H3	InChI=1S/C6H7NO2/c1-3-6(8)4(2-7)5(6)9-3/h3-5,8H,1H3/t3-,4-,5+,6+/m1/s1
