23
gdb 118136	2.66664	0.93818	0.76672	1.6202	83.14	-0.2528	0.072	0.3247	1590.0012	0.202973	-425.39834	-425.387212	-425.386267	-425.435426	39.364	
C	-0.4791112369	 1.1735897879	 0.8977244777	-0.222486
O	-0.2641153458	-0.214921017	 0.9610896765	-0.22889
C	 1.0299770036	-0.5909089561	 0.5509172341	-0.068822
C	 1.1633085984	-2.1154237376	 0.6278630322	 0.080287
O	 2.3941990219	-2.5037426462	 0.0156954355	-0.43839
C	 1.0400482923	-2.6387472743	 2.0393997847	-0.011414
C	-0.2977170768	-3.0368566313	 2.616028344	-0.285143
C	 0.7399158803	-4.0935539532	 2.3355413184	-0.010092
C	 0.5469251073	-5.1238294207	 1.243326516	-0.398643
H	-0.3537112503	 1.5608313951	-0.1260889399	 0.103833
H	-1.5050544574	 1.3625822863	 1.223415696	 0.125669
H	 0.2101125006	 1.7251692405	 1.5572918865	 0.10192
H	 1.227195712	-0.271389491	-0.4849342773	 0.092155
H	 1.7973764265	-0.1165466071	 1.1911737578	 0.069112
H	 0.3784363345	-2.5467585965	-0.0016848683	 0.091984
H	 3.095721554	-2.3677936092	 0.6613553458	 0.277367
H	 1.7251023984	-2.1492878563	 2.7323625785	 0.067162
H	-0.5201310944	-2.7654055823	 3.6420162985	 0.106435
H	-1.1522314336	-2.9799563187	 1.9497697314	 0.117426
H	 1.2521078295	-4.4821089982	 3.2126887017	 0.079135
H	-0.0574335108	-4.7358742633	 0.4186993022	 0.117428
H	 1.5059102095	-5.4458736998	 0.8246857476	 0.123284
H	 0.0321118571	-6.0078102609	 1.6353329605	 0.110686
40.1574	74.5493	95.8033	137.4432	156.4772	195.3085	197.2696	240.3226	254.3898	317.7641	367.1557	380.3426	422.5508	512.1561	594.8735	776.092	795.249	855.8468	905.0845	954.3091	998.0717	1010.7663	1029.3391	1061.2676	1072.8473	1102.3535	1112.1953	1147.9787	1160.4911	1172.9197	1186.4709	1196.846	1225.9714	1237.2293	1241.1347	1278.0078	1330.5231	1389.3875	1407.1792	1411.1529	1421.3453	1441.565	1481.2755	1486.4319	1491.9164	1495.5537	1501.8431	1504.9622	1525.0909	2930.4304	2968.0935	2991.1161	3010.7856	3034.0321	3062.3449	3094.5092	3096.4803	3107.7056	3111.6486	3132.5088	3135.0066	3216.4195	3808.517
COCC(O)C1CC1C	COC[C@@H](O)[C@H]1C[C@H]1C	
InChI=1S/C7H14O2/c1-5-3-6(5)7(8)4-9-2/h5-8H,3-4H2,1-2H3	InChI=1S/C7H14O2/c1-5-3-6(5)7(8)4-9-2/h5-8H,3-4H2,1-2H3/t5-,6+,7-/m1/s1
