19
gdb 91599	2.18985	2.01904	1.45598	4.3662	73.63	-0.2576	0.0166	0.2742	979.666	0.162043	-423.088788	-423.08145	-423.080505	-423.120397	29.503	
C	-0.1687908793	 1.5546928047	-0.0027718754	-0.418447
C	 0.0314288275	 0.0401321307	-0.0067789884	 0.028711
C	 0.8990073381	-0.5076796999	-1.1896838508	-0.238208
C	 1.9602014334	-1.3451560362	-0.4561619531	 0.100876
C	 1.1863113597	-1.9379700467	 0.7300154824	-0.248315
C	 0.7839569142	-0.5399571134	 1.2388780855	-0.169237
C	 2.1555596048	 0.1272688505	 1.2587981588	 0.452555
O	 2.6055877866	 0.9695362198	 1.9787202692	-0.358613
O	 2.8529675814	-0.4033294166	 0.2035694369	-0.243014
H	 0.7861332581	 2.0878362518	 0.0408798687	 0.142006
H	-0.6916561215	 1.8753753771	-0.9095399257	 0.116579
H	-0.765556544	 1.8732586016	 0.8580711877	 0.121116
H	-0.9518187732	-0.4424909017	-0.0301302686	 0.080809
H	 0.3150376865	-1.1202734119	-1.882118671	 0.10583
H	 1.3750353104	 0.2920687565	-1.7626301843	 0.119194
H	 2.569634739	-2.011110903	-1.0645809138	 0.090817
H	 0.3370746657	-2.5570062207	 0.4295006983	 0.107858
H	 1.8266806369	-2.4951178586	 1.4180040861	 0.118731
H	 0.2524040256	-0.451204414	 2.1838951775	 0.090752
129.5358	147.7774	231.0783	315.6046	401.4996	423.6873	453.8874	494.6545	567.1685	684.0798	739.2086	797.9608	830.1374	858.5906	867.8627	915.0309	943.5724	962.5828	967.1829	984.2341	1018.7795	1047.1161	1084.6151	1113.4047	1132.5357	1171.5488	1205.2118	1207.2086	1232.0403	1279.0814	1302.8623	1322.0474	1343.1367	1361.0223	1369.4356	1424.2312	1481.2101	1496.1456	1498.651	1500.6174	1888.3513	3035.035	3036.284	3062.05	3067.1167	3102.8811	3109.3876	3113.1923	3122.796	3137.9526	3147.2041
CC1CC2CC1C(=O)O2	C[C@H]1C[C@@H]2C[C@H]1C(=O)O2	
InChI=1S/C7H10O2/c1-4-2-5-3-6(4)7(8)9-5/h4-6H,2-3H2,1H3	InChI=1S/C7H10O2/c1-4-2-5-3-6(4)7(8)9-5/h4-6H,2-3H2,1H3/t4-,5+,6+/m0/s1
