21
gdb 82750	2.23193	2.07698	1.51648	1.2714	81.34	-0.2505	0.078	0.3285	982.896	0.18426	-387.060728	-387.053064	-387.05212	-387.092169	32.132	
C	-0.0830532157	 1.5256622031	 0.0328006997	-0.430591
C	 0.094630618	 0.0093216474	 0.0320624484	 0.025477
C	 1.059114357	-0.6159286414	-1.0050890552	-0.053458
C	 2.4291081174	 0.0320833469	-0.6656104067	-0.244682
C	 2.2943960238	-0.7905906556	 0.6216663525	-0.095556
C	 1.5239595457	-1.8927328528	-0.1674698638	-0.029884
C	 0.58655451	-2.115845689	 1.0292590981	-0.310037
C	 0.830237704	-0.5988717603	 1.2499609355	 0.397857
O	 0.5769116867	 0.0557890618	 2.4513421894	-0.493376
H	 0.8463335835	 2.0639846629	 0.23089317	 0.120715
H	-0.4768992241	 1.8699312369	-0.9299122372	 0.105776
H	-0.7930590858	 1.8156998561	 0.8123131987	 0.125922
H	-0.8988738619	-0.446043065	-0.0565855008	 0.064844
H	 0.7068513006	-0.6999847593	-2.033700255	 0.056727
H	 3.2315498694	-0.3662335926	-1.2947947323	 0.092989
H	 2.5108310194	 1.1205015566	-0.6280814092	 0.092743
H	 3.1107223099	-1.0082678149	 1.3124012419	 0.054036
H	 2.0264337078	-2.6974235493	-0.7007778794	 0.068108
H	-0.4430479628	-2.4578093226	 0.8842924581	 0.091327
H	 1.0822294478	-2.7364038025	 1.7848296945	 0.082886
H	 1.0473812593	-0.4036049164	 3.1539324827	 0.278179
157.8454	205.247	237.6036	285.9374	359.2642	374.1286	444.8784	478.3668	502.6148	616.0505	670.2982	707.9564	799.1742	804.352	819.6172	851.0481	902.0157	944.1084	948.6604	991.1036	997.7809	1011.1043	1021.0097	1033.3908	1069.1642	1087.6261	1111.9294	1125.1213	1151.3562	1181.7017	1192.8352	1212.0301	1237.5383	1253.9576	1261.692	1276.4636	1304.0568	1322.3037	1374.3523	1406.6308	1415.281	1488.2835	1492.8943	1499.4728	1519.7143	3025.9596	3032.5092	3040.0027	3052.1953	3087.7127	3099.1815	3102.7321	3105.3499	3107.1901	3127.0292	3134.0197	3818.8489
CC1C2CC3C2CC13O	C[C@H]1[C@H]2C[C@@H]3[C@H]2C[C@]13O	
InChI=1S/C8H12O/c1-4-5-2-7-6(5)3-8(4,7)9/h4-7,9H,2-3H2,1H3	InChI=1S/C8H12O/c1-4-5-2-7-6(5)3-8(4,7)9/h4-7,9H,2-3H2,1H3/t4-,5+,6-,7+,8-/m0/s1
