14
gdb 27745	2.44183	1.45904	0.91392	3.6452	71.4	-0.2019	-0.0275	0.1744	1172.5537	0.10247	-470.071728	-470.063713	-470.062769	-470.104185	30.083	
N	 0.1105396738	 1.3634898748	-0.1325852695	-0.588394
C	 0.0062150498	-0.0022989246	-0.0666605509	 0.256539
C	-1.1414296355	-0.7969662314	-0.0138424891	 0.170942
N	-0.6410231968	-2.1134772776	-0.0293562669	-0.366908
C	 0.689932733	-2.0189369057	-0.0873888723	 0.476746
O	 1.4563834094	-3.1097398612	-0.1133702453	-0.410743
N	 1.1356978604	-0.7736486367	-0.1104386009	-0.418554
C	-2.5400116439	-0.5401821707	 0.0455246022	 0.045695
O	-3.3977690586	-1.4126914923	 0.0890148064	-0.345655
H	 1.0209054784	 1.7180474764	 0.1194362369	 0.263021
H	-0.6561470866	 1.8985471852	 0.2429223132	 0.26118
H	-1.2184235679	-2.9375303945	-0.0013284381	 0.289105
H	 2.3717276671	-2.8044861945	-0.1616835517	 0.320497
H	-2.8155993827	 0.5381201327	 0.0495987159	 0.046528
130.8012	151.4995	235.2349	238.9285	301.1575	353.842	430.1074	433.5115	446.9421	523.2563	527.043	583.3155	655.3731	703.3424	717.8364	758.1049	881.2302	1009.7231	1049.1252	1099.1157	1188.3131	1211.939	1264.2777	1374.9387	1401.5236	1480.773	1562.5882	1610.0029	1632.4926	1669.3132	1733.6184	2871.0128	3583.9205	3671.0327	3694.4551	3799.419
NC1=C(NC(O)=N1)C=O	Nc1c([nH]c(O)n1)C=O	
InChI=1S/C4H5N3O2/c5-3-2(1-8)6-4(9)7-3/h1H,5H2,(H2,6,7,9)	InChI=1S/C4H5N3O2/c5-3-2(1-8)6-4(9)7-3/h1H,5H2,(H2,6,7,9)
