14
gdb 29497	3.43119	1.67059	1.12611	4.7778	70.08	-0.1908	0.0108	0.2016	993.0839	0.104792	-432.892914	-432.886029	-432.885085	-432.92397	26.965	
N	 0.0367500636	 1.4534313751	 0.1568165474	-0.613536
C	 0.0594410465	 0.0533716697	 0.0243064393	 0.061991
C	-0.9995906605	-0.8196220263	-0.0183418165	-0.093654
O	-0.6064990942	-2.1487915056	-0.046719197	-0.205733
C	 0.7410985717	-2.0956700353	-0.0408275654	 0.372385
C	 1.2049574414	-0.8037140747	 0.0084322022	 0.241964
N	 2.5772459276	-0.945648956	 0.0199292793	-0.41878
C	 2.8170550456	-2.3040026061	-0.016449233	-0.00959
N	 1.7153530563	-3.0350109462	-0.0567922956	-0.348219
H	 0.6002753329	 1.9146735418	-0.5491661679	 0.242331
H	-0.9053898754	 1.8211005347	 0.0989269894	 0.245201
H	-2.0637424769	-0.6530657018	-0.0153051112	 0.123943
H	 3.2757174394	-0.2271433123	 0.0974571404	 0.268266
H	 3.822140062	-2.6971459772	-0.0143590114	 0.133431
172.5442	226.5831	246.9386	278.9899	409.4618	444.5967	553.1883	583.9416	619.5388	637.6521	675.8987	702.9706	755.9994	780.0933	793.086	814.9246	963.9497	1068.9934	1089.4549	1115.9982	1156.2149	1237.9946	1273.9423	1332.9708	1394.4487	1437.5907	1471.4768	1558.5956	1577.1019	1629.5715	1662.2602	3260.1347	3278.7155	3511.1546	3601.2103	3680.3894
NC1=COC2=C1NC=N2	Nc1coc2c1[nH]cn2	
InChI=1S/C5H5N3O/c6-3-1-9-5-4(3)7-2-8-5/h1-2H,6H2,(H,7,8)	InChI=1S/C5H5N3O/c6-3-1-9-5-4(3)7-2-8-5/h1-2H,6H2,(H,7,8)
