14
gdb 98066	3.04582	1.09457	0.96676	2.2587	60.18	-0.2525	-0.0835	0.1689	1237.4088	0.098131	-511.020856	-511.011046	-511.010102	-511.057119	32.424	
C	 0.6730804487	 1.2793903508	 0.036473185	-0.247853
O	 0.701710298	-0.1505332672	-0.1393225864	-0.225505
C	 0.1768874686	-0.5971378182	-1.2784087062	 0.391529
O	-0.3386118612	 0.0617294291	-2.140251399	-0.350696
C	 0.2708209173	-2.1253766958	-1.3656607883	 0.241619
O	-0.6253444693	-2.8555032651	-1.0262645791	-0.29125
C	 1.5809362422	-2.6364472715	-1.9882877647	 0.340434
N	 1.6040275922	-3.9781412018	-2.119171397	-0.530117
O	 2.4568905855	-1.8521500021	-2.295081733	-0.337209
H	 1.2339719315	 1.7666855367	-0.763827784	 0.155902
H	-0.3571670916	 1.6417768954	 0.0281646187	 0.149947
H	 1.139597791	 1.4642927958	 1.0029356087	 0.144005
H	 0.8011346585	-4.5125979955	-1.8279354916	 0.283197
H	 2.4071242187	-4.4342297808	-2.518055353	 0.275995
30.7165	70.4455	97.578	114.1296	172.5873	200.5031	297.3431	325.2322	332.4499	367.7658	466.9917	493.5517	628.9215	648.2736	763.0212	816.6114	843.6285	972.202	1069.1946	1097.2899	1174.7562	1210.4687	1300.3577	1375.8806	1472.2737	1482.5658	1493.3246	1596.3405	1805.0404	1816.9416	1834.6008	3060.6583	3141.2887	3173.1808	3594.6887	3733.6572
COC(=O)C(=O)C(N)=O	COC(=O)C(=O)C(=O)N	
InChI=1S/C4H5NO4/c1-9-4(8)2(6)3(5)7/h1H3,(H2,5,7)	InChI=1S/C4H5NO4/c1-9-4(8)2(6)3(5)7/h1H3,(H2,5,7)
