21
gdb 118207	3.10976	0.83167	0.72841	2.2364	77.12	-0.2595	0.0204	0.28	1640.2588	0.178644	-461.396267	-461.385112	-461.384168	-461.434011	37.888	
C	-0.0438202079	 1.3335379992	-0.1864485172	-0.224037
O	-0.0490720569	-0.0705349344	-0.1003177473	-0.228044
C	 0.6943188125	-0.5556395208	 0.9915150152	-0.068742
C	 0.6575825462	-2.075452764	 1.0109817342	 0.118149
C	-0.750509621	-2.6565667141	 0.9491393818	-0.403748
O	 1.4291966022	-2.5247581659	-0.130451087	-0.253834
C	 2.0458446765	-3.7192296908	-0.0167044794	 0.432205
C	 2.7934435833	-4.0503810689	-1.2867109919	-0.476094
O	 1.9984313083	-4.4162550216	 0.9666044985	-0.358566
H	 0.9753374204	 1.731111293	-0.3155334415	 0.10567
H	-0.6434867613	 1.6101870197	-1.0568141628	 0.129054
H	-0.4817000903	 1.8004172256	 0.710552184	 0.103505
H	 1.7417010167	-0.2168085093	 0.9328354031	 0.092879
H	 0.2781746133	-0.1827319447	 1.9439221537	 0.087251
H	 1.1664811479	-2.4240320809	 1.9144774052	 0.107662
H	-1.3383010788	-2.3053319087	 1.8033172357	 0.115727
H	-1.2513570115	-2.3408424257	 0.0321317051	 0.140823
H	-0.7061686283	-3.7468013599	 0.9897301383	 0.13619
H	 3.3315796273	-4.9886214892	-1.1576100802	 0.145653
H	 2.0889863948	-4.1377405587	-2.1190633046	 0.151057
H	 3.4905678164	-3.2458713699	-1.5358567329	 0.147235
49.0167	63.0377	68.5562	98.2119	117.4037	173.5461	219.9549	231.5788	247.6997	313.7115	335.5286	417.436	459.4667	604.3623	617.7857	659.0467	830.8039	897.0903	938.2782	970.5639	973.4724	1034.8518	1064.0221	1097.1461	1131.2184	1144.66	1184.9818	1189.1409	1234.5028	1266.7942	1283.6415	1364.2128	1381.5283	1398.0627	1401.3455	1426.5287	1469.1242	1476.2972	1479.3883	1486.7694	1492.3615	1494.2993	1500.1583	1521.8052	1816.5056	2950.6709	2970.364	2989.5837	3013.0565	3051.4687	3057.6026	3076.8101	3115.9319	3122.7515	3123.2049	3149.6209	3168.6933
COCC(C)OC(C)=O	COC[C@@H](C)OC(=O)C	
InChI=1S/C6H12O3/c1-5(4-8-3)9-6(2)7/h5H,4H2,1-3H3	InChI=1S/C6H12O3/c1-5(4-8-3)9-6(2)7/h5H,4H2,1-3H3/t5-/m1/s1
