15
gdb 27681	2.84186	1.35511	0.92347	1.6553	81.59	-0.1985	-0.0077	0.1908	1208.7678	0.111885	-416.826249	-416.817579	-416.816635	-416.859301	32.24	
C	 0.0092823024	 1.5223716423	 0.140229321	-0.503045
C	-0.0009329391	 0.0379518998	 0.0382590772	 0.167272
C	-0.0247490809	-0.7341727115	-1.0871889517	 0.105983
O	-0.0245073669	-2.0705423165	-0.6648121419	-0.219422
C	 0.0001207591	-1.9846615284	 0.6752614475	 0.452351
N	-0.0562309348	-3.158831066	 1.3696942026	-0.597578
N	 0.0189672244	-0.776733839	 1.1615271256	-0.373247
C	-0.0424433584	-0.4610998596	-2.4581297287	 0.249922
C	-0.0578558858	-0.2066906336	-3.6372171398	-0.43392
H	 0.8995158816	 1.8669264095	 0.6774000105	 0.139561
H	-0.0015936323	 1.9794780839	-0.8514941347	 0.136642
H	-0.8622624251	 1.8769712491	 0.7009782229	 0.141075
H	 0.3061692148	-3.968418696	 0.8897704272	 0.269693
H	 0.2281942622	-3.0765764911	 2.3335484122	 0.274696
H	-0.072227991	 0.0170322371	-4.6748511599	 0.190017
131.6373	134.6019	142.5365	209.0236	270.5518	328.1929	343.4604	405.6128	450.6387	496.1935	542.005	555.3179	592.9947	642.8665	691.9815	698.0185	758.7935	815.7451	994.4554	1024.0811	1063.8634	1088.9047	1130.8925	1254.0561	1333.4426	1413.0931	1451.5193	1475.4685	1483.3328	1594.914	1642.2171	1677.4215	2220.1911	3037.6471	3091.5861	3132.9092	3503.8312	3587.4231	3700.2694
CC1=C(OC(N)=N1)C#C	Cc1c(oc(N)n1)C#C	
InChI=1S/C6H6N2O/c1-3-5-4(2)8-6(7)9-5/h1H,2H3,(H2,7,8)	InChI=1S/C6H6N2O/c1-3-5-4(2)8-6(7)9-5/h1H,2H3,(H2,7,8)
