14
gdb 13041	4.00277	1.45763	1.12533	6.9256	62.52	-0.2633	0.016	0.2793	995.3141	0.107755	-378.754315	-378.746643	-378.745699	-378.787178	26.657	
O	-0.0039513012	 0.0085314084	-0.0534543793	-0.339741
C	-0.0167767174	 1.2070019192	-0.0430817146	 0.425006
N	-1.0247653403	 2.1408380202	-0.0484418778	-0.31696
C	-0.1576511005	 3.3174340642	 0.0290654993	-0.188878
C	 1.0541901593	 2.3375121744	 0.0048055305	-0.143812
C	 1.9698265516	 2.3507824982	 1.2345758257	-0.357635
C	 3.017512086	 1.3324120979	 1.174119678	 0.276034
N	 3.8649297455	 0.5494174579	 1.1219157986	-0.298112
H	-2.0287090935	 2.0413591168	-0.0707595073	 0.25835
H	-0.2285579652	 3.9921175019	-0.8292748482	 0.123539
H	-0.2637579003	 3.8924474278	 0.9557845545	 0.116708
H	 1.6409581053	 2.3930600586	-0.9143909276	 0.127791
H	 2.4547591393	 3.3298068077	 1.3268812242	 0.158089
H	 1.3822045816	 2.1989903069	 2.1474911039	 0.159621
61.5099	86.0283	154.0579	209.9174	291.0278	389.5922	452.1164	488.5017	511.7296	708.436	762.7064	809.5899	885.8881	941.3455	989.4949	997.2956	1070.582	1126.0293	1164.1407	1166.4845	1178.1889	1246.6176	1287.0271	1325.1557	1370.8926	1398.804	1466.3148	1529.3478	1905.1191	2368.4395	3035.8373	3039.5967	3075.2101	3084.6728	3105.3907	3615.9908
O=C1NCC1CC#N	O=C1NC[C@H]1CC#N	
InChI=1S/C5H6N2O/c6-2-1-4-3-7-5(4)8/h4H,1,3H2,(H,7,8)	InChI=1S/C5H6N2O/c6-2-1-4-3-7-5(4)8/h4H,1,3H2,(H,7,8)/t4-/m1/s1
