16
gdb 20973	4.70891	1.6678	1.25641	4.0191	67.33	-0.2068	0.0365	0.2434	944.4716	0.132476	-376.1202	-376.112264	-376.11132	-376.152664	27.918	
C	 0.2022912312	 1.3475810957	 0.007278531	-0.348715
N	-0.2226489571	-0.037175288	-0.004992952	-0.166201
C	-0.140051209	-0.7729829028	 1.2484668884	-0.339477
C	-0.0921097904	-0.7534277857	-1.1643985144	 0.52916
N	-0.230740008	-2.0668285631	-1.2915767713	-0.373457
C	-0.0622971333	-2.2579806888	-2.6307499176	 0.034971
N	 0.1770638474	-1.17924097	-3.3456388287	-0.232224
N	 0.161100023	-0.2044357537	-2.3793247046	-0.297343
H	 1.2939217408	 1.4697318824	-0.0833606527	 0.122113
H	-0.2803393048	 1.9059583823	-0.8024138291	 0.12874
H	-0.1139723436	 1.805539412	 0.9471396742	 0.139563
H	-0.6895406963	-0.2277528146	 2.0214849029	 0.121738
H	-0.5892298249	-1.7553372752	 1.1084912298	 0.173536
H	 0.8983465205	-0.9102594609	 1.5861495479	 0.11733
H	-0.1182098221	-3.2351169116	-3.0878922382	 0.119669
H	 0.3337606966	 0.7506828819	-2.6364014756	 0.270595
83.8775	131.0191	169.2756	175.1639	249.4186	317.9331	375.1049	423.3073	512.3377	625.0978	675.6559	756.8328	912.4666	953.393	979.4611	1048.7585	1086.3936	1099.002	1131.1588	1172.4782	1217.3331	1234.2776	1282.2477	1306.354	1355.8609	1428.6338	1444.7332	1469.5724	1490.1422	1494.4198	1503.509	1512.2926	1553.2604	1643.1956	2973.182	2992.5208	3060.7765	3081.2813	3118.5083	3162.5316	3253.6824	3693.9567
CN(C)C1=NC=NN1	CN(C)c1ncn[nH]1	
InChI=1S/C4H8N4/c1-8(2)4-5-3-6-7-4/h3H,1-2H3,(H,5,6,7)	InChI=1S/C4H8N4/c1-8(2)4-5-3-6-7-4/h3H,1-2H3,(H,5,6,7)
