19
gdb 63196	3.29395	1.50482	1.42943	1.7142	81.66	-0.2183	-0.0387	0.1796	999.1024	0.158587	-385.789347	-385.7816	-385.780655	-385.820901	31.937	
C	 0.0521335663	 1.5732781668	-0.1230915035	-0.413954
C	-0.0201736049	 0.0510328622	-0.0522974501	 0.362962
O	-1.4079118587	-0.2661411387	-0.012085474	-0.473647
C	 0.8357981745	-0.5850386418	-1.1623081053	-0.177
C	 1.5639857386	-1.5906551908	-0.6399182825	 0.051638
C	 2.9781565267	-1.2648025998	-0.158458861	-0.263571
C	 2.2133439177	-1.0425465209	 1.2063960526	-0.076451
C	 1.0990175487	-1.9536203513	 0.7833854057	-0.142201
C	 0.7035525796	-0.5726977336	 1.1726519355	-0.080881
H	 1.0896202461	 1.9170392112	-0.1292854022	 0.117367
H	-0.4527278105	 1.9389163885	-1.0216018841	 0.123682
H	-0.4510315396	 2.0011616971	 0.7495794032	 0.12437
H	-1.4812767194	-1.2254722061	-0.0568926186	 0.275739
H	 1.2046031937	 0.0387027823	-1.9724285668	 0.092315
H	 3.6647752639	-2.1082489734	-0.0256499863	 0.109085
H	 3.4887539166	-0.4303063939	-0.6471326854	 0.103613
H	 2.7172408802	-1.0557214463	 2.1703258659	 0.092189
H	 0.7910497065	-2.9141413468	 1.1738147187	 0.091146
H	 0.3039579539	-0.3663107046	 2.1643356981	 0.083599
131.2724	211.2148	238.991	316.2519	338.8221	354.426	393.6167	456.6829	549.7671	597.4884	655.2174	712.8011	770.8589	789.7643	816.4274	847.9185	884.2981	903.9678	930.2573	941.6933	972.2214	993.3821	1027.8338	1041.2107	1054.0827	1084.231	1088.3482	1124.1111	1159.8421	1196.4762	1209.4877	1219.8174	1268.3338	1282.9898	1341.4627	1382.1691	1407.7502	1481.9537	1490.7142	1499.7854	1593.3636	3033.777	3042.4702	3097.9527	3114.6633	3126.2978	3127.7649	3137.3847	3158.4315	3201.3849	3810.323
CC1(O)C=C2CC3C2C13	C[C@@]1(O)[CH][C]2C[C@@H]3[C@H]2[C@H]13	
InChI=1S/C8H10O/c1-8(9)3-4-2-5-6(4)7(5)8/h3,5-7,9H,2H2,1H3	InChI=1S/C8H10O/c1-8(9)3-4-2-5-6(4)7(5)8/h3,5-7,9H,2H2,1H3/t5-,6+,7-,8-/m1/s1
