18
gdb 34118	3.53355	1.44849	1.36477	1.0879	82.11	-0.2296	0.038	0.2676	1002.4636	0.149551	-364.727478	-364.72056	-364.719616	-364.758493	29.013	
C	 0.0528886811	-1.1751577547	-0.0751855721	-0.325222
C	 0.0220705469	 0.027638797	-0.0477279354	 0.006003
C	 0.0058307303	 1.4634834618	 0.0127218333	 0.246525
C	-0.3782250041	 2.2714708018	 1.2806791731	-0.20528
N	 0.4213798144	 3.4043501128	 0.7196338153	-0.161877
C	-0.0529345863	 3.5940642936	-0.7441744723	-0.008572
C	 1.3849584256	 3.2611235106	-1.197152925	-0.242231
C	 1.322257751	 2.3762507827	 0.0421531473	-0.034702
C	-0.7961315981	 2.2723511643	-1.039065878	-0.269954
H	 0.0766547516	-2.2362673296	-0.1024114725	 0.179176
H	-1.4398161375	 2.4608295179	 1.4678517313	 0.102495
H	 0.1080705543	 1.9135972813	 2.1916934239	 0.116373
H	-0.5436620693	 4.5372786444	-0.9787596699	 0.077687
H	 1.5293168754	 2.8139650674	-2.1826954918	 0.102022
H	 2.0770060276	 4.0906249975	-1.038268216	 0.118023
H	 2.1842372521	 1.9939104857	 0.5891842551	 0.085817
H	-0.6545834244	 1.9285055545	-2.0660281983	 0.109068
H	-1.8655339006	 2.283825761	-0.815488958	 0.104651
137.8892	154.7285	363.3705	418.6596	472.1655	504.6609	515.0768	550.6903	618.7752	640.8692	653.394	731.2576	782.0844	833.3602	880.6755	890.8647	909.971	946.7985	966.4554	998.7623	1015.0547	1021.203	1045.9931	1092.134	1121.8423	1136.8661	1159.401	1185.0621	1219.0283	1226.8277	1253.1331	1255.965	1279.7568	1295.4174	1338.575	1476.2311	1497.1752	1520.1097	2230.6127	3048.2222	3067.991	3071.5738	3112.3314	3117.6997	3119.07	3130.0144	3135.0713	3502.4366
C#CC12CN3C(CC13)C2	C#C[C@@]12CN3[C@@H](C[C@H]13)C2	
InChI=1S/C8H9N/c1-2-8-4-6-3-7(8)9(6)5-8/h1,6-7H,3-5H2	InChI=1S/C8H9N/c1-2-8-4-6-3-7(8)9(6)5-8/h1,6-7H,3-5H2/t6-,7+,8+/m0/s1
