14
gdb 67927	1.9763	1.80066	1.15935	4.7429	67.19	-0.2639	-0.0365	0.2274	1038.0238	0.099547	-436.678129	-436.670196	-436.669252	-436.710729	29.568	
O	-0.1124062706	 1.4011055806	-0.0553109118	-0.446552
C	-0.0089263787	 0.0343372262	-0.0576921349	 0.396135
C	 0.723251718	-0.801731581	-1.1251586598	-0.442791
C	-0.506817745	-1.7491992374	-1.0998732528	 0.443927
O	-0.8484566543	-2.6678229354	-1.7810828388	-0.291242
C	-1.1959893495	-0.9363997995	-0.0293967953	-0.249467
C	-0.2572131482	-0.7839907255	 1.1855788503	-0.266774
C	 0.6238606562	-1.8250702874	 1.6448268493	 0.305662
N	 1.3575759472	-2.6446909191	 2.0027930687	-0.334273
H	 0.7260566474	 1.778420171	 0.2364085744	 0.302717
H	 0.7709279023	-0.2831287653	-2.0868180561	 0.148356
H	 1.7000170027	-1.2197360418	-0.8715607314	 0.147518
H	-2.2574517037	-0.7637021273	 0.0969069797	 0.134242
H	-0.7288423838	-0.2135420181	 1.9805286984	 0.152541
89.3655	146.2951	162.7184	270.2151	324.1742	369.6753	393.4441	471.0279	494.6444	559.2256	603.4054	632.6954	687.6004	762.3313	839.8721	898.7343	957.419	980.7528	1012.6892	1060.1951	1096.3558	1106.922	1187.2569	1205.0774	1235.1982	1304.7259	1320.619	1435.3244	1471.0509	1903.573	2351.8329	3069.2796	3130.9295	3164.6747	3206.0997	3790.8385
OC12CC(=O)C1C2C#N	O[C@]12CC(=O)[C@H]1[C@H]2C#N	
InChI=1S/C6H5NO2/c7-2-3-5-4(8)1-6(3,5)9/h3,5,9H,1H2	InChI=1S/C6H5NO2/c7-2-3-5-4(8)1-6(3,5)9/h3,5,9H,1H2/t3-,5-,6+/m1/s1
