18
gdb 79827	2.20315	1.94045	1.70213	0.3475	70.03	-0.2311	0.0719	0.3031	917.8976	0.148372	-439.041077	-439.033331	-439.032387	-439.072777	30.913	
O	 0.127086721	 1.4810708208	 0.0411068434	-0.434641
C	 0.0239709372	 0.0747088644	-0.0263091804	 0.078463
C	-1.3450482608	-0.6162058783	 0.0133684144	-0.098241
C	-0.9597959302	-1.4792270513	-1.148559776	-0.140788
N	-2.0747823644	-0.5591062952	-1.2603572219	-0.105843
C	-1.7221497443	 0.5548821766	-2.1828287735	-0.157665
C	-0.2233825427	 0.4061667686	-2.5237375323	-0.279476
C	 0.2692566727	-0.543174158	-1.4270936422	 0.371199
O	 1.5548068884	-1.0711305538	-1.571062688	-0.495956
H	-0.032991969	 1.7555227751	 0.9492430059	 0.285235
H	 0.7003595087	-0.4164187631	 0.686413387	 0.086026
H	-1.9156088248	-0.858848078	 0.9040164103	 0.087977
H	-1.0583274478	-2.5449531833	-1.316554805	 0.092448
H	-2.3581596359	 0.4677952642	-3.0679209438	 0.10402
H	-1.9358306865	 1.508149471	-1.6961929227	 0.120607
H	-0.076274867	-0.0583425063	-3.5076958406	 0.081432
H	 0.3132212661	 1.3565096936	-2.5023751399	 0.126337
H	 1.667435829	-1.345299017	-2.4877339346	 0.278866
159.1494	181.8653	237.6789	262.7215	273.6508	347.8115	362.0461	497.0723	570.2096	593.4721	682.8846	732.7833	745.9712	798.5191	848.2967	875.752	923.6081	942.3096	971.858	987.0483	1031.0736	1036.7898	1100.1801	1106.9675	1120.419	1156.9107	1184.0629	1216.1608	1229.7929	1260.7723	1269.9337	1286.9527	1315.215	1332.0404	1369.5136	1380.7084	1435.0357	1481.2387	1502.5686	3017.7699	3020.5562	3064.2279	3111.5928	3125.8885	3159.9112	3188.9873	3803.7297	3824.1214
OC1C2C3N2CCC13O	O[C@H]1[C@@H]2[C@H]3N2CC[C@@]13O	
InChI=1S/C6H9NO2/c8-5-3-4-6(5,9)1-2-7(3)4/h3-5,8-9H,1-2H2	InChI=1S/C6H9NO2/c8-5-3-4-6(5,9)1-2-7(3)4/h3-5,8-9H,1-2H2/t3-,4+,5-,6-,7?/m0/s1
