21
gdb 116352	2.17525	1.47288	0.94256	2.5112	81.53	-0.2387	0.0199	0.2586	1281.2063	0.18306	-424.235926	-424.226841	-424.225897	-424.269665	34.623	
C	-0.1285370094	 1.5573946038	-0.0338554696	-0.485842
C	 0.0030992651	 0.0576241448	-0.0288440358	 0.294552
C	 0.0442894558	-0.6656406174	-1.150054572	-0.162224
C	 0.0896656653	-2.1697698452	-1.1525600763	-0.256759
C	-0.3390352119	-2.6943604724	 0.2163454858	-0.080321
O	 0.3553284493	-2.0100603115	 1.2448242095	-0.280257
C	 0.0504193283	-0.6208526564	 1.3244156961	 0.016336
C	 1.1248768918	-0.0542107734	 2.2622080099	-0.063938
O	 1.148094352	-0.7544112176	 3.4865833114	-0.425981
H	 0.7603665774	 2.0503620189	 0.3777265687	 0.132967
H	-0.2794692934	 1.9328500841	-1.0492456122	 0.122883
H	-0.9791993059	 1.8845559273	 0.5777972604	 0.126393
H	 0.0199522646	-0.1603109358	-2.1132074678	 0.081541
H	-0.5738396179	-2.5711099354	-1.9292152074	 0.103245
H	 1.0995003297	-2.528883621	-1.3945032853	 0.114994
H	-1.4262569269	-2.5687431114	 0.3435388146	 0.0935
H	-0.1028499255	-3.7550025665	 0.3395343076	 0.105857
H	-0.9283877411	-0.4963962155	 1.8253320363	 0.077037
H	 2.0974121285	-0.0995035172	 1.745374903	 0.089118
H	 0.910319921	 0.992226101	 2.4958058657	 0.105771
H	 1.1444110333	-1.6897500132	 3.2490641575	 0.291129
74.0111	131.6623	179.7458	206.3886	234.5785	300.5548	308.4631	361.6049	451.7058	454.8505	468.9298	514.2626	581.4094	655.1581	781.6136	852.085	878.9844	927.9333	952.6593	985.905	1058.4209	1059.334	1072.81	1081.5159	1094.7226	1114.1712	1138.322	1182.7913	1225.7437	1241.5704	1292.7807	1303.6449	1338.8278	1365.279	1383.4601	1385.7317	1412.6397	1415.5732	1444.7883	1471.6814	1481.5095	1494.05	1499.8858	1502.09	1736.5289	2924.0208	2976.1162	2979.6072	3011.9418	3019.7792	3047.8456	3067.7175	3087.9164	3091.951	3112.178	3145.8828	3788.9034
CC1=CCCOC1CO	CC1=CCCO[C@H]1CO	
InChI=1S/C7H12O2/c1-6-3-2-4-9-7(6)5-8/h3,7-8H,2,4-5H2,1H3	InChI=1S/C7H12O2/c1-6-3-2-4-9-7(6)5-8/h3,7-8H,2,4-5H2,1H3/t7-/m0/s1
