23
gdb 94734	2.6138	1.4703	1.2299	1.3562	84.84	-0.2459	0.0831	0.329	1160.8416	0.206476	-388.30015	-388.291213	-388.290268	-388.333831	34.967	
C	 0.0648949494	 1.6271713368	-0.1228551808	-0.414319
C	 0.1659612882	 0.1129296365	-0.0747876859	 0.137208
O	 1.0723577687	-0.3319192774	-1.086954276	-0.267716
C	 1.3127074368	-1.7051200751	-0.8159131553	-0.138002
C	 1.4245034049	-1.8325815699	 0.7135093095	 0.345321
C	 0.9798343467	-3.1845210788	 1.2482203828	-0.484608
C	 2.7614168039	-1.2723396259	 1.290731581	-0.267006
C	 2.0278992191	-0.0004486851	 1.7933241164	-0.222992
C	 0.6862953714	-0.5355512065	 1.2177858037	-0.083622
H	 1.0332546659	 2.0977800294	 0.0646947596	 0.124946
H	-0.2821713476	 1.9498656957	-1.1084111269	 0.125599
H	-0.6477206371	 1.9850923232	 0.6266957991	 0.113859
H	-0.8327076715	-0.3149495316	-0.2811538925	 0.057178
H	 0.4752006995	-2.3208822261	-1.1875658524	 0.077922
H	 2.2216265894	-2.0016038779	-1.3484683306	 0.102189
H	 1.6191848916	-3.9908923089	 0.8679308182	 0.11571
H	 1.0306722847	-3.2151815939	 2.3416507561	 0.114031
H	-0.0511077932	-3.4117824277	 0.9534294949	 0.112731
H	 3.192850606	-1.890837654	 2.082481717	 0.093031
H	 3.5342721203	-1.0877417672	 0.539476327	 0.098661
H	 2.024895348	 0.1213725617	 2.8788737339	 0.096361
H	 2.381935864	 0.9324496474	 1.3498992774	 0.103204
H	-0.1095055193	-0.6805215247	 1.9522359638	 0.060313
38.3104	180.3881	214.2899	223.5744	238.117	252.029	323.6071	354.9984	409.4152	508.7442	583.9715	596.6841	687.3139	743.9639	794.2733	851.8424	865.4918	891.7331	936.5345	963.9681	970.1417	981.735	1010.5882	1042.0615	1065.5823	1109.0662	1133.931	1159.0136	1172.9747	1184.0224	1222.4138	1230.5469	1259.177	1271.6508	1285.1372	1289.7185	1326.102	1359.1488	1382.4017	1398.5924	1411.6174	1413.3971	1470.319	1483.1164	1490.0736	1494.0705	1495.3146	1503.8327	1510.3255	2923.1001	2952.6919	3018.3989	3046.3669	3050.4234	3066.0552	3076.2776	3079.5765	3081.4847	3092.4782	3097.1603	3116.2417	3119.5174	3127.3024
CC1OCC2(C)CCC12	C[C@H]1OC[C@@]2(C)CC[C@@H]12	
InChI=1S/C8H14O/c1-6-7-3-4-8(7,2)5-9-6/h6-7H,3-5H2,1-2H3	InChI=1S/C8H14O/c1-6-7-3-4-8(7,2)5-9-6/h6-7H,3-5H2,1-2H3/t6-,7+,8-/m1/s1
