21
gdb 88609	3.53	1.11699	1.01367	2.1142	82.03	-0.2313	0.0788	0.3101	1261.0113	0.182349	-387.000858	-386.992502	-386.991557	-387.034362	32.575	
C	 0.7923188536	 1.4697849031	-0.3777267177	-0.406985
C	 0.2364172949	 0.0832363176	-0.1379378542	-0.000252
C	 1.1570376028	-1.1003466419	 0.0069029291	-0.293581
C	 0.3743259143	-0.6048987156	 1.2053777947	-0.066725
C	 1.0166046835	 0.0913025843	 2.3837658115	 0.025795
C	 1.2995337173	-0.6508970967	 3.72289265	 0.02521
C	 2.477850631	-1.4148205099	 3.0763519407	-0.22792
C	 2.5485835279	 0.0798174973	 2.6788500248	 0.033323
O	 2.2399903108	 0.4358567359	 4.0824872455	-0.311733
H	 1.7428980945	 1.6193302751	 0.1434188727	 0.118929
H	 0.9716858574	 1.6392426803	-1.4450116187	 0.116922
H	 0.1002991391	 2.2452503316	-0.0304301475	 0.119436
H	-0.6984575636	-0.111882199	-0.6573575087	 0.082458
H	 0.8781171565	-2.0475008518	-0.4424431164	 0.109389
H	 2.2246297436	-0.9024998739	-0.0108753537	 0.111967
H	-0.4785082295	-1.2193651106	 1.485775029	 0.086185
H	 0.586230779	 1.0786062812	 2.5757842518	 0.084068
H	 0.594779838	-0.978270069	 4.4889125028	 0.08959
H	 3.2513410471	-1.7378845396	 3.7740047526	 0.105387
H	 2.2589899496	-2.1511495197	 2.3021896197	 0.108953
H	 3.3545780123	 0.6310372312	 2.1917592119	 0.089583
43.7198	126.2331	163.9088	211.6544	261.6965	332.1337	405.9714	465.0704	569.9456	601.1384	728.6324	768.0627	813.3972	835.8559	873.4528	878.2936	890.8837	909.4538	924.6656	936.7538	981.4106	1011.1577	1054.7468	1065.7124	1076.2434	1091.036	1107.2951	1140.2374	1147.5883	1163.7072	1172.9448	1197.3758	1202.7623	1220.0777	1243.2276	1262.1234	1286.2758	1356.8929	1387.5924	1411.075	1423.3097	1485.3128	1488.6017	1493.4165	1504.1926	3029.4805	3068.0645	3079.4712	3088.2779	3100.8542	3101.3212	3109.994	3121.1935	3124.3356	3138.501	3157.5836	3207.5371
CC1CC1C1C2CC1O2	C[C@H]1C[C@H]1[C@H]1[C@H]2C[C@@H]1O2	
InChI=1S/C8H12O/c1-4-2-5(4)8-6-3-7(8)9-6/h4-8H,2-3H2,1H3	InChI=1S/C8H12O/c1-4-2-5(4)8-6-3-7(8)9-6/h4-8H,2-3H2,1H3/t4-,5+,6-,7+,8+/m0/s1
