18
gdb 112490	3.44048	0.97234	0.85414	5.2808	78.16	-0.2633	-0.0446	0.2187	1384.6357	0.146511	-401.977134	-401.967923	-401.966979	-402.011926	32.957	
C	 0.1018598075	 1.4242714028	-0.2794059005	-0.388135
C	-0.0281546304	-0.0809307651	-0.0238632891	-0.201661
C	 0.7302648203	-0.5397279396	 1.2207967056	-0.089074
C	 0.7827859033	-2.0567848048	 1.5860744244	-0.276513
C	 2.317166332	-1.9512321649	 1.8799960573	-0.267569
C	 3.2121226382	-2.9662464185	 1.3665056665	 0.285722
N	 3.9144728463	-3.773156776	 0.9276636128	-0.317569
C	 2.2645113968	-0.560868193	 1.1584237506	 0.395197
O	 3.0979461003	 0.1248692133	 0.6544052814	-0.273173
H	 1.150126414	 1.7082856029	-0.4030234752	 0.149902
H	-0.4406477041	 1.7125616714	-1.1843103405	 0.119544
H	-0.3087990247	 2.0034605031	 0.5550317942	 0.115112
H	-1.0837005584	-0.3561267468	 0.0924608791	 0.108205
H	 0.3430409196	-0.6394755002	-0.8920463972	 0.110908
H	 0.4216803557	 0.0544292515	 2.0918592645	 0.111576
H	 0.1672671558	-2.3849476625	 2.4228916407	 0.126681
H	 0.5872551089	-2.6916474383	 0.7198241152	 0.138475
H	 2.5093455887	-1.7885020954	 2.9463348802	 0.152371
42.8194	93.7898	131.9657	171.9753	210.8372	244.0926	272.4094	366.5038	401.7291	510.5965	540.1312	586.0122	670.8591	758.5968	811.4803	824.0355	930.2358	950.9877	972.7013	1007.9464	1036.1545	1072.1964	1081.2881	1126.5072	1154.389	1204.2146	1234.425	1249.7518	1284.6169	1316.6582	1338.2098	1373.0517	1413.4505	1487.4884	1491.6536	1498.7457	1511.7477	1899.434	2355.4102	3021.0116	3026.779	3038.5869	3059.894	3061.5305	3088.9895	3105.8215	3127.5513	3151.8002
CCC1CC(C#N)C1=O	CC[C@H]1C[C@@H](C#N)C1=O	
InChI=1S/C7H9NO/c1-2-5-3-6(4-8)7(5)9/h5-6H,2-3H2,1H3	InChI=1S/C7H9NO/c1-2-5-3-6(4-8)7(5)9/h5-6H,2-3H2,1H3/t5-,6-/m0/s1
