21
gdb 64006	2.65389	1.50483	1.23985	1.2768	84.5	-0.2235	0.0223	0.2458	1109.4422	0.18255	-387.07654	-387.068091	-387.067147	-387.108936	34.245	
C	-0.1027262643	 1.5523565672	-0.0999505061	-0.432275
C	-0.0266700276	 0.0258568674	-0.0345685753	 0.362767
O	-1.3354475924	-0.5328697044	-0.1095456726	-0.483025
C	 0.9409074287	-0.531472881	-1.1529354994	-0.301407
C	 2.2882947042	-0.6477874961	-0.4520910233	-0.249204
C	 2.0808300883	-0.7134770465	 0.8592812791	 0.323156
C	 2.6180668647	-0.3615126709	 2.2274233795	-0.328321
C	 1.2157115139	 0.3151174844	 2.4750220798	-0.25489
C	 0.6499576224	-0.5025490983	 1.2555725786	-0.052621
H	 0.8920567721	 2.0040255767	-0.0396475486	 0.120852
H	-0.5491788721	 1.8691876288	-1.0507229699	 0.100368
H	-0.7178696917	 1.9437238038	 0.7152562745	 0.122197
H	-1.7630744355	-0.1831884444	-0.8984408799	 0.272336
H	 0.5598568652	-1.5003521298	-1.5022067926	 0.106848
H	 0.979686803	 0.1313965199	-2.0265537227	 0.088259
H	 3.2389994337	-0.6002023968	-0.9709275706	 0.087954
H	 2.7590316008	-1.2328874055	 2.8759289705	 0.112612
H	 3.5127424419	 0.2638062488	 2.2819740325	 0.10863
H	 0.7499564253	 0.1359251775	 3.4465407657	 0.101017
H	 1.25115196	 1.3895614236	 2.2852519546	 0.108405
H	 0.1243390095	-1.4019885844	 1.5944798161	 0.086342
95.2943	212.7664	252.5082	281.8756	289.308	315.4529	324.5993	366.6865	434.6806	493.5867	575.228	626.2614	686.3754	731.4905	780.4577	830.6326	863.4952	897.3323	902.8901	947.2944	951.2136	977.12	1013.0713	1024.9016	1064.8629	1100.6457	1120.5558	1136.4822	1167.393	1192.3701	1204.5215	1227.7764	1237.0892	1251.736	1282.6455	1304.2053	1332.5097	1378.4357	1402.5103	1472.1381	1480.7714	1486.2611	1494.6547	1498.2008	1736.8503	3011.5142	3024.7004	3043.804	3047.4176	3048.9189	3070.0739	3091.0824	3098.4467	3117.6981	3131.4318	3192.0767	3805.7026
CC1(O)CC=C2CCC12	C[C@@]1(O)C[CH][C]2CC[C@@H]12	
InChI=1S/C8H12O/c1-8(9)5-4-6-2-3-7(6)8/h4,7,9H,2-3,5H2,1H3	InChI=1S/C8H12O/c1-8(9)5-4-6-2-3-7(6)8/h4,7,9H,2-3,5H2,1H3/t7-,8-/m1/s1
