14
gdb 5146	6.26334	1.32101	1.0982	3.281	67.76	-0.2222	0.0311	0.2533	1012.4001	0.10817	-341.589856	-341.582651	-341.581707	-341.621857	26.606	
C	-0.4925979367	-0.7142032329	-1.0490042606	-0.46199
C	-0.1248461788	 0.0935488377	-0.2387005686	 0.318357
C	 0.325174573	 1.0750348096	 0.7422197098	-0.46763
C	 1.560821274	 1.8268217896	 0.3275062074	 0.286437
C	 2.2998651921	 1.7131024764	-0.8198839814	-0.166377
N	 3.3193802195	 2.6316951955	-0.6865689019	-0.240931
C	 3.1525087171	 3.2482333982	 0.516063303	 0.01081
N	 2.1021856673	 2.7874893349	 1.1543017545	-0.308245
H	-0.8269091935	-1.4308854557	-1.7573324917	 0.19429
H	-0.4819068389	 1.7925319153	 0.9418713061	 0.148228
H	 0.5133519171	 0.5761236611	 1.7022893906	 0.148225
H	 2.195896368	 1.0847298206	-1.6872874902	 0.141692
H	 4.0490577278	 2.8097472419	-1.3556186481	 0.266963
H	 3.822456712	 4.0180491676	 0.8691096912	 0.130172
46.4563	122.8014	249.851	321.5571	331.813	466.6126	516.8261	610.9146	643.342	652.2018	686.9615	727.54	742.2104	819.5046	948.2928	956.653	962.0455	990.9926	1092.8892	1135.6114	1214.1295	1227.1848	1244.9624	1343.6512	1362.7481	1455.3192	1464.3076	1526.4478	1602.1933	2241.7942	3016.9952	3039.4446	3250.9132	3289.3197	3506.5751	3670.1412
C#CCC1=CNC=N1	C#CCc1c[nH]cn1	
InChI=1S/C6H6N2/c1-2-3-6-4-7-5-8-6/h1,4-5H,3H2,(H,7,8)	InChI=1S/C6H6N2/c1-2-3-6-4-7-5-8-6/h1,4-5H,3H2,(H,7,8)
