18
gdb 117525	2.13906	1.15772	0.85865	2.3935	75.62	-0.2461	0.0174	0.2635	1391.0042	0.144415	-439.069686	-439.059078	-439.058134	-439.10687	36.844	
C	-0.0400462186	 1.2095190276	 0.2653904329	-0.229807
O	-0.1286789598	-0.1711917404	 0.0014156085	-0.238849
C	 0.7269078819	-0.5888424405	-1.0368456366	-0.056388
C	 0.7185025167	-2.1209637964	-1.0284385699	-0.292952
C	 1.2793079841	-2.6853952801	-2.2512650585	 0.3154
C	 1.7546606012	-3.1477186036	-3.2538658511	-0.46508
C	 1.5100791374	-2.648678146	 0.1996616027	 0.42304
N	 1.1484798309	-3.9032893014	 0.592083506	-0.517478
O	 2.3627499649	-1.9946804324	 0.7575328311	-0.350831
H	 0.9751537778	 1.4975315197	 0.5765289455	 0.117146
H	-0.3179330122	 1.812669431	-0.6135938243	 0.102103
H	-0.7365610579	 1.4302803077	 1.0777537538	 0.127185
H	 0.3789218367	-0.2160441035	-2.0124003093	 0.093107
H	 1.7546388383	-0.2399527833	-0.8696281638	 0.122121
H	-0.3272220455	-2.4394968355	-0.9285358756	 0.123748
H	 2.1738754656	-3.5544866304	-4.1407451434	 0.200835
H	 0.5842149126	-4.4872011593	-0.0017799421	 0.263816
H	 1.7237542361	-4.3552057634	 1.2852331742	 0.262885
25.6271	49.5439	104.9661	123.7807	137.0731	218.3772	270.4627	309.922	322.7584	358.8267	409.6572	458.315	540.397	561.2688	612.8396	632.0921	650.2827	726.7007	817.7045	969.5609	1010.6757	1044.6468	1087.6311	1127.9756	1164.6711	1184.1385	1226.762	1240.3829	1276.2601	1297.5933	1364.269	1412.627	1476.1242	1486.2952	1497.6653	1520.4708	1623.1214	1818.1097	2235.0934	2972.5425	2988.271	3025.0538	3027.6471	3047.1154	3115.8248	3503.8772	3592.4304	3723.2725
COCC(C#C)C(N)=O	COC[C@@H](C#C)C(=O)N	
InChI=1S/C6H9NO2/c1-3-5(4-9-2)6(7)8/h1,5H,4H2,2H3,(H2,7,8)	InChI=1S/C6H9NO2/c1-3-5(4-9-2)6(7)8/h1,5H,4H2,2H3,(H2,7,8)/t5-/m1/s1
