14
gdb 16933	3.7805	2.2087	1.96591	3.2001	56.22	-0.2382	-0.026	0.2122	716.0845	0.109097	-419.692481	-419.686623	-419.685679	-419.722471	22.873	
O	 0.0203135939	-0.0006101759	-0.0310086671	-0.311941
C	-0.0161655633	 1.1967015271	-0.0099523149	 0.441804
C	-1.2484245839	 2.1275866571	 0.0263982901	-0.350938
C	-0.5390263334	 3.4916862551	 0.0928491187	 0.032038
C	 0.1529882996	 3.6400157934	 1.4583598237	-0.080866
O	 1.2241520886	 2.6845104351	 1.3477301707	-0.271015
C	 1.1500362076	 2.2069501516	 0.0012139856	 0.054108
O	 0.6210356672	 3.2721265451	-0.7479837147	-0.245422
H	-1.8199564746	 2.0223738103	-0.8998539032	 0.14409
H	-1.9022890393	 1.8970499937	 0.8705210889	 0.135993
H	-1.0962916708	 4.3556003068	-0.2627867781	 0.103935
H	 0.5674681219	 4.6428215729	 1.6051290469	 0.118316
H	-0.4932290787	 3.3816322591	 2.302968263	 0.115168
H	 2.1236906152	 1.8779955786	-0.3545015096	 0.114729
129.7505	246.5563	370.7685	426.9941	551.5755	577.4152	618.4783	743.6205	794.2262	827.751	875.4001	897.039	921.4135	956.0217	984.042	1024.3717	1052.3001	1100.191	1145.261	1156.1381	1193.4923	1244.6362	1251.604	1279.9212	1320.6527	1332.8328	1367.6355	1449.9896	1522.4274	1879.5518	3042.6247	3072.0981	3091.849	3125.2213	3149.4961	3164.6349
O=C1CC2COC1O2	O=C1C[C@H]2CO[C@@H]1O2	
InChI=1S/C5H6O3/c6-4-1-3-2-7-5(4)8-3/h3,5H,1-2H2	InChI=1S/C5H6O3/c6-4-1-3-2-7-5(4)8-3/h3,5H,1-2H2/t3-,5+/m0/s1
