19
gdb 39804	2.90019	1.59376	1.55723	1.7054	79.18	-0.2322	0.0056	0.2379	976.4964	0.160849	-385.854731	-385.847618	-385.846674	-385.885846	29.549	
C	-0.0087051653	 1.552142979	-0.0243972639	-0.344154
C	 1.2894872215	 0.7584331478	-0.0135433286	-0.351356
C	-0.0302430559	 0.0638842388	-0.0006071766	 0.430701
C	-0.5257910352	-0.9525974692	 1.0282055046	-0.008562
C	-2.0354399323	-0.8088769657	 1.2881107342	-0.263854
C	-2.7573235682	-0.7309222632	-0.0434179693	-0.067371
C	-2.0467064077	-0.8036948205	-1.1692241697	-0.042936
C	-0.5500880291	-0.9799992299	-0.9964745459	-0.062793
O	-0.3335671548	-2.0005546023	 0.0321826926	-0.298036
H	-0.2853576064	 2.0883706301	 0.8782722324	 0.111689
H	-0.2928166274	 2.0566763456	-0.9425054106	 0.114145
H	 1.8766623099	 0.7320272039	-0.9261994141	 0.11458
H	 1.8824609159	 0.7597957376	 0.8961472234	 0.113388
H	 0.0602979427	-1.1238014577	 1.9362056078	 0.075182
H	-2.3986097255	-1.6639075131	 1.8733792706	 0.114414
H	-2.2339261166	 0.0880102626	 1.8910290819	 0.106331
H	-3.8382659649	-0.6255116823	-0.0444222924	 0.093138
H	-2.4891875035	-0.7432439808	-2.1576707966	 0.090049
H	 0.0047241028	-1.1860453507	-1.9145299498	 0.075446
152.7438	204.8554	242.3811	321.3399	379.7265	470.7858	498.2056	566.9828	592.1552	704.698	763.9547	778.45	855.8408	869.4535	880.5826	910.719	933.9483	945.1171	965.3606	974.5776	978.0009	998.3795	1026.7143	1049.9605	1076.3857	1102.3787	1149.5625	1169.5801	1180.5691	1214.6051	1244.1416	1278.899	1280.2356	1324.1648	1354.0683	1388.2623	1424.2651	1462.6762	1464.9297	1513.5999	1693.2703	3013.0102	3044.0333	3065.9463	3087.9655	3119.7592	3123.6955	3164.1467	3191.9413	3196.7126	3210.943
C1CC11C2CC=CC1O2	C1CC21[C@H]1CC=C[C@@H]2O1	
InChI=1S/C8H10O/c1-2-6-8(4-5-8)7(3-1)9-6/h1-2,6-7H,3-5H2	InChI=1S/C8H10O/c1-2-6-8(4-5-8)7(3-1)9-6/h1-2,6-7H,3-5H2/t6-,7+/m0/s1
