17
gdb 85161	2.13353	1.73106	1.06319	1.1002	69.85	-0.2516	0.0095	0.2611	1115.4785	0.135949	-455.18819	-455.179401	-455.178457	-455.222016	32.53	
C	-0.3835580968	 1.6483282473	-0.0638539751	-0.395109
C	-0.1356657906	 0.1594146216	-0.0548529404	 0.127466
O	 1.0679131984	-0.2035273737	-0.8442666205	-0.265403
C	 1.690876045	-0.7175774724	 0.2569716812	 0.443657
N	 2.8559653619	-1.1615199454	 0.4265994214	-0.569829
C	 0.5205421633	-0.5006498472	 1.1869682363	-0.269607
C	 0.7227219854	 0.313212679	 2.4654573787	 0.387041
N	 1.9573935065	 0.1760195528	 3.0054631971	-0.523943
O	-0.1768056749	 0.9759022799	 2.9464428364	-0.372886
H	 0.5012966221	 2.1965686006	 0.2704435533	 0.131306
H	-0.6400576727	 1.9793499435	-1.074310677	 0.124691
H	-1.2046617791	 1.8874650342	 0.6157693352	 0.156016
H	-0.9915707303	-0.3955372	-0.4466156039	 0.102744
H	 3.4093028725	-1.1285338095	-0.4301865249	 0.233464
H	 0.037140082	-1.4400643606	 1.4703102446	 0.142096
H	 2.6811423611	-0.3360301509	 2.518199482	 0.286369
H	 2.1637561061	 0.6600517806	 3.8637810856	 0.261927
55.6636	100.5154	173.3482	201.0664	233.9366	338.4018	366.3776	397.3189	442.5221	460.0523	554.7436	623.7132	643.6467	718.1176	740.6068	830.7248	857.4751	869.7805	926.023	1021.6106	1038.2655	1066.1813	1077.6267	1129.1735	1162.754	1204.6867	1239.6348	1282.4204	1353.5744	1360.8459	1385.6344	1415.4898	1476.295	1493.2668	1629.2754	1796.6862	1807.6553	3050.0792	3075.0319	3086.5418	3125.138	3140.2029	3487.4585	3535.1301	3700.0307
CC1OC(=N)C1C(N)=O	C[C@H]1O[C]([NH])[C@H]1C(=O)N	
InChI=1S/C5H8N2O2/c1-2-3(4(6)8)5(7)9-2/h2-3,7H,1H3,(H2,6,8)	InChI=1S/C5H8N2O2/c1-2-3(4(6)8)5(7)9-2/h2-3,7H,1H3,(H2,6,8)/t2-,3-/m1/s1
