17
gdb 19791	3.0859	2.63769	1.86968	1.0269	66.41	-0.224	0.0704	0.2944	765.591	0.143543	-363.82008	-363.813521	-363.812576	-363.850425	26.28	
C	-0.0377064241	 1.5712229482	-0.0575750164	-0.393789
C	 0.0281451622	 0.0465408277	-0.0122142135	 0.009196
C	 0.6479523039	-0.6077699959	-1.2443905533	 0.030375
O	 2.0274770539	-0.2777384554	-1.4553685821	-0.255671
C	 1.7130481238	-1.5141637101	-0.7943529316	 0.027277
C	 1.7744713847	-1.4427800444	 0.7133386457	-0.054802
C	 2.191688734	-0.1410211319	 1.2983934405	-0.24952
N	 0.7637641992	-0.4692996449	 1.175124011	-0.113373
H	 0.9475605055	 2.0018140743	-0.2531794892	 0.132001
H	-0.714864932	 1.9024896465	-0.8509610405	 0.116554
H	-0.4079345083	 1.9625188937	 0.8938454161	 0.128455
H	-0.992587435	-0.3491923733	 0.079990292	 0.087033
H	 0.0581141424	-0.7594677438	-2.1470312719	 0.095803
H	 2.0055556616	-2.4180903103	-1.3205050011	 0.099782
H	 1.8618253709	-2.3773600207	 1.2604504948	 0.090712
H	 2.5461748796	-0.0982871575	 2.3248939804	 0.111815
H	 2.6394647078	 0.5740771178	 0.617823989	 0.138151
166.6787	220.2788	231.2974	346.4404	399.518	533.1172	547.8987	690.6456	715.0819	734.0374	813.8057	831.3155	872.8429	889.934	904.2524	971.2677	1014.799	1040.5554	1060.3191	1088.8608	1093.6419	1118.48	1133.6018	1140.3875	1167.8478	1253.1699	1266.0195	1323.6252	1328.9364	1357.3117	1367.8205	1405.9606	1425.2044	1489.1028	1496.9479	1500.2597	3012.3469	3045.6312	3113.9989	3115.7988	3125.2533	3128.5546	3145.0918	3164.3564	3215.641
CC1C2OC2C2CN12	C[C@H]1[C@H]2O[C@H]2[C@H]2CN12	
InChI=1S/C6H9NO/c1-3-5-6(8-5)4-2-7(3)4/h3-6H,2H2,1H3	InChI=1S/C6H9NO/c1-3-5-6(8-5)4-2-7(3)4/h3-6H,2H2,1H3/t3-,4+,5+,6-,7?/m0/s1
