21
gdb 95083	2.23903	1.99487	1.31751	1.2727	77.82	-0.2299	0.0846	0.3145	1045.198	0.18272	-424.222299	-424.213977	-424.213033	-424.25449	33.362	
C	 0.0248358694	 1.5511461746	-0.1301006239	-0.409691
C	 0.0199744641	 0.0408914702	 0.0617913982	 0.11288
O	 0.5916946251	-0.5120531493	-1.1309580985	-0.285448
C	 1.0940532142	-1.8378786621	-1.0090717978	-0.071043
C	 1.6781133537	-2.0430897504	 0.3816293603	 0.073711
C	 2.2724428356	-0.7243123424	 0.9092944639	-0.291152
C	 0.7940115996	-0.4693532785	 1.2938062873	 0.37964
C	 0.4364484457	 0.1848736622	 2.6068789309	-0.484961
O	 0.5712555257	-1.9208746565	 1.3179237346	-0.333737
H	 1.0463118135	 1.9449179699	-0.1286053111	 0.118683
H	-0.4296480889	 1.7960627748	-1.0935864139	 0.130098
H	-0.5459932619	 2.0504772665	 0.6572785273	 0.117041
H	-1.0145751829	-0.322123532	 0.1767642804	 0.075598
H	 0.2990216961	-2.5817798404	-1.1709703063	 0.09913
H	 1.8509267648	-1.9537821823	-1.7935163404	 0.102556
H	 2.2245195711	-2.9836804103	 0.4917295929	 0.076166
H	 2.8977168135	-0.874752527	 1.7906054435	 0.103487
H	 2.7506504703	-0.0496266097	 0.1977024517	 0.110065
H	 0.7764241955	 1.2243415619	 2.633618223	 0.124654
H	-0.6468393573	 0.1722194103	 2.7694377364	 0.126163
H	 0.9101922629	-0.3591554394	 3.4282761512	 0.126159
137.6373	201.7785	222.7823	242.8202	274.9216	311.5985	363.6945	400.4219	451.0672	480.8332	544.3104	619.8171	682.9228	818.234	842.0951	861.8572	875.2553	899.2502	932.1543	978.4868	1006.203	1032.4338	1046.5214	1069.3412	1092.224	1130.0983	1147.0067	1156.8033	1225.5053	1233.4812	1259.6215	1272.154	1311.6589	1336.6206	1360.0068	1361.9092	1397.8224	1408.4757	1409.9744	1477.5684	1479.3572	1489.529	1491.8545	1495.1051	1499.3497	2970.5412	2991.6511	3037.245	3043.0435	3061.6201	3073.7398	3083.1794	3107.2331	3114.8964	3120.6151	3126.1086	3142.3631
CC1OCC2CC1(C)O2	C[C@H]1OC[C@H]2C[C@]1(C)O2	
InChI=1S/C7H12O2/c1-5-7(2)3-6(9-7)4-8-5/h5-6H,3-4H2,1-2H3	InChI=1S/C7H12O2/c1-5-7(2)3-6(9-7)4-8-5/h5-6H,3-4H2,1-2H3/t5-,6-,7+/m1/s1
