23
gdb 103544	2.10846	1.44022	1.17489	1.323	86.46	-0.2421	0.0221	0.2641	1227.7215	0.204664	-388.309346	-388.299418	-388.298474	-388.34365	38.182	
C	-0.3038898314	 1.5806598725	 0.1410435412	-0.414091
C	-0.2751811417	 0.0518431198	 0.257519615	-0.199895
C	 0.7862023812	-0.5004389089	 1.2334148551	 0.347617
O	 2.1011217573	-0.2035774649	 0.7485474478	-0.486742
C	 0.5537131117	-0.0116264658	 2.6549270584	-0.123017
C	 0.052173105	-0.9628469846	 3.438719553	-0.075994
C	-0.1212985723	-2.2650827009	 2.6963839471	-0.276953
C	 0.7269764696	-2.0482677282	 1.4197907784	 0.015789
C	 0.3032800983	-2.8792344511	 0.2114254245	-0.425835
H	 0.6487799147	 1.9830231233	-0.2242412571	 0.10596
H	-1.0705801369	 1.8985587163	-0.5716520344	 0.1195
H	-0.5269201956	 2.058151854	 1.1002356008	 0.121749
H	-1.2632110784	-0.3001712961	 0.5777816316	 0.097861
H	-0.0862429735	-0.38040604	-0.7311421804	 0.102886
H	 2.17217672	 0.7489567825	 0.6304351499	 0.273873
H	 0.7544321837	 1.0118859741	 2.9541077701	 0.085519
H	-0.2258501363	-0.8363805097	 4.4798585599	 0.091481
H	 0.2066154045	-3.1378937329	 3.2727732323	 0.101575
H	-1.1796049632	-2.4409534251	 2.4510023096	 0.101207
H	 1.7600073838	-2.3140051737	 1.6711878684	 0.092671
H	-0.7368426107	-2.6928003384	-0.0759666476	 0.111292
H	 0.9396831119	-2.6680773466	-0.6537231622	 0.124779
H	 0.3929548783	-3.9477223356	 0.4347209188	 0.108766
73.8768	101.4355	191.6122	219.9383	229.5558	251.5561	269.2351	288.8795	316.8661	376.1094	439.5949	504.4977	533.4352	589.9481	674.4134	749.4669	764.354	795.1578	884.1692	925.2972	946.0049	966.1149	976.31	990.7285	1005.2898	1052.1695	1082.1783	1099.8181	1125.4393	1136.2839	1166.3	1193.9255	1209.6294	1294.9044	1312.5806	1317.9151	1328.996	1371.9334	1378.4017	1385.7679	1408.2607	1411.1178	1470.1587	1489.2014	1500.7084	1501.4907	1501.9358	1508.1686	1685.8768	2995.3179	3026.6613	3028.8927	3033.0957	3039.1228	3055.8798	3070.8462	3092.9384	3094.5291	3104.2034	3109.8349	3172.5978	3198.4818	3817.7018
CCC1(O)C=CCC1C	CC[C@@]1(O)C=CC[C@H]1C	
InChI=1S/C8H14O/c1-3-8(9)6-4-5-7(8)2/h4,6-7,9H,3,5H2,1-2H3	InChI=1S/C8H14O/c1-3-8(9)6-4-5-7(8)2/h4,6-7,9H,3,5H2,1-2H3/t7-,8-/m1/s1
