19
gdb 70761	2.49407	1.6683	1.22738	1.2555	71.31	-0.2339	0.0816	0.3155	1054.7578	0.159978	-460.1326	-460.124694	-460.123749	-460.164569	31.708	
O	 0.0795532228	 1.3565947445	-0.1195329069	-0.466495
C	 0.0623599852	-0.0416775227	-0.0290612927	 0.370653
C	-0.4763704707	-0.7651452526	-1.2353285907	-0.363683
C	-1.2812308496	-0.7230705572	 0.0361148964	 0.033343
O	-1.4134282155	-1.901485798	 0.7737896104	-0.248745
C	-1.3109171275	-1.6773332357	 2.1771804513	-0.081537
C	 0.1365386085	-1.6455684592	 2.6712764405	-0.073388
O	 0.9161544534	-0.5676576869	 2.1831962958	-0.255321
C	 1.1838306753	-0.6504830709	 0.7857930555	-0.16362
H	 0.0144233004	 1.6970450524	 0.7810579359	 0.284617
H	-0.8237927774	-0.1580503855	-2.0631265362	 0.127484
H	-0.0176903374	-1.7090853304	-1.5074171272	 0.125454
H	-2.1543763998	-0.0695035361	 0.0525831073	 0.090855
H	-1.8261949634	-0.7464929383	 2.455084676	 0.095345
H	-1.8271934772	-2.5121416777	 2.6658262619	 0.10752
H	 0.1348430413	-1.5522714911	 3.7635676687	 0.106298
H	 0.6171390932	-2.6026380079	 2.4112162972	 0.097698
H	 1.3593071849	-1.6943957095	 0.4947682265	 0.099543
H	 2.1008973135	-0.0794314473	 0.6091539104	 0.113977
136.5249	170.1328	259.7112	330.9094	336.3926	360.5215	381.6942	424.2066	446.9569	478.2754	560.342	587.7804	793.5714	795.3618	852.5765	907.4498	915.2152	947.1658	976.2758	983.0898	1032.5247	1062.7618	1076.0222	1112.6474	1127.8675	1139.6012	1183.1842	1243.5655	1284.6841	1295.097	1310.1862	1335.1399	1337.8448	1393.1218	1399.3604	1414.4394	1424.7453	1471.8424	1476.4961	1489.2202	1491.9879	2979.1354	3001.4494	3016.3434	3066.9234	3068.2396	3085.4939	3097.7361	3142.4199	3236.2419	3781.6886
OC12CC1OCCOC2	O[C@]12C[C@H]1OCCOC2	
InChI=1S/C6H10O3/c7-6-3-5(6)9-2-1-8-4-6/h5,7H,1-4H2	InChI=1S/C6H10O3/c7-6-3-5(6)9-2-1-8-4-6/h5,7H,1-4H2/t5-,6+/m1/s1
