14
gdb 77854	2.19703	1.62056	1.51484	5.2133	66.02	-0.2558	-0.0465	0.2093	951.5453	0.100492	-436.676087	-436.668371	-436.667427	-436.708455	28.693	
O	 0.19675798	 1.4020654087	 0.2770935101	-0.417223
C	 0.044282493	 0.0486318605	 0.0121351205	 0.017307
C	-1.3379675146	-0.6464336539	 0.0593909151	-0.107804
C	-2.1911633393	-0.2509950543	-1.1107670477	-0.195421
C	-2.1139000181	 1.0586557478	-1.7114228624	 0.301969
N	-2.0293921688	 2.1182512213	-2.1694627467	-0.338358
C	-1.0953414532	-1.3040659889	-1.3089717562	-0.191248
C	 0.2341434281	-0.5852334441	-1.4128675775	 0.361515
O	 1.1253678339	-0.5967863249	-2.2052370228	-0.286294
H	-0.2392873754	 1.9176489017	-0.4127107839	 0.309589
H	 0.7319623527	-0.4847946304	 0.6803019609	 0.132878
H	-1.7849115488	-1.0993747527	 0.9343783269	 0.124862
H	-3.1945507235	-0.6656095257	-1.1108719293	 0.154767
H	-1.3489434958	-2.2910868553	-1.6728022472	 0.133461
91.6268	130.1814	203.3179	246.6122	266.3884	401.8482	460.1665	486.3249	531.5747	623.7968	673.7702	700.971	770.7853	838.655	847.8778	913.9029	929.2003	966.054	1002.8633	1068.5547	1091.8426	1150.1391	1162.2925	1183.225	1265.0541	1299.2836	1309.1151	1393.3319	1431.7555	1904.6046	2345.7671	3048.8436	3166.2945	3207.0707	3216.3987	3781.3955
OC1C2C(C#N)C2C1=O	O[C@H]1[C@H]2[C@@H](C#N)[C@H]2C1=O	
InChI=1S/C6H5NO2/c7-1-2-3-4(2)6(9)5(3)8/h2-5,8H	InChI=1S/C6H5NO2/c7-1-2-3-4(2)6(9)5(3)8/h2-5,8H/t2-,3+,4-,5+/m1/s1
