17
gdb 31995	4.39488	0.89771	0.75864	4.0816	72.72	-0.2043	0.0326	0.2369	1448.6089	0.136371	-455.166704	-455.157435	-455.156491	-455.202102	32.4	
O	 0.0405981689	 1.3135188196	 0.3888378894	-0.404479
C	-0.0065386507	-0.0505706947	 0.0054076883	-0.19845
C	-1.4380235996	-0.4735692993	-0.0212185981	 0.299695
C	-2.6036725723	 0.23125927	-0.1779936905	-0.160482
N	-3.692134435	-0.6150335169	-0.1803062837	-0.321222
C	-3.1929065	-1.8187939464	-0.0236532289	 0.345784
C	-3.9562094894	-3.0997954458	 0.0846192668	-0.192052
O	-3.0503774053	-4.1645082681	-0.1906680233	-0.431393
N	-1.8344630755	-1.7906184597	 0.0874181012	-0.336392
H	 0.9139428223	 1.6518898808	 0.1716618568	 0.29076
H	 0.4567954078	-0.1935212061	-0.9859695725	 0.102793
H	 0.5578658452	-0.6877516299	 0.7094803653	 0.090091
H	-2.7122508304	 1.2987697852	-0.2822983169	 0.114089
H	-4.3817805236	-3.2009537409	 1.0957008657	 0.11291
H	-4.7967714447	-3.0746015452	-0.6222502139	 0.124599
H	-3.4763132713	-4.991148485	 0.0516052085	 0.295946
H	-1.2586217764	-2.6119807077	 0.1735048058	 0.267803
31.8978	64.2376	133.6473	181.396	217.1889	236.1533	251.9635	307.1746	436.44	479.4142	565.7757	650.7927	683.2244	701.0021	735.0239	854.4448	1001.0386	1028.5935	1033.6642	1044.3207	1073.3311	1088.1026	1167.3869	1170.4331	1225.0967	1231.4853	1236.6024	1255.0333	1287.2104	1390.5226	1439.2479	1465.6582	1480.6707	1514.5465	1518.1887	1554.7799	1625.2426	2937.765	2953.72	2973.7416	3025.0664	3267.3221	3663.2263	3834.5689	3843.7434
OCC1=CN=C(CO)N1	OCc1cnc(CO)[nH]1	
InChI=1S/C5H8N2O2/c8-2-4-1-6-5(3-9)7-4/h1,8-9H,2-3H2,(H,6,7)	InChI=1S/C5H8N2O2/c8-2-4-1-6-5(3-9)7-4/h1,8-9H,2-3H2,(H,6,7)
