21
gdb 94629	3.76146	0.82597	0.72984	1.1836	85.63	-0.249	0.0348	0.2838	1596.4229	0.1801	-387.034823	-387.024888	-387.023944	-387.07039	36.335	
C	-0.1143430674	 1.5680025813	-0.0022640511	-0.382805
C	-0.0235794105	 0.0441818257	-0.030186553	-0.036622
C	 1.2065668354	-0.5075616822	-0.814873612	-0.229942
C	 1.9632225976	-0.6866949415	 0.5314171929	-0.257268
C	 0.5873663728	-0.5882328531	 1.2481317934	 0.183337
O	 0.4693404056	 0.1984650279	 2.4071285896	-0.253932
C	 1.053314431	-0.4069986128	 3.5451661953	-0.214369
C	 0.8693485208	 0.4443490513	 4.7133610501	 0.277852
C	 0.7326533382	 1.1262282626	 5.6922313596	-0.416293
H	 0.8444200429	 2.0268533528	 0.2581317342	 0.117386
H	-0.4130746904	 1.9454457398	-0.9859860351	 0.107235
H	-0.8483500634	 1.9049664317	 0.7346387338	 0.128301
H	-0.991526019	-0.3746586348	-0.3206882651	 0.068305
H	 0.9982983123	-1.4624691917	-1.3041673386	 0.100786
H	 1.6561084555	 0.1665274853	-1.5479465496	 0.100416
H	 2.5532622229	-1.5956066269	 0.6695645176	 0.094586
H	 2.5853372926	 0.1808348135	 0.7688216424	 0.112044
H	 0.1721333217	-1.5923464146	 1.431994615	 0.061898
H	 0.5967342594	-1.3948882904	 3.7304366335	 0.11705
H	 2.1295786312	-0.5835570121	 3.384450909	 0.122616
H	 0.6072201806	 1.7339842084	 6.553920748	 0.199419
46.1633	90.1838	96.0144	134.1103	207.543	224.4923	280.6341	332.3268	357.9426	425.7168	434.5838	591.2186	607.1336	673.5997	681.8592	766.9802	823.7029	883.6567	916.7924	945.3752	952.5483	986.9781	1015.2396	1033.1825	1059.3648	1086.5766	1128.2079	1172.8724	1180.3014	1212.8369	1247.3921	1254.1651	1261.5022	1285.1481	1299.0902	1365.2223	1368.9532	1409.8567	1431.3164	1477.7391	1493.6052	1495.7676	1498.1021	1502.7663	2248.0842	2953.1491	2966.4655	2979.8868	3037.19	3053.1144	3058.5509	3065.9613	3104.0214	3104.6217	3116.3322	3122.0458	3506.5909
CC1CCC1OCC#C	C[C@H]1CC[C@H]1OCC#C	
InChI=1S/C8H12O/c1-3-6-9-8-5-4-7(8)2/h1,7-8H,4-6H2,2H3	InChI=1S/C8H12O/c1-3-6-9-8-5-4-7(8)2/h1,7-8H,4-6H2,2H3/t7-,8+/m0/s1
