20
gdb 81806	2.03951	1.81205	1.31221	0.9675	79.05	-0.241	0.0795	0.3204	1085.5637	0.169427	-403.091138	-403.082321	-403.081377	-403.124127	33.935	
C	 0.0637114895	 1.5514605796	-0.0551887502	-0.404315
C	 0.0464971972	 0.0367179007	 0.0242414582	-0.036406
N	 1.0688548074	-0.5865439717	-0.9054140815	-0.177613
C	 0.9239062159	-2.0416879491	-0.7199181292	-0.289695
C	 1.7075377427	-1.2955512077	 0.2915732638	 0.258387
C	 3.1881403938	-1.4367814984	 0.4826721405	-0.502175
C	 0.7507816701	-0.602749047	 1.2289291832	 0.394187
C	 0.9898908014	-0.0635676212	 2.5660944401	-0.271661
O	 0.1349322196	-1.1992044466	 2.3589862051	-0.280427
H	 1.0705835947	 1.9400117074	 0.1249243034	 0.120223
H	-0.2543497539	 1.8823168672	-1.0482526501	 0.128065
H	-0.6155004648	 1.9862771369	 0.6854623926	 0.117499
H	-0.9626755205	-0.3512395674	-0.1581241376	 0.086039
H	-0.0535962788	-2.4492412634	-0.4697639199	 0.119605
H	 1.4852076616	-2.62333188	-1.4455038145	 0.119247
H	 3.6703036384	-1.728159677	-0.4546622379	 0.131996
H	 3.6382524307	-0.4969264516	 0.8187519051	 0.12272
H	 3.4096504854	-2.2072814634	 1.2301901849	 0.129932
H	 1.9274827281	-0.2755355709	 3.0791050391	 0.116272
H	 0.4878769613	 0.8499259335	 2.8820902749	 0.118122
102.3092	173.098	202.2048	223.5338	225.5161	238.105	292.7191	394.0403	419.8119	508.422	527.9513	567.5438	655.4989	734.311	808.129	843.0599	887.9503	895.2667	955.1651	973.0705	1016.3678	1054.329	1068.0917	1087.9392	1114.6701	1123.5903	1131.383	1149.7339	1166.6587	1182.4762	1263.3701	1300.6013	1354.7588	1373.2698	1406.6561	1419.4022	1443.0163	1482.9863	1487.5287	1494.0254	1496.206	1507.1811	1540.2092	3031.064	3036.0784	3038.0509	3080.3817	3093.9224	3101.3332	3109.5952	3114.3989	3115.3951	3165.0916	3192.3043
CC1N2CC2(C)C11CO1	C[C@H]1N2C[C@]2(C)[C@]21CO2	
InChI=1S/C7H11NO/c1-5-7(4-9-7)6(2)3-8(5)6/h5H,3-4H2,1-2H3	InChI=1S/C7H11NO/c1-5-7(4-9-7)6(2)3-8(5)6/h5H,3-4H2,1-2H3/t5-,6-,7-,8?/m1/s1
