21
gdb 68203	3.11669	1.28994	1.15427	2.4781	82.67	-0.2479	-0.0204	0.2275	1158.7003	0.18322	-387.10124	-387.092961	-387.092017	-387.134061	32.556	
C	-0.2256291067	 1.4687229706	-0.0115030023	-0.499253
C	-0.034479184	-0.0295544945	 0.0194388438	 0.353018
C	 0.90817233	-0.7746911733	-0.977892411	-0.264359
C	 0.8432489553	-1.8959034101	 0.0962936812	-0.040072
C	 0.7766343677	-0.750737504	 1.1435909689	-0.260924
C	-0.6563706957	-2.3257661642	 0.0273080591	-0.076946
C	-1.302947068	-0.9127172064	-0.05104129	-0.269862
C	-0.9177491365	-3.2347874306	-1.1479352616	 0.135545
O	-1.4250422651	-2.9036266669	-2.1911826002	-0.245413
H	 0.7326132602	 1.9958924174	 0.0452750791	 0.111662
H	-0.726091697	 1.7827133067	-0.9346998575	 0.119874
H	-0.8432742212	 1.8064560291	 0.8290416731	 0.114259
H	 0.5314340097	-0.9900747	-1.9811501039	 0.11169
H	 1.8989325997	-0.3168738849	-1.0334443631	 0.094066
H	 1.58517749	-2.6931119947	 0.1538855506	 0.064898
H	 1.7527389354	-0.2894636128	 1.3163322725	 0.095544
H	 0.2788791457	-0.9501271555	 2.0983771909	 0.085822
H	-0.9244897211	-2.8767382213	 0.9370835712	 0.08141
H	-1.9857588617	-0.7230316024	 0.7826137446	 0.092854
H	-1.8509906561	-0.7818000255	-0.9875870782	 0.12199
H	-0.5668654207	-4.2830749369	-1.0003226171	 0.074198
73.9023	134.2511	215.0988	228.2113	298.2215	313.682	371.1343	433.4468	510.2382	562.2379	666.4447	700.7705	795.9326	823.6559	835.7453	867.3777	897.6028	925.9585	951.0592	981.8795	988.5054	1010.4438	1040.2414	1053.9572	1073.6192	1112.9271	1121.9557	1162.0752	1185.6974	1226.1527	1243.3923	1249.1748	1256.784	1267.345	1294.0728	1349.1566	1362.3333	1415.0115	1426.3193	1485.1867	1489.7823	1493.6469	1495.8317	1523.7182	1819.442	2856.6782	3022.608	3032.3747	3041.0696	3055.5985	3061.1552	3085.7252	3093.4376	3103.8109	3108.5083	3109.2201	3120.3865
CC12CC(C1)C(C2)C=O	C[C@@]12C[C@@H](C1)[C@@H](C2)C=O	
InChI=1S/C8H12O/c1-8-2-6(3-8)7(4-8)5-9/h5-7H,2-4H2,1H3	InChI=1S/C8H12O/c1-8-2-6(3-8)7(4-8)5-9/h5-7H,2-4H2,1H3/t6-,7-,8+/m0/s1
