12
gdb 28188	5.51805	1.37643	1.10287	3.2546	61.82	-0.2076	-0.0006	0.2071	985.9521	0.080244	-468.819881	-468.813376	-468.812432	-468.850762	24.731	
N	 0.0905128962	 1.3008533881	 0.1472438058	-0.585481
C	-0.0568781103	-0.0549625892	 0.0424268609	 0.429692
N	-1.1513754413	-0.752038434	 0.0069764271	-0.401076
C	-0.664469299	-2.0608918471	 0.0141622301	 0.228328
C	 0.6750321736	-2.033171615	 0.0442904299	 0.369894
O	 1.2085424152	-3.2588131664	-0.0037612495	-0.208676
C	 0.0430666526	-4.0349966548	-0.0502696798	 0.029755
N	-1.0775306441	-3.3808109015	-0.0447789648	-0.327443
O	 1.1527532271	-0.7694179536	 0.0598677004	-0.242903
H	 0.9171860058	 1.6773943141	-0.2939786007	 0.271028
H	-0.7559010156	 1.8030090026	-0.0781497488	 0.279073
H	 0.2091071999	-5.0986709631	-0.0753883906	 0.157808
123.7563	239.8908	296.0912	338.8913	357.6745	550.225	585.0939	612.7705	629.9502	724.4897	741.6918	771.8577	777.7558	841.0721	860.5298	930.3495	1011.8201	1119.5534	1172.5239	1272.8138	1350.5556	1403.8383	1503.355	1510.0544	1599.8602	1648.5409	1695.9594	3298.7689	3571.9947	3681.3924
NC1=NC2=C(OC=N2)O1	Nc1nc2c(ocn2)o1	
InChI=1S/C4H3N3O2/c5-4-7-2-3(9-4)8-1-6-2/h1H,(H2,5,7)	InChI=1S/C4H3N3O2/c5-4-7-2-3(9-4)8-1-6-2/h1H,(H2,5,7)
