14
gdb 18634	3.28282	2.12171	1.83977	3.9973	56.77	-0.2623	-0.0022	0.2601	757.7269	0.108341	-419.697897	-419.691354	-419.690409	-419.728568	24.931	
O	 0.1117932583	 1.3669600536	 0.0322135052	-0.421242
C	-0.0333374524	-0.0137089189	-0.016546395	 0.136075
C	-1.3502707404	-0.7136124429	 0.0405434985	-0.130574
C	-2.5448752753	 0.1539669137	-0.316569333	-0.119247
O	-2.2565142184	 0.734417967	-1.6035508692	-0.247017
C	-1.2394248693	 0.0522147873	-2.2422036282	 0.438315
O	-1.020124739	 0.1976286408	-3.4070058991	-0.330448
C	-0.5198278878	-0.7844826604	-1.240296775	-0.257376
H	-0.5463317085	 1.7843738569	-0.5369683224	 0.304175
H	 0.7916755724	-0.4837085993	 0.5071627676	 0.12714
H	-1.5039255979	-1.5724140464	 0.6825960992	 0.111279
H	-3.4657833058	-0.4325991364	-0.3953005641	 0.131276
H	-2.7064364264	 0.9738689116	 0.3900510978	 0.133467
H	 0.0149886605	-1.6539533267	-1.5966236624	 0.124176
135.3243	187.3395	219.9645	359.8585	446.5497	470.4614	549.1943	657.8492	717.1658	769.1493	788.9221	809.659	865.1416	963.1726	966.4257	995.3963	1029.2516	1065.0668	1100.7754	1106.2982	1166.3847	1190.2531	1237.3962	1307.688	1322.4849	1350.0865	1400.4865	1457.5873	1518.9474	1888.9968	3048.1205	3092.429	3180.473	3189.4489	3216.9182	3785.3899
OC1C2COC(=O)C12	O[C@H]1[C@H]2COC(=O)[C@@H]12	
InChI=1S/C5H6O3/c6-4-2-1-8-5(7)3(2)4/h2-4,6H,1H2	InChI=1S/C5H6O3/c6-4-2-1-8-5(7)3(2)4/h2-4,6H,1H2/t2-,3+,4-/m0/s1
