21
gdb 95878	2.5457	1.2684	1.0851	2.747	78.73	-0.2368	-0.0246	0.2121	1227.3518	0.182469	-424.24885	-424.239947	-424.239003	-424.282407	33.789	
C	-0.0469611773	 1.5677433307	 0.0093145472	-0.40405
C	 0.0238351882	 0.04060937	-0.0547273663	 0.029218
C	 0.8064463944	-0.4573447906	-1.2803068943	-0.197844
C	 0.8956155585	-1.9826750796	-1.2836635491	-0.089767
O	 1.4757160251	-2.4849418194	-0.0781894903	-0.250944
C	 0.824588626	-2.0848628076	 1.1009722594	 0.007675
C	 0.6657797056	-0.5518852272	 1.2106503181	-0.233038
C	-0.5092311568	-2.785706215	 1.3385803741	 0.157931
O	-1.066140987	-3.5217280504	 0.567712255	-0.245476
H	 0.956316034	 2.0039310549	 0.0814970829	 0.115629
H	-0.5237766965	 1.9778629887	-0.887137503	 0.114851
H	-0.6203381807	 1.9054925117	 0.8793885718	 0.11162
H	-1.002482907	-0.3486444034	-0.1319447724	 0.081057
H	 0.3292737688	-0.1188576842	-2.207765845	 0.095333
H	 1.8187561016	-0.0318016781	-1.261323667	 0.097918
H	-0.0960641334	-2.4264975902	-1.4330155901	 0.118677
H	 1.5501748104	-2.3381496329	-2.0842756904	 0.106962
H	 1.4691428162	-2.4227109319	 1.9270190052	 0.104189
H	 1.6630890062	-0.1176968597	 1.3495908293	 0.10872
H	 0.0806366814	-0.2996212982	 2.1035717359	 0.098904
H	-0.9464504576	-2.5580965376	 2.3417876491	 0.072435
75.9151	143.5182	158.2248	232.8466	235.6513	297.7456	319.0091	336.0434	398.0789	440.2817	509.3427	633.1421	733.6835	785.6003	801.4632	850.2047	880.1712	903.4021	972.1459	991.8594	1000.0483	1018.7322	1032.5818	1104.6509	1135.0304	1149.5888	1190.6056	1229.1739	1268.3193	1279.5715	1291.3075	1327.7557	1333.6103	1369.4367	1381.2554	1393.5719	1402.3486	1411.9278	1427.2525	1471.2413	1484.8	1496.2487	1499.4189	1507.9963	1838.7985	2832.0033	2992.2694	2998.222	3017.5549	3023.9041	3029.7955	3036.4929	3066.1211	3069.2884	3091.9598	3095.3285	3098.2316
CC1CCOC(C1)C=O	C[C@H]1CCO[C@@H](C1)C=O	
InChI=1S/C7H12O2/c1-6-2-3-9-7(4-6)5-8/h5-7H,2-4H2,1H3	InChI=1S/C7H12O2/c1-6-2-3-9-7(4-6)5-8/h5-7H,2-4H2,1H3/t6-,7-/m0/s1
