18
gdb 133810	4.47386	0.58123	0.57366	2.0578	62.77	-0.2632	0.084	0.3472	1918.4958	0.142017	-570.59719	-570.587184	-570.586239	-570.633876	34.283	
C	-0.1076533768	 1.540437519	 0.0123341524	-0.385492
C	-0.0170675081	 0.0243149889	 0.0021187638	-0.034263
O	-1.3296582723	-0.5060470354	 0.0121864991	-0.246085
C	-1.3570969103	-1.9129858853	 0.0041569776	-0.062364
C	-2.8206724767	-2.342870115	 0.0161218089	-0.338731
C	-2.9856221854	-3.8458232642	 0.0093675362	 0.276676
F	-2.4085990068	-4.4161608283	 1.0820124391	-0.085267
F	-4.2805210834	-4.1940788801	 0.0197232656	-0.076752
F	-2.4291013781	-4.4041989831	-1.08027895	-0.085283
H	 0.8937450834	 1.9808066885	 0.0048872125	 0.117447
H	-0.6514226126	 1.8984733615	-0.8663403329	 0.12815
H	-0.6334602596	 1.8875836796	 0.9061810013	 0.128149
H	 0.5250972198	-0.3271129126	-0.891849004	 0.089333
H	 0.543086387	-0.3379672521	 0.8805251338	 0.089332
H	-0.8528139049	-2.3121268718	-0.8904198329	 0.1032
H	-0.8352402446	-2.3225909614	 0.883804452	 0.103199
H	-3.3190245301	-1.9524939945	 0.9075058265	 0.139381
H	-3.3364400403	-1.9426214837	-0.8608579389	 0.13937
47.1784	60.4718	97.6472	120.0391	130.9331	206.5083	245.2082	306.8343	360.3654	403.5653	481.7572	538.6774	568.6866	661.0423	806.2178	823.741	847.6576	905.2653	1020.29	1041.6977	1071.8454	1136.8275	1165.9951	1177.6201	1198.5905	1205.9617	1263.8771	1268.5088	1297.8052	1322.2748	1358.3764	1396.3484	1413.2017	1455.6561	1480.5973	1483.554	1499.7066	1519.7359	1542.1338	2956.5843	2973.9275	2983.8523	3002.373	3046.1635	3074.0545	3120.9508	3123.0384	3125.109
CCOCCC(F)(F)F	CCOCCC(F)(F)F	
InChI=1S/C5H9F3O/c1-2-9-4-3-5(6,7)8/h2-4H2,1H3	InChI=1S/C5H9F3O/c1-2-9-4-3-5(6,7)8/h2-4H2,1H3
