20
gdb 79232	2.12911	1.68639	1.57865	1.5819	78.37	-0.2276	0.0607	0.2883	1026.8828	0.170078	-403.089234	-403.080526	-403.079582	-403.121815	34.06	
C	-0.2052642342	 1.5537380183	-0.0690722851	-0.528424
C	 0.0637255645	 0.0876189997	-0.0179854058	 0.274299
C	 0.4231318386	-0.9478674965	-1.0288479556	-0.140952
C	 1.4587415061	-1.578272256	-0.1011783724	 0.110805
O	 2.765352768	-1.0790086367	-0.2902614807	-0.442922
C	 0.6666665568	-0.919336909	 1.0729510615	 0.215537
C	 1.3572396136	-0.6083414773	 2.3709534287	-0.510026
C	-0.6852688277	-1.6362623238	 0.9581271996	-0.195938
N	-0.9258371123	-0.9687873363	-0.3675319863	-0.187742
H	 0.7223196655	 2.1363863572	-0.0372607438	 0.117501
H	-0.7351648133	 1.8042329878	-0.9934646828	 0.13923
H	-0.8295268053	 1.874123851	 0.772791585	 0.128418
H	 0.4342140429	-0.8897784451	-2.1108161493	 0.096078
H	 1.5579286048	-2.6687526307	-0.0738374388	 0.08121
H	 2.6948032643	-0.1414417491	-0.5053967098	 0.279928
H	 2.3241460853	-0.1269925633	 2.1923769585	 0.122295
H	 0.7529346783	 0.0489908522	 3.0051347914	 0.116661
H	 1.5499650253	-1.5291796697	 2.934417993	 0.124098
H	-0.6885246658	-2.7336134116	 0.9385009255	 0.094762
H	-1.4404740752	-1.2811231611	 1.6650625674	 0.105181
150.0574	181.6897	194.7263	208.027	232.9954	282.9755	322.4444	376.3526	417.0064	457.7665	539.1691	614.2869	641.1655	732.217	778.2333	824.872	850.4098	916.6192	922.3534	962.5776	992.7383	1018.0067	1058.9975	1095.3078	1107.9206	1143.8685	1148.44	1174.204	1192.9958	1237.1001	1252.2542	1274.8117	1283.2632	1351.2396	1396.3576	1410.0871	1426.5557	1441.529	1479.5142	1488.1615	1492.2661	1493.0628	1514.1597	3021.2168	3024.7885	3026.9516	3055.6271	3084.9861	3087.9059	3090.3209	3101.4217	3105.6418	3187.9911	3789.8645
CC12C3C(O)C1(C)CN23	C[C@@]12[C@H]3[C@@H](O)[C@]1(C)CN23	
InChI=1S/C7H11NO/c1-6-3-8-4(5(6)9)7(6,8)2/h4-5,9H,3H2,1-2H3	InChI=1S/C7H11NO/c1-6-3-8-4(5(6)9)7(6,8)2/h4-5,9H,3H2,1-2H3/t4-,5-,6+,7-,8?/m1/s1
