17
gdb 107588	2.73973	1.59437	1.1488	4.0626	68.01	-0.2602	-0.0101	0.2501	1076.0916	0.135689	-458.99006	-458.981924	-458.98098	-459.02292	30.199	
C	-0.0239234545	 1.5018383863	 0.4001073828	-0.38986
C	 0.0185906536	 0.0669888959	-0.1441221268	-0.294256
C	-1.3454600545	-0.5590216193	-0.2154618215	 0.253409
O	-2.003868435	-0.8991012724	 1.0295055198	-0.284375
C	-1.7328699313	-1.9407323862	 0.0951294094	-0.060854
C	-2.9474246608	-2.2731580262	-0.7412364994	-0.109299
O	-3.3174453906	-1.0447658786	-1.3920894378	-0.232611
C	-2.380401073	-0.0723218251	-1.212715147	 0.444007
O	-2.4160817506	 0.9735964414	-1.7938360549	-0.339569
H	 0.9844603796	 1.9219030863	 0.4477412351	 0.114697
H	-0.6364961104	 2.1380293368	-0.2422302447	 0.15497
H	-0.4480536926	 1.5168407295	 1.4082746748	 0.131752
H	 0.4549099124	 0.0584627476	-1.1497789331	 0.11806
H	 0.6532522594	-0.5620507379	 0.4892301416	 0.110008
H	-1.0296373779	-2.7085591563	 0.4035772293	 0.117242
H	-2.7211769843	-3.0239537045	-1.5062234914	 0.126995
H	-3.7952263695	-2.6113207471	-0.1389520061	 0.139685
86.027	133.8276	191.0647	208.5943	256.5334	290.8069	360.6056	457.8819	497.8964	617.7105	686.6728	730.0065	766.835	806.1817	838.1767	916.9349	940.0871	973.9728	1000.8381	1051.1798	1079.7268	1104.3044	1107.9632	1131.2682	1231.8612	1257.0998	1274.0129	1332.8232	1361.5876	1390.2798	1407.8417	1460.6844	1474.5602	1497.9986	1501.0989	1515.0562	1875.7678	3039.3311	3048.2963	3049.9233	3079.8426	3102.3772	3119.2724	3140.1591	3165.748
CCC12OC1COC2=O	CC[C@]12O[C@H]1COC2=O	
InChI=1S/C6H8O3/c1-2-6-4(9-6)3-8-5(6)7/h4H,2-3H2,1H3	InChI=1S/C6H8O3/c1-2-6-4(9-6)3-8-5(6)7/h4H,2-3H2,1H3/t4-,6-/m0/s1
