18
gdb 47660	2.31234	1.79451	1.19412	2.1264	72.57	-0.2456	-0.0263	0.2193	1046.7834	0.148966	-439.101063	-439.093075	-439.09213	-439.133694	30.242	
O	 0.0385071153	-0.0393258042	 0.0171276627	-0.308046
C	-0.0126493462	 1.1677438162	-0.0230919669	 0.39795
C	-1.3709899095	 1.882273085	-0.0093860772	-0.311946
C	-1.904997464	 1.9568364445	 1.4266047175	-0.078849
O	-0.9015896989	 2.4510370055	 2.3265125884	-0.227288
C	-0.4087136136	 3.6853898546	 1.9948463519	 0.092867
N	 0.743079275	 3.8933442421	 1.5307089723	-0.209438
C	 1.5941072086	 2.7286290107	 1.2681158046	-0.163986
C	 1.2547380497	 2.0170777815	-0.0661167437	-0.290628
H	-1.2909397333	 2.8864223803	-0.4355848381	 0.118019
H	-2.0723771959	 1.3000418176	-0.6140493353	 0.128837
H	-2.8069772963	 2.582345639	 1.4758917295	 0.10989
H	-2.1459265979	 0.9580605495	 1.7951989313	 0.143208
H	-1.0936062667	 4.5175224996	 2.178904775	 0.113906
H	 2.6228187657	 3.0907020518	 1.1955783448	 0.113593
H	 1.5484311398	 2.0003327061	 2.0855233306	 0.128036
H	 2.0779503879	 1.3434347939	-0.3181449303	 0.124718
H	 1.1669590403	 2.7758667661	-0.8531506773	 0.119154
84.6327	160.14	174.0869	223.4076	291.628	318.8834	405.7563	474.6321	534.8374	565.4743	662.7441	705.8162	767.5854	846.4969	869.1185	895.8723	954.208	990.5821	1000.4237	1023.0908	1044.226	1101.4098	1107.4985	1157.4239	1213.3179	1240.8605	1265.6659	1274.4205	1333.2437	1355.6985	1375.3421	1383.4503	1404.6319	1463.6004	1473.5994	1499.6876	1503.5019	1743.0804	1809.6992	3014.7432	3037.1404	3042.7473	3058.847	3092.8835	3101.2477	3106.386	3109.199	3125.5298
O=C1CCOC=NCC1	O=C1CCOC=NCC1	
InChI=1S/C6H9NO2/c8-6-1-3-7-5-9-4-2-6/h5H,1-4H2/b7-5-	InChI=1S/C6H9NO2/c8-6-1-3-7-5-9-4-2-6/h5H,1-4H2/b7-5-
