13
gdb 112151	2.58882	1.51439	1.25778	5.0993	55.62	-0.2864	-0.0749	0.2114	995.5105	0.088698	-530.893692	-530.885955	-530.885011	-530.926754	27.49	
O	-0.1212903209	 1.4524132436	-0.0410724235	-0.407318
C	-0.0409357015	 0.0479509642	-0.078607057	-0.105492
C	-1.4341872528	-0.576571676	-0.017561842	 0.215055
O	-2.112621181	-0.0968225372	 1.1420142019	-0.233489
C	-3.1158703536	 0.7425858129	 0.7664827443	 0.304297
O	-3.7971513787	 1.3647544146	 1.5154867818	-0.293875
C	-3.1751024351	 0.6831879654	-0.7638970726	 0.334442
O	-3.9272981963	 1.2405377319	-1.4953554747	-0.295877
O	-2.2011124621	-0.179821749	-1.1471947285	-0.217211
H	-0.2621958187	 1.724055108	 0.8719860747	 0.306812
H	 0.4194839601	-0.2335939601	-1.0302730001	 0.144159
H	 0.5654233627	-0.3690438963	 0.7367473429	 0.120446
H	-1.4016309622	-1.669687562	 0.0182044228	 0.128052
63.3606	92.6921	170.075	284.3452	323.6051	338.6837	382.8142	463.7325	605.8343	629.1402	634.6017	751.5587	811.6104	852.3003	903.0755	937.9315	997.6042	1080.7499	1099.9094	1125.7219	1214.4605	1274.2919	1363.2258	1375.7044	1404.6177	1406.7779	1483.0724	1899.4705	1937.1146	3022.9159	3079.2307	3101.9583	3821.8322
OCC1OC(=O)C(=O)O1	OCC1OC(=O)C(=O)O1	
InChI=1S/C4H4O5/c5-1-2-8-3(6)4(7)9-2/h2,5H,1H2	InChI=1S/C4H4O5/c5-1-2-8-3(6)4(7)9-2/h2,5H,1H2
