18
gdb 100379	2.64342	1.04542	0.90345	4.8086	72.72	-0.2575	-0.0339	0.2236	1347.164	0.14357	-439.105761	-439.095327	-439.094383	-439.141747	36.402	
C	-0.0927759203	 1.5314078703	 0.1532006598	-0.426239
C	-0.0411738729	 0.0103010157	-0.0036472602	-0.190699
C	 0.7726037385	-0.4734065723	-1.2259596082	 0.172544
O	 2.1214716134	-0.0216664594	-1.1777007703	-0.442833
C	 0.8564528621	-2.0091764924	-1.256013322	-0.293941
C	 1.5658397532	-2.5714095914	-2.4791854638	 0.157187
O	 1.3435979375	-3.6686066031	-2.918698684	-0.239831
C	 0.1299460905	 0.0227091005	-2.4708286901	 0.260864
N	-0.3646026401	 0.441534422	-3.4279557455	-0.333298
H	 0.9059737241	 1.9534901529	 0.3076591775	 0.119159
H	-0.5415850807	 2.0112877402	-0.7222233099	 0.147371
H	-0.6929601794	 1.8016475263	 1.0258212838	 0.134132
H	 0.42130271	-0.4447713619	 0.8790021344	 0.117049
H	-1.0561929061	-0.3938065072	-0.0847401249	 0.122162
H	 2.1355293158	 0.9353666957	-1.289457423	 0.300455
H	 1.4358714923	-2.3083353229	-0.3728567206	 0.148279
H	-0.1334396874	-2.4648607959	-1.1793723054	 0.140915
H	 2.3296102198	-1.9042854472	-2.9291376976	 0.106722
49.3915	97.4394	104.1125	132.238	161.9505	200.0636	244.0623	288.0348	322.3756	354.745	397.9212	418.6089	480.8791	592.6235	652.0115	684.1452	773.9805	804.8328	931.2741	964.098	1016.4024	1045.4184	1058.0532	1093.0302	1155.0845	1166.9029	1240.7423	1295.9406	1327.4703	1345.3982	1383.9552	1415.9715	1424.9734	1432.8542	1472.4369	1501.678	1509.5023	1835.3921	2348.0814	2927.4819	3038.3201	3039.2989	3044.4803	3083.8152	3109.7817	3119.0429	3120.3404	3813.3611
CCC(O)(CC=O)C#N	CC[C@@](O)(CC=O)C#N	
InChI=1S/C6H9NO2/c1-2-6(9,5-7)3-4-8/h4,9H,2-3H2,1H3	InChI=1S/C6H9NO2/c1-2-6(9,5-7)3-4-8/h4,9H,2-3H2,1H3/t6-/m1/s1
