15
gdb 24507	3.9352	1.6634	1.16919	0.6989	80.96	-0.2193	-0.0162	0.2031	980.0255	0.117025	-383.583333	-383.57737	-383.576426	-383.61345	24.842	
O	-0.0632211299	 1.3284174961	 0.0096223862	-0.212589
C	 1.2171874334	 1.8128171202	 0.0002808519	-0.002495
C	 2.1409164319	 0.8249177367	-0.0137498124	-0.322963
C	 1.3996150881	-0.4126555683	-0.0136912402	 0.25193
C	 0.0457486296	-0.0320593404	 0.0011031859	 0.35134
C	-1.0054749988	-0.935857252	 0.0059544121	-0.255692
C	-0.6643500883	-2.2846280135	-0.0047113943	-0.106145
C	 0.6780548383	-2.6971593351	-0.0195725386	-0.105218
C	 1.7173668632	-1.7758714116	-0.024210072	-0.254646
H	 1.2977411119	 2.8882284813	 0.0054446054	 0.14018
H	 3.2121696632	 0.9523572871	-0.0230489439	 0.11789
H	-2.0357536255	-0.6011931125	 0.0174560112	 0.109264
H	-1.451303009	-3.0309278556	-0.0014725306	 0.097866
H	 0.904688269	-3.7579510707	-0.0275634908	 0.093853
H	 2.7507408228	-2.1053012516	-0.0357014499	 0.097423
223.2089	254.3719	407.2514	433.0685	546.7984	584.3162	598.829	620.3603	757.7992	770.3325	779.6282	791.4348	840.7249	869.0158	875.544	911.5397	922.9278	963.5755	1032.1353	1063.2897	1123.3005	1158.5451	1174.745	1196.7597	1280.1017	1291.145	1361.2863	1390.0673	1480.1446	1506.2933	1579.9568	1626.2498	1654.6033	3174.927	3186.44	3197.2117	3208.8338	3252.902	3278.574
O1C=CC2=C1C=CC=C2	o1ccc2c1cccc2	
InChI=1S/C8H6O/c1-2-4-8-7(3-1)5-6-9-8/h1-6H	InChI=1S/C8H6O/c1-2-4-8-7(3-1)5-6-9-8/h1-6H
