20
gdb 77824	2.30012	1.61088	1.32654	3.943	78.76	-0.241	-0.0016	0.2394	1084.0377	0.170516	-403.173169	-403.1643	-403.163356	-403.206564	33.665	
C	-0.1466421344	 1.5021505501	-0.117064671	-0.422494
C	-0.0192726676	 0.0094868762	 0.0718236041	-0.038759
N	 1.273008612	-0.6986794056	-0.1520388072	-0.167492
C	 2.4212125523	 0.1461105601	-0.1749835964	 0.374979
O	 2.9406027008	 0.5511402088	-1.1793076183	-0.321211
C	 2.8647967189	 0.4269684716	 1.2671567966	-0.309943
C	 1.6044759279	 0.1780004072	 2.1187031051	-0.317765
C	 0.6888833397	-0.6593048578	 1.2035054563	 0.311775
C	 0.1628260716	-1.9627785189	 1.75718797	-0.475702
H	 0.6309906176	 2.0705600987	 0.3989118864	 0.126585
H	-0.0887660608	 1.7572670846	-1.1799212398	 0.14849
H	-1.1179672162	 1.8390252425	 0.2594604766	 0.124108
H	-0.8515808461	-0.5459194849	-0.3594838563	 0.097705
H	 3.6659109213	-0.2763014456	 1.5220765497	 0.136979
H	 3.2846815633	 1.4321623429	 1.3382442903	 0.132126
H	 1.82780756	-0.3794150656	 3.0308663238	 0.112779
H	 1.1299017924	 1.1142509373	 2.4272954685	 0.115344
H	-0.5124148794	-1.77926573	 2.6005476564	 0.120551
H	-0.3848118355	-2.5205705494	 0.9930990782	 0.129795
H	 0.9835524523	-2.5942841422	 2.1148941468	 0.122149
78.0932	122.8553	177.3879	207.3289	221.8486	258.5915	327.2642	406.7599	484.7548	499.611	563.5146	583.9602	657.4863	734.0696	770.928	789.716	811.5085	925.9179	955.0039	1001.9119	1006.5911	1018.7279	1085.2926	1099.5886	1112.4735	1140.0467	1151.3893	1180.4276	1237.5907	1272.7024	1284.2091	1328.9799	1345.0383	1414.2684	1416.6925	1440.4735	1459.5269	1484.3585	1486.6506	1493.3284	1499.4487	1512.2726	1847.552	3030.3098	3041.4822	3050.9556	3061.121	3093.1001	3102.4695	3103.056	3106.4415	3117.8694	3120.4438	3124.5606
CC1N2C(=O)CCC12C	C[C@H]1N2C(=O)CC[C@@]12C	
InChI=1S/C7H11NO/c1-5-7(2)4-3-6(9)8(5)7/h5H,3-4H2,1-2H3	InChI=1S/C7H11NO/c1-5-7(2)4-3-6(9)8(5)7/h5H,3-4H2,1-2H3/t5-,7+,8?/m1/s1
