16
gdb 20906	4.96798	1.40981	1.19659	1.1817	68.51	-0.2095	0.0105	0.22	1021.7823	0.132686	-376.112756	-376.104957	-376.104012	-376.14551	28.202	
C	-0.0986460286	 1.5142719877	 0.1325444736	-0.377381
C	 0.0622636546	-0.0045376128	 0.0570121082	-0.124893
N	 0.7623520697	-0.5482134649	 1.207798684	 0.148518
N	 2.0405717	-0.8805418067	 1.1711654412	-0.220289
C	 2.3178245701	-1.242060361	 2.4264077972	-0.12378
C	 1.1470486226	-1.1042656337	 3.1968474887	 0.328033
N	 0.9590702882	-1.3021883586	 4.5608334529	-0.59281
N	 0.1692805199	-0.6615276314	 2.403952954	-0.317507
H	 0.8779403175	 2.0054909081	 0.161448916	 0.134515
H	-0.6434047869	 1.876396714	-0.7446020473	 0.119615
H	-0.6568776639	 1.7951577038	 1.0290613424	 0.142528
H	-0.9141647462	-0.4944622686	 0.0048891654	 0.129269
H	 0.6476194427	-0.2990478156	-0.8157677011	 0.137697
H	 3.3024122808	-1.5776103493	 2.7096894975	 0.112376
H	 1.473014068	-2.0901885742	 4.9296951408	 0.24988
H	-0.0207088385	-1.3692022768	 4.8029554065	 0.254228
43.0552	109.1632	212.629	245.6806	302.0608	315.2681	412.1482	453.9748	634.353	670.4691	683.014	746.8641	769.0256	798.4031	829.5522	971.0795	1020.4357	1042.6268	1092.9071	1107.8158	1139.7937	1215.2	1278.8287	1363.6437	1387.4352	1392.8959	1407.7344	1427.9294	1475.7529	1488.5951	1495.0472	1506.5735	1584.972	1650.8011	3046.421	3068.8518	3119.5271	3121.7998	3142.5651	3268.1763	3551.8282	3647.6181
CCN1N=CC(N)=N1	CCn1ncc(N)n1	
InChI=1S/C4H8N4/c1-2-8-6-3-4(5)7-8/h3H,2H2,1H3,(H2,5,7)	InChI=1S/C4H8N4/c1-2-8-6-3-4(5)7-8/h3H,2H2,1H3,(H2,5,7)
