20
gdb 119029	2.54195	1.08292	0.87318	2.0256	80.51	-0.2366	0.0541	0.2907	1374.3098	0.169062	-403.082647	-403.07266	-403.071716	-403.118033	36.83	
O	-0.9718855643	 0.8389920249	-0.9415916269	-0.415063
C	-0.4147697309	 0.0428167199	 0.102158664	-0.068724
C	-1.4194482236	-1.0593569155	 0.4338070511	-0.289749
C	-1.5147433746	-2.1563283729	-0.6178909857	 0.340507
C	-0.4195275477	-3.224235414	-0.5660729493	-0.411527
C	-0.430845011	-4.0090255232	 0.6642855948	 0.316678
C	-0.4518089662	-4.6413974024	 1.686759029	-0.462894
C	-2.8521856128	-2.5373680847	-1.1397139673	-0.280413
N	-1.9036635168	-1.7997126046	-1.9913752088	-0.357287
H	-0.2836908552	 1.4099067351	-1.2945627038	 0.290832
H	 0.54934734	-0.3897972287	-0.2042092747	 0.094139
H	-0.2299817663	 0.6547403975	 0.9980989235	 0.091452
H	-1.1527135965	-1.5105349926	 1.3959248824	 0.118069
H	-2.3960446239	-0.5799852172	 0.5652950034	 0.107809
H	-0.5430013373	-3.8793105789	-1.4349572595	 0.141149
H	 0.5631779683	-2.7482947733	-0.6868154898	 0.124834
H	-0.4675640148	-5.2107151807	 2.582761037	 0.194527
H	-3.0443821576	-3.5618146264	-1.4483697197	 0.113731
H	-3.7204540448	-2.0166973315	-0.7436605317	 0.108843
H	-2.1301199939	-0.8091893208	-2.0231542579	 0.243089
44.7415	74.6971	129.1621	163.8739	212.2933	256.2423	318.075	341.7009	358.6545	368.7235	398.884	490.1887	567.7035	617.6662	639.3034	712.9156	841.0817	883.2732	903.7962	908.7957	960.0153	975.567	992.1499	1000.4647	1040.5075	1081.73	1107.8855	1153.468	1186.7304	1191.851	1260.079	1270.9793	1290.5966	1318.6148	1334.5363	1389.4276	1410.9181	1449.1425	1467.7644	1469.0563	1515.3838	1519.681	2235.5392	2980.7485	3009.5763	3019.9496	3041.6694	3071.6026	3084.6219	3102.1584	3185.52	3506.3461	3517.5028	3836.2501
OCCC1(CC#C)CN1	OCC[C@@]1(CC#C)CN1	
InChI=1S/C7H11NO/c1-2-3-7(4-5-9)6-8-7/h1,8-9H,3-6H2	InChI=1S/C7H11NO/c1-2-3-7(4-5-9)6-8-7/h1,8-9H,3-6H2/t7-/m0/s1
