18
gdb 113421	3.31138	1.06281	0.92927	2.1154	75.09	-0.2384	0.0258	0.2643	1297.577	0.145921	-439.04978	-439.041005	-439.040061	-439.083624	32.392	
C	 0.099101302	 1.1481819593	 0.1941736315	-0.24048
O	-0.1636146792	-0.0026948704	-0.5892863313	-0.231703
C	-1.3636069882	-0.6208484329	-0.2588358759	 0.033557
C	-1.5601201564	-2.0365314596	-0.7513748954	-0.39581
C	-1.3610295468	-1.7635438708	 0.7039349	 0.403385
C	-0.2969437483	-2.2552962399	 1.6741604635	-0.43456
C	-1.4793321968	-2.4096258242	 2.61297338	 0.427001
N	-1.6307332442	-2.7908356308	 3.7960657296	-0.539119
O	-2.4084941829	-1.9643975264	 1.6843670918	-0.270866
H	 1.0577225094	 1.5500410853	-0.1404962003	 0.133542
H	-0.678360263	 1.9136383385	 0.0540417583	 0.114325
H	 0.1613297575	 0.9117470959	 1.2654246878	 0.114199
H	-2.2408990069	 0.0291090302	-0.2535362448	 0.100338
H	-2.5508142509	-2.3115237976	-1.0960487711	 0.134647
H	-0.7346301518	-2.4960389986	-1.2853993961	 0.1362
H	 0.1954136728	-3.1927055914	 1.4089089351	 0.142756
H	 0.4510691914	-1.5252975893	 1.9869073048	 0.143203
H	-2.6119239076	-2.7506317172	 4.0768983426	 0.229383
72.7361	119.4933	137.7153	168.2476	207.6917	293.9434	391.9112	436.9987	447.2073	486.3606	502.5491	607.0967	778.938	804.4774	864.1019	871.842	898.532	956.0273	991.7047	1010.9665	1038.3372	1048.3235	1069.006	1110.9301	1142.3583	1156.1634	1175.7427	1182.2447	1215.4812	1250.155	1289.0158	1347.6576	1404.862	1464.2226	1471.4498	1486.22	1496.7263	1510.4948	1833.0371	2989.5409	3041.9565	3087.1095	3087.4116	3125.7217	3134.2161	3139.4795	3227.8814	3477.7141
COC1CC11CC(=N)O1	CO[C@H]1C[C@]21C[C]([NH])O2	
InChI=1S/C6H9NO2/c1-8-4-2-6(4)3-5(7)9-6/h4,7H,2-3H2,1H3	InChI=1S/C6H9NO2/c1-8-4-2-6(4)3-5(7)9-6/h4,7H,2-3H2,1H3/t4-,6+/m0/s1
