16
gdb 5796	6.0691	1.45408	1.2947	4.015	70.21	-0.2193	0.0296	0.249	947.0728	0.133074	-342.79899	-342.792204	-342.79126	-342.831949	25.456	
C	-0.136268363	 1.4359073803	-0.1553733916	-0.282749
C	 1.2784526207	 0.9546713472	 0.0791607989	-0.282616
C	 0.1386212325	-0.0275105368	 0.0612566061	 0.068574
N	-0.286893154	-0.6937557335	 1.2615812745	 0.015914
C	-0.7379824916	-1.9954360861	 1.3312199068	-0.130512
C	-1.0338972184	-2.2189196265	 2.6500909445	-0.09448
N	-0.7780110566	-1.095499665	 3.3974387936	-0.2776
C	-0.3342137326	-0.2050845181	 2.537020512	-0.002752
H	-0.6275834476	 1.9737372033	 0.6475260293	 0.132416
H	-0.4214651807	 1.7581477844	-1.150473392	 0.126357
H	 1.9726529982	 0.9438877054	-0.7535286678	 0.126336
H	 1.7336795872	 1.1702771684	 1.0391549237	 0.13242
H	 0.0565973076	-0.6856830529	-0.7949420031	 0.111294
H	-0.8002491338	-2.6141710348	 0.4511785903	 0.124916
H	-1.4147231398	-3.1227696033	 3.1006455689	 0.107251
H	-0.0340067381	 0.802823808	 2.7798633959	 0.125231
9.5376	154.8342	201.5752	409.5308	418.6509	618.3371	638.8782	679.0675	723.723	777.1833	807.6714	812.2532	848.682	903.8075	919.7134	949.4749	1025.6854	1061.8988	1076.2962	1090.5036	1119.3732	1120.8266	1146.221	1196.8428	1213.1297	1273.2384	1281.7752	1349.7292	1394.3969	1444.0418	1467.0403	1506.0945	1531.4155	1542.8611	3139.2573	3141.7945	3186.5002	3220.8567	3235.0053	3247.1038	3251.7628	3276.2561
C1CC1N1C=CN=C1	C1CC1n1ccnc1	
InChI=1S/C6H8N2/c1-2-6(1)8-4-3-7-5-8/h3-6H,1-2H2	InChI=1S/C6H8N2/c1-2-6(1)8-4-3-7-5-8/h3-6H,1-2H2
