18
gdb 92519	2.49501	1.68613	1.3109	2.5528	71.55	-0.2258	-0.0286	0.1972	1026.2616	0.148108	-439.077314	-439.069204	-439.068259	-439.110658	30.425	
C	 0.1418886037	 1.5440937297	-0.1041156082	-0.396251
C	 0.000988413	 0.0269237024	 0.0003339538	 0.022839
O	 0.5272445095	-0.6259704303	-1.1545544081	-0.291401
C	 1.5394940206	-1.5757856778	-0.8354313903	 0.109196
C	 2.9752310914	-1.0680448862	-1.1039867217	-0.183674
N	 3.042186917	-0.606629041	 0.306121709	-0.318355
C	 1.8545152091	-1.4305430254	 0.6661816299	-0.150831
C	 0.7443099802	-0.5419571123	 1.2151053674	 0.408246
O	 0.4909040036	-0.3081649598	 2.3671438177	-0.318289
H	 1.1964903701	 1.8209508872	-0.1795545929	 0.137478
H	-0.3873942971	 1.912229607	-0.9868567498	 0.12461
H	-0.2844789853	 2.0132675213	 0.7871999626	 0.134084
H	-1.0617358697	-0.2382069396	 0.1035977326	 0.10525
H	 1.266546764	-2.5518931108	-1.2426958691	 0.086954
H	 3.6653865403	-1.8871061197	-1.3465346122	 0.096806
H	 3.0704566549	-0.2738883486	-1.8501366386	 0.11525
H	 3.8893029298	-0.8219759676	 0.8170609642	 0.231259
H	 2.0327448048	-2.3304436684	 1.2605918837	 0.086827
40.2747	108.6645	206.1384	233.9233	252.9083	358.5795	391.291	455.4934	581.4396	621.0457	654.4712	697.3342	806.3621	822.7613	874.5748	918.87	945.3177	960.7268	1010.2511	1038.4624	1063.3872	1086.5428	1104.4916	1113.1115	1149.5719	1196.7802	1219.3532	1238.6035	1276.1176	1314.1647	1328.2064	1347.2287	1365.2349	1377.6066	1396.4321	1486.3637	1496.9247	1503.6223	1856.1054	2996.4137	3011.9721	3046.7524	3072.4822	3084.1538	3087.0638	3126.3082	3132.3315	3555.8951
CC1OC2CNC2C1=O	C[C@H]1O[C@H]2CN[C@H]2C1=O	
InChI=1S/C6H9NO2/c1-3-6(8)5-4(9-3)2-7-5/h3-5,7H,2H2,1H3	InChI=1S/C6H9NO2/c1-3-6(8)5-4(9-3)2-7-5/h3-5,7H,2H2,1H3/t3-,4+,5-/m1/s1
