20
gdb 16337	2.99324	1.76118	1.37223	1.7848	74.52	-0.2271	0.0745	0.3016	1000.0849	0.175956	-348.972329	-348.963885	-348.962941	-349.005073	31.95	
C	 0.1018857909	 1.5171173612	 0.2981680311	-0.372647
C	 0.0157759635	 0.0404402068	-0.1146220442	-0.297047
C	-1.3799124958	-0.5152209029	-0.0503276875	 0.275177
C	-2.0276048127	-1.040355746	 1.2220706547	-0.353496
C	-1.9132862682	-1.9261245883	 0.0205625526	 0.045299
O	-2.9757615172	-1.6673823381	-0.8991179019	-0.31108
C	-2.468983336	-0.315054671	-1.11780716	 0.1115
C	-3.5322764243	 0.755940049	-0.9866985624	-0.409261
H	 1.1325276239	 1.8813986217	 0.2458907204	 0.111975
H	-0.5073542953	 2.149577093	-0.3562071764	 0.117987
H	-0.2567951644	 1.6588353391	 1.3226849577	 0.120403
H	 0.4074964366	-0.0792534747	-1.1337013417	 0.09835
H	 0.6690966148	-0.5566459729	 0.5337835178	 0.098634
H	-1.3209416127	-1.2424944925	 2.0223152317	 0.109613
H	-3.0087237274	-0.7105663219	 1.5512688658	 0.112137
H	-1.4331671176	-2.8978358168	-0.0139773975	 0.100312
H	-2.0092420664	-0.2723513215	-2.1157802	 0.075275
H	-3.9599553017	 0.7782915542	 0.0189731762	 0.121192
H	-3.1074910186	 1.7411323082	-1.2076030217	 0.117578
H	-4.3427967716	 0.5690924534	-1.6985280347	 0.128098
72.9534	134.3804	210.2741	221.8461	223.6949	291.9635	337.9579	385.8838	473.3888	523.31	658.3538	709.8642	776.1982	844.342	869.7804	879.5932	909.0331	981.3036	1001.3613	1005.5186	1035.6331	1068.9683	1074.1014	1083.6392	1099.1792	1137.7514	1148.1526	1232.1871	1257.8171	1273.8578	1330.2871	1358.092	1383.0128	1400.4071	1407.9067	1420.7667	1476.5969	1484.1549	1487.7974	1495.6081	1499.2322	1506.3494	2997.839	3014.6757	3034.5855	3038.6443	3049.1212	3102.6034	3105.936	3107.9	3113.5958	3123.019	3172.9848	3202.2922
CCC12CC1OC2C	CC[C@]12C[C@H]1O[C@H]2C	
InChI=1S/C7H12O/c1-3-7-4-6(7)8-5(7)2/h5-6H,3-4H2,1-2H3	InChI=1S/C7H12O/c1-3-7-4-6(7)8-5(7)2/h5-6H,3-4H2,1-2H3/t5-,6+,7+/m0/s1
