13
gdb 16605	3.22657	2.35597	1.54804	5.5207	58.27	-0.2336	-0.0847	0.1489	781.6076	0.096079	-398.602659	-398.596216	-398.595272	-398.633465	24.169	
O	 0.0174219706	 0.0018141545	-0.1512526208	-0.27336
C	-0.0441864628	 1.1828112352	 0.0423564442	 0.30505
C	-1.3006101267	 2.0318740851	 0.251461658	-0.325031
C	-0.7803736427	 3.3783869521	 0.725010137	-0.04965
N	 0.0546441192	 3.2383448779	 1.9159801068	-0.326137
C	 0.7093061309	 3.4493490793	 0.5870847252	-0.173452
C	 1.1955268231	 2.1418978802	 0.0512436851	 0.367498
O	 2.2842523235	 1.8581578475	-0.367551486	-0.292189
H	-1.8210563168	 2.1189325821	-0.7105416639	 0.140176
H	-1.9816553878	 1.5577933484	 0.9627295938	 0.14822
H	-1.379222424	 4.2728043331	 0.5914303382	 0.108761
H	 0.0996815134	 4.1143453953	 2.4314553227	 0.25066
H	 1.24995746	 4.3663530394	 0.3886502397	 0.119454
87.0632	189.5103	314.1875	359.4007	417.5787	503.2329	590.4371	626.7859	688.5333	727.5995	809.7817	865.3458	882.0783	948.0974	985.2333	1006.6419	1057.9319	1115.7979	1144.7663	1174.509	1192.6393	1235.7253	1300.6663	1357.2436	1405.1383	1440.1144	1850.3658	1867.0922	3044.7784	3108.2973	3171.3832	3199.5805	3506.2861
O=C1CC2NC2C1=O	O=C1C[C@H]2N[C@H]2C1=O	
InChI=1S/C5H5NO2/c7-3-1-2-4(6-2)5(3)8/h2,4,6H,1H2	InChI=1S/C5H5NO2/c7-3-1-2-4(6-2)5(3)8/h2,4,6H,1H2/t2-,4-/m1/s1
