17
gdb 83300	2.43971	1.88861	1.50658	2.7798	66.94	-0.2473	-0.0307	0.2165	926.8771	0.137559	-458.979162	-458.971903	-458.970959	-459.010805	28.598	
O	 0.1583246355	 1.3562763775	 0.3198534475	-0.442703
C	 0.0020045168	-0.0105533605	 0.0733560932	 0.079281
C	-1.4469999679	-0.4990637504	-0.13938896	 0.057471
C	-1.1893714647	-1.8941202928	-0.7404142622	-0.258711
C	-0.4138207728	-1.3193931058	-1.9496766011	-0.16661
C	-1.4607116271	-0.2742599425	-2.4291635892	-0.07852
O	-2.0453306701	 0.2268107902	-1.2180468762	-0.268275
C	 0.6310805892	-0.4471338253	-1.2658418751	 0.37598
O	 1.6774420644	-0.0300135231	-1.6944616323	-0.342599
H	 0.9713040376	 1.6244595887	-0.129158792	 0.294221
H	 0.4488330603	-0.6203915568	 0.8809976763	 0.089136
H	-2.0967632981	-0.4266610802	 0.7316193571	 0.094258
H	-0.5934970412	-2.5526275909	-0.1041523857	 0.114301
H	-2.1135910164	-2.4002722239	-1.0263681364	 0.120682
H	-0.0457924214	-1.9861926939	-2.7269276234	 0.09671
H	-1.0149114291	 0.5490005607	-2.9969026634	 0.125782
H	-2.2298042151	-0.754931841	-3.0475153973	 0.109597
93.9314	216.2762	236.0704	281.0436	345.1817	435.7843	467.5217	525.0164	580.9364	662.0816	721.5334	782.3168	860.7069	884.8819	898.8299	931.8282	936.9436	960.5103	969.8619	1036.2764	1074.6405	1102.4073	1152.0938	1168.5864	1185.1711	1191.7637	1223.7179	1261.8823	1277.6039	1292.3357	1334.9289	1364.6543	1382.5497	1407.2891	1494.532	1528.7605	1849.1143	2929.6117	3016.7652	3073.9662	3074.6898	3129.5837	3135.2179	3145.1396	3756.9207
OC1C2CC(CO2)C1=O	O[C@H]1[C@@H]2C[C@@H](CO2)C1=O	
InChI=1S/C6H8O3/c7-5-3-1-4(6(5)8)9-2-3/h3-4,6,8H,1-2H2	InChI=1S/C6H8O3/c7-5-3-1-4(6(5)8)9-2-3/h3-4,6,8H,1-2H2/t3-,4-,6-/m0/s1
