16
gdb 17101	4.48986	1.75145	1.73513	3.4521	64.57	-0.2429	-0.0277	0.2152	808.9747	0.131352	-383.719539	-383.71306	-383.712116	-383.750361	24.997	
O	-0.1295595609	 0.0599923808	-0.2118109496	-0.235665
C	 0.0391017594	 1.2012114114	 0.1266360277	 0.138453
C	 1.3270113912	 1.985232246	-0.0295631293	 0.039066
O	 2.4720468238	 1.1595601718	-0.256202553	-0.273452
C	 2.9526612059	 1.6468183076	-1.5272081629	 0.115856
C	 2.8795978932	 3.1838088235	-1.3623511756	-0.233656
C	 1.3536927456	 2.8534266086	-1.3166056012	-0.089175
C	 1.6655683557	 1.7461356008	-2.3775049276	-0.2395
H	-0.7855607636	 1.8028126843	 0.5786763458	 0.072239
H	 1.4630963721	 2.5981789154	 0.8742932594	 0.088531
H	 3.8446771838	 1.0936166833	-1.8130878565	 0.087322
H	 3.3464644506	 3.6185629313	-0.4752454196	 0.103691
H	 3.1582546849	 3.7321456858	-2.2635872526	 0.107653
H	 0.5745066914	 3.6040311676	-1.4402231344	 0.08308
H	 1.8312026466	 2.1658887779	-3.3705957062	 0.104722
H	 1.0286778304	 0.861827734	-2.4162072545	 0.130834
88.2634	171.5428	250.5256	357.871	480.501	521.2951	630.3911	760.8135	800.9151	831.7269	840.5969	870.7854	887.4043	941.7582	953.9082	970.1608	1019.1658	1031.7244	1050.239	1073.5004	1105.9558	1126.1179	1142.977	1212.951	1236.5538	1252.7678	1271.3363	1272.9408	1319.6369	1368.7488	1420.6052	1474.506	1509.7083	1838.7212	2846.0966	2993.8863	3069.0346	3086.0779	3131.4305	3138.2223	3150.2122	3155.0813
O=CC1OC2CC1C2	O=C[C@H]1O[C@@H]2C[C@H]1C2	
InChI=1S/C6H8O2/c7-3-6-4-1-5(2-4)8-6/h3-6H,1-2H2	InChI=1S/C6H8O2/c7-3-6-4-1-5(2-4)8-6/h3-6H,1-2H2/t4-,5+,6-/m1/s1
