21
gdb 103286	2.40107	1.32442	1.1506	2.3104	78.41	-0.2403	0.0637	0.3039	1197.6693	0.180947	-424.189772	-424.180283	-424.179339	-424.223615	36.587	
C	-0.3270056908	 1.4861075622	 0.1272113701	-0.396417
C	 0.1650117386	 0.0533934456	-0.1145323568	-0.243799
C	 0.7667899525	-0.5788926451	 1.1264554267	 0.421294
O	 1.9650522714	 0.046016469	 1.544015563	-0.484551
C	-0.0138400668	-1.146111887	 2.2849146739	-0.126946
C	-1.2694242046	-1.8911569334	 1.8234234603	-0.305236
C	-0.3463933386	-2.8572589923	 0.9943820016	 0.102419
O	-0.5448865484	-2.9935552223	-0.3985578883	-0.426109
C	 0.878108194	-2.0521320792	 1.3981167945	-0.118302
H	 0.4902955146	 2.1463375423	 0.439352927	 0.105536
H	-0.7530137171	 1.9140140986	-0.7850551157	 0.115442
H	-1.0995653964	 1.5171089201	 0.9038763478	 0.114842
H	-0.6458327803	-0.5696612146	-0.4951919048	 0.117687
H	 0.9391282783	 0.0531389223	-0.8909174769	 0.105041
H	 1.7333531099	 0.9040590118	 1.9142305712	 0.282131
H	 0.1880045881	-0.8177589301	 3.2972230052	 0.083603
H	-1.7967867154	-2.4058915614	 2.6300867502	 0.100689
H	-1.9938959223	-1.310379644	 1.2447264498	 0.098823
H	-0.3170382391	-3.8439822023	 1.4754562032	 0.078354
H	-1.3075354035	-3.5639358694	-0.5390535962	 0.282857
H	 1.8531901158	-2.4684639808	 1.6189832644	 0.092642
77.4055	135.0004	172.9081	220.8986	252.8537	259.7905	289.3394	302.279	399.0621	414.186	436.032	497.6866	594.9792	663.7408	698.558	781.8396	834.922	842.7412	882.4413	929.4596	986.224	1005.8946	1012.0268	1016.37	1041.4598	1061.1781	1096.2049	1100.162	1152.4363	1176.6445	1210.0378	1233.7679	1255.263	1273.7519	1304.0819	1306.7867	1330.2899	1366.2343	1405.1394	1425.7541	1447.9255	1477.1679	1494.6225	1501.2886	1510.3303	3006.8598	3027.2689	3045.755	3052.7338	3085.1239	3104.1493	3105.129	3124.663	3182.2005	3193.576	3808.7283	3813.2858
CCC1(O)C2CC(O)C12	CC[C@@]1(O)[C@H]2C[C@@H](O)[C@@H]12	
InChI=1S/C7H12O2/c1-2-7(9)4-3-5(8)6(4)7/h4-6,8-9H,2-3H2,1H3	InChI=1S/C7H12O2/c1-2-7(9)4-3-5(8)6(4)7/h4-6,8-9H,2-3H2,1H3/t4-,5+,6-,7+/m0/s1
