17
gdb 22540	2.36953	1.08549	0.82543	3.0758	72.03	-0.2686	-0.015	0.2535	1378.0368	0.133069	-455.112568	-455.102226	-455.101282	-455.149151	35.67	
C	-1.2514939226	 0.6736617684	 0.390032654	-0.481845
C	 0.0830403622	 0.085713157	 0.026046383	 0.357165
N	 1.1079563952	 0.0620447871	 0.7860070379	-0.154962
O	 0.8603079766	 0.6650083833	 2.0198362572	-0.393915
C	 0.2814226081	-0.5034102518	-1.3630408629	-0.229945
C	 1.7252708516	-0.9760070287	-1.6742923813	-0.074493
O	 1.8451553957	-1.4088592191	-3.0106811373	-0.420694
C	-0.6490693012	-1.6178160362	-1.5902986969	 0.25817
N	-1.3467732192	-2.5192283528	-1.7840041983	-0.3286
H	-1.5003670457	 0.4350890863	 1.4261602339	 0.161784
H	-1.2192857092	 1.7666488518	 0.3097268882	 0.150651
H	-2.0404179616	 0.3029249282	-0.2673648083	 0.142757
H	 1.6955544306	 0.538628209	 2.483232775	 0.312366
H	 0.0278752553	 0.2687620024	-2.1034323592	 0.146573
H	 2.3978986459	-0.1254196056	-1.5512127126	 0.133735
H	 2.0232625069	-1.7450831837	-0.9524900212	 0.12305
H	 1.3700582014	-2.2422230656	-3.1039634313	 0.298202
39.129	51.1671	109.6148	125.5044	159.6692	205.3333	296.2729	318.4971	369.2558	378.014	392.206	412.4387	485.4843	551.2961	581.7582	708.1951	806.8516	882.6314	987.6388	1011.1099	1038.476	1051.2317	1079.1961	1093.0245	1187.2497	1226.528	1289.1127	1324.829	1386.6607	1401.2971	1404.0426	1410.6453	1473.901	1485.8117	1497.1019	1734.1878	2350.7231	3016.7647	3042.6908	3045.3898	3110.05	3124.457	3145.192	3803.9159	3815.9099
CC(=NO)C(CO)C#N	CC(=NO)[C@@H](CO)C#N	
InChI=1S/C5H8N2O2/c1-4(7-9)5(2-6)3-8/h5,8-9H,3H2,1H3	InChI=1S/C5H8N2O2/c1-4(7-9)5(2-6)3-8/h5,8-9H,3H2,1H3/t5-/m1/s1
