17
gdb 30051	2.69572	1.60271	1.01772	2.6463	78.79	-0.2356	-0.0451	0.1905	1138.313	0.136317	-418.075636	-418.066866	-418.065922	-418.109701	31.122	
C	 0.0187521834	 1.4707113207	 0.0051400361	-0.323889
N	-0.0108598873	 0.0132247066	 0.0235511697	-0.039649
C	-0.0707032489	-0.7888074749	-1.0785773065	-0.115021
C	-0.0795498032	-2.0881373992	-0.6151987444	-0.103566
N	-0.0265956139	-2.101037276	 0.7416270533	-0.297954
C	 0.0144091517	-0.8262648336	 1.1147293383	 0.246097
C	 0.0786976255	-0.3595270099	 2.5075980019	 0.309778
C	 0.0989077827	-1.437653774	 3.5699393509	-0.46875
O	 0.1144141773	 0.8291013816	 2.7795726752	-0.347516
H	 0.9276706199	 1.8410791542	 0.4806960345	 0.16224
H	-0.015732254	 1.7987727801	-1.035280095	 0.129544
H	-0.8334129118	 1.8777050995	 0.5506647967	 0.162276
H	-0.1011226537	-0.3747496859	-2.0735892967	 0.136418
H	-0.1211769415	-2.9979946775	-1.1947031402	 0.116046
H	 0.9572027873	-2.0999338558	 3.4235747998	 0.151233
H	 0.1456005843	-0.966126783	 4.551981983	 0.131476
H	-0.7922507577	-2.0670625431	 3.4905944234	 0.151236
61.623	100.5523	123.0711	175.2843	202.1783	235.2694	321.3964	412.4011	511.1196	565.7692	642.7336	648.77	711.2739	738.2416	773.5652	860.2686	926.0932	955.8017	1043.8872	1068.6233	1099.4975	1121.8683	1153.2069	1193.1081	1275.5842	1328.6521	1378.9592	1393.5147	1437.8762	1452.5494	1458.6741	1465.4905	1476.1376	1493.1079	1518.6593	1540.7328	1755.6216	3053.183	3067.0896	3117.9505	3148.6207	3151.6875	3159.211	3245.5386	3271.6194
CN1C=CN=C1C(C)=O	Cn1ccnc1C(=O)C	
InChI=1S/C6H8N2O/c1-5(9)6-7-3-4-8(6)2/h3-4H,1-2H3	InChI=1S/C6H8N2O/c1-5(9)6-7-3-4-8(6)2/h3-4H,1-2H3
