21
gdb 91053	3.88052	1.21366	1.12384	0.4231	89.41	-0.2198	0.02	0.2398	1187.3465	0.184172	-349.916124	-349.908421	-349.907477	-349.947997	31.676	
C	-0.1316605667	 1.5672789962	 0.0690186809	-0.396149
C	 0.0777066979	 0.0517008392	 0.0144440781	 0.014036
C	 0.879290636	-0.4273386237	-1.2503065626	-0.270199
C	 1.5176098389	-1.7293499116	-0.744431419	-0.029315
C	 2.9770267749	-2.2611939067	-0.7856935852	-0.092126
C	 3.9552627804	-1.3373271918	-0.1260248323	-0.265849
C	 3.035868331	-2.1594278256	 0.7611367676	-0.18206
C	 1.7072817681	-1.4574714214	 0.725352438	 0.318919
C	 0.9184961671	-0.4908678539	 1.1815184138	-0.259132
H	 0.8288504661	 2.0939259008	 0.1022356448	 0.11195
H	-0.6785268266	 1.9200414593	-0.8120625214	 0.11149
H	-0.7047749882	 1.8602499914	 0.9553877903	 0.110778
H	-0.9152278313	-0.4258652106	 0.0071585377	 0.073931
H	 0.2434718974	-0.537027585	-2.1343573945	 0.087674
H	 1.6511143558	 0.3183754645	-1.478417772	 0.095807
H	 0.8435870085	-2.584090857	-0.8942285837	 0.079572
H	 3.3127306524	-3.080843035	-1.4094561185	 0.084668
H	 4.988088019	-1.6727776673	-0.1502242844	 0.111389
H	 3.8345787111	-0.2586911319	-0.1707554122	 0.112852
H	 3.4210539235	-2.8604245636	 1.4905723799	 0.093958
H	 0.8765247647	-0.0647286564	 2.1778991146	 0.087806
100.3278	201.5805	239.3325	246.8985	297.8017	443.4223	457.7404	492.3977	580.7994	639.9543	685.0498	740.6348	808.2449	826.9492	853.6467	878.3476	910.8954	917.8553	923.4853	958.8554	986.9939	1013.8203	1045.5021	1051.4918	1077.2372	1088.1375	1100.383	1130.196	1144.4539	1166.6596	1177.2522	1210.1407	1239.5528	1270.2998	1293.202	1302.4739	1334.9876	1357.229	1359.435	1408.7682	1481.8225	1488.3902	1496.1665	1500.1099	1730.381	2969.1844	3006.3189	3024.5309	3031.2398	3085.2517	3094.2506	3095.3349	3114.8862	3180.584	3188.3772	3190.169	3202.7217
CC1CC2C3CC3C2=C1	C[C@H]1C[C@H]2[C@H]3C[C@H]3[C]2[CH]1	
InChI=1S/C9H12/c1-5-2-6-7(3-5)9-4-8(6)9/h2,5,7-9H,3-4H2,1H3	InChI=1S/C9H12/c1-5-2-6-7(3-5)9-4-8(6)9/h2,5,7-9H,3-4H2,1H3/t5-,7-,8+,9-/m1/s1
