23
gdb 107308	3.11329	1.1292	0.93716	0.2753	91.94	-0.214	0.0291	0.2431	1374.9005	0.20571	-351.17137	-351.162092	-351.161148	-351.205073	36.143	
C	 0.1992942099	 1.5015274388	-0.2146753993	-0.374319
C	-0.0917207403	 0.0220064027	 0.0700015209	-0.277584
C	 0.6138240228	-0.502632872	 1.3020401892	 0.381783
C	 2.0361952358	-0.9955584029	 1.1819013877	-0.32184
C	 0.9225272815	-1.9806026351	 1.4965599199	-0.13513
C	 0.7055559338	-2.2506148783	 2.9453373865	-0.175778
C	 0.3421983427	-1.1521879259	 3.6174695873	 0.311712
C	 0.1091735234	-1.019638962	 5.0891057257	-0.487356
C	 0.1931463225	 0.0328561082	 2.6769583149	-0.379909
H	 1.272014531	 1.6697210191	-0.3570075968	 0.116379
H	-0.3185856813	 1.8401053751	-1.1175967891	 0.108084
H	-0.1285857192	 2.1383180259	 0.6139138236	 0.116818
H	-1.1750467227	-0.120802612	 0.1840920891	 0.092794
H	 0.2055408449	-0.5799394264	-0.7978905746	 0.091092
H	 2.459708676	-1.0207665619	 0.1818048518	 0.102103
H	 2.7493204257	-0.7745201257	 1.9702124338	 0.103406
H	 0.6581756937	-2.7243209787	 0.751337864	 0.079099
H	 0.8697869448	-3.2247014807	 3.3944046899	 0.083786
H	 0.2238419536	-1.9785549865	 5.6023102194	 0.121322
H	 0.8097393629	-0.3076950711	 5.5448143069	 0.122167
H	-0.8987277563	-0.6384319199	 5.3002133731	 0.120536
H	 0.8012967355	 0.8881680117	 3.0008521117	 0.103821
H	-0.8477597507	 0.3911301276	 2.6614795741	 0.097013
86.3765	127.162	161.9935	190.1651	224.2951	295.1871	313.7796	375.5325	393.0689	410.5591	487.1716	578.0276	660.3841	736.5705	787.4831	831.6161	859.3795	860.1766	895.003	924.4863	961.8158	975.5495	995.8873	1014.0114	1050.7012	1059.3523	1064.5867	1070.5568	1095.8994	1118.5341	1178.5715	1196.6546	1245.5961	1251.9146	1288.9122	1337.5002	1344.7449	1361.482	1399.9569	1409.5742	1414.821	1472.0182	1477.5291	1478.752	1488.4345	1493.8392	1497.791	1507.3282	1709.0909	2989.2934	3009.9627	3012.2004	3029.0899	3032.5661	3046.08	3055.003	3100.4471	3102.8754	3106.4411	3112.8852	3154.2985	3184.1511	3201.0554
CCC12CC1C=C(C)C2	CC[C@]12C[C@H]1C=C(C)C2	
InChI=1S/C9H14/c1-3-9-5-7(2)4-8(9)6-9/h4,8H,3,5-6H2,1-2H3	InChI=1S/C9H14/c1-3-9-5-7(2)4-8(9)6-9/h4,8H,3,5-6H2,1-2H3/t8-,9+/m1/s1
