17
gdb 97757	5.69114	0.61056	0.60021	4.5888	79.85	-0.2633	0.0096	0.2729	1879.3531	0.134518	-421.830498	-421.821229	-421.820285	-421.867503	32.199	
C	-0.7842543309	 1.4812156822	-0.2270820236	-0.367353
C	 0.3285221339	 0.4974349057	 0.1783773289	-0.317639
C	 1.0549249726	-0.0501431653	-0.9612521234	 0.081507
C	 1.6362085761	-0.4931461157	-1.9189960687	 0.091456
C	 2.3501213549	-1.0205996668	-3.0581813406	-0.058209
C	 3.6409541001	-1.8367221384	-2.7974147611	-0.420608
C	 2.8516655043	-2.9825539333	-3.4274393694	 0.451031
O	 3.0258559235	-4.1239135005	-3.705144788	-0.311105
O	 1.7197145345	-2.2348035564	-3.6310234095	-0.237052
H	-0.3707600474	 2.3327000831	-0.7739689048	 0.130348
H	-1.5201333522	 0.9911714128	-0.8697959411	 0.13539
H	-1.2980547468	 1.8582693986	 0.6617649401	 0.119987
H	 1.0391835698	 0.9971649285	 0.8490420212	 0.135908
H	-0.1008466401	-0.3296046761	 0.7578009131	 0.140087
H	 2.4492839866	-0.2762382513	-3.8526943388	 0.12459
H	 4.5250754426	-1.5299696339	-3.3576139164	 0.147712
H	 3.8932751986	-1.9873878629	-1.747749418	 0.153951
7.9528	62.9246	93.748	144.7061	199.6801	228.3646	338.6734	443.9193	456.6357	504.0136	523.2594	565.2794	699.6703	773.9425	783.0844	875.559	885.556	956.7329	997.3272	1023.4419	1080.9406	1103.0232	1111.527	1133.7187	1192.069	1221.7753	1279.3151	1285.5061	1348.617	1371.5274	1410.4847	1453.5177	1470.3277	1494.9957	1504.9318	1943.8167	2365.3335	3024.5386	3047.7807	3053.1888	3075.6098	3098.5331	3122.1078	3127.6871	3161.1287
CCC#CC1CC(=O)O1	CCC#C[C@H]1CC(=O)O1	
InChI=1S/C7H8O2/c1-2-3-4-6-5-7(8)9-6/h6H,2,5H2,1H3	InChI=1S/C7H8O2/c1-2-3-4-6-5-7(8)9-6/h6H,2,5H2,1H3/t6-/m0/s1
