21
gdb 102801	2.35141	0.9792	0.83323	4.6008	75.47	-0.253	-0.0243	0.2287	1453.2129	0.179327	-461.36567	-461.354876	-461.353932	-461.402301	38.486	
C	 0.66270126	 0.1456410753	-0.8087799095	-0.403363
C	-0.3719717217	 0.2495717737	 0.3181876943	 0.138526
O	-0.5400118259	 1.5952526097	 0.7335585952	-0.446347
C	-1.744779779	-0.4018787421	-0.0036027175	-0.033476
C	-2.3445581174	 0.0651074108	-1.331822012	-0.099574
O	-2.3984411468	 1.4919128937	-1.3381242256	-0.425356
C	-1.6916553973	-1.9414328549	 0.0231021342	-0.296684
C	-1.403288096	-2.4914568675	 1.4037989965	 0.162201
O	-0.5843048345	-3.3372507841	 1.6522078661	-0.241211
H	 1.6058608487	 0.5803140246	-0.4686792893	 0.128868
H	 0.8531115066	-0.8919362846	-1.103412771	 0.113676
H	 0.3385512655	 0.7044963007	-1.6925799869	 0.111805
H	 0.0346036974	-0.267449126	 1.1975746538	 0.091399
H	-1.0623170453	 2.0259856418	 0.043889303	 0.287216
H	-2.4197108897	-0.065924609	 0.7952623508	 0.096583
H	-1.7356746207	-0.3031858042	-2.1701256143	 0.100941
H	-3.3542604859	-0.3571782478	-1.4468058489	 0.096108
H	-2.6420684841	 1.7918807818	-2.2184114127	 0.295967
H	-2.6761292136	-2.3379395623	-0.2692995703	 0.119446
H	-0.9542000808	-2.3481162299	-0.675022497	 0.124791
H	-2.0374966696	-2.0519514798	 2.2097241108	 0.078485
50.9601	60.3154	83.0601	140.9841	204.8724	236.2996	245.7404	259.4922	285.7406	349.9062	385.7146	422.2623	446.4689	522.6221	548.5943	603.9147	743.2851	814.5302	911.1644	974.0156	975.8961	1019.312	1032.714	1051.4094	1094.1358	1115.0713	1137.1395	1153.2658	1209.4926	1237.136	1258.6471	1298.5853	1314.9496	1352.7594	1360.9982	1385.4979	1406.6954	1427.4875	1454.2865	1460.5489	1462.8119	1492.8909	1500.5152	1525.2896	1836.339	2854.9541	2983.9811	3003.8338	3011.3521	3018.9318	3031.9896	3037.067	3096.8759	3106.1163	3121.6384	3758.2564	3836.4434
CC(O)C(CO)CC=O	C[C@@H](O)[C@@H](CO)CC=O	
InChI=1S/C6H12O3/c1-5(9)6(4-8)2-3-7/h3,5-6,8-9H,2,4H2,1H3	InChI=1S/C6H12O3/c1-5(9)6(4-8)2-3-7/h3,5-6,8-9H,2,4H2,1H3/t5-,6-/m1/s1
