17
gdb 67845	2.32152	2.11582	1.55922	1.9312	71.75	-0.2456	0.01	0.2556	907.6323	0.13631	-421.788168	-421.781054	-421.78011	-421.819271	29.045	
O	 0.147736556	 1.3995164549	 0.14997381	-0.491138
C	 0.0822793477	-0.0025406293	 0.0355817275	 0.369978
C	 0.8076687718	-0.6072308287	-1.1290153132	-0.167021
C	 0.0417096296	-1.4763367059	-1.7919413128	-0.044905
C	-1.3462239049	-1.6475614599	-1.2056619736	-0.289113
C	-1.350030532	-0.6743212962	-0.0125410583	-0.123613
C	-1.0729910388	-1.2290127001	 1.3992582465	 0.010557
O	 0.1097420576	-2.0343681492	 1.3249591716	-0.2374
C	 0.265627819	-0.6214838624	 1.4494550202	-0.01204
H	-0.0644561888	 1.773069719	-0.7125298852	 0.277062
H	 1.8357934152	-0.3588935825	-1.3687490373	 0.09729
H	 0.363095043	-2.0431698458	-2.6604363283	 0.098072
H	-2.1280015819	-1.4281505334	-1.9432112558	 0.102322
H	-1.5019883957	-2.6843242003	-0.8835422634	 0.12211
H	-2.151659453	 0.0665642952	-0.0206125792	 0.080388
H	-1.7752585432	-1.4562518352	 2.1934779488	 0.102142
H	 0.8574243786	-0.2374978003	 2.2725714127	 0.105308
161.011	200.0806	281.0106	308.2543	341.5494	417.9459	482.2914	563.6681	632.6041	673.1177	729.9486	774.9093	814.0321	852.6492	864.8174	873.6219	931.5587	964.2454	977.7236	1008.7102	1028.	1034.6334	1055.484	1090.4019	1125.5704	1160.5057	1180.5735	1201.88	1234.5602	1248.8919	1302.3845	1318.1219	1363.0464	1373.0357	1390.617	1472.9625	1669.9772	3025.8381	3056.677	3100.3541	3174.6429	3175.1011	3191.8345	3202.2129	3802.0471
OC12C=CCC1C1OC21	O[C@]12C=CC[C@H]1[C@H]1O[C@@H]21	
InChI=1S/C7H8O2/c8-7-3-1-2-4(7)5-6(7)9-5/h1,3-6,8H,2H2	InChI=1S/C7H8O2/c8-7-3-1-2-4(7)5-6(7)9-5/h1,3-6,8H,2H2/t4-,5+,6+,7+/m0/s1
