20
gdb 75159	2.98357	1.25455	0.99709	1.6761	82.73	-0.2272	0.0041	0.2313	1264.4718	0.170598	-403.164495	-403.155327	-403.154383	-403.198418	34.113	
C	-0.9284907333	 1.1651322946	 0.4057491203	-0.482824
C	-0.0112391801	 0.0631897803	-0.0394189607	 0.330001
C	-0.1286272866	-0.5595168558	-1.2135166694	-0.176903
C	 0.8095769328	-1.6684960432	-1.5901795806	-0.131824
O	 0.6761215265	-2.8399491214	-0.7635044605	-0.257113
C	 0.9246739686	-2.7534796113	 0.5751710658	 0.39255
C	 0.930446624	-4.1448241866	 1.1522910117	-0.433165
N	 1.1283182495	-1.7530058819	 1.3247473302	-0.303514
C	 1.0940126308	-0.3512629771	 0.9221263973	-0.266864
H	-0.3610516437	 2.0737068336	 0.6458048406	 0.128325
H	-1.6663239567	 1.4149913104	-0.3612354948	 0.121773
H	-1.4626156397	 0.8832027612	 1.3218354191	 0.135522
H	-0.9211926759	-0.2969809345	-1.9087704696	 0.087558
H	 0.613873741	-2.0329570903	-2.600396805	 0.11583
H	 1.8560992622	-1.3361211196	-1.5537516301	 0.113648
H	-0.0262101	-4.6380117058	 0.951339186	 0.134265
H	 1.7095496584	-4.749753842	 0.6772534061	 0.131488
H	 1.1020685743	-4.0957663926	 2.2263620442	 0.13848
H	 2.0713390334	-0.0636113759	 0.5024611391	 0.116197
H	 0.9970129844	 0.2309246578	 1.8448741403	 0.10657
64.6287	129.8532	150.0565	203.6761	229.8791	269.4452	306.3548	338.3522	385.9741	427.5216	486.2503	613.8291	663.8127	688.1033	760.4837	834.1941	855.8505	913.2766	966.9844	974.9026	1041.5349	1057.3182	1060.54	1071.7043	1099.0625	1130.0769	1202.4953	1222.331	1257.7081	1295.3131	1347.386	1385.6929	1400.2326	1407.3771	1412.8811	1474.7302	1476.6963	1477.6744	1483.4278	1488.9462	1507.261	1737.4858	1761.5032	2975.3879	3009.5438	3016.8547	3046.2142	3050.8553	3065.173	3102.8262	3108.6146	3113.1799	3163.8877	3168.5465
CC1=CCOC(C)=NC1	CC1=CCOC(=NC1)C	
InChI=1S/C7H11NO/c1-6-3-4-9-7(2)8-5-6/h3H,4-5H2,1-2H3	InChI=1S/C7H11NO/c1-6-3-4-9-7(2)8-5-6/h3H,4-5H2,1-2H3
