20
gdb 100475	4.94637	0.58306	0.54679	1.3677	87.76	-0.2381	0.0223	0.2604	2056.7498	0.16951	-403.090644	-403.080251	-403.079306	-403.127769	36.603	
C	 0.0867478839	 1.5584280271	 0.1380897992	-0.386297
C	 0.0342648639	 0.0334929583	 0.0354814826	-0.170938
C	 0.719242344	-0.4932074065	-1.2420844165	-0.053503
O	 2.082810375	-0.0764678404	-1.3258373575	-0.415558
C	 0.590490661	-1.948713652	-1.3527403114	 0.028644
C	 0.5088638898	-3.1516936819	-1.4058431909	 0.121797
C	 0.43444693	-4.5828579245	-1.4819643647	-0.16338
C	-0.2238154064	-5.2297793536	-2.6584648447	-0.224749
N	 1.2294585923	-5.3147943046	-2.5011845189	-0.305465
H	 1.1199079924	 1.9116149859	 0.0929806411	 0.132429
H	-0.4627686	 2.0279959338	-0.6854247655	 0.114721
H	-0.35794971	 1.9034728806	 1.0759974622	 0.110904
H	 0.524825798	-0.4275275988	 0.9024001531	 0.096881
H	-1.0029084826	-0.3210086894	 0.0420850891	 0.107547
H	 0.239357445	-0.0229132525	-2.1104537997	 0.113061
H	 2.5826097721	-0.6094874979	-0.6971686287	 0.282722
H	 0.3901303208	-5.1018340997	-0.5278751752	 0.116871
H	-0.75752261	-6.1648286138	-2.5140074947	 0.126455
H	-0.6361070324	-4.5744292958	-3.4196850575	 0.125417
H	 1.6791722333	-4.6356208241	-3.1109194914	 0.242442
22.4687	72.1342	79.1611	133.778	167.3632	209.6893	231.4815	282.3672	306.8843	403.8071	484.3456	513.4494	515.5154	583.3374	740.4186	784.2194	813.0102	856.0843	902.7719	961.9655	976.4134	994.7836	1058.2371	1072.3405	1111.3165	1112.8779	1127.4633	1157.4254	1216.9248	1252.1737	1256.8977	1290.295	1300.3007	1326.6976	1372.2858	1394.6766	1406.4149	1420.8391	1480.4618	1494.3677	1504.7747	1509.0213	2348.0833	3020.3962	3031.6477	3038.3933	3069.5555	3104.1776	3115.3912	3126.9345	3138.1943	3206.4632	3503.2628	3802.5131
CCC(O)C#CC1CN1	CC[C@@H](O)C#C[C@H]1CN1	
InChI=1S/C7H11NO/c1-2-7(9)4-3-6-5-8-6/h6-9H,2,5H2,1H3	InChI=1S/C7H11NO/c1-2-7(9)4-3-6-5-8-6/h6-9H,2,5H2,1H3/t6-,7+/m0/s1
