19
gdb 90002	4.02064	1.07885	1.00695	1.7166	77.43	-0.2435	0.0013	0.2448	1232.1426	0.15986	-423.015964	-423.007765	-423.006821	-423.049319	31.456	
O	 0.1936651163	 1.4994564653	 0.0104488045	-0.432572
C	 0.167345675	 0.07918224	 0.0098830889	 0.102841
C	-1.2460780089	-0.5449168838	 0.1399143116	-0.329075
C	-1.2714108448	-1.7649051504	-0.8024768558	 0.432044
C	-1.4188299966	-3.1916942718	-0.1950390028	-0.344651
C	-2.7462984074	-3.2438505558	-0.969600928	-0.07089
O	-2.5352535878	-1.9235678753	-1.5086234464	-0.322901
C	-0.0936781548	-1.5244915153	-1.7062076704	-0.127171
C	 0.6931324369	-0.5459820899	-1.2626106769	-0.131051
H	-0.2996956921	 1.7959087157	-0.7628810852	 0.276339
H	 0.7984146563	-0.1967117276	 0.8636119851	 0.097136
H	-1.520215051	-0.7862902554	 1.1695646419	 0.100478
H	-1.9825685097	 0.1728817199	-0.2367556293	 0.115898
H	-0.6601643107	-3.906485389	-0.518491541	 0.111352
H	-1.4983692362	-3.2217778114	 0.8930929287	 0.111743
H	-2.8078724578	-4.0036507697	-1.7580117237	 0.101786
H	-3.6561494396	-3.2957105586	-0.3592117872	 0.102164
H	 0.071074723	-2.1336789427	-2.5886662425	 0.102046
H	 1.6196062299	-0.2099048241	-1.7158957315	 0.104484
57.7048	75.6617	182.2227	301.6636	304.8504	357.4312	409.5575	422.4693	469.1237	580.2456	678.5676	781.8251	799.9302	807.5378	859.9251	868.8544	903.2281	962.5411	973.4096	984.2953	1009.5818	1028.4497	1058.2636	1090.0259	1102.3186	1155.2323	1163.5391	1205.4483	1206.1673	1239.2441	1258.2891	1272.3421	1292.1885	1314.0194	1351.1527	1377.555	1431.0394	1476.0009	1491.7528	1533.3898	1676.9534	3016.609	3034.7903	3054.2179	3054.3236	3076.5739	3107.5437	3131.8557	3180.397	3205.6048	3794.5704
OC1CC2(CCO2)C=C1	O[C@H]1C[C@]2(CCO2)C=C1	
InChI=1S/C7H10O2/c8-6-1-2-7(5-6)3-4-9-7/h1-2,6,8H,3-5H2	InChI=1S/C7H10O2/c8-6-1-2-7(5-6)3-4-9-7/h1-2,6,8H,3-5H2/t6-,7-/m1/s1
