18
gdb 88803	3.18451	1.07494	0.88028	4.0216	73.8	-0.249	-0.029	0.22	1328.754	0.14595	-439.05193	-439.043003	-439.042059	-439.086645	32.21	
C	-0.0414504868	 1.497170225	-0.2812561971	-0.42344
C	-0.0856586384	 0.0301160084	 0.060939915	 0.079011
O	 1.1373532947	-0.7094129329	-0.0180941629	-0.254875
C	 0.5129583441	-0.5842899852	 1.2609961274	 0.069685
C	 1.2619127881	 0.1889505628	 2.3158116131	-0.128476
N	 0.4480135371	 0.5574561428	 3.507756136	-0.330278
C	 1.4635225399	 0.0564747214	 4.4702010225	-0.283887
C	 2.1873621928	-0.5949259998	 3.2804381773	 0.382999
O	 3.0607592458	-1.3950362227	 3.151767382	-0.27252
H	 0.8107176982	 2.0018395484	 0.1787712357	 0.123199
H	 0.0395243341	 1.6268908341	-1.3654094279	 0.134955
H	-0.9624008173	 1.9914339304	 0.0465975856	 0.125373
H	-0.9382103637	-0.5024906235	-0.3660211098	 0.093023
H	 0.0539104856	-1.5012352285	 1.633523387	 0.0953
H	 1.8210012204	 1.0155678996	 1.856233771	 0.100159
H	 0.2470135351	 1.5470260373	 3.5844736383	 0.228079
H	 2.0849254944	 0.8224186999	 4.9556713018	 0.124984
H	 1.075322526	-0.6200941976	 5.2390412552	 0.136708
37.9742	102.2407	116.1483	167.7392	196.9351	262.5173	377.7288	409.7778	450.9386	500.5849	577.7664	650.191	757.6218	778.5839	823.3688	883.058	969.8994	981.6284	991.3384	1012.3539	1015.6776	1075.9108	1092.2961	1106.6951	1134.1663	1169.4383	1192.3636	1208.3623	1263.3224	1298.2712	1304.3542	1366.8138	1400.0791	1419.1628	1465.5799	1477.0419	1488.4406	1508.0826	1920.7057	3008.1096	3017.0483	3040.2731	3071.8507	3082.5436	3101.4589	3103.2061	3131.6056	3553.2501
CC1OC1C1NCC1=O	C[C@H]1O[C@H]1[C@H]1NCC1=O	
InChI=1S/C6H9NO2/c1-3-6(9-3)5-4(8)2-7-5/h3,5-7H,2H2,1H3	InChI=1S/C6H9NO2/c1-3-6(9-3)5-4(8)2-7-5/h3,5-7H,2H2,1H3/t3-,5+,6-/m1/s1
