13
gdb 131902	4.44541	1.14961	0.91432	5.8751	71.25	-0.2201	-0.0838	0.1364	1166.1292	0.090639	-486.016956	-486.009494	-486.008549	-486.049145	27.629	
N	 0.0012409093	 1.3733212814	 0.1492619412	-0.596706
C	-0.0093096536	-0.0092523163	 0.0490916442	 0.3147
C	-1.1029343205	-0.8710441006	 0.0260823477	-0.161244
N	-0.563139875	-2.1302025721	-0.0075639029	-0.267175
C	 0.7781184278	-1.9753499446	 0.0013129322	 0.482641
N	 1.1554620369	-0.7159116377	 0.0317849236	-0.330222
N	 1.6251877454	-3.1311790382	-0.0286493681	 0.350545
O	 1.0401688459	-4.2207053479	-0.065383017	-0.406765
O	 2.8332691413	-2.9677675954	-0.0169852076	-0.340625
H	 0.8989504988	 1.7632482743	-0.1037208468	 0.263244
H	-0.7559251326	 1.8399229474	-0.3288092431	 0.252245
H	-2.1654932092	-0.6981479555	 0.0374229577	 0.144366
H	-1.0251640744	-3.0254379849	-0.0340424012	 0.294995
93.3628	167.3414	200.0174	252.2632	337.0934	392.472	437.9236	562.21	601.2391	634.3862	659.5119	685.3331	722.0453	757.9733	774.4038	838.4137	1003.2549	1031.6029	1095.789	1102.139	1245.5027	1312.9827	1392.0146	1408.3234	1502.9686	1534.0342	1599.731	1627.4493	1649.8753	3281.6707	3561.6755	3658.8713	3661.869
NC1=CNC(=N1)N(=O)=O	Nc1c[nH]c(n1)N(=O)=O	
InChI=1S/C3H4N4O2/c4-2-1-5-3(6-2)7(8)9/h1H,4H2,(H,5,6)	InChI=1S/C3H4N4O2/c4-2-1-5-3(6-2)7(8)9/h1H,4H2,(H,5,6)
