19
gdb 70458	2.78412	1.24783	1.00723	1.5531	80.27	-0.2351	0.0472	0.2823	1226.7202	0.157003	-385.817706	-385.80869	-385.807745	-385.851548	34.205	
C	 0.3631418851	 1.2968455968	-0.705969524	-0.496516
C	 0.1434929436	-0.0964525675	-0.1950432553	 0.265057
C	-1.0888889148	-0.5408850137	 0.5764322539	-0.352538
C	 0.2688574746	-0.7241207743	 1.1759183145	 0.063818
O	 0.881974373	-1.9151809533	 0.6672168309	-0.307739
C	 0.9098587971	-1.3377392034	-0.666248569	 0.090779
C	 0.3282228237	-2.2734967174	-1.7284131076	-0.374326
C	 0.4047253616	-1.6896217671	-3.0613586685	 0.302158
C	 0.4830058326	-1.1768971705	-4.145819339	-0.456805
H	 1.4312929964	 1.5224549288	-0.8004633233	 0.120743
H	-0.0939179616	 1.4304354814	-1.6927455662	 0.133973
H	-0.0776057274	 2.0382011776	-0.0318403726	 0.118196
H	-1.6711114017	 0.2837260651	 0.9776314328	 0.113594
H	-1.6720645485	-1.4124159169	 0.292032605	 0.113716
H	 0.6077435516	-0.3490238281	 2.134774112	 0.103856
H	 1.9432863683	-1.0792378984	-0.9316360144	 0.090415
H	 0.8842101141	-3.2190974623	-1.6956475709	 0.141264
H	-0.7106339641	-2.5150864719	-1.4778767761	 0.132896
H	 0.5466573463	-0.7399457148	-5.1113779821	 0.197458
60.5697	99.5231	182.3541	199.6113	238.8007	304.908	351.4049	355.0002	454.5182	468.6444	533.7954	625.2288	643.7245	647.2817	733.5452	810.5418	874.6226	891.755	959.8421	965.5599	985.8914	1007.6539	1026.3463	1031.5765	1067.5451	1094.6089	1104.9261	1133.7742	1199.3031	1246.057	1272.1624	1285.2389	1316.3595	1381.3647	1411.6092	1426.7158	1467.8196	1486.1286	1489.638	1499.8528	2238.2383	3020.5984	3027.3018	3031.6685	3072.3839	3089.0195	3099.4836	3113.5493	3179.4318	3202.3138	3506.5518
CC12CC1OC2CC#C	C[C@]12C[C@H]1O[C@H]2CC#C	
InChI=1S/C8H10O/c1-3-4-6-8(2)5-7(8)9-6/h1,6-7H,4-5H2,2H3	InChI=1S/C8H10O/c1-3-4-6-8(2)5-7(8)9-6/h1,6-7H,4-5H2,2H3/t6-,7+,8+/m0/s1
