20
gdb 12004	3.10255	1.98155	1.72732	1.778	73.3	-0.2542	0.0838	0.338	883.2429	0.177401	-349.011613	-349.003832	-349.002888	-349.042983	30.929	
C	 0.0388218143	 1.5301377611	 0.0230584556	-0.435965
C	-0.0097705363	-0.0024675879	-0.004213661	 0.277092
C	-1.4656381707	-0.4992690274	-0.0103740345	-0.428786
C	 0.7918114145	-0.5886669175	-1.2076778258	-0.250116
C	 1.3742307088	-1.9427244656	-0.7339697331	-0.249314
C	 1.5208138784	-1.7618841591	 0.763047344	 0.050201
O	 2.1386839833	-0.5168394394	 1.1295476506	-0.275104
C	 0.7097781109	-0.6182119093	 1.1922290325	 0.039848
H	 1.0710068639	 1.8790863624	 0.1220113173	 0.129123
H	-0.3783182243	 1.9528569962	-0.8976283218	 0.109902
H	-0.5387648258	 1.9320808643	 0.8632726486	 0.106949
H	-2.0100071873	-0.0855964705	-0.8657366628	 0.115321
H	-1.5202544947	-1.5913271066	-0.0735746198	 0.112898
H	-1.9935406671	-0.1920037874	 0.8995586735	 0.112051
H	 0.1668556617	-0.691189006	-2.0992233196	 0.092584
H	 1.6106261149	 0.0893810991	-1.4582224291	 0.111402
H	 0.6842328586	-2.773585581	-0.9254763812	 0.102125
H	 2.3203796566	-2.1869897545	-1.2270464164	 0.107518
H	 1.7515814353	-2.60206791	 1.4135998298	 0.089129
H	 0.280707425	-0.5351077206	 2.1895448834	 0.083141
141.7774	210.5524	234.5032	260.1228	320.9408	328.167	364.6051	391.0495	507.6252	576.4542	677.8409	760.6932	828.5573	837.7036	872.0786	909.5441	941.2483	949.9665	959.2257	1002.0973	1006.9377	1035.0651	1040.6744	1110.7383	1158.4074	1200.1668	1224.2263	1242.1203	1261.2424	1269.7644	1321.1821	1331.0319	1363.1148	1400.9668	1420.5928	1438.335	1477.7182	1486.6283	1491.4026	1495.7304	1504.6511	1510.9561	3023.9793	3028.5928	3036.6044	3063.656	3080.176	3088.0334	3093.3781	3099.329	3107.9668	3111.897	3123.7002	3146.3488
CC1(C)CCC2OC12	CC1(C)CC[C@H]2O[C@@H]12	
InChI=1S/C7H12O/c1-7(2)4-3-5-6(7)8-5/h5-6H,3-4H2,1-2H3	InChI=1S/C7H12O/c1-7(2)4-3-5-6(7)8-5/h5-6H,3-4H2,1-2H3/t5-,6-/m1/s1
