21
gdb 59777	3.18715	1.08512	0.99505	1.7052	80.6	-0.243	0.0087	0.2517	1296.9554	0.182769	-424.22847	-424.219375	-424.218431	-424.26219	34.738	
C	 0.1056687156	 1.5481805376	-0.1206270425	-0.409112
C	 0.0028485656	 0.0322147888	 0.0645820024	 0.123962
O	 0.7304223133	-0.4006111201	 1.2111622431	-0.435175
C	-1.453774887	-0.4915842457	 0.0858003623	-0.055958
C	-1.4644726996	-2.0260162001	 0.0005226571	-0.104537
O	-2.7479668022	-2.565882953	 0.2685204178	-0.250532
C	-3.1640266414	-2.3303117013	 1.596679633	-0.115012
C	-2.9440623753	-0.9088471311	 2.0352175974	-0.088981
C	-2.1972946126	-0.0616396619	 1.3291965358	-0.081696
H	 1.1574249344	 1.8455993286	-0.1373812784	 0.126006
H	-0.3610712588	 1.8638237371	-1.0596477432	 0.114868
H	-0.381183863	 2.0910355305	 0.6969429356	 0.113095
H	 0.515218111	-0.4492457452	-0.7785360826	 0.087356
H	 0.227235565	-0.135088866	 1.9900690191	 0.27836
H	-1.961533296	-0.0803870593	-0.7988861147	 0.085454
H	-1.1985862966	-2.3611769241	-1.0063188517	 0.10516
H	-0.7188182352	-2.4256074189	 0.7040873449	 0.104703
H	-4.2321431599	-2.5762871236	 1.6321714378	 0.117332
H	-2.6565852786	-3.021893899	 2.2957509542	 0.098583
H	-3.4441705599	-0.5945998707	 2.9479817367	 0.09478
H	-2.1086999586	 0.9749789676	 1.6464783659	 0.091343
84.8942	92.9891	205.5177	226.5166	243.0373	298.9162	308.2218	323.3621	396.3908	465.6961	495.2717	531.8092	613.312	705.4771	768.2747	866.9447	897.6084	912.5518	960.344	976.7914	998.28	1009.7973	1031.0856	1071.5376	1080.1575	1119.4957	1141.5251	1162.1498	1219.9034	1245.3577	1253.2872	1297.6467	1321.3137	1343.843	1363.607	1384.7628	1402.7421	1412.5628	1422.1777	1432.9133	1484.3095	1489.3071	1499.7918	1504.6256	1718.1841	2928.3974	2994.3711	3004.5865	3025.8758	3035.5886	3049.3697	3085.3754	3102.1162	3119.2046	3143.0776	3168.4695	3785.512
CC(O)C1COCC=C1	C[C@@H](O)[C@H]1COCC=C1	
InChI=1S/C7H12O2/c1-6(8)7-3-2-4-9-5-7/h2-3,6-8H,4-5H2,1H3	InChI=1S/C7H12O2/c1-6(8)7-3-2-4-9-5-7/h2-3,6-8H,4-5H2,1H3/t6-,7-/m1/s1
