18
gdb 19592	4.06345	1.95669	1.80896	1.6729	70.08	-0.2455	0.0757	0.3212	803.4624	0.156237	-347.753069	-347.746689	-347.745745	-347.783056	26.952	
O	 0.1440585748	 1.45542126	-0.104172019	-0.465589
C	 0.0800104557	 0.0491489855	-0.0539564584	 0.190236
C	 0.1980603178	-0.6151938804	 1.35265962	-0.079679
C	-1.3246268739	-0.256976991	 1.5194788457	-0.250193
C	-1.340844667	-0.5940157413	-0.0170322555	-0.079682
C	-1.0590731757	-2.1069888241	 0.0460349306	-0.029571
C	 0.2931839775	-2.6623080513	-0.3353899949	-0.314701
C	 0.0795515655	-2.1226581132	 1.0594592874	-0.029571
H	-0.442722009	 1.8278770711	 0.5608109197	 0.279128
H	 0.7687679138	-0.2728170371	-0.8327806065	 0.07579
H	 0.957670395	-0.289750759	 2.0642049218	 0.063327
H	-1.9185577224	-0.8971039919	 2.176886558	 0.095469
H	-1.5305906116	 0.7895459162	 1.7670708595	 0.078805
H	-2.1305140911	-0.2472532458	-0.6844120879	 0.063326
H	-1.9049065773	-2.7817136109	 0.1180499633	 0.087373
H	 0.3350555588	-3.745697744	-0.3991853012	 0.107805
H	 0.9404307574	-2.1773242545	-1.0551010081	 0.120355
H	 0.0956535597	-2.8092452583	 1.8986330738	 0.087373
199.9899	281.3907	330.5739	343.2509	411.2108	531.1388	550.0082	627.4863	770.8251	799.9743	812.1764	832.2567	870.3276	896.9887	901.3271	923.6453	984.6716	1000.1214	1026.7756	1050.8672	1064.4744	1066.4176	1083.2821	1103.9141	1115.3412	1134.567	1193.6249	1208.6752	1238.1383	1240.0582	1251.544	1255.522	1305.2132	1320.6718	1367.1933	1457.0692	1510.3079	1516.9642	3044.8617	3101.2394	3109.3408	3110.5621	3123.8521	3139.0603	3162.0576	3171.4497	3214.196	3825.3303
OC1C2CC1C1CC21	O[C@H]1[C@H]2C[C@@H]1[C@H]1C[C@@H]21	
InChI=1S/C7H10O/c8-7-5-2-6(7)4-1-3(4)5/h3-8H,1-2H2	InChI=1S/C7H10O/c8-7-5-2-6(7)4-1-3(4)5/h3-8H,1-2H2/t3-,4+,5+,6-,7+
