20
gdb 83563	2.97103	1.293	1.16043	4.2438	80.95	-0.2343	0.0272	0.2615	1154.3928	0.172538	-403.1551	-403.146996	-403.146052	-403.187848	31.418	
C	-0.2571556047	 1.4521683988	-0.0701239471	-0.438848
C	 0.0977603663	-0.0236366236	 0.006276984	 0.049218
C	 1.3333622553	-0.6385354691	-0.7351277629	-0.034316
C	 2.5242711766	 0.1889362145	-0.2039169405	-0.21694
C	 2.150152853	 0.179804585	 1.3192821231	-0.212329
C	 0.8516891886	-0.6515097699	 1.2253134404	-0.04895
N	 1.2971094836	-1.7228909842	 0.2872129789	-0.039
C	 0.7865133662	-2.9714143605	 0.1240631559	 0.121732
O	 0.7318719599	-3.5756007706	-0.9277238034	-0.334756
H	 0.5915940209	 2.1091859516	 0.1343991697	 0.122625
H	-0.6365660049	 1.7014433976	-1.0668493261	 0.127206
H	-1.0458218613	 1.6947163819	 0.6503945414	 0.123499
H	-0.7784952416	-0.6390725859	-0.2166399524	 0.093651
H	 1.3080876597	-0.9429036784	-1.7787085638	 0.104073
H	 3.473679337	-0.3108115352	-0.4029205504	 0.116168
H	 2.5649834815	 1.1915705789	-0.6353562419	 0.104462
H	 2.9009659676	-0.3239438707	 1.9307278517	 0.111915
H	 1.9806457086	 1.1766854126	 1.7328482461	 0.104088
H	 0.348478016	-0.9541582169	 2.1438627846	 0.081521
H	 0.4766554817	-3.4140684759	 1.0937727128	 0.064981
71.8774	173.0159	182.5643	256.9262	276.546	290.582	357.663	442.7324	578.1599	620.1043	706.7014	734.0277	760.9422	817.8053	846.531	904.1365	908.8652	950.9145	988.6066	1016.979	1030.7685	1045.4979	1061.3529	1086.6584	1132.0062	1139.7867	1171.0868	1199.0466	1222.1507	1249.5614	1268.9719	1271.4664	1313.8482	1330.271	1386.5524	1403.2442	1417.1085	1433.0904	1478.2163	1493.9829	1503.3898	1507.684	1782.1793	2913.5189	3037.6864	3071.4317	3071.5196	3079.1939	3097.2228	3115.3987	3120.1129	3122.88	3132.1543	3160.8271
CC1C2CCC1N2C=O	C[C@H]1[C@H]2CC[C@@H]1N2C=O	
InChI=1S/C7H11NO/c1-5-6-2-3-7(5)8(6)4-9/h4-7H,2-3H2,1H3	InChI=1S/C7H11NO/c1-5-6-2-3-7(5)8(6)4-9/h4-7H,2-3H2,1H3/t5-,6+,7-
