19
gdb 103342	2.87426	1.38068	1.10693	3.0273	71.41	-0.2439	0.0434	0.2873	1144.1721	0.157589	-460.089899	-460.081264	-460.08032	-460.122847	33.924	
C	 0.0999222147	 1.5629978453	 0.1663558732	-0.407716
C	-0.1033095128	 0.0640992718	-0.093170163	-0.248668
C	 0.6586950531	-0.4531920362	-1.3056132989	 0.421085
O	 0.2116940677	 0.1607040018	-2.5082019915	-0.498018
C	 2.1963433706	-0.7463045685	-1.1512104201	-0.090214
O	 1.8257679529	-1.8888989624	-0.2945116165	-0.299971
C	 0.89267783	-1.9859003329	-1.4343684329	-0.069695
C	 2.136749279	-1.7442463544	-2.3608249012	 0.16391
O	 2.0660168475	-1.3649843403	-3.6873993317	-0.435371
H	 1.1572214069	 1.8044093805	 0.3189734349	 0.125316
H	-0.2739895468	 2.1869736986	-0.655554169	 0.105575
H	-0.4435929737	 1.8748896114	 1.0624276435	 0.128986
H	 0.2210609137	-0.5099011349	 0.7767032784	 0.132469
H	-1.169610806	-0.1411590956	-0.2477256902	 0.105023
H	 0.2201811091	 1.1156845077	-2.3843683317	 0.290427
H	 3.0044313298	-0.100419986	-0.8030656104	 0.08722
H	 0.1607253114	-2.7948908545	-1.4198318847	 0.092154
H	 2.8733911867	-2.5422297615	-2.2572846376	 0.104606
H	 1.3828280863	-0.6813299597	-3.7435979108	 0.292883
85.8662	139.4269	217.0991	251.0793	289.2201	328.5638	345.6146	401.2527	425.7239	459.087	580.6826	617.4008	655.0878	660.2305	772.6059	795.222	855.9017	865.7757	888.0199	917.1289	971.4388	1001.1581	1061.3857	1088.8424	1123.6965	1132.0526	1142.6625	1181.8286	1193.0778	1213.5308	1249.8064	1264.9868	1297.4702	1324.2243	1353.6513	1400.2648	1414.0313	1469.7844	1480.4315	1499.5575	1510.7095	3022.3636	3039.2137	3081.3324	3103.2363	3109.6879	3112.5031	3120.4259	3122.7208	3723.2548	3813.2435
CCC1(O)C2OC1C2O	CC[C@@]1(O)[C@H]2O[C@@H]1[C@H]2O	
InChI=1S/C6H10O3/c1-2-6(8)4-3(7)5(6)9-4/h3-5,7-8H,2H2,1H3	InChI=1S/C6H10O3/c1-2-6(8)4-3(7)5(6)9-4/h3-5,7-8H,2H2,1H3/t3-,4-,5+,6+
