18
gdb 30439	2.62195	1.46714	0.95184	3.1238	87.91	-0.2008	-0.038	0.1628	1232.9692	0.147214	-401.991072	-401.982298	-401.981354	-402.024688	32.224	
C	-0.0803651568	 1.4491561119	 0.1523240893	-0.316217
N	-0.0529207604	 0.0026783596	 0.0411119067	-0.320376
C	 0.5438269542	-0.6685686044	 0.9369159354	 0.399002
O	 1.1627925316	-0.0114979322	 2.011832165	-0.286822
C	 1.815100476	-0.6803130478	 2.9979181905	 0.395927
C	 2.3819780641	 0.2507336324	 4.0174064559	-0.472072
C	 1.9042691207	-2.0252654649	 2.9977703406	-0.252811
C	 1.2921694444	-2.7628781214	 1.9253685361	-0.063317
C	 0.6408198082	-2.1120752066	 0.9388048815	-0.186929
H	 0.9289089424	 1.8849390039	 0.1541584733	 0.113601
H	-0.6303882937	 1.8626085484	-0.6965744978	 0.115264
H	-0.5704647155	 1.785441406	 1.0771254293	 0.113615
H	 3.084779721	 0.9500001091	 3.5509000678	 0.145716
H	 1.5871836177	 0.8507665472	 4.474338412	 0.145712
H	 2.9016669262	-0.3036505156	 4.8006074249	 0.134653
H	 2.4307296689	-2.5281151514	 3.7976601319	 0.104124
H	 1.3600825388	-3.8456333316	 1.9189479161	 0.110164
H	 0.163665752	-2.6184000326	 0.1102026315	 0.120766
86.2513	120.5491	163.1474	180.3879	184.2759	245.2492	338.368	443.7295	462.7753	528.0067	592.741	594.6744	713.7365	724.3847	801.9092	855.1543	858.0538	981.0231	999.969	1023.0665	1044.9792	1064.8564	1071.544	1107.4879	1127.8566	1176.4538	1214.963	1240.2967	1370.2553	1414.0465	1431.4553	1440.243	1468.0604	1484.3418	1487.1633	1497.6269	1617.2679	1692.2573	1744.3105	2989.9337	3035.4236	3035.6556	3089.4174	3101.3797	3140.0348	3185.2178	3221.8011	3227.7018
CN=C1OC(C)=CC=C1	C[N]C1=CCC=C(O1)C	
InChI=1S/C7H9NO/c1-6-4-3-5-7(8-2)9-6/h3-5H,1-2H3	InChI=1S/C7H10NO/c1-6-4-3-5-7(8-2)9-6/h4-5H,3H2,1-2H3
