14
gdb 23987	5.13991	0.95993	0.80886	1.1455	96.32	-0.2014	-0.026	0.1754	1328.3231	0.100442	-362.394305	-362.386215	-362.385271	-362.426774	30.995	
C	 0.165180879	-1.1607288959	-0.0050085428	-0.420326
C	 0.0375674698	 0.0379817947	 0.0028449901	 0.212273
C	-0.0990145613	 1.4388957256	 0.0118418769	 0.185442
C	-1.2340178395	 2.2441330623	 0.0319891587	-0.231516
C	-0.8096132751	 3.5850744694	 0.0327349039	-0.231439
C	 0.5820156876	 3.5906411108	 0.0130357216	 0.185368
N	 0.9912799836	 2.277467659	 0.0006125843	-0.373407
C	 1.4997220807	 4.6578992359	 0.0054066102	 0.212534
C	 2.294344459	 5.5644078575	-0.0012889783	-0.420476
H	 0.2678132026	-2.2173563036	-0.0117915879	 0.191778
H	-2.24867345	 1.8794248644	 0.0445328646	 0.111555
H	-1.4296575993	 4.4671557612	 0.0459700954	 0.11156
H	 1.950241286	 1.9739480391	-0.0145072157	 0.274861
H	 2.9867268468	 6.3691494596	-0.0070488608	 0.191792
113.7045	117.108	193.3943	197.5489	425.8977	463.4546	480.66	512.0741	524.2662	524.8175	532.5445	572.8303	645.3461	666.4282	678.2409	678.4522	690.83	801.0231	860.5576	995.876	1008.4116	1070.9433	1197.2897	1259.3407	1304.575	1399.627	1434.7071	1485.6375	1590.0118	2224.7808	2225.2739	3257.341	3272.0381	3503.2405	3504.0562	3676.5846
C#CC1=CC=C(N1)C#C	C#Cc1ccc([nH]1)C#C	
InChI=1S/C8H5N/c1-3-7-5-6-8(4-2)9-7/h1-2,5-6,9H	InChI=1S/C8H5N/c1-3-7-5-6-8(4-2)9-7/h1-2,5-6,9H
