20
gdb 89851	3.06896	1.35265	1.0725	2.0309	80.56	-0.2392	0.0272	0.2665	1182.7577	0.171793	-403.15722	-403.148993	-403.148049	-403.189864	32.374	
C	-0.0606272925	 1.5374601611	 0.0392788751	-0.388716
C	 0.0601010807	 0.0135223876	 0.0156508327	 0.061134
C	 0.7415144715	-0.5043838932	-1.2613314619	-0.300329
C	 1.0345730933	-1.9744547529	-1.0990580713	 0.460548
C	 0.0460932084	-3.0341088399	-1.5023534018	-0.316348
C	 1.3653159249	-2.8780871644	-2.2395728506	-0.340004
O	 1.7740623892	-2.2543526188	 0.0841252625	-0.264365
C	 1.520675576	-1.4425052218	 1.1432167739	 0.111129
N	 0.7712397378	-0.4286949403	 1.2192855086	-0.278081
H	 0.9300320056	 2.0022761421	-0.001684915	 0.116819
H	-0.646778145	 1.8976846368	-0.8127417374	 0.10417
H	-0.5460276596	 1.8622543908	 0.9630567601	 0.125199
H	-0.9535528519	-0.4102977554	 0.0642079009	 0.086879
H	 0.113441176	-0.3403412354	-2.1424599466	 0.102337
H	 1.6806703827	 0.041638162	-1.4197303143	 0.10795
H	-0.0566432099	-3.8896965501	-0.8454298059	 0.126235
H	-0.8678681883	-2.722127669	-1.9969872095	 0.116429
H	 1.3595307875	-2.4603134234	-3.2404319685	 0.118589
H	 2.1247310632	-3.6307319928	-2.061320886	 0.128613
H	 2.0934011905	-1.7822945531	 2.004342365	 0.121813
97.9909	116.7053	234.1386	249.5824	304.7365	344.693	383.717	434.1128	461.4972	505.0089	589.3422	719.155	767.4357	804.1237	848.5412	877.7868	921.1985	929.1461	946.2485	962.5452	968.8257	991.5203	1051.2306	1076.192	1080.7469	1136.6755	1140.1711	1183.7856	1188.8254	1199.5484	1275.1688	1302.8208	1345.5846	1363.9486	1389.5796	1403.8821	1414.8174	1452.667	1478.6973	1487.2447	1497.8792	1501.4565	1727.5576	2994.9527	3025.8044	3035.5075	3084.0511	3104.6111	3121.9366	3134.2374	3138.1123	3157.3063	3221.0339	3234.3106
CC1CC2(CC2)OC=N1	C[C@H]1CC2(CC2)OC=N1	
InChI=1S/C7H11NO/c1-6-4-7(2-3-7)9-5-8-6/h5-6H,2-4H2,1H3	InChI=1S/C7H11NO/c1-6-4-7(2-3-7)9-5-8-6/h5-6H,2-4H2,1H3/t6-/m0/s1
