17
gdb 13341	5.40359	1.17476	1.08386	3.7352	72.22	-0.2405	0.0115	0.2519	1105.4831	0.143786	-363.902526	-363.894877	-363.893932	-363.935518	27.801	
O	-0.1200458596	 0.127953963	-0.7967612782	-0.323668
C	-0.0573477307	 1.1782982144	-0.1930641462	 0.153655
N	 1.0701199623	 1.7114346319	 0.3490286894	-0.283864
C	 2.3808556216	 1.0799255523	 0.2731329452	 0.01635
C	 3.4194699394	 1.8927672296	-0.5516018902	-0.227746
C	 4.7642890876	 1.7417686952	 0.2016405015	-0.25395
C	 4.3374346451	 1.2938719196	 1.5798812857	-0.066051
C	 3.0571101679	 0.9325391793	 1.6191185207	-0.088334
H	-0.9399154997	 1.8257840941	-0.0171185728	 0.071684
H	 0.9963150977	 2.5964477533	 0.827495666	 0.242297
H	 2.1870408377	 0.1012934469	-0.1786091815	 0.128814
H	 3.4668053395	 1.5670963259	-1.5929379841	 0.113312
H	 3.1129536363	 2.9442740003	-0.5556591513	 0.098417
H	 5.404989731	 0.981484754	-0.2654965657	 0.114991
H	 5.3505906194	 2.6674727336	 0.2146025431	 0.105608
H	 5.0278413732	 1.2366827202	 2.4143919563	 0.098405
H	 2.5298224412	 0.5356170165	 2.4793290621	 0.100079
42.051	83.3414	190.0827	208.3868	303.0654	419.7826	486.4841	547.8394	594.4382	742.1774	754.5071	798.9004	848.081	913.7916	925.8276	972.2504	987.6714	1028.9487	1035.4054	1069.146	1082.7005	1134.1962	1170.8585	1212.733	1229.4688	1295.9103	1304.4046	1325.3565	1350.5789	1383.705	1431.0952	1484.0714	1500.3811	1524.3498	1687.6858	1803.6768	2929.4638	3017.9792	3045.4292	3060.4025	3065.0139	3110.5927	3183.8936	3209.6303	3618.7968
O=CNC1CCC=C1	O=CN[C@H]1CCC=C1	
InChI=1S/C6H9NO/c8-5-7-6-3-1-2-4-6/h1,3,5-6H,2,4H2,(H,7,8)	InChI=1S/C6H9NO/c8-5-7-6-3-1-2-4-6/h1,3,5-6H,2,4H2,(H,7,8)/t6-/m1/s1
