23
gdb 108262	2.28086	1.5991	1.15092	0.3665	91.82	-0.2191	0.0242	0.2434	1190.79	0.206963	-351.14795	-351.139239	-351.138294	-351.180899	34.693	
C	 0.0075518846	 1.6690518969	-0.141336249	-0.386341
C	 0.0015621808	 0.1504294418	 0.0691132936	-0.239443
C	-1.4047513527	-0.4731124432	 0.0758004647	 0.325843
C	-2.035272071	-0.5480659673	-1.3706860938	-0.287024
C	-1.5563599063	-2.0454687565	-1.4716907169	-0.327014
C	-1.444901193	-1.9838405277	 0.0333216824	 0.272671
C	-1.8637652065	-2.5457029099	 1.1613561733	-0.236868
C	-2.0737119175	-1.4586846418	 2.2137777572	-0.242412
C	-2.2153754099	-0.1569466442	 1.3568516148	-0.300457
H	 1.0300383514	 2.0597680881	-0.1431297174	 0.111072
H	-0.4530496579	 1.9433389821	-1.096350775	 0.115475
H	-0.5432228921	 2.1876784849	 0.6500772253	 0.117227
H	 0.606016393	-0.3232761337	-0.71490368	 0.090567
H	 0.4973945801	-0.0899909528	 1.0182852699	 0.096022
H	-3.1253066229	-0.4769323112	-1.3488794691	 0.103409
H	-1.6416919735	 0.140671313	-2.1234296603	 0.094926
H	-2.2435446965	-2.7805788568	-1.8969245647	 0.107905
H	-0.5957575802	-2.1241004295	-1.9906742057	 0.111122
H	-2.1252094383	-3.5856216584	 1.3220312507	 0.087481
H	-2.96744736	-1.6468462104	 2.8189417637	 0.098785
H	-1.2356431205	-1.3910440927	 2.9219282161	 0.101909
H	-1.8743827872	 0.7355896369	 1.8906767171	 0.08916
H	-3.2719256538	-0.0060198677	 1.1096439431	 0.095986
110.0416	131.7389	184.6476	216.6855	247.5963	292.2875	341.7685	357.2006	487.3624	554.9922	643.22	670.1527	736.8339	770.8676	792.0914	821.77	860.0047	886.0209	900.3147	918.5349	941.2932	976.4669	1000.7738	1013.5536	1019.5577	1065.9398	1098.4241	1116.6107	1143.6893	1190.5477	1202.6829	1210.2738	1222.4848	1254.1437	1257.4495	1286.4263	1308.3835	1330.2765	1335.8318	1363.7657	1411.5833	1470.6048	1477.8397	1480.5753	1488.6775	1499.9531	1500.5689	1507.3209	1735.0442	3004.3335	3017.1096	3033.194	3039.95	3046.5189	3050.9723	3056.0204	3060.1621	3087.3673	3099.574	3101.3157	3103.5017	3119.9431	3191.2662
CCC12CCC1=CCC2	CC[C@@]12CC[C]1[CH]CC2	
InChI=1S/C9H14/c1-2-9-6-3-4-8(9)5-7-9/h4H,2-3,5-7H2,1H3	InChI=1S/C9H14/c1-2-9-6-3-4-8(9)5-7-9/h4H,2-3,5-7H2,1H3/t9-/m1/s1
