16
gdb 85777	2.48813	1.38966	1.07975	2.4964	66.61	-0.2504	-0.048	0.2024	1138.5256	0.122082	-475.052262	-475.043182	-475.042238	-475.087049	32.367	
C	-0.7921308987	 1.3425627676	-0.0430960696	-0.401481
C	-0.099803175	-0.0072188587	 0.0139995598	 0.038459
O	 1.0817677081	-0.0926073132	-0.8311189803	-0.284713
C	 1.9668737028	-0.3945950161	 0.2528090672	-0.089939
C	 3.0956262407	 0.627082183	 0.4726412659	 0.354617
N	 3.6400988546	 0.5202946869	 1.7217428731	-0.520327
O	 3.4658820828	 1.3929140644	-0.3850267591	-0.331554
C	 0.7905997731	-0.2978253331	 1.2282567579	 0.316252
O	 0.6708982293	-0.3504628277	 2.4166909345	-0.293595
H	-0.0900125224	 2.1494697122	 0.1821530881	 0.140694
H	-1.199850563	 1.5090636039	-1.0439076893	 0.143254
H	-1.6141354615	 1.3711509993	 0.6787172646	 0.135843
H	-0.8002784643	-0.8250168713	-0.2052399676	 0.114155
H	 2.4062571306	-1.3994592086	 0.1794286364	 0.137132
H	 3.1087625901	 0.0844771485	 2.4617574899	 0.274881
H	 4.3203375628	 1.2170240729	 1.9842963383	 0.266321
41.2055	66.016	138.7908	193.2488	201.8679	260.8305	382.2196	395.7367	446.4348	462.885	542.1696	572.0772	614.6197	691.7666	729.474	842.3612	874.3103	890.8191	1040.6339	1055.6827	1063.4812	1091.167	1110.8715	1130.9855	1200.5338	1258.813	1284.0109	1325.2019	1358.1543	1400.0573	1479.1024	1493.1607	1630.2915	1830.7307	1902.5396	3013.554	3019.0098	3045.539	3123.2604	3129.3698	3561.7534	3692.9217
CC1OC(C(N)=O)C1=O	C[C@H]1O[C@@H](C(=O)N)C1=O	
InChI=1S/C5H7NO3/c1-2-3(7)4(9-2)5(6)8/h2,4H,1H3,(H2,6,8)	InChI=1S/C5H7NO3/c1-2-3(7)4(9-2)5(6)8/h2,4H,1H3,(H2,6,8)/t2-,4-/m1/s1
