19
gdb 124555	2.46648	1.38477	1.01231	3.6999	77.72	-0.2142	0.0031	0.2173	1225.5775	0.159074	-419.205307	-419.195998	-419.195054	-419.239465	34.488	
C	 0.0333393441	 1.2613190229	-0.3511039164	-0.387258
C	 0.0557481522	-0.1921794316	 0.1667952348	-0.0896
C	 0.6862749352	-0.2688593279	 1.5631826686	-0.383558
C	-1.327012933	-0.7871127495	 0.1283826609	 0.369014
N	-2.077685589	-0.8780514263	 1.201034501	-0.214369
O	-3.2689837481	-1.4543161432	 0.7996484303	-0.176242
C	-3.2131587448	-1.6904241224	-0.5296281947	 0.000021
C	-2.0103603071	-1.2965574228	-1.0256069712	 0.046074
N	-1.4667158924	-1.4325573332	-2.3107758262	-0.611692
H	 1.0491147836	 1.6657592904	-0.4035107891	 0.117741
H	-0.4097693449	 1.3393268956	-1.3501018562	 0.103943
H	-0.5548308024	 1.8955982935	 0.3196000767	 0.133632
H	 0.669625933	-0.7847795298	-0.5256982403	 0.090949
H	 0.7358171113	-1.3013704085	 1.9182062456	 0.124422
H	 1.7011544837	 0.1402679859	 1.5415998031	 0.10454
H	 0.0985701306	 0.3016362475	 2.2872124054	 0.138533
H	-4.086441234	-2.1463650075	-0.9683082147	 0.135775
H	-2.1616188876	-1.6585173627	-3.0104067939	 0.247542
H	-0.9527662004	-0.6130344203	-2.6086398835	 0.25053
52.5098	146.5152	168.02	192.7577	220.8492	254.4638	290.825	299.9906	369.698	448.9687	516.1816	600.6801	609.7935	711.4954	733.8444	759.6724	793.6647	886.8009	925.7218	932.885	960.2691	970.6297	1103.6907	1118.3405	1121.5191	1145.3362	1168.1441	1230.3605	1305.8262	1339.835	1366.478	1398.6911	1420.2767	1463.6936	1482.4292	1489.0667	1499.3551	1506.0118	1529.311	1646.9242	1682.3723	3009.5712	3030.4031	3044.2625	3095.3713	3110.413	3115.8406	3125.9365	3266.5456	3537.3288	3625.6606
CC(C)C1=NOC=C1N	CC(C)c1nocc1N	
InChI=1S/C6H10N2O/c1-4(2)6-5(7)3-9-8-6/h3-4H,7H2,1-2H3	InChI=1S/C6H10N2O/c1-4(2)6-5(7)3-9-8-6/h3-4H,7H2,1-2H3
