21
gdb 39378	2.35604	1.74385	1.1975	1.5869	83.28	-0.2366	0.0062	0.2428	1099.2278	0.184463	-387.065302	-387.057175	-387.056231	-387.097892	32.181	
C	-0.0592969432	 1.5160363547	 0.1978932018	-0.336899
C	 1.2912476481	 0.8379534652	 0.1306081711	-0.001609
C	 2.1238912249	 0.5766206005	 1.3660451653	-0.236807
C	 3.1621099772	-0.5435862624	 1.1317873352	-0.255908
C	 2.6698110465	-1.7970988307	 0.4439698885	-0.01466
C	 1.4623330525	-2.3632206144	 0.4967632364	-0.09943
C	 0.3002104206	-1.9120374919	 1.3438088669	-0.102969
O	-0.4845852343	-0.7992083808	 0.8717209837	-0.2736
C	 0.0297578813	 0.045368702	-0.1088224642	 0.134425
H	-0.445660297	 1.7653719228	 1.1803598073	 0.117609
H	-0.3420225364	 2.2039464694	-0.5912425988	 0.1071
H	 1.8765829271	 1.0441269622	-0.7635044278	 0.077845
H	 2.6615194362	 1.486260805	 1.6609611084	 0.094405
H	 1.4643910853	 0.3329560261	 2.2033929453	 0.112412
H	 3.9754195779	-0.1351044872	 0.5184331468	 0.106056
H	 3.6356761299	-0.8094315606	 2.0882136046	 0.112497
H	 3.41328285	-2.2804324852	-0.1884382159	 0.087725
H	 1.2924506491	-3.2518968224	-0.1064968979	 0.08792
H	-0.4100203043	-2.738569266	 1.4505204601	 0.10449
H	 0.655118531	-1.6672966418	 2.353902123	 0.100737
H	-0.1688534525	-0.2791301546	-1.1299953297	 0.078662
81.7595	141.3549	207.3559	250.2926	284.2771	339.0161	389.5532	449.4821	535.419	608.8906	696.5543	726.7384	755.7742	804.5303	832.1571	846.2528	902.1016	936.2209	973.6193	999.0243	1005.9651	1031.2158	1044.1394	1061.8064	1067.3064	1101.6098	1127.9854	1137.7792	1179.5211	1229.2306	1239.2152	1250.1446	1270.258	1297.0121	1335.594	1377.2512	1386.554	1409.4795	1423.7272	1433.3619	1472.578	1483.9061	1501.2142	1528.6164	1720.1182	3003.9898	3007.4579	3033.1272	3037.0229	3060.4822	3090.9597	3095.341	3124.1346	3127.7351	3134.008	3157.2656	3222.2829
C1C2CCC=CCOC12	C1[C@H]2CCC=CCO[C@@H]12	
InChI=1S/C8H12O/c1-2-4-7-6-8(7)9-5-3-1/h1,3,7-8H,2,4-6H2/b3-1-	InChI=1S/C8H12O/c1-2-4-7-6-8(7)9-5-3-1/h1,3,7-8H,2,4-6H2/b3-1-/t7-,8+/m1/s1
