18
gdb 71672	2.82816	2.02619	1.80037	1.9149	72.99	-0.2302	0.0638	0.294	851.0147	0.150794	-401.920194	-401.913873	-401.912929	-401.950369	27.368	
O	-0.0914940385	 1.4329066123	 0.044003068	-0.485989
C	 0.0093520899	 0.0464973213	 0.0516609007	 0.39872
C	-1.214669935	-0.7998321629	 0.4770496486	-0.261284
C	-0.1289906174	-1.8922808875	 0.6193104557	-0.009532
C	 0.8714030711	-0.7923087	 1.0781624455	-0.107923
C	 2.220326648	-1.117274049	 0.4598151507	-0.269142
C	 1.6959107322	-1.4971901843	-0.9107115063	-0.03192
C	 0.4813554698	-0.6899168938	-1.2146713933	-0.141508
N	 0.3426434394	-2.1116527417	-0.7952766665	-0.124477
H	 0.7185779209	 1.7990157765	-0.3265233718	 0.282448
H	-1.6237366492	-0.483924279	 1.4396826978	 0.105021
H	-2.0120039116	-0.9615219431	-0.2519367124	 0.10455
H	-0.2899291649	-2.8223129413	 1.1606041366	 0.074246
H	 0.8118055438	-0.4673107191	 2.1143645472	 0.077903
H	 2.9027659702	-0.260179519	 0.4249637744	 0.097785
H	 2.734164752	-1.9458672369	 0.958925867	 0.108327
H	 2.3333065661	-1.9020063556	-1.6890879067	 0.091734
H	 0.1509587333	-0.4042316468	-2.2078560652	 0.09104
240.8756	255.4116	329.4323	415.6304	449.6017	515.8773	592.3155	683.3666	694.6335	746.3964	788.0787	825.6477	849.0908	873.3268	913.4594	931.6442	944.7484	961.0685	982.9522	1005.4187	1020.0718	1045.7663	1062.4993	1082.7338	1103.2243	1155.7176	1177.2956	1193.3716	1219.0252	1225.6329	1246.3901	1248.6428	1273.0828	1299.9607	1355.8077	1362.3791	1379.4364	1487.3003	1497.5381	3039.3161	3066.5496	3081.8505	3129.4761	3134.8441	3151.5327	3163.8343	3179.373	3809.1341
OC12CC3C1CC1C2N31	O[C@]12C[C@@H]3[C@H]1C[C@@H]1[C@H]2N31	
InChI=1S/C7H9NO/c9-7-2-5-3(7)1-4-6(7)8(4)5/h3-6,9H,1-2H2	InChI=1S/C7H9NO/c9-7-2-5-3(7)1-4-6(7)8(4)5/h3-6,9H,1-2H2/t3-,4-,5-,6-,7-,8?/m1/s1
