19
gdb 92380	2.2107	1.624	1.28187	1.7906	82.1	-0.2452	0.0202	0.2654	1093.0658	0.158054	-385.826116	-385.817508	-385.816564	-385.859172	33.187	
C	 0.2481704152	 1.581340771	 0.0228227155	-0.408643
C	 0.072306395	 0.0726893259	 0.0491804143	-0.019764
C	 0.9065918487	-0.8080281219	-0.9360084305	-0.258795
C	 1.4121556899	-1.6824167401	 0.2432689497	-0.143657
C	 2.7075137329	-1.1750339379	 0.8821055065	-0.085493
O	 1.9966838131	-0.1638802563	 1.6378856516	-0.323498
C	 0.7044626903	-0.7033393239	 1.2460070319	 0.250577
C	-0.1266823316	-1.0756571925	 2.3632851985	 0.266558
C	-0.8454798445	-1.3892595726	 3.2755417018	-0.419671
H	 1.2972099855	 1.8474478853	 0.1776826236	 0.13061
H	-0.0769487437	 1.9915173693	-0.9392401184	 0.111853
H	-0.341255747	 2.0622086645	 0.8105753022	 0.122776
H	-0.9877127658	-0.1925429725	-0.0154169982	 0.079858
H	 0.3087438447	-1.3421448503	-1.6769118723	 0.105878
H	 1.7052352323	-0.2735124602	-1.4593695888	 0.101548
H	 1.2240844169	-2.7537459315	 0.2126263182	 0.087952
H	 3.1982669772	-1.8930171526	 1.5517066002	 0.106129
H	 3.4544941426	-0.7392988671	 0.2077774767	 0.101751
H	-1.4717431915	-1.6638079367	 4.0881862474	 0.194031
87.0869	124.7087	169.4923	219.1624	244.7302	325.7462	358.9109	449.2277	506.9746	522.1973	592.0849	616.0214	632.4463	660.9554	798.2655	825.0854	878.3355	918.4997	942.1918	985.7085	993.3665	1018.8139	1036.0464	1103.36	1114.7335	1124.0566	1151.3861	1157.8368	1195.2626	1218.6725	1265.3133	1294.3409	1318.8964	1348.0753	1359.0073	1404.7834	1486.4999	1488.4872	1502.58	1524.4772	2229.2101	3011.4216	3034.7405	3055.4327	3055.8726	3059.7137	3098.767	3112.2264	3121.1451	3134.8624	3500.4029
CC1CC2COC12C#C	C[C@H]1C[C@H]2CO[C@@]12C#C	
InChI=1S/C8H10O/c1-3-8-6(2)4-7(8)5-9-8/h1,6-7H,4-5H2,2H3	InChI=1S/C8H10O/c1-3-8-6(2)4-7(8)5-9-8/h1,6-7H,4-5H2,2H3/t6-,7-,8-/m0/s1
