19
gdb 78751	2.93098	1.59112	1.23284	1.0559	74.18	-0.2343	0.0676	0.3019	1053.4275	0.159755	-422.991518	-422.983791	-422.982846	-423.02317	31.291	
C	-0.0045855052	 1.5050242154	-0.0082053073	-0.409349
C	-0.0056786175	-0.0190805304	-0.0287174687	-0.012505
C	 0.7378473251	-0.6146355189	-1.2290789904	-0.102257
C	 1.9769521325	-0.8861779647	-0.3707340524	-0.17528
C	 1.1031409492	-0.6577652767	 0.8817506474	 0.071518
O	 0.7166027583	-1.9398583424	 1.3708267674	-0.26665
C	 0.516819946	-2.7730971362	 0.2285054127	-0.154263
C	 1.1774753233	-2.0305132965	-0.9348810905	 0.363757
O	 1.6069160943	-2.7506006185	-2.0425434713	-0.47685
H	 1.006537591	 1.9002308706	-0.158233822	 0.116254
H	-0.6411997352	 1.913648757	-0.8001189813	 0.116686
H	-0.3773040456	 1.8818008082	 0.9503721539	 0.115735
H	-1.0142428869	-0.4022156533	 0.1675956034	 0.071188
H	 0.6995964799	-0.2713492166	-2.2567662532	 0.09034
H	 3.0299917016	-0.7080630826	-0.5410851757	 0.088831
H	 1.469517813	-0.0639963843	 1.7188256533	 0.08179
H	 1.0061568289	-3.7417816999	 0.3977677421	 0.091389
H	-0.5531919894	-2.9570460733	 0.0620555624	 0.103761
H	 2.3286402267	-3.3270669171	-1.7660030698	 0.285903
168.8788	229.2811	239.2395	255.1546	305.4482	350.1955	380.6533	419.9716	487.2691	582.4029	684.6484	749.2205	771.1722	848.7775	868.3262	875.8797	920.1587	939.968	960.249	991.7571	1030.1748	1053.6982	1061.1229	1069.3841	1092.555	1137.9785	1163.6663	1190.6977	1195.9353	1227.0667	1264.7333	1274.435	1314.9916	1322.9285	1364.9914	1380.2885	1409.4332	1437.692	1495.3785	1500.5918	1524.0324	3002.3888	3026.4622	3030.5043	3036.9293	3095.4006	3097.1457	3122.0903	3179.6679	3207.5457	3785.9087
CC1C2C3C1OCC23O	C[C@H]1[C@H]2[C@H]3[C@@H]1OC[C@@]23O	
InChI=1S/C7H10O2/c1-3-4-5-6(3)9-2-7(4,5)8/h3-6,8H,2H2,1H3	InChI=1S/C7H10O2/c1-3-4-5-6(3)9-2-7(4,5)8/h3-6,8H,2H2,1H3/t3-,4-,5-,6+,7+/m0/s1
