17
gdb 47387	2.53399	1.40814	1.14732	3.9943	74.05	-0.2407	0.0314	0.2721	1108.7519	0.138029	-418.023911	-418.015622	-418.014678	-418.05701	31.533	
O	 0.0138250019	-0.046701491	-0.169200343	-0.409663
C	-0.0235920565	 1.1572830073	 0.008093413	 0.435815
N	-1.2020145166	 1.8438301188	 0.1968741426	-0.333553
C	-1.3360293115	 3.2897644517	 0.1142879913	-0.162825
C	-0.0790244213	 3.9424360479	 0.6815972694	-0.207479
C	 1.1690132016	 3.370370147	-0.0162476916	-0.177098
N	 1.1345000545	 1.9157095578	 0.116293057	-0.320374
C	 1.2700108785	 3.8149739274	-1.414685295	 0.354464
C	 1.3584346917	 4.1690919691	-2.5601809523	-0.479183
H	-2.0114160928	 1.2724076271	 0.0129806006	 0.250539
H	-1.4883313807	 3.6262667805	-0.9220403943	 0.118824
H	-2.2133226921	 3.5980876402	 0.6921447746	 0.113161
H	-0.1165038162	 5.0251170082	 0.5434428625	 0.119466
H	 0.0010302675	 3.7276319887	 1.7514774154	 0.122189
H	 2.0573297328	 3.7295773095	 0.517711751	 0.117904
H	 1.9445286131	 1.4048523771	-0.2013120079	 0.252723
H	 1.441325616	 4.4755938728	-3.5739125434	 0.20509
68.7276	110.5457	171.9209	226.5179	311.302	397.0722	435.8793	475.6958	522.5311	556.9952	591.535	617.7404	645.3272	656.4063	734.3875	766.0541	811.963	894.9525	921.3675	982.8571	1025.7138	1090.1146	1129.3728	1156.4394	1203.5861	1241.1986	1310.3609	1338.9938	1367.3224	1384.4064	1425.171	1455.6107	1472.5816	1482.3871	1527.9225	1806.9921	2229.752	2994.0638	3026.5807	3058.9271	3071.5931	3120.9618	3500.438	3626.4376	3641.0135
O=C1NCCC(N1)C#C	O=C1NCC[C@@H](N1)C#C	
InChI=1S/C6H8N2O/c1-2-5-3-4-7-6(9)8-5/h1,5H,3-4H2,(H2,7,8,9)	InChI=1S/C6H8N2O/c1-2-5-3-4-7-6(9)8-5/h1,5H,3-4H2,(H2,7,8,9)/t5-/m0/s1
