17
gdb 10492	2.6549	1.67476	1.24257	3.3331	68.28	-0.2789	0.035	0.3139	1008.5782	0.141463	-363.861286	-363.852718	-363.851774	-363.894692	30.903	
O	 0.1788445504	-1.1579731922	 1.62077608	-0.424703
C	 0.0512566629	-0.5473989126	 0.3420451172	-0.157364
C	-1.4070834253	-0.5836972851	-0.0491938487	 0.380508
C	-2.3284353785	 0.166594344	 0.9094263182	-0.413035
C	-2.0792309392	 1.6101497535	 0.9143746225	 0.265422
N	-1.8624932091	 2.7454173947	 0.9073428756	-0.318723
C	-1.7498027813	-0.602156781	-1.5164016069	-0.310793
C	-1.9437664974	-1.8437189915	-0.6806268172	-0.311342
H	 1.0381034618	-0.923963585	 1.9831787282	 0.293088
H	 0.4019108908	 0.4953647879	 0.3657725523	 0.11361
H	 0.6452997137	-1.0810369924	-0.4159737432	 0.087697
H	-3.3773739988	-0.0024906012	 0.6451879832	 0.142866
H	-2.1789312029	-0.215156146	 1.9248532784	 0.168885
H	-2.6294472605	-0.0553234801	-1.8383399175	 0.122614
H	-0.9341779758	-0.5841975779	-2.2312392975	 0.120313
H	-1.2548000691	-2.6699214084	-0.8159134461	 0.124734
H	-2.9572092517	-2.1469013066	-0.4405795287	 0.116223
55.3133	113.9004	142.7689	228.4582	247.7999	318.808	334.7594	364.6026	392.0053	479.9508	575.2061	746.1421	778.8254	874.8436	909.8026	931.9463	946.7289	975.8222	1008.6375	1050.1095	1068.7078	1071.9986	1086.9042	1184.7871	1208.1969	1246.8052	1255.6866	1316.8467	1339.6417	1378.611	1454.652	1465.2681	1474.1638	1506.4992	1518.8023	2358.6174	2977.076	3013.7936	3052.4414	3095.7074	3133.749	3137.4406	3211.9041	3225.2325	3835.1555
OCC1(CC#N)CC1	OCC1(CC#N)CC1	
InChI=1S/C6H9NO/c7-4-3-6(5-8)1-2-6/h8H,1-3,5H2	InChI=1S/C6H9NO/c7-4-3-6(5-8)1-2-6/h8H,1-3,5H2
