18
gdb 22332	3.15804	1.14614	0.89753	2.2703	78.65	-0.2418	-0.004	0.2378	1297.7382	0.14611	-439.056048	-439.046856	-439.045912	-439.089922	34.274	
C	-0.0515849539	 1.4507065226	 0.0498827804	-0.487759
C	-0.0051954445	-0.0425314326	-0.0098885763	 0.317755
C	-0.111178754	-0.8131575849	-1.0978471443	-0.215551
C	 0.021111811	-2.285902349	-0.8064964273	 0.007029
O	 1.1415639746	-2.8881519649	-1.4536745039	-0.419491
C	 0.1025367384	-2.2903953418	 0.7219257434	 0.349033
C	 0.1701204882	-0.87011101	 1.2474608421	-0.385496
N	 0.0760439368	-3.2873768578	 1.5106546613	-0.211223
O	-0.039640879	-4.4996176001	 0.8197828129	-0.381991
H	 0.8643990204	 1.8551827728	 0.4991936132	 0.128948
H	-0.1702194231	 1.8912380818	-0.9433316961	 0.128521
H	-0.8823067708	 1.7944941002	 0.6790172695	 0.131575
H	-0.2374015352	-0.4466288117	-2.1109785961	 0.095809
H	-0.8341540362	-2.880635222	-1.1452730901	 0.109703
H	 1.9156445414	-2.3576179647	-1.2332768135	 0.274043
H	 1.1190495959	-0.6477522763	 1.755493814	 0.123182
H	-0.6188065812	-0.6777120978	 1.9853266142	 0.129571
H	-0.0710154387	-5.1405322438	 1.5380408965	 0.306343
65.4365	135.0222	184.1673	191.5216	253.8883	293.7932	305.0078	327.8169	403.8471	422.7999	476.9068	486.9012	597.0193	667.3129	701.3856	820.8167	852.3787	882.7557	961.5997	986.1796	987.3345	1028.1237	1052.1817	1065.461	1165.3488	1173.4891	1218.2374	1254.5079	1283.1574	1283.6639	1343.12	1407.8279	1413.5209	1423.3665	1469.6942	1478.5363	1486.5825	1709.1356	1756.0043	3011.0393	3019.8518	3045.1059	3056.6164	3066.0868	3115.5569	3191.3801	3796.2118	3817.2647
CC1=CC(O)C(C1)=NO	CC1=C[C@@H](O)C(=NO)C1	
InChI=1S/C6H9NO2/c1-4-2-5(7-9)6(8)3-4/h3,6,8-9H,2H2,1H3	InChI=1S/C6H9NO2/c1-4-2-5(7-9)6(8)3-4/h3,6,8-9H,2H2,1H3/t6-/m1/s1
