22
gdb 7433	3.02745	1.2658	1.22589	2.4684	78.32	-0.2347	-0.0083	0.2264	1189.0066	0.197241	-350.242277	-350.231787	-350.230843	-350.278018	37.32	
C	-0.0417139098	 1.5044163573	 0.0522966122	-0.390826
C	 0.0384710758	-0.0366435045	-0.0074798069	-0.061091
C	 0.6865942785	-0.5129189267	-1.3097463015	-0.387542
C	 0.8186543456	-0.5174108502	 1.2195980285	 0.390322
O	 2.0143862948	-0.7041107778	 1.1771338815	-0.330919
C	 0.0162046635	-0.7514312309	 2.5029528926	-0.06098
C	-0.5291367066	-2.1957871373	 2.4670757575	-0.390774
C	 0.8661872208	-0.5053462908	 3.751895983	-0.387564
H	 0.9601425258	 1.9405095739	-0.0150993014	 0.133533
H	-0.6365361538	 1.8858591445	-0.7831653555	 0.120565
H	-0.5032153728	 1.8570650349	 0.9802353719	 0.118341
H	-0.9845615297	-0.4279557613	 0.0652277616	 0.078354
H	 1.7271333255	-0.182429263	-1.3573043779	 0.137464
H	 0.6841908238	-1.6048021203	-1.3793567038	 0.115314
H	 0.1505748273	-0.1138189758	-2.1764391854	 0.106153
H	-0.8434752318	-0.0688981001	 2.4960516434	 0.078281
H	-1.1520031197	-2.3878871958	 3.3459642147	 0.120528
H	-1.1386027993	-2.3837653711	 1.5773298283	 0.1183
H	 0.296625797	-2.9144784723	 2.4703736554	 0.133576
H	 1.1975342989	 0.5358224178	 3.808976757	 0.115267
H	 0.2962112663	-0.7329351961	 4.6580317803	 0.106171
H	 1.75952095	-1.1344185544	 3.7313011046	 0.137526
32.5187	62.7554	183.4374	184.841	208.8435	210.6603	240.1329	241.5326	280.3865	323.0359	325.1773	377.4034	463.2615	618.7614	742.9273	753.0443	861.87	896.6991	931.7729	933.3144	970.2309	971.4454	1029.031	1078.4467	1104.1482	1129.9496	1146.3416	1197.7985	1200.0431	1311.4528	1325.017	1360.1137	1382.9807	1394.9919	1397.1298	1415.0073	1417.7817	1485.7974	1485.9033	1487.4013	1488.5072	1500.5469	1502.0733	1509.2576	1512.237	1801.6378	3021.2838	3025.6463	3033.8584	3034.2437	3042.1191	3042.7735	3104.1477	3104.2373	3108.6016	3108.6417	3109.9158	3110.6344	3127.2929	3127.674
CC(C)C(=O)C(C)C	CC(C)C(=O)C(C)C	
InChI=1S/C7H14O/c1-5(2)7(8)6(3)4/h5-6H,1-4H3	InChI=1S/C7H14O/c1-5(2)7(8)6(3)4/h5-6H,1-4H3
