15
gdb 74167	2.70777	1.41847	1.003	4.9958	78.38	-0.2205	-0.0078	0.2127	1142.8379	0.112675	-416.795733	-416.787544	-416.786599	-416.828462	31.336	
N	 0.0875464212	 1.3189210022	 0.0737929462	-0.588594
C	-0.0566390772	-0.0401009362	 0.0133369965	 0.353018
C	-1.1352383054	-0.8377265046	 0.0779087499	-0.317072
C	-0.7065399127	-2.2269717039	 0.0220290937	 0.419483
N	-1.4238784502	-3.2685207012	 0.055678118	-0.561399
O	 0.6818635808	-2.2527646933	-0.0851438793	-0.253837
C	 1.1863680377	-0.9184473755	-0.0549034367	-0.12096
C	 2.0297137864	-0.6229085086	-1.211833295	 0.314776
C	 2.7256786119	-0.3288279368	-2.1460965406	-0.455447
H	 0.8989790386	 1.690649462	-0.4003515728	 0.262471
H	-0.7463531829	 1.8659455825	-0.0794615708	 0.264175
H	-2.1734077506	-0.5520468633	 0.1482131374	 0.116146
H	-0.8437842272	-4.1051487487	-0.011776981	 0.219895
H	 1.7823301905	-0.7922348551	 0.8614692362	 0.135934
H	 3.3430647691	-0.0932619893	-2.9783104018	 0.211411
87.889	133.7926	173.5511	259.8257	315.5605	385.3574	424.5688	455.5336	522.7763	565.8092	609.4912	632.1286	644.4146	686.2548	687.8888	726.9354	825.567	857.9683	882.918	913.6515	1016.2411	1048.9638	1083.0438	1107.208	1245.2421	1255.8523	1325.4901	1349.078	1400.1914	1645.1028	1719.7778	1767.5101	2237.651	2995.0756	3255.933	3489.1988	3498.1798	3560.909	3665.8851
NC1=CC(=N)OC1C#C	N[C]1C=C([NH])O[C@H]1C#C	
InChI=1S/C6H6N2O/c1-2-5-4(7)3-6(8)9-5/h1,3,5,8H,7H2	InChI=1S/C6H6N2O/c1-2-5-4(7)3-6(8)9-5/h1,3,5,8H,7H2/t5-/m0/s1
