13
gdb 131694	3.10309	0.71648	0.60508	4.5123	62.67	-0.2589	-0.0559	0.2031	1703.4918	0.082106	-489.928817	-489.917062	-489.916117	-489.972703	33.961	
O	 0.7084387709	 1.0858717104	-0.748972053	-0.406013
C	 0.2986510072	 0.290309042	 0.3531551467	-0.174181
C	-1.0416065448	-0.3247143908	 0.0412812682	-0.190137
C	-2.2924422305	 0.4001508691	 0.2940970992	 0.127235
O	-3.4129349772	 0.0194214931	 0.0413282015	-0.292067
N	-5.5876974055	-2.6956403961	-0.2149513807	-0.003426
N	-4.5139709455	-2.8978577729	-0.1005175166	-0.001923
C	-1.1117573268	-1.5099616605	-0.5566918653	 0.528028
O	-1.1778282941	-2.5438847206	-1.0609821471	-0.179986
H	 1.5361168406	 1.5196089303	-0.5133915772	 0.291124
H	 1.036139234	-0.491672246	 0.5828521797	 0.10776
H	 0.1745616991	 0.8992724001	 1.2624879557	 0.110662
H	-2.1058775773	 1.3853373619	 0.7761978689	 0.082924
6.4756	16.2181	34.5389	46.3018	48.2326	80.109	134.7656	151.3499	216.2875	246.741	278.4576	441.822	526.3328	625.3192	718.3858	814.0711	983.0352	1014.1458	1053.8656	1190.8245	1244.2882	1270.4725	1386.8866	1433.8159	1448.6399	1511.4262	1771.4605	2230.6176	2432.4239	2886.7474	2978.0726	3015.6911	3802.5665	6.477	16.2183	34.5392	46.3018	48.2331	80.1091	134.7656	151.3501	216.2876	246.741	278.4571	441.8219	526.3327	625.3192	718.3858	814.0712	983.0351	1014.1462	1053.8657	1190.8245	1244.288	1270.4722	1386.8867	1433.8161	1448.6397	1511.4258	1771.4611	2230.6171	2432.4239	2886.7476	2978.0726	3015.6911	3802.5665
OCC1=CON=NC1=O	OC[C](C=O)[C][O].N#N	
InChI=1S/C4H4N2O3/c7-1-3-2-9-6-5-4(3)8/h2,7H,1H2	InChI=1S/C4H4O3.N2/c5-1-4(2-6)3-7;1-2/h1,6H,2H2;
