21
gdb 103412	2.49676	1.40902	1.21716	2.3862	78.04	-0.244	0.0609	0.305	1142.3046	0.181416	-424.195317	-424.185942	-424.184998	-424.22891	36.212	
C	-0.1449239969	 1.5566084909	-0.0118697372	-0.410161
C	 0.0285134628	 0.0449967981	-0.0473538139	-0.047928
C	 0.7297803444	-0.6065075962	-1.2479323073	-0.054322
C	 2.1730770764	-0.1989366527	-1.32302901	-0.296107
C	 1.7745810996	-1.2529927074	-0.32979437	-0.092309
C	 1.1262401254	-0.6140070901	 0.8927767085	 0.41221
O	 1.9791702465	 0.2703658772	 1.5897809199	-0.485282
C	 0.5470663271	-1.6269666429	 1.8685906944	-0.152691
O	-0.1283897662	-0.8748767015	 2.8758846598	-0.438379
H	 0.8080030489	 2.0774342985	-0.1315426075	 0.123963
H	-0.8192154967	 1.888198391	-0.8092628082	 0.106859
H	-0.5764081298	 1.8721724894	 0.9440648917	 0.114138
H	-0.9373217466	-0.4358217556	 0.1370385141	 0.068425
H	 0.2230488352	-1.0554287828	-2.0939217403	 0.078884
H	 2.7130124197	-0.5729709078	-2.1871010192	 0.106856
H	 2.5057958011	 0.7740445135	-0.9774286744	 0.125657
H	 2.1894841413	-2.2544931511	-0.3556927897	 0.075755
H	 1.5165285931	 0.4885427452	 2.409662539	 0.283117
H	-0.1377261941	-2.3136101979	 1.3507600416	 0.093583
H	 1.3689517568	-2.2155696219	 2.3029760309	 0.093505
H	-0.3375792377	-1.4586485457	 3.6099926878	 0.294225
109.5581	115.846	177.054	212.5401	230.7145	253.0918	270.4951	351.5266	385.2313	449.8505	472.9493	549.2206	560.2623	676.0784	723.3051	785.5991	821.6746	911.4308	923.27	939.7595	992.2134	1001.6375	1017.3069	1050.7774	1064.0897	1086.4339	1090.7275	1098.989	1115.9166	1146.6226	1189.0491	1202.5372	1242.486	1253.2859	1278.1272	1296.3411	1353.2122	1366.1738	1404.2033	1415.3647	1447.9719	1485.7854	1490.2711	1503.0061	1509.0812	2984.3662	3025.9171	3033.8207	3054.1829	3094.2571	3121.8353	3129.659	3166.2193	3180.7253	3211.9557	3765.8707	3842.7252
CC1C2CC2C1(O)CO	C[C@H]1[C@H]2C[C@H]2[C@]1(O)CO	
InChI=1S/C7H12O2/c1-4-5-2-6(5)7(4,9)3-8/h4-6,8-9H,2-3H2,1H3	InChI=1S/C7H12O2/c1-4-5-2-6(5)7(4,9)3-8/h4-6,8-9H,2-3H2,1H3/t4-,5+,6+,7-/m0/s1
