21
gdb 68601	2.26323	1.84579	1.46677	1.7375	82.24	-0.2323	0.0807	0.313	1023.9915	0.183199	-387.056009	-387.048007	-387.047062	-387.087906	32.613	
C	-0.0044188303	 1.5305145775	 0.0250801932	-0.509813
C	-0.0225012029	 0.0233458944	-0.0173703647	 0.189721
C	 0.382076057	-0.8226423322	-1.2762056738	-0.274551
C	-0.3553997672	-1.9261574573	-0.4782833873	 0.008385
O	 0.4876254916	-2.1193800407	 0.6715911763	-0.280698
C	 0.7534384116	-0.7540165336	 1.0639279005	-0.099111
C	-1.3200439738	-0.8290714674	-0.0242779709	 0.42004
C	-2.4921119523	-0.8667147636	 0.8920894891	-0.363518
C	-2.6612831839	-0.4761015543	-0.5705410867	-0.364571
H	 1.0164094735	 1.9157816916	-0.0752987177	 0.121803
H	-0.60251678	 1.9573327055	-0.7864069172	 0.121447
H	-0.407195221	 1.9058657656	 0.9732674192	 0.118845
H	-0.1486340979	-0.5070671222	-2.1757672446	 0.101978
H	 1.4459274291	-0.9807442539	-1.4720247228	 0.093166
H	-0.6607074532	-2.8889516336	-0.8852129842	 0.076335
H	 1.833161724	-0.5595999914	 1.0470347953	 0.092851
H	 0.3714112271	-0.5704433014	 2.0758040853	 0.095617
H	-2.8672649842	-1.8336492383	 1.2118311609	 0.117843
H	-2.5957087937	-0.0821911517	 1.6362634135	 0.110132
H	-2.8763846561	 0.5651175101	-0.7925329015	 0.110828
H	-3.1574768773	-1.1793436631	-1.2326396021	 0.113274
168.0983	179.3901	210.0413	228.6378	288.1597	322.2262	401.5517	444.2435	564.3387	604.6312	616.872	686.9115	776.8103	801.2318	859.1625	901.5964	914.6643	934.9462	952.092	963.1398	971.2816	992.461	1029.6384	1038.818	1048.5996	1079.1888	1089.3187	1135.492	1173.0781	1179.3933	1197.2188	1206.5103	1230.2467	1244.9353	1263.9819	1303.7928	1368.575	1409.8186	1412.6898	1462.9595	1483.349	1492.4066	1494.9277	1510.7342	1525.0356	3013.1556	3025.0935	3054.019	3064.1599	3086.7374	3097.9579	3116.6638	3120.9273	3135.2219	3137.6847	3192.788	3207.6677
CC12CC(OC1)C21CC1	C[C@@]12C[C@@H](OC1)C12CC1	
InChI=1S/C8H12O/c1-7-4-6(9-5-7)8(7)2-3-8/h6H,2-5H2,1H3	InChI=1S/C8H12O/c1-7-4-6(9-5-7)8(7)2-3-8/h6H,2-5H2,1H3/t6-,7-/m1/s1
