20
gdb 116749	5.45644	0.62816	0.57121	0.1776	81.54	-0.2539	-0.0132	0.2407	1986.4827	0.167807	-440.328179	-440.317537	-440.316593	-440.365306	36.574	
C	 0.4526793641	 0.8712290889	 0.569537609	-0.400029
C	-0.2837007222	 0.2544237119	-0.6225875198	-0.114354
N	 0.4370647471	-0.658905422	-1.4974804529	-0.214223
C	 1.6389061693	-0.9287255799	-1.27115135	 0.106502
O	 2.2737313141	-1.8001003984	-2.1321251981	-0.226815
C	 3.5901190878	-2.0997816508	-1.8892765135	 0.455458
O	 4.2240648137	-1.6497522632	-0.9731316103	-0.336229
C	 4.0964316083	-3.063411541	-2.9366097757	-0.307028
C	 5.5601982073	-3.4455077629	-2.7332274353	-0.375395
H	 0.8122544768	 0.1071916704	 1.2667643383	 0.125853
H	 1.3105971204	 1.4732799346	 0.2522364634	 0.125853
H	-0.2283862089	 1.5277907456	 1.1190281249	 0.118011
H	-1.1686433002	-0.289401201	-0.2672416445	 0.119447
H	-0.6784658255	 1.0527386644	-1.2644740134	 0.119456
H	 2.2860817701	-0.5709745174	-0.4725285986	 0.135357
H	 3.4405197231	-3.9420751007	-2.9188955676	 0.14126
H	 3.9292565066	-2.6008124973	-3.9167301491	 0.141256
H	 6.2043172108	-2.5634081446	-2.7698068824	 0.134457
H	 5.7099322406	-3.9202716216	-1.7603389763	 0.134468
H	 5.8828576167	-4.1420614652	-3.5114679282	 0.116695
44.9573	49.7747	89.0699	98.9227	179.1144	194.8531	205.7924	257.6491	305.7225	340.5332	375.1641	450.9686	568.6423	602.505	671.4068	778.3395	808.8424	857.1635	933.1584	994.8554	1014.7927	1064.8906	1086.3219	1097.4727	1106.9341	1147.6057	1159.1251	1182.3403	1277.4538	1312.9434	1367.4112	1374.2982	1390.3736	1411.7279	1418.498	1455.2988	1479.2251	1493.5118	1495.9428	1500.03	1504.8236	1776.9568	1836.0087	3022.6314	3035.1471	3043.4264	3043.803	3054.0062	3072.5671	3104.5246	3109.9754	3126.5767	3129.8074	3154.8349
CCN=COC(=O)CC	CCN=COC(=O)CC	
InChI=1S/C6H11NO2/c1-3-6(8)9-5-7-4-2/h5H,3-4H2,1-2H3	InChI=1S/C6H11NO2/c1-3-6(8)9-5-7-4-2/h5H,3-4H2,1-2H3
