16
gdb 43199	2.65713	1.71898	1.24611	2.3703	70.01	-0.2408	-0.0481	0.1927	997.7606	0.124771	-437.826313	-437.818864	-437.81792	-437.858528	27.953	
O	 0.0285646661	 0.1448875207	-0.7802824526	-0.308644
C	-0.0327613544	 1.2221505612	-0.2606737227	 0.352875
C	-1.1693113322	 2.1507720258	 0.2463219989	-0.019041
O	-1.3479842786	 2.024431278	 1.6731960913	-0.285746
C	-0.4998352306	 3.1727345585	 1.9344133504	-0.078652
C	-0.1021288146	 3.2818121146	 0.4537672342	-0.200254
C	 0.9963038504	 2.2938104744	 0.0366090645	 0.243247
C	 2.38852732	 2.076749365	 0.5160313117	-0.289026
N	 2.1397634772	 2.5892108266	-0.8305798176	-0.362588
H	-2.1059669525	 2.2187917617	-0.3120399865	 0.098508
H	-1.0916412501	 4.0157825832	 2.3099067375	 0.110569
H	 0.3024385831	 2.9435836779	 2.6445674071	 0.111806
H	-0.119274607	 4.2457104627	-0.0487953578	 0.106059
H	 2.8227284649	 2.7957469727	 1.2053886363	 0.132308
H	 2.7168562883	 1.0481515517	 0.6416487174	 0.136975
H	 2.2313779101	 1.8388313352	-1.5151150119	 0.251604
83.8398	167.6701	207.0372	234.7698	238.3967	375.3015	463.5868	609.2009	653.2666	772.1507	798.2481	808.7276	845.3395	910.5183	936.5843	967.4714	982.0401	992.9133	1011.6735	1051.352	1075.4163	1085.3396	1121.6742	1154.2783	1173.6587	1192.3173	1256.1878	1265.9051	1273.3037	1289.3746	1346.9375	1403.6938	1501.2066	1519.6751	1879.7224	3024.6238	3074.3327	3089.6151	3108.0213	3151.3066	3199.809	3471.6153
O=C1C2OCC2C11CN1	O=C1[C@H]2OC[C@H]2[C@]21CN2	
InChI=1S/C6H7NO2/c8-5-4-3(1-9-4)6(5)2-7-6/h3-4,7H,1-2H2	InChI=1S/C6H7NO2/c8-5-4-3(1-9-4)6(5)2-7-6/h3-4,7H,1-2H2/t3-,4+,6+/m1/s1
