14
gdb 28254	4.99516	1.25446	1.01632	1.7281	64.7	-0.1645	0.04	0.2045	1078.2811	0.102348	-473.80871	-473.801452	-473.800508	-473.840167	27.802	
O	 0.2083202889	 1.2852494885	 0.2243861223	-0.423577
C	 0.1955476804	-0.0524999741	 0.0050954433	 0.391233
C	 0.1016353283	-0.8021701238	-1.1524544241	-0.455571
C	-0.1340638374	-2.1251171608	-0.6828676875	 0.277285
C	-0.1790907844	-2.121787088	 0.6730154096	 0.221231
N	 0.1180555516	-0.8545565866	 1.1304620197	-0.397048
O	 0.1274989587	-3.3666452153	 1.191553126	-0.267934
C	-0.1670788527	-4.184261877	 0.0475034892	 0.008496
O	 0.0872701747	-3.4107094845	-1.1343859392	-0.267505
H	 0.1298985103	 1.7347446084	-0.6224347954	 0.31135
H	 0.1475091567	-0.4310729066	-2.1636884344	 0.10316
H	-0.1168600398	-0.4744981355	 2.0337115661	 0.270055
H	 0.473368021	-5.0667102621	 0.0560495135	 0.130502
H	-1.2367018562	-4.4498095527	 0.0712563311	 0.098322
148.4486	217.3256	262.5517	273.8125	315.7216	337.0982	466.8134	524.6435	572.8183	607.1515	651.5982	705.2482	742.0516	754.4298	861.4768	911.5145	1007.7557	1054.8916	1097.7011	1139.4021	1161.4512	1189.2859	1246.4444	1283.1043	1398.2107	1425.1684	1486.6066	1510.2586	1518.3851	1576.7924	1636.2054	2966.9333	3130.171	3253.0234	3642.9928	3848.2604
OC1=CC2=C(N1)OCO2	Oc1cc2c([nH]1)OCO2	
InChI=1S/C5H5NO3/c7-4-1-3-5(6-4)9-2-8-3/h1,6-7H,2H2	InChI=1S/C5H5NO3/c7-4-1-3-5(6-4)9-2-8-3/h1,6-7H,2H2
