18
gdb 9765	3.21545	1.69496	1.55542	1.6757	63.12	-0.2541	0.0826	0.3367	911.7197	0.153629	-422.075615	-422.067476	-422.066532	-422.10817	30.118	
C	-0.1036757919	 1.6321327594	-0.0022018968	-0.436183
C	-0.027792786	 0.1122188818	-0.069925988	 0.351972
C	-1.4213830422	-0.5369120476	-0.1144825867	-0.082393
O	-2.122610108	-0.3314761285	 1.0930157024	-0.424456
C	 0.8835665912	-0.429817731	-1.1881531632	-0.163039
O	 1.497819051	-1.5669389233	-0.5996057553	-0.235438
C	 1.7142068794	-1.1904704878	 0.7340770793	 0.018753
O	 0.6119949814	-0.3941429621	 1.1294978662	-0.314575
H	 0.8836099346	 2.0605880888	 0.1903573615	 0.117114
H	-0.4816121984	 2.0383080527	-0.9468895451	 0.116487
H	-0.7850364856	 1.9351404328	 0.7958873606	 0.141652
H	-2.0221386663	-0.0899733743	-0.9145391185	 0.103426
H	-1.3003439485	-1.6091196436	-0.3358117418	 0.092221
H	-1.5148259784	-0.6067021934	 1.7913602757	 0.289196
H	 0.3359458702	-0.7561410838	-2.0757123773	 0.121831
H	 1.63491661	 0.3187074875	-1.4827979753	 0.096139
H	 1.7692677892	-2.0912182588	 1.3532813431	 0.119495
H	 2.6466680883	-0.6059131589	 0.8326828893	 0.087799
70.9097	138.7217	199.0304	235.9923	268.8209	324.4997	337.6859	408.1461	475.1321	502.5145	663.7054	735.1648	785.8948	898.6373	906.1872	954.3946	981.742	1000.1749	1045.4045	1084.1585	1116.0464	1141.4333	1167.3312	1196.4498	1223.1934	1243.6212	1260.9671	1291.1036	1363.1092	1384.7588	1408.0412	1420.3105	1443.2584	1481.1962	1498.8479	1503.346	1509.225	1545.6128	2940.1748	2981.9994	2990.0643	3040.2421	3067.8495	3077.4962	3101.8409	3111.056	3134.4192	3775.3015
CC1(CO)COCO1	C[C@@]1(CO)COCO1	
InChI=1S/C5H10O3/c1-5(2-6)3-7-4-8-5/h6H,2-4H2,1H3	InChI=1S/C5H10O3/c1-5(2-6)3-7-4-8-5/h6H,2-4H2,1H3/t5-/m1/s1
