18
gdb 35871	2.13001	1.73719	1.19231	3.4361	75.04	-0.2531	0.0169	0.27	1076.8626	0.150295	-398.109451	-398.101376	-398.100432	-398.14293	30.515	
N	 0.0158831868	-1.2107753343	 0.3404122248	-0.333766
C	 0.0035721506	-0.0634395008	 0.202484801	 0.322635
C	 0.0238309592	 1.3976350965	 0.0025455171	-0.262654
N	-0.6846176721	 2.0650414312	 1.1021538663	-0.277557
C	 0.3453549999	 2.2633701305	 2.1405865514	-0.18577
C	 1.6675358745	 2.5764077755	 1.4024429934	-0.286051
C	 1.4780068565	 1.9437781598	 0.0194881292	 0.346692
C	 2.5538914539	 1.3339310994	-0.7929737525	-0.28573
N	 2.0174134318	 2.664103276	-1.1417282396	-0.35879
H	-0.4760901384	 1.6052185522	-0.9492439375	 0.120116
H	-0.9943207603	 2.9712291044	 0.763218774	 0.230435
H	 0.0329875484	 3.0483626192	 2.8318362855	 0.115321
H	 0.4336890841	 1.3336750766	 2.7136140573	 0.132617
H	 1.8106806969	 3.6539851827	 1.2796655848	 0.120481
H	 2.5423419653	 2.1808071745	 1.9248784743	 0.115961
H	 3.574710532	 1.3349708158	-0.4209905164	 0.126892
H	 2.3040392271	 0.4830818621	-1.4222843565	 0.12923
H	 1.3939862039	 2.5860147689	-1.9426725464	 0.229939
31.746	142.4427	147.5282	272.0146	304.0208	353.4649	397.2047	478.4664	533.403	580.1175	655.894	788.7323	812.8142	845.8631	854.3591	912.9467	923.3064	936.6484	969.9393	980.1688	998.2387	1070.8978	1100.6719	1110.3195	1135.3538	1198.8523	1220.0109	1240.3126	1262.9946	1294.1619	1297.092	1348.8679	1355.8005	1398.0575	1465.7755	1489.5244	1505.69	1515.4918	2356.0023	3048.9357	3058.8612	3060.961	3103.3214	3106.8003	3119.6236	3192.4543	3484.1159	3511.6174
N#CC1NCCC11CN1	N#C[C@H]1NCC[C@]21CN2	
InChI=1S/C6H9N3/c7-3-5-6(4-9-6)1-2-8-5/h5,8-9H,1-2,4H2	InChI=1S/C6H9N3/c7-3-5-6(4-9-6)1-2-8-5/h5,8-9H,1-2,4H2/t5-,6-/m1/s1
