21
gdb 109580	2.0839	1.4515	1.07299	3.436	73.46	-0.2469	0.0407	0.2876	1205.0452	0.181541	-461.339684	-461.329703	-461.328759	-461.374168	37.482	
C	 0.7570746658	 1.5267335865	 0.2041459934	-0.417946
C	 0.1085337049	 0.1536648307	 0.0535563374	-0.074229
C	 0.7787257981	-0.8028130647	-0.9900616729	 0.115294
O	 1.6352067471	-0.2652814332	-1.9705784318	-0.425406
C	 1.3805739844	-1.6607658975	 0.1703815766	-0.091602
C	 2.8817762022	-1.496240583	 0.4216665284	-0.072147
O	 3.2905753316	-2.1544895204	 1.6046400311	-0.431748
C	 0.4640828842	-0.8932717453	 1.1618890496	 0.093733
O	 1.1620169087	-0.4331844431	 2.312556461	-0.42797
H	 1.8217131684	 1.4656109933	 0.4487107407	 0.124117
H	 0.6472378116	 2.101482269	-0.7203729168	 0.128387
H	 0.2832521148	 2.0959030833	 1.0101657002	 0.111656
H	-0.9670526788	 0.2819369877	-0.1039547841	 0.068283
H	 0.0296748467	-1.3656891314	-1.5523490374	 0.090211
H	 2.2930860511	 0.2872551306	-1.5371269903	 0.285805
H	 1.1719218983	-2.7322012897	 0.1075474708	 0.078365
H	 3.435500084	-1.9518159382	-0.4054536179	 0.115942
H	 3.1652529344	-0.4316471778	 0.4514655239	 0.074156
H	 2.796827557	-1.7306205978	 2.3178167905	 0.289898
H	-0.4079390362	-1.4862785816	 1.4624980533	 0.073116
H	 0.5349534719	-0.0317711475	 2.9211460145	 0.292084
69.2307	154.3658	166.0548	186.6326	229.4031	237.335	243.5976	260.7077	327.2597	351.5868	465.5058	489.1622	523.3057	546.4293	610.6849	776.4224	784.5596	797.5421	844.5717	920.5072	977.2318	1020.8151	1041.1568	1080.3854	1106.6713	1115.3487	1135.0312	1157.8948	1168.5742	1214.1557	1243.9746	1262.512	1281.4049	1302.0644	1313.3385	1336.8621	1365.7623	1399.0507	1405.8902	1425.6612	1447.1529	1449.9721	1494.2597	1500.5513	1507.9403	2966.1421	3020.1643	3039.6714	3049.0718	3064.2198	3075.9488	3084.4643	3102.6264	3113.8868	3777.4872	3824.0475	3831.118
CC1C(O)C(CO)C1O	C[C@H]1[C@@H](O)[C@@H](CO)[C@H]1O	
InChI=1S/C6H12O3/c1-3-5(8)4(2-7)6(3)9/h3-9H,2H2,1H3	InChI=1S/C6H12O3/c1-3-5(8)4(2-7)6(3)9/h3-9H,2H2,1H3/t3-,4+,5+,6-
