17
gdb 49532	2.72528	1.61811	1.20891	2.486	74.39	-0.2409	0.0095	0.2504	1032.8591	0.13639	-417.917251	-417.909767	-417.908823	-417.949287	28.999	
O	 0.2420765716	 0.1303903029	 0.6815873479	-0.31342
C	 0.1678343763	 1.2777224235	 0.3032000472	 0.139316
N	 1.1334322043	 1.9274713764	-0.4318826116	-0.071024
C	 2.6147735407	 1.7128365213	-0.2437314539	-0.138325
C	 2.8120223463	 2.9630066457	-1.1557347539	-0.222628
C	 1.6669267378	 3.3205350107	-0.1649539893	-0.129056
C	 2.5393913014	 2.6961945903	 0.9502148022	 0.459759
C	 2.4294299352	 2.5336395508	 2.4008683272	-0.344937
N	 3.5443937383	 3.3145930099	 1.7745729862	-0.407696
H	-0.7425971296	 1.9001321781	 0.425618733	 0.074058
H	 3.063098057	 0.7238844469	-0.3096244726	 0.114508
H	 3.7431707782	 3.5154823411	-1.0318197845	 0.118889
H	 2.5127649575	 2.8373730086	-2.196287975	 0.114979
H	 1.0212275616	 4.1970207956	-0.1432681972	 0.104193
H	 1.7329706437	 3.1344217772	 2.9788303153	 0.129613
H	 2.6525581672	 1.5591927884	 2.8262121063	 0.134203
H	 4.4038389726	 2.7697505825	 1.7833814226	 0.237569
90.9142	177.3611	209.1028	286.4045	296.7069	339.4116	460.5628	547.0112	619.4779	695.6968	747.519	799.2106	830.4583	888.9652	896.5665	930.6059	964.0179	971.894	1018.6008	1030.6565	1041.8843	1069.4614	1107.8837	1121.6396	1126.9961	1167.4334	1195.2924	1215.5399	1230.6905	1248.1672	1253.4208	1332.2822	1416.2897	1444.999	1490.286	1531.4295	1790.2611	2922.2715	3089.9576	3113.9519	3139.3507	3152.5084	3170.825	3200.1681	3494.1843
O=CN1C2CC1C21CN1	O=CN1[C@H]2C[C@@H]1[C@]12CN1	
InChI=1S/C6H8N2O/c9-3-8-4-1-5(8)6(4)2-7-6/h3-5,7H,1-2H2	InChI=1S/C6H8N2O/c9-3-8-4-1-5(8)6(4)2-7-6/h3-5,7H,1-2H2/t4-,5+,6+
