17
gdb 6318	4.14813	1.0521	1.01016	3.3129	67.32	-0.2497	-0.0311	0.2186	1217.3619	0.138936	-401.048854	-401.039115	-401.038171	-401.086177	32.445	
C	 0.1560062547	 1.596161675	 0.3001176903	-0.395841
C	-0.0220407901	 0.1252775915	-0.0701604878	-0.051412
N	 0.6436039142	-0.2427737859	-1.3096987379	-0.330298
C	-0.0455099361	-0.69178289	-2.4085185142	 0.413492
C	 0.7994414444	-0.9112672269	-3.6520953468	-0.489217
O	-1.2466648662	-0.8839220474	-2.3910441835	-0.362485
C	 0.4268722721	-0.8217258879	 1.0390662851	 0.148784
O	 0.6937360445	-0.4842098636	 2.1624283903	-0.238723
H	 1.2154693668	 1.8469287772	 0.4171111107	 0.119178
H	-0.2735085429	 2.2380968471	-0.4724573389	 0.126198
H	-0.3340148739	 1.8041284275	 1.2535346009	 0.144546
H	-1.0822119583	-0.0991774164	-0.2551157572	 0.150985
H	 1.6281634727	-0.0472182667	-1.3975649246	 0.247397
H	 1.8667335929	-1.0137618297	-3.4388063634	 0.117842
H	 0.4430375837	-1.8066011936	-4.1639682032	 0.157802
H	 0.6601167782	-0.0634366197	-4.3305059456	 0.155222
H	 0.4944650531	-1.8841685803	 0.7125374957	 0.08653
10.4305	48.3057	68.8771	101.8241	187.2323	220.6179	261.7669	352.0461	400.666	447.9987	466.6664	582.3363	630.2752	677.4756	830.5554	905.0639	928.4895	984.5694	1024.0994	1050.9444	1113.1702	1148.1655	1173.49	1252.0568	1323.6949	1338.2076	1395.2347	1399.7994	1419.2433	1466.9079	1486.2698	1488.3422	1491.1346	1523.3351	1783.1642	1834.0571	2883.8752	3029.6719	3048.0662	3049.0663	3118.0276	3118.1517	3141.4105	3146.9545	3633.9921
CC(NC(C)=O)C=O	C[C@@H](NC(=O)C)C=O	
InChI=1S/C5H9NO2/c1-4(3-7)6-5(2)8/h3-4H,1-2H3,(H,6,8)	InChI=1S/C5H9NO2/c1-4(3-7)6-5(2)8/h3-4H,1-2H3,(H,6,8)/t4-/m1/s1
