19
gdb 95896	2.97992	1.10004	0.84221	2.9742	80.64	-0.2496	-0.055	0.1946	1344.8745	0.159583	-423.058873	-423.05021	-423.049266	-423.092325	32.603	
O	-0.0660309905	 1.4483715545	 0.000094299	-0.429785
C	 0.0109384871	 0.0256193139	-0.0189342575	 0.087878
C	-1.4165779083	-0.5147344429	 0.0698818736	-0.205675
C	-1.4515089319	-2.0156216319	-0.2411872043	-0.231026
C	-0.95617536	-2.3018223019	-1.6661218303	-0.292333
C	 0.2799895164	-1.5064415127	-2.0016476343	 0.215739
C	 1.0486117255	-1.8775417145	-3.2052554189	 0.096696
O	 0.7647265867	-2.79433707	-3.942350619	-0.273245
C	 0.7047756374	-0.4719568893	-1.2622230769	-0.161464
H	 0.8270252709	 1.8015415011	 0.0677490921	 0.283531
H	 0.5817246414	-0.3293156617	 0.8581981195	 0.08188
H	-1.8240309962	-0.301959259	 1.0624037095	 0.104426
H	-2.0266134917	 0.0377494049	-0.6549728439	 0.113965
H	-0.8182959056	-2.5507642585	 0.4787093366	 0.101986
H	-2.4659655431	-2.4050554928	-0.1109451028	 0.103904
H	-0.7491151653	-3.3667897549	-1.8132090906	 0.125437
H	-1.7376093948	-2.057763278	-2.3988304512	 0.123479
H	 1.9396815304	-1.237269076	-3.3979108833	 0.064728
H	 1.6080219917	 0.0607477798	-1.5626399275	 0.089879
92.9608	104.6604	192.7801	237.7165	252.2957	263.8278	356.6625	394.5834	440.5549	450.2554	532.1036	591.8362	704.9806	782.7278	845.5263	868.1515	903.5062	934.4911	967.2598	1034.1859	1052.8545	1068.6936	1090.2017	1107.0115	1148.0632	1185.6919	1209.779	1257.8259	1289.025	1322.192	1346.2912	1364.7203	1373.2387	1398.9848	1415.4221	1437.5609	1473.0226	1491.8205	1498.5697	1703.4935	1791.0763	2869.7523	2932.3938	3019.1679	3026.0262	3041.0487	3074.9012	3080.4604	3092.593	3121.0624	3814.8289
OC1CCCC(C=O)=C1	O[C@H]1CCCC(=C1)C=O	
InChI=1S/C7H10O2/c8-5-6-2-1-3-7(9)4-6/h4-5,7,9H,1-3H2	InChI=1S/C7H10O2/c8-5-6-2-1-3-7(9)4-6/h4-5,7,9H,1-3H2/t7-/m0/s1
