19
gdb 71734	2.49766	2.11873	1.50602	1.2433	77.3	-0.2224	0.0887	0.3111	948.676	0.159213	-385.845649	-385.838065	-385.837121	-385.877132	30.826	
C	 0.0345105347	 1.4366653082	-0.0645092092	-0.494871
C	 0.0347561176	-0.0600400438	-0.00366136	 0.388516
O	 0.1453387095	-0.6917440788	-1.2558965332	-0.266906
C	 0.0971988811	-2.0407871004	-0.8962615602	 0.064332
C	-0.7890608322	-2.2780567975	 0.3121133038	-0.130258
C	 0.7321490248	-2.2919727043	 0.4537508916	-0.194962
C	 0.6894738295	-0.8857804591	 1.0976727393	 0.267354
C	 1.5867183646	-0.3962038773	 2.1923720622	-0.520469
C	-0.8366812041	-0.8774935117	 0.9443436311	-0.222992
H	 0.9712067442	 1.8114687746	-0.4890858554	 0.129606
H	-0.7911207956	 1.7946623435	-0.6872484228	 0.131958
H	-0.0844451851	 1.8636392259	 0.9345071101	 0.123155
H	 0.1683185141	-2.7320444821	-1.7250644657	 0.104125
H	-1.5155779973	-3.072755883	 0.407390875	 0.089043
H	 1.4174140076	-3.095377722	 0.6885709175	 0.086529
H	 2.6325671219	-0.3653403892	 1.8628829658	 0.122393
H	 1.3115582517	 0.6136441907	 2.513294973	 0.11936
H	 1.5351624104	-1.0459309428	 3.0736321994	 0.121779
H	-1.6076088873	-0.4640159809	 1.5811103076	 0.08231
174.246	188.362	215.3221	218.8207	300.7887	338.5954	528.9	584.909	634.8413	650.0788	715.0084	755.8089	762.7406	766.1294	827.9656	867.2298	898.4362	916.8664	924.0178	953.9807	980.9189	1002.9936	1035.1937	1049.9282	1100.6643	1107.7698	1120.9472	1159.9106	1177.8455	1187.7239	1220.8151	1277.4522	1348.0075	1368.827	1414.9914	1417.2166	1438.6302	1477.1058	1485.8433	1495.7168	1507.0348	3019.5467	3040.8532	3076.029	3095.1906	3105.2687	3121.4737	3196.8096	3200.1789	3210.6053	3221.7593
CC12OC3C4C3C1(C)C24	C[C@@]12O[C@@H]3[C@H]4[C@@H]3[C@]1(C)[C@@H]24	
InChI=1S/C8H10O/c1-7-4-3-5(4)9-8(7,2)6(3)7/h3-6H,1-2H3	InChI=1S/C8H10O/c1-7-4-3-5(4)9-8(7,2)6(3)7/h3-6H,1-2H3/t3-,4+,5-,6+,7-,8+/m1/s1
