19
gdb 33403	1.8684	1.52534	0.89826	1.0728	81.28	-0.2594	0.047	0.3064	1303.9544	0.15732	-385.813843	-385.804651	-385.803707	-385.848387	34.056	
C	 0.1472473605	-1.4623325375	-0.3246101166	-0.453079
C	 0.0916767188	-0.2714419945	-0.1710892827	 0.329218
C	 0.0333745301	 1.1840785133	-0.0291938599	-0.240769
C	 1.4282361867	 1.7924387143	 0.0836848869	 0.031897
C	 1.5973702483	 3.1550311111	 0.7026995313	-0.269368
C	 2.0884464437	 1.9270924708	 1.43008988	-0.274508
C	-0.7422006196	 1.7915247799	-1.1937397135	 0.098891
C	-2.194231749	 1.9770932517	-1.1409499307	-0.179339
O	-1.3002553156	 3.0830951648	-0.9675871906	-0.236768
H	 0.1936095042	-2.5166149692	-0.4427878516	 0.195723
H	-0.5228588232	 1.4325069211	 0.8851666182	 0.103614
H	 2.0775434484	 1.5473864232	-0.7520915722	 0.091211
H	 2.3294948542	 3.8258890478	 0.2676997284	 0.112695
H	 0.7067555921	 3.6501815115	 1.0724782629	 0.126835
H	 1.5334320978	 1.5949172245	 2.3014690026	 0.114005
H	 3.1569064298	 1.7554950906	 1.495400644	 0.114014
H	-0.271087354	 1.6659444379	-2.1695220175	 0.101072
H	-2.7752801396	 1.9851614519	-2.0614171764	 0.118281
H	-2.7405653236	 1.6741849669	-0.2486552826	 0.116375
71.6043	76.5719	132.4047	148.1734	174.0548	322.716	329.5292	382.8214	457.7472	508.0397	517.5662	634.6602	642.7099	766.6645	827.5668	844.3549	860.4644	877.987	928.0671	955.5479	972.1277	1022.1954	1061.2921	1078.1038	1096.6555	1120.0539	1135.932	1156.6248	1168.9287	1176.2205	1196.33	1227.0099	1265.8746	1287.0003	1292.5016	1408.4988	1434.2663	1474.4928	1508.5679	1529.5869	2235.1854	3013.7184	3085.9913	3104.9512	3133.1879	3141.826	3148.4825	3173.9078	3213.0208	3229.9035	3503.7985
C#CC(C1CC1)C1CO1	C#C[C@@H](C1CC1)[C@H]1CO1	
InChI=1S/C8H10O/c1-2-7(6-3-4-6)8-5-9-8/h1,6-8H,3-5H2	InChI=1S/C8H10O/c1-2-7(6-3-4-6)8-5-9-8/h1,6-8H,3-5H2/t7-,8+/m0/s1
