19
gdb 15340	3.78377	1.05039	0.88546	1.4705	82.49	-0.2186	0.0427	0.2614	1366.0224	0.16344	-327.87655	-327.866982	-327.866037	-327.912692	33.152	
C	 0.2802452559	 1.6372629738	-0.056774261	-0.375086
C	-0.2369435884	 0.2110857414	-0.2228537943	-0.111323
N	 0.5591936778	-0.4979767194	-1.2233245703	-0.079893
C	 1.7377559928	-1.2025894383	-0.7494720739	-0.243841
C	 0.5376392532	-1.973675745	-1.2174786886	-0.182248
C	-0.2563359423	-2.7254492698	-0.2828500085	 0.111258
C	-0.9494272124	-3.3748137138	 0.4596709275	 0.040445
C	-1.7752062538	-4.1624819388	 1.3631164406	-0.498845
H	 1.3106737741	 1.640474126	 0.3140896407	 0.116128
H	 0.2646730747	 2.1679705882	-1.0129011872	 0.126086
H	-0.3372359495	 2.188952555	 0.6587773916	 0.111179
H	-0.2406512081	-0.3084043531	 0.7485368541	 0.093145
H	-1.2736220601	 0.2245022233	-0.5784060416	 0.105415
H	 2.6223980807	-1.1446478592	-1.3783912635	 0.116185
H	 1.9315579352	-1.2176313103	 0.322136796	 0.114046
H	 0.5710136678	-2.3963402207	-2.2196675684	 0.109961
H	-2.821756892	-3.8388899114	 1.3347913832	 0.14874
H	-1.7508238883	-5.2242179835	 1.0935229758	 0.150647
H	-1.4287915073	-4.0769077244	 2.3990978279	 0.148002
15.5787	79.3397	84.5578	135.0631	211.3957	229.5817	287.0091	312.999	383.2506	419.6046	513.1348	593.4174	716.7996	745.9718	809.4096	882.8394	940.8751	986.3636	1045.4409	1052.3573	1053.1807	1073.693	1108.1619	1116.8625	1135.7952	1197.9263	1204.0184	1306.7954	1319.7014	1377.8657	1384.6424	1410.2687	1414.6494	1476.5279	1478.9555	1488.2853	1489.4448	1501.2964	1516.8564	2362.486	2978.1831	3025.0338	3037.4485	3055.6293	3084.5439	3086.8845	3089.9567	3106.1132	3117.5307	3119.1756	3179.1766
CCN1CC1C#CC	CCN1C[C@H]1C#CC	
InChI=1S/C7H11N/c1-3-5-7-6-8(7)4-2/h7H,4,6H2,1-2H3	InChI=1S/C7H11N/c1-3-5-7-6-8(7)4-2/h7H,4,6H2,1-2H3/t7-,8?/m1/s1
