16
gdb 22651	4.02537	0.93203	0.76387	2.3624	84.44	-0.2379	-0.0841	0.1537	1398.6299	0.123669	-437.878058	-437.869559	-437.868615	-437.91216	30.559	
O	-0.1075775448	 1.3529669401	 0.0089898442	-0.386222
N	 0.0313238166	-0.0392320619	 0.0045519632	-0.22543
C	-1.1052576457	-0.6306327095	 0.0109779107	 0.393646
C	-1.2252475433	-2.1482632104	 0.0080235526	-0.312807
C	-2.7545284227	-2.4180600213	 0.0180801055	-0.322063
C	-3.3722218751	-1.0394638283	 0.0257664783	 0.22153
C	-4.8200671164	-0.8106618307	 0.0364176082	 0.079628
O	-5.6417973091	-1.7014747104	 0.0399471849	-0.264398
C	-2.4454825406	-0.0593981265	 0.0217235547	-0.240092
H	 0.8084539327	 1.6506861745	 0.0033651538	 0.312055
H	-0.738918339	-2.5730237236	-0.8741716056	 0.134008
H	-0.7265801648	-2.5774323068	 0.8811489543	 0.134008
H	-3.0895305269	-2.9881418668	-0.8545543243	 0.133107
H	-3.0772841204	-2.9923810188	 0.8925498902	 0.133108
H	-5.1254062871	 0.2584928487	 0.0411651754	 0.075682
H	-2.6413312332	 1.0043671617	 0.0257137938	 0.134239
43.1808	95.3843	152.4363	233.813	248.0194	254.4557	398.4143	436.592	471.9341	497.2165	592.3361	689.3295	730.8513	810.937	874.8576	892.7664	914.2824	968.1283	1009.838	1015.4284	1046.3984	1163.9758	1169.1544	1224.0323	1232.4831	1278.7374	1307.2826	1370.3045	1402.0212	1420.058	1469.4425	1489.4518	1646.0325	1703.8075	1777.7383	2894.026	3052.8076	3067.7391	3078.8987	3105.8849	3235.1039	3818.8048
ON=C1CCC(C=O)=C1	ON=C1CCC(=C1)C=O	
InChI=1S/C6H7NO2/c8-4-5-1-2-6(3-5)7-9/h3-4,9H,1-2H2	InChI=1S/C6H7NO2/c8-4-5-1-2-6(3-5)7-9/h3-4,9H,1-2H2
