16
gdb 52830	2.73341	0.99374	0.95314	4.6145	74.3	-0.255	-0.0033	0.2518	1342.2613	0.122776	-437.873521	-437.863878	-437.862934	-437.910316	32.928	
C	 0.0063521369	 1.5067470004	-0.0632955767	-0.499811
C	 0.038916921	 0.0528219985	-0.0165049158	 0.041518
C	 0.0557554281	-1.1516186923	 0.0196043537	 0.05778
C	 0.0998479849	-2.6063528491	 0.0365514819	-0.073255
N	 1.0551054121	-3.2259311382	-0.8833707026	-0.557572
C	 0.0683425826	-3.2676451642	 1.4421634095	-0.082184
O	-1.243207118	-3.8544157202	 1.1540013622	-0.237687
C	-1.2811682882	-3.3112885469	-0.0937862011	 0.457067
O	-2.1143097206	-3.4231668913	-0.9312429168	-0.326578
H	 0.7620167463	 1.8981648242	-0.7529254598	 0.153553
H	-0.9713443804	 1.866698696	-0.4012203786	 0.159877
H	 0.1988843879	 1.9402673477	 0.9239715978	 0.153918
H	 0.6951810803	-3.1308051232	-1.829938475	 0.25122
H	 1.9294841224	-2.7077507673	-0.8588285241	 0.238235
H	 0.8176303352	-4.0466179506	 1.585407975	 0.134103
H	 0.0080906597	-2.5877886534	 2.2921695701	 0.129817
11.2357	80.6147	87.5726	143.6121	200.2456	227.9084	278.3308	308.0002	363.2562	425.0541	518.6912	549.6048	636.9334	739.0358	783.6921	882.878	897.3277	913.7482	976.3652	1035.4985	1050.6505	1053.1417	1126.6591	1160.8003	1213.6216	1253.2783	1288.3975	1350.5707	1413.8356	1475.5896	1476.1038	1500.5214	1653.1878	1943.9442	2360.9352	3030.7789	3086.9046	3093.4016	3094.7591	3161.8336	3483.3069	3560.5546
CC#CC1(N)COC1=O	CC#C[C@@]1(N)COC1=O	
InChI=1S/C6H7NO2/c1-2-3-6(7)4-9-5(6)8/h4,7H2,1H3	InChI=1S/C6H7NO2/c1-2-3-6(7)4-9-5(6)8/h4,7H2,1H3/t6-/m1/s1
