17
gdb 77963	3.67141	1.19325	1.01158	2.3211	75.32	-0.2442	0.042	0.2863	1161.5242	0.135345	-421.732826	-421.724831	-421.723886	-421.764887	32.117	
O	-0.0824581152	 1.5241052195	-0.0894280995	-0.453613
C	-0.0138442856	 0.1088962402	-0.0151238614	 0.125242
C	-0.0240634701	-0.5994983707	 1.3784618685	-0.165278
C	-1.5244629412	-0.1573900255	 1.5257415065	 0.177925
O	-1.8757199061	 1.1417920917	 1.8574011342	-0.455847
C	-1.3776401097	-0.6232382964	 0.0315655608	-0.134619
C	-0.5898638595	-1.8483359908	 0.6179594661	-0.194845
C	 0.2773126042	-2.6305482944	-0.2374372951	 0.315944
C	 0.9839070919	-3.3141904665	-0.9307949874	-0.437666
H	 0.8079104464	 1.8758188334	 0.0110426271	 0.293863
H	 0.7104864991	-0.2754102686	-0.7390071863	 0.094187
H	 0.7613498661	-0.6091931959	 2.1354295893	 0.079641
H	-2.1318053063	-0.821197906	 2.1485135736	 0.081741
H	-1.3599659326	 1.7271299339	 1.284047814	 0.288928
H	-2.1369299167	-0.6578661504	-0.7498116595	 0.086224
H	-1.2045452292	-2.499818172	 1.2454340652	 0.105618
H	 1.6071290645	-3.9152578514	-1.5455227159	 0.192553
139.5987	141.1478	281.6202	298.3844	326.2716	355.5064	389.3023	461.4295	489.3998	531.571	610.9693	623.9594	644.3861	690.8043	732.3641	825.1547	843.651	909.2547	926.4381	929.9545	1029.1982	1038.7628	1060.2505	1079.174	1126.7642	1141.0574	1180.4568	1193.925	1218.306	1224.2847	1272.7222	1306.4817	1348.2574	1376.4909	1452.3147	1503.0876	2230.9745	3064.6905	3067.899	3070.1544	3109.2254	3120.9953	3503.4602	3717.5869	3821.8486
OC1C2C(O)C1C2C#C	O[C@H]1[C@H]2[C@@H](O)[C@@H]1[C@H]2C#C	
InChI=1S/C7H8O2/c1-2-3-4-6(8)5(3)7(4)9/h1,3-9H	InChI=1S/C7H8O2/c1-2-3-4-6(8)5(3)7(4)9/h1,3-9H/t3-,4-,5+,6-,7+
