20
gdb 73541	2.54097	1.91148	1.55251	1.3076	78.49	-0.223	0.0735	0.2965	955.2583	0.172658	-403.036569	-403.029037	-403.028093	-403.068281	30.622	
C	-0.1126113637	 1.5376943837	-0.1436520455	-0.490792
C	-0.0087669741	 0.028180762	 0.0230364757	 0.34876
C	-1.4000671102	-0.5842984003	 0.2643297904	-0.167386
O	-1.4080502003	-0.9776862544	 1.663719677	-0.287717
C	-0.1328601969	-0.7690443497	 2.3151595088	-0.206139
C	 0.7852505221	-0.6899317683	 1.1263012085	 0.24601
C	 2.057690801	-0.1412364785	 0.4376268283	-0.269632
N	 1.2018474315	-0.6238542329	-0.7714621054	-0.20944
C	 0.9513244963	-1.8511423819	 0.1137724622	-0.193036
H	 0.8456319377	 2.0440040486	-0.2605582543	 0.124846
H	-0.7024332657	 1.754007434	-1.0413960515	 0.131028
H	-0.6377729241	 1.988564895	 0.7058169379	 0.128366
H	-2.1886780727	 0.1606603197	 0.1173611468	 0.100779
H	-1.6464483054	-1.455951886	-0.349437458	 0.114019
H	-0.1449314518	 0.1573882843	 2.9073830737	 0.096885
H	 0.0356131881	-1.6170532436	 2.9854940685	 0.109107
H	 2.2617497864	 0.9270193245	 0.4641922922	 0.108916
H	 2.9793631033	-0.7171545924	 0.5451461796	 0.106115
H	 1.8357747797	-2.4829758493	 0.2262729022	 0.095998
H	 0.0899493387	-2.4499916145	-0.1749722869	 0.113312
99.4231	178.4994	204.4442	311.6111	391.2974	412.8988	448.564	524.3962	572.881	637.7316	704.8156	757.8503	786.7272	799.3921	865.199	890.9881	917.504	932.166	958.3141	976.3768	1003.6841	1019.9931	1060.1345	1099.1688	1128.5222	1144.2396	1160.9788	1187.5766	1194.7313	1200.7271	1218.4117	1250.0295	1258.0458	1304.6426	1354.0033	1375.9581	1412.8632	1485.1786	1492.286	1510.8215	1517.958	1537.3717	1570.855	2997.4619	3035.1138	3042.8796	3071.5341	3075.6961	3078.9103	3082.4253	3091.3725	3134.7786	3155.824	3162.927
CC12COCC11CN2C1	C[C@]12COC[C@@]31CN2C3	
InChI=1S/C7H11NO/c1-6-4-9-5-7(6)2-8(6)3-7/h2-5H2,1H3	InChI=1S/C7H11NO/c1-6-4-9-5-7(6)2-8(6)3-7/h2-5H2,1H3/t6-/m0/s1
