17
gdb 28440	3.15346	1.31064	0.93117	2.1632	80.07	-0.202	0.0085	0.2105	1221.2511	0.135981	-421.904389	-421.895728	-421.894784	-421.938341	32.614	
C	-0.0709658061	 1.5344773063	-0.017152847	-0.49204
C	-0.0141613871	 0.0258522084	-0.0091896091	 0.321487
C	-0.1222572952	-0.707819834	-1.188517661	-0.208747
C	-0.0683986772	-2.1037951529	-1.1705343063	-0.234625
C	 0.0942292606	-2.775105542	 0.029734139	 0.238789
O	 0.1601779616	-4.1420498919	 0.1626171677	-0.472468
C	 0.2048413152	-2.0517772059	 1.2277284536	 0.339567
O	 0.3647958478	-2.7040188986	 2.4109658316	-0.448391
C	 0.1499702426	-0.6664356883	 1.1975369514	-0.294332
H	 0.8469711817	 1.9734839115	 0.3904213893	 0.128588
H	-0.2024099677	 1.9203209992	-1.0315814962	 0.119054
H	-0.9015406957	 1.9087175	 0.5923775445	 0.128576
H	-0.2499643122	-0.193268312	-2.1350913403	 0.086593
H	-0.1536424019	-2.668033373	-2.0958104669	 0.083404
H	 0.0763496122	-4.555415378	-0.7015452022	 0.301423
H	 0.3778505815	-3.6502613436	 2.2196561049	 0.306839
H	 0.2380052499	-0.1317319753	 2.137899657	 0.096284
25.3008	147.601	205.799	239.0082	291.1116	312.4996	361.8653	439.2382	445.0858	464.4062	510.8767	593.4026	606.4088	725.5608	732.4324	794.4162	801.3194	883.9702	894.2515	957.2034	1019.9518	1060.6277	1129.7309	1167.0902	1185.7934	1218.4893	1289.213	1316.6986	1353.1153	1387.6208	1413.3804	1484.0705	1486.5613	1511.6453	1553.4005	1645.8072	1666.7829	3027.1933	3078.3073	3111.2826	3154.4984	3181.5308	3184.3525	3787.9068	3841.9944
CC1=CC=C(O)C(O)=C1	Cc1ccc(O)c(O)c1	
InChI=1S/C7H8O2/c1-5-2-3-6(8)7(9)4-5/h2-4,8-9H,1H3	InChI=1S/C7H8O2/c1-5-2-3-6(8)7(9)4-5/h2-4,8-9H,1H3
