23
gdb 119909	2.62534	0.95893	0.88586	1.2255	83.41	-0.2306	0.08	0.3105	1492.9283	0.202002	-425.408986	-425.39787	-425.396926	-425.445088	40.502	
C	-0.1063618766	 1.476693807	 0.0841543719	-0.387335
C	-0.2038522988	-0.0153480575	 0.35007238	-0.031426
O	-1.2415799713	-0.5481868974	-0.4627064903	-0.253469
C	-1.4182493993	-1.9200860696	-0.3037144167	 0.037603
C	-2.3864986808	-2.4515228996	 0.7526275917	-0.083008
C	-3.0908528614	-1.5290487172	 1.722743366	-0.419047
C	-2.7420012218	-2.5079417962	-0.7151626256	 0.327267
C	-3.8190151095	-1.6362488634	-1.3174565106	-0.449326
O	-2.7026757642	-3.8185986849	-1.2295402286	-0.465544
H	 0.694401104	 1.9191729501	 0.6841992501	 0.115443
H	 0.1055571357	 1.665398303	-0.972101832	 0.126864
H	-1.0460591123	 1.97550936	 0.3386554603	 0.12519
H	 0.7485411762	-0.515360397	 0.1097507252	 0.088931
H	-0.4140659019	-0.2123130735	 1.4118601635	 0.094564
H	-0.5306248651	-2.5207845297	-0.5097352989	 0.081716
H	-2.1116180827	-3.4228205076	 1.1547991789	 0.093808
H	-3.1617398052	-0.5123263797	 1.3291360961	 0.127608
H	-4.1054569613	-1.8790488141	 1.9418511597	 0.118683
H	-2.5475929709	-1.4792050321	 2.6724449863	 0.115033
H	-3.769970154	-0.6143813959	-0.9392596346	 0.134234
H	-3.6965857093	-1.5858842863	-2.4066070895	 0.105738
H	-4.8101846769	-2.051421934	-1.1092392556	 0.120912
H	-2.4732273226	-3.7585596444	-2.1643049174	 0.275558
61.2032	95.1075	114.5234	173.5519	184.4799	212.9616	223.6756	250.2839	276.7716	289.874	346.5591	362.0418	417.4956	480.2466	515.4174	621.2659	713.8305	798.9659	817.9758	886.0626	903.2571	960.3605	988.1121	1028.5949	1052.3749	1075.0288	1089.3271	1126.5217	1150.5395	1159.1693	1182.9115	1188.17	1241.2318	1289.7723	1293.1337	1337.5499	1349.0432	1398.8865	1409.3923	1417.3979	1422.3274	1463.0599	1483.3696	1485.5435	1491.6901	1499.3285	1506.8134	1516.475	1527.5702	2971.7411	3008.8282	3028.2359	3034.4535	3044.2471	3086.0344	3088.0189	3089.9355	3118.4637	3119.4117	3120.8783	3144.6002	3151.3563	3782.9646
CCOC1C(C)C1(C)O	CCO[C@H]1[C@@H](C)[C@]1(C)O	
InChI=1S/C7H14O2/c1-4-9-6-5(2)7(6,3)8/h5-6,8H,4H2,1-3H3	InChI=1S/C7H14O2/c1-4-9-6-5(2)7(6,3)8/h5-6,8H,4H2,1-3H3/t5-,6+,7+/m1/s1
