22
gdb 16905	3.55679	1.69356	1.32564	0.2033	80.98	-0.258	0.0809	0.3389	1020.0188	0.203015	-313.082677	-313.074982	-313.074038	-313.114231	31.089	
C	 0.0140799708	 1.5748915422	 0.0238180882	-0.403763
C	 0.0144408026	 0.0442585791	-0.0156297511	 0.059951
C	 0.6768863274	-0.5007952249	-1.2891284349	-0.198635
C	 0.4779021309	-2.0185486336	-1.41541582	-0.227267
C	 0.8491129773	-2.7814114372	-0.1550488429	 0.002566
C	 2.1838458218	-2.5914803517	 0.5163424756	-0.287637
C	 0.9315323241	-2.0525092656	 1.1721880698	-0.031349
C	 0.6928904326	-0.5432126578	 1.2370817734	-0.213938
H	 1.0375954598	 1.9677537005	-0.0049907878	 0.110337
H	-0.526717789	 1.9954250469	-0.8308237368	 0.107311
H	-0.458316611	 1.9514412064	 0.9378294677	 0.107764
H	-1.0312610218	-0.2985172499	-0.0217869364	 0.066219
H	 0.2573542164	-0.0064930452	-2.1733218794	 0.088173
H	 1.7467619763	-0.2487159521	-1.2793177346	 0.091214
H	-0.5820696416	-2.2074152713	-1.6336682456	 0.093403
H	 1.0414723775	-2.4073668189	-2.2731485169	 0.091099
H	 0.4499591253	-3.7915554625	-0.117421244	 0.075571
H	 2.6691424346	-3.4583991738	 0.9520257064	 0.102255
H	 2.8745025985	-1.867394249	 0.0937133087	 0.104687
H	 0.5846399359	-2.6054712708	 2.039679522	 0.077362
H	 1.6480342041	-0.0225104372	 1.394199766	 0.0923
H	 0.0793496076	-0.3106050936	 2.1147543726	 0.092378
104.1319	194.7391	234.5362	300.4936	319.2003	361.806	401.2138	444.3753	505.993	631.2773	748.3654	770.5375	814.2465	849.8313	885.0365	903.1533	921.6633	935.7839	987.0966	1006.4785	1023.9877	1057.8533	1101.9455	1104.5131	1114.0055	1133.3019	1150.338	1172.4943	1203.2586	1236.7497	1263.2309	1290.0976	1320.2012	1333.2627	1366.3541	1375.5662	1383.14	1396.7851	1411.1915	1416.3863	1483.3372	1488.5388	1490.666	1497.9462	1500.1205	1505.9104	2986.1849	3005.2306	3008.3591	3011.1075	3022.4809	3042.2707	3053.8595	3057.499	3087.4615	3093.6829	3120.1548	3132.7876	3147.622	3203.6203
CC1CCC2CC2C1	C[C@H]1CC[C@H]2C[C@H]2C1	
InChI=1S/C8H14/c1-6-2-3-7-5-8(7)4-6/h6-8H,2-5H2,1H3	InChI=1S/C8H14/c1-6-2-3-7-5-8(7)4-6/h6-8H,2-5H2,1H3/t6-,7-,8+/m0/s1
