18
gdb 89931	3.02329	1.35744	1.10019	2.8597	77.62	-0.241	0.0074	0.2485	1131.6779	0.148891	-398.091463	-398.083215	-398.082271	-398.124165	31.586	
C	 0.2199239865	 1.6322658899	-0.0162475646	-0.396115
C	 0.037035062	 0.130148622	 0.0528851393	 0.067623
N	 0.9042334605	-0.6575124256	-0.8830232342	-0.376123
C	 1.2686820786	-1.6257698151	 0.1815118872	 0.227856
C	 2.6435100102	-1.311550802	 0.8309587744	-0.196478
N	 2.0103921321	-0.219598939	 1.6203736144	-0.310957
C	 0.6492417608	-0.6544805491	 1.2457043842	-0.0939
C	 0.8724686434	-3.0001497427	-0.0146762333	 0.18325
N	 0.5462669026	-4.0977682184	-0.1829452571	-0.343098
H	 1.2625156269	 1.8885849548	 0.1832653347	 0.141948
H	-0.0538923876	 2.0077666098	-1.007449682	 0.117226
H	-0.4161246178	 2.1333972994	 0.7219359645	 0.110892
H	-1.0238941297	-0.140177885	-0.0459443783	 0.077566
H	 0.4200391251	-1.0703637433	-1.6721112041	 0.232549
H	 3.0184647268	-2.1458456495	 1.4351413841	 0.113706
H	 3.4145223513	-0.976440015	 0.1319144056	 0.123348
H	 2.1998374768	-0.2648467197	 2.6132380653	 0.230466
H	-0.0120906285	-0.9669353114	 2.0546108598	 0.090242
97.5361	149.4435	184.0599	217.4542	241.4537	343.8347	389.9171	454.0344	531.4842	562.6742	586.3553	624.4093	704.162	744.6551	817.072	894.3782	905.5683	974.3819	986.1505	1019.971	1036.2541	1058.1759	1097.9332	1105.6787	1142.5485	1159.8625	1192.1438	1213.3317	1259.79	1314.7545	1348.8543	1362.37	1391.551	1395.8301	1413.2163	1484.4446	1494.2966	1497.7212	2341.7586	2998.7062	3030.6106	3037.2803	3098.9881	3100.9544	3104.7235	3136.6321	3544.7422	3563.5906
CC1NC2(CNC12)C#N	C[C@H]1N[C@]2(CN[C@@H]12)C#N	
InChI=1S/C6H9N3/c1-4-5-6(2-7,9-4)3-8-5/h4-5,8-9H,3H2,1H3	InChI=1S/C6H9N3/c1-4-5-6(2-7,9-4)3-8-5/h4-5,8-9H,3H2,1H3/t4-,5+,6+/m1/s1
