12
gdb 21636	7.21331	1.38614	1.164	5.0757	62.22	-0.2402	-0.0563	0.1839	937.4029	0.085671	-410.856805	-410.850138	-410.849194	-410.887674	24.209	
N	-0.0810425121	 1.3645045669	 0.1462625768	-0.587097
C	 0.0075235873	-0.0060319436	 0.0418552736	 0.348261
N	-1.0484543274	-0.7992344419	 0.0306999437	-0.300857
N	-0.504787552	-2.0444088898	-0.00326283	 0.070219
C	-1.3351964455	-3.1791973863	-0.0205290067	 0.205513
O	-0.9395184821	-4.307351028	-0.060679755	-0.256373
N	 0.8333103523	-2.0845337934	-0.0221935909	-0.179551
C	 1.1848373388	-0.8162966474	 0.0073611807	-0.082579
H	 0.6630273089	 1.8783689716	-0.3010586865	 0.261267
H	-0.9946269409	 1.7343743452	-0.0748743284	 0.266621
H	-2.3881020447	-2.856946718	 0.007431762	 0.119911
H	 2.2227972174	-0.5199115351	 0.0074832605	 0.134666
112.3559	213.4515	267.6923	296.2544	349.66	386.7515	527.4736	602.4659	651.3181	731.6754	749.4957	836.0058	871.4163	972.6742	1028.8609	1030.8811	1127.9956	1212.557	1277.3425	1348.6056	1417.9488	1450.6749	1489.9906	1611.5659	1662.0476	1847.2153	3026.4051	3258.5229	3571.8507	3674.2503
NC1=NN(C=O)N=C1	Nc1nn(C=O)nc1	
InChI=1S/C3H4N4O/c4-3-1-5-7(2-8)6-3/h1-2H,(H2,4,6)	InChI=1S/C3H4N4O/c4-3-1-5-7(2-8)6-3/h1-2H,(H2,4,6)
