18
gdb 45749	2.73506	1.42093	1.10153	3.5767	76.84	-0.2394	-0.0224	0.2169	1129.8287	0.148501	-401.945522	-401.937538	-401.936594	-401.978804	30.166	
O	-0.0286382868	 0.0722260876	 0.1735068518	-0.30837
C	-0.0310394709	 1.2707303694	 0.0856508452	 0.400139
C	-1.2689799761	 2.1806193888	 0.1112362156	-0.370854
C	-0.6852005721	 3.5531761917	-0.0814559111	-0.076538
C	 0.64631005	 3.5396989497	-0.1847584432	-0.100916
C	 1.2307498502	 2.1548040232	-0.0641004203	-0.18269
C	 2.1829191736	 1.9166287373	 1.1052618222	 0.021811
C	 3.1761727566	 2.9312590325	 1.5271309924	-0.254462
N	 2.0125235094	 2.6249493807	 2.3816115696	-0.315076
H	-1.971023847	 1.8863859452	-0.6791883937	 0.141059
H	-1.8085746328	 2.0561874824	 1.0589663074	 0.145129
H	-1.3002576122	 4.4433743796	-0.1491686709	 0.108652
H	 1.2563970888	 4.419429114	-0.3559723072	 0.10845
H	 1.7520135298	 1.8456260941	-0.981980399	 0.113523
H	 2.4320013276	 0.8644445424	 1.2231641426	 0.114076
H	 4.1358981137	 2.6178988933	 1.9282354105	 0.122059
H	 3.1991484071	 3.8825553346	 1.0016671556	 0.107752
H	 1.3132649111	 3.3575351434	 2.2689835723	 0.226256
54.3881	90.2759	170.8706	193.8804	338.9809	371.1259	458.4266	532.4137	577.9685	644.8957	722.1155	760.8933	773.8705	818.2013	846.9154	935.2545	943.5799	970.2468	981.6953	990.0449	994.9252	1060.5149	1117.6598	1128.881	1138.4227	1152.3682	1161.6772	1184.0187	1241.166	1270.4217	1279.945	1302.4389	1308.151	1377.1599	1408.3371	1440.3332	1514.0636	1674.1619	1853.4553	3003.9545	3030.4366	3058.9065	3109.1154	3137.7658	3184.778	3191.8544	3208.5825	3474.8939
O=C1CC=CC1C1CN1	O=C1CC=C[C@H]1[C@H]1CN1	
InChI=1S/C7H9NO/c9-7-3-1-2-5(7)6-4-8-6/h1-2,5-6,8H,3-4H2	InChI=1S/C7H9NO/c9-7-3-1-2-5(7)6-4-8-6/h1-2,5-6,8H,3-4H2/t5-,6+/m0/s1
