22
gdb 103659	2.94443	1.01107	0.91587	2.504	85.95	-0.2423	0.0365	0.2788	1433.6361	0.191961	-404.364297	-404.353945	-404.353	-404.399894	37.651	
C	 0.0428882935	 1.6131355708	 0.2164816153	-0.392085
C	 0.3444890828	 0.1115965677	 0.251165971	-0.218071
C	 0.6716278012	-0.4966955939	-1.1103978134	 0.423749
C	 1.8952340926	 0.0919711778	-1.7920037187	-0.442074
C	 0.5474638234	-2.0422035857	-1.1796412121	-0.445925
C	-0.6384580823	-1.7604174404	-2.0708511908	 0.462247
O	-0.5053121572	-0.3832347514	-2.0073447565	-0.302043
N	-1.473426385	-2.4692175608	-2.6756656395	-0.332541
C	-2.5111820289	-1.8185508188	-3.4637667825	-0.338316
H	 0.9225544063	 2.2021963593	-0.0590806818	 0.118153
H	-0.7496441658	 1.8264673262	-0.5065653087	 0.137616
H	-0.2907930769	 1.9602929734	 1.1985612352	 0.116209
H	 1.1841174242	-0.0947207514	 0.9277422367	 0.101012
H	-0.5222989388	-0.4224979425	 0.6576811559	 0.104632
H	 2.7842637119	-0.0490651254	-1.1680299303	 0.121452
H	 2.0692093874	-0.3956696164	-2.7551381708	 0.126026
H	 1.770223491	 1.1626022554	-1.9735672196	 0.13315
H	 1.3737584281	-2.5621681126	-1.6683582283	 0.127823
H	 0.3094665701	-2.5419457526	-0.2385164951	 0.128026
H	-2.4753215528	-0.723046488	-3.4373246748	 0.122667
H	-2.4293718194	-2.146541124	-4.5062062831	 0.12432
H	-3.4928549454	-2.1465034269	-3.1039652079	 0.12397
63.604	77.7029	99.0114	176.9438	193.7433	214.0792	238.8534	271.2691	342.1248	355.532	406.8031	449.3759	553.6608	567.2801	630.5969	773.2781	798.8534	865.543	889.9215	942.9194	960.2865	1003.2492	1022.7558	1057.9108	1065.0464	1089.5967	1100.2907	1134.8862	1165.2952	1201.1438	1241.4619	1254.611	1274.2837	1330.9747	1378.5154	1408.054	1413.6876	1439.386	1468.1315	1473.7774	1487.3414	1494.0741	1495.3372	1497.6321	1507.4577	1511.2084	1843.723	3015.0312	3023.8028	3041.367	3045.1044	3062.1479	3078.4248	3078.8649	3084.3695	3111.0429	3112.5257	3120.6718	3124.7173	3131.8134
CCC1(C)CC(O1)=NC	CC[C@@]1(C)CC(=NC)O1	
InChI=1S/C7H13NO/c1-4-7(2)5-6(8-3)9-7/h4-5H2,1-3H3	InChI=1S/C7H13NO/c1-4-7(2)5-6(8-3)9-7/h4-5H2,1-3H3/t7-/m0/s1
