19
gdb 62730	2.54694	1.50619	1.22004	2.5949	77.44	-0.2379	-0.0107	0.2271	1098.9847	0.156901	-423.021432	-423.012239	-423.011295	-423.054762	35.126	
C	-0.0772569331	 1.5240136778	-0.0359276743	-0.460289
C	 0.0607845905	 0.0081556618	-0.0648160981	 0.242424
C	-1.1498205557	-0.6999341719	 0.5344368068	-0.444351
C	 0.7039371376	-0.7331591849	-1.2050431748	-0.175892
C	 1.8981884387	 0.0198361982	-1.7900279388	-0.371648
C	 2.5675059631	-0.1441892103	-0.4023308289	 0.313415
O	 3.7226617333	-0.2320422994	-0.0654494847	-0.343195
C	 1.3594456438	-0.6859276489	 0.2688793179	 0.28144
O	 1.4346812101	-1.5681188484	 1.3108390217	-0.450994
H	 0.8049281711	 2.0424394328	-0.4165422809	 0.125244
H	-0.9400437557	 1.8408940753	-0.6331819857	 0.118979
H	-0.2411802749	 1.8657168517	 0.9914481833	 0.127021
H	-2.0565442607	-0.4044251972	-0.0035593704	 0.117536
H	-1.0535728507	-1.7865023028	 0.484399676	 0.129501
H	-1.2755383275	-0.4262592995	 1.5864210054	 0.129786
H	 0.2384339537	-1.5958624603	-1.6642655431	 0.109346
H	 2.4592576616	-0.5406202895	-2.5423798068	 0.12985
H	 1.7212712458	 1.0329927237	-2.1580028619	 0.119354
H	 2.3319745891	-1.9285294083	 1.3069479073	 0.302473
85.0077	177.3003	195.0717	199.2818	236.4292	279.089	301.8155	362.5391	394.6961	401.9575	478.6491	521.6703	566.534	659.0298	691.8825	699.956	841.1686	871.7779	920.2321	966.3337	971.7649	1005.5073	1019.6739	1036.2729	1070.9363	1136.8739	1149.4631	1206.4713	1224.8422	1272.5043	1313.8403	1366.365	1407.776	1423.4728	1447.3407	1474.0289	1480.8141	1494.5645	1503.2812	1514.7084	1829.8463	3033.0645	3041.1729	3067.0057	3094.5227	3105.4725	3116.173	3123.8367	3128.9797	3202.1347	3758.4669
CC1(C)C2CC(=O)C12O	CC1(C)[C@H]2CC(=O)[C@@]12O	
InChI=1S/C7H10O2/c1-6(2)4-3-5(8)7(4,6)9/h4,9H,3H2,1-2H3	InChI=1S/C7H10O2/c1-6(2)4-3-5(8)7(4,6)9/h4,9H,3H2,1-2H3/t4-,7-/m1/s1
