22
gdb 117992	2.2079	0.94437	0.6956	4.662	82.95	-0.2691	0.0379	0.307	1641.052	0.192127	-404.366766	-404.355623	-404.354679	-404.403884	39.346	
C	-0.088773627	 1.5915628659	 0.0578464333	-0.416887
C	 0.0046082624	 0.0600265271	-0.0136638058	 0.022334
C	 0.7135388921	-0.4076740765	-1.2980466492	-0.187044
C	-0.09415449	-0.2002302405	-2.5755006073	-0.084767
O	 0.6807292314	-0.7121355199	-3.6483394948	-0.417979
C	 0.7248771358	-0.5109047464	 1.244885024	-0.130803
C	 0.1190044714	-0.0527627802	 2.5880279682	-0.408528
C	 0.7370846471	-1.9786993614	 1.2068474516	 0.275095
N	 0.7263626579	-3.1347246183	 1.1942976136	-0.335042
H	 0.9073389637	 2.0400131894	 0.1548847137	 0.119074
H	-0.5435873638	 1.9963306697	-0.8496758433	 0.124604
H	-0.6963045925	 1.9305113773	 0.900347056	 0.12244
H	-1.0145751844	-0.3511320326	-0.0100490238	 0.088433
H	 1.673855161	 0.1140154291	-1.4028746907	 0.103321
H	 0.9424415036	-1.476424323	-1.2329246003	 0.13642
H	-1.058003047	-0.7287814321	-2.4896835907	 0.089574
H	-0.3196106032	 0.8663606849	-2.7300426576	 0.084909
H	 0.1780429233	-0.6064325779	-4.4611228457	 0.286918
H	 1.7733600326	-0.1838556438	 1.2080426826	 0.123901
H	 0.6110671463	-0.5588298538	 3.4220309409	 0.139303
H	 0.2456749837	 1.0230337663	 2.7217988368	 0.129648
H	-0.9488189543	-0.2871630736	 2.6323947484	 0.135074
46.9562	59.8154	87.7696	138.7531	184.5644	208.7103	216.8348	259.0042	276.9102	319.5208	329.536	375.8754	418.7223	485.3302	569.5121	588.121	789.5619	809.7219	873.2358	929.6576	971.8406	984.9002	1016.3009	1058.607	1074.3554	1101.3297	1142.0691	1155.4486	1177.1938	1230.6126	1250.7732	1284.1299	1317.8455	1330.2	1338.0919	1368.8324	1378.4685	1410.7281	1417.2215	1463.3842	1488.5243	1493.7049	1497.6887	1501.1906	1515.7927	1528.3121	2352.8815	2962.3112	2991.1477	3006.3921	3022.0334	3031.2689	3038.1827	3052.4182	3086.6018	3107.365	3121.4396	3124.4697	3139.8853	3832.0163
CC(CCO)C(C)C#N	C[C@@H](CCO)[C@@H](C)C#N	
InChI=1S/C7H13NO/c1-6(3-4-9)7(2)5-8/h6-7,9H,3-4H2,1-2H3	InChI=1S/C7H13NO/c1-6(3-4-9)7(2)5-8/h6-7,9H,3-4H2,1-2H3/t6-,7-/m0/s1
