18
gdb 47890	2.64483	1.64138	1.17389	2.8853	77.34	-0.2507	-0.037	0.2138	1065.166	0.14968	-439.087684	-439.079856	-439.078912	-439.120177	30.073	
N	 0.3148012409	 0.7633388911	-1.030414277	-0.48094
C	 0.0387051548	 0.1173864072	 0.0279652018	 0.330883
O	 0.911162923	 0.0628006902	 1.1076057079	-0.267811
C	 1.6773904774	-1.1293209403	 1.2521216251	-0.011176
O	 0.9211196089	-2.2898610614	 1.3283929555	-0.212373
C	 0.101051214	-2.4210439403	 2.4805341914	-0.070054
C	-1.0202545217	-1.3620282399	 2.5835093228	-0.28463
C	-1.7437546499	-1.1452864281	 1.2793396293	-0.079489
C	-1.2701232916	-0.5253052506	 0.1911714046	-0.031726
H	 1.2551799602	 1.1578003989	-0.95862267	 0.221667
H	 2.3329252031	-1.2600750108	 0.3830250513	 0.11475
H	 2.2701593907	-0.9577954999	 2.1612867844	 0.103046
H	-0.3310899773	-3.4221492809	 2.3988885576	 0.117641
H	 0.7187102682	-2.3884190159	 3.3913366072	 0.097196
H	-1.7245326477	-1.7036705437	 3.3496091754	 0.101285
H	-0.5906859001	-0.4214546258	 2.9343506678	 0.135918
H	-2.7484317832	-1.5557993636	 1.2120326236	 0.103975
H	-1.8950626498	-0.4347800164	-0.6910657886	 0.11184
68.4889	165.5862	238.5181	246.0617	298.7837	353.5158	374.6841	496.282	529.7088	601.819	695.0015	728.7151	779.8594	826.5231	855.4372	878.1606	926.0713	990.7072	1002.9703	1014.3796	1024.0651	1071.2142	1095.9369	1155.9002	1178.7242	1237.0284	1272.2913	1281.312	1327.2677	1334.9054	1361.3337	1404.2112	1421.922	1454.8848	1480.6177	1493.5592	1509.9464	1679.5078	1720.519	2989.7965	3006.9254	3052.6153	3067.2186	3085.4384	3109.9031	3154.3116	3194.8361	3464.5185
N=C1OCOCCC=C1	[NH]C1=C[CH]CCOCO1	
InChI=1S/C6H9NO2/c7-6-3-1-2-4-8-5-9-6/h1,3,7H,2,4-5H2/b3-1-,7-6?	InChI=1S/C6H9NO2/c7-6-3-1-2-4-8-5-9-6/h1,3,7H,2,4-5H2
