20
gdb 113673	2.60024	1.00802	0.89497	2.5869	76.91	-0.2457	0.0198	0.2655	1430.1202	0.169419	-440.304675	-440.294466	-440.293522	-440.340735	35.784	
C	 1.7019733948	 0.8221423859	 0.4148532303	-0.379077
C	 0.3497810911	 0.1295149562	 0.2036221004	-0.223386
C	 0.1288327136	-0.2430991134	-1.2411806166	 0.094156
O	 0.8687977344	-1.3560152388	-1.7713056904	-0.271596
C	-0.5587161343	-1.4636003057	-1.7052895297	-0.056052
C	-1.1542792535	-2.4902243845	-0.7681761347	 0.359552
O	-2.3627838774	-2.6203688024	-0.6782492935	-0.381454
N	-0.2341845159	-3.2218366663	-0.0878094963	-0.302768
C	-0.5994951119	-4.2968086593	 0.8115076133	-0.33471
H	 2.5246807799	 0.1652292117	 0.1164390153	 0.129664
H	 1.7758588606	 1.7400954961	-0.178220755	 0.119147
H	 1.8442679024	 1.0908619217	 1.4653905952	 0.118655
H	 0.2791716364	-0.7642088409	 0.8299379892	 0.110946
H	-0.4664991135	 0.7964112024	 0.5084949757	 0.114135
H	 0.1014892854	 0.6059750188	-1.9279185553	 0.099051
H	-1.0773570557	-1.4261211412	-2.6620134636	 0.119138
H	 0.7328480814	-3.0473181143	-0.3153851565	 0.259971
H	-0.1746124833	-4.1420506305	 1.8090326438	 0.126249
H	-1.6880266622	-4.3067307032	 0.8831849836	 0.169612
H	-0.2592028524	-5.2677667224	 0.4339885149	 0.128767
60.2894	85.9203	93.8261	105.4926	165.1391	193.4043	226.6166	254.5659	323.2738	435.5309	471.4154	503.331	601.1765	635.5084	749.2007	782.5096	829.0345	849.827	904.1773	950.6989	1023.053	1048.5556	1089.5083	1112.7403	1151.0056	1155.5639	1177.41	1179.2579	1256.7877	1281.8856	1294.7932	1344.1295	1380.7093	1411.334	1439.9363	1470.6756	1480.6071	1495.9724	1498.8484	1499.5812	1508.9855	1568.4147	1783.6427	3028.7048	3036.8532	3038.2736	3080.5137	3081.4742	3092.7831	3111.541	3116.0602	3132.4767	3149.5728	3623.9175
CCC1OC1C(=O)NC	CC[C@H]1O[C@H]1C(=O)NC	
InChI=1S/C6H11NO2/c1-3-4-5(9-4)6(8)7-2/h4-5H,3H2,1-2H3,(H,7,8)	InChI=1S/C6H11NO2/c1-3-4-5(9-4)6(8)7-2/h4-5H,3H2,1-2H3,(H,7,8)/t4-,5-/m1/s1
