14
gdb 66285	2.12363	1.68396	1.43939	4.1089	61.43	-0.2979	-0.036	0.2619	967.2609	0.101047	-473.868528	-473.860599	-473.859655	-473.901156	28.926	
O	 0.2190714441	 1.4295937913	 0.3988749905	-0.447694
C	-0.0255428755	 0.0986925872	 0.0525422219	 0.134453
C	-1.5050241802	-0.2110900178	-0.2152263179	-0.275448
C	-1.4051997828	-1.3336074247	-1.2580607537	-0.100507
O	-0.2004910548	-1.0538328861	-2.0143152281	-0.208787
C	 0.6005324025	-0.2227936386	-1.3332340922	 0.42247
O	 1.6193876768	 0.2519368999	-1.7406635295	-0.34443
C	 0.5375174957	-0.839434136	 1.05078194	 0.244801
N	 0.9653635947	-1.5822718888	 1.825881412	-0.321902
H	 1.0918398139	 1.6501900652	 0.0381220575	 0.306946
H	-2.0647107876	-0.5029743299	 0.6731711923	 0.147319
H	-1.9526773198	 0.6886480734	-0.645371451	 0.146011
H	-1.3007651987	-2.3210711874	-0.7987430687	 0.150096
H	-2.2348692784	-1.3499180575	-1.9650157132	 0.146673
91.8586	137.1461	184.8723	223.814	265.1246	356.0132	419.7998	442.3342	500.3363	590.0889	648.2048	665.2323	705.0343	769.4127	839.9881	942.9226	966.8779	1037.2009	1048.7211	1132.1166	1164.5968	1205.8205	1236.6529	1245.7104	1325.493	1396.3122	1408.4337	1486.2913	1520.3405	1886.3229	2349.4637	3069.4167	3081.6841	3137.0732	3150.7903	3722.8862
OC1(CCOC1=O)C#N	O[C@]1(CCOC1=O)C#N	
InChI=1S/C5H5NO3/c6-3-5(8)1-2-9-4(5)7/h8H,1-2H2	InChI=1S/C5H5NO3/c6-3-5(8)1-2-9-4(5)7/h8H,1-2H2/t5-/m1/s1
