14
gdb 29887	3.33331	1.47208	1.02773	7.6884	66.79	-0.2466	-0.0335	0.2131	1073.7223	0.10259	-470.072079	-470.064354	-470.06341	-470.104909	27.823	
C	-0.0240482965	 1.4938662741	 0.0472863873	-0.342502
N	-0.0069842076	 0.0348371069	 0.0280601188	-0.124354
C	-0.0616398821	-0.6974065071	-1.1431659832	 0.098913
N	-0.0492241551	-1.9697199247	-1.2178166192	-0.305271
C	 0.0266711912	-2.7182161237	-0.0040585726	 0.387123
O	 0.0403088437	-3.9214386913	-0.0237485362	-0.336594
N	 0.0846630971	-1.9988827135	 1.2091788146	-0.414555
C	 0.0659461282	-0.7194861062	 1.1711531703	 0.507958
O	 0.1182782837	 0.0172253794	 2.2878717587	-0.402918
H	 0.8858016423	 1.8858047394	 0.5075564767	 0.162334
H	-0.0849382434	 1.8467097476	-0.9836442601	 0.147919
H	-0.8876531298	 1.8637199617	 0.6046718088	 0.162323
H	-0.1187594044	-0.0891278712	-2.0454832921	 0.138544
H	 0.1667966227	-0.6196678613	 3.0168645783	 0.32108
65.0028	112.807	196.0402	211.8447	315.9333	390.3763	450.8346	500.5618	577.4793	578.4909	614.0804	751.7166	754.9076	813.5114	821.9908	927.9012	974.5053	1038.9633	1143.5504	1155.0515	1237.6299	1267.9827	1344.5235	1416.7178	1457.4546	1477.9323	1500.9033	1524.8384	1609.7792	1745.4976	1826.4437	3056.579	3129.2852	3138.9604	3146.954	3754.7673
CN1C=NC(=O)N=C1O	Cn1cnc(=O)nc1O	
InChI=1S/C4H5N3O2/c1-7-2-5-3(8)6-4(7)9/h2H,1H3,(H,6,8,9)	InChI=1S/C4H5N3O2/c1-7-2-5-3(8)6-4(7)9/h2H,1H3,(H,6,8,9)
