15
gdb 46709	3.14889	1.83068	1.42882	4.916	63.49	-0.2584	-0.01	0.2484	889.0406	0.114713	-457.748511	-457.742098	-457.741154	-457.779373	25.336	
O	 0.113645689	-0.0420833756	 0.240357563	-0.333275
C	-0.0102737972	 1.1168111455	-0.0492086431	 0.45126
O	-1.1798177774	 1.5832034408	-0.5343276625	-0.234577
C	-1.3683562045	 2.9940912102	-0.768151309	-0.085588
C	-0.1338048164	 3.723456203	-1.2740147502	-0.108164
C	 0.9196493562	 4.1397937477	-0.2858235535	 0.086433
O	 0.8491931466	 3.2761449864	 0.8527830374	-0.29475
C	 1.1293625885	 2.1226238798	 0.0029723672	-0.061625
C	 1.2073067885	 3.0146594249	-1.238526864	-0.148906
H	-2.1719472376	 3.0404463237	-1.5056818331	 0.128386
H	-1.7230743367	 3.4434663146	 0.1645687641	 0.134808
H	-0.275420158	 4.3830041049	-2.1241007963	 0.110489
H	 1.326816984	 5.1340382911	-0.1538321494	 0.117779
H	 2.047190128	 1.6221232014	 0.3115846158	 0.118437
H	 1.8788126869	 2.9112177316	-2.0780772163	 0.119293
127.1514	186.697	291.5123	430.9291	433.3988	479.2709	618.6022	699.5427	751.0707	753.5464	806.2063	844.7307	877.6121	896.3067	953.8062	981.2671	1009.7721	1027.7377	1040.4425	1072.2955	1073.2554	1096.8193	1154.4429	1231.9226	1240.5443	1275.3798	1288.4223	1294.3339	1331.4132	1418.7818	1432.162	1499.9231	1847.6347	3057.0108	3113.3236	3121.4689	3170.3847	3199.8052	3224.3205
O=C1OCC2C3OC1C23	O=C1OC[C@H]2[C@H]3O[C@@H]1[C@@H]23	
InChI=1S/C6H6O3/c7-6-5-3-2(1-8-6)4(3)9-5/h2-5H,1H2	InChI=1S/C6H6O3/c7-6-5-3-2(1-8-6)4(3)9-5/h2-5H,1H2/t2-,3+,4-,5-/m1/s1
