21
gdb 120699	3.24914	0.81687	0.72673	4.5512	81.22	-0.2407	0.0228	0.2635	1644.0799	0.181751	-420.420958	-420.410448	-420.409504	-420.457603	37.253	
C	 0.3858683532	 1.5449867398	 0.3304995719	-0.381819
C	 0.1322559662	 0.0355281969	 0.3135931235	-0.160112
C	-1.2069206256	-0.3343911926	-0.3378760341	-0.186805
C	-1.4345846272	-1.8282011089	-0.3448294502	-0.01702
N	-1.9228210072	-2.4371068518	 0.8913439155	-0.308429
C	-2.7882080402	-2.47805058	-0.2984556412	-0.156917
C	-4.0673391196	-1.6812707892	-0.2394099249	 0.433828
N	-5.0588372305	-2.1782760507	-1.0420003412	-0.532792
O	-4.2232894133	-0.6885593086	 0.4431263107	-0.357718
H	 1.3423797182	 1.7845089699	 0.8058425406	 0.107675
H	 0.4066283729	 1.9557908311	-0.6854069502	 0.10941
H	-0.4023251079	 2.069129196	 0.8815964886	 0.122002
H	 0.9531687876	-0.4687641176	-0.2152137611	 0.081866
H	 0.1408180537	-0.353491207	 1.3388927576	 0.110654
H	-2.0324249083	 0.1426392237	 0.1954293968	 0.146638
H	-1.2295654396	 0.032871471	-1.3733798244	 0.084781
H	-0.6933146277	-2.3949357998	-0.9115961553	 0.080956
H	-1.5080506064	-3.3523021855	 1.0434683694	 0.233836
H	-2.8695849226	-3.4292069946	-0.8232959451	 0.07265
H	-4.9100861475	-2.9432481244	-1.675724178	 0.25603
H	-5.9097978681	-1.6461786577	-1.1210709487	 0.261285
47.6454	77.6121	88.512	105.7256	124.9572	209.4044	246.6277	254.1232	339.5745	376.9642	438.6395	481.4989	579.9456	640.1909	749.7807	757.4354	796.7042	838.1249	875.4869	904.2835	921.1618	945.6498	1020.0319	1049.4262	1060.862	1082.0876	1120.3139	1150.859	1196.4737	1228.7964	1258.7433	1284.0517	1294.0385	1308.9163	1333.1173	1386.4571	1411.0813	1441.9699	1479.7809	1484.3988	1494.6468	1499.5094	1511.0947	1616.4555	1799.1063	3009.5504	3016.8475	3029.0755	3055.2987	3081.1039	3095.7575	3101.4638	3106.6241	3118.2575	3507.3216	3604.9147	3740.7945
CCCC1NC1C(N)=O	CCC[C@H]1N[C@H]1C(=O)N	
InChI=1S/C6H12N2O/c1-2-3-4-5(8-4)6(7)9/h4-5,8H,2-3H2,1H3,(H2,7,9)	InChI=1S/C6H12N2O/c1-2-3-4-5(8-4)6(7)9/h4-5,8H,2-3H2,1H3,(H2,7,9)/t4-,5-/m1/s1
