15
gdb 34774	2.17231	1.82996	1.20942	5.4441	74.73	-0.242	0.0212	0.2632	1022.5865	0.112429	-379.589168	-379.581261	-379.580316	-379.621756	29.88	
C	-0.2113848856	-1.2307681256	-0.2796356511	-0.418053
C	-0.0894381699	-0.0496134961	-0.0983374562	 0.360901
C	 0.042135041	 1.3855357778	 0.0787899191	-0.211099
N	-0.1022871301	 1.9225661155	 1.4858003017	-0.308158
C	 1.105634357	 2.7351095781	 1.2855438664	-0.033323
C	 2.295672048	 1.8124424606	 1.1848741234	-0.178926
C	 2.3946734117	 0.5663487773	 1.8996551509	 0.31549
N	 2.5312797526	-0.4166673014	 2.492443052	-0.341597
C	 1.4198916309	 2.0662036354	-0.0356210236	-0.111827
H	-0.2985223183	-2.2809917735	-0.4129681786	 0.206069
H	-0.6445047836	 1.9034202656	-0.6011489028	 0.115296
H	-0.9390156683	 2.4880668414	 1.5747319865	 0.234996
H	 1.1906483388	 3.7620199632	 1.6186838318	 0.115511
H	 3.2444047024	 2.3369776798	 1.1079343225	 0.137823
H	 1.8532947833	 2.431306812	-0.9568950122	 0.116896
86.4947	124.4499	163.3538	211.478	323.3111	381.0958	495.8614	521.776	580.568	615.3359	638.8397	673.8694	716.2919	755.2668	804.7165	833.2713	898.2379	942.1125	980.2328	1008.0094	1022.4858	1050.356	1080.9876	1099.0099	1171.2145	1194.1493	1277.4753	1311.6898	1349.9884	1372.4315	1433.9969	2242.3631	2359.939	3032.6447	3153.3852	3190.8254	3206.0542	3502.5513	3544.4341
C#CC1NC2C(C#N)C12	C#C[C@H]1N[C@H]2[C@@H](C#N)[C@@H]12	
InChI=1S/C7H6N2/c1-2-5-6-4(3-8)7(6)9-5/h1,4-7,9H	InChI=1S/C7H6N2/c1-2-5-6-4(3-8)7(6)9-5/h1,4-7,9H/t4-,5+,6-,7-/m0/s1
