22
gdb 121792	3.19038	0.7046	0.6678	3.5245	83.06	-0.2738	0.0432	0.317	1758.6112	0.191916	-404.368158	-404.357015	-404.356071	-404.404776	39.76	
C	 0.0936096658	 1.5745024832	-0.0168691332	-0.406296
C	 0.0309379701	 0.0312665688	 0.0409480208	 0.072705
C	 0.8653592732	-0.4922268578	 1.2319785313	-0.406298
C	-1.4369705315	-0.4867271208	 0.0908698041	-0.197567
C	-2.2512202937	-0.0527601473	 1.313832344	-0.197963
C	-3.6715536911	-0.606372153	 1.2727988943	-0.074486
O	-4.3421097182	-0.1541912868	 2.4380916068	-0.421027
C	 0.6258925283	-0.4966601791	-1.2005670211	 0.268433
N	 1.0863881974	-0.9138773162	-2.1755051618	-0.344991
H	 1.1245125381	 1.9135234893	-0.1480838884	 0.133933
H	-0.5011866253	 1.9621633645	-0.8485213019	 0.131423
H	-0.2888253387	 2.0022256329	 0.9131775956	 0.128577
H	 0.4872162653	-0.0757389856	 2.1688547609	 0.128593
H	 0.8225529228	-1.5831215115	 1.2938703844	 0.131421
H	 1.9128474137	-0.1976793436	 1.127487435	 0.133928
H	-1.944397724	-0.1519167855	-0.8220353993	 0.113313
H	-1.4103862373	-1.582072709	 0.0411268271	 0.113342
H	-1.7826172051	-0.3968880449	 2.2419102922	 0.114039
H	-2.3170799677	 1.0385851121	 1.3768363805	 0.114017
H	-4.179832979	-0.2599852506	 0.3579437499	 0.088511
H	-3.6407994935	-1.7075054232	 1.2298051286	 0.088514
H	-5.2399613493	-0.4980712657	 2.42281378	 0.287879
57.2659	80.6638	103.658	141.3391	187.272	190.6235	253.9117	261.7168	263.5088	286.5097	353.3774	359.211	393.2096	473.8588	583.8392	599.2167	724.1368	759.77	864.7064	875.7288	949.0232	972.2593	1020.1673	1031.1014	1052.1203	1069.4782	1085.5983	1193.3875	1204.7247	1223.98	1244.0829	1257.0506	1317.2948	1318.6837	1337.8365	1393.7541	1400.5825	1423.3171	1465.3363	1482.7339	1483.4885	1491.761	1501.2314	1505.7875	1511.6395	1530.1537	2350.7288	2960.683	2986.9806	3026.628	3046.2219	3047.4935	3052.0953	3061.2941	3096.2097	3122.0208	3124.2884	3126.5282	3129.6977	3830.576
CC(C)(CCCO)C#N	CC(C)(CCCO)C#N	
InChI=1S/C7H13NO/c1-7(2,6-8)4-3-5-9/h9H,3-5H2,1-2H3	InChI=1S/C7H13NO/c1-7(2,6-8)4-3-5-9/h9H,3-5H2,1-2H3
