16
gdb 105287	2.30603	1.27189	1.06446	5.2171	71.56	-0.2633	-0.0224	0.2409	1184.6972	0.123469	-434.056796	-434.047534	-434.04659	-434.09135	32.403	
N	 0.1061823154	 1.4356983493	-0.1578902052	-0.501427
C	-0.2662624525	 0.0671765601	 0.1748572825	-0.23075
C	 0.8017872569	-0.5473001357	 1.0663703104	 0.144776
C	 1.1727939699	-2.0103136349	 0.9491214563	-0.273457
N	 2.0188830839	-0.9897516615	 0.3857192734	-0.103696
C	 3.3235805548	-0.7487913661	 0.8281669919	 0.146121
O	 4.1228376853	-1.6155347354	 1.0608738856	-0.266196
C	 0.9454365934	 0.0621931605	 2.3753940956	 0.286302
N	 1.0454494924	 0.5413122767	 3.4225076658	-0.330006
H	 0.8578391544	 1.4348400307	-0.8400654003	 0.239526
H	-0.675625885	 1.9285139098	-0.574041578	 0.241867
H	-1.2128864627	 0.0842751225	 0.7250827026	 0.131011
H	-0.3968574562	-0.6030473733	-0.6896462618	 0.102826
H	 1.5335573085	-2.517027037	 1.8394794476	 0.160847
H	 0.6214868733	-2.6254357775	 0.2437042017	 0.140378
H	 3.5496603983	 0.3315653819	 0.8675625718	 0.111878
69.5452	90.8674	141.563	164.0894	187.2375	224.5435	288.3047	339.568	358.3612	434.5799	563.4153	580.0693	622.8017	743.2477	838.7465	864.6948	901.2649	948.6265	976.8928	1037.8585	1083.3488	1120.7389	1136.0864	1147.0946	1203.099	1260.1869	1341.2535	1385.2431	1411.7838	1427.6079	1490.2614	1506.3583	1657.5636	1814.785	2357.5038	2975.2488	2985.5827	3077.8606	3119.7267	3214.9492	3510.0641	3594.067
NCC1(CN1C=O)C#N	NC[C@]1(CN1C=O)C#N	
InChI=1S/C5H7N3O/c6-1-5(2-7)3-8(5)4-9/h4H,1,3,6H2	InChI=1S/C5H7N3O/c6-1-5(2-7)3-8(5)4-9/h4H,1,3,6H2/t5-,8?/m1/s1
