17
gdb 117105	2.4162	1.091	0.82453	4.3156	70.35	-0.2813	-0.0073	0.274	1396.0463	0.134599	-455.187063	-455.17717	-455.176226	-455.223709	34.278	
C	 0.0440112744	 1.0839469732	 0.650150632	-0.375115
C	-0.228332882	 0.1621180714	-0.5391745996	-0.156433
N	-1.4758144443	-0.5862933382	-0.4013111333	-0.314275
C	-1.5184565323	-1.8727539277	-0.0138499161	 0.409259
O	-0.5521636161	-2.584947319	 0.204714884	-0.387959
C	-2.9333053412	-2.5213092896	 0.1112935448	-0.086288
O	-2.8032037286	-3.7861068313	 0.676477638	-0.409101
C	-3.8349376791	-1.6546191794	 0.893577602	 0.25297
N	-4.5306091664	-0.9284098051	 1.4632783865	-0.319545
H	 0.9781968461	 1.631855471	 0.4943848246	 0.128734
H	-0.7590990758	 1.8168842993	 0.7786800178	 0.125012
H	 0.1323415315	 0.507166473	 1.5748068955	 0.142423
H	-0.2757306104	 0.7369785531	-1.4702230672	 0.119787
H	 0.5656761462	-0.5794728678	-0.644022787	 0.154836
H	-2.3449854508	-0.0733694393	-0.4305026103	 0.266577
H	-3.3533304456	-2.5855220082	-0.9064396484	 0.142342
H	-1.8379366356	-3.9064489956	 0.7619552867	 0.306775
24.8799	56.295	71.5096	142.0139	205.4562	251.9177	273.7399	354.0833	381.6101	426.874	492.2868	506.9326	528.3038	609.0377	623.8922	757.0521	829.398	900.2452	911.0822	968.7729	1058.5885	1112.8226	1153.0723	1178.0925	1234.9026	1272.0399	1324.9343	1355.2806	1394.5203	1414.4431	1444.791	1483.4333	1493.1122	1502.1923	1567.7743	1786.5953	2352.33	2971.7698	3041.5143	3052.2935	3106.6553	3122.9139	3134.8709	3596.5152	3611.4574
CCNC(=O)C(O)C#N	CCNC(=O)[C@@H](O)C#N	
InChI=1S/C5H8N2O2/c1-2-7-5(9)4(8)3-6/h4,8H,2H2,1H3,(H,7,9)	InChI=1S/C5H8N2O2/c1-2-7-5(9)4(8)3-6/h4,8H,2H2,1H3,(H,7,9)/t4-/m0/s1
