12
gdb 27047	2.51137	1.47327	0.92855	3.4451	62.48	-0.2289	-0.0539	0.175	1124.4232	0.077106	-509.829171	-509.821476	-509.820532	-509.861647	27.771	
O	 0.1040743985	 1.3381560241	 0.0071243104	-0.393435
C	-0.0151288616	 0.018598545	 0.0009433739	 0.37473
C	-1.1256180417	-0.7633448275	 0.0028897361	 0.094607
N	-0.6257675048	-2.0842679312	-0.0071232407	-0.434082
C	 0.7283733234	-2.110132909	-0.0139542111	 0.508566
O	 1.5328428021	-2.990463222	-0.0240707833	-0.369595
O	 1.10839702	-0.7221353653	-0.0093435114	-0.24891
C	-2.5307193746	-0.4653086665	 0.012025565	 0.069779
O	-3.3871668671	-1.332042452	 0.0120347205	-0.317851
H	 1.0432497429	 1.5667042592	 0.0031594166	 0.328689
H	-1.2127743718	-2.9016526795	-0.0090965618	 0.296155
H	-2.7795502452	 0.6139370047	 0.0191743258	 0.091349
118.2439	147.8009	199.8315	236.9889	317.1347	325.5907	393.0768	465.5771	495.6866	617.7233	638.2907	679.2519	711.7088	749.6799	840.5702	879.1496	1012.7724	1075.3559	1208.415	1272.5105	1298.2633	1398.2998	1422.3852	1488.1266	1740.4506	1753.2504	1946.106	2940.0318	3679.8784	3793.5389
OC1=C(NC(=O)O1)C=O	Oc1c([nH]c(=O)o1)C=O	
InChI=1S/C4H3NO4/c6-1-2-3(7)9-4(8)5-2/h1,7H,(H,5,8)	InChI=1S/C4H3NO4/c6-1-2-3(7)9-4(8)5-2/h1,7H,(H,5,8)
