21
gdb 76885	2.28103	1.79702	1.49247	1.1047	75.97	-0.2425	0.0631	0.3056	1011.4781	0.185172	-424.240417	-424.232371	-424.231427	-424.272673	32.367	
C	-0.2201307616	 1.5759233358	 0.0719785912	-0.407188
C	 0.0498104933	 0.0735753526	 0.0166889891	 0.009711
C	 0.8046559089	-0.4738406802	-1.2209707677	 0.059948
C	 2.1457148911	 0.2514640383	-1.4578156555	-0.221222
C	 3.0049976621	-0.3130017563	-0.2872969315	-0.217069
C	 2.0044320235	-1.2924194495	 0.3591258983	 0.033854
O	 1.2314952361	-1.7660059163	-0.7501342481	-0.263996
C	 0.9403235311	-0.4983654625	 1.1718680039	 0.085844
O	 1.4577157427	 0.5456329153	 1.9824045177	-0.419813
H	 0.6993228327	 2.1621467258	 0.1231212876	 0.130454
H	-0.7853345931	 1.8953319769	-0.8103868281	 0.10569
H	-0.8100022211	 1.827952312	 0.9576156604	 0.120434
H	-0.9114781321	-0.4488505634	 0.0453000426	 0.078883
H	 0.1837458636	-0.5983813119	-2.1090705311	 0.07114
H	 2.5572352372	-0.0356182677	-2.4282870126	 0.102519
H	 2.0568292004	 1.3392217574	-1.4408359929	 0.103233
H	 3.8858719689	-0.8453919209	-0.6520267353	 0.097321
H	 3.3261797992	 0.4577632374	 0.4145139187	 0.109301
H	 2.4466648641	-2.1408319725	 0.8844244113	 0.065439
H	 0.3571429926	-1.1943239694	 1.7878123562	 0.06956
H	 1.9036010703	 0.1462974991	 2.7353535458	 0.285958
82.5068	201.2405	258.0214	267.7465	279.9924	286.6487	395.0742	499.7019	508.6593	544.6473	603.7812	720.2387	793.5859	812.9327	827.0064	840.5064	896.3626	940.0409	950.1746	993.9517	1002.2678	1033.2694	1041.978	1063.0042	1102.9641	1124.8464	1129.3923	1170.0422	1207.1682	1237.4381	1253.0799	1264.8526	1305.1298	1308.484	1314.3665	1341.7299	1349.967	1363.108	1368.7874	1407.1148	1426.4219	1480.7199	1490.9677	1496.9267	1513.1227	3011.3972	3041.4088	3051.8163	3069.0684	3078.6352	3102.0433	3106.0565	3111.8626	3115.1679	3131.9611	3135.9833	3825.9401
CC1C2CCC(O2)C1O	C[C@H]1[C@H]2CC[C@H](O2)[C@H]1O	
InChI=1S/C7H12O2/c1-4-5-2-3-6(9-5)7(4)8/h4-8H,2-3H2,1H3	InChI=1S/C7H12O2/c1-4-5-2-3-6(9-5)7(4)8/h4-8H,2-3H2,1H3/t4-,5+,6-,7-/m0/s1
