20
gdb 71626	2.68072	1.70594	1.61106	0.1047	78.86	-0.2096	0.0924	0.302	972.2344	0.172626	-403.086467	-403.079016	-403.078072	-403.11788	30.468	
C	-0.0462968276	 1.4619921725	 0.0078694709	-0.525122
C	 0.0529233076	-0.0343860748	-0.021259479	 0.311554
C	 0.7055876974	-0.9542098286	-1.0788632078	-0.268367
C	 0.0102058112	-1.8857045424	-0.0672983045	-0.084928
C	 0.6108890075	-1.0014693971	 1.0709320693	 0.11187
O	 0.0056100675	-0.9905137973	 2.3344165108	-0.2745
C	-1.3350466302	-1.4639242314	 2.290706723	-0.079681
C	-2.0508211436	-0.9316744397	 1.0487118122	-0.184567
N	-1.187053497	-0.9388396896	-0.1461707145	-0.156674
H	 0.9523032942	 1.909739335	-0.0259038938	 0.124778
H	-0.619362957	 1.8311034157	-0.848511509	 0.130128
H	-0.5335502318	 1.8062398411	 0.9261356279	 0.12679
H	 0.2409893969	-0.9236913052	-2.0645938064	 0.10743
H	 1.7968556055	-0.9783062817	-1.1150016906	 0.092647
H	-0.1043653186	-2.9691559468	-0.1233556244	 0.081102
H	 1.6943902326	-1.0188273212	 1.2281779113	 0.076875
H	-1.3304390552	-2.5646953314	 2.2742320492	 0.094286
H	-1.81896466	-1.1454324824	 3.2183756312	 0.106517
H	-2.9407280503	-1.5383145925	 0.8427604347	 0.10298
H	-2.3930929289	 0.0985981375	 1.2026638094	 0.106881
169.998	189.6087	207.5648	261.2259	359.3511	420.0342	450.1713	514.3907	568.1726	647.1262	714.346	760.8834	767.5244	791.9892	855.1568	902.7429	917.6887	954.9616	973.7854	1016.3685	1026.3086	1053.6589	1103.7161	1124.9888	1138.4075	1154.5465	1161.9109	1178.5697	1211.0466	1223.7575	1241.1956	1270.0254	1282.7449	1333.6437	1362.3308	1382.937	1406.5443	1420.4848	1479.6473	1486.7797	1493.6633	1494.7449	1509.0009	2984.1088	3026.6537	3033.8364	3052.8155	3064.61	3073.6537	3086.2148	3102.2719	3105.7222	3108.2081	3152.211
CC12CC3C1OCCN23	C[C@@]12C[C@H]3[C@@H]1OCCN23	
InChI=1S/C7H11NO/c1-7-4-5-6(7)9-3-2-8(5)7/h5-6H,2-4H2,1H3	InChI=1S/C7H11NO/c1-7-4-5-6(7)9-3-2-8(5)7/h5-6H,2-4H2,1H3/t5-,6-,7+/m0/s1
