18
gdb 65220	3.51877	1.19833	1.15758	1.9587	71.1	-0.2515	0.0187	0.2702	1123.4972	0.147662	-439.078986	-439.070651	-439.069707	-439.112645	30.686	
C	-0.0488352968	 1.3931302877	-0.6639007587	-0.478503
C	 0.0046016993	-0.0476927055	-0.2115501151	 0.401468
C	 1.2637977048	-0.8017565659	-0.2930675344	-0.230079
O	 0.783776452	-0.3145487079	 0.9645241051	-0.277013
C	-1.3010688312	-0.82474537	-0.2006026178	 0.03644
C	-2.3979810743	-0.2631110729	 0.7489329703	-0.20743
N	-3.5206805063	 0.1024834647	-0.1325079242	-0.258288
C	-3.1528388429	-0.2062187657	-1.3024968594	 0.119843
O	-1.9272309589	-0.7530306862	-1.5116041677	-0.234137
H	 0.9325952827	 1.8584306771	-0.548921149	 0.130606
H	-0.3468702072	 1.4493840432	-1.7144954401	 0.137196
H	-0.7689845883	 1.9707047129	-0.0757421253	 0.135646
H	 1.244661621	-1.8840270666	-0.4142920072	 0.11617
H	 2.1579020954	-0.3088515677	-0.6716131881	 0.117199
H	-1.0849400569	-1.8764133132	 0.0046815246	 0.095814
H	-2.7274994051	-1.0070832545	 1.4797605968	 0.125443
H	-2.0574780868	 0.6118882785	 1.3113685357	 0.127665
H	-3.7404287903	-0.075788158	-2.2045480256	 0.141961
55.4275	71.576	189.9297	201.386	263.4279	330.6117	363.4968	437.0311	495.9152	518.7458	724.0608	755.0474	829.2395	875.5844	899.3211	925.4044	957.9184	972.9963	983.5158	995.4058	1040.789	1055.9936	1110.0452	1117.2128	1135.3342	1165.0006	1201.0474	1299.6268	1303.5507	1313.7036	1331.7705	1342.3193	1403.9557	1438.1596	1480.7512	1498.8505	1506.2955	1531.4685	1712.7539	3047.346	3054.3855	3069.263	3083.4723	3091.3707	3114.5666	3133.4597	3170.6881	3216.8249
CC1(CO1)C1CN=CO1	C[C@]1(CO1)[C@H]1CN=CO1	
InChI=1S/C6H9NO2/c1-6(3-9-6)5-2-7-4-8-5/h4-5H,2-3H2,1H3	InChI=1S/C6H9NO2/c1-6(3-9-6)5-2-7-4-8-5/h4-5H,2-3H2,1H3/t5-,6+/m1/s1
