19
gdb 83022	2.0267	1.7055	1.43406	1.187	76.45	-0.2221	0.0152	0.2372	1048.4216	0.15816	-423.019668	-423.010822	-423.009878	-423.052455	34.401	
C	 0.0055275598	 1.4774534253	-0.0069088815	-0.51235
C	 0.0253315778	-0.0180386443	-0.036957056	 0.257307
C	 0.0838208902	-0.8276856484	-1.1031702768	-0.206133
C	 0.02830699	-2.2949776187	-0.729703863	-0.280283
C	 0.0049550723	-2.2820642979	 0.7962701831	-0.14628
C	 1.2023322908	-1.6735269249	 1.4959366502	 0.048163
O	 2.4365270414	-1.4814566503	 0.8783077867	-0.425713
C	-0.0158187979	-0.8165388497	 1.2350434127	 0.240452
O	-0.8253499623	-0.372841005	 2.283858903	-0.461189
H	 0.8824803269	 1.879747667	 0.5168360257	 0.12511
H	-0.0146222208	 1.9012371442	-1.0139276956	 0.125677
H	-0.8761173187	 1.8329161792	 0.5380410628	 0.14179
H	 0.1684796676	-0.4915226698	-2.1314462122	 0.092419
H	-0.8581679813	-2.7849234766	-1.1509838633	 0.11414
H	 0.8990989199	-2.8460093489	-1.1101064138	 0.118404
H	-0.5723315017	-3.0224819124	 1.3371876493	 0.094844
H	 1.3404046818	-1.9800358777	 2.5288870969	 0.105414
H	 2.2768531897	-0.9838800343	 0.0651799974	 0.282603
H	-0.2793653257	 0.1381003631	 2.8906180445	 0.285624
131.6276	174.6037	203.0337	222.9957	248.7898	265.1932	302.955	361.3831	400.764	445.9535	550.8559	587.9115	635.5613	664.8938	734.6948	800.0922	821.8664	893.2136	914.2346	943.7705	994.0247	1020.889	1051.7089	1059.7956	1068.5934	1105.6203	1155.1496	1181.886	1207.1422	1237.2761	1298.9581	1311.1155	1333.0456	1346.7326	1381.6504	1408.9029	1453.717	1476.8461	1477.3138	1493.1464	1697.9554	3018.5026	3021.4038	3046.9144	3075.7672	3119.1435	3156.9067	3183.1332	3185.8857	3745.5702	3805.1336
CC1=CCC2C(O)C12O	CC1=CC[C@H]2[C@@H](O)[C@@]12O	
InChI=1S/C7H10O2/c1-4-2-3-5-6(8)7(4,5)9/h2,5-6,8-9H,3H2,1H3	InChI=1S/C7H10O2/c1-4-2-3-5-6(8)7(4,5)9/h2,5-6,8-9H,3H2,1H3/t5-,6+,7+/m0/s1
