18
gdb 56533	2.37803	1.3011	1.11123	1.7505	72.17	-0.2725	-0.0473	0.2251	1164.7066	0.143524	-439.113435	-439.103089	-439.102145	-439.148621	36.847	
C	 0.0172803771	 1.5200380949	-0.1696026206	-0.413827
C	-0.0568780461	-0.0152176234	-0.0498406101	-0.148574
C	 0.7306022125	-0.471893405	 1.0984803934	 0.255982
N	 1.3094954738	-0.8268232436	 2.0346163798	-0.331318
C	-1.5189811863	-0.5399969559	 0.1014890518	 0.247231
C	-1.5743269042	-2.0738238067	 0.2164506566	-0.451926
O	-2.1853455282	 0.0809470854	 1.1861027018	-0.465497
C	-2.3317266363	-0.1656379404	-1.1407630581	 0.155213
O	-1.8881731893	-0.1609161536	-2.2582068408	-0.259992
H	 1.057409802	 1.8520700798	-0.1902551783	 0.137042
H	-0.4653672888	 1.8421700068	-1.09426101	 0.14546
H	-0.486359226	 1.9899511996	 0.6772422865	 0.146605
H	 0.3568974953	-0.4686570354	-0.9569361362	 0.144763
H	-1.0397379268	-2.4046439665	 1.1126554579	 0.14927
H	-2.6137603099	-2.4055076816	 0.2911542102	 0.136001
H	-1.1152977786	-2.5482954076	-0.6551846051	 0.144169
H	-1.8328781824	-0.2803604255	 2.00771894	 0.299972
H	-3.3940522179	 0.0660642987	-0.9127704588	 0.109425
60.9335	88.8752	145.403	196.7867	216.7857	229.2765	247.8416	278.0713	289.8606	322.2418	364.199	406.1456	458.3687	562.9133	584.773	634.349	740.067	869.5111	911.5315	940.3654	984.9646	1023.9545	1059.9674	1107.6992	1119.729	1163.1548	1216.2473	1288.5408	1320.921	1367.739	1391.4655	1407.0957	1409.9818	1490.3154	1494.326	1496.9245	1503.972	1835.9929	2349.3044	2916.1829	3039.8699	3062.9906	3065.9341	3115.7866	3127.0651	3140.1673	3150.1848	3801.1231
CC(C#N)C(C)(O)C=O	C[C@@H](C#N)[C@@](C)(O)C=O	
InChI=1S/C6H9NO2/c1-5(3-7)6(2,9)4-8/h4-5,9H,1-2H3	InChI=1S/C6H9NO2/c1-5(3-7)6(2,9)4-8/h4-5,9H,1-2H3/t5-,6-/m0/s1
