17
gdb 43825	3.03577	1.47331	1.16689	3.0832	72.35	-0.2411	-0.0297	0.2114	1060.7368	0.136078	-421.819026	-421.811616	-421.810672	-421.851009	29.143	
O	 0.077707964	-0.0293469005	 0.1035247697	-0.313047
C	 0.0059545625	 1.1659192848	-0.014171813	 0.41669
C	-1.2768771757	 2.0007836976	-0.1671487164	-0.430799
C	-0.8332612776	 3.2688199692	-0.8986170332	 0.350705
C	-1.377699505	 3.6368365607	-2.2576808618	-0.315495
C	-1.7076168234	 4.4828028525	-1.0526406477	-0.314105
C	 0.6433404482	 3.3924896567	-0.6473852065	-0.024932
O	 0.9855145085	 3.2684528376	 0.7321332386	-0.253559
C	 1.1727114416	 2.1192750377	-0.1196895885	-0.093572
H	-2.0378998934	 1.4232570952	-0.6958592636	 0.131836
H	-1.6624861413	 2.2260698326	 0.8337553084	 0.145237
H	-0.6913877475	 4.0409015207	-2.9953197594	 0.117665
H	-2.1569271796	 3.0079760595	-2.6747116729	 0.121107
H	-2.7141737361	 4.4299675873	-0.6515199192	 0.121066
H	-1.2468194842	 5.4615832814	-0.9694062542	 0.120363
H	 1.2571701208	 4.0758513982	-1.229692078	 0.105607
H	 2.1886261581	 1.7591672089	-0.2441160023	 0.115234
80.98	167.103	253.9618	284.3041	332.1358	434.4885	489.1974	512.5963	553.0541	654.7707	774.6787	793.4405	809.9692	854.0678	861.2079	883.6623	940.1742	951.1943	985.2508	1017.981	1020.7196	1063.3042	1084.7651	1087.5417	1162.4668	1184.8693	1189.9389	1234.6801	1250.1229	1284.0804	1308.9103	1349.6992	1419.518	1452.8807	1469.5646	1505.9899	1848.9989	3050.2629	3115.7803	3127.3827	3132.0778	3144.5271	3180.9673	3206.7569	3221.2245
O=C1CC2(CC2)C2OC12	O=C1CC2(CC2)[C@H]2O[C@@H]12	
InChI=1S/C7H8O2/c8-4-3-7(1-2-7)6-5(4)9-6/h5-6H,1-3H2	InChI=1S/C7H8O2/c8-4-3-7(1-2-7)6-5(4)9-6/h5-6H,1-3H2/t5-,6-/m0/s1
