16
gdb 33852	4.38566	1.28641	1.15007	3.2526	75.02	-0.2438	0.0237	0.2674	1058.6838	0.12437	-400.667467	-400.660193	-400.659249	-400.698936	29.194	
C	-0.0101828543	-1.1921468967	 0.0217733657	-0.373015
C	 0.0425184468	 0.0085527281	-0.0121521506	 0.222204
C	 0.0699860035	 1.4422395201	-0.0822880317	 0.217899
C	-0.9621044167	 2.1853394507	-0.9426340338	-0.308291
C	-0.2763531395	 3.4782785763	-1.3842030843	-0.045766
N	 0.0533858321	 4.4173036513	-0.2992980186	-0.313724
C	 1.1042965889	 3.5209419304	-0.8242540265	-0.084497
C	 1.3054502702	 2.268566611	 0.0016004328	-0.017401
O	 0.4379872608	 2.1403558325	 1.1206118934	-0.260793
H	-0.0483522992	-2.2526263839	 0.0638725296	 0.192873
H	-1.2093883626	 1.574254871	-1.8159077605	 0.116449
H	-1.8821440343	 2.3681130963	-0.3804081153	 0.133133
H	-0.5054663739	 3.8778817133	-2.3671782958	 0.092243
H	 0.1882085771	 5.34538794	-0.6949807728	 0.232899
H	 1.9473011786	 3.9310464454	-1.3688039268	 0.090181
H	 2.2946050025	 1.8327676141	 0.1112570451	 0.105608
128.4807	145.9436	273.101	298.413	406.7197	443.4433	517.2215	581.131	611.7763	616.6424	668.1146	701.2558	724.4563	798.3377	847.232	852.866	892.0039	909.9197	969.6429	981.1046	1001.5246	1054.5594	1078.2703	1143.3764	1164.1705	1186.2532	1209.5512	1225.2551	1280.6315	1319.4127	1368.7105	1405.2057	1427.7651	1464.3082	2239.1087	3061.7139	3109.2777	3154.7741	3156.3506	3180.2503	3491.7324	3502.0111
C#CC12CC3NC3C1O2	C#C[C@]12C[C@H]3N[C@H]3[C@H]1O2	
InChI=1S/C7H7NO/c1-2-7-3-4-5(8-4)6(7)9-7/h1,4-6,8H,3H2	InChI=1S/C7H7NO/c1-2-7-3-4-5(8-4)6(7)9-7/h1,4-6,8H,3H2/t4-,5-,6-,7+/m1/s1
