16
gdb 130459	3.50047	1.18399	0.92636	6.1273	69.33	-0.2283	-0.0287	0.1996	1213.8541	0.125218	-467.324557	-467.316474	-467.31553	-467.357736	29.449	
N	 0.5519311387	 1.6615949919	 1.2360472648	-0.510765
H	 0.9355734839	 0.7528715707	 1.4784291002	 0.247298
H	 0.9082896669	 3.0409393292	 2.4064399369	 0.295581
H	 0.9197381566	 1.8910644651	 0.3166370739	 0.245321
C	-0.927383477	 1.5940264399	 1.1767096311	-0.168905
C	-1.5760801508	 2.9883643842	 1.0545892737	-0.1482
N	-1.8164477918	 3.7258224078	 2.2868992649	-0.354806
C	-0.8491990326	 4.0578648652	 3.025489773	 0.530715
N	 0.5125348964	 3.8080195597	 2.9771413823	-0.311441
N	 1.1190441845	 4.3376670443	 4.0552386906	-0.028523
N	 0.2881085582	 4.9590477602	 4.7481219205	 0.001844
O	-0.9936275933	 4.8358796389	 4.1429370279	-0.242588
H	-1.2668237933	 0.9752929241	 0.3335944293	 0.102528
H	-1.2823557528	 1.1154254249	 2.0948212493	 0.129807
H	-0.9758560268	 3.5878787087	 0.3483260975	 0.095087
H	-2.5523362869	 2.8508030854	 0.579510224	 0.117048
70.4772	131.5141	175.4718	200.6038	248.0256	320.548	357.1478	442.6745	557.6104	647.3399	695.3345	728.4581	770.7518	834.281	876.1817	896.2856	975.7495	996.1496	1019.1633	1039.9289	1073.5077	1119.939	1140.8361	1185.5241	1262.1112	1317.1936	1336.1674	1379.1183	1405.6446	1437.6381	1489.7363	1500.3513	1540.5858	1650.0991	1800.6506	2959.019	2997.2849	3068.9064	3085.3924	3173.3481	3490.4626	3566.9337
[NH3+]CCN=C1[N-]N=NO1	NCCN=c1[nH]nno1	
InChI=1S/C3H6N5O/c4-1-2-5-3-6-7-8-9-3/h1-2,4H2/q-1/p+1	InChI=1S/C3H7N5O/c4-1-2-5-3-6-7-8-9-3/h1-2,4H2,(H,5,6,8)
