21
gdb 108240	2.17728	1.5317	1.18077	1.9206	79.53	-0.2234	0.0702	0.2936	1176.3813	0.179705	-424.176652	-424.166701	-424.165757	-424.211127	36.41	
C	 0.3835191164	-0.6251571512	 0.9874021715	-0.256854
O	 0.5353664206	-1.8070477814	 0.2125121318	-0.276373
C	 0.893498612	-1.5630940331	-1.0929973917	 0.295546
C	 2.3119544758	-1.2877590634	-1.5831763382	-0.148859
O	 2.0652942153	-2.0706549599	-2.7820538162	-0.324022
C	 0.7595145833	-2.4507764331	-2.3033770842	 0.359365
C	 0.321990056	-3.8531889033	-2.5665111984	-0.492401
C	-0.100178535	-1.2061439325	-2.1991025296	-0.138023
C	-1.5741584685	-1.3614326805	-1.8870183206	-0.428052
H	 1.3299363681	-0.0726993366	 1.0696953125	 0.114409
H	-0.3761199814	 0.0420551654	 0.5599769448	 0.116678
H	 0.0693840486	-0.9379257617	 1.9854565536	 0.130063
H	 2.5958206175	-0.2537087555	-1.8123519445	 0.098793
H	 3.0794488932	-1.7603347389	-0.9581124364	 0.108354
H	 1.0417787945	-4.5685496338	-2.1575437398	 0.130936
H	-0.6557309302	-4.0503660857	-2.1206226139	 0.130518
H	 0.2451344417	-4.0273630034	-3.6459729413	 0.131016
H	 0.1530133021	-0.389466017	-2.8747061922	 0.0802
H	-1.7412748483	-2.1056743517	-1.1039214995	 0.131214
H	-1.9997255532	-0.4160201032	-1.5341804006	 0.11789
H	-2.1379971386	-1.6653896395	-2.775421437	 0.119602
93.9454	125.2568	158.6941	164.6191	188.1004	214.0128	244.0453	265.0955	288.3688	381.4603	418.261	502.7763	541.3684	630.1984	721.7136	762.2308	819.8333	911.9336	981.85	984.5965	1026.904	1034.0085	1079.0176	1108.4238	1111.7095	1117.1215	1150.0722	1167.818	1179.4391	1199.7712	1212.5415	1276.1846	1329.3683	1355.2517	1407.6346	1418.0358	1454.1939	1474.3444	1486.4225	1490.2623	1495.8087	1498.3566	1505.8873	1510.2871	1523.591	2997.8973	3016.1731	3033.5364	3036.4188	3055.7492	3067.6398	3089.8507	3098.4661	3101.3303	3119.6151	3124.9192	3129.0839
COC12COC1(C)C2C	CO[C@@]12CO[C@]1(C)[C@H]2C	
InChI=1S/C7H12O2/c1-5-6(2)7(5,8-3)4-9-6/h5H,4H2,1-3H3	InChI=1S/C7H12O2/c1-5-6(2)7(5,8-3)4-9-6/h5H,4H2,1-3H3/t5-,6-,7-/m1/s1
