21
gdb 53661	4.66113	0.59374	0.5682	1.8033	88.42	-0.2414	0.0615	0.3029	2024.1003	0.179333	-387.055948	-387.045086	-387.044142	-387.094048	37.714	
C	-0.0239552964	 1.4927719879	 0.0281548407	-0.49714
C	-0.0367973968	 0.0413301049	-0.0898716437	 0.105409
C	-0.0368503835	-1.1582831274	-0.1953107919	 0.026037
C	-0.0690700484	-2.6120460012	-0.3051678111	-0.356281
C	-1.323293362	-3.2307928113	 0.3525854928	-0.249982
C	-1.3924748871	-4.7380136143	 0.1801960508	 0.42867
C	-0.3653565004	-5.5679980047	 0.9212376454	-0.464622
C	-2.6717379869	-5.35616195	-0.2016708388	-0.235016
O	-1.6412468762	-5.1608296156	-1.1730086497	-0.278008
H	 0.8642704672	 1.8425254687	 0.5662129526	 0.145031
H	-0.0238029799	 1.9736425386	-0.9564809797	 0.146171
H	-0.9028995947	 1.8567411135	 0.5720700542	 0.144749
H	-0.051651114	-2.9114801144	-1.3603720263	 0.143792
H	 0.8378122784	-3.0319048467	 0.1481255822	 0.123841
H	-1.3392069497	-2.9800383806	 1.4195946561	 0.107092
H	-2.2104483904	-2.7761288442	-0.0976899536	 0.112428
H	-0.4562078769	-5.4217367938	 2.0030185441	 0.121796
H	-0.5009485922	-6.629307275	 0.7000294629	 0.127816
H	 0.6532793673	-5.2923748452	 0.6304645009	 0.129368
H	-2.8709023431	-6.3939453245	 0.0648359661	 0.108495
H	-3.5580613543	-4.7350255647	-0.3271212337	 0.110353
22.1763	45.1247	74.5086	81.4183	188.5643	194.8064	214.0116	277.3365	354.2799	361.6778	389.277	399.6552	485.3391	502.1062	718.479	764.3166	781.899	854.325	910.3881	930.6946	979.7058	1023.938	1051.1689	1054.1531	1068.1692	1104.1088	1135.4501	1162.6835	1170.3353	1194.8964	1275.8266	1287.2905	1321.5669	1372.0196	1404.8258	1415.6155	1422.5034	1471.29	1479.4595	1479.8424	1485.2145	1491.1227	1497.773	1531.8063	2374.037	3022.7102	3024.8158	3038.1994	3043.5245	3055.8912	3075.8815	3084.0824	3084.5677	3095.751	3102.4132	3124.1992	3160.7043
CC#CCCC1(C)CO1	CC#CCC[C@@]1(C)CO1	
InChI=1S/C8H12O/c1-3-4-5-6-8(2)7-9-8/h5-7H2,1-2H3	InChI=1S/C8H12O/c1-3-4-5-6-8(2)7-9-8/h5-7H2,1-2H3/t8-/m0/s1
