23
gdb 103920	3.09021	1.11189	1.03298	1.1347	86.11	-0.2412	0.0762	0.3175	1305.4237	0.204292	-388.266442	-388.256594	-388.25565	-388.300441	38.086	
C	 0.0364458657	 1.5441813558	 0.0448881202	-0.498245
C	 0.0490706538	 0.0433947975	-0.0073670712	 0.384085
C	-0.8989436663	-0.8155774752	 0.7796136766	-0.34903
C	 0.5837529392	-0.9803367416	 1.0027620108	-0.149871
C	 1.2630803168	-1.7812069243	-0.1246059082	 0.355012
C	 2.7861318782	-1.6526163255	-0.0656363095	-0.448193
C	 0.8545009979	-3.2441116163	-0.2533273029	-0.13238
O	 1.3758991628	-3.7419928103	-1.4808582984	-0.425577
C	 0.6315397432	-0.7872978555	-1.1644487474	-0.337494
H	 1.0179028736	 1.9630438619	-0.2061555088	 0.114299
H	-0.6902376552	 1.960518048	-0.664117055	 0.117428
H	-0.2355881082	 1.9039684305	 1.0430278095	 0.114168
H	-1.42123038	-0.3086975392	 1.5860787522	 0.104744
H	-1.4915022522	-1.5875149806	 0.2940641535	 0.100026
H	 1.0297862638	-0.8049826188	 1.9768284927	 0.073727
H	 3.1881556083	-2.1778177385	 0.8095479323	 0.102991
H	 3.2419812527	-2.0858620479	-0.9595498906	 0.132318
H	 3.0878147808	-0.6029426275	 0.009082147	 0.106549
H	 1.2503554587	-3.8106861524	 0.6065338643	 0.079166
H	-0.2407438832	-3.3379602581	-0.2312183655	 0.079834
H	 1.1047087564	-4.6595426066	-1.5734672841	 0.286419
H	-0.098010059	-1.2135656322	-1.8605333547	 0.092288
H	 1.3927298421	-0.2589472332	-1.7438291831	 0.097739
91.3386	132.7574	169.3306	206.7965	243.8146	252.2608	283.313	314.1916	327.3257	369.8689	422.4597	443.9971	496.5428	597.1372	684.0081	800.0746	813.4408	874.5506	911.5856	944.3393	952.4248	975.6406	979.5349	990.4706	1016.687	1045.7439	1067.13	1077.4239	1094.625	1134.5047	1176.1279	1183.4174	1221.5495	1239.9341	1265.3898	1280.792	1295.6235	1327.5024	1391.4208	1403.179	1423.2918	1456.4014	1482.1168	1485.2694	1492.7526	1497.6321	1501.5013	1505.4777	1519.2012	2958.9273	3007.5589	3016.2138	3025.7286	3047.004	3073.2946	3088.0211	3091.166	3102.4477	3103.6383	3121.2012	3155.5782	3187.9438	3833.3567
CC12CC1C(C)(CO)C2	C[C@]12C[C@H]1[C@@](C)(CO)C2	
InChI=1S/C8H14O/c1-7-3-6(7)8(2,4-7)5-9/h6,9H,3-5H2,1-2H3	InChI=1S/C8H14O/c1-7-3-6(7)8(2,4-7)5-9/h6,9H,3-5H2,1-2H3/t6-,7-,8-/m1/s1
