17
gdb 38674	3.12478	1.84062	1.3505	2.2513	72.63	-0.2361	0.0227	0.2588	938.8103	0.139005	-417.968121	-417.96137	-417.960426	-417.999204	26.933	
C	-0.0335581287	 1.4650520621	 0.1036247821	-0.305613
N	 1.2660441898	 0.7918618599	-0.0969234545	-0.160514
C	 1.6320108175	 0.1999542472	 1.2412263553	-0.169122
C	 0.3751209349	-0.7193524456	 1.2481221263	-0.051092
N	 0.7086478018	-2.1152201252	 1.0529870708	-0.27161
C	 0.5332524319	-2.6283272325	-0.0919873975	 0.136912
O	 0.0259855822	-2.1030908605	-1.2326859156	-0.225724
C	-0.5773537999	-0.7978980159	-1.1672484772	-0.172976
C	-0.0324091409	 0.0017433007	-0.0346800553	 0.287724
H	-0.2588789904	 1.9157213393	 1.0691414504	 0.114273
H	-0.3365305292	 2.0608019942	-0.7533088992	 0.123491
H	 2.5606766852	-0.3671595685	 1.1700290344	 0.125786
H	 1.7080022464	 0.9420946824	 2.0423408856	 0.105289
H	-0.2958106145	-0.6298132098	 2.1089140477	 0.083491
H	 0.8180704891	-3.6629841971	-0.2751453954	 0.127262
H	-0.3885081088	-0.3203262512	-2.1324703185	 0.132156
H	-1.6603824565	-0.9384536295	-1.0498937595	 0.120266
132.9405	156.4407	305.9588	347.3737	453.3443	482.8684	506.1401	553.9737	657.958	743.3927	770.8546	838.3058	865.5145	918.0935	933.6124	967.4549	976.524	1003.3596	1025.0135	1040.6296	1094.0184	1113.0052	1131.2245	1175.7985	1203.4333	1234.0756	1258.0756	1272.6637	1314.8655	1344.5427	1357.3592	1417.6638	1432.8056	1487.8324	1489.9324	1510.6822	1720.2347	3018.6778	3040.7108	3054.1894	3093.2979	3095.5041	3133.2314	3158.229	3184.1221
C1N2CC3N=COCC123	C1N2C[C@@H]3N=COC[C@]123	
InChI=1S/C6H8N2O/c1-5-6(2-8(1)6)3-9-4-7-5/h4-5H,1-3H2	InChI=1S/C6H8N2O/c1-5-6(2-8(1)6)3-9-4-7-5/h4-5H,1-3H2/t5-,6-,8?/m0/s1
