16
gdb 5623	3.24116	1.87391	1.2021	1.7551	67.63	-0.1879	0.0418	0.2297	974.4859	0.13206	-379.928422	-379.920556	-379.919612	-379.960505	29.358	
C	-0.055023529	 1.409298489	 0.0074135732	-0.324762
N	 0.0837923144	-0.0343671568	-0.0769557703	-0.398403
C	 0.6581440551	-0.6748978386	 1.021848788	 0.232445
C	 1.2983454236	-0.1662106362	 2.1134832288	-0.095107
O	 1.7390904741	-1.1790562385	 2.9189955965	-0.162854
C	 1.3723346276	-2.3497326857	 2.3245940684	-0.072679
C	 0.7084730789	-2.1084024598	 1.1619316018	 0.112505
N	 0.0854364694	-2.9844210251	 0.2525012956	-0.620532
H	 0.939271662	 1.8679011767	 0.0445035432	 0.131827
H	-0.5621565726	 1.7789292713	-0.8869221844	 0.121538
H	-0.6139409278	 1.745942889	 0.8961850809	 0.110379
H	-0.775116899	-0.4946588926	-0.3545375012	 0.237438
H	 1.5223538334	 0.8325839084	 2.4445101102	 0.121181
H	 1.6410445006	-3.2537337196	 2.8455173722	 0.118719
H	 0.2675778449	-3.9569562673	 0.4677004092	 0.242002
H	 0.3894467243	-2.8032545842	-0.6991645121	 0.246305
91.984	168.3757	200.1031	238.2114	285.6357	307.3235	376.2902	524.6223	588.7667	594.2486	640.5956	674.3487	709.885	727.9725	774.3363	836.6532	895.5529	1065.6119	1073.1114	1117.449	1151.8998	1164.6003	1209.5491	1243.6019	1270.1209	1342.792	1426.4796	1457.7687	1481.9476	1500.9645	1522.3474	1613.0019	1639.7235	1695.662	2968.7432	3062.5156	3117.6283	3272.317	3288.7366	3502.8045	3541.8057	3601.5732
CNC1=COC=C1N	CNc1cocc1N	
InChI=1S/C5H8N2O/c1-7-5-3-8-2-4(5)6/h2-3,7H,6H2,1H3	InChI=1S/C5H8N2O/c1-7-5-3-8-2-4(5)6/h2-3,7H,6H2,1H3
