19
gdb 96729	2.37045	1.33384	0.9198	1.6392	83.39	-0.244	-0.0219	0.2221	1289.6331	0.159213	-419.216641	-419.207218	-419.206273	-419.25183	33.844	
C	-0.5617138686	 2.0139865619	-0.6752984497	-0.321938
N	-0.723644669	 0.5946461312	-0.4298613643	-0.293923
C	 0.1700732	-0.2505727049	-0.7762573413	 0.375008
N	-0.2149429773	-1.5741590943	-0.4310802805	-0.339014
C	 0.3225821167	-2.8235602122	-0.5538541003	 0.164946
O	 1.3828875581	-3.1440534207	-1.0442281498	-0.31645
C	 1.4461724881	 0.0898678139	-1.4504914098	-0.066208
C	 2.8099896352	-0.5430595229	-1.2162986095	-0.270884
C	 2.1477635693	-0.6972662315	-2.5475743606	-0.270881
H	-0.4711568095	 2.2523863786	-1.7442395467	 0.123643
H	-1.4448024045	 2.5351499357	-0.2964891158	 0.123879
H	 0.3149054661	 2.4359594311	-0.1642527495	 0.12364
H	-1.1227192411	-1.5366321537	 0.0161533213	 0.254605
H	-0.3730302028	-3.5690196626	-0.1214874676	 0.091567
H	 1.5016496661	 1.1596751173	-1.6019468365	 0.096406
H	 3.637099978	 0.150022817	-1.1090427473	 0.112572
H	 2.860707516	-1.4312893578	-0.6027623965	 0.150225
H	 1.7755504738	-1.6839946458	-2.7837550364	 0.150223
H	 2.5022755355	-0.1144024903	-3.3905127895	 0.112585
28.0439	109.9389	130.4353	209.5536	213.2803	230.9888	271.1382	273.4119	334.6474	455.2901	546.2048	657.0908	678.2307	748.4035	792.7221	846.6332	852.284	911.2743	942.8265	1018.0761	1025.9583	1065.0304	1098.4994	1100.4085	1105.7444	1143.8511	1154.1098	1193.318	1203.1698	1243.2283	1350.6756	1408.4903	1440.8701	1454.3333	1457.6081	1486.7692	1493.2148	1509.5548	1523.7353	1703.8795	1810.2309	2944.1322	2991.4724	3044.288	3097.2638	3147.9629	3150.7394	3196.2449	3254.4701	3262.4101	3574.4176
CN=C(NC=O)C1CC1	CN=C(NC=O)C1CC1	
InChI=1S/C6H10N2O/c1-7-6(8-4-9)5-2-3-5/h4-5H,2-3H2,1H3,(H,7,8,9)	InChI=1S/C6H10N2O/c1-7-6(8-4-9)5-2-3-5/h4-5H,2-3H2,1H3,(H,7,8,9)
