15
gdb 67182	2.86459	1.5578	1.50286	3.373	64.2	-0.2414	-0.0275	0.2139	928.7997	0.112658	-457.730124	-457.723184	-457.722239	-457.7614	27.626	
O	-0.12674477	 1.4322496118	-0.006164535	-0.445316
C	 0.0121340932	 0.0698319233	-0.012431318	 0.301767
C	-1.1430569913	-0.8994706928	-0.1204310369	-0.131546
C	-0.9957683675	-1.8021911618	-1.3325867325	-0.350499
C	 0.4633478274	-1.577241753	-1.7817552677	 0.443533
O	 0.9657022311	-1.9228644085	-2.8157885763	-0.316671
C	 1.1294562078	-0.8147719649	-0.6319740553	-0.108242
O	 1.0391444582	-1.7381288495	 0.5021246838	-0.296827
C	-0.1073251013	-1.0413073775	 0.9958958252	 0.002594
H	 0.5908491659	 1.8153941536	 0.5119001409	 0.296353
H	-2.1153652292	-0.5327175035	 0.1885582984	 0.108175
H	-1.1648050407	-2.8642447621	-1.1303849241	 0.14162
H	-1.6695706851	-1.5075629733	-2.1428265339	 0.138208
H	 2.1399204053	-0.4443315612	-0.800495932	 0.098288
H	-0.3316149637	-1.1034183407	 2.0537065737	 0.118563
102.2359	226.7758	321.9016	330.1507	383.8221	447.6409	485.1979	559.0017	587.4953	656.9946	709.3905	752.6758	806.3992	862.0675	898.7188	919.5286	976.6755	987.5121	1022.114	1023.5544	1068.0292	1129.1584	1159.595	1172.5762	1193.6215	1232.5954	1251.5476	1292.2891	1298.9877	1331.4401	1447.7287	1488.0382	1857.298	3060.3369	3103.3451	3133.8612	3186.7921	3197.3522	3786.5552
OC12C3CC(=O)C1OC23	O[C@@]12[C@H]3CC(=O)[C@@H]1O[C@@H]23	
InChI=1S/C6H6O3/c7-3-1-2-4-6(2,8)5(3)9-4/h2,4-5,8H,1H2	InChI=1S/C6H6O3/c7-3-1-2-4-6(2,8)5(3)9-4/h2,4-5,8H,1H2/t2-,4+,5-,6+/m0/s1
