14
gdb 132985	3.41399	1.42149	1.0099	3.7669	67.37	-0.2424	-0.0552	0.1872	1076.215	0.10287	-474.203778	-474.196435	-474.195491	-474.235858	27.043	
C	-0.030918683	 1.4461696481	 0.0161106322	-0.326985
N	-0.0073796578	-0.0117756265	 0.0027377102	-0.075885
C	-0.037032988	-0.7172692984	-1.1367078076	 0.122281
N	-0.0181531813	-2.0186925894	-1.2132928826	-0.35165
C	 0.0356565353	-2.6110316847	 0.0092820436	 0.340876
F	 0.0562864033	-3.9248373546	-0.0532638784	-0.045023
N	 0.0698317587	-2.0797838546	 1.1790130855	-0.372313
C	 0.0501759412	-0.6968683479	 1.2540343376	 0.429637
N	 0.0775464688	 0.0148351553	 2.3091360107	-0.571032
H	 0.865319408	 1.8237427478	 0.5122135253	 0.16817
H	-0.0782860137	 1.809183255	-1.012174842	 0.13157
H	-0.8964631402	 1.7941757817	 0.5831315672	 0.168422
H	-0.0801762362	-0.1365022153	-2.0550253169	 0.14831
H	 0.1173616649	-0.6013028165	 3.119070175	 0.233622
102.6176	159.5901	191.5409	278.3698	337.8663	392.356	449.2015	492.0723	571.3847	617.0105	740.2504	769.9782	802.6164	808.7476	863.3865	971.3777	1000.6927	1092.2096	1142.9543	1158.6965	1206.483	1302.4838	1366.4079	1395.939	1451.1947	1460.712	1464.7654	1517.1709	1589.5004	1682.0678	1734.6389	3060.5681	3138.7904	3151.1996	3171.7847	3517.9861
CN1C=NC(F)=NC1=N	CN1CN=C(F)N=C1[NH]	
InChI=1S/C4H5FN4/c1-9-2-7-3(5)8-4(9)6/h2,6H,1H3	InChI=1S/C4H6FN4/c1-9-2-7-3(5)8-4(9)6/h6H,2H2,1H3
