19
gdb 109554	2.06845	1.5797	1.05581	3.1034	72.4	-0.234	-0.0258	0.2082	1188.142	0.156309	-460.15391	-460.143859	-460.142915	-460.189179	35.488	
C	-0.189361414	 1.4222991443	-0.180339931	-0.24974
O	 0.0689609063	 0.0388356097	-0.0003520241	-0.250621
C	 0.7136767778	-0.5589537482	-1.1001009329	 0.04308
C	 1.1700578924	-2.0030389843	-0.7271632531	-0.128081
C	 1.5069094215	-2.3617565157	 0.7117265087	-0.406004
C	-0.1754114456	-2.4773695021	-1.307963342	 0.322298
O	-0.9194068211	-3.3758349039	-1.0402026742	-0.298705
C	-0.3450924202	-1.1629059822	-2.1049990726	 0.042966
O	-1.6063643554	-0.5828464891	-2.2204604322	-0.423257
H	 0.7482143762	 1.9850600746	-0.3010109114	 0.111453
H	-0.8285668216	 1.6067579835	-1.0513936224	 0.130683
H	-0.6958535524	 1.7703510276	 0.7229919556	 0.130293
H	 1.4763159936	 0.1039231221	-1.5250335838	 0.067021
H	 1.9759994503	-2.3013979215	-1.40935105	 0.105441
H	 0.7479833124	-1.9714792356	 1.3921673586	 0.141051
H	 1.5468620559	-3.4488015976	 0.8254623515	 0.132363
H	 2.4761616086	-1.9493975194	 1.0070988327	 0.118258
H	 0.07924348	-1.2556752521	-3.110834944	 0.115624
H	-2.0373356449	-0.66544262	-1.3616901933	 0.295877
55.0518	108.8531	145.3236	162.2547	182.1236	193.687	215.3238	229.2002	321.2119	359.7238	461.4871	524.8586	560.2948	613.9354	761.6175	800.8464	822.9532	918.281	944.1539	975.8993	1053.1551	1075.222	1113.9408	1143.0994	1152.7406	1180.3744	1184.3029	1213.4198	1245.3407	1255.5104	1300.5941	1348.4823	1374.3019	1405.9276	1425.7356	1479.1567	1486.9965	1489.2942	1499.9828	1515.9843	1886.4663	2993.7082	3032.1796	3040.5949	3049.5265	3063.1251	3067.4653	3114.8688	3122.6036	3140.2709	3800.3201
COC1C(C)C(=O)C1O	CO[C@H]1[C@@H](C)C(=O)[C@H]1O	
InChI=1S/C6H10O3/c1-3-4(7)5(8)6(3)9-2/h3,5-6,8H,1-2H3	InChI=1S/C6H10O3/c1-3-4(7)5(8)6(3)9-2/h3,5-6,8H,1-2H3/t3-,5+,6-/m0/s1
