14
gdb 14809	2.5915	2.15324	1.32031	4.7308	67.75	-0.2539	0.0087	0.2626	905.2533	0.107263	-341.530963	-341.523397	-341.522453	-341.563116	27.389	
C	-0.3880149742	-1.1639002652	-0.4860505343	-0.420329
C	-0.185360562	-0.0258363277	-0.1593562839	 0.363681
C	 0.0527616662	 1.3549221579	 0.2120878295	-0.188376
N	 0.2924212577	 1.6280726904	 1.6499904793	-0.286058
C	 1.3257979504	 2.6336139948	 1.333688165	-0.172985
C	 1.4491314288	 2.0227420284	-0.0958707037	-0.193282
C	 2.5598002467	 1.1046593923	-0.2737338816	 0.307118
N	 3.4597882646	 0.3954335798	-0.4245426708	-0.323739
H	-0.5509179749	-2.1756747587	-0.7657132138	 0.207092
H	-0.7292276364	 1.9912938423	-0.2296990514	 0.103079
H	-0.5145503303	 1.9576645006	 2.167869074	 0.229496
H	 0.9714694696	 3.6722121127	 1.2846656744	 0.105158
H	 2.2149375385	 2.5838291454	 1.9663847588	 0.13581
H	 1.4343751954	 2.7358033873	-0.9210018813	 0.133335
87.458	107.1268	191.6665	215.3131	278.2955	437.119	498.8245	528.2841	602.5244	640.2033	674.1757	690.4797	783.8109	818.6891	929.8682	996.6804	1001.9075	1045.7927	1104.0217	1105.0873	1134.5877	1185.7163	1242.5141	1315.939	1348.2542	1366.4414	1392.982	1520.2329	2242.6086	2361.2287	2978.5713	3009.3998	3097.544	3110.2406	3502.6108	3536.6362
C#CC1NCC1C#N	C#C[C@H]1NC[C@H]1C#N	
InChI=1S/C6H6N2/c1-2-6-5(3-7)4-8-6/h1,5-6,8H,4H2	InChI=1S/C6H6N2/c1-2-6-5(3-7)4-8-6/h1,5-6,8H,4H2/t5-,6-/m1/s1
