19
gdb 87580	2.6044	1.422	1.20425	0.391	75.22	-0.2496	0.0715	0.3211	1128.0138	0.156863	-422.969651	-422.960902	-422.959958	-423.0029	33.019	
C	 0.0919226369	 1.6123554673	-0.0806742668	-0.41656
C	-0.037224146	 0.1201949889	 0.0727571159	-0.019476
O	 1.1644735448	-0.6648668887	-0.1082438804	-0.304041
C	 0.5671757735	-0.6266601898	 1.1742739766	 0.422242
C	 1.304886943	-0.1427537187	 2.4148216438	-0.097324
O	 0.3110617319	-0.0852044619	 3.4533213118	-0.243997
C	 0.8988806812	-1.3549557171	 3.145926727	 0.020765
C	 0.1491807711	-1.9268409107	 1.9217657989	-0.111481
C	-1.3247293003	-2.2658556494	 2.0850845759	-0.412774
H	 0.9763605204	 1.9850616188	 0.4418572751	 0.12545
H	 0.1761459237	 1.8859242667	-1.1374882289	 0.129538
H	-0.7916730468	 2.113081935	 0.3290605508	 0.129396
H	-0.910536006	-0.3252717154	-0.4069927386	 0.091775
H	 2.1797187692	 0.4897190859	 2.5054950476	 0.113858
H	 1.3930823028	-1.8834163038	 3.9528965242	 0.107009
H	 0.7116981529	-2.7592837386	 1.4842229522	 0.095524
H	-1.8539547999	-1.4383989854	 2.5650935863	 0.133569
H	-1.7942482765	-2.4599090052	 1.1151726909	 0.119585
H	-1.4564844957	-3.1620738277	 2.7008425177	 0.116943
102.6127	137.1598	177.3105	182.1142	219.4242	257.9145	284.2834	435.3096	465.826	490.2023	572.4213	642.7991	748.7405	793.1036	845.9942	858.163	861.401	921.0035	956.319	978.0792	1020.4629	1041.3038	1059.7104	1094.0217	1117.6883	1124.0347	1152.9806	1169.378	1216.6262	1228.4301	1264.6918	1349.812	1358.7827	1371.3439	1407.14	1409.505	1473.8508	1489.1884	1493.1105	1500.4407	1528.6259	3034.9487	3038.8778	3055.9178	3092.1638	3097.4507	3103.6378	3120.8569	3127.4649	3182.8604	3199.191
CC1OC11C2OC2C1C	C[C@H]1O[C@]21[C@H]1O[C@H]1[C@H]2C	
InChI=1S/C7H10O2/c1-3-5-6(8-5)7(3)4(2)9-7/h3-6H,1-2H3	InChI=1S/C7H10O2/c1-3-5-6(8-5)7(3)4(2)9-7/h3-6H,1-2H3/t3-,4-,5+,6+,7-/m1/s1
