16
gdb 15399	3.87282	1.09336	0.92282	1.0846	67.63	-0.2614	0.0196	0.281	1228.4553	0.127804	-383.673545	-383.664778	-383.663833	-383.707549	30.984	
O	 0.0073656219	 1.3862513249	 0.0378204939	-0.419983
C	-0.068253138	-0.0089947257	 0.2816082923	-0.06719
C	-1.3146652148	-0.5309338688	-0.4276616443	-0.223468
C	-1.4549140348	-2.0237630515	-0.2869463605	 0.065544
O	-1.8212625436	-2.5289217845	 0.9988407355	-0.246226
C	-2.7549345318	-2.7025588664	-0.0808036539	-0.154223
C	-4.0010867345	-1.9881485326	-0.0085801136	 0.341428
C	-5.061253487	-1.4229848423	 0.0323478136	-0.430982
H	 0.7524619034	 1.738065726	 0.5333358999	 0.287211
H	 0.8262092779	-0.5301697704	-0.0992799144	 0.082502
H	-0.1448863252	-0.2305959664	 1.3563894699	 0.107018
H	-2.1983329297	-0.031844251	-0.0212050777	 0.128159
H	-1.2509421596	-0.2736885589	-1.4919778097	 0.113327
H	-0.6820310417	-2.6178979051	-0.7806857087	 0.095557
H	-2.8417295196	-3.7338059344	-0.4230616023	 0.116351
H	-5.9943859728	-0.917380313	 0.07518431	 0.204975
64.6836	87.4526	111.3013	184.57	227.8343	259.8629	334.5646	376.9073	485.2029	557.2945	600.4981	629.8591	670.7717	782.3538	823.1065	836.4257	950.6266	1016.5796	1027.5794	1074.2558	1086.7558	1144.5075	1163.927	1229.6414	1247.5146	1282.0668	1310.4896	1327.5151	1386.5936	1460.0863	1462.7487	1480.9518	1529.5436	2240.1679	2960.1049	3007.95	3044.9036	3078.2572	3107.962	3111.7583	3501.9704	3832.1958
OCCC1OC1C#C	OCC[C@H]1O[C@H]1C#C	
InChI=1S/C6H8O2/c1-2-5-6(8-5)3-4-7/h1,5-7H,3-4H2	InChI=1S/C6H8O2/c1-2-5-6(8-5)3-4-7/h1,5-7H,3-4H2/t5-,6+/m0/s1
