16
gdb 30179	4.68807	1.32009	1.06761	1.7599	71.5	-0.1668	0.0473	0.2141	1094.9107	0.125309	-437.891903	-437.884278	-437.883334	-437.923892	29.357	
C	-0.5536982694	 1.4877657599	-0.0286066544	-0.404407
C	 0.2348518896	 0.2056242428	 0.0107934338	 0.203998
O	 1.1630304811	 0.14514696	-1.11982099	-0.301062
C	 2.2127604737	-0.512932956	-0.5457215088	 0.32882
C	 2.1539020536	-0.5410104612	 0.8062735301	 0.267115
O	 1.0007750843	 0.1093863601	 1.223203438	-0.297338
C	 3.386531078	-1.0249154422	 1.3015017637	-0.317586
C	 4.1546729224	-1.2792448708	 0.1748132449	-0.079
N	 3.4337022618	-0.9310377663	-0.9669470237	-0.385504
H	 0.1233978014	 2.3427956796	 0.0304522162	 0.139001
H	-1.1289317018	 1.5447273507	-0.9561439641	 0.132546
H	-1.2447690528	 1.5185323538	 0.8175855211	 0.136602
H	-0.4026890121	-0.6913327179	-0.0625377928	 0.083566
H	 3.6914525761	-1.1881232598	 2.3222902573	 0.10535
H	 5.1157827925	-1.7565363646	 0.0818238242	 0.118638
H	 3.7221343815	-1.1027193081	-1.9136594054	 0.269262
87.7608	197.8431	206.5654	263.4713	308.1488	390.9068	468.0158	489.338	603.7763	608.9901	633.5553	667.5265	745.096	768.8755	792.5726	829.4155	866.725	941.9058	1043.8213	1063.0806	1102.5066	1111.0477	1156.3621	1183.5772	1264.2157	1359.1818	1365.3862	1387.3943	1419.5836	1472.3348	1477.5406	1486.5402	1488.439	1565.804	1661.7094	2963.002	3056.1975	3135.4517	3142.4784	3260.286	3280.0704	3688.0074
CC1OC2=C(O1)C=CN2	C[C@H]1Oc2c(O1)cc[nH]2	
InChI=1S/C6H7NO2/c1-4-8-5-2-3-7-6(5)9-4/h2-4,7H,1H3	InChI=1S/C6H7NO2/c1-4-8-5-2-3-7-6(5)9-4/h2-4,7H,1H3/t4-/m1/s1
