17
gdb 61441	3.19415	0.93347	0.78205	5.3923	65.76	-0.2507	0.0034	0.2541	1404.7973	0.13612	-492.353844	-492.344369	-492.343425	-492.388943	33.97	
N	 0.019024316	 1.3398062468	 0.1618943415	-0.518283
C	 0.0816874885	-0.0104024322	 0.0375032734	 0.407366
O	 1.1279942077	-0.631413308	-0.0033553341	-0.363203
C	-1.2732605722	-0.7411917206	-0.0235603731	-0.116718
N	-1.1216184927	-2.0559782697	-0.6624265366	-0.51922
H	-1.1151305506	-1.9563712463	-1.673032901	 0.249798
H	-0.1962859428	-2.4039071497	-0.4085662717	 0.258728
H	-2.580869667	-2.7121355102	 0.0904294645	 0.316154
C	-1.8190434283	-0.922395614	 1.4120393689	-0.323186
C	-3.1970334431	-1.5942017199	 1.4979471429	 0.39101
O	-3.3824614926	-2.6292179301	 0.6728929921	-0.369156
O	-4.0395748593	-1.2258776092	 2.2738691569	-0.330976
H	 0.8756149424	 1.8537373894	 0.2923002776	 0.271139
H	-0.8536733149	 1.8335885611	 0.2332680664	 0.269971
H	-1.9896569139	-0.1509791285	-0.6060789306	 0.104397
H	-1.1037886913	-1.5368306495	 1.9744525472	 0.142915
H	-1.8966319158	 0.0360137306	 1.9278755758	 0.129263
52.0529	84.5676	105.5119	164.0005	240.6256	263.8201	306.6383	342.4527	388.402	439.572	492.5408	550.1725	606.4432	639.8465	691.2506	757.7286	835.7736	889.3915	921.5745	976.1931	984.6608	1019.5364	1087.7774	1141.043	1145.3133	1236.6738	1274.5835	1302.7426	1329.5278	1360.4012	1431.3185	1466.1661	1503.2317	1621.9196	1662.9593	1794.3654	1858.9283	3035.8582	3053.8823	3124.354	3216.7363	3462.4951	3555.951	3598.593	3732.061
NC(=O)C([NH3+])CC([O-])=O	NC(=O)[C@@H](N)CC(=O)O	
InChI=1S/C4H8N2O3/c5-2(4(6)9)1-3(7)8/h2H,1,5H2,(H2,6,9)(H,7,8)	InChI=1S/C4H8N2O3/c5-2(4(6)9)1-3(7)8/h2H,1,5H2,(H2,6,9)(H,7,8)/t2-/m0/s1
