15
gdb 33554	2.20561	1.66373	1.22595	3.2574	77.9	-0.2347	0.0132	0.2479	1049.7832	0.111441	-379.595865	-379.587413	-379.586469	-379.628854	31.892	
C	-0.0808500094	-1.2627182577	-0.0353773083	-0.441693
C	-0.0317414125	-0.0631986548	-0.0181904703	 0.319003
C	 0.0127668327	 1.4000069639	 0.0475724219	-0.090366
C	-0.5889001133	 1.9326043033	 1.4080411703	-0.226919
N	 0.3742405215	 2.9825128936	 1.7474666001	-0.294658
C	 1.5088882437	 2.727240283	 1.0051619239	 0.062512
N	 1.4313566922	 1.891055847	 0.0420940644	-0.25802
C	-0.6967502696	 1.983187275	-1.1004780311	 0.376295
C	-1.2849811144	 2.4799372458	-2.0219254184	-0.484142
H	-0.1159901305	-2.3235792358	-0.0694215947	 0.198337
H	-1.597660159	 2.3263335805	 1.2780162142	 0.135879
H	-0.6018756444	 1.1308598306	 2.1545200332	 0.122435
H	 0.4785409733	 3.2500149275	 2.7150448327	 0.248725
H	 2.4203665584	 3.2737037871	 1.2317103626	 0.13242
H	-1.7953162886	 2.910408101	-2.8478206804	 0.200192
84.442	124.8445	167.7704	175.7569	261.7119	420.4329	460.7086	480.9413	532.6537	552.5908	569.9645	596.6441	638.3478	641.1354	645.9333	649.3949	778.2669	866.5321	926.0693	964.5598	1012.237	1019.0611	1092.7694	1142.3219	1154.9662	1236.5865	1297.9731	1338.08	1443.1111	1515.8357	1680.9345	2239.2211	2245.2149	3041.4611	3120.7843	3183.4328	3501.6647	3502.3832	3610.0843
C#CC1(CNC=N1)C#C	C#CC1(CN[CH][N]1)C#C	
InChI=1S/C7H6N2/c1-3-7(4-2)5-8-6-9-7/h1-2,6H,5H2,(H,8,9)	InChI=1S/C7H6N2/c1-3-7(4-2)5-8-6-9-7/h1-2,6H,5H2,(H,8,9)
