19
gdb 38005	2.97869	2.18277	1.90722	1.034	84.03	-0.2044	-0.0055	0.1988	831.1799	0.162766	-348.667625	-348.661771	-348.660827	-348.697291	26.391	
C	-0.0448590394	 1.5129125982	-0.1508681777	-0.220154
C	 1.5256808298	 1.5861548072	-0.0214821493	-0.084099
C	 1.9718174866	 1.3388750316	-1.4464155595	-0.145859
C	 2.0195482492	 0.0229635877	-1.6956132829	 0.109025
C	 0.9348569816	-0.7608827437	-2.4336029095	-0.290432
C	 0.4838574424	-1.1141891433	-0.9615013548	-0.03561
C	 0.004432176	-0.0193397997	 0.1107301739	-0.035882
C	 1.4739614008	 0.1454838616	 0.6308465545	-0.042887
C	 1.9355495767	-0.8405645356	-0.44700384	-0.061273
H	-0.541858832	 2.0061079495	 0.6927240678	 0.097199
H	-0.4859003033	 1.8864085452	-1.0809471481	 0.093094
H	 1.9408806779	 2.4331143741	 0.5304993046	 0.062002
H	 1.7268157021	 2.0761650891	-2.2075795536	 0.088092
H	 0.2742409089	-0.1896085098	-3.0898050388	 0.103525
H	 1.2491303272	-1.68377367	-2.9354333038	 0.10319
H	-0.011977124	-2.0812252363	-0.8345585617	 0.067167
H	-0.7842449439	-0.4163305457	 0.7508299975	 0.070811
H	 1.7389686149	 0.0300932158	 1.6801310217	 0.059129
H	 2.6717827984	-1.631121476	-0.2945258705	 0.062964
240.4748	347.5686	419.9796	468.5831	581.8239	620.7491	669.8721	693.1873	765.3683	805.7196	830.8737	854.7197	863.9559	885.1875	893.8735	919.9335	933.9809	938.1358	945.5092	969.6858	1019.3147	1046.135	1062.7705	1089.9245	1109.1162	1120.3795	1123.3551	1188.583	1195.4716	1208.1711	1215.8022	1233.9197	1255.7243	1259.5184	1290.1373	1299.4283	1319.1972	1323.7585	1473.5661	1485.0567	1646.4848	3026.1249	3029.9183	3054.2601	3068.0394	3079.	3091.7888	3095.835	3104.8789	3130.2345	3150.7304
C1C2C=C3CC4C1C2C34	C1[C@@H]2[CH][C]3C[C@@H]4[C@H]1[C@H]2[C@H]34	
InChI=1S/C9H10/c1-4-2-6-7-3-5(1)9(7)8(4)6/h1,4,6-9H,2-3H2	InChI=1S/C9H10/c1-4-2-6-7-3-5(1)9(7)8(4)6/h1,4,6-9H,2-3H2/t4-,6-,7+,8-,9+/m0/s1
