19
gdb 78666	2.65572	1.55263	1.20816	1.2212	74.93	-0.2409	0.075	0.3159	1084.3411	0.158389	-422.971208	-422.962812	-422.961868	-423.003472	33.344	
C	-0.1500363295	 1.4369927944	 0.0212014944	-0.410604
C	 0.0388535398	-0.0746207024	 0.0442623067	 0.025863
C	 0.8441385318	-0.6267785023	-1.1353050868	-0.144827
C	 2.1519102067	-0.541046153	-0.3685942975	-0.138549
C	 1.2375163585	-0.5505305211	 0.917539443	-0.133027
C	 1.2149012625	-2.1090559905	 0.8012922774	 0.048512
O	 0.0241559336	-2.8220145061	 1.055309762	-0.441125
C	 1.5668111861	-1.8987368378	-0.6560276067	 0.366936
O	 2.0805484855	-2.8297555453	-1.5330357072	-0.465753
H	 0.7952979247	 1.9516236572	-0.1834855793	 0.11465
H	-0.8670052925	 1.7344065315	-0.7519953783	 0.1111
H	-0.5309359605	 1.7980820732	 0.9832523176	 0.107824
H	-0.9083206253	-0.5809584973	 0.2615188632	 0.072655
H	 0.6987185167	-0.4678723024	-2.1973651475	 0.081838
H	 3.1196827398	-0.1241869232	-0.6004617208	 0.0971
H	 1.4663753824	-0.0692682532	 1.8673764649	 0.062977
H	 2.0710163685	-2.5479800535	 1.332147064	 0.070957
H	-0.0505780468	-2.9674077543	 2.0035681987	 0.282446
H	 1.344643388	-3.3366156637	-1.8940855677	 0.291029
177.4518	205.0703	228.2322	238.2912	247.488	268.2943	306.9924	361.5558	424.1133	510.8197	605.7408	669.9419	738.3569	781.4214	791.6779	842.5293	862.9073	906.1579	931.2404	958.9003	968.6158	1007.8009	1053.2778	1076.3951	1099.5846	1116.1819	1129.5635	1152.0301	1168.2363	1198.0489	1236.2207	1261.2517	1278.9379	1303.3274	1328.7853	1374.7532	1406.4744	1412.1225	1474.6844	1494.0148	1498.1807	3013.6873	3023.6766	3044.1584	3088.7119	3095.9389	3122.934	3185.9883	3239.1228	3794.8575	3820.1877
CC1C2C3C1C(O)C23O	C[C@H]1[C@H]2[C@H]3[C@@H]1[C@@H](O)[C@@]23O	
InChI=1S/C7H10O2/c1-2-3-5-4(2)7(5,9)6(3)8/h2-6,8-9H,1H3	InChI=1S/C7H10O2/c1-2-3-5-4(2)7(5,9)6(3)8/h2-6,8-9H,1H3/t2-,3-,4+,5-,6-,7-/m1/s1
