18
gdb 133865	2.8946	2.08696	1.42818	2.148	88.57	-0.1325	-0.0539	0.0786	915.8811	0.14686	-401.792449	-401.785191	-401.784247	-401.823773	29.474	
C	-1.1902300306	 1.2143597318	-0.6811466501	-0.271259
C	-1.7659668751	 0.0296703989	 0.1413028101	-0.060724
C	-1.3930098263	-1.3549948231	-0.4231461586	-0.207864
N	-0.0434915652	-1.2135683866	 0.2390067583	-0.035011
C	 1.2578195305	-1.2021674368	-0.5092539394	-0.250014
C	 1.9912845032	 0.027203661	-0.2741609431	-0.049389
O	 1.3776460766	 1.2329724148	-0.2869154044	-0.186607
C	 0.0830199848	 1.2941401315	 0.2416528	 0.125837
C	-0.3931808535	-0.011205916	 0.8762793577	-0.065071
H	-1.78663993	 2.1294088784	-0.6834993509	 0.112968
H	-0.9361649054	 0.9560581138	-1.7115914443	 0.116678
H	-2.728769966	 0.1715913957	 0.6282875131	 0.073919
H	-1.3784072598	-1.4398880648	-1.5142893165	 0.111845
H	-1.9431909594	-2.2061881921	-0.0113043902	 0.117204
H	 0.9480107188	-1.3304683389	-1.5567301173	 0.130176
H	 1.870969588	-2.0696217142	-0.2415828938	 0.125831
H	 3.0567513715	 0.0776917876	-0.1059627922	 0.109107
H	 0.0619183079	 2.1776550593	 0.8841300314	 0.102372
108.6491	180.2797	295.5923	341.2783	389.5448	405.4378	440.0097	524.3437	575.9308	617.1439	732.4961	781.9007	787.1282	829.7594	894.5751	906.8637	961.7485	979.828	987.9978	1013.5919	1044.8468	1066.7764	1095.5138	1116.9878	1123.4433	1140.6751	1178.3421	1205.6123	1234.7644	1250.3475	1269.0724	1300.8285	1306.6552	1351.8031	1374.6713	1428.7	1438.9766	1465.9828	1492.6568	2992.8488	3040.8594	3061.6806	3066.4077	3079.355	3091.0752	3120.3554	3130.8687	3240.0614
C1C2CN3CC4OC1C234	C1[C@H]2CN3C[CH]O[C@@H]1[C]23	
InChI=1S/C7H9NO/c1-4-2-8-3-6-7(4,8)5(1)9-6/h4-6H,1-3H2	InChI=1S/C7H9NO/c1-2-9-6-3-5-4-8(1)7(5)6/h2,5-6H,1,3-4H2/t5-,6-/m0/s1
