19
gdb 76796	1.99322	1.79566	1.16267	2.5492	70.95	-0.2422	0.0429	0.2851	1104.0999	0.157298	-460.124189	-460.114901	-460.113957	-460.15808	34.733	
C	-0.7809375444	 1.2116068041	-0.1408650165	-0.415058
C	-0.0301554947	-0.1095615667	-0.0723124912	-0.079224
C	 1.2757431077	-0.291340776	-0.8995343346	 0.026747
O	 1.9175749633	 0.9618169112	-1.0943459957	-0.431269
C	 1.9221217636	-1.0473346778	 0.3159562064	 0.039895
O	 3.2508776979	-0.727650581	 0.619263819	-0.435673
C	 0.7891231564	-0.4694255981	 1.1764544131	 0.400877
C	 0.9220618949	 0.2457156179	 2.4456504683	-0.267015
O	 0.2827072272	-1.0384720515	 2.3660387565	-0.280918
H	-0.1052928677	 2.0561418118	 0.0120895228	 0.131708
H	-1.2640175478	 1.3405520597	-1.1146701388	 0.117869
H	-1.5624772271	 1.2458715625	 0.6252668207	 0.121962
H	-0.7041358511	-0.9436152924	-0.3006499804	 0.090316
H	 1.1852304837	-0.8393854327	-1.8428666376	 0.069646
H	 2.6732038636	 0.8146676117	-1.6721769588	 0.294454
H	 1.8522132355	-2.1354605101	 0.228023567	 0.100243
H	 3.3134559131	 0.2315015912	 0.5161250112	 0.277127
H	 1.885761523	 0.2530034288	 2.9525038372	 0.122379
H	 0.2624156128	 1.0821307674	 2.6708161815	 0.115934
63.2927	172.4059	189.6484	199.4245	212.0316	230.6199	252.7423	286.6269	404.6058	484.548	519.2452	543.9006	593.9056	661.1196	778.1529	814.9569	838.6862	879.8211	918.4308	965.5553	999.4248	1062.5765	1100.7319	1123.78	1131.8406	1157.2145	1162.3787	1165.5793	1186.3592	1216.9144	1269.1626	1287.6156	1310.5263	1367.6904	1403.1905	1408.4805	1434.7936	1447.1117	1495.0578	1498.4509	1530.5388	3037.9539	3040.4465	3051.2582	3079.6329	3084.3883	3101.4807	3127.7503	3174.2758	3757.5202	3821.8504
CC1C(O)C(O)C11CO1	C[C@H]1[C@@H](O)[C@@H](O)[C@]21CO2	
InChI=1S/C6H10O3/c1-3-4(7)5(8)6(3)2-9-6/h3-5,7-8H,2H2,1H3	InChI=1S/C6H10O3/c1-3-4(7)5(8)6(3)2-9-6/h3-5,7-8H,2H2,1H3/t3-,4+,5+,6+/m0/s1
