16
gdb 46082	4.90169	1.03548	0.88715	2.8366	80.8	-0.2556	-0.0393	0.2164	1255.4924	0.124903	-400.732193	-400.724248	-400.723304	-400.764825	30.276	
N	-0.0188327105	 1.2742594781	 0.3702679267	-0.520156
C	-0.0007021143	 0.0548193685	 0.0150458352	 0.377048
O	 1.1746902755	-0.6149702973	-0.1959853033	-0.260572
C	 1.1178776267	-1.8056998526	-0.9827584617	-0.094085
C	 0.059736829	-2.7907266072	-0.4525589777	-0.239404
C	-1.2455388172	-2.0374032119	-0.2915939199	-0.080128
C	-1.2437991406	-0.7162583804	-0.1080263415	-0.110171
C	-0.0591334188	-3.9403852191	-1.3433693234	 0.306165
C	-0.1465347782	-4.8739280969	-2.0946246147	-0.445077
H	 0.9360303438	 1.636149933	 0.4202558045	 0.222758
H	 0.8843666843	-1.5551767604	-2.0247909633	 0.124265
H	 2.1182376458	-2.239074793	-0.9406331785	 0.131424
H	 0.3840760152	-3.1475286597	 0.5372285749	 0.133988
H	-2.1684898773	-2.6061163443	-0.3254646239	 0.122459
H	-2.1545137906	-0.1438813448	 0.0176983599	 0.127286
H	-0.2270459929	-5.705912072	-2.7500042133	 0.2042
71.8312	137.922	180.859	257.4704	333.0726	407.8502	417.7443	482.1398	526.3034	582.1695	640.3712	659.8881	678.0308	740.6672	806.5183	827.1667	911.2627	928.7495	1000.6871	1009.0688	1030.9975	1069.9448	1090.2946	1138.4573	1192.6196	1256.6054	1288.8389	1304.2342	1334.3219	1403.9215	1426.8477	1503.7314	1682.8799	1734.416	2241.1043	2988.1186	3037.3248	3124.0247	3189.5488	3219.8576	3465.6214	3502.4201
N=C1OCC(C=C1)C#C	[NH]C1=C[CH][C@H](CO1)C#C	
InChI=1S/C7H7NO/c1-2-6-3-4-7(8)9-5-6/h1,3-4,6,8H,5H2	InChI=1S/C7H7NO/c1-2-6-3-4-7(8)9-5-6/h1,3-4,6,8H,5H2/t6-/m1/s1
