16
gdb 77444	2.42192	1.55898	1.24001	3.4464	65.79	-0.2488	0.0012	0.25	1042.1083	0.123015	-475.014851	-475.006231	-475.005287	-475.047701	32.382	
C	 0.085643616	 1.5140822176	-0.0420974565	-0.494833
C	 0.0358105392	 0.0311985853	 0.068137136	 0.371349
O	 0.5187273565	-0.7751585561	-1.0495045297	-0.294214
C	 1.1891481104	-1.6398817467	-0.1869971915	 0.431471
O	 1.9264885901	-2.5262960092	-0.4754178179	-0.338069
C	 0.6444837843	-0.9776114849	 1.0437969555	-0.032933
N	 1.1369061098	-0.8234288493	 2.3621246796	-0.620062
C	-0.9019420837	-0.82260418	 0.8448112105	 0.043278
O	-1.5316367453	-0.2686388669	 1.9418298766	-0.426694
H	 1.1087064561	 1.8784908222	-0.1733692011	 0.131967
H	-0.5105139062	 1.8458847956	-0.8983837447	 0.148174
H	-0.3433136834	 1.9556626769	 0.8607869043	 0.145947
H	 1.2637395787	-1.7224435997	 2.8173034326	 0.260231
H	 2.0197703044	-0.3254334924	 2.3960598089	 0.256136
H	-1.4718316314	-1.6004143805	 0.3410620924	 0.121365
H	-0.8538078556	-0.200698872	 2.6373522752	 0.296886
135.717	154.0945	177.7774	213.1212	266.2293	274.8868	302.457	357.4087	442.3693	531.3287	552.6453	627.9368	636.8546	664.1879	739.7455	792.472	805.7348	864.4517	945.8437	1002.6607	1029.0373	1079.1503	1114.1452	1170.4296	1191.0181	1241.5607	1324.6136	1361.243	1404.592	1415.6298	1472.0459	1479.9588	1501.185	1657.9934	1934.9258	3042.2002	3107.6288	3130.6174	3137.379	3503.1463	3579.324	3631.7102
CC12OC(=O)C1(N)C2O	C[C@@]12OC(=O)[C@]1(N)[C@H]2O	
InChI=1S/C5H7NO3/c1-4-2(7)5(4,6)3(8)9-4/h2,7H,6H2,1H3	InChI=1S/C5H7NO3/c1-4-2(7)5(4,6)3(8)9-4/h2,7H,6H2,1H3/t2-,4-,5+/m0/s1
