21
gdb 101133	3.41742	1.02248	0.89845	2.0989	78.46	-0.2467	0.0604	0.3071	1355.0165	0.18237	-424.188997	-424.179851	-424.178907	-424.223254	35.007	
O	 0.1197820929	 1.4169957358	-0.1685709544	-0.425501
C	 0.1073586759	 0.0078577867	-0.0928307402	-0.062699
C	-1.3203890042	-0.5185659496	 0.091396977	-0.054838
O	-2.1474719774	 0.0105706249	-0.9503283052	-0.437802
C	-1.3858740552	-2.0201127678	 0.1931491208	 0.393344
C	-1.5667851243	-2.9463953697	-0.9806554004	-0.342511
C	-2.58768522	-2.9643905567	 0.127684326	-0.101401
C	-2.0561006187	-3.769938417	 1.3175897357	-0.221522
C	-0.8179341161	-2.8159992084	 1.3829364752	-0.299299
H	-0.6549820573	 1.6510232476	-0.6962394958	 0.283519
H	 0.541257668	-0.453302721	-0.999471944	 0.074067
H	 0.7374919043	-0.2842972652	 0.7542532971	 0.110783
H	-1.7279163395	-0.0739945776	 1.0084699896	 0.095376
H	-1.8273976856	-0.3537141201	-1.784531073	 0.281988
H	-1.9167018409	-2.4936284471	-1.9036755375	 0.098522
H	-0.8941271992	-3.7884846221	-1.1320144556	 0.105036
H	-3.6249877962	-2.7194274286	-0.0659761097	 0.093918
H	-2.6829895607	-3.6905898956	 2.2082217604	 0.106544
H	-1.8549361508	-4.8294339015	 1.1276958729	 0.09756
H	 0.1687663031	-3.26674477	 1.2350838822	 0.097434
H	-0.796647068	-2.2326678872	 2.3073114288	 0.107483
46.2221	116.0469	129.9178	210.8711	253.9079	321.272	335.5293	369.0246	411.9147	469.9427	505.6854	526.6423	703.0294	754.9681	786.2537	838.3082	871.7625	897.4625	931.7851	960.7889	969.1724	1009.9138	1036.6571	1058.1505	1076.2171	1088.7728	1092.4871	1107.4011	1155.1752	1194.563	1203.7517	1223.988	1244.9473	1273.6627	1285.3586	1296.0026	1314.4386	1375.841	1397.127	1423.7402	1441.3283	1480.523	1483.5474	1507.4036	1510.2422	2934.8854	3033.887	3042.0348	3050.0171	3069.6042	3091.7248	3100.4711	3112.3484	3182.458	3192.4765	3764.4466	3785.0653
OCC(O)C12CC1CC2	OC[C@@H](O)[C@]12C[C@H]1CC2	
InChI=1S/C7H12O2/c8-4-6(9)7-2-1-5(7)3-7/h5-6,8-9H,1-4H2	InChI=1S/C7H12O2/c8-4-6(9)7-2-1-5(7)3-7/h5-6,8-9H,1-4H2/t5-,6-,7-/m1/s1
