19
gdb 47652	2.1115	1.88519	1.30136	2.3467	76.7	-0.2496	0.003	0.2527	1042.896	0.160993	-423.064989	-423.057045	-423.056101	-423.097265	31.057	
O	 0.1460114351	 0.0356573869	-0.0759037452	-0.333366
C	-0.0286924596	 1.2209630398	-0.0119200567	 0.433875
C	-1.3617437329	 1.9309324818	 0.1057053806	-0.300385
C	-1.4807609241	 2.9246208013	-1.0851669165	-0.252816
C	-1.1291535911	 2.2662427531	-2.3994039368	-0.041997
C	 0.0846393989	 2.151463013	-2.9501958425	-0.049242
C	 1.3993197202	 2.6856637773	-2.4188362393	-0.249782
C	 1.9168790895	 1.9348197492	-1.1796963389	-0.091866
O	 0.9730304004	 2.1441895572	-0.1202750794	-0.244791
H	-2.1491926153	 1.1744929143	 0.0898775138	 0.126341
H	-1.4236228151	 2.4774307829	 1.0531441122	 0.126432
H	-2.5027258854	 3.3156685379	-1.1193407344	 0.103999
H	-0.8121686613	 3.7670077398	-0.8899273445	 0.12029
H	-1.9571505381	 1.7843886985	-2.9162140749	 0.089477
H	 0.1542830635	 1.5907674179	-3.8797258716	 0.092349
H	 2.163035495	 2.6311072779	-3.202353814	 0.104587
H	 1.3040320003	 3.7430549731	-2.1432034105	 0.119833
H	 2.0353070786	 0.863065988	-1.3602374613	 0.134397
H	 2.8694604413	 2.35062206	-0.84156247	 0.112666
102.2552	166.7474	214.8453	247.9308	300.1429	322.3626	392.6078	482.7	532.2083	602.3749	628.0394	687.0212	747.1392	798.2122	829.5982	874.9572	928.8417	944.2329	982.7249	1000.5671	1012.9711	1030.5504	1074.3617	1099.1256	1165.2882	1211.4853	1223.8563	1251.1121	1274.8869	1299.2354	1329.434	1347.7977	1354.8912	1389.2797	1428.1953	1465.281	1475.2323	1488.4432	1501.6924	1706.6679	1842.232	3031.4754	3048.6279	3057.013	3062.2244	3078.1365	3096.3987	3120.2368	3122.7582	3134.9788	3158.4956
O=C1CCC=CCCO1	O=C1CCC=CCCO1	
InChI=1S/C7H10O2/c8-7-5-3-1-2-4-6-9-7/h1-2H,3-6H2/b2-1-	InChI=1S/C7H10O2/c8-7-5-3-1-2-4-6-9-7/h1-2H,3-6H2/b2-1-
