15
gdb 18465	3.25683	1.90843	1.48904	3.639	60.68	-0.2541	-0.0201	0.234	856.715	0.118644	-399.767753	-399.760437	-399.759493	-399.799758	27.009	
O	 0.0741851363	 1.2349208579	 0.4376958157	-0.41611
C	 0.0817794048	-0.032395358	-0.1892373879	-0.089711
C	-1.3033324371	-0.6445807055	-0.2083862405	-0.021195
C	-1.6407303027	-2.0749055875	-0.1340521115	-0.048701
C	-0.6629197038	-2.9021454134	 0.7010711156	-0.37956
C	-0.920061094	-1.8548251259	 1.794704724	 0.393064
O	-0.5252290028	-1.6501228308	 2.9000598044	-0.298434
N	-1.9534823353	-1.1475393304	 1.0558749544	-0.19678
H	-0.211775839	 1.1081968932	 1.3498097417	 0.301183
H	 0.4040290382	 0.139052267	-1.2220603531	 0.121262
H	 0.8160998652	-0.7071924163	 0.2717999694	 0.105066
H	-2.0200474461	-0.0304966503	-0.7490844891	 0.124333
H	-2.4597543053	-2.498137708	-0.7034332234	 0.117809
H	-1.0704407138	-3.875050678	 0.9886058411	 0.148886
H	 0.3622140255	-3.0339390838	 0.3486288391	 0.138886
58.9261	140.0623	194.1453	271.5447	370.9224	457.2985	481.4102	494.217	594.8799	644.0088	745.4573	798.6684	845.0286	922.8592	957.7098	1000.8473	1026.5827	1041.6202	1077.2339	1079.4225	1134.3596	1156.0793	1220.534	1226.5879	1270.7525	1342.6604	1368.0863	1418.6944	1450.7287	1457.2084	1502.0748	1910.5732	3010.8109	3072.5113	3073.6133	3126.0074	3144.4287	3190.0035	3800.0305
OCC1C2CC(=O)N12	OC[C@H]1[C@H]2CC(=O)N12	
InChI=1S/C5H7NO2/c7-2-4-3-1-5(8)6(3)4/h3-4,7H,1-2H2	InChI=1S/C5H7NO2/c7-2-4-3-1-5(8)6(3)4/h3-4,7H,1-2H2/t3-,4+,6?/m1/s1
