20
gdb 82441	2.37668	1.76251	1.34805	1.3424	78.87	-0.2383	0.0668	0.3051	1048.6957	0.170023	-403.105014	-403.096106	-403.095162	-403.137999	34.185	
C	-0.0780756659	 1.466504981	 0.0221860102	-0.501976
C	 0.1195276997	-0.0181582495	-0.030610489	 0.299195
C	 0.0351969652	-0.8816454917	-1.2838450879	-0.283449
C	-0.2522727807	-2.0170854806	-0.2950820465	-0.065317
C	 1.0525065478	-2.2053819497	 0.5048943788	 0.080946
O	 2.2842029014	-2.3764644374	-0.1592991075	-0.441417
C	 0.7681092643	-0.8258742227	 1.057544491	 0.28075
C	 1.314709131	-0.2723597221	 2.3380656294	-0.515056
N	-0.7184337765	-0.9846816877	 0.7781939093	-0.248075
H	 0.7938617693	 1.9886557723	-0.3884517788	 0.12379
H	-0.9541395173	 1.7564656731	-0.5673805269	 0.124151
H	-0.2349066681	 1.8190472046	 1.0446857681	 0.128456
H	-0.8511098617	-0.6207473485	-1.8692478729	 0.099669
H	 0.9108264889	-0.9754285342	-1.9320700783	 0.105378
H	-0.8984959619	-2.8568007996	-0.5449594663	 0.073177
H	 0.9119881089	-2.9518545132	 1.2989631172	 0.074052
H	 2.4161637765	-3.3149853194	-0.3259090769	 0.284569
H	 2.3735566236	-0.016057739	 2.2220038062	 0.130742
H	 0.7796252733	 0.6261949104	 2.6542761881	 0.12789
H	 1.231058532	-1.0103409061	 3.1430035428	 0.122525
128.2658	149.7804	161.402	219.4298	237.0466	263.2931	278.3728	345.32	402.7747	496.8927	580.2222	602.7058	663.3679	719.9555	752.0232	814.0693	863.1209	918.6989	937.0212	959.4877	996.5563	1017.1045	1050.7227	1083.8489	1099.4907	1127.0071	1164.9945	1181.075	1211.1424	1239.2392	1268.0284	1279.4305	1307.5938	1355.8151	1401.781	1410.3056	1425.9258	1452.4665	1477.3207	1484.442	1486.13	1495.4652	1504.9853	3011.1924	3031.7754	3035.8438	3052.326	3092.8121	3095.485	3108.0009	3115.4162	3124.8023	3130.5364	3819.1831
CC12CC3C(O)C1(C)N23	C[C@@]12C[C@H]3[C@@H](O)[C@]1(C)N23	
InChI=1S/C7H11NO/c1-6-3-4-5(9)7(6,2)8(4)6/h4-5,9H,3H2,1-2H3	InChI=1S/C7H11NO/c1-6-3-4-5(9)7(6,2)8(4)6/h4-5,9H,3H2,1-2H3/t4-,5+,6+,7-,8?/m0/s1
