16
gdb 43886	5.08777	1.10252	1.06098	3.8962	68.69	-0.2531	0.0048	0.2579	1126.958	0.124664	-437.860721	-437.853586	-437.852642	-437.892513	27.741	
O	 0.1497790747	 0.1935739927	-0.7689665148	-0.310679
C	-0.0331491883	 1.1918670811	-0.1536473924	 0.438999
C	-1.2072791316	 2.0508673497	 0.3113771375	-0.504902
C	-0.1088204237	 2.931745453	 0.9280003694	 0.44039
C	 0.1884051502	 4.4158401763	 0.6384346367	-0.241471
N	 0.4138552982	 4.7109763921	 2.1004887181	-0.118663
C	-0.8622415855	 4.3883924561	 2.7570583721	-0.24252
C	 0.0335986037	 3.2680568796	 2.3989095995	-0.107076
O	 0.9129299443	 2.0133419334	 0.414665063	-0.270906
H	-1.7873417311	 2.4967848507	-0.4987498614	 0.146746
H	-1.8786300474	 1.558775768	 1.017589656	 0.148224
H	 1.1173541068	 4.5349610053	 0.078491043	 0.141918
H	-0.6053584425	 5.0144135795	 0.1795809328	 0.111366
H	-0.89312854	 4.6844438892	 3.8009345574	 0.134335
H	-1.794225766	 4.5404683355	 2.2148223767	 0.115967
H	 0.5645570583	 2.6620097778	 3.1248908364	 0.118273
93.7849	127.6684	247.3565	376.8583	404.8434	421.3097	490.6899	521.5863	560.863	749.7429	784.0019	790.729	837.4974	865.5801	888.9185	957.2566	970.1706	997.5536	1043.6958	1062.1475	1077.9338	1110.4176	1116.0093	1161.3757	1185.0794	1205.9993	1225.2695	1235.2571	1271.3007	1297.1678	1372.9827	1451.7362	1479.4013	1506.4607	1947.264	3050.7023	3085.7349	3099.4696	3129.7199	3142.9654	3177.9125	3198.7765
O=C1CC2(CN3CC23)O1	O=C1C[C@]2(CN3C[C@@H]23)O1	
InChI=1S/C6H7NO2/c8-5-1-6(9-5)3-7-2-4(6)7/h4H,1-3H2	InChI=1S/C6H7NO2/c8-5-1-6(9-5)3-7-2-4(6)7/h4H,1-3H2/t4-,6+,7?/m0/s1
