25
gdb 59059	1.99179	1.23674	1.00335	1.4001	89.61	-0.2488	0.0738	0.3227	1395.0872	0.225695	-389.489982	-389.478419	-389.477475	-389.52617	42.78	
C	 1.9811443095	 2.4370908273	-0.5805655811	-0.397414
C	 0.9865336282	 1.2957381303	-0.3522476103	 0.12196
O	-0.360844591	 1.7753028852	-0.403071323	-0.436622
C	 1.2015311223	 0.1578140419	-1.3304572009	-0.077575
C	 2.0901635069	-1.0452086428	-1.0515175598	-0.058818
C	 2.8846663857	-1.2211925206	 0.2262115624	-0.417002
C	 0.5852369991	-1.2170167282	-1.1510041006	 0.305831
C	-0.2498710882	-1.5202484458	 0.0807576911	-0.446509
C	 0.052868347	-1.8928154809	-2.4032016858	-0.449899
H	 3.0119448188	 2.0965395202	-0.4383901622	 0.117211
H	 1.8963948929	 2.8256798729	-1.6031423269	 0.103143
H	 1.782235581	 3.2581450523	 0.1136101383	 0.119628
H	 1.0977870678	 0.9409583293	 0.67635338	 0.08074
H	-0.5433940004	 2.0231812265	-1.3161636764	 0.272231
H	 1.2316400063	 0.5136431143	-2.3619399334	 0.061772
H	 2.6339224723	-1.4004388571	-1.9249288955	 0.075107
H	 2.3449203825	-0.8912234341	 1.1164149834	 0.118816
H	 3.1435919906	-2.275308385	 0.3765864651	 0.116658
H	 3.8232057634	-0.6566788125	 0.1840580146	 0.116297
H	 0.1491980659	-1.075327932	 0.9937302733	 0.113434
H	-1.2672954714	-1.1360443053	-0.0455734956	 0.124832
H	-0.3152660302	-2.6027690619	 0.2425199099	 0.105561
H	 0.0490185322	-2.9841461569	-2.293158887	 0.111426
H	-0.9771237575	-1.5792748599	-2.612843372	 0.111696
H	 0.6608199063	-1.6493399671	-3.2806635277	 0.107494
55.8129	106.5177	143.5775	171.273	186.0817	208.7366	235.0972	236.8729	253.4384	270.2282	295.8469	364.2461	389.9117	450.6548	466.8967	519.7743	553.4394	710.7739	769.6225	825.3201	899.9427	955.4347	968.8844	980.3093	990.5478	1014.9686	1042.769	1069.5719	1096.3918	1108.9809	1133.4283	1156.4438	1171.0107	1196.5984	1242.8536	1287.4652	1332.2629	1336.0346	1391.8081	1400.3311	1410.7161	1414.7908	1420.4335	1432.4582	1457.6644	1479.906	1487.8753	1489.3796	1493.7288	1494.3937	1500.9952	1505.2661	1518.4315	3015.5918	3024.6396	3029.7848	3033.153	3067.3082	3074.9268	3081.6996	3082.83	3091.1381	3092.3193	3097.7799	3108.8401	3117.4115	3123.2957	3132.7811	3798.8998
CC(O)C1C(C)C1(C)C	C[C@@H](O)[C@H]1[C@@H](C)C1(C)C	
InChI=1S/C8H16O/c1-5-7(6(2)9)8(5,3)4/h5-7,9H,1-4H3	InChI=1S/C8H16O/c1-5-7(6(2)9)8(5,3)4/h5-7,9H,1-4H3/t5-,6-,7-/m1/s1
