15
gdb 33635	3.23093	1.55955	1.383	4.8442	77.93	-0.2369	-0.0627	0.1742	951.4066	0.113529	-379.557956	-379.55114	-379.550196	-379.589057	26.927	
N	-0.3096831294	-1.3119068809	 0.0295216951	-0.345769
C	-0.1838585583	-0.1631385173	 0.0765603706	 0.180114
C	-0.0052292062	 1.2505297513	 0.1573131918	 0.215404
C	-0.836929448	 2.2863083088	 0.7926697367	-0.06556
C	 0.0660957307	 3.0282328998	 1.7985822753	-0.276252
C	 1.3757436325	 2.9871193706	 1.0298767375	-0.095993
C	 1.2850923068	 2.0868600827	 0.02671733	-0.033465
C	 0.7302711699	 2.6496487866	-1.2842476808	-0.173991
N	-0.6557866471	 2.248560299	-0.7426220888	-0.179102
H	-1.8860538528	 2.11055734	 1.0099813047	 0.129371
H	-0.2099164491	 4.0738776939	 1.9714332539	 0.131436
H	 0.0052554726	 2.5151496485	 2.7681155563	 0.138178
H	 1.9504855845	 3.9004181396	 0.9051693406	 0.113008
H	 0.878821355	 3.7141463732	-1.4784080995	 0.123514
H	 0.8716397688	 2.0604520544	-2.1937302633	 0.139108
132.3879	161.5849	268.355	394.0483	411.4644	518.6574	540.3937	550.7277	575.5332	682.266	740.8344	799.7407	807.009	884.8802	910.7555	919.7425	938.8396	992.1683	1031.0576	1055.1863	1070.5204	1118.8918	1152.2213	1171.6116	1240.2527	1260.1512	1285.5937	1294.5029	1389.3256	1464.0138	1509.3249	1574.8987	2354.5584	3017.8999	3061.9382	3076.9438	3129.5464	3167.7062	3177.8496
N#CC12C3CC=C1CN23	N#C[C@@]12[C@H]3C[CH][C]1CN23	
InChI=1S/C7H6N2/c8-4-7-5-1-2-6(7)9(7)3-5/h1,6H,2-3H2	InChI=1S/C7H6N2/c8-4-7-5-1-2-6(7)9(7)3-5/h1,6H,2-3H2/t6-,7+,9?/m1/s1
