19
gdb 82008	2.44813	1.47005	1.32382	4.5424	79.66	-0.2278	0.0284	0.2562	1081.8052	0.158251	-382.035652	-382.026756	-382.025812	-382.068691	33.844	
C	-0.5116387171	 1.3886016636	 0.4437022534	-0.336223
N	-0.0559802913	 0.0371982492	 0.1775500219	-0.103708
C	 0.2787700836	-0.3655788515	-1.1821306669	 0.007792
C	 1.5581331946	 0.2431487115	-1.689057796	-0.321573
C	 1.6159199961	-0.924293843	-0.7342877854	-0.105118
C	 1.2628709569	-0.4647390806	 0.6983904727	 0.127485
C	 2.208909038	 0.5173536476	 1.3944393225	-0.446248
C	 1.0217071405	-1.615647083	 1.5878093371	 0.289993
N	 0.8576919466	-2.5218079421	 2.2861422776	-0.345583
H	 0.1589973478	 2.1851843962	 0.0821204939	 0.098475
H	-1.4835342882	 1.5238215223	-0.0417860512	 0.132361
H	-0.6595576049	 1.5233463035	 1.5192978273	 0.131917
H	-0.4765432143	-0.7971266346	-1.8292415842	 0.105899
H	 1.8176409025	-0.0127703703	-2.7118644162	 0.123534
H	 1.8663192961	 1.2401793825	-1.3907142043	 0.114233
H	 2.0776152322	-1.8718934072	-0.9736129404	 0.116172
H	 2.4510653522	 1.3599839139	 0.744897567	 0.127366
H	 1.7646630006	 0.9021822359	 2.3166837186	 0.139818
H	 3.1389078181	 0.005776216	 1.6574959326	 0.143408
122.65	154.6956	182.0324	200.5271	222.0241	251.8552	282.4596	372.3481	439.8949	504.7209	514.1589	565.941	641.7271	704.0205	793.6535	806.4205	870.1649	924.6456	954.2383	964.388	1007.8621	1046.5647	1071.5538	1080.6213	1108.002	1145.8039	1159.5832	1190.315	1202.4549	1238.6441	1254.4884	1294.9246	1348.5589	1407.1168	1449.3966	1476.0794	1480.7088	1486.9902	1500.4618	1504.8301	2353.7555	2967.5868	3052.3879	3067.8522	3107.8603	3122.1078	3126.0737	3140.7407	3173.2042	3207.3464	3217.789
CN1C2CC2C1(C)C#N	CN1[C@H]2C[C@H]2[C@]1(C)C#N	
InChI=1S/C7H10N2/c1-7(4-8)5-3-6(5)9(7)2/h5-6H,3H2,1-2H3	InChI=1S/C7H10N2/c1-7(4-8)5-3-6(5)9(7)2/h5-6H,3H2,1-2H3/t5-,6+,7+/m1/s1
