15
gdb 128442	4.67075	1.03465	0.85155	0.8908	69.63	-0.2583	-0.0191	0.2391	1285.2254	0.114397	-453.999792	-453.991711	-453.990766	-454.033233	28.405	
C	-0.042494405	 1.3531443551	-0.0380017148	-0.24077
O	 0.0222878806	-0.0747715079	 0.030224109	-0.23946
C	 0.6646300443	-0.5688359083	 1.1125137232	 0.370218
O	 1.1562454343	 0.1251097874	 1.9727913931	-0.390445
C	 0.6822917668	-2.0329199887	 1.0992982005	 0.085407
C	 1.2647067533	-2.8308194669	 2.0703022113	-0.093175
N	 1.0589092948	-4.1021662352	 1.6811798203	-0.180562
N	 0.377941424	-4.2074379773	 0.5150749517	-0.219363
C	 0.1486155821	-2.9514625089	 0.1607308589	-0.08342
H	 0.9611625069	 1.7852302131	-0.0678056098	 0.14022
H	-0.5836674706	 1.5819318298	-0.9562368544	 0.131593
H	-0.5712059904	 1.7585349795	 0.8286282154	 0.140202
H	 1.7895916949	-2.5689080687	 2.9744537575	 0.164836
H	 1.3483487384	-4.9440548585	 2.1505069388	 0.282335
H	-0.3879409545	-2.7316346845	-0.7490565106	 0.132386
80.843	108.1416	132.6317	144.5526	243.9404	314.9319	398.3854	497.2454	562.9696	639.2684	695.531	780.5825	806.3134	846.787	914.6492	949.574	966.5776	1021.8864	1059.7234	1160.5094	1179.6063	1180.2262	1218.0456	1245.3002	1351.1912	1390.5968	1429.7955	1474.9455	1481.1819	1494.5463	1499.8972	1600.6563	1797.2621	3050.0794	3123.2751	3156.9929	3266.4547	3277.8014	3671.4498
COC(=O)C1=CNN=C1	COC(=O)c1c[nH]nc1	
InChI=1S/C5H6N2O2/c1-9-5(8)4-2-6-7-3-4/h2-3H,1H3,(H,6,7)	InChI=1S/C5H6N2O2/c1-9-5(8)4-2-6-7-3-4/h2-3H,1H3,(H,6,7)
