16
gdb 44491	3.8821	1.64565	1.52098	3.8068	67.3	-0.2385	0.0049	0.2434	881.5105	0.128668	-437.898644	-437.892765	-437.891821	-437.928773	24.729	
O	-0.0324942292	 0.0487636679	-0.2555692227	-0.342903
C	-0.0041278266	 1.2124723301	 0.0127023156	 0.424321
O	-1.1415446785	 1.9695259802	 0.2093396686	-0.23706
C	-0.7148496042	 3.2695665027	 0.5820068594	 0.118514
C	 0.0712809234	 4.097879568	-0.5142614276	-0.056597
C	 0.9598946175	 4.6034444132	 0.6441953419	-0.232734
C	 0.7075965788	 3.18209327	 1.1984212325	-0.077711
C	 1.1596361947	 2.1972590852	 0.0910503376	-0.145963
N	 0.9687798598	 3.0895009201	-1.1069344147	-0.300899
H	-1.4976385702	 3.7782871712	 1.1395766822	 0.104146
H	-0.4077099426	 4.7518395025	-1.2401029386	 0.084347
H	 1.9773572467	 4.8928263249	 0.3814293616	 0.119885
H	 0.4776520126	 5.3649284791	 1.2608602189	 0.110503
H	 0.8826729726	 2.886763459	 2.2313986675	 0.090883
H	 2.14418136	 1.7388019974	 0.1460230367	 0.101753
H	 0.5196612652	 2.5832851485	-1.8656972088	 0.239517
156.3636	331.1862	394.9054	483.1348	488.0906	573.0392	706.6077	738.1131	778.1567	801.9002	828.2352	853.0048	864.4971	889.3134	912.9413	955.3591	990.8532	1020.7357	1027.6382	1050.3293	1089.5677	1099.5386	1106.7364	1140.1756	1187.2664	1214.3183	1237.9509	1243.8301	1254.8701	1279.9143	1322.9972	1356.3119	1406.046	1488.7332	1889.8983	3079.4039	3136.5803	3143.322	3147.9074	3148.6112	3156.8728	3503.6597
O=C1OC2C3CC2C1N3	O=C1O[C@@H]2[C@H]3C[C@@H]2[C@@H]1N3	
InChI=1S/C6H7NO2/c8-6-4-2-1-3(7-4)5(2)9-6/h2-5,7H,1H2	InChI=1S/C6H7NO2/c8-6-4-2-1-3(7-4)5(2)9-6/h2-5,7H,1H2/t2-,3-,4+,5+/m1/s1
