18
gdb 22159	5.19555	0.50627	0.46531	0.8446	85.9	-0.226	-0.0227	0.2033	2266.3737	0.143994	-439.01634	-439.005338	-439.004394	-439.054891	37.089	
C	-0.0314463866	 1.4848424733	-0.0064385108	-0.475428
C	 0.013857818	-0.0235213211	 0.0528216927	 0.198786
N	 0.0670137277	-0.69647831	 1.1507327696	-0.161802
O	 0.0763489249	 0.1591015579	 2.2556967839	-0.394686
C	-0.0019692741	-0.7683867265	-1.1597951149	-0.008689
C	-0.0185711814	-1.3316818139	-2.2272849623	 0.138603
C	-0.0364863981	-2.0560498491	-3.4890204603	-0.336111
C	 0.0157538486	-3.5762411723	-3.2966495328	-0.063626
O	-0.0074071398	-4.1523913111	-4.5909734341	-0.414801
H	 0.8507419448	 1.9067189021	 0.4851880745	 0.149074
H	-0.073497369	 1.8327080775	-1.0382303092	 0.130403
H	-0.9042655099	 1.8561476913	 0.539681601	 0.149076
H	 0.1168290496	-0.4612991141	 2.9913234574	 0.310338
H	-0.9408015346	-1.8086573979	-4.0590743285	 0.141297
H	 0.8133847183	-1.7554082508	-4.114548455	 0.141309
H	 0.9295496927	-3.8431587423	-2.7456942167	 0.10294
H	-0.8437781943	-3.8970402069	-2.6899451856	 0.102949
H	 0.0230645434	-5.1086529861	-4.4964736191	 0.290368
20.7236	58.2424	62.4651	77.0229	146.326	165.5125	237.6264	281.8794	310.1905	341.6055	401.5584	424.1976	482.6852	532.4121	575.1623	595.1593	762.6175	793.1441	945.8176	998.3179	1042.5164	1045.0901	1061.1689	1081.5104	1084.6638	1219.2618	1237.3395	1289.485	1302.8533	1333.4024	1396.731	1406.3261	1456.2131	1473.9087	1476.1649	1482.7004	1527.9717	1667.37	2348.8141	2987.6113	3018.5463	3027.1891	3047.951	3063.9704	3105.8661	3155.1914	3818.2349	3835.4138
CC(=NO)C#CCCO	CC(=NO)C#CCCO	
InChI=1S/C6H9NO2/c1-6(7-9)4-2-3-5-8/h8-9H,3,5H2,1H3	InChI=1S/C6H9NO2/c1-6(7-9)4-2-3-5-8/h8-9H,3,5H2,1H3
