21
gdb 87141	2.74507	1.23181	1.12235	0.2718	78.45	-0.2422	0.0639	0.306	1220.3187	0.179831	-424.194816	-424.184928	-424.183984	-424.229164	37.844	
C	-0.1121568944	 1.2778748321	-0.3049458301	-0.422385
C	 0.2875494449	-0.1589867036	-0.0583600136	-0.05096
C	 1.7204399469	-0.5134509143	 0.2964171002	-0.353968
C	 0.6454217396	-0.648328065	 1.3302942521	 0.3541
O	 0.7041394234	 0.3097152303	 2.3624695839	-0.476071
C	 0.1580440312	-1.9804062698	 1.8284648029	 0.354885
O	-1.0582774472	-1.8616871502	 2.5371618428	-0.476113
C	 0.3017837218	-3.2404071182	 1.0335207794	-0.312272
C	 1.1192554658	-3.0423990699	 2.2957172838	-0.326289
H	 0.3830965027	 1.9460536918	 0.4042501959	 0.127373
H	 0.1595740471	 1.5947254795	-1.3176456059	 0.116729
H	-1.1945863914	 1.4128991723	-0.1966394274	 0.1144
H	-0.2294141912	-0.8906325016	-0.6739354708	 0.087773
H	 2.1694928392	-1.4027868997	-0.1325362575	 0.109919
H	 2.4098775412	 0.3101387077	 0.4491950876	 0.120331
H	-0.2103117411	 0.5175846244	 2.5882642122	 0.27916
H	-0.829330445	-1.619695328	 3.4410923858	 0.28225
H	-0.5348822725	-3.9270989136	 1.0850681333	 0.123518
H	 0.8086210238	-3.2122450929	 0.0753855067	 0.115982
H	 2.1813182261	-2.8482187787	 2.1966728528	 0.120477
H	 0.8365926689	-3.6227666324	 3.167368476	 0.11116
67.6145	125.2837	153.0641	188.7924	197.0632	266.2527	283.6844	310.5295	363.5511	441.0411	458.64	497.8286	508.5513	579.5423	620.235	771.9245	799.5566	844.6186	889.5668	906.7679	921.6618	937.6478	958.5908	982.0611	1017.0613	1047.204	1050.4323	1079.4208	1095.0894	1127.5785	1181.6338	1187.3689	1194.7721	1255.4081	1258.4335	1339.1238	1356.9554	1363.995	1405.8161	1429.5533	1451.3794	1485.7404	1497.0378	1500.9801	1506.9299	3029.0955	3085.2259	3114.8294	3130.5266	3132.8661	3139.7069	3142.791	3217.1765	3218.3467	3232.5072	3785.7604	3801.7697
CC1CC1(O)C1(O)CC1	C[C@H]1C[C@]1(O)C1(O)CC1	
InChI=1S/C7H12O2/c1-5-4-7(5,9)6(8)2-3-6/h5,8-9H,2-4H2,1H3	InChI=1S/C7H12O2/c1-5-4-7(5,9)6(8)2-3-6/h5,8-9H,2-4H2,1H3/t5-,7+/m0/s1
