18
gdb 44561	3.09437	1.58767	1.41176	2.8591	74.98	-0.2592	0.026	0.2852	977.371	0.150708	-401.948416	-401.941536	-401.940591	-401.979753	27.987	
N	 0.3321149717	 0.9632267129	 0.5895445419	-0.552156
C	 0.1226515051	-0.1644391769	 0.0805197436	 0.420677
O	 0.9530578577	-0.9840344554	-0.6554976242	-0.268571
C	-0.0869548151	-2.0315914784	-0.7366873772	 0.08922
C	 0.1510689958	-3.2488660483	 0.1285207155	-0.048023
C	 0.7779708635	-3.0104180785	 1.4834331032	-0.291226
C	-0.7147216595	-3.1213026686	 1.3771436458	-0.02986
C	-1.5352270084	-1.8329742815	 1.3011878064	-0.256977
C	-1.0680703481	-1.1025592906	 0.0243056808	-0.155072
H	 1.2849518979	 1.2824039778	 0.4045477067	 0.225861
H	-0.2868919359	-2.26697493	-1.7825104893	 0.091662
H	 0.3084694262	-4.2041769993	-0.3574183388	 0.088106
H	 1.3121425051	-3.8440446061	 1.9254818758	 0.115279
H	 1.2279620089	-2.043654205	 1.679746638	 0.136564
H	-1.1908956878	-3.9983869574	 1.8015617959	 0.088838
H	-2.5982994215	-2.0785394508	 1.2170036904	 0.107541
H	-1.4185658868	-1.2020766683	 2.1878578469	 0.129212
H	-1.8939200288	-0.6880207754	-0.5556403513	 0.108924
91.4069	193.49	246.7552	356.476	411.1757	525.2312	601.3356	635.8076	676.8813	760.8564	798.0853	807.2948	837.7002	859.8335	872.2165	909.7994	918.7896	960.5777	994.4085	1014.6236	1036.2826	1059.7022	1068.9456	1083.2619	1107.4757	1115.9086	1175.648	1202.1321	1221.4464	1236.7931	1279.8158	1299.0346	1333.7969	1348.0886	1364.3406	1394.5342	1490.8766	1502.6331	1817.1709	3052.0753	3090.1083	3102.9277	3112.7677	3139.5744	3167.0844	3182.8725	3224.0701	3471.007
N=C1OC2C3CC3CC12	[NH][C]1O[C@H]2[C@H]3C[C@H]3C[C@@H]12	
InChI=1S/C7H9NO/c8-7-5-2-3-1-4(3)6(5)9-7/h3-6,8H,1-2H2	InChI=1S/C7H9NO/c8-7-5-2-3-1-4(3)6(5)9-7/h3-6,8H,1-2H2/t3-,4-,5+,6-/m0/s1
