15
gdb 16355	2.63303	2.30732	1.4269	4.3072	62.35	-0.2473	0.0113	0.2586	875.2968	0.117905	-399.794792	-399.787117	-399.786173	-399.826867	27.893	
C	-0.0630023507	 1.574047818	-0.0457344372	-0.404992
C	 0.0369838441	 0.0591762394	 0.0382773268	-0.009781
N	 1.1054037165	-0.5611874744	-0.7683837754	-0.366265
C	 1.7669114826	-1.1863758182	 0.2665413217	 0.390464
O	 2.7262757456	-1.9047659011	 0.3242079778	-0.362501
C	 0.7676504844	-0.5610328278	 1.2540926799	 0.262055
C	 0.968741243	-0.0811210407	 2.620121818	-0.255631
O	 0.1555687618	-1.227401323	 2.3284339816	-0.256437
H	 0.904431207	 2.0414625903	 0.1605174682	 0.125817
H	-0.3935122517	 1.8918112554	-1.040135475	 0.124429
H	-0.7945146011	 1.9472753706	 0.6783795034	 0.130355
H	-0.9396884242	-0.4111089027	-0.1260376259	 0.103732
H	 1.2720120961	-0.566970116	-1.7628736065	 0.254959
H	 1.9092837194	-0.2944570766	 3.124089539	 0.140028
H	 0.4277592774	 0.7980100168	 2.9663258435	 0.123768
76.9218	176.6498	216.4094	226.1355	257.2596	311.8458	379.6723	507.1711	532.1595	637.4797	730.9331	743.8817	829.3186	889.6816	922.0297	961.3217	1055.2789	1076.0486	1112.734	1124.4269	1137.7716	1165.9409	1183.7861	1269.4371	1363.7055	1387.4754	1409.5069	1445.1285	1490.791	1496.717	1534.519	1901.8415	3035.3264	3039.8582	3090.5752	3103.1708	3116.8484	3184.6117	3630.0153
CC1NC(=O)C11CO1	C[C@H]1NC(=O)[C@]21CO2	
InChI=1S/C5H7NO2/c1-3-5(2-8-5)4(7)6-3/h3H,2H2,1H3,(H,6,7)	InChI=1S/C5H7NO2/c1-3-5(2-8-5)4(7)6-3/h3H,2H2,1H3,(H,6,7)/t3-,5-/m1/s1
