19
gdb 126424	2.88729	1.2432	0.9399	2.0866	79.15	-0.1955	0.0437	0.2392	1279.6096	0.161129	-415.407528	-415.397912	-415.396968	-415.442045	35.464	
C	 0.0765254331	 1.5404381359	 0.0948678729	-0.36886
C	-0.0585318945	 0.0211463027	-0.105220441	-0.285496
C	 0.7276052453	-0.4899688705	-1.2743193269	 0.310776
N	 0.12307409	-0.7966702362	-2.4167659473	-0.315208
N	 1.1332733537	-1.1997936106	-3.2413541513	-0.270546
C	 2.3456590555	-1.1694265206	-2.6425935663	 0.38269
N	 3.5422889488	-1.4798847563	-3.2835193439	-0.607544
C	 2.1315333751	-0.7082994618	-1.3546047989	-0.007343
N	 3.1805567414	-0.5634462197	-0.3997436326	-0.62996
H	 1.1188527735	 1.8274770799	 0.2700522077	 0.105092
H	-0.2719465697	 2.0783681287	-0.7916058682	 0.12832
H	-0.5119979188	 1.8773442527	 0.9543112869	 0.109217
H	 0.2661080948	-0.4922692627	 0.8093919548	 0.088725
H	-1.1098365926	-0.2394517199	-0.2602012065	 0.11814
H	 0.9222830669	-1.4367728181	-4.1947626217	 0.264261
H	 3.5321807106	-2.3801670266	-3.7493769551	 0.244782
H	 4.289548819	-1.4623715269	-2.5964248708	 0.258049
H	 3.3415389985	 0.4088745335	-0.1545784555	 0.238805
H	 2.9715572893	-1.0527236135	 0.4649962036	 0.236098
45.0044	118.8297	188.9735	196.3764	237.9619	252.6304	288.5376	304.6668	311.993	384.3086	463.4952	517.5647	585.598	682.1233	720.9056	739.2012	775.7677	798.0877	829.3609	845.5782	969.7608	1042.5403	1076.6951	1086.0537	1115.526	1158.8073	1214.7902	1259.3669	1296.0758	1349.0249	1365.8322	1404.2323	1433.9248	1475.4226	1495.4068	1496.8829	1516.1763	1561.8663	1619.7048	1648.1996	1682.0632	3020.3289	3033.9123	3080.1178	3102.8521	3114.4387	3487.7746	3505.3341	3551.1727	3593.8007	3682.2779
CCC1=NNC(N)=C1N	CCc1n[nH]c(N)c1N	
InChI=1S/C5H10N4/c1-2-3-4(6)5(7)9-8-3/h2,6H2,1H3,(H3,7,8,9)	InChI=1S/C5H10N4/c1-2-3-4(6)5(7)9-8-3/h2,6H2,1H3,(H3,7,8,9)
