18
gdb 39592	3.50711	1.54984	1.12364	3.4713	79.18	-0.2141	-0.0013	0.2129	1066.034	0.151893	-398.167262	-398.160087	-398.159143	-398.198953	27.857	
C	-0.0013975512	 1.4894277295	-0.0195277857	-0.265363
N	 1.4149986635	 1.8955214492	 0.0114748292	-0.268023
C	 2.0832605631	 0.8071200081	 0.0341791923	 0.060698
N	 1.3510257423	-0.3695941922	 0.0226778176	-0.0978
C	 1.800913272	-1.7482013922	 0.0616609501	-0.172498
C	 0.6732033114	-2.5892664559	 0.6738744634	-0.226476
C	-0.6761691736	-2.254947337	 0.0143186292	-0.155227
N	-0.9974951937	-0.8258701016	-0.0107683801	-0.349273
C	-0.0062572566	-0.0328463052	-0.0030957775	 0.384397
H	-0.5375183968	 1.9022518929	 0.8416592013	 0.143309
H	-0.4918209311	 1.8815297225	-0.9172205691	 0.143278
H	 3.1680124427	 0.7553139513	 0.0624495332	 0.128826
H	 2.0372211584	-2.1031548024	-0.9509672147	 0.117806
H	 2.717828618	-1.8173516349	 0.6569093576	 0.11803
H	 0.9036041976	-3.6529744215	 0.5636194736	 0.106338
H	 0.611135594	-2.3749742885	 1.7467952175	 0.116456
H	-0.6950908692	-2.6391230549	-1.0163196613	 0.105931
H	-1.481195701	-2.7748618871	 0.5443734534	 0.10959
122.7034	132.1763	209.0903	303.2033	384.95	468.386	471.9773	528.88	625.0503	674.3408	728.1379	867.5543	873.9193	890.0141	917.015	929.4005	964.2962	994.3149	995.7648	1067.1087	1120.1179	1152.1097	1182.7015	1202.21	1211.5553	1266.7236	1272.4152	1306.9389	1317.8473	1359.4326	1364.5535	1399.4474	1408.9259	1455.2966	1481.4825	1490.2037	1515.2773	1676.3117	1759.1873	2998.471	3006.2854	3041.3977	3049.6775	3061.2413	3066.8324	3081.0437	3095.8904	3181.5224
C1N=CN2CCCN=C12	C1N=CN2CCCN=C12	
InChI=1S/C6H9N3/c1-2-8-6-4-7-5-9(6)3-1/h5H,1-4H2	InChI=1S/C6H9N3/c1-2-8-6-4-7-5-9(6)3-1/h5H,1-4H2
