21
gdb 92571	3.8147	1.18317	0.99277	1.7133	85.08	-0.2249	0.0174	0.2423	1254.7665	0.184358	-387.108264	-387.100146	-387.099202	-387.141072	31.805	
C	 0.0501827014	 1.5648425038	 0.0256364664	-0.403635
C	 0.0789256897	 0.0383808073	-0.0069859048	 0.046198
C	 0.8362555748	-0.5570950819	-1.2265736092	-0.251499
C	 1.1647842711	-1.978211392	-0.7463754895	 0.076499
O	 2.2584016582	-2.6536146909	-1.3453317333	-0.285774
C	 3.1315042602	-3.1145886688	-0.3065924518	-0.111632
C	 2.7070135332	-2.3625827777	 0.9356016922	-0.272303
C	 1.5706691307	-1.7262029403	 0.6819913989	 0.3375
C	 0.7516747443	-0.6089055723	 1.258811959	-0.352152
H	 1.0660506955	 1.9730493585	 0.0813348858	 0.115385
H	-0.4246648506	 1.9734492983	-0.8727373042	 0.115115
H	-0.5064167304	 1.9344231596	 0.8937606854	 0.112849
H	-0.9564100774	-0.3227034801	-0.0524408475	 0.077009
H	 0.246441096	-0.5156191794	-2.1464431446	 0.095941
H	 1.7767017337	-0.0190347281	-1.3963253692	 0.101826
H	 0.2567809146	-2.6048389852	-0.8177470061	 0.07017
H	 3.047662821	-4.2093688346	-0.1953045295	 0.098077
H	 4.1704292542	-2.8978489021	-0.5917785905	 0.107424
H	 3.3043837016	-2.3293516973	 1.8382990334	 0.098193
H	 1.3820951129	 0.1109076075	 1.7923541302	 0.112514
H	-0.0055350446	-0.9520727842	 1.9727977289	 0.112298
64.1938	139.443	222.9504	242.619	280.9748	342.0485	410.0109	421.8446	506.8344	617.6228	657.6237	764.2679	793.8505	817.384	841.7907	899.5798	931.201	933.9385	953.3922	980.5407	1017.7552	1041.76	1064.7108	1095.4345	1123.5437	1146.6973	1158.1434	1185.7957	1196.8974	1224.6651	1261.0961	1265.488	1289.1339	1336.119	1342.5027	1363.877	1375.4805	1389.8289	1411.9008	1478.3325	1492.6964	1496.4799	1499.8478	1520.2298	1743.8278	2926.9918	2954.6535	3015.3395	3015.4672	3024.1919	3036.1433	3039.8981	3070.4043	3091.1578	3095.632	3099.3109	3210.2751
CC1CC2OCC=C2C1	C[C@H]1C[C@H]2OCC=C2C1	
InChI=1S/C8H12O/c1-6-4-7-2-3-9-8(7)5-6/h2,6,8H,3-5H2,1H3	InChI=1S/C8H12O/c1-6-4-7-2-3-9-8(7)5-6/h2,6,8H,3-5H2,1H3/t6-,8-/m1/s1
