21
gdb 95498	2.19551	1.46144	0.92913	1.8654	80.4	-0.2434	0.0066	0.25	1284.4808	0.182267	-424.224404	-424.215275	-424.214331	-424.258309	35.07	
C	-0.1364146971	 1.5016418212	 0.0407742	-0.395625
C	 0.023278379	-0.0150429656	 0.0039540762	 0.116457
C	 0.6125046403	-0.4878666174	-1.3312238578	-0.172617
C	 0.5909376914	-2.0048242482	-1.5406127248	 0.059249
O	 0.9049739591	-2.2215176931	-2.9136232922	-0.440766
C	 1.5314374393	-2.7726762187	-0.635987108	-0.081874
C	 1.6098525623	-2.6636063765	 0.6883622525	-0.072683
C	 0.800692144	-1.7059438841	 1.5359756097	-0.131015
O	 0.838081285	-0.3533909827	 1.1198463392	-0.249217
H	 0.8343834689	 1.9892658887	-0.0921088623	 0.125377
H	-0.8066738017	 1.8413244179	-0.7540985217	 0.112842
H	-0.5458971248	 1.8137138581	 1.004885025	 0.119429
H	-0.9696407	-0.4822213023	 0.1378905231	 0.05885
H	 0.0307321855	-0.0462668141	-2.1480047038	 0.103818
H	 1.640867956	-0.1223024537	-1.4215533727	 0.110246
H	-0.4405361424	-2.3514909298	-1.3401872452	 0.073684
H	 0.8510993895	-3.1669016981	-3.0858311158	 0.280242
H	 2.1825329604	-3.4775813452	-1.1502639302	 0.086841
H	 2.3095452872	-3.3001655603	 1.2244652829	 0.092073
H	-0.2480423684	-2.0498833587	 1.596289612	 0.094897
H	 1.1937931965	-1.7056852574	 2.5570850035	 0.10979
47.3195	156.6651	208.7592	216.7017	282.2506	290.3619	315.5216	335.4912	392.3589	402.7698	485.6081	526.1045	565.0239	697.5729	723.4728	829.4904	878.6042	911.3249	940.9896	972.6164	984.6323	1032.2589	1040.4696	1080.7948	1098.6083	1112.776	1150.4915	1165.0194	1214.9234	1241.4015	1270.9917	1295.1534	1317.1233	1347.798	1379.1157	1390.9843	1404.7067	1409.4189	1412.9819	1425.0897	1473.4039	1480.8972	1485.4329	1500.9027	1721.5714	2911.2844	2933.2076	2939.5851	3040.0586	3045.5707	3075.2236	3091.8132	3117.0818	3124.4354	3134.0176	3161.7514	3815.8821
CC1CC(O)C=CCO1	C[C@H]1C[C@@H](O)C=CCO1	
InChI=1S/C7H12O2/c1-6-5-7(8)3-2-4-9-6/h2-3,6-8H,4-5H2,1H3	InChI=1S/C7H12O2/c1-6-5-7(8)3-2-4-9-6/h2-3,6-8H,4-5H2,1H3/t6-,7-/m0/s1
