17
gdb 126215	1.86987	1.63626	0.96191	2.8192	71.23	-0.2604	-0.037	0.2235	1225.2102	0.134986	-455.127866	-455.118833	-455.117889	-455.162732	31.871	
C	-0.3399635222	 1.4566475452	-0.0181809695	-0.378594
C	 0.1210334681	-0.0097321129	 0.06183808	-0.303739
C	 0.8546139098	-0.4543627574	-1.1571973263	 0.347729
C	 2.1615720208	-0.7796125982	-1.3955817756	 0.11564
C	 3.3445344934	-0.8229014729	-0.476011768	-0.183373
O	 3.0635223699	-1.4695189236	 0.7598732026	-0.405183
N	 2.2438433959	-1.1153894131	-2.7287527627	-0.166651
N	 1.1266012042	-1.0127843789	-3.2938550657	-0.023213
O	 0.181424484	-0.5848785121	-2.3010877584	-0.217203
H	 0.5135306056	 2.1324178767	-0.1250878716	 0.128732
H	-1.0044849887	 1.6117311628	-0.8722415979	 0.140211
H	-0.8800128057	 1.7311251423	 0.8918869689	 0.125686
H	 0.7823093976	-0.1669097975	 0.9176082309	 0.145184
H	-0.7510840313	-0.6593682062	 0.2013931788	 0.131906
H	 4.1791465334	-1.2937098849	-1.0125666697	 0.125012
H	 3.6652535907	 0.1872919586	-0.2003239757	 0.12989
H	 2.8100164046	-2.3776954779	 0.5623334399	 0.287965
51.5102	57.8805	153.6557	162.2132	204.4814	253.5936	334.2817	367.6303	424.2022	444.0884	641.0249	661.4442	695.3618	704.9379	788.6852	804.6131	964.7964	975.4282	1018.0981	1055.0135	1077.3193	1086.2303	1172.5392	1213.4143	1240.0119	1300.812	1349.0134	1366.8958	1403.0131	1414.6141	1424.5592	1463.5553	1488.4436	1496.8827	1503.0329	1507.9541	1631.7185	3021.6123	3043.1753	3047.7376	3072.7693	3104.0162	3121.593	3129.6848	3808.5269
CCC1=C(CO)N=NO1	CCc1c(CO)nno1	
InChI=1S/C5H8N2O2/c1-2-5-4(3-8)6-7-9-5/h8H,2-3H2,1H3	InChI=1S/C5H8N2O2/c1-2-5-4(3-8)6-7-9-5/h8H,2-3H2,1H3
