14
gdb 130326	3.26437	1.4271	1.06044	4.1506	63.93	-0.2386	-0.035	0.2036	1060.5762	0.101171	-469.937226	-469.929633	-469.928689	-469.969832	28.139	
N	 0.5621269067	 0.9198198269	-0.9838582997	-0.602779
C	 0.2392795446	-0.2054923239	-0.2813175737	 0.299327
N	-0.9207795945	-0.8129436911	-0.3478678594	-0.17596
O	-0.849140476	-1.8392288824	 0.577952864	-0.158654
N	 0.3537718831	-1.8596538787	 1.2042794957	-0.156826
C	 1.0499642044	-0.8823029239	 0.6946867874	 0.288871
C	 2.4455353102	-0.6050255426	 1.0995990084	-0.030701
C	 3.5648934373	-0.7623808304	 0.1529500862	-0.17384
O	 3.061219824	 0.5351580299	 0.4828308525	-0.234378
H	 1.5367760598	 1.1737877893	-0.9872116186	 0.274122
H	 0.0252683984	 1.1150307472	-1.812512877	 0.267688
H	 2.6571511115	-0.7202017164	 2.1605018485	 0.134413
H	 4.5580164948	-0.9856006562	 0.5367724119	 0.137938
H	 3.3613915258	-1.0998236478	-0.8611644661	 0.130778
52.6583	160.773	203.961	296.7558	345.2451	367.9669	442.3066	463.4433	512.0682	611.8244	663.3869	740.5977	774.5921	863.3587	894.3644	921.5006	951.188	1004.5115	1044.6872	1092.3387	1144.7824	1156.8221	1167.5311	1263.6544	1303.9812	1405.4692	1454.4843	1520.1893	1560.7416	1620.5392	1661.2549	3097.9077	3140.4065	3192.8787	3593.3574	3717.5575
NC1=NON=C1C1CO1	Nc1nonc1[C@H]1CO1	
InChI=1S/C4H5N3O2/c5-4-3(2-1-8-2)6-9-7-4/h2H,1H2,(H2,5,7)	InChI=1S/C4H5N3O2/c5-4-3(2-1-8-2)6-9-7-4/h2H,1H2,(H2,5,7)/t2-/m1/s1
