14
gdb 17142	4.24691	1.98368	1.59438	1.8023	68.62	-0.2385	0.0296	0.268	795.4253	0.106243	-345.27111	-345.264794	-345.26385	-345.301354	25.175	
C	 0.011193336	-1.1604148482	 0.0051800835	-0.381528
C	-0.0207029018	 0.0420860484	 0.0317770125	 0.087166
C	-0.0670171475	 1.4690405877	 0.0759875868	 0.231241
C	-0.7737343704	 2.404618932	 1.0904346615	-0.322244
C	-0.1166821459	 3.401971806	 0.1168117445	-0.114271
C	 1.1261266661	 2.4873962102	-0.1076659862	 0.05525
O	 1.0429170912	 2.5171882034	-1.5583090243	-0.319642
C	-0.3400448156	 2.4709780402	-1.1139482237	 0.055251
H	 0.0436177275	-2.2213894748	-0.0247723779	 0.183466
H	-1.8658853816	 2.3672419841	 1.094631587	 0.110396
H	-0.3844926174	 2.3838330389	 2.1113497899	 0.110396
H	-0.1256710287	 4.4900972101	 0.1121499604	 0.092678
H	 2.1062717725	 2.4882620131	 0.368042776	 0.105922
H	-1.1362300744	 2.4519502889	-1.8573932399	 0.105921
142.7239	173.057	386.406	412.1541	501.3093	523.9162	628.1185	637.3215	642.4264	722.5714	775.9048	820.6384	855.1728	881.7125	906.863	928.7737	1006.8723	1014.5277	1060.9456	1092.8922	1104.1151	1139.9954	1166.7589	1169.2216	1227.941	1250.9376	1292.114	1333.3398	1515.3084	2232.1565	3060.8065	3119.8257	3127.8425	3129.4409	3149.4463	3501.7058
C#CC12CC3C1OC23	C#C[C@@]12C[C@H]3[C@@H]1O[C@@H]23	
InChI=1S/C7H6O/c1-2-7-3-4-5(7)8-6(4)7/h1,4-6H,3H2	InChI=1S/C7H6O/c1-2-7-3-4-5(7)8-6(4)7/h1,4-6H,3H2/t4-,5-,6+,7+
