19
gdb 66017	2.27368	1.33373	1.10741	0.7156	88.33	-0.2487	0.0306	0.2792	1201.75	0.156399	-348.681915	-348.672384	-348.671439	-348.715778	36.524	
C	-0.1058335844	 1.5521304338	-0.0416163175	-0.442642
C	-0.0400237572	 0.019663244	-0.0177453463	 0.123037
C	 1.1416264223	-0.5405919531	-0.8848378177	-0.259274
C	 2.0174593705	-0.6457013793	 0.3868531149	-0.243946
C	 0.7255196265	-0.5552705576	 1.2557935933	-0.194655
C	 0.7452464556	 0.2182228187	 2.4769938716	 0.325848
C	 0.7720564142	 0.8778553217	 3.4829248575	-0.457007
C	-1.3460214729	-0.5661243167	-0.2602610031	 0.273323
C	-2.4228416615	-1.064588385	-0.4591950998	-0.452734
H	 0.8825720002	 1.9874020812	 0.1323304458	 0.119256
H	-0.4697398579	 1.8946363032	-1.0146114757	 0.122716
H	-0.780389831	 1.924279963	 0.7331969253	 0.136518
H	 0.8992272894	-1.518050265	-1.3062780647	 0.115208
H	 1.4905177119	 0.1146504765	-1.6858500966	 0.106956
H	 2.6188398326	-1.5473771273	 0.5125044736	 0.109751
H	 2.658897954	 0.225706219	 0.5313877544	 0.117366
H	 0.3439397704	-1.5605098254	 1.4567424165	 0.112692
H	 0.7932178075	 1.4512276122	 4.3763392703	 0.19546
H	-3.3746211401	-1.5014919139	-0.6343626518	 0.192128
80.8666	132.958	145.8552	187.6341	228.953	251.3166	320.1105	342.9108	445.2982	494.3817	540.7678	557.4832	589.3789	618.5378	621.7305	627.4272	635.6203	709.5501	794.7517	889.5297	905.5119	944.4678	964.7512	968.4772	1069.2281	1093.542	1135.3342	1159.4554	1205.8954	1222.1462	1256.3856	1264.905	1297.0117	1354.6087	1410.4851	1479.4212	1486.5202	1494.4074	1499.6645	2226.8987	2231.207	3043.7196	3064.0592	3070.7358	3079.2688	3115.9669	3120.6877	3126.7936	3138.6347	3502.3607	3503.4111
CC1(CCC1C#C)C#C	C[C@]1(CC[C@H]1C#C)C#C	
InChI=1S/C9H10/c1-4-8-6-7-9(8,3)5-2/h1-2,8H,6-7H2,3H3	InChI=1S/C9H10/c1-4-8-6-7-9(8,3)5-2/h1-2,8H,6-7H2,3H3/t8-,9-/m1/s1
