17
gdb 27738	2.31567	1.43994	0.89774	1.6874	81.84	-0.2322	-0.0469	0.1853	1269.8168	0.135793	-418.087356	-418.078263	-418.077319	-418.121984	31.875	
C	 0.051827655	 1.457901181	 0.0396480641	-0.499248
C	 0.0337188636	-0.0316713471	-0.0216974756	 0.349538
N	 0.0524036249	-0.751993652	-1.1376246123	-0.348697
C	 0.0246642653	-2.0624489351	-0.7487061513	 0.21724
C	 0.0351477013	-3.1689383931	-1.750984531	-0.495676
C	-0.0117465042	-2.1427193337	 0.6370641893	 0.150287
N	-0.0048104092	-0.8268557474	 1.0704250846	-0.329548
C	-0.0505897898	-3.2264885633	 1.5864469077	 0.061319
O	-0.0792298562	-3.0604619069	 2.7942306982	-0.322305
H	 0.9232040667	 1.8269229038	 0.5916764456	 0.142098
H	 0.089994055	 1.8509658003	-0.9764584992	 0.162411
H	-0.8435100909	 1.8506808707	 0.5340441713	 0.142363
H	 0.9325412835	-3.1118390323	-2.3758102298	 0.144679
H	 0.0094110227	-4.1510820646	-1.273676281	 0.12642
H	-0.8273286351	-3.0877775774	-2.4207580871	 0.144678
H	-0.0264843731	-0.5687256625	 2.0447247765	 0.278566
H	-0.0529844794	-4.2429346704	 1.1429103601	 0.075876
58.052	82.7865	137.5314	160.8528	209.3801	234.1644	258.2382	383.0234	394.8841	542.1348	607.8481	622.0531	682.9069	684.0503	711.363	859.3177	987.3254	1014.5103	1020.6299	1052.0083	1058.542	1063.2281	1172.5014	1212.0253	1321.3099	1391.2948	1410.176	1416.1575	1430.5369	1453.5714	1472.5518	1483.1032	1483.5398	1506.3333	1556.4541	1604.5988	1749.1273	2921.7844	3038.1356	3040.7473	3090.5538	3096.3933	3128.0564	3155.7374	3646.9012
CC1=NC(C)=C(N1)C=O	Cc1nc(C)c([nH]1)C=O	
InChI=1S/C6H8N2O/c1-4-6(3-9)8-5(2)7-4/h3H,1-2H3,(H,7,8)	InChI=1S/C6H8N2O/c1-4-6(3-9)8-5(2)7-4/h3H,1-2H3,(H,7,8)
