21
gdb 59845	3.24152	0.86584	0.75022	1.9161	81.37	-0.2472	-0.051	0.1962	1590.4864	0.180375	-420.447315	-420.436616	-420.435672	-420.483768	38.886	
C	-0.0349593778	 1.5105357965	-0.0300014515	-0.395392
C	 0.0331378951	-0.015788001	 0.1088115374	 0.04257
C	 0.7780501906	-0.4185563883	 1.3897387345	-0.388632
C	-1.3780607427	-0.6171225765	 0.0632590312	-0.28965
C	-1.4174700552	-2.1130077226	-0.1476733482	 0.372572
O	-0.4412245607	-2.7819850819	-0.4197334347	-0.331063
C	-2.7776915685	-2.8016889244	-0.0453212082	 0.267587
N	-2.6782923698	-4.1559292573	-0.1784441801	-0.533983
N	-3.811616911	-2.0751477423	 0.1627376419	-0.510923
H	 0.9678299164	 1.9499543742	-0.0200065139	 0.110336
H	-0.523088334	 1.8078927765	-0.9643192629	 0.108782
H	-0.6002720352	 1.9566998883	 0.7970065305	 0.112652
H	 0.5914858289	-0.4189268989	-0.7448799448	 0.087548
H	 0.8647696096	-1.5044115064	 1.4756221872	 0.127935
H	 1.7896563978	 0.0003349769	 1.3994238571	 0.109287
H	 0.2563093613	-0.0434056242	 2.2788836341	 0.106735
H	-1.9542346313	-0.3808321279	 0.9655684389	 0.139208
H	-1.9705644531	-0.1767990738	-0.7505118231	 0.136074
H	-1.7865865494	-4.506151972	-0.4950593696	 0.270253
H	-3.5001107984	-4.7076163774	-0.3546333694	 0.252532
H	-4.6660389127	-2.6356888776	 0.2021801934	 0.205573
35.0254	62.9683	103.2913	140.9096	227.4402	251.1661	258.7171	299.6934	323.9508	368.6322	403.3212	406.2088	433.9994	527.286	546.6516	616.656	679.2108	812.0932	840.5282	873.5816	904.163	929.048	964.7251	972.3127	1054.6253	1103.9876	1116.4537	1141.6543	1166.7318	1195.8522	1239.5763	1314.6917	1360.8956	1386.0843	1398.573	1417.4593	1431.5806	1433.9281	1488.6183	1493.632	1505.1383	1513.2959	1597.6481	1718.532	1784.5832	3023.1469	3026.4834	3031.9864	3034.8994	3071.0587	3087.567	3094.3175	3099.1503	3120.8911	3440.9817	3582.3839	3717.4495
CC(C)CC(=O)C(N)=N	CC(C)CC(=O)C(=N)N	
InChI=1S/C6H12N2O/c1-4(2)3-5(9)6(7)8/h4H,3H2,1-2H3,(H3,7,8)	InChI=1S/C6H12N2O/c1-4(2)3-5(9)6(7)8/h4H,3H2,1-2H3,(H3,7,8)
