14
gdb 129159	2.46793	1.80717	1.13718	0.055	76.12	-0.2535	-0.0825	0.1711	1016.9264	0.103038	-429.021689	-429.014369	-429.013425	-429.05375	27.661	
N	-0.0288538709	 0.9691057287	-0.92491963	-0.500939
C	 0.0096909897	 0.0254460191	-0.0673236921	 0.320757
N	-1.1700755722	-0.3660175008	 0.5496303465	-0.316732
C	-1.4335881521	-1.5267496572	 1.2630748728	 0.320604
N	-2.4666939337	-1.5679431456	 2.0103248809	-0.500913
C	-0.5924385478	-2.7099368375	 0.9060696685	-0.025762
N	 0.6569861502	-2.7856183302	 0.661327281	-0.150122
N	 1.5124142018	-1.7380060498	 0.9073403792	-0.150189
C	 1.2628018609	-0.5530303057	 0.5070263968	-0.025765
H	 0.911527959	 1.2228041332	-1.224733585	 0.23201
H	-1.9426490935	 0.2838973008	 0.4696771802	 0.274202
H	-2.5967492834	-2.50267747	 2.3949530918	 0.232017
H	-1.1542383371	-3.6355297691	 0.7799458355	 0.14543
H	 2.061599519	 0.1732446939	 0.657683204	 0.145403
96.8364	104.4811	266.9955	323.8353	367.5202	418.1533	495.1659	500.2714	579.0293	650.4685	655.1359	713.651	803.0713	830.119	855.9606	895.2882	920.0536	931.1028	953.1548	995.4215	1117.8449	1178.4804	1357.1817	1384.1283	1386.7373	1427.3138	1444.9889	1656.419	1658.3295	1706.7731	1708.8432	3134.6065	3134.7162	3497.5405	3497.757	3581.099
N=C1NC(=N)C=NN=C1	[NH][C]1N[C]([NH])C=NN=C1	
InChI=1S/C4H5N5/c5-3-1-7-8-2-4(6)9-3/h1-2H,(H3,5,6,9)	InChI=1S/C4H5N5/c5-3-1-7-8-2-4(6)9-3/h1-2H,(H3,5,6,9)
