15
gdb 24032	4.66462	1.06815	0.87373	1.9587	78.04	-0.2534	-0.0412	0.2121	1247.1228	0.113769	-379.691876	-379.684203	-379.683258	-379.725024	28.346	
C	-0.7028605044	-0.4910989874	-1.2162314094	-0.437877
C	-0.2113968813	 0.1657606818	-0.3382616741	 0.302567
C	 0.3806827365	 0.9603054586	 0.7287011478	-0.454285
C	 1.6050986491	 1.7748164436	 0.344928426	 0.329462
N	 2.1362411487	 2.4990231659	 1.338432679	-0.296311
C	 3.2104332972	 3.2252542521	 1.0370664035	 0.066803
N	 3.8207873277	 3.3144200019	-0.1464596388	-0.250091
C	 3.2770946018	 2.5858686641	-1.1238845466	 0.021167
C	 2.155231502	 1.7878435911	-0.9328760157	-0.176359
H	-1.14488169	-1.0754888811	-1.985004418	 0.202734
H	-0.3631394174	 1.6543655938	 1.1403854607	 0.163025
H	 0.6631315872	 0.3137573844	 1.569311975	 0.163014
H	 3.6381536839	 3.8115683031	 1.8472856517	 0.120715
H	 3.7588049851	 2.6435366442	-2.0976508772	 0.120812
H	 1.7255565138	 1.202389844	-1.7354899939	 0.124623
31.6176	130.0126	181.5685	321.1237	325.652	378.4157	436.2399	500.2095	621.1207	624.2577	660.5873	692.7549	762.3859	825.868	858.142	958.5202	983.7221	992.6176	1010.9017	1026.5813	1101.3804	1190.1027	1219.0008	1223.0197	1272.952	1299.5373	1358.1725	1420.5186	1444.4848	1499.0742	1599.6361	1618.4191	2243.1612	3029.7096	3056.4573	3154.3407	3162.9043	3219.5922	3504.1342
C#CCC1=NC=NC=C1	C#CCc1ncncc1	
InChI=1S/C7H6N2/c1-2-3-7-4-5-8-6-9-7/h1,4-6H,3H2	InChI=1S/C7H6N2/c1-2-3-7-4-5-8-6-9-7/h1,4-6H,3H2
