14
gdb 31469	4.11657	1.04566	0.83826	6.548	71.77	-0.2296	-0.0155	0.2141	1282.6866	0.102522	-432.917531	-432.909509	-432.908565	-432.950529	28.615	
C	-0.0253868008	 1.3795609974	 0.0302150492	-0.242252
O	 0.0159387806	-0.0529779716	-0.0239446775	-0.271737
C	 0.6273063393	-0.5559077125	-1.0933502272	 0.494627
N	 1.1847230811	 0.0842487667	-2.0834631713	-0.413345
C	 1.6653276293	-0.9226550563	-2.9160800536	 0.169438
C	 1.3821369048	-2.1614116012	-2.4002998585	-0.164472
N	 0.7114967874	-1.9139043167	-1.2228858275	-0.327207
C	 2.3509190916	-0.6467342242	-4.126989434	 0.219569
N	 2.9124485252	-0.4406050169	-5.1184926045	-0.345479
H	 0.9872399419	 1.7909576408	 0.044785457	 0.150356
H	-0.55855241	 1.7796950528	-0.8360706431	 0.150458
H	-0.5526463579	 1.6220253895	 0.9525103655	 0.138852
H	 1.5907139953	-3.1562085865	-2.753784823	 0.160139
H	 0.347534282	-2.5906928813	-0.5730656114	 0.281053
108.6868	134.2357	134.377	169.1125	251.8973	326.1506	490.4639	491.9673	535.6382	537.4903	591.5776	678.2967	740.1118	749.2702	758.5117	985.4977	1027.1877	1072.2136	1103.0277	1182.9135	1217.913	1253.3658	1299.1599	1379.0579	1458.8563	1475.7863	1478.9683	1502.0779	1575.8864	1640.8697	2349.8322	3050.8054	3126.7831	3163.4886	3291.6328	3668.7309
COC1=NC(=CN1)C#N	COc1nc(c[nH]1)C#N	
InChI=1S/C5H5N3O/c1-9-5-7-3-4(2-6)8-5/h3H,1H3,(H,7,8)	InChI=1S/C5H5N3O/c1-9-5-7-3-4(2-6)8-5/h3H,1H3,(H,7,8)
