18
gdb 8565	3.80106	1.93873	1.63489	2.8605	70.57	-0.234	-0.0148	0.2192	841.2312	0.15609	-347.828484	-347.821923	-347.820979	-347.859365	26.482	
O	 0.0099229589	 0.1303695743	 0.6999473999	-0.316522
C	-0.0126267939	 1.1998053527	 0.1403217512	 0.392428
C	-1.3344441435	 1.8957727752	-0.2147833892	-0.309998
C	-1.1212432236	 3.2385012043	-0.9182266679	-0.014888
C	-0.0691670842	 3.0799769475	-2.0527719437	-0.226011
C	 1.009426512	 3.267848962	-0.9479973172	-0.014888
C	-0.0562958224	 4.0738185762	-0.1518500825	-0.226023
C	 1.2790886801	 1.9317713933	-0.2513010931	-0.309998
H	-1.9125148788	 1.2018772339	-0.8378457159	 0.126995
H	-1.9022365786	 2.0145170878	 0.7165407886	 0.127003
H	-2.0724322434	 3.7173739796	-1.1621490986	 0.065809
H	-0.0643024373	 2.1461958932	-2.6251337492	 0.092191
H	-0.0904872536	 3.9246361044	-2.7459967807	 0.100946
H	 1.9398827798	 3.7726396487	-1.2182108996	 0.065809
H	-0.0749389042	 5.125213466	-0.449649791	 0.100947
H	-0.0401526412	 4.0108908616	 0.9414691293	 0.092204
H	 1.8691901067	 2.0664643086	 0.6638443756	 0.127003
H	 1.8584176072	 1.2538178005	-0.890535356	 0.126995
59.2436	283.4462	365.1583	376.3028	437.4809	494.1059	499.4415	572.3964	720.9358	772.5806	827.9388	843.3936	884.1308	898.8647	906.0003	911.6748	1000.2918	1044.9787	1065.3352	1073.4022	1085.9495	1091.6181	1130.9362	1192.3735	1215.4308	1216.6454	1257.2828	1266.594	1307.5337	1312.1761	1324.9537	1358.2142	1369.8374	1446.3005	1446.8186	1482.6005	1512.6492	1819.4128	3029.0962	3030.4811	3041.37	3045.0301	3066.8081	3067.3962	3074.5855	3076.653	3103.1782	3106.6315
O=C1CC2CC(C2)C1	O=C1C[C@@H]2C[C@@H](C2)C1	
InChI=1S/C7H10O/c8-7-3-5-1-6(2-5)4-7/h5-6H,1-4H2	InChI=1S/C7H10O/c8-7-3-5-1-6(2-5)4-7/h5-6H,1-4H2/t5-,6+
