16
gdb 60667	3.67939	0.8221	0.73933	5.0173	75.12	-0.2676	-0.0786	0.189	1494.9012	0.122096	-434.093123	-434.083218	-434.082273	-434.128627	34.3	
C	-0.1843574688	 1.0600377522	-0.2398700278	-0.383702
C	-0.3377038117	-0.4616819375	-0.0208577384	-0.139902
N	 0.3191598206	-0.8858183718	 1.2064805468	-0.273341
C	 1.5604895399	-1.2061716011	 1.1585697108	 0.289477
N	 2.4330293233	-1.2539786113	 0.1172161128	-0.55612
C	 2.1678261549	-1.6337687241	 2.4679086992	 0.142093
O	 3.3301505154	-1.9374202329	 2.5769849698	-0.261983
C	-1.7674834322	-0.8138055599	 0.0559224536	 0.300366
N	-2.892003155	-1.0755136782	 0.0797820384	-0.320605
H	 0.8726887023	 1.3142651976	-0.3566499658	 0.121
H	-0.7263259219	 1.3778264481	-1.1339772628	 0.142199
H	-0.577092536	 1.5986462142	 0.6248082196	 0.155867
H	 0.0556041865	-0.9892416002	-0.9061186399	 0.111643
H	 2.2467195608	-0.8217343763	-0.768740419	 0.270356
H	 3.3886066967	-1.4788114133	 0.351059432	 0.279687
H	 1.4462872853	-1.6377968856	 3.3041356508	 0.122966
51.3786	82.2389	125.7841	154.6774	188.1576	229.9847	253.5073	285.3527	314.1897	404.2972	447.6977	537.5897	566.3714	568.7083	658.5273	698.2466	832.6883	903.7382	948.3575	1030.6799	1040.4437	1088.9232	1104.8916	1157.6257	1301.3559	1358.48	1371.5739	1380.742	1403.7018	1485.2708	1496.3236	1610.6338	1726.32	1811.777	2366.56	2959.4231	2993.4648	3050.9184	3127.4739	3144.1576	3592.9255	3738.8288
CC(N=C(N)C=O)C#N	C[C@@H](N=C(N)C=O)C#N	
InChI=1S/C5H7N3O/c1-4(2-6)8-5(7)3-9/h3-4H,1H3,(H2,7,8)	InChI=1S/C5H7N3O/c1-4(2-6)8-5(7)3-9/h3-4H,1H3,(H2,7,8)/t4-/m1/s1
