18
gdb 98324	3.534	0.8262	0.69997	5.3569	73.73	-0.2853	-0.0475	0.2378	1578.9833	0.144886	-439.121033	-439.110884	-439.10994	-439.157429	35.213	
C	 0.0525653455	 1.5057708685	 0.0543177598	-0.382801
C	-0.1136766781	 0.0088293356	-0.206888083	-0.291193
C	-1.5507589809	-0.461050889	-0.1183309497	 0.357515
O	-2.4922521908	 0.3024168666	-0.1022044018	-0.31502
C	-1.8442657486	-1.9696197999	-0.0220113421	 0.045485
O	-3.2156845579	-2.1832137755	 0.0973377411	-0.424172
C	-1.2895585072	-2.7272200081	-1.2569543868	-0.366917
C	-1.5123990582	-4.1668126711	-1.1557650449	 0.280356
N	-1.6641237795	-5.3088775138	-1.0736846689	-0.298337
H	 1.0988380503	 1.7995239513	-0.0611715179	 0.121434
H	-0.5536078673	 2.0900433171	-0.6411184154	 0.143092
H	-0.2679628894	 1.76389238	 1.0671050107	 0.135588
H	 0.2515509054	-0.2457894047	-1.2125139954	 0.140061
H	 0.4946035031	-0.5930854316	 0.4801483043	 0.130989
H	-1.3178109373	-2.3480711439	 0.8699053445	 0.111731
H	-3.6179713088	-1.2987884891	 0.0625418247	 0.299337
H	-1.7884492493	-2.3525045304	-2.1573895991	 0.162342
H	-0.2142315811	-2.5526292619	-1.36847594	 0.150512
40.7049	69.3156	77.6456	123.601	186.9362	201.6632	258.0645	348.5499	370.685	394.4343	417.7466	469.009	513.6318	584.4244	692.6583	772.9445	845.9697	888.3788	952.1112	984.9594	1026.7225	1044.018	1092.7314	1126.8672	1170.2474	1241.3518	1257.1564	1286.4615	1320.3729	1367.8536	1376.0963	1416.478	1438.927	1450.7048	1454.9573	1494.6505	1499.9824	1796.0522	2368.1507	2974.4019	3016.3055	3049.2954	3054.1316	3056.7754	3097.2894	3127.1348	3137.8464	3661.1106
CCC(=O)C(O)CC#N	CCC(=O)[C@@H](O)CC#N	
InChI=1S/C6H9NO2/c1-2-5(8)6(9)3-4-7/h6,9H,2-3H2,1H3	InChI=1S/C6H9NO2/c1-2-5(8)6(9)3-4-7/h6,9H,2-3H2,1H3/t6-/m0/s1
