21
gdb 57926	3.24598	0.87064	0.80978	0.8155	83.8	-0.2529	-0.0099	0.2429	1548.2756	0.181147	-420.46564	-420.454969	-420.454025	-420.503155	37.912	
C	-0.4871393266	 1.3861307538	-0.2908437175	-0.379908
C	 0.1109515059	 0.0059167402	 0.0212407422	-0.087029
C	 1.1570393579	-0.4024391248	-1.0299167393	-0.379939
C	 0.7832312407	 0.0472637328	 1.3973102072	 0.428341
O	 1.6635308529	 0.8460816172	 1.653217531	-0.376904
N	 0.3126864188	-0.8922443459	 2.2912386149	-0.344093
C	 0.6961502637	-1.1547470843	 3.6161061271	 0.356553
C	 1.7847088704	-0.3093133316	 4.2218663669	-0.442827
N	 0.0628902077	-2.1074185619	 4.1805438513	-0.50359
H	 0.2925717984	 2.1501589712	-0.2346337837	 0.143304
H	-0.9180115745	 1.3969575616	-1.2964344164	 0.113745
H	-1.2756593683	 1.6523664143	 0.4200690064	 0.117151
H	-0.694536014	-0.7387840647	 0.0264234169	 0.072676
H	 1.9923914202	 0.3029441683	-1.0179571057	 0.142196
H	 1.5539178961	-1.4038525969	-0.8352267068	 0.117566
H	 0.7132308901	-0.4014496055	-2.0299595589	 0.115727
H	-0.4231184808	-1.5119930146	 1.9825166347	 0.257262
H	 1.5123559377	 0.7483156407	 4.21170982	 0.15826
H	 1.9618896888	-0.6355983731	 5.249050249	 0.112274
H	 2.7088871176	-0.3861268652	 3.6448174122	 0.158227
H	 0.3938545573	-2.2373755314	 5.1347937284	 0.221008
11.8608	56.5231	114.9556	165.9565	182.6007	219.5872	252.9494	259.9874	279.1526	322.1206	396.247	435.704	542.7612	558.279	680.4673	691.3185	766.5037	833.9304	863.0127	877.2137	933.2725	970.264	974.8	1037.9539	1072.7495	1103.5259	1117.28	1125.0875	1197.1983	1204.987	1333.4043	1375.0575	1389.8759	1392.8488	1413.782	1429.3154	1462.1679	1465.7017	1485.403	1492.2561	1496.5806	1500.7771	1516.1345	1715.6647	1784.7579	3024.8497	3038.0822	3041.4409	3058.1148	3106.3141	3108.9957	3122.8865	3128.4715	3133.4647	3141.8258	3502.0004	3605.797
CC(C)C(=O)NC(C)=N	CC(C)C(=O)NC(=N)C	
InChI=1S/C6H12N2O/c1-4(2)6(9)8-5(3)7/h4H,1-3H3,(H2,7,8,9)	InChI=1S/C6H12N2O/c1-4(2)6(9)8-5(3)7/h4H,1-3H3,(H2,7,8,9)
