18
gdb 18571	3.52211	2.04453	1.68903	1.3703	73.78	-0.2255	0.0097	0.2352	843.9188	0.154693	-347.777688	-347.770537	-347.769593	-347.808814	27.74	
C	-0.0076799153	 1.539165648	 0.0179301739	-0.384698
C	 0.0105873703	 0.0190515245	-0.0205573726	-0.034498
C	 1.2105666991	-0.6008315953	-0.8507267491	-0.328197
C	 1.909880301	-0.7189003064	 0.485021226	 0.231023
C	 2.9071650046	-0.2111499324	 1.1991803728	-0.235491
C	 2.3637186712	 0.0875823351	 2.5901359357	-0.105933
O	 0.9278046705	 0.0262799885	 2.4639418288	-0.277467
C	 0.6402283787	-0.6650123476	 1.2651519643	 0.091687
H	 0.9797925013	 1.9384164064	 0.2702994405	 0.120292
H	-0.3028827414	 1.9507465537	-0.9526580022	 0.110308
H	-0.7128185601	 1.9006210667	 0.772243734	 0.12597
H	-0.9714982517	-0.3780601339	-0.2928783776	 0.071974
H	 0.9377827711	-1.5595467035	-1.3012090543	 0.112529
H	 1.6828336661	 0.0301043151	-1.6070683503	 0.112167
H	 3.8914339739	 0.0979641937	 0.8707372023	 0.101722
H	 2.7001044584	-0.6240365993	 3.3615439232	 0.102915
H	 2.6446306959	 1.0941153835	 2.9263042132	 0.110529
H	 0.1428394563	-1.6214856769	 1.4798912612	 0.07517
116.2483	202.3529	214.2465	232.7959	344.3523	373.5702	489.4431	659.352	709.0161	755.9707	791.0969	809.2297	825.04	887.8679	920.0648	941.7631	969.2005	1017.9676	1029.1879	1047.4624	1076.0604	1125.3413	1137.7853	1159.2907	1188.2389	1196.9465	1240.6149	1255.5087	1296.1785	1337.6685	1353.6495	1379.7031	1412.4827	1479.5017	1492.7752	1496.7329	1516.6447	1725.9274	2970.4442	2997.1906	3031.6009	3036.4177	3054.3017	3064.375	3104.4549	3110.4028	3113.7535	3212.3376
CC1CC2=CCOC12	C[C@H]1C[C]2[CH]CO[C@@H]12	
InChI=1S/C7H10O/c1-5-4-6-2-3-8-7(5)6/h2,5,7H,3-4H2,1H3	InChI=1S/C7H10O/c1-5-4-6-2-3-8-7(5)6/h2,5,7H,3-4H2,1H3/t5-,7-/m0/s1
