19
gdb 75938	2.02864	1.83719	1.05984	2.7381	77.63	-0.2367	-0.0244	0.2123	1151.0886	0.158704	-423.066027	-423.057293	-423.056349	-423.099433	33.289	
C	 0.5591280596	 1.4133183833	 0.1506315717	-0.471975
C	 0.1063002459	 0.0022255696	-0.0754795913	 0.271959
C	 0.056938521	-0.6048853835	-1.2641587141	-0.161662
C	-0.4100001787	-2.0356253623	-1.3873994643	-0.276167
C	 0.1736379798	-2.9100851327	-0.2595631921	-0.30273
C	 0.2564947795	-2.1901033026	 1.0705923861	 0.374033
O	 0.8122428891	-2.6419982724	 2.0483789261	-0.338504
C	-0.3629297348	-0.7919802931	 1.1410857955	-0.038431
O	-0.0573551144	-0.1871663811	 2.3644054984	-0.437964
H	 1.3921323353	 1.4467670272	 0.8595571193	 0.139605
H	 0.8701759182	 1.8783957761	-0.7883386496	 0.115083
H	-0.2401991934	 2.0178959357	 0.5949257558	 0.134817
H	 0.33821621	-0.0697199312	-2.1665541741	 0.088585
H	-1.508880141	-2.0753857713	-1.3505070188	 0.117693
H	-0.1299394292	-2.4565867196	-2.3569311704	 0.111871
H	-0.403117962	-3.8309548399	-0.1152791629	 0.134755
H	 1.1937163695	-3.2257300836	-0.5041107926	 0.145215
H	-1.4591704047	-0.9332954062	 1.0553338796	 0.101127
H	 0.4139261302	-0.8716434624	 2.8690743977	 0.29269
72.0289	106.0823	176.6197	237.7459	281.2002	318.1158	362.5974	423.404	470.0365	481.3295	512.8649	553.4188	618.7231	651.1702	749.1241	830.6203	863.9973	904.9322	913.0856	1007.4632	1019.7601	1064.0833	1079.7162	1131.2723	1156.2593	1178.8769	1211.5187	1240.667	1255.9041	1316.7696	1330.2978	1356.0491	1364.2638	1412.1804	1426.2702	1442.7475	1470.0088	1484.2582	1487.0226	1723.2626	1799.2606	2898.0794	2995.6062	3033.7498	3045.7793	3080.1356	3089.1324	3089.7601	3121.4986	3166.7262	3657.5318
CC1=CCCC(=O)C1O	CC1=CCCC(=O)[C@H]1O	
InChI=1S/C7H10O2/c1-5-3-2-4-6(8)7(5)9/h3,7,9H,2,4H2,1H3	InChI=1S/C7H10O2/c1-5-3-2-4-6(8)7(5)9/h3,7,9H,2,4H2,1H3/t7-/m0/s1
