22
gdb 67033	2.08526	1.96973	1.57829	1.425	84.81	-0.2288	0.08	0.3088	1022.9378	0.19523	-367.196047	-367.187731	-367.186787	-367.228106	33.684	
C	-0.0839979845	 1.5190279488	-0.0530814035	-0.518443
C	 0.0385059092	 0.0274017634	-0.0092354655	 0.304069
C	 0.4269212968	-1.0022656187	-1.022898547	-0.096649
C	 1.2884489565	-1.7567154846	-0.0060801894	-0.292609
C	 0.655559248	-0.8728038191	 1.1231500489	 0.283227
C	 1.6021556223	-0.2595054933	 2.1355276366	-0.490115
C	-0.5696167717	-1.6000700322	 1.6940398091	-0.260211
C	-1.4398664371	-1.8255320613	 0.433543304	-0.169914
N	-0.9725999614	-0.8525296703	-0.580738046	-0.139284
H	 0.8895297896	 2.0035785191	 0.0783087161	 0.11699
H	-0.4987358959	 1.8339405406	-1.0145872346	 0.13276
H	-0.750123548	 1.8884564334	 0.7359006002	 0.118216
H	 0.6207971779	-0.9044563605	-2.0865591091	 0.08365
H	 1.1671418166	-2.843328782	 0.0750302769	 0.088217
H	 2.3490936379	-1.5307172748	-0.1487314459	 0.098595
H	 2.4181717021	 0.2822204739	 1.6449622488	 0.11399
H	 1.0796877809	 0.4453515709	 2.7929264744	 0.114427
H	 2.0536181088	-1.0301750602	 2.770464657	 0.117063
H	-0.3028206647	-2.5350784257	 2.198442168	 0.09488
H	-1.0870265459	-0.9651011922	 2.4236793416	 0.092626
H	-1.3491216048	-2.8427885486	 0.0395122022	 0.104172
H	-2.5014484026	-1.6442845868	 0.6245388472	 0.104342
177.0117	191.7956	207.2424	226.6055	234.3901	301.5518	358.2134	417.3849	468.8081	572.207	614.1903	651.3882	723.7096	753.9494	802.5	838.6829	885.3803	907.6432	942.4064	948.251	966.3321	985.2824	1009.5719	1051.099	1085.332	1116.7701	1128.1201	1132.2764	1188.7894	1202.5731	1227.0612	1238.4478	1247.4096	1274.6768	1281.986	1333.7196	1349.952	1400.0598	1414.263	1440.4766	1483.567	1487.1146	1489.0291	1490.9435	1495.9435	1498.3191	1516.1879	3020.8291	3025.3203	3026.9755	3030.4952	3049.9572	3070.8573	3084.5314	3085.5987	3088.0594	3091.6305	3093.7356	3114.1314	3155.123
CC12C3CC1(C)CCN23	C[C@@]12[C@H]3C[C@]1(C)CCN23	
InChI=1S/C8H13N/c1-7-3-4-9-6(5-7)8(7,9)2/h6H,3-5H2,1-2H3	InChI=1S/C8H13N/c1-7-3-4-9-6(5-7)8(7,9)2/h6H,3-5H2,1-2H3/t6-,7+,8-,9?/m1/s1
