15
gdb 66631	2.75409	1.97704	1.49531	2.1047	63.03	-0.2293	0.0519	0.2812	873.5829	0.111849	-457.661266	-457.654305	-457.653361	-457.692215	28.251	
O	-0.2430123445	 1.4261929445	 0.1389802614	-0.452311
C	-0.0362634991	 0.0734297262	 0.0606377743	 0.275915
C	-0.0344149363	-1.0420672934	 1.0815754241	-0.190292
C	-1.0448674293	-1.022919207	-0.0902500568	-0.146279
C	-0.2098666987	-1.8422139288	-1.1167579437	-0.018211
O	 0.4590136201	-2.8966033764	-0.3961222022	-0.285654
C	 1.0883866905	-1.8476382161	 0.3703880938	 0.018666
C	 0.9518836343	-0.8175579752	-0.7970330013	 0.310788
O	 2.0134923548	-0.4434484176	-1.5779346851	-0.472265
H	 0.4620868874	 1.8120076147	 0.6713430733	 0.294043
H	-0.3472050038	-1.0550473496	 2.1164886979	 0.099494
H	-2.113531101	-0.9973439963	 0.0685595799	 0.101933
H	-0.6161736225	-2.1378473076	-2.0829287634	 0.082673
H	 2.0006908859	-2.1416765194	 0.8858487189	 0.088043
H	 1.6905397124	 0.1244990519	-2.2872625011	 0.293457
171.7483	237.0222	258.5257	342.8493	356.692	367.0059	575.0302	587.4237	598.5377	635.3556	752.3368	797.2	835.7255	838.0678	873.0241	890.6917	923.9912	929.8145	950.0477	972.2062	1024.533	1041.8356	1105.0758	1132.6699	1156.3826	1193.1378	1219.9719	1230.806	1287.6011	1302.0243	1315.1615	1418.9881	1483.6575	3134.2401	3143.9601	3210.3891	3221.5844	3789.7629	3791.1144
OC12C3C1C1OC3C21O	O[C@@]12[C@H]3[C@@H]1[C@@H]1O[C@H]3[C@]21O	
InChI=1S/C6H6O3/c7-5-1-2(5)4-6(5,8)3(1)9-4/h1-4,7-8H	InChI=1S/C6H6O3/c7-5-1-2(5)4-6(5,8)3(1)9-4/h1-4,7-8H/t1-,2+,3+,4-,5-,6+
