18
gdb 98578	4.21173	0.93329	0.77693	6.154	80.15	-0.2105	-0.0359	0.1746	1423.2393	0.148474	-439.113805	-439.105106	-439.104161	-439.147693	31.865	
O	 0.1232897082	 1.4107380744	-0.0996173415	-0.428042
C	 0.0873729404	 0.0171472498	-0.0527360983	-0.136097
C	-1.3592771119	-0.4806013409	-0.0077043682	 0.234433
O	-2.2531150155	 0.363681707	-0.0204207215	-0.387686
C	-1.5950296417	-1.9043863891	 0.0367025279	 0.179324
C	-2.8275009195	-2.4681208063	 0.1064400219	-0.049834
N	-2.7930868625	-3.8273270938	 0.2050349606	-0.280117
C	-1.4295922867	-4.2967643586	-0.0996584912	-0.166231
C	-0.5618957759	-3.0240110916	 0.1018352313	-0.339742
H	-0.8172690069	 1.6651172928	-0.0906344602	 0.288856
H	 0.5871682698	-0.4278409816	-0.9305463824	 0.101453
H	 0.6206529116	-0.3703238151	 0.8327650087	 0.102334
H	-3.7707258856	-1.9380042115	 0.1244682676	 0.150515
H	-3.5884011928	-4.3783638147	-0.0767187443	 0.254367
H	-1.1434489693	-5.1205014716	 0.5587294459	 0.121827
H	-1.3730600176	-4.6528164009	-1.1372957938	 0.114847
H	 0.2222220002	-2.9504259379	-0.6570151374	 0.119783
H	-0.0598506943	-3.0476298404	 1.0778821648	 0.12001
77.6704	104.9395	136.2629	144.7093	238.8377	334.8433	364.7716	436.5985	482.8781	491.8893	523.0226	587.7847	721.3697	789.4151	852.6774	876.3971	944.917	960.0865	1001.5403	1015.1881	1020.4349	1074.4895	1137.2214	1157.0224	1198.341	1231.5327	1242.7324	1274.5683	1299.4814	1318.6785	1334.8934	1377.1759	1460.1351	1479.0189	1494.0008	1501.7548	1525.0903	1635.5269	1716.8532	2956.2757	2968.7334	3009.2174	3017.3223	3076.7201	3093.7972	3235.367	3618.2902	3632.2184
OCC(=O)C1=CNCC1	OCC(=O)C1=CNCC1	
InChI=1S/C6H9NO2/c8-4-6(9)5-1-2-7-3-5/h3,7-8H,1-2,4H2	InChI=1S/C6H9NO2/c8-4-6(9)5-1-2-7-3-5/h3,7-8H,1-2,4H2
