16
gdb 16015	4.2577	1.82213	1.45134	2.618	67.47	-0.2438	0.0016	0.2454	866.4683	0.131357	-383.718044	-383.711323	-383.710379	-383.74885	26.054	
C	 0.0369998337	 1.4934715099	 0.0253452535	-0.241737
O	 1.2299041051	 0.7180743051	-0.0299700761	-0.275135
C	-0.0382069292	 0.0247232606	-0.0103128988	 0.396048
C	-0.3826147792	-0.7377287593	 1.2553119004	-0.164969
O	-0.1068118296	-2.1195361153	 1.1215468733	-0.242966
C	-0.8661717276	-2.725040628	 0.0944954657	-0.127312
C	-0.8173689738	-1.9603248099	-1.2003304564	-0.088618
C	-0.399605155	-0.6961865757	-1.2520209973	-0.114144
H	-0.1429012321	 2.0167919349	 0.965279046	 0.112497
H	-0.1992038465	 2.0668042927	-0.8711013601	 0.11265
H	 0.2247984905	-0.371381471	 2.0864216389	 0.122086
H	-1.4481823268	-0.5797762295	 1.4977243657	 0.0907
H	-0.4457410632	-3.7276696426	-0.0415034581	 0.123673
H	-1.9175134192	-2.8606397344	 0.4138371223	 0.098858
H	-1.1295974395	-2.4880772132	-2.0973639919	 0.101486
H	-0.3139714774	-0.1572349343	-2.1908545873	 0.096885
103.6886	246.7242	278.1058	312.9389	389.3625	446.9522	483.2195	545.0128	692.0231	734.2464	787.8315	880.2351	906.0594	915.0139	975.7692	987.3761	1002.3423	1026.4865	1072.224	1126.2714	1130.5284	1163.939	1194.3882	1245.998	1304.847	1315.7776	1346.5823	1373.2699	1411.9789	1446.8291	1476.2864	1487.1679	1527.1855	1714.6223	2922.1842	2954.8675	3062.0662	3068.6374	3103.9681	3152.8707	3160.6297	3182.5411
C1OC11COCC=C1	C1O[C@]21COCC=C2	
InChI=1S/C6H8O2/c1-2-6(5-8-6)4-7-3-1/h1-2H,3-5H2	InChI=1S/C6H8O2/c1-2-6(5-8-6)4-7-3-1/h1-2H,3-5H2/t6-/m0/s1
