19
gdb 22543	1.44814	0.92379	0.58209	2.2365	94.47	-0.2174	-0.1024	0.115	1909.9946	0.152058	-419.098429	-419.085942	-419.084998	-419.138715	40.823	
C	 0.1549795194	 1.8179665959	 1.7994012442	-0.305316
N	 0.5490770035	 0.8539115173	 0.7702803559	-0.490078
H	 1.5179495334	 1.0018251932	 0.5057455793	 0.224981
H	 0.4858805999	-0.0966993492	 1.1276204131	 0.248336
C	-1.4097407451	-1.0343566567	-1.1401864735	-0.269057
C	-2.1339159348	-0.7615915629	-2.315554381	 0.281147
C	-2.7417670906	-0.4905776168	-3.3223539214	-0.374038
C	-1.3770956017	-2.2387999413	-0.5174275534	 0.307428
C	-2.0766331624	-3.4932679802	-0.9268111748	-0.497645
N	-0.5627389759	-2.2343281283	 0.6538098141	-0.035523
O	-0.5130371445	-3.3063678876	 1.2364142687	-0.257881
H	 0.7677849876	 1.7999882703	 2.7144351064	 0.099894
H	 0.1981924661	 2.8319870981	 1.388463155	 0.119468
H	-0.8826182772	 1.6280564738	 2.0916423456	 0.124647
H	-0.8309165624	-0.2192429084	-0.694710831	 0.176307
H	-3.2785633106	-0.2566255674	-4.2087746205	 0.212595
H	-1.3528371893	-4.3001190239	-1.0800121844	 0.148716
H	-2.7483725784	-3.8321674018	-0.1314752363	 0.148753
H	-2.6478886269	-3.3378288642	-1.8425352861	 0.137267
33.7488	45.5867	75.1222	87.1346	107.4632	117.9694	126.3334	143.0761	163.2369	266.8436	304.8126	365.391	405.7503	466.3948	494.7171	522.8723	627.8392	647.6113	715.8697	838.9973	894.544	981.4336	993.6929	1008.2948	1056.5549	1065.3329	1084.8036	1179.1686	1183.5024	1357.1563	1385.5348	1417.406	1460.1573	1466.939	1469.4844	1497.6235	1518.4118	1569.3579	1671.42	1676.3966	2206.7977	2977.3788	3047.7223	3062.8502	3066.31	3101.0298	3101.6709	3150.7597	3476.9282	3499.22	3560.9483
C[NH2+]C(C#C)C(C)=N[O-]	CN.C(=C(C)[N][O])C#C	
InChI=1S/C6H10N2O/c1-4-6(7-3)5(2)8-9/h1,6-7,9H,2-3H3	InChI=1S/C5H5NO.CH5N/c1-3-4-5(2)6-7;1-2/h1,4H,2H3;2H2,1H3
