19
gdb 8680	2.68331	1.62536	1.29948	4.6703	71.46	-0.2511	0.0374	0.2885	1041.2624	0.165379	-361.248488	-361.238829	-361.237884	-361.282273	35.112	
C	-0.1370265179	 1.564497665	 0.044498901	-0.393491
C	 0.0454397829	 0.0460819585	-0.0058895628	-0.205433
C	 0.8044894277	-0.4701717773	-1.2489540501	 0.095921
N	 2.1404984308	 0.13135049	-1.3129500134	-0.517591
C	 0.8474173495	-2.026291679	-1.2400139962	-0.183118
N	 1.617935329	-2.5127593602	-2.3818537127	-0.520687
C	 0.0692699044	-0.0701752508	-2.4725627888	 0.321149
N	-0.5224983955	 0.1804296225	-3.4334074467	-0.360861
H	 0.8258415059	 2.0786520291	 0.0027429515	 0.137355
H	-0.7392023956	 1.9145491468	-0.7991056389	 0.142008
H	-0.6473981721	 1.8551758713	 0.9672607074	 0.113335
H	 0.6077183391	-0.2968777282	 0.8729640208	 0.097771
H	-0.9291775092	-0.4526923322	 0.0353851349	 0.113591
H	 2.5880292324	 0.007582334	-0.4078502165	 0.225558
H	 2.6854423013	-0.411771985	-1.9806378132	 0.247492
H	 1.364607077	-2.3268455548	-0.3216372503	 0.101916
H	-0.1811576216	-2.417279249	-1.1837920921	 0.09888
H	 1.8605616542	-3.4891907213	-2.2592019628	 0.237711
H	 1.0643603376	-2.4489206192	-3.2312207012	 0.248495
99.6982	122.1743	159.6809	176.8728	210.9853	238.8345	266.8498	292.6757	324.9225	397.4174	402.3538	463.0895	589.9538	632.6637	691.3151	792.5039	841.3516	896.5016	924.9153	961.1354	1001.1927	1042.4538	1072.9265	1096.8913	1121.5542	1183.2525	1229.9722	1284.2983	1337.6329	1358.9185	1379.47	1409.6753	1416.6502	1479.4755	1493.2632	1495.761	1508.93	1658.9589	1659.6615	2350.5222	2972.1199	3020.4662	3048.2448	3061.2705	3070.3072	3115.6662	3131.7574	3465.4939	3505.0546	3547.2143	3587.9032
CCC(N)(CN)C#N	CC[C@@](N)(CN)C#N	
InChI=1S/C5H11N3/c1-2-5(8,3-6)4-7/h2-3,6,8H2,1H3	InChI=1S/C5H11N3/c1-2-5(8,3-6)4-7/h2-3,6,8H2,1H3/t5-/m1/s1
