18
gdb 61438	2.63937	1.09372	0.87498	4.0336	69.14	-0.2343	0.0132	0.2475	1329.5307	0.147836	-472.473449	-472.463351	-472.462407	-472.509302	36.394	
N	-0.2510390281	 1.8488574338	-1.1285698103	-0.515233
C	-0.191289003	 0.644127243	-0.3023215762	-0.089353
C	-1.6213607435	 0.2664301567	 0.1463081192	-0.307185
C	-1.6940650148	-0.5219985138	 1.4495670736	 0.419179
N	-2.9391015261	-0.6176065676	 1.9841140267	-0.512393
O	-0.726366078	-1.0358925974	 1.9956004408	-0.373431
C	 0.4688225378	-0.5317876289	-1.0667398882	 0.360141
N	 0.9290077979	-1.538186868	-0.2863927912	-0.515455
O	 0.5529979208	-0.5157004817	-2.2841485657	-0.376538
H	 0.6661725105	 2.2871455275	-1.1273493547	 0.229634
H	-0.37387045	 1.5318576767	-2.0910193243	 0.23873
H	 0.3919249121	 0.8543696997	 0.5989658724	 0.103769
H	-2.1798612918	 1.2014131095	 0.26120798	 0.133805
H	-2.1352836446	-0.3040726077	-0.6383633804	 0.13749
H	-3.7344642777	-0.1566865862	 1.5786919274	 0.2669
H	-3.0539793668	-1.1192309958	 2.8495319332	 0.26588
H	 0.6444896972	-1.569431839	 0.6867270278	 0.282999
H	 1.2552092581	-2.374977311	-0.7433909201	 0.251062
32.0856	69.0569	127.9401	203.2231	215.5742	226.8502	234.7186	305.192	350.2308	417.5331	483.9661	501.1087	513.4967	600.2787	650.165	657.1222	688.432	772.9025	783.273	863.556	944.2298	999.852	1027.7601	1096.9856	1136.7702	1157.8097	1190.7543	1213.4675	1271.1788	1320.6672	1367.5374	1399.4943	1426.9921	1463.9297	1620.3501	1625.1356	1680.4087	1762.2491	1789.4544	3032.4485	3072.5247	3082.495	3458.6925	3495.3024	3538.1359	3604.3372	3675.9723	3740.7617
NC(CC(N)=O)C(N)=O	N[C@@H](CC(=O)N)C(=O)N	
InChI=1S/C4H9N3O2/c5-2(4(7)9)1-3(6)8/h2H,1,5H2,(H2,6,8)(H2,7,9)	InChI=1S/C4H9N3O2/c5-2(4(7)9)1-3(6)8/h2H,1,5H2,(H2,6,8)(H2,7,9)/t2-/m0/s1
