16
gdb 57236	3.01734	0.78526	0.72127	2.4279	81.08	-0.2791	-0.0756	0.2036	1581.0741	0.120822	-400.740524	-400.730306	-400.729362	-400.777027	34.641	
C	 0.1876354775	 1.4891685488	-0.0072299604	-0.397223
C	-0.0195864023	-0.0500579643	 0.0022686355	-0.130849
C	 0.6436986223	-0.6784761527	 1.2582069765	-0.397223
C	-1.4692676518	-0.3372604561	 0.0327646793	 0.29624
N	-2.6040063723	-0.5473278594	 0.0819029814	-0.33169
C	 0.5643018013	-0.6344298753	-1.2091608478	 0.198858
C	 1.0967817274	-1.0945722791	-2.1893450629	-0.030958
C	 1.6930234281	-1.661694703	-3.3757593561	 0.026202
O	 2.8663680928	-1.5759522906	-3.6522200969	-0.222366
H	 1.257500856	 1.708635601	-0.0256741309	 0.144171
H	-0.2808106491	 1.9395381927	-0.8841376178	 0.151438
H	-0.2540275037	 1.9246080338	 0.8924815422	 0.143152
H	 0.2029857724	-0.2475422283	 2.1605498261	 0.143152
H	 0.4975406578	-1.7599466722	 1.2755724939	 0.151437
H	 1.7151266294	-0.4664358245	 1.2440972431	 0.144171
H	 0.9763505342	-2.195248771	-4.0310590152	 0.111488
29.8655	69.1012	106.1241	156.098	186.6954	228.4336	242.5242	270.1073	282.1335	327.6291	426.2792	518.8931	523.8543	595.1096	618.8558	705.0556	847.7389	934.4292	947.5506	1021.4194	1042.5452	1071.9365	1132.3491	1212.0333	1263.1547	1397.6872	1419.8066	1420.8819	1477.5737	1481.8345	1492.7554	1505.7637	1770.6077	2333.011	2361.7599	2933.4384	3054.2861	3056.601	3136.759	3140.4215	3145.3005	3146.497
CC(C)(C#N)C#CC=O	CC(C)(C#N)C#CC=O	
InChI=1S/C7H7NO/c1-7(2,6-8)4-3-5-9/h5H,1-2H3	InChI=1S/C7H7NO/c1-7(2,6-8)4-3-5-9/h5H,1-2H3
