20
gdb 118825	3.31898	0.86263	0.83077	4.218	78.52	-0.2487	0.0047	0.2534	1492.5312	0.168183	-440.270289	-440.260131	-440.259187	-440.305969	35.681	
C	 0.0502395894	 1.4338924673	-0.0147481095	-0.226005
O	-0.1304085625	 0.0479605922	 0.1594608514	-0.237879
C	 0.8183377079	-0.5257475368	 1.0302769951	-0.103253
C	 0.5378618184	-2.0087860681	 1.1353662808	 0.274611
C	 0.5271046019	-2.7608013859	-0.1804148425	-0.463187
C	 0.9664487322	-2.7272630083	 2.3880409491	-0.289165
N	-0.4184085066	-2.3783185801	 2.174405278	-0.081109
C	-1.4496192999	-3.2930011863	 2.0692455139	 0.134925
O	-1.5586942051	-4.292993902	 2.7371110134	-0.292156
H	 1.0382636431	 1.665988704	-0.4430159724	 0.105674
H	-0.7239772858	 1.7798729368	-0.7033670947	 0.131454
H	-0.0487116213	 1.9801845662	 0.9361494378	 0.10966
H	 1.8415459416	-0.3697552449	 0.6445342125	 0.088039
H	 0.7616810802	-0.0665968109	 2.029442734	 0.095199
H	 1.5032090459	-2.6754165006	-0.6694680744	 0.126106
H	 0.3121529345	-3.8220044552	-0.0275828195	 0.131609
H	-0.2208838751	-2.3400137445	-0.8565579198	 0.148176
H	 1.2292880519	-3.7788899625	 2.3050044828	 0.135097
H	 1.4783291862	-2.1851486589	 3.1794140751	 0.122871
H	-2.2147280867	-2.9609404711	 1.342274959	 0.089332
56.7387	93.3424	108.8098	134.9619	203.9778	228.277	236.4629	255.8197	320.8369	346.2894	393.8756	456.0319	501.8425	618.5608	775.4772	863.6034	911.3801	954.0458	980.8441	1003.2201	1026.686	1043.8794	1109.8986	1126.5299	1137.1553	1161.2883	1184.2844	1223.9392	1234.0171	1266.2556	1319.5243	1389.4499	1412.3253	1416.282	1444.2649	1478.5257	1481.7578	1486.2346	1499.3529	1504.6381	1514.0813	1521.31	1795.9779	2948.8429	2958.7954	2973.3197	3000.9377	3018.6074	3042.7361	3105.6566	3110.2069	3118.6529	3130.3873	3193.4123
COCC1(C)CN1C=O	COC[C@@]1(C)CN1C=O	
InChI=1S/C6H11NO2/c1-6(4-9-2)3-7(6)5-8/h5H,3-4H2,1-2H3	InChI=1S/C6H11NO2/c1-6(4-9-2)3-7(6)5-8/h5H,3-4H2,1-2H3/t6-,7?/m1/s1
