23
gdb 58429	2.69823	1.27144	1.20929	1.9174	85.	-0.234	0.0805	0.3145	1204.4592	0.204217	-388.222736	-388.213271	-388.212327	-388.257095	36.925	
C	 0.0984939415	 1.505987757	 0.0432689465	-0.395197
C	 0.060646979	-0.0283813129	 0.1488902801	-0.051212
C	 0.8005623906	-0.5101227903	 1.4088840691	-0.395063
C	-1.3777060541	-0.5833201685	 0.0688375827	 0.374584
C	-2.2666763408	-0.0977891734	 1.2156830152	-0.483405
C	-2.0980898547	-0.6699251126	-1.3286172091	-0.002114
C	-1.1461961114	-1.7958599141	-1.7988187282	-0.243115
C	-1.6081654707	-2.0839000219	-0.3505700342	-0.00214
O	-2.9815109805	-1.7282782291	-0.7822768462	-0.311163
H	 1.1333236964	 1.8568808052	-0.0279319488	 0.111469
H	-0.4347709206	 1.8617641986	-0.8447695989	 0.111706
H	-0.3492181131	 1.9875605555	 0.9181026361	 0.119839
H	 0.6268590246	-0.4096261412	-0.7048828592	 0.072622
H	 0.3697931535	-0.0890852516	 2.3226147356	 0.119782
H	 0.7749860429	-1.6013951264	 1.498303378	 0.111796
H	 1.8514268546	-0.204373762	 1.3733660455	 0.111556
H	-2.3557199992	 0.9928897688	 1.2129854003	 0.11298
H	-3.2650810795	-0.5227880687	 1.1236707546	 0.142043
H	-1.8555306147	-0.3898162563	 2.1867975746	 0.112656
H	-2.575405572	 0.120090866	-1.9114885977	 0.086735
H	-1.5917885428	-2.4615350054	-2.5379949891	 0.107841
H	-0.0997974751	-1.5819778575	-2.0126752498	 0.101034
H	-1.4964210138	-2.9933247293	 0.2428314626	 0.086766
28.972	158.4631	185.1078	226.004	243.9546	262.286	306.9479	310.3997	389.2744	442.2744	465.7464	532.3754	609.6176	684.0406	738.3428	802.6834	861.3706	866.0147	879.5217	913.3304	926.198	940.5176	967.4811	1006.7366	1014.4166	1066.5729	1089.1695	1109.0746	1128.1209	1160.497	1170.6993	1172.4381	1206.1932	1208.1906	1246.6252	1277.7345	1286.4512	1347.9523	1380.6958	1398.8101	1402.8139	1422.5292	1486.0163	1491.0554	1491.8599	1498.0383	1507.1314	1513.3328	1520.6692	3030.5875	3033.971	3048.4262	3061.1429	3088.2638	3094.5581	3096.1762	3098.7265	3099.1055	3106.2892	3108.1539	3112.4871	3158.2146	3159.9043
CC(C)C1(C)C2CC1O2	CC(C)[C@@]1(C)[C@H]2C[C@@H]1O2	
InChI=1S/C8H14O/c1-5(2)8(3)6-4-7(8)9-6/h5-7H,4H2,1-3H3	InChI=1S/C8H14O/c1-5(2)8(3)6-4-7(8)9-6/h5-7H,4H2,1-3H3/t6-,7+,8+
