13
gdb 49357	1.98951	1.61556	1.25157	5.0617	70.15	-0.2798	-0.0259	0.2539	1035.655	0.08692	-415.563194	-415.554646	-415.553702	-415.596886	29.835	
O	 0.2625648472	 0.2247241078	 0.599702342	-0.263247
C	 0.2334870841	 1.3742442771	 0.2561424713	 0.166073
N	 1.2599039511	 2.0059566876	-0.4535024825	-0.085468
C	 1.920557762	 3.2473717084	-0.085134894	-0.237922
C	 1.6628623897	 3.8714972971	 1.180798359	 0.357046
C	 1.4333094016	 4.4112154583	 2.2291586585	-0.413958
C	 2.6688175199	 1.9115758986	-0.1573305628	-0.178597
C	 3.1407052892	 1.2925005933	 1.0584823092	 0.336201
N	 3.5765275563	 0.8075997315	 2.0122332147	-0.318565
H	-0.6338438687	 2.0452482877	 0.3862464075	 0.112519
H	 2.0864624713	 3.92747428	-0.9181069022	 0.145199
H	 1.2393069836	 4.8768145162	 3.1646955868	 0.223106
H	 3.3122856827	 1.7427755062	-1.0171930676	 0.157613
86.0088	100.1523	108.2485	188.3699	238.4623	264.1194	314.5388	437.3858	495.4889	606.9557	624.4251	654.2783	659.7619	691.4863	776.3267	887.0495	921.2195	1029.7618	1034.9363	1063.4724	1112.9091	1140.8639	1344.8296	1362.6375	1399.23	1414.2319	1819.4336	2245.6684	2366.0585	2986.7797	3132.1667	3148.1911	3498.1989
O=CN1C(C#C)C1C#N	O=CN1[C@@H](C#C)[C@H]1C#N	
InChI=1S/C6H4N2O/c1-2-5-6(3-7)8(5)4-9/h1,4-6H	InChI=1S/C6H4N2O/c1-2-5-6(3-7)8(5)4-9/h1,4-6H/t5-,6+,8?/m0/s1
