24
gdb 118850	3.71221	0.72004	0.67308	2.3225	87.34	-0.2206	0.0795	0.3001	1792.7218	0.214821	-405.519213	-405.508046	-405.507101	-405.555891	40.407	
C	-0.1701762642	 1.5782333249	 0.4575277084	-0.371763
C	 0.1311869133	 0.1745853892	-0.0650456172	-0.114986
N	 0.8076385823	-0.6044437691	 0.9658757535	-0.110999
C	-0.0072034476	-1.4341508122	 1.848125976	-0.295784
C	 0.9331531686	-2.0644126538	 0.8688652258	 0.318545
C	 0.3613391263	-2.8153163657	-0.3215437289	-0.467097
C	 2.2763959335	-2.5766619301	 1.3695877016	-0.229641
C	 2.226527671	-3.9676479446	 1.9949712859	-0.073803
O	 3.5261428482	-4.2569432363	 2.4905915697	-0.418911
H	 0.7500509993	 2.0734327955	 0.7790800369	 0.126105
H	-0.6448687555	 2.1870099666	-0.3184822177	 0.107733
H	-0.8478460456	 1.5357477749	 1.3166341817	 0.116905
H	-0.8064188887	-0.2884247943	-0.4152634216	 0.079687
H	 0.799739698	 0.237052346	-0.9323916522	 0.100903
H	 0.2334835404	-1.3914802753	 2.9082971697	 0.107468
H	-1.073635832	-1.5089226745	 1.6321731014	 0.098295
H	-0.6070879353	-2.4235097502	-0.6380042723	 0.118985
H	 1.0454072022	-2.765481575	-1.1770603372	 0.120414
H	 0.2190699755	-3.8731840465	-0.0787594016	 0.122089
H	 3.0007483989	-2.5876317041	 0.5449983277	 0.09912
H	 2.6597822551	-1.8752557436	 2.116223909	 0.115636
H	 1.477522583	-3.9826581243	 2.8037263632	 0.084786
H	 1.916176852	-4.7176758797	 1.2506668068	 0.082369
H	 3.5112326013	-5.1380262778	 2.8752116813	 0.283944
65.1077	80.3553	81.0935	121.1434	166.2604	218.8203	234.9805	267.1359	279.3225	307.8974	334.9786	376.4079	439.2384	448.049	586.8918	714.5065	778.4074	802.7628	813.2887	899.3932	933.0321	962.475	997.8688	1016.458	1039.6529	1066.8583	1084.8076	1103.0537	1108.8912	1122.7382	1182.6052	1204.4779	1221.9497	1245.0533	1286.0551	1305.3252	1310.2116	1344.3394	1380.9324	1392.8854	1408.873	1421.1125	1461.319	1481.2536	1488.7542	1490.0635	1497.0141	1502.7425	1508.4353	1516.2028	1529.763	2955.977	2963.8821	2990.428	3031.6411	3035.4994	3037.7292	3045.3509	3074.2789	3091.6565	3095.348	3106.0537	3120.3446	3127.4676	3158.57	3830.1819
CCN1CC1(C)CCO	CCN1C[C@]1(C)CCO	
InChI=1S/C7H15NO/c1-3-8-6-7(8,2)4-5-9/h9H,3-6H2,1-2H3	InChI=1S/C7H15NO/c1-3-8-6-7(8,2)4-5-9/h9H,3-6H2,1-2H3/t7-,8?/m0/s1
