22
gdb 14796	11.80664	0.51941	0.50695	0.4688	76.99	-0.249	0.0799	0.3289	2186.0127	0.197962	-387.333126	-387.322446	-387.321501	-387.369893	36.215	
C	-0.0841897686	 1.5152764478	 0.0114172998	-0.38408
C	-0.0261175146	-0.0029948877	 0.0024624584	-0.027035
O	-1.3452910979	-0.5058206789	 0.0122760337	-0.244248
C	-1.4068627134	-1.9149735952	 0.0051727214	-0.047824
C	-2.8686746946	-2.341106156	 0.0168351935	-0.202047
C	-3.0360479133	-3.8625095606	 0.0101660337	-0.167411
C	-4.4961727095	-4.2939070076	 0.0216463118	-0.073655
O	-4.5333443052	-5.7133433634	 0.0141320187	-0.422084
H	 0.9256902795	 1.9363102744	 0.0041271523	 0.112886
H	-0.6209226418	 1.8837131146	-0.8674748983	 0.125411
H	-0.6040439975	 1.8738998534	 0.9044015566	 0.12541
H	 0.5130060945	-0.3640530554	-0.8905782291	 0.082883
H	 0.5299195875	-0.373854657	 0.8809966416	 0.082882
H	-0.8975218931	-2.3179382264	-0.8881371478	 0.082602
H	-0.8805628903	-2.3276092989	 0.8841216615	 0.0826
H	-3.3492586622	-1.9083695322	 0.9029151317	 0.104502
H	-3.3660823328	-1.8988186626	-0.855131798	 0.104507
H	-2.5553144567	-4.2956990395	-0.8757460809	 0.105559
H	-2.5386651174	-4.3052489112	 0.8820519949	 0.105549
H	-4.996689992	-3.8862885071	 0.9155012425	 0.08435
H	-5.0135316108	-3.8764753811	-0.8579849796	 0.084348
H	-5.4542296897	-5.9895717294	 0.0222161017	 0.284893
48.1516	73.3529	83.0518	111.0564	130.2698	165.8169	206.7028	247.4572	262.8856	286.5475	369.5259	491.8015	517.3378	755.7688	814.5057	823.8626	896.1105	946.7708	1000.2711	1041.2114	1054.6872	1067.268	1094.5857	1146.0309	1169.9977	1175.7079	1194.5446	1225.8024	1235.7738	1286.7492	1296.3686	1297.2984	1312.346	1320.8899	1372.042	1394.4884	1410.9446	1455.2169	1466.132	1483.7692	1491.6869	1499.1569	1502.2206	1518.6193	1530.1743	1540.2566	2938.3588	2953.2393	2958.6894	2965.7465	2971.484	2983.7093	3024.463	3033.1479	3044.3264	3056.2792	3080.9863	3118.4323	3120.5865	3830.6387
CCOCCCCO	CCOCCCCO	
InChI=1S/C6H14O2/c1-2-8-6-4-3-5-7/h7H,2-6H2,1H3	InChI=1S/C6H14O2/c1-2-8-6-4-3-5-7/h7H,2-6H2,1H3
