18
gdb 99488	2.40716	1.18212	0.82652	4.7715	75.34	-0.2342	-0.0013	0.2329	1387.6968	0.146097	-435.265573	-435.255165	-435.254221	-435.301799	35.652	
C	-0.2962816963	 1.4170346289	-0.1444656006	-0.311833
N	-0.1764840742	-0.0256746701	-0.2359004109	-0.305256
C	 0.7914375419	-0.5892277884	-1.0087896955	 0.348605
N	 1.7224038875	 0.096819447	-1.5487047611	-0.536661
C	 0.6889096348	-2.1302060345	-1.0472053321	-0.095745
O	-0.6576569514	-2.5250997843	-0.9189722607	-0.244467
C	-0.8375791414	-3.906895139	-0.640864426	-0.252716
C	 1.2920955973	-2.6698162351	-2.2834353243	 0.279633
N	 1.751324343	-3.132546254	-3.2372376781	-0.32434
H	 0.6505758679	 1.8438265868	 0.1940852311	 0.152825
H	-0.5382610339	 1.8756888771	-1.1116763609	 0.133208
H	-1.0793514524	 1.6603022483	 0.5767494069	 0.119554
H	-0.9966222283	-0.5903617915	-0.0873100905	 0.258665
H	 2.3754738988	-0.4912193128	-2.0619955988	 0.228903
H	 1.2780423084	-2.5197685245	-0.1994978312	 0.140136
H	-0.3267161044	-4.1931856179	 0.2894146813	 0.121239
H	-1.9112184464	-4.065012108	-0.5280268051	 0.144363
H	-0.4639558908	-4.5309719379	-1.4621170337	 0.143888
42.7809	94.9765	121.3972	129.0345	147.4861	178.0841	218.3952	274.8838	290.9102	365.3938	421.8258	465.3371	496.3475	563.6318	620.6738	755.6292	823.9502	906.0029	947.3618	1003.9374	1072.0293	1136.7878	1154.7605	1176.7445	1185.2989	1191.3382	1215.0698	1292.4327	1335.3003	1353.0162	1453.6791	1475.695	1479.2912	1488.0177	1506.9973	1510.2762	1556.0575	1723.3179	2357.3257	2967.6353	3000.8124	3024.1702	3067.1881	3098.0379	3137.8943	3139.3102	3512.7026	3650.0738
CNC(=N)C(OC)C#N	CNC(=N)[C@@H](OC)C#N	
InChI=1S/C5H9N3O/c1-8-5(7)4(3-6)9-2/h4H,1-2H3,(H2,7,8)	InChI=1S/C5H9N3O/c1-8-5(7)4(3-6)9-2/h4H,1-2H3,(H2,7,8)/t4-/m0/s1
