18
gdb 64782	4.53777	0.68129	0.66381	2.1885	94.29	-0.2384	-0.0102	0.2282	1722.0956	0.145355	-364.737126	-364.727485	-364.72654	-364.772101	35.565	
C	 0.0080100467	 1.5566340045	-0.3850449987	-0.465426
C	-0.0189170226	 0.0716542757	-0.0924234583	 0.33749
C	-1.3494042507	-0.4728576148	 0.4359181496	-0.433778
C	-1.8073230329	 0.1878820555	 1.6500884667	 0.396108
C	-2.1823268454	 0.7472708475	 2.6559297692	-0.257849
C	-2.6069654637	 1.3741338808	 3.7867358347	 0.293141
C	-2.9847663062	 1.9313578258	 4.7894136813	-0.55454
C	 0.8351883627	-0.8386820104	-0.8973980249	-0.283855
N	 1.1586012693	-0.5624005636	 0.5161645491	-0.33304
H	 0.9790829114	 1.8565153875	-0.7913105231	 0.112402
H	-0.7605293339	 1.8289373357	-1.117243559	 0.124026
H	-0.1807876541	 2.1358987995	 0.5244234571	 0.141984
H	-2.1161551586	-0.3700101694	-0.3446321506	 0.132904
H	-1.2318978368	-1.5452253202	 0.6283907658	 0.144499
H	-3.3166153737	 2.4191501159	 5.6718444073	 0.188821
H	 0.5162498274	-1.8578399201	-1.1008887846	 0.115854
H	 1.4540128233	-0.3980702087	-1.6750386319	 0.111433
H	 1.9246661976	 0.1039113588	 0.5767218802	 0.229826
47.3231	69.1815	152.0553	196.003	217.3562	314.7875	342.624	352.3282	370.0823	390.8529	482.9156	524.2283	530.754	586.6794	592.5954	724.7559	743.8024	848.5137	900.2994	909.2133	937.0347	987.9343	1017.6187	1063.1632	1114.3115	1146.2404	1175.239	1226.1355	1265.8652	1314.1993	1344.1769	1390.6913	1420.0739	1451.1446	1484.2808	1500.4012	1515.7532	2181.396	2362.9719	3014.4177	3030.4632	3066.0906	3096.2085	3102.0659	3108.0467	3185.3523	3499.4695	3506.18
CC1(CC#CC#C)CN1	C[C@@]1(CC#CC#C)CN1	
InChI=1S/C8H9N/c1-3-4-5-6-8(2)7-9-8/h1,9H,6-7H2,2H3	InChI=1S/C8H9N/c1-3-4-5-6-8(2)7-9-8/h1,9H,6-7H2,2H3/t8-/m1/s1
