16
gdb 127600	3.33121	1.38556	0.98514	4.422	77.83	-0.2196	-0.0395	0.1801	1149.8447	0.125788	-434.112865	-434.104649	-434.103704	-434.145532	30.962	
C	-0.0078809979	 1.4178643254	-0.0414317237	-0.31199
N	-0.011152247	-0.0400611793	-0.0183752497	-0.052413
N	-0.0614055799	-0.6574094344	-1.1966943854	-0.208368
C	-0.0674648195	-1.9577614799	-1.212923383	-0.039542
C	-0.0184005157	-2.7637786334	-0.0261306661	 0.326107
N	-0.0818337583	-4.1335710832	-0.1562764672	-0.587847
C	 0.0389032379	-2.1121554551	 1.1765292316	-0.325964
C	 0.04111363	-0.676185874	 1.2477947501	 0.436136
O	 0.0879103781	 0.0099004278	 2.2591606416	-0.415231
H	 0.8974156667	 1.7989971767	 0.4376602067	 0.148853
H	-0.0524574425	 1.7282777673	-1.0838032307	 0.141095
H	-0.8661271875	 1.8036055189	 0.5143337848	 0.149651
H	-0.1173126363	-2.416917766	-2.1953711419	 0.112879
H	 0.2155052512	-4.5235877742	-1.0367765658	 0.259003
H	 0.198375139	-4.6801545265	 0.6430672582	 0.261162
H	 0.0818603116	-2.6417489901	 2.1212305207	 0.106468
101.9095	124.4058	187.1643	275.2384	316.1555	339.4072	372.008	447.0692	464.634	500.783	523.3942	619.2092	701.5286	735.9286	743.9776	790.2898	861.1742	872.4635	981.764	1040.5627	1102.273	1149.9505	1186.8671	1269.9774	1274.297	1308.8289	1391.7733	1436.5568	1469.6626	1470.6936	1507.334	1566.7484	1644.9329	1671.9068	1759.4805	3057.8955	3120.0196	3174.7971	3175.9671	3198.9157	3585.2544	3691.4941
CN1N=CC(N)=CC1=O	Cn1ncc(N)cc1=O	
InChI=1S/C5H7N3O/c1-8-5(9)2-4(6)3-7-8/h2-3H,6H2,1H3	InChI=1S/C5H7N3O/c1-8-5(9)2-4(6)3-7-8/h2-3H,6H2,1H3
