17
gdb 13910	3.03201	1.65266	1.52026	4.5513	65.78	-0.2336	0.0152	0.2488	928.9719	0.141508	-401.025329	-401.016714	-401.015769	-401.058286	31.642	
C	-0.2730698937	 1.4525345529	 0.0662551081	-0.415486
C	 0.0259803251	-0.0290339482	 0.0611032723	-0.062438
C	 1.3718657827	-0.5699482644	-0.3016985227	 0.126688
O	 2.4409220377	 0.2489866744	-0.6065147678	-0.425168
C	 0.8838485744	-0.7124312171	 1.1507144489	-0.233571
C	 1.5824388738	 0.0916038825	 2.1834208935	 0.462694
N	 1.5042267397	-0.37969445	 3.4568970207	-0.533025
O	 2.225823226	 1.1112275139	 1.9263682141	-0.413768
H	 0.5847609268	 2.0381423669	 0.3968996415	 0.149009
H	-0.5409135118	 1.7788437657	-0.9441344141	 0.121826
H	-1.1152741459	 1.6814189913	 0.7276734459	 0.112219
H	-0.8128814679	-0.6521161939	-0.2403668295	 0.090527
H	 1.4057405021	-1.4921188122	-0.8757487099	 0.102222
H	 2.6004502126	 0.8102290532	 0.1773427192	 0.309742
H	 0.5516015263	-1.6946490756	 1.4719628582	 0.081225
H	 0.9285257523	-1.1641197621	 3.7050726474	 0.262931
H	 1.9597806297	 0.1437638928	 4.1863555843	 0.264372
82.3895	150.2354	161.5139	172.2384	209.7637	267.5645	364.0582	395.0035	481.7559	564.0947	606.7647	637.7681	677.7081	712.5358	786.7107	809.5385	854.5233	949.3708	991.9637	1021.0229	1076.2088	1099.8821	1121.1803	1142.0253	1173.8827	1254.3002	1284.368	1362.6117	1392.5437	1421.2117	1446.3482	1485.1023	1500.9484	1508.9846	1614.8173	1726.8581	3040.2867	3095.6749	3126.7994	3140.9445	3151.5004	3156.7729	3542.7817	3606.8018	3745.3359
CC1C(O)C1C(N)=O	C[C@H]1[C@@H](O)[C@H]1C(=O)N	
InChI=1S/C5H9NO2/c1-2-3(4(2)7)5(6)8/h2-4,7H,1H3,(H2,6,8)	InChI=1S/C5H9NO2/c1-2-3(4(2)7)5(6)8/h2-4,7H,1H3,(H2,6,8)/t2-,3+,4-/m1/s1
