15
gdb 6360	5.53254	1.11557	0.93517	1.8332	61.72	-0.2414	-0.015	0.2264	1169.1496	0.118996	-433.162232	-433.15373	-433.152786	-433.19572	30.485	
N	 0.4209629854	 0.2970210888	-0.9214569137	-0.552008
C	 0.0367002484	 0.1222134218	 0.3768281288	 0.430633
N	 0.725812409	 0.1667307793	 1.4516720572	-0.557169
N	-1.3292198672	-0.2079490504	 0.5529738437	-0.342049
C	-2.3442628281	-0.2130577503	-0.34963334	 0.416448
O	-2.231329526	 0.060680452	-1.5393565889	-0.399811
C	-3.7170501895	-0.6008990251	 0.2041631164	-0.143322
O	-4.6796063597	-0.5486006787	-0.8033375689	-0.41668
H	 1.3097025628	 0.7390601377	-1.0803936275	 0.255133
H	-0.3066569687	 0.4046968875	-1.616549971	 0.283596
H	 1.700175489	 0.3890924324	 1.2596059112	 0.211541
H	-1.5385213535	-0.4086827895	 1.5209380988	 0.273268
H	-3.6440627593	-1.6120679394	 0.6367895944	 0.121947
H	-3.9698184988	 0.0829560357	 1.0302738442	 0.120795
H	-4.1932906237	-0.2963818918	-1.6050747648	 0.297678
63.5305	95.3136	114.773	184.6533	341.2259	373.0447	379.8125	400.3569	442.0276	533.1019	558.558	578.1166	670.3381	727.1783	749.1465	796.9312	934.068	974.1226	1034.0848	1124.4904	1136.4795	1145.1231	1236.1843	1251.4435	1315.0514	1441.0634	1455.6838	1503.6483	1526.7028	1624.3124	1745.7597	1760.4437	2975.4236	2995.829	3513.4142	3531.8591	3612.2022	3682.1379	3705.6053
NC(=N)NC(=O)CO	NC(=N)NC(=O)CO	
InChI=1S/C3H7N3O2/c4-3(5)6-2(8)1-7/h7H,1H2,(H4,4,5,6,8)	InChI=1S/C3H7N3O2/c4-3(5)6-2(8)1-7/h7H,1H2,(H4,4,5,6,8)
