18
gdb 119136	2.26863	1.48728	1.02781	6.4793	68.29	-0.2407	0.014	0.2547	1173.9656	0.147622	-476.231674	-476.222849	-476.221905	-476.265725	32.625	
N	-0.1346054524	 1.6205075552	 0.6855335767	-0.512003
H	-0.160578312	 1.8652676872	-0.3001216608	 0.25084
H	 0.8383827146	 1.4660814082	 0.9272749038	 0.254183
H	-0.9727098661	 2.8513897299	 1.4909775548	 0.329814
C	-0.9482244303	 0.4171986383	 0.9465955106	-0.164277
C	-2.4346545821	 0.7703898594	 1.0959760285	-0.300486
C	-2.7809663418	 1.4650923151	 2.410151983	 0.24126
C	-3.7697716656	 0.8586576978	 3.3126632644	-0.201858
O	-2.3701807692	 0.7338875214	 3.5831677252	-0.275065
C	-2.5904241454	 2.982440821	 2.5727593942	 0.370669
O	-1.5680357933	 3.5316729006	 1.9265089277	-0.390093
O	-3.3345619296	 3.6328457203	 3.2633334947	-0.336906
H	-0.8287053187	-0.3389257154	 0.159789287	 0.103498
H	-0.606400677	-0.0275383563	 1.8851467632	 0.145596
H	-2.7656500785	 1.3866565155	 0.2505903864	 0.114261
H	-3.0044845652	-0.1624904615	 1.0441133477	 0.115624
H	-4.3157530135	 1.5074469526	 3.9905687896	 0.148022
H	-4.2663160338	-0.0610080793	 3.0062613733	 0.10692
48.342	88.2737	209.1294	238.5854	252.2238	291.7536	332.3433	352.6174	384.2321	465.7459	517.4655	615.3892	737.0348	763.7093	841.2335	866.3184	877.1559	931.1759	962.3659	974.6315	1023.1732	1055.5807	1079.2411	1123.6266	1145.966	1170.4164	1205.2972	1275.5542	1310.6077	1334.1803	1367.9132	1403.8405	1414.3471	1469.6043	1499.1247	1509.9257	1512.9198	1652.6642	1839.5416	3010.6329	3031.7162	3038.916	3083.8254	3094.4656	3103.1392	3206.2332	3502.8776	3583.5345
[NH3+]CCC1(CO1)C([O-])=O	NCC[C@]1(CO1)C(=O)O	
InChI=1S/C5H9NO3/c6-2-1-5(3-9-5)4(7)8/h1-3,6H2,(H,7,8)	InChI=1S/C5H9NO3/c6-2-1-5(3-9-5)4(7)8/h1-3,6H2,(H,7,8)/t5-/m0/s1
