23
gdb 92347	2.76423	1.46321	1.30351	1.465	83.89	-0.2377	0.078	0.3157	1119.1895	0.209594	-388.322638	-388.314835	-388.313891	-388.35443	32.365	
C	 0.0886080454	 1.6365990021	 0.0204313172	-0.408937
C	 0.0222103316	 0.1074121852	 0.0227113083	 0.05708
C	 0.6061352292	-0.4910179469	-1.2777784812	-0.211494
C	 0.7963420598	-2.0189917244	-1.1927253366	-0.038248
C	-0.4615305741	-2.7298799761	-0.665454531	-0.078541
O	-0.4035348065	-2.6250313798	 0.7643309745	-0.28025
C	 0.8482515575	-2.0210863273	 1.1329004012	 0.103523
C	 1.7722778781	-2.3389333371	-0.0469835777	-0.222077
C	 0.6826988836	-0.4996810638	 1.2790189965	-0.208759
H	 1.1273735526	 1.9866960453	-0.0143004953	 0.109654
H	-0.431524438	 2.056063011	-0.8478441512	 0.10832
H	-0.3729672978	 2.0561406186	 0.9207946213	 0.110512
H	-1.0357572298	-0.1803534241	 0.0641953994	 0.088357
H	-0.0509269762	-0.2345129684	-2.1182241884	 0.090619
H	 1.5790565271	-0.0288321629	-1.495070631	 0.088383
H	 1.1145129709	-2.4228665415	-2.1577938851	 0.064389
H	-1.3925454919	-2.2745912608	-1.0252147881	 0.095752
H	-0.4701401629	-3.7913377767	-0.9504210411	 0.090941
H	 1.1642156691	-2.4765832888	 2.076159478	 0.069019
H	 2.0581357043	-3.39558004	-0.0451760522	 0.095889
H	 2.679639619	-1.7297576372	-0.0647609528	 0.093779
H	 1.6708987697	-0.0516537406	 1.4533142878	 0.085548
H	 0.0712362092	-0.2695193457	 2.1587910674	 0.096543
136.9689	193.7379	248.7968	294.6786	340.3563	341.2892	400.3017	440.325	483.4224	549.4015	747.7839	751.8326	822.7327	825.2352	866.5648	887.6128	916.0412	918.4717	936.7187	971.0325	990.5716	1005.5423	1027.8501	1045.8189	1098.4334	1106.1822	1116.2629	1134.5547	1169.9529	1189.0463	1219.3848	1257.2665	1277.7122	1308.2123	1312.8517	1328.8058	1344.3137	1351.2799	1359.6281	1384.5334	1394.7486	1399.1776	1415.4202	1479.835	1484.0512	1496.1678	1500.7673	1502.1403	1529.2758	2998.8422	3008.5009	3012.8726	3020.5067	3025.2671	3041.8156	3047.4446	3051.4593	3062.9065	3067.5595	3074.1674	3088.6537	3094.0027	3104.1923
CC1CC2COC(C2)C1	C[C@H]1C[C@@H]2CO[C@@H](C2)C1	
InChI=1S/C8H14O/c1-6-2-7-4-8(3-6)9-5-7/h6-8H,2-5H2,1H3	InChI=1S/C8H14O/c1-6-2-7-4-8(3-6)9-5-7/h6-8H,2-5H2,1H3/t6-,7-,8+/m0/s1
