18
gdb 56544	2.89781	1.02575	0.98181	3.9186	74.31	-0.2533	0.0076	0.2609	1287.7365	0.144627	-439.086957	-439.076641	-439.075697	-439.122406	37.511	
C	 0.0179818365	 1.6035500812	 0.0839843473	-0.399424
C	 0.0047766521	 0.0633963184	 0.0738770666	-0.1811
C	 0.7629688592	-0.4862279671	 1.1946924008	 0.337133
C	 1.388111507	-0.9403300408	 2.1152547099	-0.460804
C	-1.454347673	-0.4979116773	 0.089506492	 0.037126
O	-2.1766531197	-0.0130583772	 1.1829024417	-0.427128
C	-2.2076839714	-0.1162758439	-1.19720353	 0.37164
N	-1.7706224578	-0.6780269687	-2.3513380376	-0.516269
O	-3.1379049254	 0.6718228957	-1.1468028936	-0.3744
H	 1.0448903873	 1.9754004788	 0.0892036451	 0.124413
H	-0.4928702528	 2.0016273997	-0.7977041283	 0.125605
H	-0.4916644246	 1.9706290192	 0.9766884909	 0.147011
H	 0.4776615307	-0.2849476918	-0.8552631368	 0.092925
H	 1.9365918517	-1.3383642139	 2.9325984196	 0.194827
H	-1.3899511817	-1.5947549731	 0.1475277249	 0.093137
H	-2.8683984904	 0.548653245	 0.7917182138	 0.295477
H	-1.0940164408	-1.4215561925	-2.3547053486	 0.269249
H	-2.2800976469	-0.4889252017	-3.1995612677	 0.270583
52.0464	72.7109	130.9754	174.9377	204.1483	245.8381	262.3212	278.4859	336.4929	396.4946	439.9447	506.5585	527.3702	551.6858	618.5407	636.7793	640.0844	666.7593	719.7521	833.3968	874.9576	935.4512	1006.6627	1092.613	1094.8768	1117.4084	1161.2278	1251.226	1292.5302	1329.9906	1357.8846	1365.5255	1404.7186	1467.4568	1488.5075	1502.8189	1621.2158	1784.1396	2236.8761	2993.9378	3006.644	3051.9307	3124.9555	3144.8721	3505.1485	3599.3342	3644.0195	3731.5972
CC(C#C)C(O)C(N)=O	C[C@@H](C#C)[C@@H](O)C(=O)N	
InChI=1S/C6H9NO2/c1-3-4(2)5(8)6(7)9/h1,4-5,8H,2H3,(H2,7,9)	InChI=1S/C6H9NO2/c1-3-4(2)5(8)6(7)9/h1,4-5,8H,2H3,(H2,7,9)/t4-,5+/m0/s1
