20
gdb 22780	2.10501	1.35756	0.91805	2.1423	78.96	-0.2477	-0.0037	0.2441	1309.823	0.169543	-440.233894	-440.224173	-440.223229	-440.268783	35.93	
C	 0.2862602448	 1.6345988769	-0.0745525805	-0.399822
C	 0.0598751871	 0.1295683292	 0.0333645848	-0.073709
C	 0.4771613491	-0.7757365542	-1.1776284164	-0.273498
C	 1.2663515793	-1.7195927663	-0.2128935596	-0.092756
C	 2.7405519133	-2.0089004939	-0.4946844287	-0.067808
O	 3.3634746533	-2.6349970369	 0.6071473631	-0.422663
C	 1.0169131587	-0.6972027572	 0.878699808	 0.410027
N	 1.5923198774	-0.6156687153	 2.0058186893	-0.257796
O	 1.1863931933	 0.5200285668	 2.7314879522	-0.39265
H	 1.3210196094	 1.8557832536	-0.3558260964	 0.11682
H	-0.3700820832	 2.0627388893	-0.8396699137	 0.115534
H	 0.0843170808	 2.1309843354	 0.8770305993	 0.140041
H	-0.9754706414	-0.0701076922	 0.3361685626	 0.100428
H	-0.3357967236	-1.233897448	-1.7424812201	 0.10728
H	 1.1366908185	-0.2482449978	-1.8732652525	 0.108588
H	 0.744888064	-2.6631554937	-0.0184081444	 0.100037
H	 2.8392403293	-2.6908659762	-1.3468096353	 0.105763
H	 3.2464509135	-1.066984491	-0.7671019095	 0.078289
H	 3.1943986082	-2.0728856518	 1.3762450372	 0.290412
H	 1.6925602881	 0.4355711533	 3.5466263406	 0.307483
42.9447	118.9204	166.4574	169.7949	210.8126	234.3722	290.6055	340.8397	370.9655	389.9826	428.1402	507.4715	579.5963	594.9604	674.2443	758.1231	846.9557	887.1756	936.837	957.2992	986.0614	1021.54	1074.4933	1082.3869	1101.4841	1143.9986	1162.9294	1175.1892	1202.5517	1248.8891	1256.6158	1275.7862	1323.6218	1342.2152	1388.4792	1404.328	1406.065	1448.164	1484.5894	1490.8437	1498.9428	1508.8411	1771.6399	2958.3618	3031.2824	3036.7096	3049.09	3061.9719	3064.8547	3101.2506	3125.0076	3130.549	3736.7891	3818.8108
CC1CC(CO)C1=NO	C[C@H]1C[C@@H](CO)C1=NO	
InChI=1S/C6H11NO2/c1-4-2-5(3-8)6(4)7-9/h4-5,8-9H,2-3H2,1H3	InChI=1S/C6H11NO2/c1-4-2-5(3-8)6(4)7-9/h4-5,8-9H,2-3H2,1H3/t4-,5-/m0/s1
