14
gdb 129694	3.39856	1.25353	0.91665	2.9151	70.83	-0.2082	-0.0543	0.154	1167.0367	0.101636	-470.033931	-470.02549	-470.024546	-470.066796	30.784	
N	 0.0301384722	 1.4917297122	-0.1162522673	-0.619204
C	-0.0136577462	 0.1055015369	-0.0550654212	 0.032013
C	-1.1053195712	-0.7674332305	-0.0137443632	 0.261592
N	-0.5801787428	-2.0329079174	-0.0353589819	-0.277592
N	 0.7573919939	-2.041129845	-0.0913165624	-0.303622
C	 1.1018661314	-0.7612047685	-0.1040667928	 0.398358
O	 2.3848132911	-0.3358983295	-0.1531003653	-0.441569
C	-2.5325674306	-0.5536449276	 0.0354860781	 0.075248
O	-3.348440942	-1.456587174	 0.0687696945	-0.309994
H	 0.9376598649	 1.865524082	 0.1255361086	 0.264626
H	-0.7050373124	 1.9692053839	 0.3850502118	 0.255651
H	-1.1089298011	-2.8875598072	-0.0089586184	 0.288324
H	 2.9521222153	-1.1163826262	-0.1624556659	 0.308945
H	-2.8499843424	 0.511082581	 0.0379930055	 0.067224
111.6803	161.1917	203.0821	237.4983	254.3539	297.8935	315.5805	367.4903	397.9202	460.473	555.4955	625.1216	661.9204	684.3369	741.4755	797.5331	819.7096	997.9998	1021.0421	1146.4123	1224.5861	1249.6016	1287.9872	1338.1552	1420.7698	1475.3472	1512.8342	1599.5012	1625.9224	1660.1326	1758.1494	2896.5263	3557.2297	3653.845	3688.0275	3806.1301
NC1=C(NN=C1O)C=O	Nc1c([nH]nc1O)C=O	
InChI=1S/C4H5N3O2/c5-3-2(1-8)6-7-4(3)9/h1H,5H2,(H2,6,7,9)	InChI=1S/C4H5N3O2/c5-3-2(1-8)6-7-4(3)9/h1H,5H2,(H2,6,7,9)
