14
gdb 29244	3.22663	1.42219	0.99313	2.8072	66.35	-0.2684	-0.0503	0.2181	1107.3251	0.101846	-473.922508	-473.914798	-473.913854	-473.955015	28.158	
C	-0.0285138059	 1.5398647109	-0.0034637427	-0.475123
C	-0.0070454287	 0.0411974254	-0.0137854735	 0.059844
C	-0.0414842463	-0.7007727766	-1.1280585178	 0.018102
O	-0.0232133986	-2.0607694365	-1.1684580549	-0.217385
C	 0.0346602811	-2.8068559041	-0.0135008149	 0.494575
O	 0.0501304259	-4.001365832	-0.0639238352	-0.354825
N	 0.0707075178	-2.0601531362	 1.1425269369	-0.439799
C	 0.0555300027	-0.6633037535	 1.2717963217	 0.405515
O	 0.092178344	-0.1393839421	 2.3632091462	-0.35079
H	 0.8646429251	 1.9352295181	 0.490303367	 0.151474
H	-0.0763087752	 1.9429486265	-1.0179380172	 0.124873
H	-0.889058893	 1.9095506287	 0.5627719234	 0.151494
H	-0.0882136522	-0.2920334383	-2.1304536916	 0.150524
H	 0.1134421732	-2.5906068503	 2.0028132926	 0.28152
103.6193	136.549	149.2356	266.6461	308.0914	392.3291	395.5392	448.8682	553.6568	614.9363	691.3788	729.2548	764.7723	786.6443	799.0884	898.7065	925.7653	1018.9715	1070.9494	1138.3523	1193.9143	1258.9523	1360.9456	1408.669	1417.1379	1420.7683	1469.2777	1489.2969	1705.4632	1805.3741	1887.2243	3043.9349	3103.0947	3127.0826	3213.0549	3607.5573
CC1=COC(=O)NC1=O	Cc1coc(=O)[nH]c1=O	
InChI=1S/C5H5NO3/c1-3-2-9-5(8)6-4(3)7/h2H,1H3,(H,6,7,8)	InChI=1S/C5H5NO3/c1-3-2-9-5(8)6-4(3)7/h2H,1H3,(H,6,7,8)
