21
gdb 6383	2.99264	1.22052	1.0815	0.7213	78.55	-0.2424	0.0349	0.2773	1245.2077	0.185607	-366.280378	-366.269933	-366.268989	-366.316617	36.361	
C	 0.0754692881	 1.3952122419	-0.0027618531	-0.22514
O	 0.0200131393	-0.0286620297	-0.0373734367	-0.243919
C	 0.5938696647	-0.6252941122	-1.1107337169	 0.402891
C	 0.4535471582	-2.1283129372	-1.0027473174	-0.489926
N	 1.1410852002	 0.0696860328	-2.015855404	-0.300697
C	 1.7623619899	-0.5519960192	-3.1757438315	 0.05459
C	 1.0471841413	-0.0604331109	-4.4413662073	-0.365801
C	 3.2503187058	-0.1772668564	-3.1987006617	-0.365804
H	 1.1114101493	 1.746472663	-0.0016406296	 0.129742
H	-0.4288644535	 1.8276143892	-0.8717875055	 0.12978
H	-0.4298321148	 1.6879832804	 0.9190900438	 0.120115
H	-0.0769536691	-2.3844473008	-0.0857852559	 0.140972
H	-0.1008135199	-2.5304883019	-1.8554532993	 0.144071
H	 1.4345520383	-2.6116631053	-0.9898715299	 0.144067
H	 1.6896900965	-1.6508185903	-3.1501901542	 0.058151
H	 1.0996576298	 1.0310375993	-4.5048272054	 0.120058
H	 1.5079703019	-0.4852101163	-5.3392749738	 0.1052
H	-0.0090991493	-0.3461466616	-4.4286969228	 0.108193
H	 3.7594787323	-0.5459296739	-2.3029524516	 0.108195
H	 3.7461515307	-0.6040054799	-4.0767898282	 0.105203
H	 3.36521203	 0.910888629	-3.2270848591	 0.120059
27.3063	69.4734	115.752	165.3117	167.8661	207.3723	221.0332	252.1474	267.5316	362.1888	428.1763	474.3873	506.8896	587.7153	604.4117	788.4805	874.0511	926.2461	951.5345	954.1021	1041.0374	1053.3077	1080.8759	1133.4842	1165.5637	1181.4962	1189.6578	1221.8128	1292.211	1355.4163	1380.4666	1390.9533	1401.3762	1411.3586	1468.0784	1473.8249	1480.5044	1485.9412	1486.0925	1488.5507	1493.4028	1500.3806	1510.0036	1746.5542	2971.7589	3030.7255	3035.3712	3041.05	3054.662	3102.9708	3107.2074	3108.0837	3110.2964	3113.2056	3115.0664	3142.8671	3154.5794
COC(C)=NC(C)C	COC(=NC(C)C)C	
InChI=1S/C6H13NO/c1-5(2)7-6(3)8-4/h5H,1-4H3	InChI=1S/C6H13NO/c1-5(2)7-6(3)8-4/h5H,1-4H3
