22
gdb 53696	6.32353	0.47556	0.45658	0.9671	93.06	-0.2314	0.064	0.2954	2429.9994	0.192251	-367.160259	-367.149422	-367.148478	-367.19897	37.314	
C	-0.0740717776	 1.4575382458	-0.2327331447	-0.496954
C	-0.0360104297	 0.0112576867	-0.0668065649	 0.110719
C	 0.0041794911	-1.1840855694	 0.0728481212	 0.023116
C	 0.0200017154	-2.6337293956	 0.2366123659	-0.355534
C	-1.3743921612	-3.2743170929	 0.091490701	-0.168606
C	-1.3329426816	-4.7927456037	 0.2591260912	-0.141246
N	-2.6710541172	-5.3638754564	 0.1597716739	-0.061828
C	-3.1170081668	-5.734559622	-1.1794228363	-0.219268
C	-2.7476877302	-6.7783336378	-0.183839688	-0.220943
H	 0.525044748	 1.7777140737	-1.0926215673	 0.144386
H	-1.0978302244	 1.8135939834	-0.393863747	 0.145549
H	 0.3177920098	 1.971922088	 0.6519607787	 0.145013
H	 0.7039300957	-3.0791215271	-0.4991703696	 0.121812
H	 0.4351531694	-2.8881119447	 1.2216439307	 0.123675
H	-2.0557218673	-2.8485525355	 0.8347196575	 0.11885
H	-1.7863020412	-3.0230588451	-0.8924393715	 0.107838
H	-0.6413164989	-5.2325205675	-0.4856340931	 0.074356
H	-0.9346736714	-5.0476344587	 1.2497591067	 0.101695
H	-4.1588851285	-5.5298345779	-1.4082091219	 0.116765
H	-2.4285609957	-5.5763153842	-2.0089240438	 0.107386
H	-1.8146342378	-7.3147285268	-0.3519616422	 0.107071
H	-3.5146309298	-7.3503958922	 0.3306110635	 0.116148
16.0839	44.103	66.4135	87.3827	130.2198	172.3471	218.6913	277.6236	311.9924	385.2199	388.0581	421.1878	534.3505	747.1555	751.1873	788.2343	836.6996	869.7493	901.993	1015.1933	1019.4666	1045.1506	1052.7795	1054.3772	1074.9329	1109.4805	1115.8435	1118.4743	1165.1269	1169.4851	1177.5457	1233.4716	1271.7735	1305.626	1316.6068	1326.2166	1367.7189	1406.8218	1415.6858	1476.0011	1479.6298	1479.8178	1485.7158	1493.307	1506.1403	1523.3561	2374.3248	2912.4658	3004.4083	3024.0023	3030.1742	3033.9023	3048.1521	3083.2311	3083.5589	3089.1931	3094.1797	3094.8327	3173.6801	3187.9429
CC#CCCCN1CC1	CC#CCCCN1CC1	
InChI=1S/C8H13N/c1-2-3-4-5-6-9-7-8-9/h4-8H2,1H3	InChI=1S/C8H13N/c1-2-3-4-5-6-9-7-8-9/h4-8H2,1H3
