21
gdb 95926	1.88513	1.62225	1.46746	3.4022	82.21	-0.2301	0.0386	0.2687	1102.0471	0.182978	-383.29413	-383.284573	-383.283629	-383.328647	35.291	
C	 0.0282274816	 1.4121288131	-0.1838236961	-0.342067
N	-0.0280490882	-0.0191375654	 0.0570188692	-0.060391
C	-1.3891677479	-0.5617333355	 0.1153763019	-0.157674
C	-1.2364233214	-1.9598362525	 0.7592427104	-0.233865
C	 0.2339663571	-2.0147233015	 1.2301851764	-0.228693
C	 0.701460268	-0.5402655034	 1.2147878219	 0.125114
C	 2.2209937164	-0.3956375089	 1.066416443	-0.440549
C	 0.2659270244	 0.1308260128	 2.4754400805	 0.258361
N	-0.1129359444	 0.6888645854	 3.4154136085	-0.355011
H	 1.0643864181	 1.7408617404	-0.2995120556	 0.123417
H	-0.4955413067	 1.6337339771	-1.1185875706	 0.124995
H	-0.4393582424	 2.0058393448	 0.6207240909	 0.12065
H	-2.052502218	 0.0732186121	 0.7272900746	 0.100506
H	-1.8117784016	-0.5944128992	-0.8941844694	 0.105766
H	-1.9258902986	-2.0723057713	 1.5986253043	 0.120469
H	-1.4532803994	-2.7624406971	 0.051381912	 0.11135
H	 0.3595630907	-2.4760503936	 2.2116482718	 0.117518
H	 0.8537239076	-2.5623232478	 0.515223622	 0.111777
H	 2.5221101705	-0.8185538503	 0.1045885857	 0.130183
H	 2.5365808654	 0.6496427317	 1.1073709255	 0.134511
H	 2.7329801386	-0.9298636609	 1.8712504731	 0.133635
45.0249	112.94	135.4456	194.3128	226.38	240.2077	286.9929	302.1957	366.5319	425.0495	484.283	602.2006	616.9833	633.7258	699.954	776.8403	822.9658	914.8263	921.4525	935.9597	1023.6189	1035.7552	1063.6132	1123.5242	1138.6927	1162.619	1175.921	1218.9222	1242.2077	1250.5517	1267.2884	1273.7694	1324.2115	1338.7549	1387.4979	1405.2596	1457.5145	1481.8073	1485.2664	1492.7462	1501.0104	1504.0924	1506.9085	1529.1919	2332.3082	2954.14	2962.629	3049.584	3058.053	3065.7891	3074.1032	3076.7293	3109.7036	3113.4439	3126.4436	3126.5501	3133.4665
CN1CCCC1(C)C#N	CN1CCC[C@]1(C)C#N	
InChI=1S/C7H12N2/c1-7(6-8)4-3-5-9(7)2/h3-5H2,1-2H3	InChI=1S/C7H12N2/c1-7(6-8)4-3-5-9(7)2/h3-5H2,1-2H3/t7-/m1/s1
