17
gdb 66865	3.71425	1.78813	1.59084	3.9437	76.26	-0.2093	-0.0446	0.1647	881.3656	0.136758	-380.741629	-380.735049	-380.734105	-380.772079	27.695	
C	 0.0825525028	 1.5519302094	 0.0089069257	-0.520272
C	-0.0362241447	 0.0580676598	-0.0030609068	 0.330458
C	 0.999987376	-0.920556425	-0.5479915063	-0.065285
N	 0.491837256	-2.05461353	-1.2446121304	-0.139946
C	-0.7571366788	-2.0661532446	-0.9351095197	 0.073442
N	-1.1007015825	-3.0477560343	 0.1114982241	-0.340164
C	-0.876977798	-1.7437593495	 0.9581553121	-0.00325
C	 0.5134926462	-1.0191862551	 0.9375711367	-0.153918
C	-1.2826516115	-0.7961098576	-0.1841959743	-0.173104
H	 1.112587445	 1.8644862344	 0.2074634762	 0.126236
H	-0.2127500753	 1.976121873	-0.9575845212	 0.12993
H	-0.554746277	 1.9996813196	 0.7795756352	 0.123686
H	 2.0201159334	-0.5973480688	-0.7231880617	 0.101362
H	-2.1167202103	-3.1735663887	 0.1711729693	 0.222362
H	-1.39476372	-1.7600396266	 1.9173770136	 0.104709
H	 1.2122600166	-0.9404409693	 1.7590120179	 0.100024
H	-2.2958335577	-0.4351151666	-0.3388549006	 0.083731
193.3658	217.4179	253.9187	399.4933	519.967	550.2777	563.4095	659.8611	679.945	700.3173	717.6872	747.0041	825.1776	854.6686	864.1539	875.8288	917.0828	955.1187	969.7734	999.1673	1037.6905	1038.8897	1063.3454	1097.9812	1118.3615	1159.4993	1178.6321	1191.8447	1212.7105	1246.0167	1266.4531	1319.7627	1410.9161	1431.6152	1487.6011	1495.4187	1546.1616	3025.7495	3086.4544	3099.3717	3118.6749	3153.3651	3183.0061	3212.9378	3383.6356
CC12C3N=C4NC(C13)C24	C[C@@]12[C@@H]3[N][C]4N[C@@H]([C@H]13)[C@@H]24	
InChI=1S/C7H8N2/c1-7-2-4-3(7)6(8-4)9-5(2)7/h2-5H,1H3,(H,8,9)	InChI=1S/C7H8N2/c1-7-2-4-3(7)6(8-4)9-5(2)7/h2-5H,1H3,(H,8,9)/t2-,3+,4-,5+,7+/m0/s1
