19
gdb 99950	2.33838	1.21429	1.04867	2.6141	78.6	-0.2534	-0.0651	0.1882	1258.7231	0.154229	-423.009438	-422.998652	-422.997708	-423.045507	38.798	
C	 0.3637482108	 1.3381365892	 0.3141983307	-0.39604
C	 0.2492255041	-0.1347835744	-0.0881000013	-0.20157
C	 0.5784832233	-0.408367914	-1.5796766216	 0.236469
C	-0.3985767489	 0.2624759808	-2.5427515762	-0.41022
O	 1.8752246513	 0.0697285722	-1.9157859229	-0.46265
C	 0.5061518582	-1.9396501333	-1.7639463218	 0.216775
O	-0.5147978093	-2.5312050093	-2.0304143071	-0.298201
C	 1.758837712	-2.6555747964	-1.540073416	 0.245116
C	 2.7836534543	-3.2531454051	-1.3298443938	-0.400541
H	 1.3384007439	 1.7411747543	 0.0271827232	 0.130081
H	-0.4076153392	 1.9504638698	-0.1613342402	 0.12376
H	 0.2505704513	 1.4462044575	 1.3968725665	 0.114633
H	 0.9395731487	-0.7315205307	 0.5244510233	 0.095767
H	-0.7558515012	-0.5184687481	 0.1207101952	 0.116438
H	-0.3961610777	 1.3436264706	-2.3923209556	 0.12446
H	-0.0986123398	 0.0609286154	-3.5740728298	 0.129398
H	-1.40657446	-0.1265097532	-2.3914548163	 0.13742
H	 2.5243818078	-0.4121570517	-1.3888723102	 0.279684
H	 3.6784456603	-3.8008922235	-1.1558389261	 0.219222
30.6921	96.7397	144.5031	155.7633	190.6866	232.1611	250.0188	278.2531	300.177	322.0266	354.2614	387.0356	434.1853	504.1154	637.0667	657.3838	693.1047	707.3596	745.7846	791.6575	838.5073	939.2746	1001.3429	1010.4401	1066.7675	1087.6635	1141.6035	1191.0207	1212.1434	1297.2011	1361.3662	1385.4934	1404.8835	1417.0587	1477.7868	1484.9407	1493.6756	1504.2457	1510.7641	1771.2783	2201.0704	3012.531	3046.6071	3062.2291	3067.5379	3112.7918	3125.7385	3135.0863	3153.3592	3489.6915	3781.8122
CCC(C)(O)C(=O)C#C	CC[C@@](C)(O)C(=O)C#C	
InChI=1S/C7H10O2/c1-4-6(8)7(3,9)5-2/h1,9H,5H2,2-3H3	InChI=1S/C7H10O2/c1-4-6(8)7(3,9)5-2/h1,9H,5H2,2-3H3/t7-/m1/s1
