15
gdb 45648	3.10597	1.68044	1.26913	3.304	71.08	-0.2416	-0.0221	0.2196	960.8038	0.112464	-420.574777	-420.567981	-420.567037	-420.606156	26.637	
O	-0.1192968354	-0.018234207	 0.1886051646	-0.289041
C	-0.039070518	 1.171957532	 0.0889813033	 0.372689
C	-1.2338520513	 2.1832784761	 0.1319694972	-0.357777
C	-0.5905321034	 3.4669336245	 0.6307824345	-0.197885
C	 0.7295239872	 3.3773852225	 0.4829315544	 0.24268
C	 2.065416624	 3.6000730431	 1.1669874122	-0.088638
O	 2.1235847014	 2.5172370227	 2.1232810104	-0.226095
C	 2.4870781259	 2.2311535905	 0.7765308388	 0.006071
C	 1.2017221468	 2.0630482797	-0.0891750534	-0.198364
H	-1.6687534387	 2.2557906906	-0.8751783312	 0.135649
H	-2.0279510706	 1.8142974329	 0.7896094432	 0.139032
H	-1.1438498351	 4.2390927138	 1.1522295969	 0.11241
H	 2.6376325864	 4.4920098624	 1.3859366561	 0.119215
H	 3.4727612598	 1.8203821974	 0.5961203964	 0.114878
H	 1.4622661611	 2.1138378988	-1.1549876737	 0.115176
95.0514	158.382	279.2525	342.5802	421.5644	514.5256	575.985	621.0138	676.8898	732.9279	778.1735	808.8198	843.5632	849.0655	906.0929	932.3106	948.1107	980.3248	1000.1841	1034.6339	1067.2464	1108.1501	1142.5061	1155.6826	1214.2404	1240.3578	1260.446	1267.3637	1298.4137	1350.7608	1447.9602	1717.622	1868.3573	3013.9031	3025.5167	3080.5683	3195.8102	3199.3606	3212.4254
O=C1CC=C2C3OC3C12	O=C1C[CH][C]2[C@H]3O[C@H]3[C@@H]12	
InChI=1S/C7H6O2/c8-4-2-1-3-5(4)7-6(3)9-7/h1,5-7H,2H2	InChI=1S/C7H6O2/c8-4-2-1-3-5(4)7-6(3)9-7/h1,5-7H,2H2/t5-,6-,7+/m1/s1
