18
gdb 96982	2.7108	1.51472	1.10967	1.9734	74.08	-0.2512	0.0143	0.2655	1121.1738	0.147736	-439.079079	-439.070642	-439.069698	-439.112493	31.498	
C	 0.1219805372	 1.3964576233	-0.1569309471	-0.334018
N	 0.2727154219	-0.0481885454	-0.0958306116	-0.337365
C	 0.5825622836	-0.6099434403	 0.9862231565	 0.388266
O	 0.8252357398	 0.0011366062	 2.1826987558	-0.241339
C	 0.7882021459	-0.9786027147	 3.2133426362	 0.080378
C	-0.5032685105	-1.7205919595	 3.378208264	-0.312875
C	 0.6454093367	-2.3499532456	 2.6141702953	-0.077997
C	 0.6653367876	-2.1321111897	 1.116652037	 0.025484
O	-0.3878184016	-2.7508811203	 0.4164355679	-0.434142
H	 0.9937457759	 1.8350375388	-0.65696183	 0.130916
H	-0.7527724194	 1.6376987037	-0.7687771482	 0.125709
H	 0.0156907517	 1.8678504583	 0.8266963459	 0.126482
H	 1.436948565	-0.7230677829	 4.0404371185	 0.114007
H	-0.7284576059	-2.1270496497	 4.3576297661	 0.123852
H	-1.3646796232	-1.380322884	 2.8133119319	 0.13781
H	 1.1606000613	-3.2060114885	 3.0296754951	 0.102637
H	 1.6396125191	-2.4647955775	 0.7219133507	 0.091725
H	-0.5639620353	-2.168303852	-0.3373709438	 0.290468
77.4735	87.932	171.9875	192.6131	236.4074	317.8893	416.5201	434.0028	516.8531	551.0152	601.8753	684.1638	729.7044	801.4256	819.3888	854.8601	939.9064	985.2658	1026.5926	1047.8373	1060.1252	1070.139	1094.5144	1126.4388	1133.0119	1142.5602	1164.4861	1201.0886	1211.2219	1255.0535	1341.2497	1365.8444	1385.4824	1428.7415	1444.9329	1480.122	1491.8192	1497.4557	1805.3623	2965.1452	3019.0262	3079.8775	3096.72	3138.1121	3196.0439	3207.5039	3229.7647	3723.197
CN=C1OC2CC2C1O	CN=C1O[C@H]2C[C@H]2[C@H]1O	
InChI=1S/C6H9NO2/c1-7-6-5(8)3-2-4(3)9-6/h3-5,8H,2H2,1H3	InChI=1S/C6H9NO2/c1-7-6-5(8)3-2-4(3)9-6/h3-5,8H,2H2,1H3/t3-,4+,5-/m1/s1
