20
gdb 78710	3.12905	1.60669	1.24737	1.6074	83.08	-0.2088	0.0064	0.2152	1071.9434	0.171706	-365.982073	-365.974228	-365.973284	-366.013772	31.829	
C	-0.0996790195	 1.4590593305	 0.0177946967	-0.408581
C	 0.0145951918	-0.0622391459	-0.009434684	-0.000847
C	 0.858192012	-0.5665759067	-1.1732537064	-0.079554
N	 2.0974283371	-0.6797365854	-0.3170921592	-0.170304
C	 1.1657718486	-0.6209906643	 0.9014194357	-0.073676
C	 0.8578009207	-2.0552936198	 1.2451307049	-0.091563
C	 0.9998351942	-2.7779521935	 0.1342385122	-0.147546
C	 1.5346655016	-1.8988121226	-0.9506312432	 0.301747
C	 2.3325317458	-2.4927739566	-2.0844260208	-0.491965
H	 0.8783914892	 1.9288150218	-0.1269875769	 0.131177
H	-0.7680248001	 1.8199171065	-0.7716770547	 0.114283
H	-0.503097543	 1.7994856175	 0.9776662959	 0.113399
H	-0.9691389547	-0.5237355382	 0.1337571513	 0.068885
H	 0.8854752698	-0.0983753309	-2.1551523995	 0.08319
H	 1.5203916221	 0.025623161	 1.7047731019	 0.074211
H	 0.4427909718	-2.3782191702	 2.1916179936	 0.103389
H	 0.7676866715	-3.8257634296	-0.0081575002	 0.102478
H	 1.7041056243	-3.1365345792	-2.7095864057	 0.116704
H	 2.7522594338	-1.7056271842	-2.7164160408	 0.128185
H	 3.1619847731	-3.0940496001	-1.6980899709	 0.126388
172.0456	188.5859	228.5105	250.0488	286.0103	332.8035	400.186	411.4423	583.21	600.6012	723.5031	736.2765	759.542	783.0112	815.3975	871.1887	885.653	928.6863	945.0982	964.1813	984.5925	1015.672	1024.3836	1066.9827	1081.8224	1092.6987	1116.4054	1136.4255	1196.532	1239.2275	1242.6059	1271.9271	1306.6121	1342.3135	1365.6646	1386.6526	1409.0218	1415.9602	1485.7138	1494.9616	1495.3069	1500.5135	1659.8861	3027.753	3033.1179	3034.4311	3092.6523	3098.6218	3102.7378	3107.289	3117.4607	3129.2439	3201.91	3226.9452
CC1C2N3C1C=CC23C	C[C@H]1[C@H]2N3[C@@H]1C=C[C@@]23C	
InChI=1S/C8H11N/c1-5-6-3-4-8(2)7(5)9(6)8/h3-7H,1-2H3	InChI=1S/C8H11N/c1-5-6-3-4-8(2)7(5)9(6)8/h3-7H,1-2H3/t5-,6-,7-,8+,9?/m1/s1
