18
gdb 120594	4.21046	0.76732	0.73273	3.8405	75.11	-0.2626	0.013	0.2755	1575.2371	0.145217	-439.063092	-439.053228	-439.052284	-439.09851	34.785	
C	-0.0840916033	 1.3300716436	 0.1677234433	-0.227099
O	-0.1196314448	-0.0745257126	 0.2653887202	-0.234048
C	-1.312107824	-0.6241379885	-0.2539951016	-0.079047
C	-1.2071314532	-2.1249069573	-0.147785282	-0.063769
C	-1.505390092	-2.8226544219	 1.1523381931	-0.326504
C	-2.4660292801	-2.9558623825	-0.0181070045	 0.223669
O	-3.6750514094	-2.2563088703	 0.008063074	-0.442817
C	-2.5238992307	-4.2239558004	-0.7169498111	 0.249866
N	-2.5914554755	-5.2433233573	-1.2593969248	-0.341342
H	 0.8673324523	 1.6620399261	 0.5896532739	 0.13017
H	-0.1477016653	 1.6694632285	-0.8782872294	 0.107067
H	-0.9066179007	 1.800332962	 0.7298561158	 0.104974
H	-2.1900052376	-0.2601206304	 0.2990556042	 0.104379
H	-1.4461204575	-0.3289408817	-1.3080815905	 0.098696
H	-0.4236248276	-2.5625275619	-0.7576061493	 0.123663
H	-0.9128359886	-3.6832531077	 1.4386685756	 0.139495
H	-1.8671326581	-2.209649512	 1.9707316577	 0.133377
H	-4.287229324	-2.7312519156	 0.5820960655	 0.299269
53.9809	92.0185	106.9408	143.9087	198.4105	232.2695	269.822	317.5349	321.6879	393.9787	426.9601	499.9442	579.9317	616.8955	701.6059	863.5399	894.3637	915.2157	944.0434	985.9895	1058.0947	1081.967	1086.4651	1151.6345	1174.4676	1193.5156	1223.2027	1245.4036	1251.3294	1278.9857	1342.6619	1393.7413	1438.6851	1478.1212	1482.9906	1485.6664	1505.5624	1529.1158	2348.4863	2964.2985	2974.4345	3014.069	3019.742	3117.5974	3141.4057	3170.214	3237.2376	3794.7761
COCC1CC1(O)C#N	COC[C@H]1C[C@]1(O)C#N	
InChI=1S/C6H9NO2/c1-9-3-5-2-6(5,8)4-7/h5,8H,2-3H2,1H3	InChI=1S/C6H9NO2/c1-9-3-5-2-6(5,8)4-7/h5,8H,2-3H2,1H3/t5-,6+/m1/s1
