19
gdb 6095	4.47368	1.00338	0.86214	3.7105	69.11	-0.2404	0.0387	0.2791	1344.8606	0.162925	-402.236212	-402.226281	-402.225337	-402.272002	34.813	
C	 0.4707044709	 1.3416329039	-0.2443105474	-0.39434
C	-0.115196358	-0.0285398156	 0.1033807298	 0.158419
C	 0.084844587	-1.043510118	-1.015627798	-0.393185
O	 0.4973867828	-0.5870897347	 1.2667552497	-0.269465
C	 0.1545393158	 0.0207500134	 2.4924291278	-0.160742
C	 0.5728313233	-0.8511528738	 3.6791089584	 0.358411
N	 1.0484434627	-2.0735032765	 3.3380471241	-0.506404
O	 0.4534024488	-0.4446896678	 4.8183937492	-0.367287
H	 1.5472977613	 1.259296475	-0.4251843126	 0.124546
H	-0.0028153703	 1.7376260833	-1.1480500093	 0.118817
H	 0.3106859095	 2.0672676931	 0.5579388035	 0.122805
H	-1.1943929658	 0.08366895	 0.3017596202	 0.071556
H	 1.1520910057	-1.1837776112	-1.2152049827	 0.123926
H	-0.3441387921	-2.0101683831	-0.7382324685	 0.119861
H	-0.395578908	-0.7014473389	-1.9367138035	 0.118653
H	 0.6357145685	 0.9987455151	 2.626270343	 0.12575
H	-0.9327190252	 0.1786364071	 2.568567716	 0.119122
H	 1.1555086832	-2.3114588354	 2.3668820839	 0.269928
H	 1.37267177	-2.691044946	 4.0625885265	 0.259629
29.5593	63.1027	104.1197	157.7197	208.1416	250.1152	271.6698	281.7668	334.8805	427.4388	452.2215	529.228	544.3823	553.5788	686.041	829.5153	887.1895	927.1783	938.541	951.865	1033.6022	1095.1746	1118.3889	1156.0424	1168.589	1200.4184	1246.4272	1349.5852	1364.7248	1373.8425	1396.6219	1408.9936	1417.1684	1481.459	1483.9364	1492.7058	1496.5643	1511.8929	1592.8712	1809.5544	2962.9718	2990.3855	3035.3179	3040.1571	3043.7668	3110.3879	3115.6657	3117.8158	3122.3684	3603.8641	3746.1694
CC(C)OCC(N)=O	CC(C)OCC(=O)N	
InChI=1S/C5H11NO2/c1-4(2)8-3-5(6)7/h4H,3H2,1-2H3,(H2,6,7)	InChI=1S/C5H11NO2/c1-4(2)8-3-5(6)7/h4H,3H2,1-2H3,(H2,6,7)
