17
gdb 14852	2.93809	1.61627	1.15435	2.8852	68.46	-0.2758	0.0267	0.3024	1027.5032	0.142546	-363.861776	-363.853547	-363.852603	-363.894772	29.595	
O	-0.026632787	 1.3485732083	-0.3764255378	-0.423369
C	 0.0307392703	-0.0659958423	-0.2840243311	-0.094001
C	-1.3529106566	-0.5375365101	 0.133977251	 0.006238
C	-2.4357245141	-0.3658944899	-0.9679968799	-0.221429
C	-2.3006864169	-1.8704443536	-1.3234721922	-0.228985
C	-1.5669535462	-2.0899761348	 0.0390935298	-0.157393
C	-0.4050820953	-2.9634666086	 0.0659916881	 0.274257
N	 0.5291253685	-3.6458124169	 0.0704313191	-0.338981
H	 0.8408764658	 1.6686138372	-0.6402843293	 0.291174
H	 0.312066997	-0.5189078367	-1.2485791633	 0.095113
H	 0.7741927472	-0.3960303483	 0.4571947705	 0.106907
H	-1.5915556302	-0.1056773289	 1.108537677	 0.091155
H	-3.4163652733	-0.1233205516	-0.5518553455	 0.108721
H	-2.2006720584	 0.3568682624	-1.7503512425	 0.12185
H	-3.2153135935	-2.4467742787	-1.4709348232	 0.115908
H	-1.6353232905	-2.0476081385	-2.1704930116	 0.126473
H	-2.2695079668	-2.4213229888	 0.8085126309	 0.126362
90.7041	115.7702	121.6616	208.1574	248.2472	270.6492	355.5974	435.9656	534.3336	571.4412	675.3166	762.7554	831.8017	886.6875	926.5962	949.7823	963.6618	1042.0582	1063.5495	1089.745	1098.157	1149.0312	1196.1797	1225.9795	1236.5077	1260.6067	1263.3747	1286.6785	1291.8288	1340.9386	1363.7608	1465.6481	1485.8958	1500.3899	1521.2841	2347.6646	2970.8683	3006.7492	3071.9537	3073.7961	3080.2129	3088.4262	3125.9313	3140.8961	3833.3297
OCC1CCC1C#N	OC[C@H]1CC[C@H]1C#N	
InChI=1S/C6H9NO/c7-3-5-1-2-6(5)4-8/h5-6,8H,1-2,4H2	InChI=1S/C6H9NO/c7-3-5-1-2-6(5)4-8/h5-6,8H,1-2,4H2/t5-,6+/m0/s1
