17
gdb 7790	3.33255	1.91967	1.28201	4.7766	66.86	-0.2415	0.0473	0.2888	948.7163	0.143081	-401.022798	-401.015173	-401.014228	-401.055115	28.223	
C	-0.0085966644	 1.5046851377	 0.0882034917	-0.402334
C	-0.0062599754	-0.002691296	-0.0997659655	 0.144803
C	 0.8577616145	-0.493771838	-1.2509434251	-0.229707
C	 0.8643956075	-2.0107368288	-1.2064760822	-0.082466
O	 1.2562768835	-2.4913212192	 0.0841252022	-0.267679
C	 0.8773248122	-1.8451512771	 1.2225326487	 0.463791
N	 0.9689723154	-2.3756556734	 2.3645599572	-0.543687
O	 0.4714589039	-0.5611321304	 1.1372082613	-0.253148
H	 1.0105840587	 1.8738239812	 0.2358884553	 0.131285
H	-0.4362733256	 1.9944222296	-0.7917218692	 0.118539
H	-0.6031354585	 1.7763105303	 0.9637752299	 0.139464
H	-1.0382825707	-0.3552104626	-0.2510898216	 0.087813
H	 0.4559096647	-0.1462611451	-2.2079828552	 0.113239
H	 1.8757400122	-0.1028950917	-1.1432904815	 0.1207
H	-0.1330392334	-2.4062007626	-1.445453755	 0.11207
H	 1.5787706701	-2.446586728	-1.9087817457	 0.123838
H	 1.3352247353	-3.3204666857	 2.2673532847	 0.22348
77.952	90.2056	230.5237	242.7332	282.0556	435.9017	444.7852	481.1609	543.4122	665.3774	710.0982	785.9137	826.3462	863.3033	906.4053	955.8603	979.8753	1008.2355	1063.348	1114.4917	1150.8677	1164.0727	1190.6202	1241.9869	1273.244	1297.7387	1346.0403	1382.1861	1407.3613	1415.2951	1436.2252	1471.0386	1484.5197	1499.6056	1516.8898	1757.1337	2985.1104	3008.6423	3044.5537	3048.4881	3096.7346	3102.588	3121.4393	3130.4942	3524.515
CC1CCOC(=N)O1	C[C@H]1CCO[C]([NH])O1	
InChI=1S/C5H9NO2/c1-4-2-3-7-5(6)8-4/h4,6H,2-3H2,1H3	InChI=1S/C5H9NO2/c1-4-2-3-7-5(6)8-4/h4,6H,2-3H2,1H3/t4-/m0/s1
