17
gdb 46485	4.15833	1.21943	1.04433	3.7116	79.59	-0.2481	-0.0369	0.2111	1140.7752	0.138166	-417.997197	-417.989724	-417.98878	-418.029236	29.201	
N	-0.0324799993	 1.2495171888	 0.34496841	-0.518897
C	 0.0006439973	 0.0302392671	-0.0122730036	 0.366886
O	 1.1872325723	-0.6241688376	-0.2161280251	-0.259964
C	 1.1480774775	-1.8058563751	-1.0218520882	-0.168302
C	 0.0636824229	-2.7692789487	-0.5957332819	 0.264406
C	 0.1282867026	-4.1589073229	-1.1233185923	-0.283914
N	 0.3545918092	-3.9138772128	 0.3043470011	-0.343884
C	-1.2193085511	-2.073460284	-0.350672487	-0.105455
C	-1.2336956139	-0.7553380394	-0.1303934053	-0.119854
H	 0.9181181995	 1.6214112179	 0.3990234809	 0.22082
H	 0.9876938845	-1.5161800389	-2.0700283787	 0.118472
H	 2.1419038583	-2.2555922477	-0.9394946957	 0.111361
H	-0.7908440852	-4.6881952866	-1.3606763704	 0.126423
H	 0.973304884	-4.4179894037	-1.7581771407	 0.116489
H	 1.3497353588	-3.9393747497	 0.5169071306	 0.236829
H	-2.1316816917	-2.6613404195	-0.3391509928	 0.113144
H	-2.1469455557	-0.2007029973	 0.0455632089	 0.125439
75.5347	186.5465	234.4479	285.341	366.2129	401.8196	427.7984	467.5573	581.3985	684.5904	693.8801	783.9427	806.7151	832.9263	905.9113	909.2854	922.1269	939.8877	977.7372	1005.8955	1033.0803	1047.231	1082.9166	1123.4442	1142.704	1177.3716	1253.6645	1270.5241	1308.8161	1337.919	1369.7855	1430.7911	1433.4039	1495.5732	1510.7181	1680.3385	1729.2079	3005.7848	3085.6654	3098.6015	3180.415	3184.3122	3219.3741	3467.1956	3489.6778
N=C1OCC2(CN2)C=C1	[NH]C1=C[CH][C@]2(CO1)CN2	
InChI=1S/C6H8N2O/c7-5-1-2-6(3-8-6)4-9-5/h1-2,7-8H,3-4H2	InChI=1S/C6H8N2O/c7-5-1-2-6(3-8-6)4-9-5/h1-2,7-8H,3-4H2/t6-/m1/s1
