21
gdb 120894	5.77837	0.70934	0.6908	2.4052	80.73	-0.2508	0.0709	0.3218	1702.8848	0.180551	-424.188956	-424.179552	-424.178608	-424.223938	34.672	
C	 0.4779017831	 1.2884518724	-0.1988857548	-0.385113
C	 0.0322017971	-0.1018043396	 0.2208198624	-0.041369
O	-1.2492588466	-0.3480386879	-0.3306492198	-0.250818
C	-1.7596285569	-1.6143703081	-0.0254042927	 0.157035
C	-2.324874969	-1.858826842	 1.4143677732	-0.351004
C	-3.5520550359	-2.4745510509	 0.7394281596	 0.459973
C	-4.2089432913	-3.751607212	 1.0195982493	-0.266561
O	-4.8561933822	-2.4969665188	 1.2834676593	-0.268047
C	-3.1698215518	-1.866577161	-0.6110848033	-0.351563
H	 1.4687935204	 1.5106889682	 0.2081778876	 0.114704
H	 0.5241695244	 1.3634272511	-1.2890009684	 0.127276
H	-0.2249938872	 2.042585556	 0.1661779124	 0.127733
H	 0.7470614942	-0.8631701097	-0.1346670575	 0.085976
H	-0.0027031669	-0.1807148344	 1.3194393195	 0.091342
H	-1.0441752938	-2.4003353915	-0.3107791247	 0.066468
H	-1.7519904063	-2.4787731045	 2.1073104311	 0.102704
H	-2.5752666256	-0.9057368599	 1.8906431403	 0.120059
H	-4.6365253791	-4.3335074892	 0.2035323628	 0.114417
H	-3.9279994633	-4.3254205944	 1.9023629136	 0.113747
H	-3.6792565706	-0.9123248765	-0.7738056955	 0.126745
H	-3.2545916726	-2.4849176475	-1.5068014744	 0.106295
50.7065	83.8251	90.8437	168.5702	244.8749	296.68	317.3913	327.0401	377.8784	447.2473	478.1905	563.5431	739.4945	814.5127	821.5294	847.2196	875.3022	890.899	908.8277	977.6993	995.9813	1041.9866	1056.6741	1098.6805	1126.5188	1149.4473	1153.1703	1184.2609	1188.0835	1190.3583	1205.9099	1223.6467	1254.6393	1289.4111	1296.5521	1370.776	1403.6159	1433.9186	1442.5034	1458.0608	1483.3302	1488.5206	1500.0635	1528.2792	1539.2621	2958.7799	2985.8531	2989.3571	3045.3757	3056.9869	3066.1703	3075.9461	3118.5894	3120.0285	3122.1501	3125.0527	3162.308
CCOC1CC2(CO2)C1	CCO[C@H]1C[C@]2(CO2)C1	
InChI=1S/C7H12O2/c1-2-8-6-3-7(4-6)5-9-7/h6H,2-5H2,1H3	InChI=1S/C7H12O2/c1-2-8-6-3-7(4-6)5-9-7/h6H,2-5H2,1H3/t6-,7+
