17
gdb 81398	2.84536	1.52392	1.28426	2.0313	73.32	-0.2434	0.0549	0.2984	1017.5229	0.135816	-421.76305	-421.755165	-421.75422	-421.795197	30.927	
O	 0.2608705443	 1.4175373478	-0.0953524295	-0.416885
C	 0.116762575	 0.0329507158	 0.0075110571	 0.124148
C	 0.0592488167	-0.6796955309	 1.388635081	 0.019873
C	-0.9523222309	 0.1602442819	 2.1882247271	-0.243411
C	-2.0892294124	 0.201500168	 1.1020338617	-0.158173
C	-2.6197083798	 1.5072805908	 0.7545896678	 0.334579
C	-3.104014002	 2.5693408042	 0.4673220169	-0.475278
C	-1.3084188083	-0.5542601192	-0.0153559976	 0.023061
O	-0.7776868335	-1.6844456524	 0.735220999	-0.292568
H	 1.19679531	 1.6268921314	-0.1688343088	 0.291676
H	 0.7590351648	-0.5248315568	-0.6817815545	 0.089946
H	 0.9316663228	-1.0892137729	 1.8979002737	 0.079599
H	-1.2715512427	-0.3359312236	 3.1058024548	 0.109418
H	-0.5698873949	 1.1555293405	 2.4202513813	 0.12097
H	-2.9154816387	-0.4478211039	 1.4083305003	 0.112914
H	-3.5128953203	 3.5142467641	 0.2089426294	 0.189953
H	-1.8435719901	-0.818896605	-0.9259900397	 0.090178
117.2251	145.0501	215.6064	241.8284	283.353	381.6751	470.4194	508.0138	513.445	615.5962	620.5642	634.9703	728.3947	799.1265	820.9491	856.1389	875.7256	912.9269	968.0689	988.7278	1002.7505	1061.2625	1072.4824	1135.2325	1139.3977	1175.5051	1199.4118	1231.2747	1256.4095	1270.3875	1293.4965	1303.5448	1335.283	1345.9193	1436.8929	1480.2826	2237.7542	3055.5181	3060.3091	3084.6293	3123.4926	3139.9092	3142.0474	3506.4508	3829.0903
OC1C2CC(C#C)C1O2	O[C@H]1[C@H]2C[C@@H](C#C)[C@@H]1O2	
InChI=1S/C7H8O2/c1-2-4-3-5-6(8)7(4)9-5/h1,4-8H,3H2	InChI=1S/C7H8O2/c1-2-4-3-5-6(8)7(4)9-5/h1,4-8H,3H2/t4-,5-,6+,7+/m1/s1
