14
gdb 21134	5.38562	1.6421	1.26824	2.0446	71.14	-0.2157	-0.0771	0.1386	915.7203	0.109094	-374.900236	-374.893147	-374.892203	-374.932083	25.243	
C	 0.0715830626	 1.4398353813	 0.0670215644	-0.327556
N	-0.0118459575	-0.0045394035	 0.1540411632	-0.336918
C	-1.1421191421	-0.5755877165	 0.0683945866	 0.469701
N	-1.154532018	-1.9871869665	 0.1609286777	-0.251525
N	-2.2107315058	-2.7765339638	 0.09802406	-0.127606
C	-3.3604829401	-2.1844302662	-0.0670512683	-0.042153
C	-3.429867074	-0.7536462751	-0.1699030093	 0.010226
N	-2.3968800106	 0.0208031602	-0.1085288321	-0.293661
H	 0.7306871978	 1.7149251719	-0.7656302367	 0.118314
H	-0.8953197788	 1.9356495002	-0.0715017573	 0.128314
H	 0.5403549789	 1.8309927681	 0.9784179287	 0.118313
H	-0.2607988268	-2.4419112311	 0.2888774861	 0.279159
H	-4.2385265154	-2.8150180575	-0.1210514559	 0.129843
H	-4.4030480203	-0.2801792214	-0.307837017	 0.125549
70.7401	100.2777	218.3021	238.9944	384.5091	472.125	480.4906	604.0471	644.9626	709.7313	781.5323	809.4262	844.9452	995.395	1008.4652	1016.5517	1065.1047	1135.6845	1147.0159	1202.3631	1215.1332	1391.0632	1413.3567	1435.8956	1438.219	1495.1294	1496.7919	1565.9565	1659.7351	1751.1101	3010.5289	3060.296	3087.0727	3118.9242	3216.454	3600.2328
CN=C1NN=CC=N1	C[N]c1[nH]nccn1	
InChI=1S/C4H6N4/c1-5-4-6-2-3-7-8-4/h2-3H,1H3,(H,5,6,8)	InChI=1S/C4H11N4/c1-5-4-6-2-3-7-8-4/h4,6-8H,2-3H2,1H3
