17
gdb 121724	3.97077	0.66379	0.60773	1.368	67.3	-0.2635	-0.0363	0.2272	1781.9313	0.132616	-496.133142	-496.1231	-496.122156	-496.170524	33.642	
O	 0.1775380862	 1.2715634833	-0.3006372571	-0.415713
C	 0.0439941473	-0.1350043384	-0.3039026208	-0.071442
C	-1.3703793423	-0.5798218065	 0.0197837847	-0.079588
O	-2.2119391559	-0.0557341973	-1.0343391343	-0.25336
C	-3.5203636881	-0.3560720038	-0.9509975519	 0.433189
O	-4.0057872761	-1.0377191063	-0.0839445683	-0.350659
C	-4.3065808001	 0.2588822589	-2.0904720085	-0.39703
C	-5.30464626	-0.7322228285	-2.6790919054	 0.165128
O	-5.5734555352	-0.7816394468	-3.8487412369	-0.231853
H	-0.4430233828	 1.6124930138	-0.9537602209	 0.290748
H	 0.3521596314	-0.5717653714	-1.2665988503	 0.101192
H	 0.7192088233	-0.5197500697	 0.4672193975	 0.121636
H	-1.4619458526	-1.6697310906	 0.0503756824	 0.126996
H	-1.7067920931	-0.1715316634	 0.9769662875	 0.133961
H	-4.8971405905	 1.0810248858	-1.6616515198	 0.166127
H	-3.6675748932	 0.6668546626	-2.8736460799	 0.145892
H	-5.7754035482	-1.4005500317	-1.929818188	 0.114777
29.1957	47.7463	75.9908	95.9179	169.8407	174.7142	269.4971	300.0247	367.6228	406.4385	467.5631	508.6072	596.7508	740.1236	788.8893	845.4138	898.5353	975.5933	1016.5407	1049.2412	1065.4103	1094.4264	1125.0839	1163.1439	1227.4995	1236.0173	1265.0205	1321.5774	1390.0398	1400.2437	1410.3013	1432.2775	1437.9406	1494.2075	1497.4753	1812.2521	1843.6754	2937.6338	2990.5898	3030.3087	3058.4455	3085.315	3114.3727	3141.3517	3812.8449
OCCOC(=O)CC=O	OCCOC(=O)CC=O	
InChI=1S/C5H8O4/c6-2-1-5(8)9-4-3-7/h2,7H,1,3-4H2	InChI=1S/C5H8O4/c6-2-1-5(8)9-4-3-7/h2,7H,1,3-4H2
