19
gdb 75218	3.6506	1.14374	1.0335	1.0113	89.09	-0.224	0.0201	0.2441	1230.7756	0.158532	-348.730589	-348.722054	-348.72111	-348.763265	33.618	
C	 0.0024573892	 1.4983520479	 0.0713271335	-0.496934
C	-0.0017587591	 0.0036527133	-0.001639959	 0.340607
C	 0.0394372831	-0.7602558031	-1.0987601502	-0.187136
C	-0.0191939375	-2.2389746914	-0.7944456618	-0.335166
C	-0.0053625437	-2.2961764795	 0.7430102534	 0.176584
C	 1.2052676962	-1.7014943628	 1.442242585	-0.312989
C	-0.0152679506	-0.8398536386	 1.2345175484	-0.175125
C	-0.7487370436	-3.3237262838	 1.4057156782	 0.175848
C	-1.3781202677	-4.1988919189	 1.9412744745	-0.402067
H	 0.8687967003	 1.867822589	 0.6342336804	 0.128334
H	 0.0232288799	 1.9485014214	-0.9246771752	 0.124566
H	-0.8887849313	 1.8698099857	 0.5929136408	 0.127719
H	 0.1181071059	-0.3812004811	-2.1120487108	 0.088408
H	-0.9355240463	-2.6984144539	-1.1858009587	 0.118413
H	 0.8191795103	-2.7965807136	-1.2306077462	 0.112546
H	 1.4011170623	-2.0683768608	 2.443463894	 0.122245
H	 2.0858377916	-1.4881073657	 0.8442831617	 0.11408
H	-0.6007141621	-0.5425609204	 2.0979780001	 0.096732
H	-1.9322749369	-4.9678147738	 2.4190561919	 0.183333
106.4853	146.162	187.082	220.8197	289.9023	318.4526	353.5271	461.7172	527.511	550.6075	569.9099	582.3291	622.3148	645.1488	742.1448	804.1169	818.2629	853.8636	926.0854	964.165	976.7353	1005.3835	1016.2792	1031.6198	1063.4219	1077.3249	1099.2443	1167.4316	1185.6685	1236.4387	1244.6534	1300.6032	1339.1411	1390.5665	1414.1757	1469.6056	1478.8028	1484.3343	1489.9666	1709.2133	2233.4042	3018.685	3022.8201	3051.1811	3064.9399	3112.7817	3125.7128	3170.4872	3189.814	3221.8679	3504.5553
CC1=CCC2(CC12)C#C	CC1=CC[C@]2(C[C@@H]12)C#C	
InChI=1S/C9H10/c1-3-9-5-4-7(2)8(9)6-9/h1,4,8H,5-6H2,2H3	InChI=1S/C9H10/c1-3-9-5-4-7(2)8(9)6-9/h1,4,8H,5-6H2,2H3/t8-,9-/m0/s1
