22
gdb 106047	2.65435	1.47953	1.18231	1.7875	85.17	-0.2164	0.0842	0.3006	1164.7299	0.19441	-367.14479	-367.136039	-367.135095	-367.178024	34.136	
C	-0.1035780028	-0.6588943745	 0.6066878624	-0.37865
C	-0.4041862971	-0.3741721004	-0.8712218027	-0.311221
C	 0.7942826209	-0.5169031553	-1.7694626122	 0.338362
C	 0.6609652547	-0.8581499701	-3.2741042485	-0.149933
C	 1.9818441449	-0.4891139531	-3.92242143	-0.185708
N	 2.6925626158	-0.9369458295	-2.6597348867	-0.188591
C	 1.421106355	-1.7567566395	-2.3381356585	-0.078833
C	 2.197462002	 0.0667471309	-1.6177509287	 0.014416
C	 2.4995061305	 1.5425127148	-1.8218028656	-0.430387
H	 0.2842114361	-1.6737605716	 0.7417666042	 0.119099
H	 0.6428742118	 0.036674858	 1.0038373273	 0.119361
H	-1.0069668296	-0.5579749167	 1.2157576106	 0.11216
H	-1.1947028476	-1.0517966206	-1.2185543606	 0.098796
H	-0.8139431209	 0.6400297738	-0.9721695845	 0.102206
H	-0.3129339624	-1.0254218699	-3.7189211919	 0.084288
H	 2.2510270452	-1.1740647719	-4.7313787301	 0.106434
H	 2.1841229535	 0.5387732549	-4.2388567497	 0.09462
H	 1.3919019769	-2.8108484248	-2.1002937989	 0.09339
H	 2.6342000281	-0.2633261924	-0.6687664279	 0.077373
H	 1.9472098925	 1.9778306701	-2.6584240727	 0.118892
H	 2.2320214892	 2.1069850511	-0.9220965284	 0.116513
H	 3.5706478635	 1.6878402866	-2.0011766768	 0.127413
75.3464	160.5784	171.8079	182.1172	233.6105	261.0655	345.3412	382.64	505.4321	570.0178	610.6565	697.6393	764.4752	780.2512	795.1714	837.8942	848.9793	895.8151	923.3066	929.2818	976.0275	984.6734	1005.4117	1064.4416	1084.5128	1096.1011	1103.6073	1118.8518	1134.9591	1148.6806	1176.2062	1219.6264	1239.4592	1266.6102	1301.7463	1328.14	1355.5205	1389.5123	1401.8462	1409.8341	1434.8657	1480.032	1487.6445	1495.5147	1499.0516	1507.0877	1523.1334	3012.0261	3032.9602	3035.291	3041.7148	3043.5455	3048.6367	3094.7377	3098.1843	3104.2854	3107.6941	3116.9963	3181.388	3214.0514
CCC12C3CN(C13)C2C	CC[C@]12[C@H]3CN([C@@H]13)[C@H]2C	
InChI=1S/C8H13N/c1-3-8-5(2)9-4-6(8)7(8)9/h5-7H,3-4H2,1-2H3	InChI=1S/C8H13N/c1-3-8-5(2)9-4-6(8)7(8)9/h5-7H,3-4H2,1-2H3/t5-,6-,7+,8-/m0/s1
