20
gdb 32748	3.00776	1.10518	0.85384	1.99	83.31	-0.1882	0.0557	0.2439	1401.8602	0.170236	-403.183793	-403.17402	-403.173076	-403.219438	35.188	
C	 0.1909281146	 1.4982865621	 0.0647992125	-0.387001
C	-0.1035151961	 0.114345667	 0.6119755871	-0.05417
O	 1.1082628586	-0.6551659266	 0.5481752183	-0.280834
C	 1.0171968064	-1.9176943515	 1.0390524717	 0.273472
C	 1.2358827569	-2.4090438249	 2.3063578613	 0.182842
C	 1.6054000178	-1.6010003596	 3.512503849	-0.510459
C	 1.049535187	-3.8245622199	 2.217781768	-0.23635
C	 0.7304096098	-4.1382235529	 0.9195997649	-0.08944
N	 0.7016662512	-2.9651866523	 0.2029094739	-0.296282
H	 0.5381607525	 1.4382272093	-0.9706521648	 0.126391
H	-0.7115138628	 2.1161035281	 0.0935651119	 0.118477
H	 0.9676055988	 1.9887216347	 0.6582277404	 0.131042
H	-0.4495076702	 0.161737999	 1.6526925751	 0.10659
H	-0.887107963	-0.3848266359	 0.0243502695	 0.093875
H	 0.8048283987	-1.5813049344	 4.2623933793	 0.118156
H	 2.4967668942	-2.0022241383	 4.0082588242	 0.122189
H	 1.8228236756	-0.5669633523	 3.2291461072	 0.122362
H	 1.1453211211	-4.52935205	 3.0305167332	 0.086954
H	 0.5275513006	-5.0848027125	 0.4458708048	 0.113628
H	 0.5718620684	-2.874248369	-0.7893883175	 0.258558
46.2089	53.0403	118.0861	126.6822	232.5944	239.1738	257.2027	331.7761	382.0449	445.8138	462.5159	635.3725	643.133	667.7107	704.7283	769.7035	813.9208	818.7568	901.5976	915.1213	984.3823	1052.6023	1064.2784	1082.5597	1106.7103	1134.0014	1180.5105	1202.607	1257.7508	1287.1406	1298.9873	1390.7657	1412.0574	1415.0748	1427.3423	1482.9661	1486.6555	1491.1487	1498.5757	1499.4937	1514.557	1526.7873	1648.5396	2999.5247	3019.3958	3041.4999	3045.8754	3067.0899	3104.5373	3120.7775	3123.5292	3237.7477	3269.8103	3684.4284
CCOC1=C(C)C=CN1	CCOc1c(C)cc[nH]1	
InChI=1S/C7H11NO/c1-3-9-7-6(2)4-5-8-7/h4-5,8H,3H2,1-2H3	InChI=1S/C7H11NO/c1-3-9-7-6(2)4-5-8-7/h4-5,8H,3H2,1-2H3
