16
gdb 93996	3.00177	1.35747	0.96754	4.8805	67.08	-0.258	-0.0429	0.2151	1155.0246	0.124529	-475.080667	-475.07238	-475.071436	-475.113909	30.019	
O	 0.0779728451	 1.3660818575	 0.3293812087	-0.436292
C	-0.0044799379	-0.0048096093	 0.0686435627	 0.04553
C	-1.4276376294	-0.5391326785	-0.100093334	-0.251286
C	-1.2127217213	-1.7969626876	-0.9622174126	-0.194218
N	-0.0491162747	-1.4487007564	-1.7981440756	-0.132573
C	 0.2567098909	-2.1434978098	-2.9667831317	 0.158135
O	 1.2025762591	-1.9437079009	-3.6771941255	-0.259757
C	 0.6511455752	-0.3579630335	-1.2700165824	 0.408394
O	 1.5728880408	 0.2444758118	-1.7559411966	-0.344371
H	 0.8500144037	 1.682961841	-0.1632222297	 0.298483
H	 0.5199519112	-0.591410449	 0.8460168094	 0.098203
H	-1.9317715318	-0.761000339	 0.8413854124	 0.124056
H	-2.0149141782	 0.2057504269	-0.6457753259	 0.132899
H	-0.9891499031	-2.6735338099	-0.3421446373	 0.129453
H	-2.0746043172	-2.0362790102	-1.58953864	 0.135514
H	-0.5038888023	-2.925460723	-3.1661966918	 0.087831
72.1153	139.0627	189.0551	194.4605	240.9485	285.9465	393.1834	422.9021	458.4212	516.1598	570.803	682.2903	722.806	795.9542	882.2216	970.5753	996.2521	1031.6266	1074.7379	1105.6253	1154.492	1176.28	1213.8393	1215.4079	1273.0857	1304.6983	1314.8484	1371.5463	1400.7358	1427.4147	1452.6156	1496.1563	1523.4642	1799.7082	1875.4438	2927.8561	2932.5087	3032.7662	3068.664	3099.5373	3132.2069	3723.4209
OC1CCN(C=O)C1=O	O[C@H]1CCN(C=O)C1=O	
InChI=1S/C5H7NO3/c7-3-6-2-1-4(8)5(6)9/h3-4,8H,1-2H2	InChI=1S/C5H7NO3/c7-3-6-2-1-4(8)5(6)9/h3-4,8H,1-2H2/t4-/m0/s1
