16
gdb 125408	2.91867	1.22935	0.94641	1.884	71.31	-0.2596	-0.0419	0.2177	1206.4785	0.12293	-437.896136	-437.887449	-437.886505	-437.93093	30.161	
C	 0.0400737855	 1.5153341502	 0.0496566447	-0.516902
C	-0.0036465587	 0.020394573	 0.0047754695	 0.079994
C	-0.0488248543	-0.8135823333	-1.0661884433	 0.003248
O	-0.086689123	-2.0989294012	-0.6785515493	-0.166102
N	-0.066648836	-2.1468507193	 0.7077922729	-0.200237
C	-0.0207864713	-0.8965909351	 1.1057828617	 0.295447
C	 0.0552705838	-0.5710541163	 2.568696242	-0.375934
C	 1.4807197754	-0.172119407	 2.9333810375	 0.153708
O	 1.809567934	 0.933389435	 3.2743669077	-0.231567
H	 0.8683027578	 1.8731106023	 0.6691654722	 0.155864
H	 0.1584717248	 1.9349345758	-0.9523815774	 0.132419
H	-0.8805965321	 1.9297203397	 0.4765489819	 0.139175
H	-0.0596810647	-0.6438451256	-2.1321390325	 0.151834
H	-0.6131837977	 0.2534645421	 2.8297729332	 0.132603
H	-0.2181558686	-1.4640646457	 3.1406078248	 0.147364
H	 2.2204521552	-0.9966724345	 2.8341502642	 0.099086
46.6864	55.197	116.2465	164.2411	224.0463	260.5381	372.1463	394.7784	479.116	616.7033	634.883	694.3487	734.2295	841.0351	861.5118	919.8418	953.4011	1015.5999	1029.5587	1055.8216	1073.605	1149.2323	1179.0809	1215.5316	1284.6937	1301.6814	1417.3157	1425.4987	1426.9023	1458.6903	1484.7043	1499.8923	1506.9642	1653.1596	1831.8463	2897.5895	3035.6997	3054.2289	3091.7249	3118.6235	3122.6598	3260.9536
CC1=CON=C1CC=O	Cc1conc1CC=O	
InChI=1S/C6H7NO2/c1-5-4-9-7-6(5)2-3-8/h3-4H,2H2,1H3	InChI=1S/C6H7NO2/c1-5-4-9-7-6(5)2-3-8/h3-4H,2H2,1H3
