17
gdb 81739	3.14329	1.27657	1.07134	2.0587	74.05	-0.2618	0.004	0.2657	1131.1228	0.136167	-417.978202	-417.969737	-417.968793	-418.011203	31.847	
C	-0.1820838336	 1.5549475486	 0.0277654098	-0.415458
C	-0.0288829052	 0.0450892533	-0.0354548926	-0.097984
C	 1.0936089682	-0.5724029143	-0.980222004	 0.136494
O	 1.9459783375	 0.2998773332	-1.657599646	-0.424337
C	 1.6870524944	-1.2915369602	 0.241770668	-0.149347
N	 2.07688853	-0.2018393453	 1.153696672	-0.383178
C	 0.6600873955	-0.6700973733	 1.1414443989	 0.245789
C	 0.0549956335	-1.2135112569	 2.3118758723	 0.16728
N	-0.4534027946	-1.6461670008	 3.2578295088	-0.341061
H	 0.7499821112	 2.0351907175	 0.3349176563	 0.129547
H	-0.460890898	 1.9495041845	-0.9536600944	 0.132401
H	-0.9613096332	 1.8377084026	 0.7425399472	 0.127081
H	-0.9852949483	-0.439144887	-0.2507545592	 0.096422
H	 0.6698716964	-1.254549415	-1.7191517596	 0.102954
H	 2.4431906801	 0.7752234108	-0.9787248065	 0.297236
H	 2.1479130581	-2.2695065099	 0.3061531049	 0.121192
H	 2.5418434879	-0.6081689679	 1.964266844	 0.254969
100.9678	136.6517	168.2404	203.603	223.8364	290.1598	392.8884	472.642	483.878	558.5663	576.8424	607.5251	657.4069	692.338	785.1447	859.183	897.8241	928.0341	985.2382	1020.8151	1029.9448	1094.0028	1113.1873	1131.4917	1154.1575	1203.092	1229.1719	1271.635	1289.6604	1337.5259	1358.7609	1401.4752	1413.069	1445.8086	1488.0214	1501.7598	2345.2056	3044.8322	3073.9505	3105.1824	3112.152	3127.1405	3198.4648	3494.4968	3764.3803
CC1C(O)C2NC12C#N	C[C@H]1[C@@H](O)[C@H]2N[C@@]12C#N	
InChI=1S/C6H8N2O/c1-3-4(9)5-6(3,2-7)8-5/h3-5,8-9H,1H3	InChI=1S/C6H8N2O/c1-3-4(9)5-6(3,2-7)8-5/h3-5,8-9H,1H3/t3-,4+,5+,6-/m0/s1
