22
gdb 96827	2.43648	1.22211	1.01076	2.452	85.81	-0.2412	0.0362	0.2774	1334.4678	0.191385	-404.366953	-404.356359	-404.355414	-404.402421	38.46	
C	-0.1930042323	 1.4654722223	-0.3177756371	-0.338805
N	-0.1753838272	 0.0142342394	-0.4403587125	-0.340416
C	-1.1334904497	-0.6465365781	 0.0208881996	 0.465788
O	-2.2867320044	-0.2336110194	 0.6626779724	-0.311115
C	-2.8016697116	-1.6214169604	 0.7277033056	 0.411283
C	-3.0006941461	-2.0318855273	 2.177013835	-0.433022
C	-4.0762309382	-1.730942088	-0.0925949517	-0.431609
C	-1.4736588687	-2.1194496366	 0.066777246	-0.20821
C	-1.4750303891	-2.8853432809	-1.2498512752	-0.412963
H	 0.6547845397	 1.7859746991	 0.2987371809	 0.124013
H	-0.0507006472	 1.9104193445	-1.3088151437	 0.122639
H	-1.1141834337	 1.8679918548	 0.1201477328	 0.12322
H	-3.7921941366	-1.4364378419	 2.6427051701	 0.126906
H	-3.2872328301	-3.0872698586	 2.2382322952	 0.12104
H	-2.0809817808	-1.8894844214	 2.7511286386	 0.125715
H	-3.9300156412	-1.359123518	-1.1091857456	 0.12818
H	-4.4124936929	-2.7713222809	-0.1481901213	 0.121287
H	-4.8716722877	-1.1405710946	 0.3725375878	 0.127219
H	-0.8506655201	-2.6455020256	 0.797739023	 0.098043
H	-2.0774396539	-2.3881036099	-2.0142878807	 0.123641
H	-0.4525165007	-2.9544241651	-1.6313466602	 0.14138
H	-1.8576425777	-3.9024103433	-1.1167575789	 0.115788
66.6922	86.1019	145.6324	179.5793	191.8565	201.4435	233.2076	254.7764	271.8375	340.8789	367.5561	403.0263	481.1145	551.9733	619.4185	688.9367	756.2238	835.7301	848.5395	936.5029	971.4709	999.3134	1030.0534	1045.155	1068.0613	1104.284	1129.3823	1137.9756	1169.4853	1202.2102	1247.524	1275.349	1290.714	1367.2804	1405.0826	1409.1604	1420.1465	1439.6834	1473.0521	1481.2529	1489.4557	1495.2802	1497.668	1498.042	1500.3984	1510.0324	1841.0338	3014.0711	3035.3522	3041.6163	3045.0027	3053.9754	3077.2393	3083.7377	3105.0471	3111.3198	3113.028	3116.8983	3121.6423	3129.605
CN=C1OC(C)(C)C1C	CN=C1OC(C)(C)[C@H]1C	
InChI=1S/C7H13NO/c1-5-6(8-4)9-7(5,2)3/h5H,1-4H3	InChI=1S/C7H13NO/c1-5-6(8-4)9-7(5,2)3/h5H,1-4H3/t5-/m0/s1
