20
gdb 89284	2.27461	1.77881	1.19035	3.6704	79.17	-0.2331	0.001	0.2342	1104.1552	0.170056	-403.155148	-403.146413	-403.145468	-403.188193	33.71	
C	-0.3226619312	 1.4943741297	 0.0150560823	-0.402232
C	 0.0506760633	 0.025088732	 0.0015349233	 0.05353
C	 1.2017824075	-0.4679123842	-0.9283025749	-0.325166
C	 1.8090146815	-1.209737217	 0.3014618803	 0.376743
C	 1.7848758616	-2.7213835963	 0.2774210788	-0.471505
C	 2.9607444055	-0.505688047	 1.0625844149	-0.442478
C	 1.8334307077	 0.2871255431	 1.7608902909	 0.40129
O	 1.7789926814	 1.2613194257	 2.4563346754	-0.333868
N	 0.8036711049	-0.5121563681	 1.1985269253	-0.185682
H	 0.5549224496	 2.1370798659	 0.1231301309	 0.133023
H	-0.8264726141	 1.7515780312	-0.9227789946	 0.117448
H	-1.003231119	 1.716691461	 0.8419632557	 0.139314
H	-0.8509188809	-0.5830795738	-0.1240074595	 0.091727
H	 0.9096726054	-1.0999574079	-1.7699681188	 0.107212
H	 1.8276797146	 0.3487426483	-1.3006126038	 0.107982
H	 2.554439998	-3.1062216354	-0.4014398243	 0.122407
H	 1.9724703366	-3.1303984607	 1.2750404744	 0.126179
H	 0.8153303411	-3.0966362747	-0.066079006	 0.122665
H	 3.547796504	-1.1562036545	 1.7169325224	 0.12983
H	 3.6402477126	 0.1198260925	 0.4792141974	 0.131581
82.9972	147.9339	210.7746	219.2013	240.7873	296.9011	350.063	372.8141	411.3108	486.7061	563.0479	592.5093	643.1264	739.4394	816.9776	857.547	873.0918	887.3367	946.8849	952.2857	966.2147	1009.5829	1050.2758	1081.7845	1121.6046	1150.7947	1160.1222	1195.7801	1210.6281	1240.1508	1271.7997	1295.543	1316.8742	1380.5106	1412.3447	1414.5971	1444.1097	1482.0075	1485.6804	1486.8842	1489.9084	1494.0556	1876.2699	3029.6654	3040.5955	3046.1336	3055.4141	3065.6459	3097.5599	3107.092	3110.891	3114.3998	3124.1721	3125.2083
CC1CC2(C)CC(=O)N12	C[C@H]1C[C@@]2(C)CC(=O)N12	
InChI=1S/C7H11NO/c1-5-3-7(2)4-6(9)8(5)7/h5H,3-4H2,1-2H3	InChI=1S/C7H11NO/c1-5-3-7(2)4-6(9)8(5)7/h5H,3-4H2,1-2H3/t5-,7-/m0/s1
