16
gdb 13971	5.70456	1.11452	1.03032	1.8227	76.78	-0.2199	0.0248	0.2447	1179.2062	0.129139	-346.535435	-346.527391	-346.526447	-346.569475	28.651	
C	 0.0215604378	 1.4453325213	 0.0379604391	-0.507341
C	-0.0129601844	-0.0080457147	 0.0033846621	 0.18246
C	-0.0399909579	-1.2130751746	-0.0199168626	-0.076813
C	-0.0510843531	-2.6322054234	-0.0482602566	 0.298675
C	-0.3990456294	-3.4963568414	-1.2311965139	-0.33066
C	-1.1631079595	-3.6774818883	 0.0576972978	-0.183368
C	-0.2588258387	-4.3379283574	 1.0867320655	-0.091227
O	 0.7984795232	-3.370083439	 0.8514032013	-0.318764
H	 0.8038900614	 1.797132096	 0.7195324157	 0.156332
H	 0.2295585392	 1.8671641715	-0.951613739	 0.149865
H	-0.9307076178	 1.8606760907	 0.3865561371	 0.149796
H	-0.9490396214	-2.9981907431	-2.0223571827	 0.125735
H	 0.3219766698	-4.2415150951	-1.5571667517	 0.118403
H	-2.2318217003	-3.5366420564	 0.1394276874	 0.109841
H	-0.6304786368	-4.2570789035	 2.1143611112	 0.112415
H	 0.0681429778	-5.3657452128	 0.8892282293	 0.104652
17.8239	99.603	109.62	253.2789	313.7357	357.3908	401.3268	464.8099	525.8342	562.2389	750.5378	828.3049	841.302	925.9239	969.767	972.5025	1000.1523	1012.2808	1049.5385	1054.2148	1058.1673	1076.969	1121.1082	1148.3186	1181.6681	1295.9156	1339.91	1393.2342	1414.8787	1473.8213	1474.1273	1478.2274	1518.9808	2362.1132	3023.3248	3025.5833	3071.9804	3085.1139	3089.6376	3115.1481	3208.613	3218.2847
CC#CC12CC1CO2	CC#C[C@]12C[C@H]1CO2	
InChI=1S/C7H8O/c1-2-3-7-4-6(7)5-8-7/h6H,4-5H2,1H3	InChI=1S/C7H8O/c1-2-3-7-4-6(7)5-8-7/h6H,4-5H2,1H3/t6-,7-/m0/s1
