25
gdb 59726	2.96121	1.0822	0.83974	0.2397	94.17	-0.2341	0.0341	0.2682	1470.4411	0.229975	-352.385418	-352.375736	-352.374792	-352.419895	37.646	
C	 0.0558653004	 1.5732070404	 0.0668261132	-0.399017
C	 0.0151185367	 0.0369427981	 0.0223351698	 0.036054
C	 0.8287888468	-0.5232709475	 1.2008263168	-0.397181
C	-1.4319777292	-0.5146673768	-0.009246687	 0.051057
C	-2.2256552731	-0.0487972347	-1.243840022	-0.210632
C	-3.6948716121	-0.4913816765	-1.1826332463	-0.261628
C	-3.8320472023	-1.9341903401	-0.7786431048	-0.04184
C	-2.8319735349	-2.6319875733	-0.2441045042	-0.060648
C	-1.4729847294	-2.0554399794	 0.0591005808	-0.26087
H	 1.0906053338	 1.928388127	 0.1139816716	 0.108154
H	-0.4065267833	 2.0339686698	-0.8095784091	 0.114944
H	-0.4618550134	 1.9516493865	 0.9568644553	 0.109793
H	 0.5077389412	-0.2869300024	-0.9075085118	 0.066584
H	 0.3485070247	-0.2837787469	 2.1577139283	 0.109741
H	 0.9479829182	-1.6083458212	 1.1489318303	 0.114707
H	 1.8314697185	-0.0836828325	 1.2181736431	 0.106711
H	-1.9506980599	-0.131175427	 0.8838691738	 0.064796
H	-2.1811714673	 1.0381723536	-1.352038777	 0.091103
H	-1.7586565555	-0.4742607735	-2.1429728004	 0.093505
H	-4.251577878	 0.1451453719	-0.4779138583	 0.103794
H	-4.1740908653	-0.3300251981	-2.1569788904	 0.098291
H	-4.7967628363	-2.4087459895	-0.9433885561	 0.079145
H	-2.979682347	-3.680075331	 0.0078806702	 0.078936
H	-0.7313280416	-2.4773133518	-0.6385786027	 0.100558
H	-1.1599195017	-2.3975556553	 1.0523549769	 0.103945
51.2887	109.8478	182.7561	186.8047	223.9087	248.4735	335.8644	353.2376	400.3373	403.5405	452.1253	479.42	518.0879	671.0175	731.6739	804.5332	854.192	890.171	920.1606	925.8883	937.5529	956.4146	966.9255	982.7082	1006.0922	1053.7946	1076.3993	1084.07	1139.1637	1142.1212	1167.8347	1189.826	1213.8359	1244.76	1275.0417	1300.2599	1325.5554	1347.13	1363.8635	1369.6159	1373.122	1394.3279	1399.8441	1418.0344	1423.1947	1472.3772	1477.7363	1486.8725	1493.4359	1496.7113	1505.8072	1515.5226	1731.011	2971.6421	2978.8594	2990.4137	2992.2606	3015.4437	3024.9997	3029.911	3036.4567	3046.1465	3082.33	3086.9871	3093.5073	3111.798	3114.4926	3136.5736	3161.3152
CC(C)C1CCC=CC1	CC(C)[C@H]1CCC=CC1	
InChI=1S/C9H16/c1-8(2)9-6-4-3-5-7-9/h3-4,8-9H,5-7H2,1-2H3	InChI=1S/C9H16/c1-8(2)9-6-4-3-5-7-9/h3-4,8-9H,5-7H2,1-2H3/t9-/m1/s1
