20
gdb 52327	4.87886	0.77106	0.69675	4.1648	77.54	-0.2441	0.0367	0.2808	1609.3442	0.172316	-440.321963	-440.312829	-440.311884	-440.358157	32.417	
O	-0.0403590606	 0.3269362673	 0.8745506192	-0.328285
C	 0.0301531707	 1.3310345195	 0.1959498131	 0.153956
N	 1.1300243506	 1.7465481034	-0.4822413176	-0.273526
C	 2.4050501864	 1.0568084956	-0.4404903085	-0.167708
C	 3.5326587024	 2.0187580786	-0.0770596933	 0.140482
C	 4.940546118	 1.4087833199	-0.1591283756	-0.250579
C	 5.7860364589	 2.5820288411	-0.6778199829	-0.222171
C	 4.7945127556	 3.2830018521	-1.6093717314	-0.064902
O	 3.5134413578	 3.1210150452	-1.0019640597	-0.289436
H	-0.8220858272	 2.025736649	 0.056328478	 0.071784
H	 1.101230799	 2.6173139754	-0.9896888739	 0.257318
H	 2.3151604519	 0.2570787469	 0.2988274785	 0.144704
H	 2.6242287296	 0.5995954088	-1.4152501123	 0.104179
H	 3.3392145213	 2.4260546663	 0.9255165098	 0.083329
H	 5.2796494334	 1.0177542119	 0.8024147481	 0.113739
H	 4.9530828873	 0.582935862	-0.8802861964	 0.106612
H	 6.0670015735	 3.2465358891	 0.1458365823	 0.112199
H	 6.6995345002	 2.2667037412	-1.187543952	 0.106953
H	 4.9856230928	 4.3542087393	-1.7279325476	 0.108509
H	 4.8026069785	 2.8233472275	-2.6098450477	 0.092842
21.3525	49.943	75.7634	161.1564	231.9755	241.6483	311.2897	405.7787	465.4194	583.097	595.1835	663.9721	759.9949	844.7221	883.1833	885.1906	926.5327	942.7656	984.2541	1025.8681	1030.4013	1035.1698	1106.0386	1109.5477	1151.2164	1199.7886	1206.0753	1217.415	1252.1281	1276.0156	1301.4906	1334.347	1353.6319	1362.6662	1397.6894	1412.2629	1429.6318	1484.1887	1488.7096	1498.4726	1526.2724	1531.5884	1802.9185	2934.1125	2983.0014	2998.1725	3015.4306	3041.8644	3052.5445	3074.2312	3107.4351	3113.7564	3116.2965	3634.3981
O=CNCC1CCCO1	O=CNC[C@H]1CCCO1	
InChI=1S/C6H11NO2/c8-5-7-4-6-2-1-3-9-6/h5-6H,1-4H2,(H,7,8)	InChI=1S/C6H11NO2/c8-5-7-4-6-2-1-3-9-6/h5-6H,1-4H2,(H,7,8)/t6-/m1/s1
