16
gdb 124946	2.69682	1.49974	0.9735	1.5784	73.06	-0.2435	-0.0073	0.2362	1149.8901	0.126037	-434.135056	-434.126396	-434.125452	-434.169482	31.2	
C	 0.0540014196	 1.5066992279	 0.0940800431	-0.516472
C	 0.0169534635	 0.0215441638	-0.0503987268	 0.306001
C	-0.0483995747	-0.8029720166	-1.1718824853	 0.033167
C	-0.0480928233	-2.1213072258	-0.6435820999	-0.100711
N	 0.0160719884	-2.1315140896	 0.6779508522	-0.226394
N	 0.0584367771	-0.8191344934	 1.0073330707	-0.24902
C	-0.1157552561	-0.3494773844	-2.5752174853	 0.310587
N	-0.0117476894	-1.3434420725	-3.5195746842	-0.538589
O	-0.2836549064	 0.8167836424	-2.8995696728	-0.37501
H	 1.0288343345	 1.8464179942	 0.4631269143	 0.135871
H	-0.129812953	 1.9585913012	-0.8797523506	 0.191324
H	-0.7077671771	 1.8544997048	 0.8005553965	 0.131335
H	-0.1157200085	-3.0605861213	-1.1742556738	 0.110201
H	 0.1074076664	-0.5661189746	 1.9808009517	 0.273335
H	 0.4167093012	-2.2238221732	-3.288410348	 0.256442
H	 0.0827836879	-1.0273466629	-4.4721262117	 0.257931
35.2903	59.5719	182.3884	201.5137	262.0161	314.5747	356.665	423.9739	492.0121	531.8548	563.7297	659.4605	681.1241	693.5821	697.4823	794.6676	884.8214	949.5803	1009.0134	1067.6644	1082.9773	1130.2801	1145.7747	1221.3634	1305.5345	1344.291	1381.6632	1411.0623	1456.7253	1480.7567	1500.9984	1518.7998	1607.4422	1623.729	1763.0292	3032.0099	3083.9652	3166.4529	3233.9389	3591.6682	3660.5071	3719.7937
CC1=C(C=NN1)C(N)=O	Cc1c(cn[nH]1)C(=O)N	
InChI=1S/C5H7N3O/c1-3-4(5(6)9)2-7-8-3/h2H,1H3,(H2,6,9)(H,7,8)	InChI=1S/C5H7N3O/c1-3-4(5(6)9)2-7-8-3/h2H,1H3,(H2,6,9)(H,7,8)
