17
gdb 112069	2.23749	1.50758	1.00948	3.7706	74.64	-0.2348	0.0065	0.2413	1164.8482	0.136651	-417.973519	-417.964938	-417.963994	-418.007077	32.017	
O	-0.0859199993	 1.5790517974	-0.0346780123	-0.425707
C	 0.0389982282	 0.1910874081	 0.1905946614	-0.06764
C	-1.3154767376	-0.4926049565	 0.0012581666	 0.012021
N	-1.8043303677	-0.233749955	-1.3665147026	-0.266883
C	-2.2772411177	-1.3351485065	-1.7987559708	 0.066342
N	-2.2710234109	-2.4188980862	-0.9345603831	-0.299455
C	-1.3634719037	-2.0575607187	 0.1789030847	-0.194092
C	-0.0776649486	-2.748486869	 0.0828804238	 0.351517
C	 0.9566696866	-3.3565977168	 0.0032609263	-0.480449
H	-0.5666327367	 1.662841106	-0.8685950696	 0.294377
H	 0.7741561796	-0.2694230958	-0.4857522258	 0.09628
H	 0.399844485	 0.0587870258	 1.2162010525	 0.105429
H	-2.0238081558	-0.038438546	 0.7055509565	 0.100217
H	-2.7210414021	-1.4546071179	-2.7833579341	 0.131022
H	-2.1692329395	-3.3438948797	-1.329191646	 0.24929
H	-1.8277327179	-2.3133615911	 1.1359025685	 0.120183
H	 1.8795133781	-3.8784841082	-0.0647122561	 0.207547
70.9559	122.0862	127.3333	201.9044	235.4558	350.6485	398.6659	457.6386	484.0133	547.9417	589.4893	617.4666	630.8586	669.8848	803.809	814.0627	863.5752	897.8441	956.1886	1026.1868	1043.8607	1062.2634	1088.8312	1111.2861	1137.9052	1221.8807	1242.8178	1285.4889	1330.3904	1341.8807	1361.0009	1387.081	1421.3418	1445.3738	1505.6008	1698.1469	2228.8117	2997.0042	3026.6417	3059.1956	3075.3959	3182.4831	3499.2625	3594.0826	3768.7909
OCC1N=CNC1C#C	OC[C@H]1[N][CH]N[C@H]1C#C	
InChI=1S/C6H8N2O/c1-2-5-6(3-9)8-4-7-5/h1,4-6,9H,3H2,(H,7,8)	InChI=1S/C6H8N2O/c1-2-5-6(3-9)8-4-7-5/h1,4-6,9H,3H2,(H,7,8)/t5-,6+/m0/s1
