19
gdb 79821	2.11053	1.96841	1.67559	1.1655	73.29	-0.229	0.0616	0.2906	948.1501	0.15954	-422.991986	-422.984189	-422.983245	-423.023644	31.514	
C	-0.1585198693	 1.6014197387	-0.0262205084	-0.430292
C	 0.058303978	 0.0918070632	-0.0280968556	-0.031742
C	 0.7408029334	-0.5816192988	-1.2243355877	-0.124902
C	 2.246654797	-0.4796194227	-1.0854379548	 0.108601
O	 2.8038865786	 0.546834991	-0.2824296999	-0.267322
C	 2.3725562159	 0.2991339014	 1.0577968407	-0.134525
C	 1.135137116	-0.5950704323	 0.8966650562	 0.339095
O	 0.6982078235	-1.2485898356	 2.0531865056	-0.493961
C	 1.5306667893	-1.5095453553	-0.2911377329	-0.165147
H	 0.7651917991	 2.1383993548	-0.2547456787	 0.140055
H	-0.901095572	 1.879004776	-0.7825671007	 0.115271
H	-0.5373995541	 1.9535948498	 0.9409309973	 0.10178
H	-0.8836853784	-0.4306054214	 0.1731586088	 0.080756
H	 0.2721654634	-0.8171053698	-2.174161168	 0.082191
H	 2.8649258579	-0.7357689347	-1.9371963693	 0.104519
H	 3.1486330175	-0.2258849317	 1.6345501829	 0.098307
H	 2.1605254786	 1.2614035616	 1.5373128783	 0.098756
H	 0.3539035914	-0.5875738847	 2.6637375173	 0.281373
H	 1.6825159142	-2.5798914196	-0.272938011	 0.097187
170.9023	204.9094	226.0518	256.2092	275.2844	337.4678	388.2273	473.6439	544.1326	597.9736	649.156	719.6995	758.3699	773.6402	807.0485	879.1054	931.0801	938.6349	970.9763	996.8513	1024.8401	1043.041	1062.7977	1081.1739	1109.8357	1127.4383	1137.0614	1175.1302	1197.8334	1216.5592	1229.0232	1266.9289	1310.7182	1343.7749	1373.1299	1385.2778	1401.9574	1423.7566	1489.8367	1504.3901	1519.428	2994.1578	3025.5489	3044.9624	3064.7456	3083.4199	3123.3094	3162.1025	3192.6895	3212.4566	3803.3282
CC1C2C3OCC1(O)C23	C[C@H]1[C@H]2[C@H]3OC[C@]1(O)[C@@H]23	
InChI=1S/C7H10O2/c1-3-4-5-6(4)9-2-7(3,5)8/h3-6,8H,2H2,1H3	InChI=1S/C7H10O2/c1-3-4-5-6(4)9-2-7(3,5)8/h3-6,8H,2H2,1H3/t3-,4+,5-,6+,7+/m0/s1
