19
gdb 62220	4.68538	0.56478	0.55072	3.4597	79.08	-0.2543	0.0166	0.2709	1964.7577	0.158277	-419.248917	-419.238641	-419.237697	-419.285856	34.819	
C	-0.1862592175	 1.4207571734	 0.0394165877	-0.352643
N	 0.0042531304	-0.0180547681	-0.0476285498	-0.032604
C	-0.0277829377	-0.8091690967	 1.1656572381	-0.185434
C	-1.4353966577	-0.9755803896	 1.7590831459	-0.187445
C	-1.3980943258	-1.8154962262	 3.0507687349	-0.338719
C	-2.7201276678	-1.9762472737	 3.6507859851	 0.259523
N	-3.7728757699	-2.0921896389	 4.1125087934	-0.296862
C	 0.2509733563	-0.5947176293	-1.2621677564	 0.15351
O	 0.3004325802	-0.0118408699	-2.323081669	-0.334825
H	 0.5262210137	 1.8588495598	 0.7485522444	 0.125425
H	-0.0159865639	 1.8355015724	-0.954073112	 0.174431
H	-1.2011995201	 1.6779577644	 0.3623126515	 0.131993
H	 0.3898380933	-1.7963354926	 0.9360769301	 0.121647
H	 0.6352913181	-0.3501001583	 1.9130904609	 0.112459
H	-1.8721280158	 0.0027364893	 1.9813772039	 0.131591
H	-2.0876519882	-1.4566257034	 1.0234211369	 0.133838
H	-0.9853882996	-2.8111015818	 2.8480575506	 0.156223
H	-0.7369369529	-1.3474643045	 3.7900161094	 0.155796
H	 0.409180275	-1.6876499563	-1.1688500756	 0.072095
39.3776	76.4168	78.8528	103.8297	129.7262	185.6583	267.7852	321.4286	338.3463	369.4233	397.0395	405.6351	559.7771	704.5799	743.6469	848.419	875.1199	948.7288	1028.083	1031.4701	1046.7688	1091.1732	1098.514	1156.03	1186.3105	1268.91	1285.1571	1299.925	1325.32	1369.1423	1408.1554	1432.817	1440.1933	1443.1919	1469.253	1482.2709	1499.4191	1502.8151	1520.8344	1800.9615	2365.2163	2931.9838	3001.2615	3024.5397	3036.1043	3058.6636	3061.8354	3071.0881	3077.1794	3109.456	3157.8504
CN(CCCC#N)C=O	CN(CCCC#N)C=O	
InChI=1S/C6H10N2O/c1-8(6-9)5-3-2-4-7/h6H,2-3,5H2,1H3	InChI=1S/C6H10N2O/c1-8(6-9)5-3-2-4-7/h6H,2-3,5H2,1H3
