20
gdb 16241	2.70894	2.17976	1.40163	1.7733	74.	-0.252	0.0774	0.3293	950.4471	0.177906	-349.006351	-348.99857	-348.997625	-349.03871	30.281	
C	-0.5279180959	 1.3896275982	 0.0028696725	-0.421061
C	 0.0905533926	-0.0062250918	-0.0282358517	-0.022259
C	 1.1101621607	-0.2348533613	-1.1626335541	-0.215355
C	 1.917795372	-1.4576672891	-0.6960430937	-0.217811
C	 2.1168678628	-1.1926713535	 0.8074698732	-0.283728
C	 0.8524896096	-0.4404259904	 1.237697208	 0.437624
C	 0.7503092964	 0.2180528852	 2.5458514016	-0.251456
O	 0.0650218604	-1.0110322892	 2.2920057361	-0.280071
H	 0.2357606976	 2.1597426455	 0.1590061089	 0.112248
H	-1.0343094643	 1.6087420407	-0.9430354493	 0.113127
H	-1.2717186738	 1.4817059856	 0.800766206	 0.122686
H	-0.7175703238	-0.7409457968	-0.1479804659	 0.089772
H	 0.6291695723	-0.3756641221	-2.1349002608	 0.095733
H	 1.7706094295	 0.6387270236	-1.2499115739	 0.093858
H	 1.3272559752	-2.3695337616	-0.8442989336	 0.103934
H	 2.8590472038	-1.5867641742	-1.2367749373	 0.095058
H	 2.2547626765	-2.095414002	 1.4075783428	 0.11244
H	 2.9959639878	-0.5551229402	 0.9607097148	 0.102266
H	 1.5863437652	 0.1520749715	 3.2433414523	 0.104397
H	 0.1136760655	 1.091041482	 2.6794362441	 0.1086
38.7053	212.7198	243.953	261.843	301.9395	355.7341	394.8651	488.3456	515.205	564.0346	676.1464	797.2668	844.4625	866.1073	889.9377	914.7208	951.5245	962.2026	991.6294	1017.1516	1045.4962	1095.2806	1132.0893	1144.2678	1160.9762	1190.202	1212.0655	1219.622	1247.7024	1314.4842	1317.2061	1331.2256	1341.8717	1376.7154	1400.2245	1419.6069	1477.6475	1491.815	1496.1196	1503.4054	1506.6026	1532.2954	3009.386	3021.2575	3028.8488	3033.5855	3040.021	3073.5654	3085.8273	3093.8181	3096.3937	3100.2054	3104.494	3159.0802
CC1CCCC11CO1	C[C@H]1CCC[C@]21CO2	
InChI=1S/C7H12O/c1-6-3-2-4-7(6)5-8-7/h6H,2-5H2,1H3	InChI=1S/C7H12O/c1-6-3-2-4-7(6)5-8-7/h6H,2-5H2,1H3/t6-,7+/m0/s1
