16
gdb 125138	2.59346	1.59027	0.993	1.5917	75.34	-0.2387	-0.0393	0.1995	1139.5132	0.124833	-434.0784	-434.069791	-434.068847	-434.112388	31.364	
C	-0.0476595639	 1.5534529349	 0.1565073737	-0.520386
C	-0.0228112271	 0.0657246093	 0.0104561285	 0.0584
C	-0.0268600769	-0.7082210207	-1.1170384562	 0.399586
O	 0.0017947976	-2.0197099835	-0.7786484554	-0.244407
N	 0.0261464251	-2.1396367187	 0.6009570856	-0.144648
C	 0.0105049284	-0.9087827321	 1.0488302023	-0.017939
C	-0.051002219	-0.4086451573	-2.5614474671	 0.237907
N	-0.1762796557	-1.5196439162	-3.3656824444	-0.550524
N	 0.0052750945	 0.8169543453	-2.9346856296	-0.524336
H	 0.8767773947	 1.9155070178	 0.6209901823	 0.132268
H	-0.1508034858	 2.0242575242	-0.8204135868	 0.178506
H	-0.8768245552	 1.8681945258	 0.7995827083	 0.128574
H	 0.0229194719	-0.7414671677	 2.1174280945	 0.13449
H	 0.0165555512	-2.4229904996	-2.9637001353	 0.273895
H	 0.0440017326	-1.4132308417	-4.3423638924	 0.252694
H	-0.0278337924	 0.8953813403	-3.9521918681	 0.205919
52.2428	62.1017	184.8432	212.5287	280.5335	308.831	382.1777	424.6262	435.3139	501.319	597.2861	651.6217	654.7438	686.0891	774.2848	839.721	915.2318	949.0727	963.0591	1014.878	1072.8079	1089.0504	1125.0161	1172.9584	1204.5808	1232.0063	1378.2368	1410.0399	1425.9677	1484.7527	1501.2779	1517.0328	1631.617	1672.2192	1704.0806	3034.1486	3083.5654	3161.0372	3237.616	3462.7301	3592.6008	3711.6899
CC1=C(ON=C1)C(N)=N	Cc1c(onc1)C(=N)N	
InChI=1S/C5H7N3O/c1-3-2-8-9-4(3)5(6)7/h2H,1H3,(H3,6,7)	InChI=1S/C5H7N3O/c1-3-2-8-9-4(3)5(6)7/h2H,1H3,(H3,6,7)
