20
gdb 118826	2.81026	0.95339	0.86404	2.8954	77.6	-0.2498	-0.0299	0.22	1423.025	0.168109	-440.256532	-440.246288	-440.245344	-440.292488	36.082	
C	-0.4815670866	 0.8213848147	-0.1042963017	-0.233906
O	 0.8066347889	 0.2775618729	 0.113442648	-0.23224
C	 1.3006420415	-0.4911270154	-0.9638481817	-0.119574
C	 0.7015766357	-1.891260281	-1.0159370557	 0.281103
C	 0.7842646491	-2.6557942964	 0.2908193753	-0.456735
N	-0.4836088694	-2.0440950889	-1.858789711	-0.358371
C	 0.7713978315	-2.6978421209	-2.2907331962	-0.170338
C	 1.3786138319	-2.1922257997	-3.553919324	 0.164883
O	 2.1875348496	-2.8143154855	-4.1965921762	-0.259308
H	-0.5090441416	 1.4297598536	-1.0205807988	 0.110526
H	-1.2569273507	 0.0488260495	-0.1860082135	 0.116879
H	-0.7032796517	 1.4608148292	 0.7536701256	 0.126262
H	 1.1286015007	 0.0260255378	-1.9177591358	 0.094146
H	 2.3819596547	-0.5704646933	-0.8030791913	 0.114965
H	 0.2629723489	-2.1096952923	 1.0817227986	 0.143421
H	 0.340496838	-3.6515275925	 0.1955516077	 0.113695
H	 1.825564854	-2.7765784512	 0.6071726959	 0.134223
H	-1.1181727124	-2.7399288531	-1.4734613078	 0.237983
H	 0.8854089749	-3.7712983679	-2.1570936201	 0.105137
H	 1.0164176331	-1.1914986795	-3.8741555273	 0.087249
50.1942	79.5312	103.1424	144.1576	178.3548	207.5281	240.1613	275.6932	358.8747	393.6197	398.3955	445.8986	478.1101	559.7237	737.2412	818.4869	917.0383	945.3186	970.6233	978.3822	1009.4748	1030.3268	1071.7104	1095.7819	1127.9569	1150.8072	1181.6402	1217.1526	1222.7701	1272.6214	1334.3392	1345.0912	1382.8241	1403.121	1417.4881	1454.0986	1470.5018	1477.7619	1485.4474	1490.3333	1500.7304	1510.9042	1818.27	2901.3858	2990.6563	3009.7135	3037.7905	3049.8256	3070.9747	3105.8443	3116.1112	3119.5409	3142.2298	3495.6014
COCC1(C)NC1C=O	COC[C@@]1(C)N[C@H]1C=O	
InChI=1S/C6H11NO2/c1-6(4-9-2)5(3-8)7-6/h3,5,7H,4H2,1-2H3	InChI=1S/C6H11NO2/c1-6(4-9-2)5(3-8)7-6/h3,5,7H,4H2,1-2H3/t5-,6+/m0/s1
