18
gdb 51549	5.08344	0.75213	0.72164	1.9948	73.92	-0.2452	-0.026	0.2193	1545.892	0.146154	-439.036441	-439.027556	-439.026612	-439.071438	31.396	
O	-0.629023893	 0.326788643	 0.2026298796	-0.237152
C	-0.0567340462	 1.3856632431	 0.1769050304	 0.159981
C	 1.3638914339	 1.5870974429	-0.3136423316	-0.285045
C	 1.4348268666	 2.6694819011	-1.3732771586	-0.11019
N	 1.3439395172	 4.0658238653	-0.884838567	-0.372006
C	 2.5794225909	 3.5971177822	-1.4885990261	 0.276499
C	 3.9507675514	 3.6006245692	-0.8217473287	-0.130299
O	 4.5640696128	 4.0159223953	-2.0646505318	-0.272789
C	 3.2922239246	 4.1065259416	-2.738793892	-0.148227
H	-0.5526229676	 2.3213121957	 0.518527108	 0.090815
H	 1.9703745314	 1.8989001668	 0.5466749887	 0.127371
H	 1.7487678794	 0.633690978	-0.6872788255	 0.124283
H	 0.9159337571	 2.433821	-2.3019886377	 0.101097
H	 0.819642923	 4.6476273177	-1.5344122743	 0.236796
H	 4.0711959539	 4.3470598921	-0.0271812751	 0.114064
H	 4.3343248591	 2.6320023608	-0.4779088955	 0.108962
H	 3.2452082103	 3.4652182981	-3.6280108196	 0.110752
H	 3.0486294952	 5.1396279071	-3.0250116732	 0.105086
53.421	62.952	100.2156	140.5574	196.513	268.7367	367.3313	408.4837	466.0409	510.7769	595.3015	803.1858	830.0781	841.583	888.7095	944.7181	961.3417	981.6994	1023.8359	1027.5972	1047.5466	1081.133	1096.5228	1129.5551	1148.0277	1160.9341	1184.1367	1255.6659	1273.1373	1291.7646	1306.5633	1330.6454	1385.0414	1420.9698	1449.8417	1498.5943	1503.482	1529.0303	1833.7061	2891.2365	2996.2771	3017.3393	3031.8436	3045.3299	3062.7169	3099.6415	3116.5296	3494.0568
O=CCC1NC11COC1	O=CC[C@H]1NC21COC2	
InChI=1S/C6H9NO2/c8-2-1-5-6(7-5)3-9-4-6/h2,5,7H,1,3-4H2	InChI=1S/C6H9NO2/c8-2-1-5-6(7-5)3-9-4-6/h2,5,7H,1,3-4H2/t5-/m1/s1
