16
gdb 53171	3.06687	1.05448	0.88042	2.5373	79.85	-0.2342	-0.0256	0.2086	1340.2805	0.122668	-400.692021	-400.683268	-400.682324	-400.727175	30.876	
C	 0.0482854934	 1.5645832107	-0.0650352349	-0.499819
C	-0.0084113176	 0.1111428129	-0.0376604797	 0.064403
C	-0.045913441	-1.0934051386	-0.0246635607	 0.123658
C	-0.1249455624	-2.5334113105	-0.0057982857	-0.30175
N	 0.3792700318	-3.2582856854	 1.2388528669	-0.111348
C	-0.4702014362	-2.796843665	 2.3255790581	-0.234285
C	-1.0079832491	-3.875814279	 1.4407546531	-0.163656
C	-1.499405946	-3.268795777	 0.1678905086	 0.414016
O	-2.438471455	-3.4435258822	-0.5473094946	-0.300622
H	 0.7428752953	 1.9443239299	 0.6922154903	 0.154885
H	 0.3904444271	 1.9273972995	-1.0402178634	 0.156219
H	-0.9343118074	 2.0071930693	 0.1311742888	 0.153817
H	 0.3764234089	-2.9744837689	-0.8748084336	 0.139325
H	-0.1345203527	-3.1150976435	 3.3078365244	 0.138522
H	-0.8893420053	-1.7953440014	 2.2830051737	 0.139612
H	-1.1668251037	-4.8918562507	 1.7825857187	 0.127024
23.7195	81.039	96.7031	172.9958	246.7552	281.8086	392.2248	408.9397	483.795	513.4193	604.3283	702.529	740.6018	808.2683	835.27	893.5415	946.1529	986.5962	1036.3615	1050.4603	1053.0449	1096.8983	1117.9424	1128.2829	1184.5905	1195.6469	1219.1194	1307.6019	1323.0724	1413.6222	1474.538	1477.3475	1501.5779	1900.8947	2361.9113	3029.2459	3052.8277	3091.3668	3093.1262	3117.4765	3190.6108	3208.6687
CC#CC1N2CC2C1=O	CC#C[C@H]1N2C[C@H]2C1=O	
InChI=1S/C7H7NO/c1-2-3-5-7(9)6-4-8(5)6/h5-6H,4H2,1H3	InChI=1S/C7H7NO/c1-2-3-5-7(9)6-4-8(5)6/h5-6H,4H2,1H3/t5-,6+,8?/m1/s1
