14
gdb 125340	5.52974	1.31981	1.07258	1.0077	71.04	-0.2258	-0.0312	0.1945	1052.1446	0.103387	-429.038807	-429.031846	-429.030901	-429.070208	26.219	
C	 0.0109219381	 1.4664731461	 0.0363200937	-0.486233
C	 0.0125090514	-0.0251394212	-0.0245820159	 0.283219
C	-0.1503141535	-0.8133091387	-1.1478075238	-0.22169
N	-0.0673281904	-2.106310967	-0.6594127438	 0.040702
N	-0.1180835131	-3.4053526608	-1.0563350078	-0.140357
N	 0.0450555418	-4.1222766967	-0.0030967942	-0.071258
N	 0.2014790974	-3.3066100487	 1.0755935283	-0.369379
C	 0.1341953884	-2.0041951545	 0.6886548907	 0.548087
N	 0.1921544778	-0.7761298804	 1.1357597269	-0.436206
H	 0.9594114748	 1.8398257437	 0.4365340924	 0.140441
H	-0.1414226687	 1.901344594	-0.9545401093	 0.123843
H	-0.7827461422	 1.8271749504	 0.6989761444	 0.140449
H	-0.307142061	-0.5885764167	-2.1870787016	 0.147881
H	 0.3404261993	-3.7070179194	 1.98676812	 0.300501
111.8424	153.9071	283.563	308.7663	336.8507	433.356	510.3126	568.792	650.1248	663.8021	693.644	749.369	807.0561	859.3313	977.9523	1008.0495	1030.9443	1042.6695	1061.3235	1157.3433	1234.0003	1309.4105	1327.754	1360.6531	1414.0061	1430.9856	1452.3967	1472.8605	1483.5017	1564.6963	1660.8745	3038.8101	3095.0788	3124.3534	3304.1778	3698.9003
CC1=CN2N=NNC2=N1	Cc1cn2nn[nH]c2n1	
InChI=1S/C4H5N5/c1-3-2-9-4(5-3)6-7-8-9/h2H,1H3,(H,5,6,8)	InChI=1S/C4H5N5/c1-3-2-9-4(5-3)6-7-8-9/h2H,1H3,(H,5,6,8)
