15
gdb 5114	3.41271	2.1028	1.31194	0.3603	63.48	-0.1609	0.0699	0.2308	881.179	0.117948	-399.823163	-399.814583	-399.813639	-399.856735	30.225	
C	 0.0117672078	 1.457589824	 0.0096795946	-0.338782
N	 0.0336448782	 0.0096929321	 0.0018674409	-0.090531
C	 0.0619556768	-0.7982458237	-1.1149114649	 0.348609
O	 0.0416523171	-0.1714565205	-2.3247911991	-0.444688
C	 0.1053752683	-2.1087190025	-0.7308300122	-0.29346
C	 0.1123543871	-2.1165418705	 0.7107955691	-0.293469
C	 0.072950622	-0.8103208665	 1.1095157798	 0.348601
O	 0.0648811317	-0.1968642597	 2.3263629214	-0.444686
H	 1.0231130518	 1.8805915598	 0.0027672423	 0.133693
H	-0.5199511079	 1.8115198613	-0.8747062897	 0.149132
H	-0.503774579	 1.8016503488	 0.9073854695	 0.14929
H	-0.0287073525	-0.8462710638	-3.0059258992	 0.304952
H	 0.131436242	-2.9682161465	-1.3823431386	 0.083189
H	 0.1448684506	-2.9830519135	 1.3526574488	 0.083192
H	-0.0027568639	-0.8788836186	 3.0005616071	 0.304959
33.5065	122.6458	168.6172	194.5722	236.3011	281.906	325.0527	328.2061	542.5693	595.2867	608.6885	658.3024	684.1809	703.491	732.719	761.8907	981.4835	1027.2472	1128.5757	1143.4249	1158.8144	1240.8653	1264.6097	1286.1476	1320.8275	1444.5436	1474.4303	1490.9097	1523.4708	1557.7114	1619.6532	1628.7504	3034.7734	3113.3725	3155.666	3239.9377	3253.4624	3852.8411	3853.6478
CN1C(O)=CC=C1O	Cn1c(O)ccc1O	
InChI=1S/C5H7NO2/c1-6-4(7)2-3-5(6)8/h2-3,7-8H,1H3	InChI=1S/C5H7NO2/c1-6-4(7)2-3-5(6)8/h2-3,7-8H,1H3
