17
gdb 40637	3.43908	1.37728	1.27899	0.5434	70.47	-0.2391	0.0126	0.2516	1025.2324	0.138305	-417.962529	-417.9553	-417.954356	-417.995162	27.584	
C	-0.339923534	 0.9840528975	-0.4720042195	-0.228352
N	 0.8037231365	 1.2596034503	 0.4080827263	-0.326126
C	 0.4437864086	-0.1387509048	 0.1110954085	-0.040341
C	-0.0403657552	-0.9405044694	 1.2838284381	-0.062605
C	-1.461989299	-1.4193116554	 1.4435514166	 0.030983
O	-2.2617951074	-1.4472404936	 0.2685170697	-0.202205
C	-1.6441157985	-2.3286357092	-0.5608719204	 0.106811
N	-0.6061114325	-2.937855146	-0.1494478744	-0.25669
C	-0.3518471604	-2.4251327896	 1.1803208087	-0.06944
H	-1.3093360338	 1.2282106328	-0.0490174143	 0.126942
H	-0.2458578985	 1.1780478795	-1.5375614469	 0.110188
H	 1.6119265878	 1.532874395	-0.1444282308	 0.232566
H	 1.0857002555	-0.6834688613	-0.5778665191	 0.101687
H	 0.4122278555	-0.6566541339	 2.2297721896	 0.113342
H	-2.042998482	-1.2779272702	 2.3450974553	 0.115083
H	-2.1094281476	-2.4405412202	-1.5322978334	 0.144124
H	 0.0550521249	-3.1241551414	 1.900574536	 0.104034
38.0165	148.4797	155.0208	327.6861	341.908	460.1025	601.7785	675.3586	746.7602	753.5483	801.9685	846.2351	878.109	890.333	911.9538	939.6793	944.0652	968.6766	1009.2449	1016.6702	1071.5852	1085.9034	1105.4518	1115.7686	1118.4909	1129.4855	1177.8656	1221.4959	1256.6291	1287.9275	1292.15	1322.6853	1346.1107	1387.2346	1442.0729	1512.7119	1665.5333	3110.1308	3127.4085	3152.1297	3183.8343	3199.8397	3203.2912	3232.1912	3505.3859
C1NC1C1C2OC=NC12	C1N[C@H]1[C@H]1[C@H]2OC=N[C@@H]12	
InChI=1S/C6H8N2O/c1-3(7-1)4-5-6(4)9-2-8-5/h2-7H,1H2	InChI=1S/C6H8N2O/c1-3(7-1)4-5-6(4)9-2-8-5/h2-7H,1H2/t3-,4-,5+,6-/m1/s1
