23
gdb 108464	2.02806	1.58546	1.18425	1.4084	85.23	-0.2584	0.0679	0.3262	1190.7244	0.205483	-388.264917	-388.255416	-388.254472	-388.299284	36.273	
C	 0.1229030258	 1.6078455923	-0.0538630301	-0.417234
C	 0.0715036332	 0.0914111145	 0.0531379914	 0.005969
C	 0.9284585922	-0.7882220458	-0.9091682463	-0.259615
C	 1.3611129775	-1.6884700725	 0.2865436048	-0.084072
C	 2.7600300252	-1.370081751	 0.859908784	-0.21972
C	 2.1496565944	-0.1845654596	 1.6664440117	-0.284713
C	 0.7107167165	-0.6430061475	 1.2665334192	 0.396927
C	-0.197604893	-1.0298167891	 2.404681251	-0.196965
O	-0.5728705046	 0.1657301332	 3.0832334578	-0.425187
H	 1.1518402258	 1.9832339148	-0.0496877611	 0.10974
H	-0.3436679775	 1.9498126981	-0.9848034294	 0.106685
H	-0.4072861791	 2.0701884429	 0.7846591438	 0.129679
H	-0.9757461447	-0.2298035516	-0.0095215879	 0.063974
H	 0.3750925234	-1.288155989	-1.7077174682	 0.094684
H	 1.768631565	-0.2533186316	-1.3654515531	 0.092146
H	 1.0449142999	-2.7327792782	 0.2402412034	 0.055303
H	 3.1396125608	-2.1638358365	 1.5097525056	 0.095124
H	 3.5379093496	-1.127477531	 0.1292601456	 0.091593
H	 2.3382682305	-0.2094017482	 2.7421327175	 0.103584
H	 2.4295998795	 0.8071708073	 1.3054370845	 0.09967
H	-1.0837293098	-1.5565681092	 2.0122169289	 0.07801
H	 0.3225407595	-1.724760209	 3.0856902244	 0.077838
H	-1.1549961101	-0.0698773432	 3.8116658725	 0.286577
59.6505	87.644	145.335	206.2242	243.4463	260.0383	297.5619	317.8593	375.565	422.1731	473.7637	588.1392	659.3727	737.9794	765.1119	837.4174	875.0267	885.4136	920.7993	942.2524	963.0021	984.5129	1015.3775	1033.5854	1045.2288	1080.1241	1125.0018	1144.4694	1153.0174	1179.7214	1189.1004	1220.2239	1231.8838	1252.579	1253.516	1260.7157	1279.2328	1304.8272	1305.9327	1333.3389	1382.9457	1404.2305	1457.0849	1474.4969	1482.2445	1490.8478	1498.0179	1500.9437	1517.073	2948.2105	2975.7443	3018.9627	3027.3169	3041.3031	3043.9095	3069.7518	3077.0898	3087.9454	3090.4753	3100.9094	3105.9857	3120.1559	3824.7765
CC1CC2CCC12CO	C[C@H]1C[C@H]2CC[C@@]12CO	
InChI=1S/C8H14O/c1-6-4-7-2-3-8(6,7)5-9/h6-7,9H,2-5H2,1H3	InChI=1S/C8H14O/c1-6-4-7-2-3-8(6,7)5-9/h6-7,9H,2-5H2,1H3/t6-,7+,8+/m0/s1
