18
gdb 107518	2.02468	1.69098	1.10704	5.0383	76.18	-0.2692	0.0244	0.2936	1142.5912	0.146769	-401.933561	-401.924819	-401.923875	-401.967369	32.129	
C	-0.0480494874	 1.5281669801	 0.2842757012	-0.384819
C	 0.0071010361	 0.0487370751	-0.12451399	-0.307402
C	-1.3484658837	-0.5821924557	-0.1817199174	 0.427001
O	-2.0395406316	-0.8486407582	 1.0386280503	-0.275575
C	-1.8712242286	-1.9293794101	 0.1108555053	-0.050288
C	-2.9991171209	-1.8079380979	-0.9177694834	-0.261877
C	-2.4475967836	-0.3717164575	-1.2688685067	-0.230653
C	-3.3372202722	 0.7662824727	-1.1050393941	 0.29255
N	-4.0417858126	 1.6741607842	-0.9780367511	-0.333014
H	 0.9581890651	 1.9544145149	 0.3209904573	 0.118534
H	-0.6388343189	 2.1178481836	-0.4232888853	 0.136073
H	-0.5041646077	 1.6372189945	 1.2719912836	 0.143034
H	 0.4884379172	-0.056246233	-1.1047694809	 0.106331
H	 0.6132340051	-0.517298203	 0.591469358	 0.118537
H	-1.3676129114	-2.8187160603	 0.470922284	 0.11578
H	-2.9148869695	-2.4928271123	-1.7633264675	 0.120992
H	-4.0078378808	-1.8444281791	-0.5039095581	 0.137361
H	-2.0158341546	-0.3549948181	-2.2732361451	 0.127438
72.8789	95.0897	132.056	200.6056	216.5237	291.5746	333.0549	409.8801	469.608	532.4579	571.3692	684.7334	732.6139	775.569	809.5544	903.6434	914.5979	930.4682	968.8409	994.6097	1035.3338	1063.976	1069.8608	1104.171	1147.2545	1180.7736	1191.7019	1250.3121	1264.7921	1305.224	1331.6539	1353.3561	1413.2765	1458.2391	1471.8995	1483.3142	1499.2488	1509.3278	2355.3224	3031.589	3046.0893	3073.5122	3078.8077	3084.3494	3117.4518	3124.9713	3145.2937	3193.1994
CCC12OC1CC2C#N	CC[C@]12O[C@H]1C[C@H]2C#N	
InChI=1S/C7H9NO/c1-2-7-5(4-8)3-6(7)9-7/h5-6H,2-3H2,1H3	InChI=1S/C7H9NO/c1-2-7-5(4-8)3-6(7)9-7/h5-6H,2-3H2,1H3/t5-,6-,7+/m0/s1
