18
gdb 108601	2.82149	1.28808	0.90199	5.4588	76.59	-0.2365	-0.0136	0.2228	1253.5101	0.146684	-439.135349	-439.125529	-439.124585	-439.171727	33.929	
C	 0.1663500275	 1.5725829444	-0.0139010481	-0.493583
C	 0.0010180833	 0.0885209351	 0.0173730843	 0.085465
C	-1.0797235182	-0.705793781	-0.0134608306	 0.180782
C	-2.5411572603	-0.39560837	-0.1071174875	-0.173109
O	-2.7994827881	 0.9632898048	 0.1897670453	-0.404436
C	-0.6596124237	-2.161855008	 0.0408854836	-0.245866
N	 0.7754846441	-2.0724756341	 0.1157599959	-0.352277
C	 1.2287483004	-0.7740835506	 0.085898956	 0.388289
O	 2.3875099685	-0.4117571307	 0.1035546336	-0.386868
H	 0.9178686688	 1.840709053	-0.7638684019	 0.136666
H	-0.7716734184	 2.0818819095	-0.2226760022	 0.14175
H	 0.5571228955	 1.9299443122	 0.9461557183	 0.136206
H	-2.892391973	-0.6553151041	-1.1221030778	 0.106095
H	-3.087154898	-1.0629820766	 0.5832016463	 0.098711
H	-3.7312120694	 1.1327171809	 0.0235805844	 0.29283
H	-1.092892142	-2.6672414101	 0.9173037438	 0.119889
H	-0.9980993211	-2.7151914768	-0.8488264247	 0.117895
H	 1.4014657343	-2.858740098	 0.1040269012	 0.251562
27.0381	49.3858	82.6718	147.1895	212.4988	240.0476	266.8379	283.4494	387.0042	402.3701	492.6655	518.3597	601.169	688.8579	766.0471	770.5302	900.3133	953.46	1042.3218	1061.8207	1070.16	1082.3355	1110.1609	1153.5971	1171.7856	1191.2624	1244.8113	1272.6319	1332.759	1334.5057	1410.6896	1426.8597	1469.4613	1481.0727	1486.8085	1503.3205	1510.1743	1733.4355	1816.4038	2936.8675	2950.303	2983.9355	3003.4079	3039.5555	3086.4889	3178.0741	3676.9878	3835.1348	27.0397	49.3862	82.6712	147.1897	212.4988	240.048	266.838	283.4493	387.004	402.3697	492.6654	518.3597	601.1689	688.8579	766.0473	770.5303	900.3133	953.4598	1042.3217	1061.8207	1070.16	1082.3355	1110.1609	1153.5972	1171.7855	1191.2618	1244.8108	1272.6312	1332.7589	1334.5057	1410.6897	1426.8596	1469.4612	1481.0726	1486.8086	1503.3197	1510.1734	1733.4356	1816.4035	2936.8676	2950.303	2983.9355	3003.4079	3039.5555	3086.4889	3178.0741	3676.9877	3835.1349
CC1=C(CO)CNC1=O	CC1=C(CO)CNC1=O	
InChI=1S/C6H9NO2/c1-4-5(3-8)2-7-6(4)9/h8H,2-3H2,1H3,(H,7,9)	InChI=1S/C6H9NO2/c1-4-5(3-8)2-7-6(4)9/h8H,2-3H2,1H3,(H,7,9)
