16
gdb 66286	2.01075	1.69508	1.41912	2.1144	70.27	-0.2341	-0.043	0.1912	1011.0831	0.123222	-437.85691	-437.848344	-437.8474	-437.889988	32.328	
O	 0.1853708854	 1.5494771883	 0.2519156757	-0.454941
C	-0.0337283334	 0.1800704848	 0.0397617535	 0.130155
C	-1.5148473594	-0.1906035227	-0.2163969346	-0.224895
N	-1.4825031353	-1.438141373	-0.9976933926	-0.29857
C	-0.3437833198	-1.3214706435	-1.9165460521	-0.280683
C	 0.5861943248	-0.2670509926	-1.316593102	 0.348707
O	 1.5595893056	 0.2493489097	-1.7942931948	-0.317241
C	 0.5388085777	-0.6675899176	 1.0922743165	 0.316258
C	 1.011894488	-1.3841539368	 1.9351656677	-0.497685
H	 1.0350870883	 1.7529680874	-0.1685817639	 0.293015
H	-2.0924067681	-0.3202922341	 0.6989440733	 0.128052
H	-1.9658462427	 0.6151986984	-0.8074680555	 0.12493
H	-1.3194266058	-2.2107822378	-0.3610639013	 0.234226
H	 0.1703714776	-2.2734400469	-2.0727911885	 0.144746
H	-0.6650216391	-0.9619783849	-2.9036578237	 0.147135
H	 1.4346885363	-1.9972695188	 2.6929576324	 0.206791
84.3745	125.0229	153.6048	236.4228	262.1173	336.2316	399.3458	415.3706	479.6122	545.0696	570.2965	621.3391	635.2203	654.5926	679.6736	709.6883	800.9314	879.5993	917.8205	987.0136	1051.7323	1066.4695	1099.3803	1101.8132	1181.5812	1224.2029	1281.0952	1305.1163	1345.3117	1388.6879	1457.878	1473.5245	1494.4343	1857.2132	2217.6262	3023.9054	3046.2012	3100.1425	3136.0763	3497.6772	3531.8824	3713.0516
OC1(CNCC1=O)C#C	O[C@]1(CNCC1=O)C#C	
InChI=1S/C6H7NO2/c1-2-6(9)4-7-3-5(6)8/h1,7,9H,3-4H2	InChI=1S/C6H7NO2/c1-2-6(9)4-7-3-5(6)8/h1,7,9H,3-4H2/t6-/m0/s1
