23
gdb 103938	2.97262	1.08129	0.95438	1.4688	86.22	-0.2542	0.0689	0.3231	1357.1839	0.204529	-388.266229	-388.256528	-388.255584	-388.300601	37.591	
C	-0.6764006216	 1.6648542165	-0.0299177834	-0.482972
C	 0.021755023	 0.310441691	 0.0320548894	 0.34372
C	-0.9653237166	-0.8426571994	-0.1813368019	-0.113031
O	-1.5551816558	-0.8578585735	-1.4723707806	-0.424791
C	 1.2935746459	 0.1470519057	-0.8633890253	-0.346306
C	 2.041780404	-0.3951642551	 0.3606658575	 0.401049
C	 2.782089269	-1.7004724886	 0.4334200245	-0.315192
C	 3.5158743098	-0.3917295177	 0.6271958658	-0.335291
C	 0.9070287009	 0.0446834006	 1.2950455321	-0.357199
H	 0.0301510146	 2.4818680626	 0.1470855556	 0.116969
H	-1.1260812084	 1.8391482882	-1.0153223398	 0.107383
H	-1.4696617992	 1.7412196083	 0.7244060039	 0.110775
H	-0.4376517315	-1.7979321968	-0.0900541669	 0.110396
H	-1.7339698958	-0.8162556886	 0.6093517546	 0.081008
H	-2.1307609746	-0.0907551436	-1.5448034594	 0.283531
H	 1.1799142174	-0.5198546047	-1.7222998839	 0.109045
H	 1.6867796261	 1.1066724799	-1.2156502784	 0.088979
H	 2.6265790537	-2.3314369587	 1.3033531105	 0.108134
H	 2.9471752867	-2.2471666984	-0.4898918899	 0.111542
H	 4.1783163422	-0.055257141	-0.1645243104	 0.109375
H	 3.8552821553	-0.1404564057	 1.6275009078	 0.108039
H	 1.1332257801	 0.9613876197	 1.849778119	 0.092698
H	 0.5284280149	-0.7024243307	 2.0016643191	 0.092139
50.43	113.8131	189.9028	218.1263	260.1117	283.6853	291.5286	318.9521	337.6229	365.3321	413.2585	471.1295	566.9644	707.9954	775.7192	819.7621	834.8987	878.7495	887.1272	907.1945	920.9405	938.877	986.5425	994.2489	1000.4616	1049.9586	1073.899	1075.0967	1097.8105	1132.6249	1154.2418	1171.2227	1187.4942	1229.6411	1236.2874	1260.0363	1294.4692	1326.6498	1377.9588	1379.3254	1407.3689	1421.9849	1462.786	1475.9484	1489.6793	1493.5358	1502.0962	1503.1788	1507.6007	2963.1675	3013.7399	3030.019	3040.2192	3071.6536	3074.4235	3079.0985	3093.6235	3096.9476	3117.0943	3121.3333	3194.5985	3209.8655	3827.7384
CC1(CO)CC2(CC2)C1	CC1(CO)CC2(CC2)C1	
InChI=1S/C8H14O/c1-7(6-9)4-8(5-7)2-3-8/h9H,2-6H2,1H3	InChI=1S/C8H14O/c1-7(6-9)4-8(5-7)2-3-8/h9H,2-6H2,1H3
