23
gdb 101462	2.95207	1.07543	0.87578	0.9965	87.76	-0.2338	0.0262	0.26	1421.2626	0.205255	-388.297611	-388.287698	-388.286754	-388.333159	36.392	
C	-0.0758781173	 1.405826338	 0.0465308245	-0.236549
O	-0.0409880835	-0.0002346326	 0.0861026209	-0.244227
C	-1.3153783529	-0.6366297596	 0.0509504327	 0.139199
C	-1.8967426513	-0.6390953677	-1.3650201864	-0.409621
C	-1.0961964096	-2.0556949061	 0.6125753726	-0.028732
C	-0.6210711794	-2.0529077755	 2.0934646987	-0.227805
C	-1.8509146044	-2.4668755202	 2.9447629526	-0.251754
C	-2.7832254038	-3.0757891742	 1.9255964276	-0.063459
C	-2.3717306033	-2.869450548	 0.6758508033	-0.085204
H	 0.950855064	 1.7569215324	 0.180353783	 0.124933
H	-0.4521096836	 1.7983787266	-0.909780314	 0.104523
H	-0.6989061627	 1.8209860717	 0.8548107961	 0.100962
H	-2.0047110813	-0.0967080137	 0.723543761	 0.059901
H	-2.8960272752	-1.0832146162	-1.3752406475	 0.118781
H	-1.9856734839	 0.3766129789	-1.7605962491	 0.113677
H	-1.2522455724	-1.2121359204	-2.0398989632	 0.119879
H	-0.3469701441	-2.5257811196	-0.0378068403	 0.076046
H	 0.1750748605	-2.7921809724	 2.2190589262	 0.099597
H	-0.2029770168	-1.0855817136	 2.3777111351	 0.106131
H	-1.5853496256	-3.1695478921	 3.7431707577	 0.101234
H	-2.3238507045	-1.6096531079	 3.4443346845	 0.102485
H	-3.689022022	-3.6047090566	 2.2032694638	 0.089116
H	-2.890681947	-3.2128877712	-0.2121726997	 0.090887
57.895	68.574	80.9729	164.9177	194.8834	223.9366	276.8402	297.5725	375.0014	425.7036	470.4792	507.5835	696.7756	732.7125	792.1937	808.932	857.033	881.5158	918.7993	952.6107	979.7957	991.6616	1019.6909	1041.0481	1079.0729	1114.373	1117.3743	1137.6192	1149.156	1181.1083	1199.221	1213.5822	1233.2309	1280.8319	1295.0237	1315.5697	1328.9112	1369.5518	1378.5498	1384.6418	1403.0835	1476.0503	1483.7964	1485.3346	1491.4901	1503.837	1504.5431	1511.2758	1687.4143	2948.7544	2973.3004	3008.4973	3018.1961	3020.2493	3040.7143	3045.9567	3068.0305	3105.4374	3111.4312	3116.5003	3117.212	3177.1155	3203.3558
COC(C)C1CCC=C1	CO[C@@H](C)[C@H]1CCC=C1	
InChI=1S/C8H14O/c1-7(9-2)8-5-3-4-6-8/h3,5,7-8H,4,6H2,1-2H3	InChI=1S/C8H14O/c1-7(9-2)8-5-3-4-6-8/h3,5,7-8H,4,6H2,1-2H3/t7-,8+/m0/s1
