19
gdb 50557	4.09764	0.94346	0.84894	2.5353	76.64	-0.2508	-0.0231	0.2277	1360.2589	0.158862	-423.030662	-423.022224	-423.021279	-423.064913	31.451	
O	-0.0555896729	-0.0310978165	-0.1091266793	-0.24934
C	 0.0301837164	 1.1609368835	 0.0299566772	 0.151931
C	 1.3110958292	 1.9587778639	 0.0010714068	-0.055693
C	 1.3282697856	 2.9943413202	-1.1528204658	-0.241656
C	 2.3869493087	 4.0119856472	-0.7006154137	-0.288857
C	 2.1524623672	 4.1255184647	 0.8007969392	 0.444377
C	 2.9029603019	 5.0290105151	 1.6764270573	-0.255008
O	 1.5641761474	 5.3420396694	 1.2797400961	-0.270425
C	 1.4958337539	 2.8228305251	 1.2768385343	-0.326434
H	-0.8800269482	 1.789229301	 0.1915503563	 0.071624
H	 2.1413964689	 1.2563260932	-0.1167407526	 0.093121
H	 1.5424120623	 2.5341058239	-2.1200489018	 0.114357
H	 0.3483222155	 3.4834360745	-1.2260490295	 0.114029
H	 3.3911547625	 3.6145172387	-0.8930583174	 0.108879
H	 2.3071893569	 4.985654155	-1.1890947676	 0.118172
H	 3.0331756393	 4.7786319726	 2.7290678829	 0.113246
H	 3.6779462232	 5.6713602059	 1.257941706	 0.112654
H	 0.5286350037	 3.0750239185	 1.7271335155	 0.124979
H	 2.0827356082	 2.3009207941	 2.0364745059	 0.120042
32.502	73.2921	148.575	265.8248	330.4865	348.9367	372.0016	406.8477	412.156	535.04	615.7075	738.0344	803.7044	843.5285	883.3162	901.5892	931.8183	956.6279	982.3541	1003.2168	1025.497	1074.5992	1092.1523	1129.2403	1161.1315	1187.2802	1192.7245	1227.0369	1243.8388	1274.0605	1295.058	1319.4993	1331.7605	1350.2635	1423.9132	1428.5719	1476.881	1479.2015	1498.1745	1533.0252	1835.872	2834.8802	3029.3756	3037.4011	3044.773	3069.3878	3073.436	3101.7421	3106.6539	3111.8129	3157.4679
O=CC1CCC2(CO2)C1	O=C[C@H]1CC[C@]2(CO2)C1	
InChI=1S/C7H10O2/c8-4-6-1-2-7(3-6)5-9-7/h4,6H,1-3,5H2	InChI=1S/C7H10O2/c8-4-6-1-2-7(3-6)5-9-7/h4,6H,1-3,5H2/t6-,7+/m0/s1
