20
gdb 15679	3.33816	1.61687	1.16883	2.6747	74.79	-0.2323	-0.0134	0.2189	1073.9234	0.177505	-349.051218	-349.042914	-349.04197	-349.084234	31.097	
C	 0.1902050982	 1.631661326	 0.1166682255	-0.390568
C	 0.0173714447	 0.1108325583	 0.050170169	-0.185943
C	 0.5539260387	-0.5253634503	-1.2394698091	-0.064759
C	 0.6911592087	-2.0587943299	-1.2279315478	-0.234263
C	 0.7206596575	-2.4558272267	-2.7183656038	-0.221496
C	-0.3034697078	-1.5124602723	-3.3670442345	-0.306389
C	-0.2931220978	-0.2509712786	-2.4942192345	 0.399139
O	-0.874751155	 0.7741861702	-2.7496782143	-0.319465
H	 1.2500504704	 1.9072243485	 0.0658689534	 0.105996
H	-0.3255689016	 2.1150913435	-0.7149321035	 0.151231
H	-0.2104528768	 2.028378297	 1.0548132804	 0.106608
H	 0.5301378684	-0.3557516207	 0.9009128693	 0.093548
H	-1.0444433902	-0.1464747396	 0.1556842308	 0.09869
H	 1.5446618823	-0.0945991478	-1.4610753932	 0.097673
H	 1.5715502803	-2.4005188084	-0.6773648643	 0.101745
H	-0.1880634403	-2.5007992492	-0.7404675502	 0.101791
H	 1.7188105203	-2.2689966743	-3.1315140332	 0.105279
H	 0.4958405565	-3.5126624362	-2.8810734908	 0.103136
H	-0.1181333915	-1.2650450729	-4.4151699628	 0.126604
H	-1.317668395	-1.9301446366	-3.3152134765	 0.131443
57.6046	114.0443	181.8698	202.4068	259.6824	305.3305	377.1817	454.6074	543.7625	569.1436	618.3012	693.3748	782.2904	834.6742	893.6213	908.2874	924.9124	968.502	1002.1949	1029.0833	1036.917	1077.7854	1144.4932	1159.0932	1173.9257	1199.4811	1231.3676	1272.109	1292.3231	1298.3411	1334.6952	1339.6341	1358.4122	1373.313	1408.7812	1448.2551	1486.4484	1494.6188	1497.3857	1506.0662	1516.5486	1832.9481	2974.6574	3017.202	3025.6039	3033.3303	3033.6528	3042.1156	3052.1174	3091.944	3095.6976	3098.0365	3106.1223	3141.3405
CCC1CCCC1=O	CC[C@H]1CCCC1=O	
InChI=1S/C7H12O/c1-2-6-4-3-5-7(6)8/h6H,2-5H2,1H3	InChI=1S/C7H12O/c1-2-6-4-3-5-7(6)8/h6H,2-5H2,1H3/t6-/m0/s1
