18
gdb 54634	3.90349	1.1327	0.94831	3.6725	80.6	-0.2303	-0.0465	0.1839	1242.7487	0.147639	-401.952941	-401.944698	-401.943754	-401.986192	30.909	
C	-0.0699982219	 1.5049687266	 0.0252784113	-0.488154
C	-0.0017683788	-0.0127719825	 0.0510094025	 0.290426
O	 0.0221149323	-0.628214895	 1.1009148164	-0.319411
C	 0.0313027801	-0.7053037666	-1.2550890904	 0.2022
C	 0.0223613436	-2.0436669591	-1.3883125934	-0.108749
N	 0.0736575328	-2.5197584799	-2.7216089611	-0.106252
C	-1.1797037673	-2.2017084082	-3.4611327032	-0.238895
C	-0.0175480536	-1.2841691645	-3.5494490891	-0.010498
C	 0.063068901	-0.062175215	-2.6353309648	-0.368139
H	 0.7934126422	 1.9214421112	-0.5066072481	 0.135884
H	-0.9649542941	 1.8434366759	-0.5098157758	 0.134134
H	-0.0891644948	 1.8853209203	 1.0468973065	 0.140324
H	-0.0140759619	-2.7621412962	-0.5794905146	 0.139426
H	-1.3986838097	-2.8708046185	-4.2873457321	 0.128518
H	-2.0354931751	-1.8998976023	-2.863644829	 0.12631
H	 0.576455841	-1.2947684589	-4.4573475957	 0.104808
H	-0.7554362447	 0.6493686541	-2.7972209419	 0.118559
H	 0.9953530391	 0.4882527286	-2.8136405672	 0.11951
62.909	130.6245	141.5656	183.3901	325.8796	338.8775	375.9279	470.116	509.9645	604.5602	616.4035	704.9724	777.1889	791.7423	864.6092	919.2502	947.3843	958.5309	965.5862	1034.5708	1059.1561	1066.559	1081.7938	1097.1726	1110.517	1165.7708	1190.0308	1253.6618	1275.3635	1299.584	1330.0597	1379.9307	1386.7694	1461.6679	1474.6824	1484.9065	1497.091	1633.2833	1765.7495	3022.5615	3031.6682	3051.6959	3090.0343	3115.1167	3153.4456	3164.8809	3209.7875	3228.9699
CC(=O)C1=CN2CC2C1	CC(=O)C1=CN2C[C@H]2C1	
InChI=1S/C7H9NO/c1-5(9)6-2-7-4-8(7)3-6/h3,7H,2,4H2,1H3	InChI=1S/C7H9NO/c1-5(9)6-2-7-4-8(7)3-6/h3,7H,2,4H2,1H3/t7-,8?/m1/s1
