20
gdb 115187	3.15077	1.09439	0.97782	4.1646	82.	-0.2386	-0.0319	0.2067	1297.1991	0.172866	-403.202637	-403.193907	-403.192963	-403.236298	33.041	
C	 0.0660378134	 1.6574331559	 0.0653399465	-0.39158
C	 0.1226239452	 0.127432698	 0.0820079073	-0.167198
C	 0.6814893227	-0.5016609769	-1.2167226949	-0.036613
C	 0.7628923039	-2.0338161373	-1.1314846726	-0.193884
N	-0.5565979168	-2.6291697804	-1.303354628	-0.324711
C	-1.4028421011	-2.2446606819	-2.3172393291	 0.383623
O	-2.3638400574	-2.9124278577	-2.6594389774	-0.380125
C	-1.0798614801	-0.9266929992	-2.9246472687	-0.142691
C	-0.1387470691	-0.1205618168	-2.4265184467	-0.076298
H	 1.0526366492	 2.0911402591	-0.1347959364	 0.113133
H	-0.623599208	 2.0285192078	-0.6990440238	 0.123294
H	-0.275275387	 2.0433093321	 1.0304420967	 0.119293
H	 0.7565471363	-0.2028649771	 0.9148221828	 0.09461
H	-0.8765533055	-0.2821574444	 0.2664772498	 0.117621
H	 1.7040008735	-0.1266083775	-1.3550531944	 0.08263
H	 1.4636044091	-2.4013765177	-1.8973783429	 0.104837
H	 1.1554966023	-2.3379996964	-0.1560648116	 0.108886
H	-0.7045080688	-3.5749831787	-0.982695385	 0.244997
H	-1.6967829604	-0.6546681973	-3.7734076898	 0.112823
H	 0.0314307185	 0.8570904664	-2.8697638618	 0.107355
65.6982	104.1776	175.2258	202.3797	249.5352	289.2715	361.8312	425.1178	458.8976	522.0498	573.8544	604.1841	710.157	757.0955	778.945	828.5644	858.5979	887.9753	939.9459	980.3808	1018.258	1024.8259	1060.4039	1103.6077	1133.0408	1153.9759	1161.637	1264.2008	1279.0047	1303.145	1322.7783	1355.5537	1364.0996	1403.9318	1409.1753	1414.7375	1467.7862	1488.7207	1499.4348	1507.6453	1512.4855	1686.8657	1784.2048	2976.76	3020.951	3023.8406	3032.2589	3069.971	3072.5922	3101.1638	3109.4506	3160.8028	3206.257	3611.953
CCC1CNC(=O)C=C1	CC[C@H]1CNC(=O)C=C1	
InChI=1S/C7H11NO/c1-2-6-3-4-7(9)8-5-6/h3-4,6H,2,5H2,1H3,(H,8,9)	InChI=1S/C7H11NO/c1-2-6-3-4-7(9)8-5-6/h3-4,6H,2,5H2,1H3,(H,8,9)/t6-/m1/s1
