14
gdb 20832	6.01195	1.30876	1.16105	3.3799	59.28	-0.2608	-0.0166	0.2442	1013.229	0.107586	-415.874988	-415.867585	-415.866641	-415.907852	26.26	
C	-0.8490023703	 0.9098342433	-0.1789113775	-0.383259
C	 0.5585501462	 0.3553978685	 0.1042169117	-0.29478
C	 1.2257537592	-0.1685018016	-1.1206653279	 0.438049
N	 1.5538160802	-1.3965964696	-1.4031524563	-0.393779
C	 2.1069605279	-1.2567428641	-2.6523834354	 0.43323
O	 2.5902504526	-2.2930821355	-3.3357776928	-0.399366
N	 2.1327079969	-0.0416581281	-3.1359265153	-0.20229
O	 1.5330917948	 0.6958182009	-2.0917415266	-0.203258
H	-0.8083457673	 1.7259143249	-0.9045970704	 0.144632
H	-1.5036880543	 0.1298941067	-0.5778316765	 0.135192
H	-1.294184445	 1.2911708217	 0.7436610866	 0.127108
H	 1.1867647034	 1.1451798435	 0.5314626645	 0.138513
H	 0.5174371473	-0.462746814	 0.8265492639	 0.140625
H	 2.4655065184	-3.0764403867	-2.786160098	 0.319383
23.6296	139.9411	203.5036	284.4802	319.7093	391.6641	416.4826	493.0374	621.0272	719.9305	767.7616	777.0058	805.1141	935.1476	970.1736	1036.4863	1054.5904	1081.4469	1107.8841	1220.3949	1263.6204	1338.1068	1354.14	1410.3505	1447.1384	1474.7944	1497.5832	1506.3387	1605.504	1676.308	3048.47	3051.8151	3110.2215	3124.4012	3134.61	3811.9723
CCC1=NC(O)=NO1	CCc1nc(O)no1	
InChI=1S/C4H6N2O2/c1-2-3-5-4(7)6-8-3/h2H2,1H3,(H,6,7)	InChI=1S/C4H6N2O2/c1-2-3-5-4(7)6-8-3/h2H2,1H3,(H,6,7)
