18
gdb 14179	3.69978	1.72561	1.68063	1.263	67.28	-0.2437	0.0769	0.3206	866.7114	0.153976	-384.928108	-384.920507	-384.919562	-384.959385	29.598	
C	-0.0447048473	 1.592947235	 0.0223255977	-0.475949
C	 0.0498669516	 0.0842519699	 0.0372511588	 0.408597
O	-1.1565047292	-0.558740268	-0.3087447777	-0.472054
C	 1.2960516952	-0.6864248309	-0.3558872651	-0.141996
C	 2.6437859495	 0.0080951232	-0.3008913753	-0.101689
O	 2.7084580418	 0.6682373744	 0.9630924165	-0.256575
C	 1.8690496748	-0.015155935	 1.8943184051	-0.104564
C	 0.791895249	-0.7044884975	 1.0797035346	-0.106728
H	 0.8868693424	 2.0605344854	 0.3442942467	 0.149113
H	-0.2726159407	 1.9505605017	-0.9900624252	 0.102899
H	-0.855257537	 1.9213887061	 0.6807561717	 0.123913
H	-1.3617248331	-0.3219853031	-1.2202751317	 0.277821
H	 1.1732350471	-1.5502725227	-0.9987407779	 0.090448
H	 3.4486002266	-0.7380338491	-0.4000074897	 0.095337
H	 2.7964375091	 0.7747832686	-1.0689025591	 0.105466
H	 2.4387300415	-0.7675250503	 2.4624515596	 0.096257
H	 1.4976179464	 0.7351973856	 2.6008544256	 0.109342
H	 0.2970457322	-1.5767215332	 1.4894123053	 0.100361
178.5965	215.9039	223.3603	238.6507	272.6582	324.1254	403.2144	436.6054	462.7685	672.8772	686.9896	749.8973	853.3657	859.3476	915.0436	954.7855	995.6142	999.6588	1008.4446	1028.1158	1089.6908	1101.7454	1111.8286	1121.7693	1182.7763	1222.426	1243.6903	1280.7691	1295.5017	1318.861	1356.8139	1386.5011	1412.3099	1454.6978	1497.4116	1502.671	1515.548	1526.0119	2973.8405	2981.6418	3023.9762	3054.9203	3061.0011	3087.1996	3140.8341	3180.7659	3191.924	3790.6853
CC1(O)C2COCC12	C[C@@]1(O)[C@H]2COC[C@@H]12	
InChI=1S/C6H10O2/c1-6(7)4-2-8-3-5(4)6/h4-5,7H,2-3H2,1H3	InChI=1S/C6H10O2/c1-6(7)4-2-8-3-5(4)6/h4-5,7H,2-3H2,1H3/t4-,5+,6+
