16
gdb 47368	2.48961	1.43841	1.14181	5.1876	68.89	-0.2792	-0.0115	0.2677	1090.7352	0.125441	-437.939662	-437.931735	-437.93079	-437.972813	29.138	
O	-0.0461809456	 0.0309683857	 0.5921279985	-0.298474
C	-0.0826281567	 1.1192345182	 0.0981260315	 0.412398
C	-1.3638374735	 1.922296913	-0.0651225263	-0.325591
C	-1.3050674468	 3.0724161273	-1.0749774366	-0.236424
C	 0.0009365767	 3.8393841095	-0.8814150158	-0.232427
C	 1.1838461433	 2.8829934502	-1.0661849589	-0.013662
O	 1.1096515767	 1.7081790818	-0.2476129976	-0.23288
C	 1.3237217275	 2.4782003894	-2.4799542004	 0.282381
N	 1.4232130273	 2.1824820312	-3.5921580959	-0.313002
H	-2.1585693758	 1.2074240986	-0.2881568663	 0.149252
H	-1.5801501392	 2.3181215332	 0.9364201179	 0.146505
H	-1.3519091456	 2.6836746476	-2.0986076305	 0.139144
H	-2.1676985364	 3.7317973988	-0.9460282071	 0.117514
H	 0.1012644513	 4.6658504475	-1.5905006052	 0.134677
H	 0.0585093445	 4.2583846316	 0.1295280791	 0.12188
H	 2.1182080325	 3.3699773164	-0.7707986462	 0.148708
68.7001	82.9875	168.9945	242.1376	328.681	406.1005	416.3826	483.4329	517.1071	592.2224	602.4365	709.6252	757.7068	825.0369	885.831	912.9242	945.7855	994.1262	1059.5331	1080.2562	1107.0988	1154.5415	1182.9445	1246.1084	1285.2965	1325.7315	1356.4087	1364.2544	1386.468	1391.1413	1457.9415	1481.7886	1502.048	1863.9547	2359.9647	3032.6561	3045.6426	3050.7398	3072.4196	3095.1638	3104.1463	3115.7811
O=C1CCCC(O1)C#N	O=C1CCC[C@@H](O1)C#N	
InChI=1S/C6H7NO2/c7-4-5-2-1-3-6(8)9-5/h5H,1-3H2	InChI=1S/C6H7NO2/c7-4-5-2-1-3-6(8)9-5/h5H,1-3H2/t5-/m1/s1
