14
gdb 57041	2.57276	1.33581	0.92116	5.0567	61.95	-0.2913	-0.0131	0.2782	1172.8202	0.100176	-473.841908	-473.833445	-473.832501	-473.875928	29.437	
O	-0.0129075139	 1.4575186429	-0.055533657	-0.406366
C	 0.0512443547	 0.0443760053	-0.0452588045	-0.030009
C	 0.7284615191	-0.4737940592	-1.248847178	 0.272261
N	 1.2948231	-0.8299502743	-2.1903391224	-0.303019
C	 0.7224637951	-0.4839161868	 1.2310206053	-0.216614
C	-0.0103951344	-0.1844818579	 2.5489057614	-0.103187
O	-0.2061775697	-1.6188576784	 2.775730179	-0.232235
C	 0.4300277063	-1.9484865623	 1.6070513453	 0.453141
O	 0.6113138727	-3.025462817	 1.1456560201	-0.301061
H	 0.8735119096	 1.8063403933	-0.2078901198	 0.301354
H	-0.9913869476	-0.2924976865	-0.0681542646	 0.154935
H	 1.7897285351	-0.2491145339	 1.2293809533	 0.130261
H	 0.5881511574	 0.2565075481	 3.3469106238	 0.136937
H	-0.9676876042	 0.3310220866	 2.4532942379	 0.143602
58.0145	97.4986	131.0556	198.8858	225.6758	302.6642	317.2738	382.1359	502.247	548.149	598.7753	693.8122	764.8971	855.9123	925.9733	959.9802	965.7751	1059.9	1087.3921	1112.308	1130.224	1158.3893	1197.645	1257.1621	1290.5388	1344.3372	1376.6998	1420.5013	1519.334	1945.7876	2362.2353	3057.9564	3083.4263	3094.1599	3146.6857	3798.664
OC(C#N)C1COC1=O	O[C@@H](C#N)[C@H]1COC1=O	
InChI=1S/C5H5NO3/c6-1-4(7)3-2-9-5(3)8/h3-4,7H,2H2	InChI=1S/C5H5NO3/c6-1-4(7)3-2-9-5(3)8/h3-4,7H,2H2/t3-,4+/m1/s1
