21
gdb 113889	2.75373	0.95421	0.82973	3.3436	79.81	-0.2399	0.055	0.2949	1491.6583	0.182558	-420.439358	-420.429291	-420.428347	-420.474949	37.114	
C	-0.0157543113	 1.3364829673	-0.0648114243	-0.378823
C	 0.370090171	-0.1467004127	-0.0839201353	-0.192752
C	 0.8105000724	-0.6514013157	 1.2732778995	 0.042436
C	-0.1953522989	-1.1573806447	 2.2814562955	-0.337206
C	 0.7746904202	-2.1146778096	 1.6348297554	 0.025089
N	 0.2466855755	-3.0681197268	 0.7015035586	-0.344082
C	 1.0653110801	-3.5689213418	-0.2958239399	 0.444017
N	 0.5236358525	-4.6646373091	-0.9627984696	-0.56556
O	 2.1614745758	-3.114020808	-0.5560037973	-0.383926
H	 0.8261464267	 1.9604180908	 0.2552228907	 0.113289
H	-0.3227201326	 1.6785056249	-1.0582731102	 0.108509
H	-0.8445959726	 1.5220835717	 0.626914618	 0.112219
H	-0.4772152422	-0.7462704602	-0.433862762	 0.090488
H	 1.1814795816	-0.31469649	-0.8016354264	 0.118865
H	 1.6628161418	-0.1186667114	 1.6881206823	 0.085512
H	-0.0689050178	-0.9282112049	 3.3335866347	 0.112578
H	-1.2294652835	-1.215278723	 1.9552222985	 0.108339
H	 1.6002187586	-2.4762392964	 2.2445367392	 0.097595
H	-0.4556935714	-3.6965312776	 1.0632054033	 0.23852
H	-0.4808684287	-4.7018606172	-1.0552535473	 0.245526
H	 1.0168777629	-4.8698607454	-1.8187575234	 0.259368
56.8546	76.0136	93.0492	153.689	192.0172	224.0482	291.1021	337.1437	395.595	431.4286	438.2537	505.0562	556.0606	591.5339	690.869	767.9327	785.3366	800.8129	839.5596	852.1073	946.6061	965.2253	1022.0398	1034.2276	1060.5151	1081.4978	1105.7899	1121.4794	1144.9534	1188.7054	1201.2232	1269.8773	1290.4555	1318.9322	1340.9752	1402.7121	1410.2542	1426.2948	1483.1001	1493.825	1497.9801	1510.0751	1516.5156	1625.8075	1808.9617	3029.0693	3039.6236	3070.3453	3098.6917	3101.4733	3116.0208	3127.8824	3138.9138	3214.7417	3570.1252	3596.2784	3683.8719
CCC1CC1NC(N)=O	CC[C@H]1C[C@H]1NC(=O)N	
InChI=1S/C6H12N2O/c1-2-4-3-5(4)8-6(7)9/h4-5H,2-3H2,1H3,(H3,7,8,9)	InChI=1S/C6H12N2O/c1-2-4-3-5(4)8-6(7)9/h4-5H,2-3H2,1H3,(H3,7,8,9)/t4-,5+/m0/s1
