19
gdb 59328	3.36997	1.12883	0.89626	4.7192	78.4	-0.2668	-0.0435	0.2233	1310.2586	0.158785	-423.086667	-423.077862	-423.076918	-423.12037	32.901	
C	 0.0625988167	 1.5248317206	 0.0331486306	-0.395182
C	-0.0366823802	-0.0057701651	 0.0013868574	 0.019311
C	-1.5007590471	-0.4661599506	 0.0225629123	-0.401788
C	 0.7004646337	-0.5680695924	-1.2307331901	 0.064852
O	 2.0653553868	-0.1282008567	-1.2316079982	-0.23797
C	 2.9196155199	-1.2045036775	-1.2734759525	 0.424314
O	 4.111396669	-1.0829493666	-1.2726840661	-0.34586
C	 2.081957499	-2.4273422692	-1.3183456051	-0.241005
C	 0.8004414466	-2.0676419804	-1.3006562045	-0.080684
H	 1.1035806212	 1.8527181817	 0.0073117619	 0.144498
H	-0.4553763203	 1.9673540066	-0.8262415359	 0.112783
H	-0.403621821	 1.9193029723	 0.9412310322	 0.114157
H	 0.4750111343	-0.4090595334	 0.8849386712	 0.087937
H	-2.0288267167	-0.1447458568	-0.8831682793	 0.118863
H	-1.5965260207	-1.5530801445	 0.1021732464	 0.115731
H	-2.0223315941	-0.0270904164	 0.8780364098	 0.125114
H	 0.2236399095	-0.1684689263	-2.13906817	 0.106837
H	 2.5128028142	-3.4166670575	-1.3600861286	 0.134994
H	-0.0658167506	-2.7144408278	-1.3337206515	 0.133098
70.3037	106.0031	175.0265	214.8394	236.5674	273.5339	328.5828	398.8064	412.6263	482.7579	524.3546	700.3454	709.3205	800.6748	829.21	860.8462	894.8705	916.7173	934.6155	966.5263	976.5469	1014.0305	1056.4627	1110.0832	1132.4719	1152.8086	1165.8873	1193.0695	1288.3247	1326.6336	1349.7332	1352.6903	1376.4096	1400.7094	1422.2376	1488.4465	1491.7414	1504.0729	1513.9252	1661.7867	1871.4933	2993.0129	3026.198	3030.5105	3036.4161	3095.7161	3101.1298	3109.9485	3134.5393	3226.4331	3258.7068
CC(C)C1OC(=O)C=C1	CC(C)[C@H]1OC(=O)C=C1	
InChI=1S/C7H10O2/c1-5(2)6-3-4-7(8)9-6/h3-6H,1-2H3	InChI=1S/C7H10O2/c1-5(2)6-3-4-7(8)9-6/h3-6H,1-2H3/t6-/m0/s1
