19
gdb 22288	3.91469	1.01267	0.98996	1.1214	81.47	-0.2259	0.0019	0.2278	1284.498	0.157302	-419.122904	-419.113808	-419.112863	-419.15627	34.731	
C	-0.0746127575	 1.5638359116	-0.025011387	-0.472215
C	 0.0456002085	 0.0523748927	-0.0807215909	 0.324759
C	-1.0767529132	-0.6705535055	 0.6425954165	-0.444812
C	 0.6033806909	-0.6786246163	-1.2598679195	-0.180852
N	 1.3268806498	-0.6612436469	 0.1055362076	-0.171645
C	 2.4270599101	 0.1598968771	-0.5270811103	-0.267263
C	 1.7393513224	 0.0508455948	-1.8711840397	 0.429272
N	 2.039786633	 0.2388330762	-3.0874946331	-0.263909
O	 3.2824825216	 0.8924202822	-3.193970831	-0.392435
H	 0.630085566	 2.0816924776	-0.6765961382	 0.135177
H	-1.0818649208	 1.859429838	-0.3349948228	 0.126795
H	 0.072154461	 1.919437625	 1.0013550484	 0.125018
H	-2.0438640397	-0.4511127958	 0.1782871849	 0.117911
H	-0.9147017381	-1.7508558787	 0.6291443207	 0.130773
H	-1.1201716564	-0.3492453132	 1.6886438834	 0.123707
H	 0.1338176548	-1.5685581336	-1.6659399107	 0.106646
H	 2.583381393	 1.149121862	-0.0904588145	 0.125144
H	 3.368821741	-0.3948179269	-0.5019180413	 0.139486
H	 3.4034671836	 0.9435159896	-4.1480761423	 0.308443
88.6412	162.6127	170.299	220.862	244.2757	299.4221	322.6985	349.0243	381.4607	442.5407	467.8539	506.0514	599.7089	639.6928	717.1702	799.4416	847.6412	907.228	960.1753	969.5816	995.3274	1003.5853	1021.2671	1032.0979	1060.7869	1132.7772	1143.0459	1187.132	1236.3427	1266.1496	1300.366	1374.6807	1409.0727	1416.2647	1422.6031	1472.6473	1483.9838	1486.4647	1503.857	1508.5411	1789.244	3034.9651	3039.0844	3065.607	3097.133	3102.6193	3114.1483	3126.0108	3136.0261	3169.8739	3819.4772
CC1(C)C2N1CC2=NO	CC1(C)[C@@H]2N1CC2=NO	
InChI=1S/C6H10N2O/c1-6(2)5-4(7-9)3-8(5)6/h5,9H,3H2,1-2H3	InChI=1S/C6H10N2O/c1-6(2)5-4(7-9)3-8(5)6/h5,9H,3H2,1-2H3/t5-,8?/m1/s1
