15
gdb 97264	2.03801	1.25886	1.05307	5.6565	74.56	-0.2647	-0.0148	0.2499	1216.8447	0.110729	-413.010099	-413.000221	-412.999277	-413.044939	34.407	
C	-0.0792032481	 1.6729273358	-0.3579344531	-0.388033
C	 0.0345566031	 0.1751811963	 0.0206401522	-0.018285
N	 0.7875696223	 0.0610652403	 1.2613132712	-0.269267
C	 0.3394363938	-0.6640240332	 2.2156060227	 0.130172
N	 1.0358468084	-0.8412217651	 3.3614387109	-0.502166
C	-1.3317609769	-0.4076867415	 0.0764220842	 0.274819
N	-2.3929925652	-0.8473481264	 0.2028421243	-0.338279
C	 0.7844039915	-0.5336262955	-1.0469062613	 0.317171
N	 1.3869806675	-1.0654275427	-1.8760143657	-0.329514
H	 0.9266614304	 2.0936775427	-0.3957083267	 0.154405
H	-0.5697920952	 1.7968517945	-1.3255646053	 0.14741
H	-0.6553292842	 2.1875456166	 0.4136171547	 0.142303
H	-0.6143500701	-1.2017012927	 2.187637815	 0.13369
H	 1.8829870538	-0.3147071981	 3.5021907068	 0.272026
H	 0.5956601889	-1.257814421	 4.1617015101	 0.273548
64.1742	133.4363	142.9741	168.4086	201.576	222.5712	230.0301	241.9385	325.0512	406.1871	474.6483	491.4121	530.8371	577.8771	599.1179	637.6193	735.4499	906.9942	929.7715	1033.5083	1063.3816	1130.8881	1171.5628	1190.9425	1327.3803	1402.4787	1420.1756	1480.2784	1484.9096	1628.7863	1740.8294	2348.6203	2363.476	3060.7123	3074.9365	3148.2849	3156.9072	3610.3045	3746.0447
CC(N=CN)(C#N)C#N	CC(N=CN)(C#N)C#N	
InChI=1S/C5H6N4/c1-5(2-6,3-7)9-4-8/h4H,1H3,(H2,8,9)	InChI=1S/C5H6N4/c1-5(2-6,3-7)9-4-8/h4H,1H3,(H2,8,9)
