17
gdb 69569	2.90169	1.4831	1.17516	5.061	74.9	-0.2254	-0.0216	0.2038	1081.144	0.135372	-417.945678	-417.937402	-417.936458	-417.978453	31.136	
C	-0.0889345885	 1.5473051421	 0.0507429029	-0.510058
C	 0.1135093577	 0.0670264859	-0.0052181405	 0.203683
N	-0.7635173929	-0.9056293983	 0.7349609221	-0.364378
C	 0.6934625832	-0.9230907428	 0.976280286	-0.262366
C	 1.279733778	-1.7635750696	-0.1437267615	 0.291875
C	 2.6054339056	-2.4283345992	-0.195114863	-0.312227
N	 1.3635826218	-3.2074938296	-0.30168819	-0.350822
C	 0.7129227095	-0.7506439615	-1.1468213131	 0.362095
O	 0.8613066372	-0.5584183752	-2.3176356118	-0.311743
H	 0.7844802946	 2.0730972649	-0.3468660224	 0.141682
H	-0.956052158	 1.8429272588	-0.5491691349	 0.147432
H	-0.2555854426	 1.8872769709	 1.0785495807	 0.121216
H	-1.1932998618	-0.3630711106	 1.486963679	 0.233276
H	 1.1244986103	-0.7150810674	 1.9478013106	 0.110955
H	 3.1898363478	-2.3734801257	-1.1090573128	 0.141172
H	 3.1840949216	-2.4682816629	 0.7250117659	 0.117971
H	 1.1423900964	-3.6660674098	 0.5795275927	 0.240239
91.5581	166.7261	180.4596	219.6605	227.2226	283.002	323.5875	449.0647	534.7488	546.5328	651.0878	751.4071	762.8296	794.5378	859.6984	903.0679	916.3308	930.1918	961.7013	983.5965	1017.6832	1029.3988	1053.2336	1105.2521	1127.008	1136.9018	1231.6451	1257.9116	1293.7773	1317.5285	1402.6976	1424.1966	1432.9721	1479.3964	1494.9836	1509.3002	1894.1647	3032.7026	3099.1688	3105.022	3107.5781	3195.4666	3196.853	3443.2451	3496.1825
CC12NC1C1(CN1)C2=O	C[C@]12N[C@H]1[C@]1(CN1)C2=O	
InChI=1S/C6H8N2O/c1-5-3(8-5)6(2-7-6)4(5)9/h3,7-8H,2H2,1H3	InChI=1S/C6H8N2O/c1-5-3(8-5)6(2-7-6)4(5)9/h3,7-8H,2H2,1H3/t3-,5+,6-/m1/s1
