18
gdb 85668	2.52456	1.26629	1.09962	3.7521	72.79	-0.2743	0.0292	0.3035	1161.8776	0.145503	-439.090999	-439.081412	-439.080468	-439.124999	35.485	
C	-0.123016492	 1.525746853	-0.0699682576	-0.453961
C	-0.0355330828	 0.0068309204	-0.0841609554	 0.353135
O	-1.2495769332	-0.5918565761	-0.4581929638	-0.46699
C	 1.1579997066	-0.549101003	-0.8982388508	 0.105061
O	 1.6071350559	 0.2940008428	-1.9252796302	-0.42689
C	 1.9919928483	-0.6638688168	 0.406836891	-0.296798
C	 0.6546460009	-0.6150945564	 1.203693819	-0.195358
C	 0.6051437377	 0.1199693045	 2.4508430012	 0.267205
N	 0.5544925852	 0.7327490194	 3.4310709182	-0.337005
H	 0.8318451277	 1.9889685038	 0.1877941785	 0.139928
H	-0.4170978528	 1.8818217977	-1.0597490535	 0.141729
H	-0.8607399545	 1.8548748069	 0.6706973464	 0.126025
H	-1.9766583022	-0.0725375581	-0.0980852616	 0.285862
H	 0.8819485059	-1.5427328914	-1.2743579268	 0.08941
H	 2.1958439622	-0.2021542145	-2.5012624937	 0.292093
H	 2.6158654835	-1.5472567406	 0.5472816155	 0.115542
H	 2.5890957087	 0.2358768524	 0.5669537156	 0.131779
H	 0.2485127549	-1.6186355239	 1.352993018	 0.129234
85.6888	134.6436	177.0773	191.097	236.9264	252.6184	271.3613	292.5801	351.7078	392.8582	444.9087	493.4017	541.1838	599.0012	609.2939	737.6946	830.6234	889.057	904.0155	973.5871	1031.2544	1051.8957	1094.8502	1118.3706	1130.7942	1157.7153	1169.0852	1195.0675	1239.1556	1284.8641	1306.1709	1341.5651	1384.1062	1413.0003	1444.559	1481.6607	1491.6476	1499.1399	2346.894	3025.0765	3041.2808	3082.8359	3085.6334	3116.3007	3139.6583	3145.3138	3806.553	3834.7033
CC1(O)C(O)CC1C#N	C[C@@]1(O)[C@@H](O)C[C@H]1C#N	
InChI=1S/C6H9NO2/c1-6(9)4(3-7)2-5(6)8/h4-5,8-9H,2H2,1H3	InChI=1S/C6H9NO2/c1-6(9)4(3-7)2-5(6)8/h4-5,8-9H,2H2,1H3/t4-,5-,6-/m0/s1
