23
gdb 123003	3.07028	0.90133	0.77179	1.0999	83.67	-0.2403	0.091	0.3313	1592.8825	0.202676	-425.393766	-425.383055	-425.38211	-425.430807	38.49	
C	 0.1204807918	 0.9564470137	-0.6516298591	-0.225588
O	 0.1208341824	-0.3882572505	-0.2384356385	-0.223638
C	 0.7712784486	-0.5863559423	 0.9979067657	-0.053471
C	 0.8264182892	-2.0741920247	 1.2909198557	-0.091386
O	 1.7775234604	-2.686672927	 0.4345241518	-0.291508
C	 1.3643376493	-3.8763402311	-0.1863105883	 0.442567
C	 1.3537467663	-5.0877061698	 0.7192902449	-0.451004
C	 0.3575520133	-3.7358230305	-1.3020571386	-0.323325
C	 1.8213424533	-3.9961428806	-1.6081640276	-0.31067
H	 1.143201129	 1.3432818907	-0.7840765115	 0.106543
H	-0.4027372217	 1.0054564574	-1.6097046609	 0.126847
H	-0.4000088947	 1.6063821915	 0.0701460735	 0.102009
H	 1.7964449079	-0.182672543	 0.9682012004	 0.096457
H	 0.2299845643	-0.0683387355	 1.8087930312	 0.080094
H	 1.1110290452	-2.2244821807	 2.3427867936	 0.092321
H	-0.1722017308	-2.5022422139	 1.1401758004	 0.108469
H	 0.6292453904	-4.9712651869	 1.5335435244	 0.113352
H	 1.0843473356	-5.9895224956	 0.1618846265	 0.114193
H	 2.3426045349	-5.2401553242	 1.1647784678	 0.121551
H	-0.3563404537	-4.5364032703	-1.4655219338	 0.103817
H	-0.0141515277	-2.7347696009	-1.4878687287	 0.13665
H	 2.3993756844	-3.1678789458	-2.0005170092	 0.120272
H	 2.1115156524	-4.9744009297	-1.9761405498	 0.105446
26.4562	58.0169	89.2496	136.8901	206.1436	228.9208	235.3772	281.0362	300.2139	327.0296	367.8108	409.3174	515.2897	542.9428	710.7486	783.0542	851.088	856.3126	875.1409	930.6695	965.9174	982.7158	1037.096	1045.5908	1060.8718	1079.4213	1110.6522	1120.8391	1146.7413	1168.9451	1187.9021	1192.3476	1227.3579	1263.2437	1285.8574	1312.31	1341.2351	1403.187	1416.7722	1426.8344	1451.8255	1477.771	1484.1119	1485.329	1487.3672	1491.6679	1498.3368	1508.0794	1521.6833	2952.0408	2970.1462	2992.2725	2999.0662	3013.0785	3028.7197	3056.5672	3090.7924	3110.0622	3113.6288	3131.3846	3137.1004	3221.448	3234.361
COCCOC1(C)CC1	COCCOC1(C)CC1	
InChI=1S/C7H14O2/c1-7(3-4-7)9-6-5-8-2/h3-6H2,1-2H3	InChI=1S/C7H14O2/c1-7(3-4-7)9-6-5-8-2/h3-6H2,1-2H3
