14
gdb 13969	6.07951	1.25138	1.15207	2.4418	58.66	-0.2531	-0.007	0.2461	994.3941	0.105765	-419.638812	-419.631707	-419.630763	-419.670687	25.554	
O	 0.0335216396	-0.0155228809	-0.184890532	-0.260651
C	 0.0970330052	 1.1688849951	-0.2929353709	 0.154431
O	 1.0298016097	 1.9058571934	 0.36769091	-0.221749
C	 0.9831252402	 3.2867427468	 0.1972782391	 0.333033
C	 1.1243246605	 3.9987538057	-1.1298247453	-0.350986
C	 2.0957664819	 4.2748467286	-0.0124317181	 0.031485
O	 1.5423553228	 5.1963383171	 0.9276972195	-0.278412
C	 0.4915172948	 4.2505986145	 1.2717510185	-0.137766
H	-0.563416658	 1.7902124866	-0.9237470106	 0.093981
H	 1.5272743213	 3.376318268	-1.9234640738	 0.133969
H	 0.413760527	 4.7591158682	-1.4422111989	 0.128556
H	 3.1721668926	 4.1785384863	-0.0776352172	 0.129392
H	-0.5120834602	 4.6769882976	 1.1663257271	 0.114996
H	 0.6373613925	 3.8597619029	 2.2842405927	 0.129722
72.3956	142.9227	166.1475	304.6487	369.6511	385.6535	452.7478	514.804	742.248	779.1614	876.896	924.0179	947.442	986.069	995.5066	1019.4623	1048.1612	1061.7388	1082.9752	1107.4662	1139.2672	1173.0293	1228.9115	1284.1555	1303.4088	1391.1659	1418.0672	1476.1241	1512.5989	1876.1868	2984.8672	3035.5727	3093.1045	3115.6271	3200.8027	3212.5962
O=COC12CC1OC2	O=CO[C@]12C[C@H]1OC2	
InChI=1S/C5H6O3/c6-3-8-5-1-4(5)7-2-5/h3-4H,1-2H2	InChI=1S/C5H6O3/c6-3-8-5-1-4(5)7-2-5/h3-4H,1-2H2/t4-,5+/m1/s1
