17
gdb 41424	3.33758	1.94944	1.54892	1.9758	69.95	-0.2398	0.0689	0.3088	868.5233	0.138397	-421.758239	-421.752098	-421.751154	-421.788427	25.916	
C	 0.0055354748	 1.4573451262	-0.0195510639	-0.179654
O	 1.4591264682	 1.4046521765	-0.044553929	-0.306402
C	 1.476445552	-0.0026068868	 0.3368248342	 0.058796
C	 1.7338468755	-1.0083865301	-0.7597328099	-0.107678
C	 0.6332953676	-2.0882369555	-0.6569960914	-0.100678
C	-0.2584891557	-2.1756463057	 0.5963696098	-0.117404
O	-0.89048017	-0.8800683423	 0.7222162755	-0.31181
C	-0.0409505132	-0.0584379787	-0.0177410978	 0.385864
C	 0.3365048794	-0.7925160491	-1.3251015938	-0.130311
H	-0.3656310022	 1.9107552815	 0.9091789363	 0.110801
H	-0.4098267651	 1.9846936152	-0.8841617442	 0.109696
H	 1.8912539344	-0.1372365948	 1.3399933252	 0.076854
H	 2.65210249	-1.202694244	-1.3021635924	 0.093082
H	 0.7937918022	-2.9834803191	-1.2453293858	 0.101349
H	-1.0431726707	-2.9292258093	 0.4783244276	 0.114199
H	 0.3067502401	-2.3975040343	 1.5103592652	 0.107733
H	-0.0207995374	-0.6223214397	-2.3311655954	 0.095562
206.3773	268.0472	328.9864	416.9323	440.5394	534.0616	689.5832	719.8441	746.1484	772.6067	792.6089	858.2484	885.0605	923.3568	958.5562	971.6975	974.5831	995.773	1015.2577	1030.9363	1038.5843	1066.9696	1106.167	1111.6687	1141.967	1176.3304	1191.5314	1222.3648	1241.6881	1301.3875	1305.1869	1321.9046	1346.3754	1368.4352	1398.7371	1513.7532	1517.0848	3015.4441	3022.1849	3066.2278	3079.3648	3080.2027	3178.1881	3194.2899	3213.9339
C1OC2C3C4COC12C34	C1O[C@@H]2[C@H]3[C@H]4CO[C@@]12[C@@H]34	
InChI=1S/C7H8O2/c1-3-4-5(3)7(9-1)2-8-6(4)7/h3-6H,1-2H2	InChI=1S/C7H8O2/c1-3-4-5(3)7(9-1)2-8-6(4)7/h3-6H,1-2H2/t3-,4+,5-,6-,7-/m1/s1
