19
gdb 74494	2.85924	1.33991	1.00476	1.6408	79.87	-0.238	0.0083	0.2463	1212.0111	0.159112	-423.013988	-423.005669	-423.004725	-423.046769	31.926	
C	 0.0345001522	 1.5086045204	-0.0752348271	-0.476767
C	-0.0216149203	 0.0121513849	 0.0326694813	 0.257207
C	-1.1579195807	-0.6881706297	 0.0713235415	-0.214956
C	-1.1559163475	-2.1680998114	 0.1131278973	 0.393332
C	-2.1578089927	-2.9164848704	 0.8920339668	-0.230124
O	-2.2624489913	-2.8273302328	-0.5298853439	-0.28309
C	 0.2029674521	-2.7653700631	-0.2025084895	-0.181887
O	 1.2209275518	-2.0593478803	 0.4824175208	-0.242127
C	 1.307903796	-0.7056285393	 0.0844123672	-0.155907
H	 0.6070440597	 1.8207267048	-0.9582865114	 0.129477
H	-0.9660812375	 1.9412085535	-0.1513310319	 0.129359
H	 0.5359272693	 1.9521621125	 0.7944871688	 0.128739
H	-2.1281021351	-0.198664216	 0.0439633068	 0.090801
H	-1.9037621162	-3.9004256392	 1.2858992951	 0.114409
H	-2.9211786338	-2.3764471614	 1.4512394664	 0.112664
H	 0.268263354	-3.8084818699	 0.1160907403	 0.11281
H	 0.3604560217	-2.7274691259	-1.2932524535	 0.100116
H	 1.8024315739	-0.6227561586	-0.9022854867	 0.099476
H	 1.9709959946	-0.219368238	 0.8100284719	 0.116468
102.9844	143.9247	187.2222	240.1112	271.915	363.5894	390.9308	396.1409	448.4036	469.109	526.8973	585.2893	803.5541	842.8827	864.0442	899.5596	926.4996	954.9278	964.9625	1000.491	1032.581	1071.867	1094.5853	1129.3355	1137.1939	1156.1226	1181.0049	1240.3272	1301.3053	1310.3305	1331.6303	1366.798	1405.7665	1415.5037	1431.2806	1478.3496	1482.93	1489.4398	1496.3168	1525.9959	1736.0599	2926.7625	2972.7047	3016.9939	3049.9842	3063.2265	3074.8579	3098.5318	3116.8265	3160.6263	3163.4095
CC1=CC2(CO2)COC1	CC1=C[C@]2(CO2)COC1	
InChI=1S/C7H10O2/c1-6-2-7(5-9-7)4-8-3-6/h2H,3-5H2,1H3	InChI=1S/C7H10O2/c1-6-2-7(5-9-7)4-8-3-6/h2H,3-5H2,1H3/t7-/m1/s1
