14
gdb 42311	3.44096	1.25324	0.92925	3.6359	71.77	-0.2688	-0.0736	0.1952	1165.325	0.102414	-432.910127	-432.902207	-432.901263	-432.943477	27.481	
O	 0.0194860622	-0.0618312681	 0.0037507817	-0.335758
C	-0.0344134756	 1.1490481459	 0.0077365493	 0.357988
C	 1.1887262836	 1.97219441	 0.0014986014	 0.22339
N	 2.1673665053	 2.58638504	-0.0036290789	-0.320347
N	-1.1922844454	 1.8668782868	 0.0181301519	-0.143629
C	-2.5172433195	 1.2272677484	 0.025513252	-0.195303
C	-3.4512936603	 2.4707478133	 0.0353559938	-0.180962
N	-2.5819744923	 3.6606883889	 0.0327170904	-0.242222
C	-1.3796999907	 3.2596770278	 0.023307197	 0.088496
H	-2.6310468394	 0.5962549713	-0.8592197782	 0.148668
H	-2.618878167	 0.5914554015	 0.9082929911	 0.148658
H	-4.1062154362	 2.5033280659	-0.8402415797	 0.137045
H	-4.0941882962	 2.4984220199	 0.9199861161	 0.137044
H	-0.5101817485	 3.9068980285	 0.0191309221	 0.176931
78.5118	102.458	132.0568	152.7048	253.426	335.2598	471.9847	502.8573	503.3184	666.1783	750.8239	777.2043	821.0184	890.0112	950.3519	951.6603	965.7188	1017.7161	1108.5253	1217.9306	1226.9991	1246.3287	1316.9709	1334.0801	1364.9586	1422.3542	1493.7683	1519.5527	1704.0146	1768.1206	2350.5179	3059.2822	3071.9068	3089.9828	3117.013	3219.2
O=C(C#N)N1CCN=C1	O=C(C#N)N1CCN=C1	
InChI=1S/C5H5N3O/c6-3-5(9)8-2-1-7-4-8/h4H,1-2H2	InChI=1S/C5H5N3O/c6-3-5(9)8-2-1-7-4-8/h4H,1-2H2
