18
gdb 118395	1.61596	1.28789	0.74918	2.8465	74.05	-0.2714	-0.0497	0.2217	1485.6892	0.144003	-439.100914	-439.090557	-439.089612	-439.138347	34.813	
C	-0.288299498	 1.7850623036	 0.1596730677	-0.386286
C	-0.418945938	 0.3263957278	 0.5579996256	-0.058021
O	-1.2422672576	-0.3230319479	-0.4132059609	-0.265745
C	-1.3460776528	-1.715967878	-0.3053102645	 0.013346
C	-2.4644723987	-2.2045210198	 0.6430734684	-0.344232
C	-2.1176920493	-2.1218580726	 2.0569832445	 0.258506
N	-1.8288929976	-2.0581424147	 3.1745132677	-0.312163
C	-1.5999988096	-2.238682791	-1.7223534225	 0.15309
O	-2.1942197557	-3.2522944792	-1.9741667406	-0.239526
H	 0.341130465	 2.315265988	 0.880071552	 0.125909
H	 0.1627193789	 1.8764736156	-0.8323821347	 0.127301
H	-1.269496119	 2.2673081287	 0.1379126054	 0.132454
H	 0.566844904	-0.1634686228	 0.584975013	 0.098649
H	-0.8607448093	 0.2334404888	 1.557818448	 0.129033
H	-0.3850456444	-2.1572359959	 0.0155285861	 0.115926
H	-3.3657846785	-1.6126014951	 0.4530173063	 0.164245
H	-2.6949947778	-3.2429280361	 0.3823861053	 0.178439
H	-1.1652141717	-1.5834076093	-2.5056139867	 0.109075
25.5133	66.3632	79.9524	95.5328	150.2821	199.7987	240.3465	247.3264	352.8645	390.4148	402.3739	451.2205	543.4167	643.1907	813.8913	820.9228	855.7509	926.9448	969.6996	1046.5293	1064.221	1077.6191	1145.4474	1153.849	1183.0557	1237.8672	1267.1632	1300.9435	1341.3167	1349.2964	1387.102	1405.0026	1440.5783	1454.2108	1483.034	1498.9062	1528.0918	1838.7709	2359.335	2927.5907	2951.4755	2987.1333	3047.4643	3050.1477	3056.6455	3102.5861	3124.2515	3124.7258
CCOC(CC#N)C=O	CCO[C@@H](CC#N)C=O	
InChI=1S/C6H9NO2/c1-2-9-6(5-8)3-4-7/h5-6H,2-3H2,1H3	InChI=1S/C6H9NO2/c1-2-9-6(5-8)3-4-7/h5-6H,2-3H2,1H3/t6-/m0/s1
