15
gdb 98920	7.41532	0.52521	0.49803	5.4603	74.51	-0.2635	-0.0622	0.2013	2058.441	0.107749	-457.738769	-457.72841	-457.727466	-457.777036	33.408	
O	 0.192174517	 1.3704841995	 0.0379981517	-0.391655
C	-0.0080153205	-0.0038967876	-0.1316629952	-0.172342
C	-1.4572458727	-0.3530277706	 0.1873122792	 0.386676
O	-2.3062054517	 0.4678304437	 0.3928824457	-0.251614
C	-1.7273256587	-1.8736672849	 0.2368185476	-0.499394
C	-3.1264906471	-2.2310467875	 0.1162816239	 0.111829
C	-4.2889952885	-2.5354186549	 0.0088884866	 0.062418
C	-5.6893191755	-2.853098971	-0.1103539243	 0.019766
O	-6.1221948817	-3.9519048882	-0.3721566325	-0.228899
H	 1.0972433792	 1.577171819	-0.2128856654	 0.297782
H	 0.1801688856	-0.3416621213	-1.1670965727	 0.118513
H	 0.6419058723	-0.6194650789	 0.515939502	 0.110212
H	-1.1288291542	-2.3855359926	-0.528141861	 0.155689
H	-1.3367804379	-2.234153745	 1.2002000896	 0.174232
H	-6.3630494956	-1.9895514897	 0.0605083146	 0.106788
20.6032	35.7028	59.7932	99.1396	157.4843	184.1156	222.2161	239.1599	344.7871	378.7377	409.3769	458.6363	595.0396	685.2663	794.3034	835.3398	867.4222	1011.4306	1022.9774	1042.9825	1150.1805	1166.0281	1200.8481	1235.6432	1266.4667	1331.4676	1420.9271	1431.1073	1444.3274	1493.0336	1767.9624	1853.7623	2341.4917	2926.5311	2942.6698	2963.4506	3011.6147	3047.8835	3836.4253
OCC(=O)CC#CC=O	OCC(=O)CC#CC=O	
InChI=1S/C6H6O3/c7-4-2-1-3-6(9)5-8/h4,8H,3,5H2	InChI=1S/C6H6O3/c7-4-2-1-3-6(9)5-8/h4,8H,3,5H2
