22
gdb 113838	2.53418	1.19393	1.01508	2.6657	83.5	-0.2121	0.0813	0.2933	1307.8642	0.193021	-404.281281	-404.271495	-404.27055	-404.316182	36.096	
C	 1.5237163525	 2.0107010305	 2.7331886219	-0.236381
O	 0.8329641565	 0.7769033293	 2.6825730373	-0.228132
C	-0.0059435168	 0.6740052267	 1.5763438272	 0.123017
C	 0.5428272954	 0.2474988577	 0.2399934915	-0.334473
C	-0.3778695309	-0.67550071	 1.0305300929	-0.077788
C	 0.1104323682	-2.0254907289	 1.472776178	-0.002354
C	 1.1353290683	-2.2716208311	 2.5285327455	-0.266561
N	-0.2568152637	-2.6659997727	 2.740732889	-0.097698
C	-1.0115065973	-1.8941592361	 3.722574244	-0.321638
H	 2.1382456585	 1.9987848162	 3.6359638891	 0.129875
H	 2.1697154032	 2.1474689107	 1.8548540911	 0.113625
H	 0.8257518097	 2.8595929929	 2.7869867887	 0.109337
H	-0.7982400396	 1.4256105367	 1.5695688361	 0.085723
H	 0.1846667194	 0.7201898436	-0.6680417764	 0.110903
H	 1.5892530464	-0.0392637766	 0.2286702618	 0.123681
H	-1.4016427172	-0.7129832671	 0.6622100764	 0.094841
H	 0.0862192284	-2.7344557763	 0.644283537	 0.087944
H	 1.8448421908	-3.0879241672	 2.4123252868	 0.101923
H	 1.5050232	-1.4062441759	 3.0679349052	 0.131231
H	-0.6947385028	-0.8463905621	 3.8152128364	 0.126524
H	-2.0754073946	-1.9201395217	 3.4626448522	 0.110507
H	-0.8956929845	-2.3740568588	 4.7001398485	 0.115893
56.5073	101.883	137.6634	168.4583	199.3436	228.1796	252.2924	285.6456	362.1835	417.5512	436.554	523.7219	660.3892	715.9116	765.983	810.9971	848.1439	894.7606	971.5243	988.8576	1019.254	1038.9421	1051.0648	1088.2894	1101.7636	1126.3796	1142.6791	1148.714	1169.1764	1172.8619	1180.7567	1184.8613	1214.8437	1229.3033	1275.5573	1338.1973	1385.327	1413.6132	1417.6352	1451.1049	1473.2162	1484.9732	1491.6741	1495.4729	1507.0221	1509.7411	1516.9127	2987.1002	3005.3739	3041.3022	3073.8185	3074.6332	3088.2195	3091.4137	3105.7467	3119.3281	3123.2129	3130.862	3208.0185	3221.2946
COC1CC1C1CN1C	CO[C@H]1C[C@H]1[C@H]1CN1C	
InChI=1S/C7H13NO/c1-8-4-6(8)5-3-7(5)9-2/h5-7H,3-4H2,1-2H3	InChI=1S/C7H13NO/c1-8-4-6(8)5-3-7(5)9-2/h5-7H,3-4H2,1-2H3/t5-,6+,7-,8?/m0/s1
