18
gdb 41423	3.38522	1.87113	1.52885	2.5745	73.5	-0.2414	0.067	0.3085	896.253	0.150795	-401.888006	-401.881664	-401.88072	-401.918392	26.599	
C	 0.062959427	 1.4603639308	-0.0870488371	-0.166435
O	 1.5098263268	 1.3809256466	 0.0102132528	-0.304639
C	 1.4659169875	-0.0233778491	 0.3702986719	 0.079249
C	 1.6418328172	-0.9851317778	-0.7744664122	-0.083973
C	 0.5864319377	-2.0494486478	-0.7158899912	-0.030189
C	-0.2286988812	-2.3288277631	 0.5555611525	-0.248025
C	-0.9566792882	-0.9752098476	 0.8165889221	-0.317555
C	-0.0517684795	-0.0502605266	 0.0457077639	 0.295858
N	 0.2308602932	-0.739876116	-1.2871633261	-0.161839
H	-0.3607392174	 2.0321159617	 0.749409018	 0.099225
H	-0.272723268	 1.8825537945	-1.0392954124	 0.117986
H	 1.9440115665	-0.2050995466	 1.3375874712	 0.07531
H	 2.4875241704	-1.0511845104	-1.4533211533	 0.099036
H	 0.6862160982	-2.8438045696	-1.449106504	 0.098579
H	-0.9329469406	-3.1467800579	 0.3844555997	 0.111806
H	 0.4048902336	-2.6173087513	 1.3997004735	 0.112662
H	-1.9691162535	-0.9841365368	 0.3985195531	 0.114279
H	-1.0239820498	-0.722478313	 1.8780819575	 0.108663
186.8786	234.7994	322.6005	365.4792	447.9613	513.392	678.9494	706.5719	727.3504	754.8488	787.4619	830.7498	875.8444	884.4024	923.5446	976.6232	988.6678	990.6144	1000.9929	1021.5566	1065.0094	1080.2027	1114.0011	1137.2973	1160.4171	1172.9272	1189.257	1224.0164	1248.5916	1262.3587	1297.4168	1305.7962	1322.2662	1351.9168	1382.9658	1395.0258	1480.6951	1501.0361	1506.4474	3010.6817	3046.7408	3055.0778	3059.2767	3083.1847	3094.1567	3108.2535	3151.0559	3166.0635
C1OC2C3C4CCC12N34	C1O[C@@H]2[C@H]3[C@H]4CC[C@@]12N34	
InChI=1S/C7H9NO/c1-2-7-3-9-6(7)5-4(1)8(5)7/h4-6H,1-3H2	InChI=1S/C7H9NO/c1-2-7-3-9-6(7)5-4(1)8(5)7/h4-6H,1-3H2/t4-,5-,6-,7-,8?/m1/s1
