21
gdb 95964	2.51296	1.5749	1.18674	1.8591	77.29	-0.2317	0.0677	0.2995	1119.2997	0.183418	-424.221786	-424.212974	-424.212029	-424.256332	33.207	
O	 0.0110313448	 0.9523846542	-0.8270543041	-0.442382
C	-0.0499359706	-0.2834046641	-0.1389550282	 0.067316
C	 0.5352015896	-0.2812970992	 1.2780427176	-0.244005
C	-0.0617972695	-1.5558349968	 1.9146381926	-0.216536
C	-1.4149661811	-1.7838238127	 1.1799699045	-0.286104
C	-1.5077141123	-0.7098157686	 0.0810225768	 0.466694
C	-2.533575929	 0.4453334389	 0.230077221	-0.336998
C	-3.0726379056	-0.0503020214	-1.1224133102	-0.073534
O	-2.1555983351	-1.1654387014	-1.1288832803	-0.334522
H	 0.9294734056	 1.1293899845	-1.0492206076	 0.285112
H	 0.4208659157	-1.0803629037	-0.7385725202	 0.07401
H	 1.6293366543	-0.2617545043	 1.2940981572	 0.087692
H	 0.1829663964	 0.6199082036	 1.7943553102	 0.105518
H	 0.6054530827	-2.4082968219	 1.7554265598	 0.104235
H	-0.183985015	-1.4527625772	 2.9955425755	 0.101521
H	-1.4497528957	-2.7647216139	 0.6967367653	 0.116469
H	-2.2731357355	-1.7344460893	 1.8554101537	 0.098995
H	-3.2205943719	 0.3233162028	 1.0694261598	 0.098469
H	-2.1098784165	 1.4485273716	 0.2342544596	 0.126058
H	-4.1173507299	-0.3824806084	-1.1412691323	 0.095526
H	-2.8932511814	 0.6251900274	-1.9666464708	 0.106465
24.4212	88.0092	147.8362	218.1808	258.4632	276.5186	337.6716	414.7173	487.7451	557.0483	571.6511	704.7559	771.3176	785.8104	843.5544	867.206	910.6261	930.2711	973.4969	994.3327	1010.7835	1027.3766	1033.2058	1067.6031	1122.7687	1154.0325	1165.0913	1180.6895	1197.9886	1209.9983	1235.299	1241.6752	1260.6693	1284.2483	1304.0061	1325.9252	1333.2667	1360.1825	1362.3897	1431.9369	1479.5769	1486.5384	1493.5194	1512.7222	1526.1821	2966.3323	3020.5505	3035.4064	3050.3108	3060.1399	3062.4568	3080.2508	3082.5686	3089.134	3107.94	3151.4162	3833.5822	24.4218	88.0105	147.8364	218.1842	258.4636	276.519	337.6717	414.7173	487.745	557.0482	571.651	704.7559	771.3176	785.8104	843.5544	867.2059	910.6261	930.2711	973.4969	994.3326	1010.7834	1027.3765	1033.2059	1067.6031	1122.7689	1154.0325	1165.091	1180.6894	1197.9886	1209.9979	1235.299	1241.6748	1260.669	1284.2482	1304.0061	1325.9251	1333.2668	1360.1821	1362.3896	1431.9366	1479.5765	1486.5382	1493.5194	1512.7223	1526.1816	2966.3323	3020.5505	3035.4064	3050.3108	3060.1399	3062.4568	3080.2508	3082.5686	3089.134	3107.94	3151.4163	3833.5828
OC1CCCC11CCO1	O[C@H]1CCC[C@]21CCO2	
InChI=1S/C7H12O2/c8-6-2-1-3-7(6)4-5-9-7/h6,8H,1-5H2	InChI=1S/C7H12O2/c8-6-2-1-3-7(6)4-5-9-7/h6,8H,1-5H2/t6-,7+/m0/s1
