13
gdb 29849	4.12535	1.13279	0.8938	5.7611	70.92	-0.2423	-0.0518	0.1906	1198.3552	0.089804	-452.809585	-452.801688	-452.800744	-452.842529	27.707	
C	 0.0002381869	 1.4782830421	 0.0094967913	-0.350855
N	-0.0441143608	 0.0280875327	 0.0012157866	-0.117817
C	-1.1563959821	-0.7823726025	 0.0040928642	-0.20184
C	-0.7186437969	-2.0588386651	-0.0062847943	 0.238189
O	 0.6654673024	-2.0674274903	-0.0157112427	-0.238113
C	 1.1024977233	-0.7595985448	-0.0110743229	 0.485133
O	 2.2498631907	-0.4169803668	-0.0168715081	-0.388878
C	-1.4185991593	-3.2781049175	-0.0086326827	 0.234656
N	-2.0104349786	-4.2745831878	-0.0104130898	-0.330112
H	 1.05241467	 1.7649370662	 0.0021613806	 0.185741
H	-0.4936128907	 1.8875972645	-0.8764783422	 0.151473
H	-0.4782178013	 1.8770767477	 0.9086390904	 0.151497
H	-2.1627160235	-0.3992562784	 0.0131318395	 0.180926
101.5906	112.835	148.9695	185.2932	274.688	293.7471	471.0934	489.5531	525.1451	612.8978	637.3367	682.9636	756.2741	813.0763	856.5886	956.2984	1070.4282	1077.3012	1157.8997	1178.8573	1283.5427	1325.9285	1423.9678	1475.5406	1494.967	1508.1422	1664.2182	1893.7356	2341.6901	3046.1636	3111.5639	3159.428	3287.7552
CN1C=C(OC1=O)C#N	Cn1cc(oc1=O)C#N	
InChI=1S/C5H4N2O2/c1-7-3-4(2-6)9-5(7)8/h3H,1H3	InChI=1S/C5H4N2O2/c1-7-3-4(2-6)9-5(7)8/h3H,1H3
