19
gdb 118730	2.74714	1.10378	0.91229	1.1874	70.94	-0.2324	0.0607	0.2931	1310.2798	0.157628	-460.096341	-460.087191	-460.086246	-460.130649	34.102	
O	 0.0679334012	 1.4328671556	 0.0292091241	-0.417769
C	-0.0099408372	 0.0270862947	-0.1306733523	-0.068696
C	-1.3939047993	-0.5339691782	 0.2163017105	-0.278906
C	-1.4708392477	-2.0362764356	 0.0516873432	 0.361591
O	-0.5730926013	-2.7781092397	 0.8444043462	-0.474218
C	-2.7586683557	-2.8270370844	-0.0854644612	-0.174452
C	-3.7385976997	-2.1092848776	-1.0005389391	-0.108225
O	-2.7203674508	-1.9457360493	-2.0307157159	-0.287131
C	-1.7981508274	-2.7147165846	-1.2543304691	 0.019442
H	-0.550505239	 1.8321566606	-0.5910912204	 0.282363
H	 0.2677357049	-0.2778100029	-1.1531519257	 0.091408
H	 0.7432511354	-0.3821201042	 0.551530266	 0.106139
H	-1.641079865	-0.2606564213	 1.2482802238	 0.112074
H	-2.132377812	-0.0636429777	-0.4415499628	 0.105796
H	 0.3084829202	-2.6897269764	 0.4663847152	 0.290365
H	-2.9689880484	-3.6582456217	 0.5728840972	 0.110799
H	-4.5441508759	-2.7566606402	-1.3642767717	 0.116025
H	-4.1570526747	-1.1519220619	-0.6691303132	 0.108521
H	-1.1649888876	-3.4354087254	-1.7611904447	 0.104876
61.4564	88.0215	143.8382	227.7674	250.8324	297.6372	309.1739	362.8113	369.0625	428.5851	483.5452	526.1188	752.3932	767.6885	785.9066	839.6897	915.3737	943.9747	971.6653	995.1147	1005.6403	1026.0176	1055.1878	1078.3585	1086.1165	1102.5773	1133.7146	1158.3466	1209.4695	1228.9852	1264.0177	1306.1509	1315.1652	1323.9796	1343.5854	1399.1221	1424.1229	1436.4259	1468.0377	1517.3292	1518.4597	2970.1434	3027.1207	3042.5122	3061.8234	3074.5304	3094.0591	3167.2628	3215.3226	3802.1246	3814.2263
OCCC1(O)C2COC12	OCC[C@@]1(O)[C@H]2CO[C@@H]12	
InChI=1S/C6H10O3/c7-2-1-6(8)4-3-9-5(4)6/h4-5,7-8H,1-3H2	InChI=1S/C6H10O3/c7-2-1-6(8)4-3-9-5(4)6/h4-5,7-8H,1-3H2/t4-,5+,6+/m0/s1
