20
gdb 8090	3.3398	2.08205	1.66227	1.4683	73.54	-0.2502	0.0737	0.3239	861.2122	0.179662	-349.010488	-349.003413	-349.002469	-349.041099	29.39	
O	-0.0710391403	 1.4243684301	-0.0314500613	-0.490177
C	 0.0201346565	 0.0232660351	 0.0444005283	 0.43671
C	 0.2239801944	-0.6687060191	 1.4304889602	-0.293469
C	-0.6974748454	-1.7936075573	 0.8679572311	-0.011366
C	-1.3373298472	-0.7034982275	-0.0363158724	-0.245295
C	 0.0967125048	-2.7797755462	-0.0060017047	-0.198092
C	 1.2764729653	-2.0627008871	-0.7042865368	-0.20595
C	 0.9801135277	-0.5720193009	-0.9989898616	-0.260088
H	 0.821658476	 1.7853812227	-0.0619639816	 0.269951
H	 1.2358498566	-0.9232734859	 1.7591329296	 0.082547
H	-0.2803230047	-0.0935979726	 2.2107224521	 0.099927
H	-1.3544030788	-2.3084780808	 1.5714564132	 0.06265
H	-2.1062870641	-0.1332775993	 0.4909846651	 0.100839
H	-1.7052203778	-0.9963834973	-1.0248012816	 0.084158
H	 0.4835038611	-3.6088337789	 0.5975067392	 0.091676
H	-0.5834046587	-3.2237090716	-0.7435643496	 0.095772
H	 2.1486923076	-2.1148736848	-0.0448517408	 0.104192
H	 1.5647065671	-2.5863192643	-1.6208740574	 0.094689
H	 0.5381312439	-0.4341352032	-1.9927591764	 0.103485
H	 1.923702036	-0.0083593409	-0.9951594445	 0.07784
188.5968	232.7513	259.4827	334.3338	396.8072	425.8101	437.5363	464.1342	562.763	657.4231	764.4293	811.6822	837.3206	870.5205	892.7292	921.0887	937.053	950.2336	975.2224	1020.2213	1038.3275	1055.6903	1109.2922	1115.6166	1151.3045	1187.9031	1199.3319	1224.7418	1237.3144	1252.8782	1276.0056	1294.8172	1329.7018	1356.1689	1361.6289	1378.8622	1392.5775	1474.4616	1489.8399	1492.4513	1498.6861	1522.9296	3004.6267	3023.2914	3041.2838	3045.2351	3055.3206	3055.533	3060.4126	3085.7657	3087.1249	3109.1228	3114.5757	3799.3361
OC12CC(C1)CCC2	O[C@@]12C[C@@H](C1)CCC2	
InChI=1S/C7H12O/c8-7-3-1-2-6(4-7)5-7/h6,8H,1-5H2	InChI=1S/C7H12O/c8-7-3-1-2-6(4-7)5-7/h6,8H,1-5H2/t6-,7-
