21
gdb 120274	3.29088	1.09211	0.96208	2.0459	78.78	-0.2424	0.0734	0.3158	1313.1781	0.182532	-424.180577	-424.171532	-424.170587	-424.21444	34.214	
C	-0.0077703475	 1.3646150607	-0.1235773266	-0.229439
O	-0.0890912235	-0.0376343401	-0.2506373532	-0.246091
C	-1.3299840151	-0.5661524207	 0.2069428621	-0.091317
C	-1.2596607555	-2.0767501095	 0.0675181359	-0.054125
C	-2.5542546991	-2.8978372298	 0.1091693712	-0.081171
C	-3.4446486738	-2.5893098792	-1.0639965289	-0.282078
C	-2.2609024034	-3.4836199922	-1.2801415174	-0.051312
C	-0.9819059301	-2.6530568503	-1.3716461826	 0.112434
O	-0.9512449629	-1.7319285698	-2.4371383392	-0.442287
H	 0.9702785783	 1.672854207	-0.5009376198	 0.128988
H	-0.7922029395	 1.8737675848	-0.7044958048	 0.110214
H	-0.0995943655	 1.678509007	 0.9272784743	 0.109714
H	-1.5002614753	-0.2766467247	 1.2568031399	 0.091215
H	-2.1535664814	-0.1455973565	-0.3878098515	 0.09871
H	-0.5156147818	-2.4629298592	 0.7697531823	 0.076417
H	-2.9292843459	-3.4140880871	 0.9846378286	 0.084357
H	-4.4046396809	-3.0952272684	-1.0495291368	 0.109177
H	-3.4666396497	-1.6057366254	-1.5215966607	 0.121078
H	-2.3639137425	-4.5056084746	-1.6223719925	 0.083892
H	-0.0851028905	-3.2869513314	-1.3689266223	 0.065508
H	-0.3437096942	-1.0322526506	-2.1620085482	 0.286116
87.3488	117.4295	125.723	184.8775	229.2979	268.6853	302.3839	372.8753	422.2997	501.7802	560.4063	610.0408	686.5658	785.419	808.0421	833.9212	919.2692	951.4388	974.3186	995.9805	1008.9001	1034.2599	1064.935	1071.3254	1088.8288	1132.1247	1148.6682	1153.2285	1168.8543	1187.6052	1221.5904	1227.9319	1258.7373	1269.8323	1291.0886	1348.7589	1353.857	1373.3191	1420.6681	1425.8238	1479.7752	1485.4442	1490.6206	1503.7746	1524.9994	2968.7698	2980.4004	3003.6582	3016.3153	3025.9767	3070.4165	3115.3682	3129.4393	3178.1599	3190.6832	3212.5652	3757.6255
COCC1C2CC2C1O	COC[C@H]1[C@H]2C[C@H]2[C@H]1O	
InChI=1S/C7H12O2/c1-9-3-6-4-2-5(4)7(6)8/h4-8H,2-3H2,1H3	InChI=1S/C7H12O2/c1-9-3-6-4-2-5(4)7(6)8/h4-8H,2-3H2,1H3/t4-,5+,6-,7+/m0/s1
