19
gdb 115322	2.805	1.28542	1.00004	0.9635	71.99	-0.2293	-0.0333	0.1961	1233.0844	0.15753	-460.169674	-460.160297	-460.159353	-460.204337	33.597	
C	 0.0148780223	 1.5218819645	-0.0823863133	-0.248176
O	 0.0461336019	 0.1130112503	 0.0922829882	-0.241405
C	 0.5453071445	-0.5950419269	-1.0067588664	 0.009741
C	 0.8526186341	-2.0489540157	-0.6391657531	-0.132076
O	 0.745501132	-2.7764934246	-1.8612377864	-0.266894
C	-0.3265851438	-2.2360171404	-2.6322460025	 0.022993
C	-1.6344144068	-3.0152158477	-2.4723249485	-0.397921
C	-0.4676770523	-0.7888307816	-2.1545305569	 0.354208
O	-1.2593473366	 0.021955186	-2.5605629185	-0.314248
H	 1.0217857547	 1.9149376436	-0.2924547367	 0.104361
H	-0.6596290147	 1.8131760322	-0.8931451584	 0.145071
H	-0.3400702876	 1.9447321109	 0.8600026453	 0.128866
H	 1.4454345777	-0.1118112935	-1.4263629447	 0.094222
H	 1.8599384297	-2.203256217	-0.2493158454	 0.12078
H	 0.1260596194	-2.3893526187	 0.1137443383	 0.112109
H	-0.0169737906	-2.2477519311	-3.6843442153	 0.112323
H	-1.9590440722	-3.0330381511	-1.4275537174	 0.12633
H	-2.4195026003	-2.5400261757	-3.0670997768	 0.139767
H	-1.4996238214	-4.0452163734	-2.8114132816	 0.129949
46.3184	110.7325	157.3544	179.5094	211.8143	225.3113	252.9029	297.1692	389.7817	437.3672	503.019	576.9376	645.5929	656.3565	806.0724	864.2318	936.9122	995.383	1016.7562	1067.1348	1078.7444	1103.6492	1117.2771	1146.2416	1180.5263	1183.4081	1221.1054	1244.0575	1280.5478	1309.6158	1326.5993	1354.9531	1391.8758	1399.7596	1478.4314	1483.7751	1486.1449	1493.7645	1517.0504	1517.8973	1850.9575	2950.42	2987.6778	3001.1333	3038.3906	3045.0787	3083.6765	3116.1867	3120.7943	3130.2956	3131.1141
COC1COC(C)C1=O	CO[C@H]1CO[C@@H](C)C1=O	
InChI=1S/C6H10O3/c1-4-6(7)5(8-2)3-9-4/h4-5H,3H2,1-2H3	InChI=1S/C6H10O3/c1-4-6(7)5(8-2)3-9-4/h4-5H,3H2,1-2H3/t4-,5-/m0/s1
