15
gdb 29222	3.19775	1.38088	0.96815	6.5434	73.58	-0.2081	-0.0301	0.1781	1135.6084	0.114466	-454.00476	-453.996903	-453.995959	-454.036859	30.579	
N	 0.070153326	 1.4421827091	 0.0944304211	-0.610222
C	 0.0163531683	 0.0228897626	 0.0215281736	 0.098925
C	-1.1181825057	-0.70355073	 0.0791179856	 0.034709
O	-1.1571116526	-2.043543388	 0.0919875649	-0.231911
C	 0.0242714711	-2.8246820562	-0.0177577498	 0.427445
O	-0.1185731106	-4.0196219633	-0.0348109485	-0.364391
C	 1.2423583887	-2.0716806163	-0.0761268542	-0.387106
C	 1.2687852344	-0.703143304	-0.042215493	 0.366058
N	 2.4133710892	 0.0473625869	-0.1019398654	-0.586101
H	 0.339338315	 1.8548201547	-0.7949487541	 0.252616
H	-0.8222072842	 1.8382870245	 0.3654506787	 0.247385
H	-2.1074215031	-0.2609374362	 0.140426978	 0.123432
H	 2.1548004442	-2.6532308659	-0.126595739	 0.102613
H	 3.2837302903	-0.4266055484	 0.0821706746	 0.260574
H	 2.334169209	 0.9721107206	 0.2981012075	 0.265975
114.7117	192.194	208.884	314.7893	345.5934	376.1522	407.2447	434.8195	512.8001	547.2631	572.8136	604.8455	724.2331	729.2724	735.7938	770.3412	823.8842	842.0232	859.4531	886.403	1100.6755	1137.8901	1166.6877	1259.0235	1266.9927	1306.8139	1366.3144	1499.0496	1598.8015	1629.7075	1647.529	1716.1887	1837.9681	3185.0705	3204.4556	3486.6692	3560.883	3589.7536	3680.6678
NC1=COC(=O)C=C1N	Nc1coc(=O)cc1N	
InChI=1S/C5H6N2O2/c6-3-1-5(8)9-2-4(3)7/h1-2H,6-7H2	InChI=1S/C5H6N2O2/c6-3-1-5(8)9-2-4(3)7/h1-2H,6-7H2
