19
gdb 86672	2.35406	1.32566	1.12314	2.0901	72.21	-0.2472	-0.035	0.2121	1177.6588	0.15509	-460.156917	-460.147019	-460.146075	-460.191843	35.936	
C	-0.949032562	 1.1644554636	-0.2077246269	-0.419494
C	-0.0495844341	-0.0468667017	-0.1088980839	 0.151698
O	 1.1494153948	 0.0701059681	-0.9188813445	-0.317051
C	 1.9635729288	-0.49356809	 0.1176368331	 0.010397
C	 3.2399469276	 0.2725730926	 0.349227308	 0.114676
O	 4.029529597	-0.0096426136	 1.2163454613	-0.254342
C	 0.795027568	-0.3443602904	 1.160939443	 0.288076
C	 0.9616576629	 0.7828689155	 2.1685828899	-0.464638
O	 0.370862138	-1.5337518067	 1.7762011767	-0.463424
H	-0.4201626322	 2.0840916462	 0.0551444712	 0.121467
H	-1.3188411483	 1.2671583607	-1.2325996642	 0.134385
H	-1.8142741708	 1.0509094481	 0.4535430593	 0.127391
H	-0.6013777249	-0.9575396323	-0.3793177861	 0.090147
H	 2.1931464389	-1.5556350739	-0.0473674548	 0.106962
H	 3.3811494101	 1.1439050441	-0.3291720623	 0.091313
H	 1.2311337176	 1.7252921999	 1.6832311858	 0.130646
H	 0.0313484775	 0.9302390596	 2.7244211621	 0.128506
H	 1.7628530711	 0.5437059542	 2.8766090566	 0.136165
H	 0.8727817802	-1.6545299638	 2.5897685657	 0.287117
54.1859	78.7592	173.621	200.6125	207.5937	236.4916	290.6202	300.9942	313.9471	384.3511	434.3359	447.9175	497.9824	562.5851	666.7448	758.4644	837.8785	889.2866	940.9428	982.3319	1033.6594	1049.5915	1074.553	1109.3504	1116.4348	1164.3137	1178.3211	1188.5711	1232.2238	1308.9211	1317.6787	1375.9294	1393.804	1398.6366	1411.8497	1421.4008	1476.9324	1485.9906	1498.2464	1504.0766	1817.1107	2886.2546	3011.0898	3017.4848	3035.7384	3042.1553	3104.7703	3111.1267	3119.5945	3125.5876	3805.6274
CC1OC(C=O)C1(C)O	C[C@H]1O[C@@H](C=O)[C@]1(C)O	
InChI=1S/C6H10O3/c1-4-6(2,8)5(3-7)9-4/h3-5,8H,1-2H3	InChI=1S/C6H10O3/c1-4-6(2,8)5(3-7)9-4/h3-5,8H,1-2H3/t4-,5+,6-/m1/s1
