16
gdb 74069	2.29833	1.46496	0.98997	5.4375	75.41	-0.2277	-0.0272	0.2005	1165.5071	0.124232	-437.945927	-437.937481	-437.936537	-437.979448	31.121	
N	 0.244123718	 1.265199448	 0.0031010367	-0.574
C	 0.0435887216	-0.0721784343	-0.0068304723	 0.404649
C	-1.1347493392	-0.7432210798	 0.0992945273	-0.326024
C	-0.9264374838	-2.1730080892	 0.0021855576	 0.385318
O	-1.7310529039	-3.0791806645	 0.0433220559	-0.367789
C	 0.6172345256	-2.3971275348	-0.1559649863	-0.218524
C	 1.2271211547	-0.9956661822	-0.1963900802	-0.336898
C	 1.1028612182	-3.2636617012	 0.9869632964	 0.152868
O	 1.9394406093	-2.936070426	 1.7912904031	-0.250405
H	 1.1771207146	 1.627164666	 0.1041439884	 0.267786
H	-0.5057901349	 1.8862470226	 0.2575031721	 0.269001
H	-2.1135572431	-0.303520235	 0.2379917187	 0.09648
H	 0.7595633264	-2.9696515638	-1.0798271748	 0.119524
H	 1.7330905506	-0.779603953	-1.1436591758	 0.124117
H	 1.960734921	-0.869121388	 0.6081575711	 0.145385
H	 0.5937025147	-4.2471396248	 1.0433483122	 0.108511
59.7306	115.3199	164.3526	219.6414	289.951	300.5771	346.0187	463.2749	491.9504	560.6425	582.6329	600.0802	656.7299	719.1501	793.7414	846.5825	890.2561	910.8629	971.8698	1037.4759	1074.5375	1092.7771	1165.7195	1192.1022	1194.6073	1278.6018	1307.3382	1324.7609	1407.7628	1419.3418	1473.1811	1635.3038	1679.8593	1789.5558	1821.2425	2934.7555	3040.5254	3053.113	3080.9235	3219.5625	3605.095	3720.2369
NC1=CC(=O)C(C1)C=O	NC1=CC(=O)[C@@H](C1)C=O	
InChI=1S/C6H7NO2/c7-5-1-4(3-8)6(9)2-5/h2-4H,1,7H2	InChI=1S/C6H7NO2/c7-5-1-4(3-8)6(9)2-5/h2-4H,1,7H2/t4-/m0/s1
