25
gdb 101155	2.28594	1.05165	0.85678	1.3182	89.17	-0.2587	0.0745	0.3332	1501.6865	0.226874	-389.481047	-389.469684	-389.46874	-389.517354	41.57	
C	 0.4243054418	 1.4860102452	-0.4825725819	-0.395184
C	 0.2376403832	 0.1297157185	 0.2139465398	 0.015714
C	 0.6333185556	 0.213462834	 1.6911593035	-0.075229
O	 2.0048687996	 0.5794946116	 1.7702521523	-0.426171
C	-1.1943581244	-0.3628174323	 0.0888089146	-0.019837
C	-1.731937402	-1.0663824531	-1.1436618584	-0.039175
C	-0.8849839623	-1.3738094266	-2.3618786927	-0.406829
C	-1.5971916607	-1.8256179231	 0.1614783294	-0.037832
C	-0.6077163871	-2.9572488777	 0.3524897822	-0.407586
H	 1.4409010443	 1.8569069126	-0.3343102969	 0.129248
H	 0.2319312255	 1.4072086134	-1.5563764757	 0.111024
H	-0.2711804375	 2.2294707944	-0.073859353	 0.103214
H	 0.9249154255	-0.5877906488	-0.24812482	 0.076862
H	-0.0055026268	 0.9562961456	 2.1987537259	 0.078455
H	 0.4555296637	-0.7580785581	 2.176598699	 0.087324
H	 2.235413885	 0.6848730317	 2.6974310435	 0.285003
H	-1.9003143416	 0.3229551737	 0.5564523038	 0.071498
H	-2.7525506631	-0.7965447603	-1.4058427647	 0.076771
H	 0.15384226	-1.6009759735	-2.1119956981	 0.118136
H	-1.2861226863	-2.2367027722	-2.9057121141	 0.113327
H	-0.8753988392	-0.5253913793	-3.0549491085	 0.117261
H	-2.5379879756	-2.0071548011	 0.6767440245	 0.07605
H	 0.3512905599	-2.7733187859	-0.1369539197	 0.119604
H	-0.4038005753	-3.1245032787	 1.4161065483	 0.114423
H	-1.0069792619	-3.8932871901	-0.0546161431	 0.113927
67.0233	99.1116	118.7306	163.7195	170.7744	189.2465	225.5251	242.3038	248.417	264.6674	282.0964	406.4795	414.9663	465.1673	549.5667	567.8747	759.381	775.0992	828.0218	888.8107	927.6938	948.7523	951.7927	994.6693	1040.5889	1046.7478	1071.051	1099.2997	1118.1013	1135.0175	1162.1238	1166.4515	1189.3504	1193.5365	1243.2955	1264.8906	1274.0999	1309.5499	1359.1639	1379.7139	1396.1622	1405.6641	1419.8013	1424.8881	1453.2814	1455.8934	1487.7098	1493.6112	1494.5521	1502.7011	1503.7945	1514.8654	1519.8819	2956.4127	2998.7212	3029.3921	3029.8268	3032.8463	3047.5383	3081.8954	3083.9899	3096.6197	3101.4994	3106.7931	3119.3135	3124.0194	3129.589	3137.2972	3834.768
CC(CO)C1C(C)C1C	C[C@@H](CO)[C@H]1[C@@H](C)[C@H]1C	
InChI=1S/C8H16O/c1-5(4-9)8-6(2)7(8)3/h5-9H,4H2,1-3H3	InChI=1S/C8H16O/c1-5(4-9)8-6(2)7(8)3/h5-9H,4H2,1-3H3/t5-,6-,7+,8-/m0/s1
