19
gdb 82625	2.35488	2.06312	1.52341	1.9809	72.53	-0.2341	0.0872	0.3213	953.7199	0.160348	-423.022	-423.014481	-423.013537	-423.053505	30.271	
C	-0.1048947404	 1.5415257191	-0.0215454499	-0.419
C	 0.0081072408	 0.0212295647	 0.0108643867	-0.051247
C	 1.0173702315	-0.5808564745	-0.9980783755	 0.135127
O	 2.2782440429	-0.1076001003	-0.5336356032	-0.250651
C	 2.1905085017	-0.6008088418	 0.7915817974	-0.008076
C	 1.3436943306	-1.8488337441	 0.693377934	-0.016773
O	 1.0131552565	-1.9675143968	-0.6791507099	-0.249376
C	 0.7268968192	-0.561541968	 1.2316210237	 0.235784
C	 0.2725405651	-0.3724217201	 2.6509637392	-0.507766
H	 0.8812200302	 2.0052417773	 0.0645431688	 0.133781
H	-0.5611578857	 1.8816105488	-0.9574345562	 0.114379
H	-0.729799046	 1.9077316044	 0.7992199845	 0.116772
H	-0.9684887256	-0.4531264432	-0.1319461521	 0.082043
H	 0.9011665819	-0.4167743786	-2.0662076159	 0.096283
H	 3.0637670232	-0.4405366781	 1.4069932127	 0.109858
H	 1.4753174766	-2.7811189419	 1.2231709296	 0.110236
H	 0.9480099495	-0.8716135604	 3.3539385026	 0.118985
H	 0.2421013561	 0.6882921897	 2.9243884664	 0.125591
H	-0.7294052081	-0.7885418262	 2.8067335469	 0.12405
188.7053	207.4798	218.3479	220.2115	269.1513	329.2817	524.5111	562.2694	593.7335	625.8578	714.9013	733.9379	798.8029	847.282	870.6416	890.5418	906.6393	942.3932	1009.7756	1018.812	1034.0785	1044.1631	1062.0048	1080.8966	1089.9042	1114.3237	1148.128	1194.5734	1228.2564	1244.2628	1284.8548	1290.5462	1339.0873	1365.443	1407.0569	1420.8416	1423.3422	1490.3552	1497.9713	1500.7826	1504.797	3023.8896	3037.1457	3059.3762	3085.179	3091.0763	3097.5229	3123.7731	3171.6018	3223.7475	3232.582
CC1C2OC3C(O2)C13C	C[C@H]1[C@H]2O[C@@H]3[C@H](O2)[C@]13C	
InChI=1S/C7H10O2/c1-3-6-8-4-5(9-6)7(3,4)2/h3-6H,1-2H3	InChI=1S/C7H10O2/c1-3-6-8-4-5(9-6)7(3,4)2/h3-6H,1-2H3/t3-,4-,5+,6+,7-/m0/s1
