15
gdb 5288	4.83351	1.54384	1.17867	5.1452	69.62	-0.2246	-0.0209	0.2037	971.3418	0.119905	-362.726609	-362.719213	-362.718269	-362.758588	27.15	
C	-0.0199469654	 1.4957656657	 0.0053016041	-0.494156
C	-0.020034355	-0.0273257348	 0.0271882526	 0.300225
O	-0.0361942983	-0.6388791762	 1.0792253654	-0.325575
C	-0.0010707702	-0.7281515534	-1.2648774654	 0.185825
C	 0.0173865961	-0.1747972547	-2.5356096907	-0.169265
N	 0.0310708153	-1.1969621245	-3.435033522	-0.242648
C	 0.021197638	-2.4082582878	-2.7731694815	-0.064766
C	 0.0010481188	-2.1494957494	-1.430308999	-0.238328
H	 0.870418935	 1.8760261123	-0.5073192164	 0.131533
H	-0.894721107	 1.8757836903	-0.5336794322	 0.131566
H	-0.0353324582	 1.8671719132	 1.0303375308	 0.137785
H	 0.0220687903	 0.8530580416	-2.8607650413	 0.130207
H	 0.0459404686	-1.0853294423	-4.4341606642	 0.266931
H	 0.0294894158	-3.3360357233	-3.3220019541	 0.12815
H	-0.0109559136	-2.8669884068	-0.6261525262	 0.122516
82.2161	121.8301	186.7271	188.6823	372.3047	499.4363	516.3628	564.0403	623.5806	643.6324	685.4415	711.4022	792.8111	875.2997	902.6704	924.4713	969.5051	1044.9359	1051.4522	1099.0217	1142.8767	1163.4018	1268.7842	1347.088	1379.5266	1413.5502	1454.7401	1470.4238	1478.7772	1531.5836	1586.6721	1765.9296	3036.9781	3099.0495	3152.3672	3261.7115	3265.2343	3281.6391	3676.1896
CC(=O)C1=CNC=C1	CC(=O)c1c[nH]cc1	
InChI=1S/C6H7NO/c1-5(8)6-2-3-7-4-6/h2-4,7H,1H3	InChI=1S/C6H7NO/c1-5(8)6-2-3-7-4-6/h2-4,7H,1H3
