21
gdb 94314	2.50856	1.39291	1.15397	1.4469	79.77	-0.2372	0.0773	0.3145	1175.0122	0.180041	-424.1926	-424.182888	-424.181944	-424.226598	37.195	
C	-0.0599603394	 1.5421665185	-0.0049983243	-0.449605
C	-0.0216575086	 0.0313739127	 0.0435301852	 0.332397
O	-1.1956458874	-0.5915760267	-0.4097819867	-0.458899
C	 1.2765090958	-0.7117940733	-0.1958467471	-0.425316
C	 0.6503389586	-0.662223969	 1.1825255778	 0.358232
C	 1.342102884	-0.0914955881	 2.4286350396	-0.302998
C	 1.2437257237	-1.5140244522	 3.0545954916	-0.24394
C	 0.1932211552	-1.8948688503	 1.9654403101	 0.041913
O	-1.1428984453	-1.7232152388	 2.4027377414	-0.429009
H	 0.8527366831	 1.9798433994	 0.409567709	 0.116851
H	-0.1594068496	 1.8967894212	-1.0386139076	 0.104861
H	-0.9153440781	 1.9174490021	 0.5656520096	 0.130531
H	-1.2517703747	-0.4426863551	-1.3606357865	 0.276869
H	 1.2064116359	-1.6482432531	-0.7407612548	 0.10959
H	 2.1885316265	-0.1463583236	-0.3649525237	 0.103333
H	 2.3453803751	 0.320971853	 2.2945821697	 0.094641
H	 0.724793375	 0.6393893224	 2.9581609758	 0.111042
H	 2.1734187507	-2.0797661749	 2.9506935729	 0.100085
H	 0.8930273135	-1.5817439717	 4.0875108686	 0.090465
H	 0.3264340326	-2.865584139	 1.4691138278	 0.059631
H	-1.3256623463	-2.4093109535	 3.0532222315	 0.279327
84.6438	118.9268	157.5721	210.3856	239.5386	266.3913	288.004	334.1879	363.3945	386.8249	423.5649	452.5708	517.8697	612.352	729.2374	740.4304	841.4524	882.1112	900.9368	912.0925	922.7232	939.3611	979.9232	1031.8929	1040.6748	1076.7194	1099.6999	1142.2704	1164.4549	1174.0771	1201.5601	1224.0025	1251.3055	1259.6928	1286.5634	1303.3629	1323.2922	1399.8947	1409.7643	1432.3311	1462.5133	1480.6797	1484.0504	1490.2174	1514.7425	3003.3713	3023.1731	3052.8874	3059.4334	3088.1139	3100.0875	3112.6046	3115.2781	3119.0601	3204.6682	3784.4248	3807.4617
CC1(O)CC11CCC1O	C[C@@]1(O)C[C@]21CC[C@H]2O	
InChI=1S/C7H12O2/c1-6(9)4-7(6)3-2-5(7)8/h5,8-9H,2-4H2,1H3	InChI=1S/C7H12O2/c1-6(9)4-7(6)3-2-5(7)8/h5,8-9H,2-4H2,1H3/t5-,6-,7-/m1/s1
