19
gdb 117053	4.09443	0.79658	0.70297	0.1734	76.6	-0.2379	-0.025	0.2129	1654.7993	0.158854	-456.422207	-456.411765	-456.410821	-456.459207	35.649	
C	-0.2685550128	 1.3639023576	-0.2563370366	-0.373592
C	 0.3255523786	 0.0283896598	 0.1955217934	-0.145911
N	 1.0942863917	-0.6219580673	-0.8498088244	-0.305924
C	 0.7583557504	-1.7960058522	-1.411073563	 0.333427
O	-0.2054699493	-2.4944393595	-1.1271960875	-0.405792
C	 1.7633763813	-2.2043724112	-2.510371134	 0.330552
O	 2.7248788445	-1.5058609423	-2.8002317744	-0.403256
N	 1.4297676859	-3.3822222898	-3.0650507052	-0.300774
C	 2.1891557383	-4.012994045	-4.1218031833	-0.334057
H	 0.5156852745	 2.0635558586	-0.5643982519	 0.119634
H	-0.9481585564	 1.2210689535	-1.1012293984	 0.132711
H	-0.8274875819	 1.8263677358	 0.5629882822	 0.122421
H	 0.9652545198	 0.178222366	 1.0741726781	 0.113438
H	-0.4634426171	-0.673388307	 0.4762363989	 0.147073
H	 1.9281127082	-0.1950859034	-1.2335577125	 0.266543
H	 0.593280665	-3.8051274942	-2.684808737	 0.269647
H	 3.0354699204	-3.3648327388	-4.3546658099	 0.167337
H	 2.5645917595	-4.9933350053	-3.8088385035	 0.133323
H	 1.5801622793	-4.1443081055	-5.022824421	 0.1332
34.4996	63.4143	94.0673	104.3076	147.5027	159.8685	229.7581	285.5678	338.633	364.1107	427.2187	521.5214	539.0513	665.6705	676.2405	755.0716	809.7583	830.336	898.9365	905.2013	1032.5159	1093.8117	1133.9607	1153.1389	1180.5248	1185.5808	1234.8502	1266.442	1322.6681	1392.3263	1412.1754	1444.1875	1489.0971	1492.4554	1495.9261	1497.092	1505.1122	1562.9046	1584.8184	1773.5018	1786.854	3028.8389	3030.8029	3037.3837	3084.3345	3098.4267	3116.0535	3123.5025	3147.196	3580.671	3590.8999
CCNC(=O)C(=O)NC	CCNC(=O)C(=O)NC	
InChI=1S/C5H10N2O2/c1-3-7-5(9)4(8)6-2/h3H2,1-2H3,(H,6,8)(H,7,9)	InChI=1S/C5H10N2O2/c1-3-7-5(9)4(8)6-2/h3H2,1-2H3,(H,6,8)(H,7,9)
