21
gdb 101200	3.27446	0.98496	0.92265	2.7795	78.23	-0.2484	0.066	0.3144	1362.4305	0.182812	-424.184768	-424.175665	-424.174721	-424.219396	34.599	
O	 0.1083663372	 1.3887698339	-0.0618241448	-0.426943
C	 0.0287846514	-0.0032175537	 0.1483534353	-0.060965
C	-1.4150618895	-0.4965152399	 0.0112968698	 0.079995
O	-1.945786289	-0.0164579037	-1.2360705248	-0.446347
C	-1.5231919865	-1.9982270264	 0.1397105377	-0.040558
C	-1.8946143182	-2.7514668733	 1.3940676413	-0.071856
C	-2.9681687073	-2.0177046686	 2.2099924327	-0.233027
C	-3.9002484244	-2.0125163049	 0.9537522586	-0.231585
C	-2.8179600013	-2.7678222595	 0.1706083886	-0.076964
H	-0.4780865764	 1.5605811535	-0.8107664919	 0.283973
H	 0.6653450765	-0.5566448751	-0.5675861447	 0.067181
H	 0.4088287136	-0.2134368402	 1.1542128073	 0.109056
H	-2.0174109143	 0.011837265	 0.7693687839	 0.095213
H	-1.6468145587	-0.6151197052	-1.9299912531	 0.281057
H	-0.753586853	-2.5237874221	-0.4279094164	 0.079435
H	-1.2542144771	-3.5372416839	 1.7774089184	 0.085226
H	-3.371192119	-2.6428278068	 3.0096099425	 0.105128
H	-2.6906670902	-1.0507234479	 2.6413102417	 0.102774
H	-4.8019694177	-2.6075963076	 1.1104726967	 0.10252
H	-4.1912042703	-1.0403271696	 0.5463595138	 0.113558
H	-3.0030512458	-3.573408354	-0.5302908525	 0.083127
30.7908	115.5411	134.3792	202.7712	248.9018	277.4184	313.7838	402.5545	439.7632	497.4553	526.2326	601.5128	743.6106	784.0866	792.9328	800.0764	869.6213	929.9034	949.6908	958.9502	1005.5529	1019.0307	1023.6456	1066.0587	1070.9194	1084.6852	1102.7094	1121.2091	1144.4509	1187.6499	1218.2087	1223.1513	1243.4747	1263.0187	1272.3123	1303.0104	1305.9663	1354.0376	1384.1093	1417.6777	1440.3466	1459.8203	1486.7283	1503.7532	1507.9765	2927.2688	3050.7478	3062.707	3065.8214	3081.2402	3097.9333	3099.9013	3119.6625	3170.7793	3182.5972	3759.0177	3797.9052
OCC(O)C1C2CCC12	OC[C@@H](O)[C@H]1[C@H]2CC[C@@H]12	
InChI=1S/C7H12O2/c8-3-6(9)7-4-1-2-5(4)7/h4-9H,1-3H2	InChI=1S/C7H12O2/c8-3-6(9)7-4-1-2-5(4)7/h4-9H,1-3H2/t4-,5+,6-,7-/m1/s1
