18
gdb 12853	2.86087	2.432	1.82795	1.3324	66.41	-0.2513	0.0811	0.3324	811.6559	0.154506	-384.937897	-384.930708	-384.929764	-384.969209	27.869	
C	-0.2019534585	 1.5734021222	 0.1818794922	-0.465596
C	 0.0943179808	 0.0983310342	 0.0317278588	 0.411824
C	-1.1025865551	-0.901741205	 0.1515351116	-0.285971
C	-0.3727104152	-1.642756949	 1.3099014894	-0.250713
C	 0.841755369	-0.6812745139	 1.1653354108	 0.048086
O	 1.9970583262	-1.2136063241	 0.5435038735	-0.254969
C	 1.7273070369	-1.2173326944	-0.8423857906	 0.002945
O	 0.9188361254	-0.0972515573	-1.1131587632	-0.287937
H	 0.7284691651	 2.1450313276	 0.2466044538	 0.127512
H	-0.7713275368	 1.9388767295	-0.6788722073	 0.128526
H	-0.7930929982	 1.7594390368	 1.08378293	 0.114857
H	-2.05014491	-0.4323602152	 0.4263093866	 0.102288
H	-1.2594251449	-1.491414053	-0.7545457843	 0.108158
H	-0.8718503202	-1.57286423	 2.2791853718	 0.104578
H	-0.1245203704	-2.690141274	 1.1240575965	 0.109865
H	 1.1572433179	-0.142298258	 2.0608562859	 0.083141
H	 2.6685237668	-1.1246887458	-1.391366335	 0.1205
H	 1.212944811	-2.1506209806	-1.1346513605	 0.082906
80.8816	224.6526	229.2452	259.3316	334.2969	413.7329	432.8881	610.083	646.9633	724.9025	742.1791	822.0703	880.1886	886.6818	921.449	949.2304	968.7569	991.8023	1030.4191	1095.3218	1139.338	1159.3085	1176.921	1189.4769	1202.3155	1217.7271	1240.7107	1244.8375	1267.2245	1325.019	1350.5622	1410.3277	1426.5626	1467.3692	1482.0886	1484.9046	1493.8666	1542.1182	2939.2713	3037.2307	3063.3537	3068.8875	3088.3297	3093.0916	3108.2362	3110.401	3116.7764	3129.1347
CC12CCC1OCO2	C[C@]12CC[C@H]1OCO2	
InChI=1S/C6H10O2/c1-6-3-2-5(6)7-4-8-6/h5H,2-4H2,1H3	InChI=1S/C6H10O2/c1-6-3-2-5(6)7-4-8-6/h5H,2-4H2,1H3/t5-,6+/m1/s1
