18
gdb 19184	3.16795	2.10548	1.6925	1.2783	72.16	-0.2247	0.0158	0.2405	845.9381	0.154543	-347.768905	-347.761767	-347.760822	-347.799606	28.937	
C	-0.1153072421	 1.6560660504	 0.0013390864	-0.435705
C	 0.0180514198	 0.144343242	 0.0025445017	 0.065553
C	 1.1728261373	-0.5850867977	-0.7789870868	-0.141246
C	 2.4193664483	-0.0459003291	-0.0869004384	-0.090424
C	 2.0934489154	-0.074153752	 1.2121728205	-0.093364
C	 0.6697710943	-0.6288162321	 1.2101756538	-0.105268
C	 0.8854427363	-1.8075468262	 0.196975349	 0.159534
O	-0.2813498097	-2.5563833221	-0.025748426	-0.44115
H	 0.8256696667	 2.1497203497	 0.2576008366	 0.116859
H	-0.43053119	 2.015001608	-0.9850582165	 0.109886
H	-0.8757540766	 1.9766382194	 0.7224201912	 0.111378
H	-0.937799736	-0.3213688137	-0.2493607049	 0.08967
H	 1.1691299387	-0.6926907382	-1.86468814	 0.051014
H	 3.3478197249	 0.2412419148	-0.5603248901	 0.09637
H	 2.6807685352	 0.1878568099	 2.0807406825	 0.097443
H	 0.1530432109	-0.7817183943	 2.1575515602	 0.061068
H	 1.7516889582	-2.4499501112	 0.3989304989	 0.063786
H	-0.0909396716	-3.2166300677	-0.6992944683	 0.284597
220.0362	229.7765	250.0276	273.3335	310.9838	333.5351	505.4447	549.9436	588.1671	721.5813	735.6806	738.4346	822.1444	875.6833	907.2508	914.0561	924.21	935.2005	991.1803	1052.0816	1059.6424	1098.4154	1103.8768	1121.3841	1153.5906	1178.3432	1193.8996	1225.9467	1256.9289	1259.9816	1288.6429	1341.2875	1388.9124	1408.0768	1420.0723	1493.3087	1501.5321	1615.0011	3026.3054	3030.2405	3084.5233	3086.5181	3105.5135	3117.2744	3120.8518	3215.6402	3242.2301	3819.7215
CC1C2C=CC1C2O	C[C@H]1[C@H]2C=C[C@@H]1[C@H]2O	
InChI=1S/C7H10O/c1-4-5-2-3-6(4)7(5)8/h2-8H,1H3	InChI=1S/C7H10O/c1-4-5-2-3-6(4)7(5)8/h2-8H,1H3/t4-,5+,6-,7-
