20
gdb 81589	3.62232	1.17017	1.01975	2.0294	79.6	-0.231	0.0774	0.3084	1234.3715	0.170431	-403.037471	-403.029227	-403.028283	-403.070609	31.931	
C	-0.0002537993	 1.6292273711	-0.0435706453	-0.431285
C	 0.0251202031	 0.1120810352	-0.0597085261	 0.033466
C	 1.3165086045	-0.6131196561	-0.5473779995	-0.013296
O	 2.0063602757	-0.1756522449	 0.6839810122	-0.308807
C	 0.6733440057	-0.6445666144	 1.1322992955	 0.007714
C	 0.8932454211	-1.8996007737	 0.243582024	 0.063461
N	-0.2066528698	-2.7709569677	-0.0984596278	-0.098277
C	-0.7657169006	-2.7553305453	-1.4490725025	-0.217697
C	 0.0771984357	-3.88993023	-0.9908444535	-0.223491
H	 0.9502166301	 2.0252863303	 0.3194206503	 0.137878
H	-0.1840741182	 2.0272452902	-1.0475859654	 0.1119
H	-0.8024284998	 1.9971901665	 0.605347713	 0.115212
H	-0.9157335076	-0.3163097499	-0.4139053255	 0.084794
H	 1.8644195116	-0.5028741812	-1.485343052	 0.086875
H	 0.4516705545	-0.5850046463	 2.1987451595	 0.089906
H	 1.7552134292	-2.4793614809	 0.580275473	 0.091724
H	-1.8459118395	-2.8546899593	-1.5135563878	 0.120215
H	-0.3280522338	-2.080281142	-2.1817006244	 0.117822
H	 1.0776007069	-3.9649608304	-1.4147166161	 0.113458
H	-0.3715815395	-4.8397110713	-0.7130511315	 0.118427
53.4479	154.331	179.0683	224.6878	279.6013	292.0824	379.7171	425.3592	541.0215	661.9255	750.3852	780.0917	795.8593	812.6972	852.5429	869.3985	903.6538	910.2668	932.048	1016.9012	1038.3414	1060.5644	1081.1843	1085.6784	1113.3305	1128.4849	1139.2917	1143.5895	1152.9495	1176.4094	1185.2494	1200.4952	1218.9363	1255.9558	1271.7815	1337.4787	1377.0181	1396.1661	1410.26	1493.6919	1494.2392	1505.3043	1522.0042	3035.1764	3083.3221	3090.9924	3091.261	3093.3976	3097.6915	3101.8557	3114.4121	3134.8557	3174.1764	3189.7803
CC1C2OC1C2N1CC1	C[C@H]1[C@H]2O[C@@H]1[C@H]2N1CC1	
InChI=1S/C7H11NO/c1-4-6-5(7(4)9-6)8-2-3-8/h4-7H,2-3H2,1H3	InChI=1S/C7H11NO/c1-4-6-5(7(4)9-6)8-2-3-8/h4-7H,2-3H2,1H3/t4-,5-,6+,7-
