19
gdb 73364	2.45581	1.96199	1.58926	1.3119	72.66	-0.2341	0.0636	0.2977	927.8977	0.161424	-423.020642	-423.013415	-423.012471	-423.051866	29.821	
O	-0.0443559338	 1.3904981776	 0.0161763432	-0.493399
C	 0.0277592228	-0.0213886557	-0.0042451228	 0.357847
C	 0.6184476477	-0.6043683425	-1.307838232	-0.260262
C	 0.0323150291	-2.0305713783	-1.4293099356	-0.23931
C	-1.27344409	-1.9822221096	-0.632395834	-0.087533
C	-1.1517383328	-1.8948274787	 0.8755997376	 0.087798
O	 0.1484453664	-1.9164966364	 1.4231090085	-0.260741
C	 0.7014597715	-0.6109749306	 1.2580879148	-0.119825
C	-1.379963218	-0.6483502352	 0.0863487689	-0.141876
H	 0.8352875014	 1.7377119253	-0.1633621179	 0.279882
H	 0.2569494454	 0.0201459995	-2.1320323439	 0.105558
H	 1.714182309	-0.5847038289	-1.3236573878	 0.086485
H	-0.1536792623	-2.2982337081	-2.472334512	 0.100147
H	 0.7135404305	-2.7791692181	-1.0131150097	 0.115508
H	-2.1600605625	-2.4637601487	-1.0308868067	 0.084508
H	-1.9043416104	-2.3474088132	 1.512440323	 0.095248
H	 1.7888420054	-0.7131346398	 1.1775900223	 0.096563
H	 0.4610008987	 0.0307893157	 2.1186575759	 0.097347
H	-2.2569934581	-0.0168984846	 0.1385995282	 0.096055
143.2345	218.5595	243.175	300.1856	376.1847	407.4993	506.503	537.3102	594.8967	687.6149	711.9802	775.3369	787.2199	799.5365	866.4255	912.8685	939.0154	965.5215	966.6026	1017.4265	1041.2823	1061.2044	1068.7466	1091.2503	1099.3568	1141.7921	1156.8937	1176.0257	1218.4279	1233.1703	1241.1058	1268.2395	1307.3315	1324.5989	1335.7343	1354.8087	1384.664	1415.4647	1481.7087	1497.661	1512.5576	2995.2896	3033.2062	3055.5411	3072.7167	3079.3982	3102.4406	3161.0814	3169.78	3201.3142	3817.2647
OC12CCC3C(OC1)C23	O[C@@]12CC[C@H]3[C@@H](OC1)[C@@H]23	
InChI=1S/C7H10O2/c8-7-2-1-4-5(7)6(4)9-3-7/h4-6,8H,1-3H2	InChI=1S/C7H10O2/c8-7-2-1-4-5(7)6(4)9-3-7/h4-6,8H,1-3H2/t4-,5+,6-,7+/m1/s1
