27
gdb 104444	2.73933	1.11096	1.00598	0.0584	95.09	-0.2822	0.0756	0.3578	1398.3151	0.253992	-353.592034	-353.582238	-353.581294	-353.625859	39.363	
C	 0.1942946509	 1.5425055474	-0.0192782497	-0.403516
C	-0.0332573395	 0.0258345982	-0.018650278	-0.192951
C	-1.4994301671	-0.4670692424	 0.0768494313	 0.294432
C	-2.1366361947	 0.0478380351	 1.3826629664	-0.420991
C	-2.306248365	 0.0140515692	-1.1559687461	-0.203152
C	-3.6893194026	-0.6417105697	-1.2925098337	-0.206113
C	-3.5876182318	-2.1720187128	-1.3060840455	-0.175594
C	-2.8446772238	-2.6823185509	-0.0647574785	-0.210093
C	-1.4668751749	-2.0175290581	 0.07419212	-0.202074
H	 1.2630813794	 1.7638677114	-0.1043724752	 0.110454
H	-0.3069981101	 2.0325735987	-0.8596892144	 0.116677
H	-0.1619175953	 2.012739342	 0.9022747512	 0.116145
H	 0.4081386241	-0.3952702944	-0.9317678158	 0.086997
H	 0.5285954785	-0.4142983734	 0.8166776765	 0.085601
H	-2.2257068854	 1.1385473114	 1.3821453251	 0.110782
H	-3.1395400008	-0.3562180703	 1.5415970054	 0.112197
H	-1.5289771528	-0.2374156489	 2.2491623814	 0.105818
H	-2.4182168422	 1.1037655033	-1.1269036828	 0.087169
H	-1.7230190575	-0.2121246132	-2.0603884724	 0.083745
H	-4.3366520931	-0.3274155409	-0.4634561017	 0.093966
H	-4.1738141788	-0.2844377033	-2.2087045677	 0.087174
H	-4.5849297519	-2.6222141541	-1.3684730964	 0.085616
H	-3.0448277066	-2.4895182484	-2.2078306708	 0.088724
H	-3.4517967961	-2.4865273832	 0.8283815179	 0.094143
H	-2.721550811	-3.7704773203	-0.1145612474	 0.087464
H	-0.8386359931	-2.3463022806	-0.7658096917	 0.084354
H	-0.967486779	-2.3718877617	 0.9850396127	 0.083028
89.1008	142.4534	195.0033	204.6809	241.7431	285.6618	314.975	336.6737	352.0096	407.7168	419.2318	457.8411	486.9313	556.6884	695.2265	781.1371	790.3457	832.4831	853.7932	879.6014	890.659	940.2198	967.8192	978.6442	1001.1234	1019.7327	1044.9245	1061.3385	1087.1615	1090.6108	1115.6735	1170.3148	1181.7555	1213.6139	1249.1926	1288.026	1289.9024	1303.326	1344.1277	1355.0827	1366.3117	1373.9969	1380.5023	1385.2699	1391.8853	1413.0241	1419.1685	1475.061	1478.6293	1483.3574	1487.6785	1489.1036	1503.0606	1504.7347	1508.7471	1511.0426	1518.6795	2999.2718	3001.6531	3006.7268	3009.2103	3020.6913	3021.2572	3034.3076	3037.4697	3039.6411	3046.3211	3056.6017	3057.4949	3059.7065	3067.5996	3095.7842	3101.9898	3110.4373	3116.4869
CCC1(C)CCCCC1	CCC1(C)CCCCC1	
InChI=1S/C9H18/c1-3-9(2)7-5-4-6-8-9/h3-8H2,1-2H3	InChI=1S/C9H18/c1-3-9(2)7-5-4-6-8-9/h3-8H2,1-2H3
