20
gdb 110407	3.24876	1.17484	1.0847	2.8289	78.46	-0.2364	0.0704	0.3068	1212.1559	0.17122	-403.088596	-403.080062	-403.079118	-403.121819	32.685	
C	 0.1117283222	 1.456287994	 0.3339585425	-0.497025
C	 0.1409637528	-0.0052203728	 0.0093768861	 0.341221
C	-0.0368591191	-0.6502172048	-1.3572218574	-0.2938
C	-0.4099166448	-1.905539338	-0.5487809439	-0.051893
C	 0.8511379486	-2.3601326609	 0.2180399754	 0.045209
C	 2.1419104792	-2.7218218603	-0.4932405843	-0.117636
O	 3.1022977176	-3.0187669393	 0.5126472641	-0.42224
C	 0.6845441269	-1.040155648	 0.9489451956	-0.096097
N	-0.7968625439	-0.9917727432	 0.6617985876	-0.202433
H	 1.0321269623	 1.949489744	 0.0009025484	 0.120184
H	-0.7350757424	 1.9498796625	-0.1545798204	 0.123025
H	 0.0156529833	 1.6117031682	 1.4128838469	 0.130101
H	-0.9183383441	-0.2360994108	-1.8559626478	 0.106918
H	 0.797587477	-0.6872020251	-2.065529585	 0.091278
H	-1.1322967505	-2.6281844344	-0.9240023204	 0.078979
H	 0.5824458569	-3.1753579611	 0.8984744779	 0.093844
H	 1.9683870936	-3.5900323226	-1.1512971573	 0.084468
H	 2.4812956062	-1.8900693406	-1.1276032807	 0.085564
H	 3.9406931438	-3.2085225683	 0.0818002887	 0.287515
H	 1.0713858342	-0.7716640985	 1.9255529341	 0.092819
68.067	159.0841	175.4239	197.2516	261.1255	295.272	314.3894	401.2967	482.855	561.4844	605.3232	718.8366	756.3758	795.7482	810.8686	905.0177	914.6322	944.5512	996.1394	998.7137	1017.5885	1036.0236	1053.7911	1080.2005	1100.3432	1124.6119	1137.5369	1182.2898	1190.2181	1244.2214	1245.6485	1259.9302	1279.328	1298.2875	1332.4282	1384.7446	1401.7939	1427.8824	1464.5217	1483.399	1492.8579	1505.6704	1519.8624	2960.042	3004.9546	3028.8991	3041.1248	3059.8676	3091.4401	3093.3122	3107.832	3132.6649	3180.6628	3830.5131
CC12CC3C(CO)C1N23	C[C@@]12C[C@H]3[C@@H](CO)[C@@H]1N23	
InChI=1S/C7H11NO/c1-7-2-5-4(3-9)6(7)8(5)7/h4-6,9H,2-3H2,1H3	InChI=1S/C7H11NO/c1-7-2-5-4(3-9)6(7)8(5)7/h4-6,9H,2-3H2,1H3/t4-,5+,6+,7-,8?/m1/s1
