19
gdb 52432	9.14803	0.41614	0.40627	2.9056	79.16	-0.2565	-0.0295	0.227	2503.9823	0.157403	-419.214691	-419.204231	-419.203286	-419.252383	34.804	
O	-0.1393748028	-0.0839088594	-0.1278548428	-0.232208
C	-0.017557936	 1.1122224697	-0.0854946501	 0.159169
C	 1.3022593008	 1.8510305137	-0.1188849074	-0.274086
C	 1.3526611135	 2.8743061583	-1.2653628855	-0.214459
C	 2.637063952	 3.7023676516	-1.2530731987	-0.120495
N	 2.6287108224	 4.6812743462	-2.3363610228	-0.301129
C	 3.8415577946	 5.4894179767	-2.3720826369	-0.261662
C	 3.8159853365	 6.4304902394	-3.4951837985	 0.256762
N	 3.807501003	 7.1566432026	-4.3931139809	-0.294421
H	-0.9109433596	 1.7776836076	-0.0212205794	 0.074763
H	 1.4068156516	 2.3799707479	 0.8400442816	 0.121644
H	 2.1098661173	 1.1168501051	-0.1920326742	 0.125009
H	 1.2689934621	 2.3466528384	-2.2245921519	 0.113504
H	 0.4953333172	 3.5547501368	-1.2063199362	 0.123481
H	 2.7090288332	 4.2519196078	-0.3047834421	 0.110953
H	 3.5147925695	 3.0295712876	-1.2905182977	 0.08953
H	 2.5141999557	 4.2090654366	-3.2281046391	 0.232484
H	 3.9087961949	 6.0660421129	-1.4408361881	 0.158076
H	 4.7761299242	 4.9021789406	-2.4419419195	 0.133086
39.4706	58.7443	64.303	90.2098	131.9312	142.9789	182.992	265.5143	342.8941	392.8683	436.2168	515.8385	581.4962	756.0281	775.0099	820.4478	916.9253	942.2148	994.3972	1001.5265	1047.1954	1055.6263	1124.109	1146.7038	1156.2147	1196.2019	1250.7835	1269.7236	1304.0193	1327.0772	1341.8896	1375.4463	1423.0679	1429.9818	1465.603	1489.4826	1496.1777	1498.5828	1521.4319	1839.2428	2369.5712	2854.1359	2924.6546	2934.8706	3009.2034	3022.0462	3033.3466	3046.6303	3071.1101	3100.3886	3515.5959
O=CCCCNCC#N	O=CCCCNCC#N	
InChI=1S/C6H10N2O/c7-3-5-8-4-1-2-6-9/h6,8H,1-2,4-5H2	InChI=1S/C6H10N2O/c7-3-5-8-4-1-2-6-9/h6,8H,1-2,4-5H2
