16
gdb 21096	3.48645	2.02469	1.30529	5.1051	68.31	-0.2117	0.0188	0.2305	924.4433	0.130934	-376.107563	-376.099055	-376.098111	-376.14075	29.613	
C	-0.0474169124	 1.4238591089	-0.0263878136	-0.33871
N	-0.0340319486	-0.0181481137	 0.0486494332	 0.03176
N	-0.1009478075	-0.7774457238	-1.0776796436	-0.173558
N	-0.0884891155	-2.0210687947	-0.7017889379	-0.250839
C	 0.0052068533	-2.0989645888	 0.6564366434	 0.267178
C	 0.0385624385	-3.3977706619	 1.392411487	-0.50846
C	 0.0450915782	-0.8071380921	 1.1480853741	 0.226313
N	 0.0603955848	-0.279496443	 2.4407345021	-0.610061
H	 0.9413980877	 1.8480323672	 0.1826209892	 0.134599
H	-0.3407590391	 1.6938374157	-1.0408160413	 0.169498
H	-0.767959698	 1.8289097922	 0.6897588322	 0.15089
H	 0.7604541736	-3.3786555437	 2.2177898794	 0.111122
H	-0.9372314949	-3.6668162544	 1.815451924	 0.129853
H	 0.331620287	-4.196048944	 0.7067077674	 0.15016
H	 0.1039151875	-1.0099718958	 3.1393776862	 0.257429
H	 0.8140778056	 0.3791852518	 2.6036224682	 0.252826
73.1468	101.5317	141.3591	196.2925	243.2212	265.132	286.3299	322.2951	499.3765	593.0315	663.9759	717.0879	734.7231	770.9284	804.5577	994.2617	1019.094	1046.2652	1065.8187	1152.1834	1222.731	1255.9088	1275.754	1335.4927	1378.6564	1422.4278	1440.2078	1481.8169	1484.5396	1495.9855	1506.5072	1553.5608	1623.8744	1662.9374	3020.1638	3033.2991	3066.7363	3100.2526	3124.6663	3160.8553	3518.981	3617.3689
CN1N=NC(C)=C1N	Cn1nnc(C)c1N	
InChI=1S/C4H8N4/c1-3-4(5)8(2)7-6-3/h5H2,1-2H3	InChI=1S/C4H8N4/c1-3-4(5)8(2)7-6-3/h5H2,1-2H3
