19
gdb 109648	3.0992	1.00487	0.9554	4.1105	73.78	-0.2482	-0.0202	0.228	1300.1294	0.157076	-460.15155	-460.141803	-460.140859	-460.186135	35.676	
C	-0.0280999469	 1.5518956666	-0.0483795305	-0.480714
C	-0.0465728054	 0.0447039651	 0.0679165671	 0.178205
C	-1.2119875507	-0.6448936581	-0.5406278802	 0.120964
O	-2.1208078961	-0.0972560037	-1.1149890141	-0.268169
C	 1.2758993193	-0.7397461169	-0.0118298775	 0.073063
O	 2.4518538436	-0.0207712726	-0.1697353363	-0.421654
C	 0.5483346207	-0.6842994874	 1.2926445953	-0.16913
C	 1.1699066882	 0.0946008287	 2.4374552792	-0.120907
O	 2.5508361779	-0.2474873816	 2.6365882923	-0.412486
H	 0.9937812107	 1.9323846945	-0.0069375745	 0.136823
H	-0.4662812598	 1.8371388409	-1.0076953653	 0.144093
H	-0.6244993626	 2.0294246999	 0.7356438839	 0.120522
H	-1.1921725614	-1.756413791	-0.4343845214	 0.060035
H	 1.2510222126	-1.6751595655	-0.5695394501	 0.099433
H	 2.9103114139	-0.046708521	 0.6848097133	 0.301525
H	 0.0269467216	-1.5929066729	 1.5862061704	 0.094334
H	 1.1747557551	 1.1666572724	 2.2367176575	 0.136866
H	 0.5993671	-0.0630650585	 3.3611728106	 0.113682
H	 2.5951163792	-1.1787276488	 2.8790614101	 0.293516
84.0013	93.7589	139.264	190.7024	208.6541	241.562	294.9453	304.1864	332.1866	380.8724	422.3343	490.288	605.0114	621.9957	696.4925	753.1987	770.2542	857.4046	955.0125	976.7215	992.0451	1023.2658	1059.8382	1080.9212	1097.7826	1135.6011	1158.2689	1217.2676	1253.9444	1329.9252	1355.101	1379.072	1398.8093	1406.9164	1426.0812	1433.1901	1442.9803	1492.8829	1495.5951	1509.3947	1813.7609	2837.7282	3029.8509	3047.4289	3105.0067	3114.4475	3120.8069	3133.1528	3142.6477	3684.2428	3811.4378
CC1(C=O)C(O)C1CO	C[C@@]1(C=O)[C@@H](O)[C@H]1CO	
InChI=1S/C6H10O3/c1-6(3-8)4(2-7)5(6)9/h3-5,7,9H,2H2,1H3	InChI=1S/C6H10O3/c1-6(3-8)4(2-7)5(6)9/h3-5,7,9H,2H2,1H3/t4-,5+,6+/m1/s1
