18
gdb 89597	4.27035	0.94473	0.89977	4.8715	76.31	-0.267	0.026	0.293	1338.2338	0.14655	-401.931599	-401.922887	-401.921943	-401.965491	32.177	
C	-0.0176518977	 1.600088217	 0.1164843359	-0.404794
C	 0.0094550142	 0.080344515	 0.0510590217	 0.008494
C	 0.9575759586	-0.6099864475	-1.004094371	-0.317761
C	 1.6681861114	-1.3091407186	 0.1642943506	 0.434008
C	 2.3674364123	-2.6418554819	 0.1860099484	-0.455675
C	 3.5613082923	-2.6613314168	-0.663663744	 0.265463
N	 4.4924806663	-2.6731797241	-1.3469394243	-0.301296
O	 2.174910275	-0.2794792499	 1.0193736279	-0.278473
C	 0.7943085598	-0.65808745	 1.1527020703	-0.066555
H	 0.993356107	 1.9918731538	 0.2577613724	 0.138237
H	-0.4241903993	 2.0249466474	-0.8069750712	 0.119096
H	-0.6401590483	 1.9498310644	 0.9472929195	 0.11627
H	-1.0025819608	-0.3283673274	-0.0326712536	 0.081098
H	 0.4246071441	-1.2937044473	-1.6690340861	 0.110155
H	 1.5979811312	 0.050136102	-1.5932345241	 0.1237
H	 2.6568415431	-2.8801707586	 1.2146034272	 0.166411
H	 1.6868099497	-3.4293266378	-0.158568767	 0.157975
H	 0.4685852911	-0.9787932998	 2.1366493574	 0.103649
55.7927	84.7328	160.864	228.4584	237.01	319.4051	365.2572	385.5368	417.8894	451.0916	597.5822	691.7626	725.4953	804.6234	858.0584	877.3642	914.223	921.7256	953.6208	957.9598	1019.683	1046.8402	1105.9539	1113.7772	1164.3614	1191.7271	1219.5789	1246.2052	1256.2135	1299.7725	1324.6723	1361.7851	1404.4379	1443.3074	1452.0306	1481.6373	1493.6202	1503.3255	2366.5861	3034.8958	3044.3009	3057.8017	3070.5159	3092.9425	3098.6394	3120.2988	3128.4984	3176.0958
CC1CC2(CC#N)OC12	C[C@H]1C[C@@]2(CC#N)O[C@@H]12	
InChI=1S/C7H9NO/c1-5-4-7(2-3-8)6(5)9-7/h5-6H,2,4H2,1H3	InChI=1S/C7H9NO/c1-5-4-7(2-3-8)6(5)9-7/h5-6H,2,4H2,1H3/t5-,6-,7+/m0/s1
