15
gdb 47279	3.5903	1.33344	1.0213	2.4079	76.19	-0.2615	-0.0743	0.1872	1105.7817	0.11493	-453.96363	-453.956299	-453.955355	-453.995875	27.675	
N	 0.0182195694	 0.6002100126	 1.4105161885	-0.497167
C	 0.096985156	 0.0515818958	 0.2675787659	 0.359551
O	 1.288381197	-0.4432745205	-0.1968332983	-0.240734
C	 1.4468477492	-0.62393343	-1.5831433813	-0.017431
O	 0.8616093732	-1.8120210721	-2.0580678574	-0.240732
C	-0.4895922281	-1.8296991435	-2.2902545973	 0.359561
N	-1.008301943	-2.6919742292	-3.0654507278	-0.497174
C	-1.3658342992	-0.8712614856	-1.6031856267	-0.119009
C	-1.1220665932	-0.0894245245	-0.5401854919	-0.119001
H	 0.9369861168	 0.6118419884	 1.8582573117	 0.230778
H	 1.0610426521	 0.242553249	-2.1318929895	 0.12481
H	 2.5183629743	-0.7380841896	-1.7449009408	 0.142623
H	-0.2815265904	-3.2960412086	-3.4548610501	 0.230776
H	-2.3685712252	-0.8813800709	-2.0154838524	 0.141575
H	-1.9378102289	 0.5001930985	-0.1370889925	 0.141573
78.542	107.5473	299.1553	321.7898	342.9676	380.8079	438.3728	523.6851	578.8309	685.6238	749.8208	763.5875	791.8094	864.1655	867.515	912.2129	920.8949	1003.8546	1033.6231	1042.1561	1112.3466	1135.3776	1198.5952	1226.9113	1317.8861	1332.3288	1393.0205	1404.9824	1467.0807	1509.5233	1668.1183	1711.1134	1722.9401	3044.9388	3145.922	3195.2199	3210.886	3471.8854	3472.1892
N=C1OCOC(=N)C=C1	[NH]C1=CC=C(OCO1)[NH]	
InChI=1S/C5H6N2O2/c6-4-1-2-5(7)9-3-8-4/h1-2,6-7H,3H2	InChI=1S/C5H6N2O2/c6-4-1-2-5(7)9-3-8-4/h1-2,6-7H,3H2
