18
gdb 19821	3.68632	2.09608	1.83818	1.7113	70.21	-0.2416	0.0726	0.3142	806.7744	0.154877	-347.743054	-347.736353	-347.735409	-347.773509	27.173	
C	-0.3321801746	 1.5502409783	-0.1270705609	-0.416405
C	 0.0833029882	 0.0941910234	-0.0705529055	 0.143824
O	 1.1934957054	-0.2673279101	-0.9536702655	-0.322905
C	 1.807594539	-1.0739947901	 0.0866578993	 0.1132
C	 3.0061754137	-0.447089371	 0.8324457185	-0.063912
C	 2.8582932656	 1.0389228869	 0.8862303404	-0.287155
C	 2.009388338	 0.2049226976	 1.8135473689	-0.074461
C	 0.8256739432	-0.5284353096	 1.1334088808	-0.09586
H	-0.5546737773	 1.8355009896	-1.1605139829	 0.128077
H	-1.2444271212	 1.6918033749	 0.4630223953	 0.115733
H	 0.4327140809	 2.2230980994	 0.2633403538	 0.127416
H	-0.7833340502	-0.5322722266	-0.332219448	 0.07205
H	 1.8877718133	-2.1287686579	-0.1862857475	 0.074771
H	 3.9430316052	-0.9527231289	 1.0327504633	 0.083698
H	 3.6695521675	 1.5584937887	 1.3868453477	 0.109711
H	 2.448073648	 1.5623967128	 0.0325203398	 0.130666
H	 2.101292315	 0.3151679406	 2.8872967575	 0.087788
H	 0.2661814705	-1.1840867281	 1.7995044949	 0.073763
174.2114	207.3603	211.5283	339.2319	387.9227	499.0769	587.0708	650.9762	738.3094	748.5918	783.6264	856.2519	882.378	895.7367	911.3451	943.6708	966.3242	981.0923	1029.036	1036.679	1065.595	1093.2267	1099.1637	1105.2208	1156.8208	1178.1279	1195.0914	1221.2195	1277.7929	1297.1468	1301.0444	1335.9338	1354.9603	1398.2605	1411.4137	1481.3482	1491.0587	1499.9329	2976.8535	3041.1266	3079.6766	3102.1178	3118.0298	3136.9177	3142.1998	3176.4131	3186.9383	3229.2593
CC1OC2C3CC3C12	C[C@H]1O[C@H]2[C@H]3C[C@H]3[C@@H]12	
InChI=1S/C7H10O/c1-3-6-4-2-5(4)7(6)8-3/h3-7H,2H2,1H3	InChI=1S/C7H10O/c1-3-6-4-2-5(4)7(6)8-3/h3-7H,2H2,1H3/t3-,4-,5+,6-,7+/m1/s1
