21
gdb 121385	4.30292	0.84715	0.74389	1.7479	82.11	-0.2424	0.0225	0.2649	1562.2952	0.18275	-424.215783	-424.206604	-424.205659	-424.250302	33.576	
C	 0.0028012799	 1.3915884077	 0.0319563097	-0.227753
O	 0.0126164409	-0.0154852466	 0.0310163516	-0.232675
C	-1.2816923101	-0.5769325195	 0.0244423631	-0.069058
C	-1.1513930255	-2.0997208061	-0.0330714862	-0.066266
C	-2.5223785859	-2.7728031738	 0.1144591268	-0.098724
O	-2.4464850456	-4.16302247	-0.1410259395	-0.250142
C	-2.09548734	-4.4555143546	-1.4800185146	-0.114656
C	-0.9631748912	-3.6099110188	-1.9931154491	-0.093298
C	-0.5120613397	-2.5532284626	-1.3224323731	-0.048427
H	 1.0428990805	 1.7265863177	 0.0365929949	 0.12805
H	-0.4983479809	 1.7981347075	-0.8608932907	 0.104476
H	-0.5047236632	 1.7960467325	 0.9221822315	 0.103979
H	-1.8348307817	-0.2745458809	 0.9313216603	 0.084479
H	-1.8551446889	-0.2107793775	-0.8451458565	 0.086288
H	-0.5164020748	-2.3961718951	 0.8135417551	 0.09851
H	-2.9073962709	-2.6711575968	 1.1335244369	 0.1073
H	-3.2453961796	-2.2952718006	-0.5700922773	 0.084468
H	-1.8204287251	-5.5171294735	-1.4949164914	 0.116629
H	-2.9750313476	-4.3480475115	-2.1429562945	 0.094423
H	-0.5259595817	-3.9066456857	-2.9431373872	 0.090574
H	 0.3221778808	-1.9637669618	-1.6898107398	 0.101823
68.8936	97.8538	104.4474	170.7842	232.504	289.2435	293.0844	332.4676	376.5686	484.4427	534.4992	563.1739	720.4247	780.2798	869.3554	900.5693	954.4617	967.7113	1007.5405	1008.6508	1034.8756	1096.6677	1103.771	1117.1886	1149.7752	1165.2085	1184.9054	1214.0234	1224.937	1247.9193	1255.195	1295.8785	1314.3497	1353.2975	1378.0839	1404.4853	1418.6831	1428.9308	1479.9802	1485.3661	1486.4662	1498.2479	1503.2611	1526.6849	1723.5756	2925.7106	2939.3539	2953.7154	2969.2162	2970.7176	3013.2188	3014.7252	3046.9174	3080.0191	3113.9914	3156.48	3185.2638
COCC1COCC=C1	COC[C@H]1COCC=C1	
InChI=1S/C7H12O2/c1-8-5-7-3-2-4-9-6-7/h2-3,7H,4-6H2,1H3	InChI=1S/C7H12O2/c1-8-5-7-3-2-4-9-6-7/h2-3,7H,4-6H2,1H3/t7-/m0/s1
