17
gdb 113298	2.06666	1.30242	0.90913	1.0128	71.45	-0.2578	-0.052	0.2059	1271.3231	0.133039	-458.963443	-458.953952	-458.953008	-458.998084	33.451	
O	-0.0900558022	 1.2898853795	-0.2637238325	-0.40797
C	-0.0368191503	-0.0739275359	 0.1287855799	-0.111446
C	-1.413193744	-0.6999666274	 0.0247687343	-0.039404
C	-1.8853198647	-1.3762197977	-1.1940546109	-0.307339
C	-1.6171449856	-2.2498603163	 0.0476271377	 0.090012
C	-0.447258395	-3.1613234092	 0.0163776274	 0.08731
O	 0.5312433859	-3.0276794723	-0.6810457719	-0.273143
C	-2.8058239362	-2.7092297626	 0.8119296819	 0.088435
O	-3.8551482458	-2.1131995516	 0.864126985	-0.270398
H	-0.2688737097	 1.3171596854	-1.2094232344	 0.287336
H	 0.6922113506	-0.6456158153	-0.4551983757	 0.129955
H	 0.2954715657	-0.068220747	 1.1715886435	 0.119827
H	-2.1807385195	-0.2023469398	 0.6113615418	 0.135379
H	-2.9313800711	-1.2943034778	-1.4666107457	 0.151921
H	-1.1756580943	-1.5430350424	-1.9985649329	 0.146655
H	-0.5348475223	-4.0332273428	 0.7032497507	 0.087224
H	-2.6669954414	-3.6698834468	 1.3564353517	 0.085646
87.2158	108.1951	134.6136	153.7481	211.2645	217.8826	267.9268	292.527	326.2024	410.7002	455.737	493.8412	705.5963	729.7135	763.8996	903.6154	912.1431	942.3721	1011.1846	1053.467	1059.9079	1067.2169	1096.9418	1124.4287	1156.8927	1230.8381	1246.72	1297.3599	1369.6443	1410.0842	1430.3845	1437.602	1444.5532	1471.883	1514.8038	1786.7089	1824.1443	2868.1485	2889.6495	3047.2265	3095.1883	3132.2183	3163.0376	3235.2762	3814.8691
OCC1CC1(C=O)C=O	OC[C@H]1CC1(C=O)C=O	
InChI=1S/C6H8O3/c7-2-5-1-6(5,3-8)4-9/h3-5,7H,1-2H2	InChI=1S/C6H8O3/c7-2-5-1-6(5,3-8)4-9/h3-5,7H,1-2H2/t5-/m1/s1
