19
gdb 82594	2.25901	2.0425	1.59338	2.1611	73.43	-0.2411	0.0607	0.3019	940.1357	0.160324	-422.976354	-422.96878	-422.967836	-423.008305	30.174	
C	-0.2848901111	 1.5826809346	-0.0628847085	-0.415497
C	 0.0654706853	 0.1038738379	 0.0174919286	 0.026425
C	 1.1846104865	-0.4998185322	-0.8592439446	 0.085404
O	 2.450002517	 0.2013566362	-0.6945296956	-0.323999
C	 2.7774989967	-0.5862119977	 0.4786984565	 0.04111
C	 2.1043811204	 0.0535351866	 1.7062294434	 0.168506
O	 2.2737354492	 1.4295886872	 1.8904051657	-0.443937
C	 0.7313270193	-0.5570654298	 1.2630104168	-0.147125
C	 1.5401082074	-1.4965753526	 0.2789239485	-0.096858
H	 0.6002063895	 2.2209688404	-0.0441435818	 0.114799
H	-0.8264901536	 1.7967036111	-0.9910875576	 0.112681
H	-0.9250060742	 1.8804937048	 0.7736310165	 0.123029
H	-0.8341197535	-0.4919492829	-0.1915422272	 0.079176
H	 0.9945925538	-0.7351212305	-1.9088593846	 0.076452
H	 3.8305370932	-0.873711842	 0.5005508276	 0.077475
H	 2.4285972703	-0.4528596242	 2.6231860231	 0.087881
H	 2.3684391875	 1.801201546	 1.0036059842	 0.289953
H	 0.0708106634	-0.9066395683	 2.0565716479	 0.06639
H	 1.5174740128	-2.5807916146	 0.2363992009	 0.078137
93.5283	150.8374	210.311	255.6424	306.6194	468.2957	511.7038	542.7037	601.7902	630.3311	720.0569	756.9539	822.0076	842.321	848.8114	861.3099	921.6458	957.761	968.1946	1019.1194	1026.5498	1072.5632	1096.6485	1121.3922	1132.5849	1142.0092	1145.9903	1178.9749	1190.9206	1213.308	1267.3123	1276.4976	1287.1985	1313.2764	1333.6359	1349.3593	1380.2554	1410.4233	1432.827	1486.2969	1497.9676	3008.3821	3038.7099	3043.7699	3082.4331	3090.9993	3097.9696	3106.1524	3129.8982	3167.3967	3762.3117
CC1C2OC3C(O)C1C23	C[C@H]1[C@H]2O[C@H]3[C@@H](O)[C@@H]1[C@@H]23	
InChI=1S/C7H10O2/c1-2-3-4-6(2)9-7(4)5(3)8/h2-8H,1H3	InChI=1S/C7H10O2/c1-2-3-4-6(2)9-7(4)5(3)8/h2-8H,1H3/t2-,3+,4+,5+,6-,7-/m1/s1
