20
gdb 87626	2.42068	1.48039	1.12849	1.8257	81.34	-0.227	0.0131	0.2401	1162.2328	0.17138	-403.135432	-403.126695	-403.125751	-403.168685	33.823	
C	-0.2038556532	 1.5576706473	 0.2221274961	-0.394658
C	-0.1435540022	 0.0500728281	 0.2567480116	-0.052622
N	 1.0585482889	-0.5898845845	-0.3045742887	-0.397766
C	 0.7862659448	-0.7246276936	 1.1361991061	 0.275081
C	 1.7082901714	-0.1275376409	 2.1377890156	-0.118391
C	 1.6349356721	-0.7693835427	 3.3055647854	-0.090717
C	 0.6379758782	-1.9041628266	 3.2652082443	-0.302371
C	 0.3722774424	-2.078713708	 1.7481188951	 0.044673
O	-0.9139781856	-2.548358177	 1.3979210709	-0.42753
H	 0.7801976	 1.9949964069	 0.4061598738	 0.125146
H	-0.545958906	 1.9054718569	-0.7586276145	 0.12117
H	-0.8995353719	 1.9407819618	 0.9768889226	 0.112279
H	-1.0872602596	-0.4526388256	 0.0494305621	 0.081717
H	 0.7981839973	-1.454711539	-0.7763879947	 0.231179
H	 2.3392259104	 0.7238761263	 1.9151788112	 0.104925
H	 2.1947765006	-0.5124374354	 4.1975184511	 0.097551
H	 0.9974824263	-2.8250455818	 3.7355559107	 0.111751
H	-0.2941850356	-1.6344489074	 3.7857103885	 0.098533
H	 1.0573640765	-2.8413078752	 1.3573213637	 0.101861
H	-1.560931715	-1.9498981396	 1.7880912991	 0.278188
74.8798	156.5467	166.3147	191.2436	256.2174	325.4801	359.9337	420.919	453.5395	511.2436	526.9801	566.1769	665.7982	754.8048	772.9195	823.6778	878.3836	929.3617	963.0445	974.8412	1001.0276	1006.1089	1038.8979	1074.0481	1080.0051	1113.9847	1125.3013	1141.9548	1148.2605	1237.9988	1260.296	1294.1887	1302.3081	1317.2206	1331.2258	1394.5333	1409.771	1430.9199	1456.9307	1484.8558	1487.4989	1499.0431	1672.7752	2989.128	3033.7206	3034.2984	3070.282	3094.1032	3111.2927	3130.2247	3191.7702	3220.0861	3472.0826	3798.7655
CC1NC11C=CCC1O	C[C@H]1N[C@]21C=CC[C@H]2O	
InChI=1S/C7H11NO/c1-5-7(8-5)4-2-3-6(7)9/h2,4-6,8-9H,3H2,1H3	InChI=1S/C7H11NO/c1-5-7(8-5)4-2-3-6(7)9/h2,4-6,8-9H,3H2,1H3/t5-,6-,7+/m1/s1
