17
gdb 41702	3.48895	1.83422	1.80964	1.6834	70.78	-0.2321	0.0021	0.2342	832.5186	0.139805	-421.820109	-421.814308	-421.813363	-421.849889	25.229	
C	 0.0077277613	 1.5853397076	-0.0362895818	-0.075355
O	 1.4048593282	 1.913984368	 0.1160121952	-0.283529
C	 2.0652215984	 0.7069628474	 0.4232278277	 0.11586
C	 2.1586891922	-0.2786766222	-0.7748934473	 0.022159
O	 0.7482015324	-0.3247163514	-1.1882630447	-0.289309
C	 0.0272998478	 0.0578917604	-0.0154581663	 0.056781
C	 1.0483132956	-0.2171420396	 1.154951562	-0.121928
C	 1.7124845593	-1.5575299904	 1.0572049107	-0.089529
C	 2.4255286149	-1.5896706449	-0.0783174736	-0.085586
H	-0.5739128418	 2.0349982905	 0.7814509699	 0.090814
H	-0.35658719	 1.9651170885	-0.9945021854	 0.115966
H	 3.0052497651	 0.9099740133	 0.9346840768	 0.092607
H	 2.7628969332	 0.0011430355	-1.6355648491	 0.080656
H	-0.9376668798	-0.4476120588	 0.0215441346	 0.083815
H	 0.6984969605	 0.1109364122	 2.1331046583	 0.077062
H	 1.5862243479	-2.3564378151	 1.7769370037	 0.105128
H	 2.9828567646	-2.421042221	-0.4891919307	 0.10439
262.4709	346.8025	368.7732	439.9135	509.4422	585.5658	672.9405	715.4994	780.5075	789.9283	854.477	863.5501	894.6759	922.9671	934.6784	945.9381	955.6925	973.0099	989.803	1005.754	1024.0345	1058.5585	1103.5618	1130.33	1166.3287	1189.4457	1228.4309	1237.2513	1247.9455	1271.3237	1294.0919	1320.7012	1343.9954	1364.132	1385.4368	1509.2291	1630.481	3000.6224	3091.0864	3120.0641	3125.9646	3135.0976	3145.9226	3202.7093	3228.0596
C1OC2C3OC1C2C=C3	C1O[C@@H]2[C@@H]3O[C@H]1[C@H]2C=C3	
InChI=1S/C7H8O2/c1-2-5-7-4(1)6(9-5)3-8-7/h1-2,4-7H,3H2	InChI=1S/C7H8O2/c1-2-5-7-4(1)6(9-5)3-8-7/h1-2,4-7H,3H2/t4-,5-,6-,7+/m1/s1
