19
gdb 63203	2.71924	1.6196	1.56161	1.5863	75.29	-0.2344	0.001	0.2355	974.4273	0.159403	-423.009042	-423.001095	-423.000151	-423.040812	32.167	
C	-0.0641045291	 1.5470873265	 0.0221120707	-0.450893
C	 0.0044486803	 0.0188807724	-0.007248243	 0.351665
O	-1.308783053	-0.5523013211	 0.0408871792	-0.475449
C	 0.7615433454	-0.4802755762	-1.2325772633	-0.113935
C	 1.8627502051	-1.2106894585	-1.0662819374	-0.069543
C	 2.2703630767	-1.4696051183	 0.3684484871	 0.038242
C	 1.0469241608	-2.0219561599	 1.1449334357	-0.251896
C	 0.7278204516	-0.5183427459	 1.2479607982	 0.071107
O	 2.1427932402	-0.2149827432	 1.1146598999	-0.299867
H	 0.9389254646	 1.9665272577	 0.1319422179	 0.144849
H	-0.4976971237	 1.9381801956	-0.9063230877	 0.101473
H	-0.686370944	 1.8789829127	 0.8596690925	 0.119158
H	-1.8358280826	-0.148792278	-0.6568968792	 0.277558
H	 0.3657933385	-0.2215990616	-2.2122531197	 0.086111
H	 2.4366317047	-1.6216816547	-1.8902756818	 0.095698
H	 3.2536167821	-1.927360732	 0.4900373503	 0.076229
H	 0.3475259755	-2.6710011968	 0.6197144613	 0.117818
H	 1.3252447562	-2.4352281733	 2.1158261399	 0.104796
H	 0.2886146007	-0.1203966854	 2.1665858893	 0.076877
143.5362	211.683	216.8403	259.6745	331.6196	368.0523	393.4293	439.5941	451.4765	530.4001	600.4793	671.8446	731.9501	754.0618	856.7088	881.0931	917.9037	931.2828	956.9801	963.1495	967.6555	977.1526	1036.4429	1077.8305	1081.92	1117.4907	1145.2996	1166.8357	1204.5354	1219.144	1250.1063	1299.8436	1312.0351	1351.5844	1372.2912	1395.2773	1405.9919	1486.4273	1489.5844	1498.2852	1693.2613	3026.4031	3074.6549	3085.5507	3093.5946	3099.584	3128.7511	3147.9958	3156.0812	3187.0973	3809.1491
CC1(O)C=CC2CC1O2	C[C@@]1(O)C=C[C@@H]2C[C@H]1O2	
InChI=1S/C7H10O2/c1-7(8)3-2-5-4-6(7)9-5/h2-3,5-6,8H,4H2,1H3	InChI=1S/C7H10O2/c1-7(8)3-2-5-4-6(7)9-5/h2-3,5-6,8H,4H2,1H3/t5-,6-,7-/m1/s1
