22
gdb 85980	3.65755	0.97941	0.94647	2.8105	82.38	-0.2334	0.0657	0.2991	1375.2889	0.193797	-404.31444	-404.305023	-404.304079	-404.348496	36.259	
C	-0.799015698	 0.9656463039	-0.7682486246	-0.409616
C	 0.2716080696	-0.0514685997	-0.4030204642	 0.06064
C	 1.579813623	-0.092250946	-1.2441657067	-0.291017
C	 2.3874058498	-0.2964288424	 0.0736624779	 0.3754
O	 3.590826519	 0.4277130634	 0.2350103256	-0.492222
C	 1.1382828841	 0.2024973451	 0.8635029324	-0.300863
C	 2.7072835718	-1.7527508039	 0.3420740975	 0.008872
C	 4.0276904445	-2.3245708623	-0.0093540985	-0.251556
N	 3.6500286399	-2.1205215152	 1.4057816496	-0.338929
H	-0.3782792506	 1.976485919	-0.824064816	 0.106498
H	-1.2489033792	 0.7390385631	-1.7412562156	 0.117013
H	-1.6038576634	 0.9811882193	-0.0249684719	 0.117455
H	-0.1738023271	-1.0506597786	-0.3562677922	 0.078744
H	 1.679497854	-0.8545508476	-2.0211130744	 0.102917
H	 1.8025316827	 0.8869082071	-1.6840642735	 0.086268
H	 3.3922247949	 1.364861695	 0.1538879229	 0.279407
H	 1.2189343205	 1.2752370896	 1.0775276092	 0.083284
H	 0.8826848664	-0.3193965706	 1.7889512358	 0.110718
H	 1.8342104119	-2.4005031583	 0.2881026366	 0.085567
H	 4.1039663788	-3.3633898403	-0.3183088759	 0.109297
H	 4.7648543673	-1.655129062	-0.4401474207	 0.124186
H	 4.1013872201	-1.2658802986	 1.7269886767	 0.237938
77.4845	84.8255	191.9247	231.3806	251.4388	255.5268	298.9358	307.3292	367.9789	431.4055	458.1007	523.9003	645.7868	718.1271	809.2055	822.4133	861.695	891.8028	895.7951	945.9703	951.4242	977.1947	996.9732	1034.117	1060.4253	1072.3104	1103.8815	1128.92	1148.7522	1153.8445	1172.9554	1218.9324	1222.084	1232.745	1274.8892	1283.9643	1291.2214	1312.4944	1359.4858	1376.6471	1410.9261	1450.0715	1468.0433	1492.9192	1495.2104	1498.2964	1503.8451	3021.8128	3031.2245	3037.5377	3048.4527	3089.0047	3092.7173	3101.3026	3104.6839	3115.716	3123.1262	3209.3825	3492.6342	3836.0519
CC1CC(O)(C1)C1CN1	C[C@H]1C[C@@](O)(C1)[C@H]1CN1	
InChI=1S/C7H13NO/c1-5-2-7(9,3-5)6-4-8-6/h5-6,8-9H,2-4H2,1H3	InChI=1S/C7H13NO/c1-5-2-7(9,3-5)6-4-8-6/h5-6,8-9H,2-4H2,1H3/t5-,6-,7+/m1/s1
