20
gdb 86936	2.72162	1.09535	0.99523	4.4077	77.34	-0.2416	0.0377	0.2793	1286.6623	0.170658	-440.300239	-440.290812	-440.289868	-440.334879	34.91	
C	-0.7170313898	 1.1364175559	 0.1151826174	-0.412828
C	 0.0165254171	-0.1845189784	-0.0354777983	 0.020729
C	 1.2969740027	-0.2725897759	-0.9079903808	 0.08602
O	 1.9970815056	 0.9654028417	-0.8122161697	-0.433499
C	 1.8474520049	-1.327327636	 0.0884545685	-0.267844
C	 0.8446610277	-0.788804181	 1.1525161445	 0.016757
N	 1.427361324	 0.1976589831	 2.0363478328	-0.271379
C	 1.2180442753	 0.2213768165	 3.3789372572	 0.151973
O	 0.5574235203	-0.5801215437	 4.006743847	-0.329329
H	-0.0413491133	 1.9398750456	 0.414684165	 0.123767
H	-1.1856306621	 1.4300564885	-0.8299209322	 0.116464
H	-1.5049586009	 1.053357046	 0.8707526522	 0.12413
H	-0.6747376353	-0.9619301695	-0.3788619408	 0.083966
H	 1.1764094885	-0.5687712341	-1.9575527394	 0.065113
H	 2.8676805308	 0.8428860316	-1.204760603	 0.287811
H	 1.6066916504	-2.3499530769	-0.2141606012	 0.110383
H	 2.9114652702	-1.2637743525	 0.3324472789	 0.095136
H	 0.3392365522	-1.5164504068	 1.7857231733	 0.112843
H	 1.9659995535	 0.93644352	 1.6092235996	 0.250654
H	 1.7397813583	 1.0759036259	 3.855255559	 0.069134
43.9432	103.7507	176.3136	201.2526	217.0803	239.9286	270.8866	339.8575	379.2416	415.8874	475.8561	582.2914	638.1072	711.932	743.4681	812.7043	868.363	895.9654	922.5846	973.0571	988.1101	1028.3801	1045.2144	1067.0709	1134.2603	1143.6818	1165.6946	1189.1932	1234.8869	1237.449	1266.094	1282.6679	1317.2216	1355.5506	1370.9928	1406.7885	1418.8565	1431.0726	1469.1922	1491.0491	1499.6502	1535.0386	1802.2552	2928.3091	3018.9924	3040.7826	3050.2764	3059.8836	3102.583	3115.2538	3132.4205	3136.3817	3619.2847	3813.3448
CC1C(O)CC1NC=O	C[C@H]1[C@@H](O)C[C@H]1NC=O	
InChI=1S/C6H11NO2/c1-4-5(7-3-8)2-6(4)9/h3-6,9H,2H2,1H3,(H,7,8)	InChI=1S/C6H11NO2/c1-4-5(7-3-8)2-6(4)9/h3-6,9H,2H2,1H3,(H,7,8)/t4-,5-,6+/m1/s1
