20
gdb 63523	3.37588	1.05833	0.96299	2.8863	80.36	-0.2382	-0.0238	0.2144	1299.3793	0.168117	-403.140578	-403.131228	-403.130284	-403.174728	35.539	
C	 0.0315388616	 1.5261140499	-0.1823239774	-0.437566
C	-0.0305101944	 0.0208751758	-0.021513805	 0.250971
C	-1.1679817997	-0.6507620265	-0.764051543	-0.461541
N	 1.2953715268	-0.6460470619	-0.0091729227	-0.416328
C	 0.4951992491	-0.6108589358	 1.2157562371	 0.307518
C	 0.9922276848	 0.0571793805	 2.512230373	-0.412161
C	 0.3719943549	-1.1227030758	 3.2808857081	 0.404079
O	 0.2581736519	-1.392008579	 4.440152199	-0.288161
C	-0.0712583929	-1.8255507825	 1.9800007714	-0.438021
H	 0.9048645324	 1.9376755885	 0.3279386756	 0.130347
H	 0.1040453363	 1.7958559504	-1.2418389347	 0.120298
H	-0.8684430933	 2.0019506285	 0.2236083208	 0.11373
H	-1.0812002915	-0.472395796	-1.8421099614	 0.12538
H	-1.1784638489	-1.7325555008	-0.6004873465	 0.115666
H	-2.1377563551	-0.2531643692	-0.4437152809	 0.124166
H	 1.2285622015	-1.5653989658	-0.4426699946	 0.22305
H	 2.0819075102	 0.1146259031	 2.6022229779	 0.141109
H	 0.5683327088	 1.0350927653	 2.7608413749	 0.131853
H	-1.1482626846	-2.0059655446	 1.9050492116	 0.13347
H	 0.4520536521	-2.7731345942	 1.8078583068	 0.132142
44.1008	156.9509	178.7744	193.1074	201.4358	266.9595	355.443	382.8619	416.0287	442.3931	454.2135	522.4682	524.5877	663.9352	684.6256	718.2145	824.1985	905.4436	954.7256	959.0047	974.1339	990.0852	1007.362	1058.792	1075.3435	1094.6426	1148.8518	1152.7232	1181.8299	1188.3632	1232.6848	1267.835	1316.273	1410.5235	1419.7427	1421.8099	1430.2222	1456.3323	1478.027	1488.3857	1498.7583	1515.9044	1899.2799	3025.3997	3032.1721	3041.5843	3052.8324	3085.7403	3091.7899	3095.1301	3104.0941	3105.8438	3127.7839	3475.0862
CC1(C)NC11CC(=O)C1	CC1(C)NC21CC(=O)C2	
InChI=1S/C7H11NO/c1-6(2)7(8-6)3-5(9)4-7/h8H,3-4H2,1-2H3	InChI=1S/C7H11NO/c1-6(2)7(8-6)3-5(9)4-7/h8H,3-4H2,1-2H3
