17
gdb 50783	5.43509	0.52084	0.50074	3.5553	79.24	-0.2486	-0.0279	0.2207	2127.1676	0.132681	-421.78007	-421.77027	-421.769326	-421.818373	32.816	
O	-0.718305127	 0.8519315338	 0.6517976418	-0.230956
C	-0.093526946	 1.7837515998	 0.2245617534	 0.17043
C	 1.3190197128	 1.6632027927	-0.3539949441	-0.413603
C	 1.5217632368	 2.5377602633	-1.4994832497	 0.05594
C	 1.6246506269	 3.276044052	-2.4448731031	 0.076094
C	 1.7930705087	 4.1811710431	-3.5774924445	-0.381096
C	 2.5876230872	 5.4270485711	-3.2231339065	 0.109092
C	 2.3594041953	 6.7016194711	-3.9121624649	-0.180984
O	 1.8716230264	 6.4805823047	-2.5863662373	-0.224439
H	-0.4961522479	 2.8195478282	 0.2311937468	 0.098204
H	 2.0136554824	 1.934736163	 0.456125241	 0.155845
H	 1.5030718809	 0.6099972035	-0.5900240021	 0.153143
H	 2.3046861083	 3.6568687151	-4.3961908574	 0.135969
H	 0.8139836131	 4.4899015991	-3.963067467	 0.138742
H	 3.5737968615	 5.2357466447	-2.7990201665	 0.103055
H	 3.1698221266	 7.4232421478	-4.0015507575	 0.119042
H	 1.5948401537	 6.7647009969	-4.6858615222	 0.115522
9.8804	47.905	57.1305	100.4891	129.0876	249.6877	297.5554	348.0474	382.0075	455.8491	485.2075	532.4762	721.5682	788.5536	821.3612	863.4274	937.3821	960.3181	1033.3482	1043.0995	1095.6191	1107.5	1158.3979	1162.0136	1170.6257	1212.2773	1246.4083	1288.9995	1294.8197	1321.797	1414.1457	1438.6509	1441.602	1452.4586	1531.1354	1840.8464	2371.2598	2905.6898	3000.4902	3017.9654	3059.8697	3079.0964	3083.2429	3110.939	3170.1548
O=CCC#CCC1CO1	O=CCC#CC[C@H]1CO1	
InChI=1S/C7H8O2/c8-5-3-1-2-4-7-6-9-7/h5,7H,3-4,6H2	InChI=1S/C7H8O2/c8-5-3-1-2-4-7-6-9-7/h5,7H,3-4,6H2/t7-/m0/s1
