19
gdb 37734	3.42429	1.86518	1.46154	1.2138	78.87	-0.2432	0.0944	0.3376	922.7607	0.16224	-385.810209	-385.803853	-385.802909	-385.840559	27.077	
C	-0.0785181941	 1.6037614306	 0.0003872595	-0.345617
C	 1.4381414297	 1.2570101395	-0.003465925	-0.076055
C	 1.2229165339	 0.0287180971	 0.9328068078	-0.058979
C	 1.8741285742	-1.0008244586	-0.0108849385	-0.078985
C	 1.1366537927	-2.3475671595	-0.0091755395	-0.088301
O	-0.2052019655	-2.2529180356	-0.488088977	-0.261877
C	-0.9532971644	-1.118878754	-0.0442133955	-0.20992
C	-0.0261880896	 0.0640740831	-0.0128142543	 0.331811
C	 1.2282008381	 0.037465547	-0.9575841839	-0.054204
H	-0.47130789	 2.079365501	 0.9053579385	 0.09341
H	-0.4766405271	 2.0944631479	-0.8942385762	 0.09412
H	 2.2899061683	 1.9388322758	 0.0020077854	 0.069688
H	 1.1864427001	 0.037364502	 2.0247055786	 0.064532
H	 2.9632896187	-1.1153564232	 0.0033916068	 0.05869
H	 1.6214964074	-3.064309715	-0.68001806	 0.108002
H	 1.1559757891	-2.7790554355	 1.0070487183	 0.085403
H	-1.7683840149	-0.9998371936	-0.766621776	 0.109124
H	-1.401798507	-1.3040422473	 0.9462299883	 0.087815
H	 1.1983251004	 0.0589292584	-2.0480263873	 0.071343
194.8533	240.1832	345.4456	382.7292	423.658	489.6891	610.067	730.8344	738.8555	808.5839	849.0569	857.9659	862.4289	876.7376	914.4582	932.4693	981.0043	1001.332	1011.6023	1016.6411	1038.3529	1074.3727	1108.6125	1116.2617	1138.2656	1151.5895	1157.7029	1185.4157	1212.621	1215.2051	1218.0012	1249.6191	1282.9412	1299.0498	1332.7852	1345.4458	1380.1409	1417.4497	1499.3034	1505.7265	1511.2747	2950.9711	2964.2747	3033.2507	3048.5819	3059.6982	3069.6196	3084.1721	3090.7454	3096.7695	3108.3294
C1C2C3C4COCC13C24	C1[C@H]2[C@@H]3[C@H]4COC[C@@]13[C@@H]24	
InChI=1S/C8H10O/c1-4-6-5-2-9-3-8(1,6)7(4)5/h4-7H,1-3H2	InChI=1S/C8H10O/c1-4-6-5-2-9-3-8(1,6)7(4)5/h4-7H,1-3H2/t4-,5+,6+,7-,8-
