19
gdb 126901	3.20087	1.03448	0.79462	4.2573	80.35	-0.1953	0.0097	0.205	1452.5862	0.159951	-415.391508	-415.382009	-415.381065	-415.426727	33.7	
C	 0.0852153999	 1.4829847837	 0.0865599182	-0.400642
C	-0.0098146641	-0.0326238678	-0.0475552819	-0.100087
N	-1.4029294162	-0.4644868616	 0.0609570071	-0.405111
C	-1.6589837162	-1.8313422602	 0.0179058461	 0.308373
C	-2.8859435696	-2.4737496916	 0.0148084154	 0.2371
C	-4.2859057719	-1.9646027298	 0.0155973892	-0.518583
N	-2.5299208591	-3.7879835718	 0.0218929242	-0.222337
N	-1.2030901674	-3.960308088	 0.0465707905	-0.136156
N	-0.6673177057	-2.7655228157	 0.0358334559	-0.269518
H	 1.1278465923	 1.8074177005	 0.0256147572	 0.121386
H	-0.4643388145	 1.9898945303	-0.716172026	 0.108311
H	-0.3283459121	 1.8177455337	 1.0424842484	 0.125592
H	 0.4507025152	-0.3636895436	-0.9914859268	 0.10045
H	 0.5514611806	-0.5247183081	 0.7517144643	 0.13179
H	-2.0136280869	 0.0664221978	-0.5460910881	 0.226704
H	-4.7112978324	-1.8870895411	-0.9931670302	 0.137829
H	-4.9495926959	-2.60733683	 0.6034566216	 0.134058
H	-4.3142172605	-0.9668954703	 0.4639493343	 0.146695
H	-3.1297272355	-4.5976703364	 0.0254531006	 0.274145
61.7405	68.0296	104.0293	131.8629	235.7791	253.3971	256.4567	329.2259	345.851	484.3191	550.1551	588.1218	658.7672	699.3527	746.6586	800.5681	828.8907	931.7784	986.4969	1023.3296	1061.6335	1079.3588	1116.9435	1139.2353	1152.6397	1208.4207	1261.678	1288.8206	1347.8264	1362.5025	1383.3091	1413.5679	1423.8475	1470.9559	1483.791	1492.9565	1497.4908	1501.0092	1523.9957	1539.3087	1645.2476	2983.2778	3019.3082	3029.4118	3075.6326	3079.7237	3102.0813	3107.813	3119.9714	3561.7411	3651.8807
CCNC1=C(C)NN=N1	CCNc1c(C)[nH]nn1	
InChI=1S/C5H10N4/c1-3-6-5-4(2)7-9-8-5/h3H2,1-2H3,(H2,6,7,8,9)	InChI=1S/C5H10N4/c1-3-6-5-4(2)7-9-8-5/h3H2,1-2H3,(H2,6,7,8,9)
