18
gdb 77042	3.17667	1.01959	0.83042	3.2811	78.82	-0.2469	0.0325	0.2794	1372.9156	0.145853	-401.942563	-401.933072	-401.932127	-401.977463	34.443	
C	-0.0970344817	 1.6244686883	 0.231994321	-0.406815
C	-0.00776526	 0.1162295261	 0.0434665075	-0.184587
C	 0.6226913598	-0.4948695403	-1.2591802023	 0.04697
C	 1.1904086263	 0.4601944797	-2.3200586873	-0.364143
C	 1.9676682299	-0.2567643097	-3.3242623427	 0.278379
C	 2.6055581847	-0.8850986096	-4.1263390716	-0.425049
N	 1.6264094296	-1.1160298879	-0.3936128585	-0.327926
C	 1.1419377708	-0.6123596528	 0.7893474898	 0.433906
O	 1.4969022156	-0.7166477655	 1.932672755	-0.365245
H	 0.8581684072	 2.1220328613	 0.0411326491	 0.125996
H	-0.8527354831	 2.0682960404	-0.4240949216	 0.120066
H	-0.3773146309	 1.8448127533	 1.2660060535	 0.140224
H	-0.9707573773	-0.3511532918	 0.2704661989	 0.10568
H	-0.0269617766	-1.2271222064	-1.7517754205	 0.094994
H	 0.3614771406	 0.9947735007	-2.8011985545	 0.136077
H	 1.8205413766	 1.2156950124	-1.838013213	 0.136145
H	 3.1706210937	-1.420808718	-4.8484255118	 0.200306
H	 2.3866731348	-1.7466611601	-0.6022272012	 0.255021
55.6515	77.0572	114.236	181.6048	205.1159	237.1618	333.6015	354.6211	396.9005	468.0574	511.3628	539.5785	628.2606	648.382	692.3793	741.4018	813.7893	839.8323	907.3053	954.3462	1003.6125	1043.3983	1069.269	1115.7632	1149.7967	1186.1267	1198.4921	1224.6482	1276.0435	1326.0085	1351.3684	1383.2401	1401.3398	1413.0878	1461.6558	1494.893	1500.0876	1893.1361	2238.0828	3028.7602	3037.3843	3040.4013	3069.611	3074.7292	3108.6139	3116.5388	3505.5161	3609.9187
CC1C(CC#C)NC1=O	C[C@H]1[C@@H](CC#C)NC1=O	
InChI=1S/C7H9NO/c1-3-4-6-5(2)7(9)8-6/h1,5-6H,4H2,2H3,(H,8,9)	InChI=1S/C7H9NO/c1-3-4-6-5(2)7(9)8-6/h1,5-6H,4H2,2H3,(H,8,9)/t5-,6+/m0/s1
