13
gdb 131423	5.1543	0.92918	0.87	3.0924	65.04	-0.2669	-0.0257	0.2412	1277.9712	0.088387	-452.713402	-452.70545	-452.704506	-452.74742	28.546	
O	 0.3845686522	 1.2757629712	-0.2705481224	-0.397548
C	 0.2134361132	-0.0376249135	-0.14158669	 0.438424
N	-0.0200326145	-0.8066076162	-1.1742228765	-0.194952
O	-0.1266976261	-2.0780714478	-0.571133026	-0.192233
C	 0.0531613322	-1.9057376605	 0.7364887413	 0.443534
C	 0.0110771164	-3.1062674992	 1.6340452332	-0.449626
C	-1.2666822723	-3.8107159722	 1.5930528139	 0.301708
C	-2.3168500904	-4.3905721626	 1.5638444567	-0.432921
N	 0.2701429297	-0.6705913212	 1.0774100324	-0.390294
H	 0.5337677412	 1.6325648862	 0.6136497171	 0.321382
H	 0.8215782468	-3.7879832232	 1.344944144	 0.169057
H	 0.2296455861	-2.7567171979	 2.6472672683	 0.173013
H	-3.2465133444	-4.9033234431	 1.5334453179	 0.210456
18.3108	97.6268	224.7063	274.199	320.6162	357.0845	403.8712	423.7743	500.1724	633.8935	639.0104	666.674	736.0986	771.2557	807.6176	917.7591	954.6868	964.2401	1041.9145	1071.0457	1202.3491	1222.3186	1330.7012	1344.3371	1443.9555	1453.3804	1604.3124	1677.3062	2251.5251	3031.0181	3094.2825	3505.0958	3812.1396
OC1=NOC(CC#C)=N1	Oc1noc(CC#C)n1	
InChI=1S/C5H4N2O2/c1-2-3-4-6-5(8)7-9-4/h1H,3H2,(H,7,8)	InChI=1S/C5H4N2O2/c1-2-3-4-6-5(8)7-9-4/h1H,3H2,(H,7,8)
