19
gdb 65231	2.82782	1.2463	1.11045	2.9026	75.91	-0.2458	0.0344	0.2802	1172.8082	0.159721	-419.203089	-419.194215	-419.193271	-419.237167	32.973	
C	 0.1056672497	 1.4561967723	-0.4317974943	-0.49095
C	 0.0824084664	-0.0227146983	-0.0991365455	 0.33766
C	 1.2889396766	-0.8309321997	-0.4154264689	-0.274034
N	 0.9509540605	-0.5239052289	 0.9875623697	-0.357467
C	-1.2670077823	-0.7046656559	-0.1431650824	-0.182469
C	-2.4305217382	-0.1416898955	 0.7344064726	-0.18455
N	-3.1691451555	 0.0849311023	-0.5107450346	-0.321274
C	-2.1891996142	-0.3768176016	-1.3543716992	 0.410983
O	-2.1111387252	-0.4610407159	-2.5511473475	-0.368795
H	 1.1284082693	 1.8440395059	-0.3957464878	 0.112883
H	-0.2867975387	 1.6350751679	-1.4378975372	 0.150425
H	-0.4961942122	 2.0402761534	 0.2737443341	 0.120287
H	 1.1907414592	-1.8766262963	-0.6932891874	 0.121125
H	 2.132384199	-0.3218234222	-0.874361981	 0.112705
H	 1.5458373746	 0.2288083411	 1.3265047107	 0.226734
H	-1.1389477964	-1.7807574962	-0.009105364	 0.105483
H	-2.8923725573	-0.8692096288	 1.408309547	 0.117396
H	-2.1966079864	 0.7717572576	 1.2892017017	 0.113311
H	-4.0966064692	 0.4373936788	-0.695017906	 0.250548
49.0019	95.7468	137.3494	228.6786	234.2445	307.1517	350.8248	366.5624	417.9473	485.591	543.8225	641.4483	749.9477	775.5282	842.039	867.1517	917.6955	937.2556	974.8558	986.1124	989.8001	1054.0401	1070.1631	1072.2123	1121.7548	1153.0894	1161.4433	1171.2309	1182.5928	1264.2287	1286.2663	1296.5455	1353.7041	1392.7263	1404.1134	1421.5712	1489.1555	1503.5268	1516.0796	1532.2296	1887.9613	3030.9959	3047.9793	3088.7238	3094.8597	3100.8955	3108.1922	3109.3629	3192.6106	3490.3962	3612.0595
CC1(CN1)C1CNC1=O	C[C@]1(CN1)[C@H]1CNC1=O	
InChI=1S/C6H10N2O/c1-6(3-8-6)4-2-7-5(4)9/h4,8H,2-3H2,1H3,(H,7,9)	InChI=1S/C6H10N2O/c1-6(3-8-6)4-2-7-5(4)9/h4,8H,2-3H2,1H3,(H,7,9)/t4-,6-/m0/s1
