20
gdb 61597	3.42179	0.93673	0.8276	1.9608	75.49	-0.2388	0.0766	0.3154	1434.6904	0.169742	-440.21534	-440.206007	-440.205062	-440.250775	33.981	
O	 0.8714031155	 1.7480593128	-0.2411553305	-0.444006
C	 0.0612131782	 0.6241921984	 0.0821844865	 0.084595
C	 0.1810706653	-0.4709921215	-0.9837757352	-0.167454
N	-0.0916651795	 0.104487254	-2.3008720213	-0.098172
C	 1.0819853037	 0.4189694236	-3.1223255923	-0.227448
C	 0.2228776629	-0.7496932424	-3.4426142867	-0.219693
C	 0.4854466589	 0.1827171392	 1.4671545393	 0.088322
C	 0.1399276568	-1.116079393	 2.0547868549	-0.191127
O	 1.4660749893	-0.8509514536	 1.5926311594	-0.224525
H	 0.5506456684	 2.0799835411	-1.0866320103	 0.296106
H	-0.9953995862	 0.9350322432	 0.1414944848	 0.076405
H	 1.1764858481	-0.9356439378	-0.9220700837	 0.112791
H	-0.5679213813	-1.2486288172	-0.7951064869	 0.100067
H	 1.0146481811	 1.3267285197	-3.7158209319	 0.11595
H	 2.0634769836	 0.2227538235	-2.6967729923	 0.127937
H	 0.6314935803	-1.7375075785	-3.2371362935	 0.114374
H	-0.4809031278	-0.7105275289	-4.2690158194	 0.118352
H	 0.6424328637	 1.0244570865	 2.1420705996	 0.105478
H	 0.0270465216	-1.2012680006	 3.1347068444	 0.117278
H	-0.4181222026	-1.8506327286	 1.4765270551	 0.11477
35.4898	81.3685	86.8092	133.4937	239.3998	275.466	334.7331	382.7644	411.3519	452.8193	504.8107	601.2802	774.7839	785.3516	839.697	866.623	904.585	907.8131	959.409	1015.1254	1030.3793	1039.7671	1089.3516	1111.9745	1121.7851	1124.6867	1133.0274	1161.9628	1171.9991	1176.5801	1191.0774	1243.4126	1276.4836	1297.5987	1316.8488	1342.1929	1387.8036	1427.482	1450.6072	1484.4445	1493.2443	1521.8658	1534.6758	2962.9247	2994.9943	3062.923	3086.6715	3098.2741	3104.9301	3113.8814	3170.4501	3180.4914	3195.216	3815.0757
OC(CN1CC1)C1CO1	O[C@@H](CN1CC1)[C@H]1CO1	
InChI=1S/C6H11NO2/c8-5(6-4-9-6)3-7-1-2-7/h5-6,8H,1-4H2	InChI=1S/C6H11NO2/c8-5(6-4-9-6)3-7-1-2-7/h5-6,8H,1-4H2/t5-,6+/m0/s1
