18
gdb 67569	2.92628	2.03961	1.51255	0.7295	73.87	-0.2287	0.0631	0.2918	903.7011	0.148958	-401.850691	-401.843977	-401.843033	-401.881329	28.147	
C	-0.0030985696	 1.4902942485	-0.0315667029	-0.518461
C	 0.0768590665	-0.0147263024	 0.0312138732	 0.356292
C	 0.4199787865	-0.7410722242	-1.2689133556	-0.03193
O	 1.5780641528	-1.585977143	-1.1638820444	-0.253534
C	 0.2804198159	-2.1382197448	-0.8777627865	 0.013042
C	-0.1196385344	-1.9768280473	 0.5752992247	-0.018215
C	 0.6946793069	-0.8239802444	 1.2158168119	-0.100356
C	-0.585444418	-0.5102853668	 2.0009189337	-0.201734
N	-1.1578058663	-0.8101959496	 0.6142071752	-0.198255
H	 0.9625125655	 1.9009941653	-0.3456987951	 0.131742
H	-0.7535130833	 1.7977530199	-0.768006056	 0.131877
H	-0.2664727262	 1.9477955393	 0.9244001989	 0.125456
H	 0.2009975017	-0.3321049681	-2.2494865853	 0.103152
H	-0.0645893455	-2.9414508311	-1.5181159553	 0.108891
H	-0.4010233764	-2.8505677435	 1.1631893364	 0.076794
H	 1.7367248836	-0.8390887823	 1.5477434666	 0.074358
H	-0.9021111771	-1.2299850862	 2.7610365959	 0.099793
H	-0.7601915024	 0.5087790807	 2.3499968045	 0.101087
182.1958	232.9166	299.4573	331.4139	396.2411	486.6441	547.405	615.9669	707.1181	718.4893	766.233	792.612	834.878	850.1209	882.1488	918.9743	927.6779	939.5688	977.7511	1006.1006	1046.1242	1069.7231	1083.1265	1104.8514	1115.3167	1154.3617	1197.6823	1217.126	1219.9543	1240.7735	1248.9225	1276.9546	1316.4499	1336.873	1411.8436	1421.0292	1486.5486	1491.2003	1540.2826	3037.2237	3057.2022	3069.0455	3098.5424	3116.9794	3119.9592	3127.0437	3173.4928	3192.2415
CC12C3OC3C3C1CN23	C[C@@]12[C@H]3O[C@H]3[C@H]3[C@@H]1CN23	
InChI=1S/C7H9NO/c1-7-3-2-8(7)4(3)5-6(7)9-5/h3-6H,2H2,1H3	InChI=1S/C7H9NO/c1-7-3-2-8(7)4(3)5-6(7)9-5/h3-6H,2H2,1H3/t3-,4+,5-,6-,7-/m0/s1
