15
gdb 57042	3.22391	1.08353	1.00455	4.2448	66.6	-0.2742	-0.0517	0.2225	1188.7301	0.111947	-453.938179	-453.929729	-453.928785	-453.972001	30.284	
O	 0.1177653387	 1.4816182455	-0.0099298286	-0.411507
C	 0.0296407275	 0.082114558	-0.0401794366	-0.015571
C	 0.6598908164	-0.4811021149	-1.2578135245	 0.257099
N	 1.1787146837	-0.9290367122	-2.1881900898	-0.314802
C	 0.6850380543	-0.5226575929	 1.2171155415	-0.138956
N	 1.9248917577	 0.1962621658	 1.6062405132	-0.336896
C	 1.4605633676	 0.4307049097	 3.003113931	-0.28506
C	 0.0795417025	-0.0890784911	 2.5737488556	 0.403345
O	-1.0065515594	-0.1399627458	 3.0571888514	-0.27091
H	 1.019529236	 1.6671703595	 0.302231574	 0.296463
H	-1.0323949731	-0.1878337006	-0.045291831	 0.155811
H	 0.7691789668	-1.6133253243	 1.1312318304	 0.124772
H	 2.7792289751	-0.3394568621	 1.5183054348	 0.246943
H	 1.9237272347	-0.2075699853	 3.7667755262	 0.14009
H	 1.5094043012	 1.4734749005	 3.3317159524	 0.149179
63.9232	107.5216	115.812	178.3252	255.057	281.1441	422.3023	436.5372	543.9651	566.4003	583.7241	669.8614	672.3302	795.0906	820.5012	911.6836	945.6618	996.9159	1019.4893	1033.6566	1077.015	1102.1423	1122.4426	1208.4357	1250.673	1267.1421	1325.9742	1346.2679	1366.087	1442.1853	1474.6739	1928.7336	2352.5362	3026.718	3038.8787	3064.6809	3087.4585	3567.8071	3669.2858
OC(C#N)C1NCC1=O	O[C@@H](C#N)[C@H]1NCC1=O	
InChI=1S/C5H6N2O2/c6-1-3(8)5-4(9)2-7-5/h3,5,7-8H,2H2	InChI=1S/C5H6N2O2/c6-1-3(8)5-4(9)2-7-5/h3,5,7-8H,2H2/t3-,5+/m0/s1
