15
gdb 8637	2.52403	1.7752	1.38357	4.655	67.37	-0.2942	-0.0127	0.2815	958.8751	0.114992	-362.631215	-362.62183	-362.620886	-362.665186	32.768	
C	-0.0031740847	 1.5642162986	 0.1242663678	-0.407168
C	-0.0568307375	 0.0436103333	-0.0173700267	-0.190016
C	 0.7151968162	-0.48194929	-1.2608569816	 0.030685
O	 2.0709261304	-0.0354770109	-1.2498465137	-0.435382
C	 0.6449354083	-1.9481105942	-1.3156119745	 0.29632
C	 0.6237370512	-3.1487027854	-1.2977061052	-0.427155
C	 0.108112751	 0.0786957315	-2.49314781	 0.317224
N	-0.4003576617	 0.5250581662	-3.4285181459	-0.338759
H	 1.0314790046	 1.9122434453	 0.1644051154	 0.138488
H	-0.4976384653	 2.0587170037	-0.7169317126	 0.14518
H	-0.5091377822	 1.8733894402	 1.0428354746	 0.119709
H	 0.3965356311	-0.4451714155	 0.8521624619	 0.110332
H	-1.0902586867	-0.3124007662	-0.0817046105	 0.12728
H	 2.5782740363	-0.6812509261	-0.7454146752	 0.297913
H	 0.598212619	-4.2112059803	-1.3043682837	 0.215349
82.5686	111.0606	128.6039	149.8037	180.8337	231.2634	251.2195	317.2674	414.0706	486.4146	521.2674	570.2796	603.3923	656.5009	689.2748	692.9016	792.2006	954.1976	977.6348	1025.4813	1078.2905	1133.9171	1154.6693	1285.1521	1346.203	1388.9253	1412.3179	1475.4573	1495.2427	1509.1345	2239.764	2367.9728	3045.0497	3050.9523	3088.4432	3120.792	3134.8891	3497.0694	3815.3087
CCC(O)(C#C)C#N	CC[C@@](O)(C#C)C#N	
InChI=1S/C6H7NO/c1-3-6(8,4-2)5-7/h1,8H,4H2,2H3	InChI=1S/C6H7NO/c1-3-6(8,4-2)5-7/h1,8H,4H2,2H3/t6-/m0/s1
