19
gdb 98483	2.191	1.33094	0.94029	3.812	72.49	-0.2607	-0.0257	0.2349	1270.6652	0.157351	-460.160148	-460.150545	-460.1496	-460.194911	35.323	
O	-0.026624341	 1.5223284646	-0.1523654264	-0.42556
C	-0.1039823476	 0.1684331646	-0.4844742184	-0.154781
C	-1.2554999293	-0.5100324194	 0.2441498323	 0.295944
O	-1.9590061678	 0.164970157	 0.9754923848	-0.350979
C	-1.5102769598	-1.9700688234	 0.0332887281	 0.204017
C	-0.5164899558	-2.7852601598	-0.7706070737	-0.162447
O	 0.767537761	-2.8581952756	-0.1680706093	-0.409382
C	-2.2338335887	-2.6727440689	 1.1812107551	-0.288001
C	-2.9881961891	-2.3463087667	-0.059751948	-0.286564
H	-0.7750580521	 1.6750489107	 0.4471110849	 0.292298
H	-0.2600615289	 0.0306211926	-1.5692343122	 0.111176
H	 0.823391543	-0.3683064563	-0.2387936925	 0.142248
H	-0.9358276539	-3.7896821485	-0.9352591611	 0.092696
H	-0.3495762397	-2.3439588517	-1.7585264354	 0.122292
H	 0.6538373139	-3.2109054702	 0.7212909453	 0.286238
H	-1.9666828718	-3.7080983839	 1.3674684232	 0.116161
H	-2.4273286877	-2.0700533151	 2.0601817193	 0.146856
H	-3.690345051	-1.5223811251	-0.0188066611	 0.143889
H	-3.2453610636	-3.1469894551	-0.7445547851	 0.123899
50.0526	118.019	122.9231	184.5263	223.2088	272.0524	302.4023	335.725	368.1778	413.2149	434.8227	468.3181	567.9091	621.3115	783.8112	797.9319	847.0482	889.2512	947.2402	960.0328	1011.9888	1031.0335	1048.9421	1068.7301	1091.8664	1101.2942	1148.1439	1200.6733	1212.2045	1251.9709	1296.2822	1309.4209	1342.9739	1391.4036	1422.9699	1451.9188	1452.9663	1482.5236	1497.2501	1508.7842	1761.1162	2957.3985	2986.4397	3027.4852	3075.9869	3134.2646	3141.3727	3228.5693	3241.5493	3678.4123	3805.1959
OCC(=O)C1(CO)CC1	OCC(=O)C1(CO)CC1	
InChI=1S/C6H10O3/c7-3-5(9)6(4-8)1-2-6/h7-8H,1-4H2	InChI=1S/C6H10O3/c7-3-5(9)6(4-8)1-2-6/h7-8H,1-4H2
