16
gdb 77129	2.95825	1.26414	1.10966	4.2037	67.57	-0.2605	-0.0535	0.207	1137.3438	0.122322	-475.028965	-475.020133	-475.019189	-475.063522	31.72	
C	 0.0824072839	 1.0882970081	-1.0417858821	-0.493909
C	-0.0353164098	 0.1011607268	 0.0907970536	 0.426333
O	 0.8715403981	-0.1356644446	 0.8607133491	-0.32393
C	-1.3739226388	-0.6102449685	 0.2765884833	-0.052428
O	-1.2026240783	-2.0552018333	 0.208105313	-0.254747
C	-1.4172661482	-2.2158796389	 1.5704535436	 0.395783
N	-1.2990258009	-3.2204164584	 2.3028317735	-0.535657
C	-1.8019944718	-0.7540549969	 1.7896041592	 0.016821
O	-1.1821432358	-0.0101269986	 2.7748359133	-0.410535
H	 1.0699987529	 1.5499468039	-1.0424108538	 0.153187
H	-0.0961593963	 0.5820194841	-1.9978268918	 0.155643
H	-0.69093302	 1.8601611195	-0.9461530596	 0.152264
H	-2.1392524566	-0.2787848078	-0.4289333215	 0.094958
H	-0.9769489097	-4.0387344597	 1.7835611687	 0.235479
H	-2.8812093606	-0.6272136819	 1.9080192199	 0.132554
H	-0.2288944881	-0.1521341438	 2.6840598717	 0.308184
32.5423	77.998	155.9569	202.2766	240.9927	272.1712	323.2383	396.0061	460.4296	527.1497	594.5942	636.5087	657.6438	752.4397	810.4193	865.6665	910.4283	919.9264	969.847	996.8111	1012.0996	1045.626	1171.1047	1183.1608	1201.0299	1208.5425	1296.0771	1308.7337	1372.0835	1390.5953	1455.2016	1458.5053	1470.0888	1794.4405	1837.7321	3032.1866	3084.158	3090.8218	3095.0325	3158.0356	3480.9806	3743.9842
CC(=O)C1OC(=N)C1O	CC(=O)[C@H]1O[C]([NH])[C@H]1O	
InChI=1S/C5H7NO3/c1-2(7)4-3(8)5(6)9-4/h3-4,6,8H,1H3	InChI=1S/C5H7NO3/c1-2(7)4-3(8)5(6)9-4/h3-4,6,8H,1H3/t3-,4+/m0/s1
