18
gdb 17843	3.88049	1.68169	1.49995	2.4817	67.2	-0.2416	0.0654	0.307	912.4912	0.154015	-384.888542	-384.88102	-384.880075	-384.920266	29.188	
C	-0.1176567547	 1.5480008997	 0.2396373129	-0.387511
C	 0.0590082089	 0.0533664111	-0.0587303606	 0.095642
O	 1.0089321856	-0.5261123224	 0.8229527777	-0.439228
C	-1.2962907185	-0.6508503444	-0.0574244889	-0.029503
C	-1.6031557129	-2.138714423	-0.0184969446	-0.166101
C	-0.7431055335	-2.8670025879	 1.0099053246	-0.097281
O	-1.064316162	-1.8751181797	 2.0366445678	-0.303981
C	-1.9883691337	-1.2319545247	 1.1354910831	 0.062044
H	 0.8587496798	 2.0390603519	 0.2453802906	 0.123223
H	-0.7489190984	 2.0364311564	-0.5110583778	 0.105155
H	-0.5817808963	 1.6924379612	 1.221662175	 0.113828
H	 0.4930571092	-0.0511951118	-1.0627735217	 0.084014
H	 0.5367676901	-0.7518483228	 1.6366338265	 0.291095
H	-2.0122261023	-0.1454385827	-0.7057228732	 0.095592
H	-2.2248343712	-2.6212036771	-0.7607810255	 0.100582
H	-1.1576913957	-3.838378811	 1.2990199167	 0.112457
H	 0.331019113	-2.9399384392	 0.8298208815	 0.132333
H	-2.9408672275	-0.9206200035	 1.5497759759	 0.10764
73.359	201.5605	228.1974	254.7976	316.6963	371.4368	421.6974	511.1682	571.6514	693.333	742.5786	795.6301	803.1242	842.9971	909.5679	949.1212	972.6939	988.4961	1006.1989	1039.7096	1062.0166	1072.7455	1103.1056	1114.8231	1124.9941	1176.6175	1196.6825	1262.4882	1318.7682	1323.7529	1347.9673	1364.432	1401.7211	1442.2764	1456.8971	1494.36	1495.6841	1505.5864	3009.7056	3029.8444	3046.8484	3097.3919	3117.2854	3120.5065	3121.3522	3173.4116	3202.2723	3727.3902
CC(O)C1C2COC12	C[C@@H](O)[C@H]1[C@H]2CO[C@@H]12	
InChI=1S/C6H10O2/c1-3(7)5-4-2-8-6(4)5/h3-7H,2H2,1H3	InChI=1S/C6H10O2/c1-3(7)5-4-2-8-6(4)5/h3-7H,2H2,1H3/t3-,4-,5+,6-/m1/s1
