21
gdb 66221	2.59364	1.07614	0.92252	2.9676	82.61	-0.2376	0.0244	0.262	1359.8761	0.181971	-383.25794	-383.24793	-383.246985	-383.294288	36.583	
C	-0.8149257946	 1.5193075479	-0.0910853212	-0.489577
C	-0.3415492836	 0.0787756231	-0.1731220296	 0.384886
C	-1.4214320754	-1.00327567	-0.2250347469	-0.25677
N	-2.0850978387	-1.2963560517	-1.4968553897	-0.268609
C	-3.1116782315	-0.4017525252	-1.9972767179	-0.275317
C	-2.6494677502	 0.7097891773	-2.8559731908	 0.259477
N	-2.266693473	 1.539637179	-3.5647570929	-0.318534
C	 0.9464167856	-0.2103123235	-0.9090368097	-0.296003
C	 0.9133677204	-0.2695751739	 0.5982563033	-0.302801
H	 0.0343778385	 2.2005421033	 0.0216400297	 0.116212
H	-1.3584816764	 1.8325537714	-0.9861752843	 0.146826
H	-1.4697975294	 1.6650529062	 0.7769124321	 0.108825
H	-0.9732170506	-1.9497474268	 0.1004843161	 0.10469
H	-2.2075814103	-0.7715192786	 0.5055498702	 0.105466
H	-1.4139775985	-1.5252397261	-2.219939099	 0.231492
H	-3.8398829231	-0.970453752	-2.5912334271	 0.153452
H	-3.6648997963	 0.0175449985	-1.1503131927	 0.154183
H	 1.0363618061	-1.1484056049	-1.449007352	 0.10272
H	 1.4594827835	 0.6185981943	-1.3841736597	 0.11911
H	 1.4027888303	 0.5234956478	 1.1534081307	 0.111973
H	 0.9783186672	-1.2443044461	 1.0713000614	 0.108298
15.6028	67.5151	121.0444	186.4024	211.4448	242.1028	291.377	340.0454	356.817	372.3578	396.5295	517.9394	570.9078	621.0802	732.0286	786.1566	871.6252	882.6047	906.6137	912.0889	953.0386	960.0769	961.7696	1043.2273	1061.4014	1082.4254	1106.1318	1128.927	1153.7961	1188.4304	1243.6305	1309.225	1322.7854	1362.5498	1375.447	1395.3983	1426.6362	1454.765	1469.2217	1471.8009	1493.8677	1505.1167	1509.6047	1513.7974	2343.9143	3016.067	3019.0916	3027.1509	3058.6623	3081.4166	3090.5483	3119.0743	3123.4259	3128.2582	3201.5892	3215.7504	3555.9014
CC1(CNCC#N)CC1	CC1(CNCC#N)CC1	
InChI=1S/C7H12N2/c1-7(2-3-7)6-9-5-4-8/h9H,2-3,5-6H2,1H3	InChI=1S/C7H12N2/c1-7(2-3-7)6-9-5-4-8/h9H,2-3,5-6H2,1H3
