18
gdb 71563	3.1044	1.66664	1.49924	2.477	75.18	-0.2201	-0.0121	0.208	948.21	0.148918	-401.91651	-401.909375	-401.908431	-401.947669	29.05	
C	-0.0636614744	 1.5354493688	 0.078467326	-0.498148
C	-0.0455142042	 0.0334215774	 0.0106827667	 0.351976
C	-1.3222044341	-0.8240421875	-0.0277415345	-0.292326
C	-0.3497810751	-1.9059907162	 0.5059147246	-0.126647
N	 0.4424418258	-0.7952523505	 1.2107987129	-0.172131
C	 1.8194140459	-0.8109241432	 0.592451131	-0.18969
C	 1.1196701698	-0.7104491267	-0.7841653218	-0.222102
C	 0.4862600257	-2.1003396352	-0.7653735046	 0.455783
O	 0.5935713946	-3.0365315731	-1.5062166982	-0.339581
H	 0.9306114224	 1.9479070398	 0.276228042	 0.125972
H	-0.4163568547	 1.9526992447	-0.8711314334	 0.12755
H	-0.7368985324	 1.8715597401	 0.8731539324	 0.131619
H	-2.0297381497	-0.4936569374	 0.7365207972	 0.119072
H	-1.8314933031	-1.0084673974	-0.9768557205	 0.115169
H	-0.6618355885	-2.7728115227	 1.0835105932	 0.094534
H	 2.360404281	 0.0873959748	 0.8976166426	 0.118607
H	 2.4307614137	-1.6949746819	 0.8011003059	 0.117378
H	 1.5868189073	-0.361775134	-1.7036662414	 0.082964
147.2237	205.677	247.8807	290.0122	407.0487	420.7165	471.2139	538.7298	640.4693	705.0518	739.724	762.7096	791.1423	828.7645	871.3619	900.8036	928.2017	952.9485	988.1181	1012.0986	1014.4089	1063.1862	1116.1833	1134.4432	1143.3974	1169.0514	1195.4639	1203.2793	1217.3565	1237.8185	1254.215	1290.3562	1325.7056	1414.3016	1481.8001	1485.2444	1488.3802	1513.0864	1884.6983	3034.0069	3050.7479	3062.8356	3102.2624	3109.0026	3113.2677	3125.6467	3134.3492	3153.2533
CC12CC3N1CC2C3=O	C[C@]12C[C@@H]3N1C[C@H]2C3=O	
InChI=1S/C7H9NO/c1-7-2-5-6(9)4(7)3-8(5)7/h4-5H,2-3H2,1H3	InChI=1S/C7H9NO/c1-7-2-5-6(9)4(7)3-8(5)7/h4-5H,2-3H2,1H3/t4-,5-,7+/m0/s1
