17
gdb 57997	3.88541	0.84887	0.7059	3.8587	72.16	-0.2554	0.0056	0.2609	1541.2445	0.133976	-455.188708	-455.178342	-455.177398	-455.22647	33.935	
C	 0.0468599132	 1.3781323539	 0.0911005484	-0.342524
N	-0.0269835344	-0.0728413792	 0.0852768975	-0.152818
C	 1.2340600111	-0.7905145433	 0.1668968738	-0.345242
C	-1.2471744107	-0.6614548584	 0.0048003378	 0.552607
O	-2.3154893285	-0.0901891718	-0.0649786434	-0.420706
O	-1.1520450151	-2.0296882618	 0.0102385263	-0.266989
C	-2.418131638	-2.6774770538	-0.0734149583	-0.192929
C	-2.1807775267	-4.1210907355	-0.0669219246	 0.262656
N	-2.0305220473	-5.2656303417	-0.0641416231	-0.291812
H	 0.6388695311	 1.7356157207	-0.7604362303	 0.127384
H	-0.9617734094	 1.7814742716	 0.0254201422	 0.171877
H	 0.5229729222	 1.7343472714	 1.0129522697	 0.127378
H	 1.7633546653	-0.524309408	 1.0903965362	 0.129648
H	 1.0612266364	-1.862999552	 0.1558701138	 0.169884
H	 1.8780265196	-0.5245430664	-0.6807178914	 0.12967
H	-3.0555643984	-2.3979716919	 0.7715871636	 0.170801
H	-2.9446489003	-2.387322784	-0.9882547082	 0.171116
15.51	60.3686	109.6313	112.4091	119.9157	151.5129	227.9953	253.482	336.5996	376.3047	380.8009	471.9519	582.0347	637.5481	763.861	845.9648	972.2633	1009.7485	1018.1054	1088.1166	1098.7433	1134.8825	1183.4826	1204.2546	1245.3242	1288.1768	1373.6362	1437.5592	1441.6324	1473.3063	1488.2879	1491.4218	1500.5671	1503.6711	1548.4592	1802.0091	2375.8687	3014.3357	3021.4385	3057.6024	3061.4763	3066.3424	3095.6476	3174.1603	3192.1388
CN(C)C(=O)OCC#N	CN(C)C(=O)OCC#N	
InChI=1S/C5H8N2O2/c1-7(2)5(8)9-4-3-6/h4H2,1-2H3	InChI=1S/C5H8N2O2/c1-7(2)5(8)9-4-3-6/h4H2,1-2H3
