21
gdb 70356	2.70343	1.67081	1.35581	1.4553	80.67	-0.2247	0.0803	0.305	1047.5587	0.183842	-387.071622	-387.063811	-387.062867	-387.103507	31.872	
C	-0.2805832316	 1.4364934666	 0.1358053004	-0.488335
C	 0.0487554634	-0.0333379892	 0.0117799058	 0.317923
C	-0.3535314564	-0.9875678802	 1.1305215582	-0.378271
C	 1.1014806492	-0.7133575578	 0.8494308853	 0.073869
O	 1.8301724642	-1.6504014703	 0.1002816633	-0.269531
C	 1.3078081702	-1.7171657228	-1.2206454346	 0.123116
C	 0.2591464846	-2.8250764058	-1.5304956446	-0.248437
C	-0.7893385587	-1.7240708098	-1.8738379029	-0.242708
C	 0.2051974763	-0.6270947474	-1.3868206753	-0.109918
H	 0.4153505661	 2.0506339471	-0.4475303412	 0.116911
H	-1.2942720205	 1.6499719991	-0.2235487607	 0.119247
H	-0.2269724813	 1.7696721955	 1.1772580846	 0.11441
H	-0.7850912404	-0.5380286205	 2.0198096688	 0.108176
H	-0.7520744125	-1.9665893272	 0.8919456864	 0.115142
H	 1.7193570574	-0.1920501251	 1.573391461	 0.094067
H	 2.1492395865	-1.6920767829	-1.919678479	 0.077038
H	 0.523291395	-3.4989907928	-2.3490336199	 0.097958
H	 0.0199697571	-3.4291489042	-0.6526009053	 0.110984
H	-1.007516373	-1.6562220105	-2.9421414072	 0.100263
H	-1.7382676181	-1.7727422878	-1.3349388469	 0.102455
H	 0.4093001226	 0.1701125361	-2.1057801661	 0.06564
119.647	190.9333	208.4088	250.9515	304.7675	373.6868	429.3759	473.1032	580.5224	667.1437	686.57	721.583	770.2779	831.1606	847.0864	875.7801	901.8455	928.3467	952.5845	962.7421	1007.1613	1023.2213	1034.657	1048.6874	1078.1421	1097.5355	1106.1576	1136.9313	1159.8538	1196.3016	1224.8195	1240.399	1252.8993	1271.5553	1274.6686	1304.3785	1332.0308	1361.1234	1407.4382	1418.9869	1471.1737	1484.7874	1490.0162	1495.1114	1500.7187	3020.3261	3053.6801	3062.5341	3067.0328	3076.4144	3079.9887	3095.3506	3107.6703	3126.1506	3129.8523	3163.1179	3219.7482
CC12CC1OC1CCC21	C[C@]12C[C@H]1O[C@H]1CC[C@@H]21	
InChI=1S/C8H12O/c1-8-4-7(8)9-6-3-2-5(6)8/h5-7H,2-4H2,1H3	InChI=1S/C8H12O/c1-8-4-7(8)9-6-3-2-5(6)8/h5-7H,2-4H2,1H3/t5-,6+,7-,8-/m1/s1
