20
gdb 90561	4.34049	0.84164	0.8268	3.0855	80.15	-0.2453	-0.0221	0.2232	1468.8073	0.16921	-403.107303	-403.09825	-403.097305	-403.142097	33.282	
C	 0.0699650201	 1.5888027521	-0.1028016298	-0.413283
C	 0.0162018262	 0.0707262125	 0.0188869554	 0.014433
C	 0.9964677633	-0.6925533756	-0.933149408	-0.269946
C	 1.7523073234	-1.2229600425	 0.2981318642	-0.044342
C	 0.8097489509	-0.4881227329	 1.2230749534	-0.048202
N	 0.898446222	-1.9294450296	 1.2348134255	-0.09478
C	-0.1855103491	-2.803323445	 0.8240322086	-0.235708
C	 0.287867091	-4.2492019291	 0.824639392	 0.158058
O	-0.2000594191	-5.1185310127	 0.151405071	-0.240009
H	 1.101276317	 1.9539561625	-0.0375720565	 0.117628
H	-0.3440391107	 1.9216989997	-1.060185004	 0.119684
H	-0.5044068665	 2.0695832972	 0.6967891879	 0.117267
H	-1.0256027531	-0.2657800281	-0.0231763244	 0.073479
H	 0.5756566439	-1.4369604085	-1.6159977936	 0.106009
H	 1.6078508566	 0.0010172713	-1.515897584	 0.108723
H	 2.823604296	-1.3758639699	 0.3717120616	 0.096003
H	 1.0107970853	 0.0482146276	 2.1459244007	 0.091853
H	-0.9845449451	-2.7321778256	 1.5764888073	 0.133413
H	-0.6416142207	-2.5907630342	-0.1516505713	 0.121437
H	 1.1298669985	-4.4429347193	 1.525555044	 0.088282
42.2358	73.132	108.0244	222.4839	234.1503	257.0274	287.0513	384.9877	450.2239	516.5199	583.7173	700.1707	737.0853	791.4619	839.1648	859.0492	884.4517	925.9428	960.7705	976.9671	1040.2015	1049.662	1064.1912	1086.5381	1108.8878	1119.4256	1129.5659	1195.3602	1230.9366	1239.8156	1253.8644	1277.1013	1284.7833	1332.4966	1356.6006	1388.3885	1404.8854	1410.4681	1453.5031	1490.4046	1494.6497	1499.0205	1838.9993	2895.2323	3005.8452	3025.8357	3038.716	3048.9111	3054.4494	3092.3367	3099.2379	3106.3879	3151.5787	3171.5519
CC1CC2C1N2CC=O	C[C@H]1C[C@H]2[C@@H]1N2CC=O	
InChI=1S/C7H11NO/c1-5-4-6-7(5)8(6)2-3-9/h3,5-7H,2,4H2,1H3	InChI=1S/C7H11NO/c1-5-4-6-7(5)8(6)2-3-9/h3,5-7H,2,4H2,1H3/t5-,6-,7+,8?/m0/s1
