23
gdb 118048	3.46578	0.65434	0.62599	3.4948	78.34	-0.2543	0.0579	0.3122	1857.3939	0.203363	-462.549792	-462.538371	-462.537427	-462.587071	40.873	
C	-0.0543513525	 1.6748219098	-0.0162454209	-0.425622
C	-0.0191804311	 0.1357434577	 0.0049373243	-0.002325
C	 0.6578413782	-0.4479219724	-1.2482633037	-0.166299
C	-0.0035526999	-0.0750670885	-2.5700615285	-0.0903
O	 0.6346813964	-0.8304480359	-3.5896040207	-0.419242
C	 0.6609934968	-0.4267230949	 1.2699816268	 0.097726
O	 2.003989331	 0.0483213372	 1.4394322344	-0.447849
C	-0.1077511791	-0.2062626245	 2.5767102272	-0.079113
O	 0.5919182255	-0.7752767855	 3.6636684445	-0.425212
H	 0.9516786903	 2.0962639231	-0.1340264905	 0.115475
H	-0.6507616539	 2.0435379471	-0.8546294469	 0.126467
H	-0.4933060404	 2.0898140864	 0.8956825115	 0.120896
H	-1.0582846741	-0.2245403015	 0.0315526491	 0.076819
H	 1.7100369201	-0.1429295506	-1.2716475662	 0.114873
H	 0.6548197679	-1.5424367743	-1.182535635	 0.107392
H	-1.082680439	-0.3021739614	-2.5232210262	 0.081115
H	 0.0933014322	 1.0038474401	-2.7648528814	 0.085235
H	 0.2602238069	-0.5702104592	-4.4361337943	 0.285198
H	 0.7803661167	-1.5096120617	 1.1478658543	 0.096203
H	 1.9700140465	 1.0104118925	 1.4941276828	 0.284302
H	-0.2803352718	 0.8721837725	 2.7400308401	 0.07451
H	-1.0898822237	-0.6897872079	 2.5250484919	 0.105295
H	 1.5231019371	-0.5799132883	 3.4943684274	 0.284455
54.4591	63.899	93.3997	113.8662	145.1734	230.8927	241.3275	269.0357	290.054	296.4463	331.3842	351.1753	370.5181	503.8597	520.2312	533.7702	648.1047	793.2258	832.4836	878.4224	946.4767	984.6832	1010.3536	1017.8	1063.246	1073.0896	1087.4455	1115.2436	1132.4239	1184.0085	1207.0851	1237.1592	1242.5127	1284.7073	1293.994	1311.4177	1327.875	1366.6829	1371.2718	1393.2161	1416.8522	1430.4357	1444.8418	1461.8505	1490.6314	1503.2428	1510.4164	1511.2545	1528.265	2949.0461	2952.3346	2992.1836	2998.937	3030.8492	3036.6537	3048.1682	3065.006	3083.3228	3098.1805	3115.3564	3761.9621	3794.2383	3829.5712
CC(CCO)C(O)CO	C[C@@H](CCO)[C@@H](O)CO	
InChI=1S/C6H14O3/c1-5(2-3-7)6(9)4-8/h5-9H,2-4H2,1H3	InChI=1S/C6H14O3/c1-5(2-3-7)6(9)4-8/h5-9H,2-4H2,1H3/t5-,6-/m0/s1
