25
gdb 99743	1.77746	1.32557	0.92551	2.366	89.23	-0.2371	-0.009	0.2282	1446.7654	0.225324	-389.527904	-389.516134	-389.51519	-389.565182	42.341	
C	 1.4125132702	-0.1693896575	-1.1568071857	-0.401046
C	 0.4255133224	 0.0173318856	 0.0011614422	-0.181056
C	 0.9103437539	-0.5754197974	 1.3423549675	-0.066918
C	-0.0886563432	-0.3462647039	 2.5099150328	 0.054293
C	 0.4268116002	-0.9731295808	 3.8157984711	-0.410652
C	-0.4042137355	 1.1387090167	 2.737031163	-0.40953
C	 1.1287768555	-2.0844579713	 1.1560208764	 0.405577
C	 2.5354124378	-2.6177146561	 1.3435850633	-0.486827
O	 0.2042540229	-2.809676529	 0.8619053297	-0.33262
H	 1.5732379113	-1.2278224038	-1.3865366329	 0.126355
H	 1.0369271688	 0.3076325717	-2.0671679634	 0.11658
H	 2.3868536422	 0.2780530105	-0.9283023344	 0.110567
H	 0.2335954691	 1.0861889606	 0.1311852355	 0.097638
H	-0.531039967	-0.4543488785	-0.251116067	 0.117723
H	 1.8686471567	-0.1072328173	 1.6090275214	 0.061409
H	-1.015003166	-0.8638347519	 2.2306534865	 0.095794
H	-0.2897958526	-0.8178112701	 4.6285047752	 0.114158
H	 0.5821445294	-2.0521139834	 3.7207487026	 0.123075
H	 1.3764501011	-0.5180670012	 4.1239259971	 0.108086
H	-0.902942321	 1.5983252228	 1.8803333544	 0.11854
H	-1.065739833	 1.2564624674	 3.6017196829	 0.112358
H	 0.5094355108	 1.7103011517	 2.9422297736	 0.109525
H	 3.2203349679	-2.1175978766	 0.6489906532	 0.139778
H	 2.8924960821	-2.3881262086	 2.3541415885	 0.139657
H	 2.5584008261	-3.6956967796	 1.1768123967	 0.137538
48.78	66.7637	86.4875	150.874	173.3777	178.2968	202.555	236.7683	253.455	281.8362	334.5622	350.7748	395.0011	426.7718	452.3379	593.7046	603.5923	736.0631	834.2956	850.9559	904.4484	930.003	946.7599	960.5622	970.3673	1021.2444	1036.3994	1074.6203	1121.8524	1143.8434	1161.6598	1187.1754	1193.8002	1277.6366	1295.5536	1346.7717	1359.5113	1364.4589	1371.2549	1380.544	1402.0045	1414.2278	1422.2449	1461.4022	1471.6457	1481.5095	1487.8308	1496.9241	1500.8798	1504.6931	1507.738	1516.6976	1802.9347	3002.4514	3022.8475	3026.5957	3029.4895	3032.6026	3036.5008	3044.9872	3080.879	3087.3407	3093.1502	3094.3213	3100.2318	3104.2395	3107.0649	3119.0153	3147.6338
CCC(C(C)C)C(C)=O	CC[C@@H](C(C)C)C(=O)C	
InChI=1S/C8H16O/c1-5-8(6(2)3)7(4)9/h6,8H,5H2,1-4H3	InChI=1S/C8H16O/c1-5-8(6(2)3)7(4)9/h6,8H,5H2,1-4H3/t8-/m0/s1
