20
gdb 121503	6.34325	0.55528	0.53238	4.5814	81.95	-0.2462	0.0112	0.2574	2082.6306	0.169274	-440.256136	-440.246294	-440.24535	-440.292746	34.914	
O	 0.2771033596	 1.1564739896	-0.0587630613	-0.422327
C	-0.2027544998	-0.1229143811	 0.2914804658	-0.035813
C	-1.6737725471	-0.2898933966	-0.1035373472	-0.157626
N	-1.8001685139	-0.0199726875	-1.5251501201	-0.235169
C	-2.408967856	-0.8554195215	-2.2415416079	 0.128072
O	-2.5390198809	-0.6522286164	-3.5695917094	-0.20813
C	-3.1835786665	-1.6818750469	-4.2842542536	 0.12209
C	-4.6869640865	-1.7457721163	-4.2726227898	-0.287046
C	-3.9412498499	-1.249342033	-5.494310919	-0.2791
H	-0.0441094415	 1.311965724	-0.9570264184	 0.292277
H	 0.388824228	-0.9224469183	-0.186261165	 0.079547
H	-0.0913999819	-0.2295678301	 1.3761874778	 0.1004
H	-2.0368494968	-1.2909208709	 0.1844908654	 0.079329
H	-2.2630421549	 0.4572463044	 0.4432277694	 0.114507
H	-2.8769871577	-1.779966968	-1.8739458082	 0.085507
H	-2.6149672044	-2.6077825581	-4.3215245399	 0.106507
H	-5.1611432263	-2.720266455	-4.3043664728	 0.122852
H	-5.2055387717	-1.0038785056	-3.6761650313	 0.131499
H	-3.9652380878	-0.1836478022	-5.6889811045	 0.138764
H	-3.899127134	-1.8761389706	-6.3772085902	 0.123859
31.0004	50.5159	89.481	116.9411	167.0672	225.2874	311.5627	362.4239	368.8203	467.7488	493.2944	533.563	580.7072	759.3529	820.7626	836.9723	890.7853	902.9947	977.9231	992.1615	997.3966	1057.5214	1076.8347	1084.8351	1096.0004	1121.2276	1127.993	1187.9233	1193.4859	1210.5192	1227.7614	1256.3095	1268.8528	1363.2908	1384.1235	1385.9731	1416.4804	1444.385	1455.3912	1481.5378	1496.0727	1509.741	1775.4756	2956.4967	2965.9287	3017.1569	3044.4861	3067.9253	3134.6543	3141.166	3148.6717	3226.3961	3241.3325	3760.0065
OCCN=COC1CC1	OCCN=COC1CC1	
InChI=1S/C6H11NO2/c8-4-3-7-5-9-6-1-2-6/h5-6,8H,1-4H2	InChI=1S/C6H11NO2/c8-4-3-7-5-9-6-1-2-6/h5-6,8H,1-4H2
