19
gdb 107448	3.42213	1.31264	1.15642	3.4762	74.5	-0.2229	0.0563	0.2792	1107.6934	0.16144	-419.148622	-419.140855	-419.139911	-419.180693	31.043	
O	 0.5273317044	 0.6799464886	-0.9308746418	-0.40986
C	-0.0165201148	 0.219111419	 0.296651776	-0.201973
C	-1.4451924315	-0.2640137781	 0.1651618579	 0.343323
N	-1.8364412596	-1.0528892655	-1.0145205454	-0.346878
C	-2.4299770846	 0.2857856943	-0.8117814716	-0.10009
C	-3.8250910361	 0.2933438872	-0.1845338839	-0.221266
C	-3.6410802616	-0.2621802143	 1.2295006524	-0.038974
N	-3.2172822268	-1.6733113443	 1.2935440953	-0.307096
C	-2.2063687852	-0.6068534747	 1.4351723135	-0.126583
H	 0.107215848	 1.5199435232	-1.1415812364	 0.28887
H	 0.6262643916	-0.6131833584	 0.6078709857	 0.123909
H	 0.0490358513	 0.98958219	 1.0808351017	 0.095211
H	-1.0841432166	-0.9508964556	-1.6966253738	 0.23212
H	-2.1712665176	 1.0673954592	-1.5217900903	 0.06707
H	-4.1989475179	 1.321870278	-0.1289630788	 0.094774
H	-4.5382537311	-0.2971930516	-0.7673878225	 0.121938
H	-4.2578533832	 0.1304285858	 2.0327240433	 0.083154
H	-3.4371656339	-2.0403367692	 2.217374259	 0.226701
H	-1.7088081649	-0.4693987535	 2.3904349297	 0.075649
100.8653	186.2955	212.9436	268.7407	343.0426	364.1636	395.3005	437.5424	567.684	645.8303	698.783	725.5961	801.4157	840.8336	857.0849	873.4991	900.0846	921.5451	973.9292	990.3074	1021.9869	1038.0779	1052.4674	1087.545	1091.4561	1139.2773	1155.9449	1195.893	1208.8845	1209.1261	1244.5588	1275.9337	1305.8135	1333.5366	1361.4662	1395.8834	1417.1995	1429.206	1446.5776	1466.8058	1502.3015	2981.6064	3045.7705	3054.5658	3094.0988	3132.8208	3145.5605	3157.2339	3462.0827	3485.0889	3819.6076
OCC12NC1CC1NC21	OC[C@]12N[C@H]1C[C@H]1N[C@@H]21	
InChI=1S/C6H10N2O/c9-2-6-4(8-6)1-3-5(6)7-3/h3-5,7-9H,1-2H2	InChI=1S/C6H10N2O/c9-2-6-4(8-6)1-3-5(6)7-3/h3-5,7-9H,1-2H2/t3-,4+,5-,6+/m1/s1
