14
gdb 133189	3.09912	1.43609	0.98722	1.9093	69.49	-0.2275	-0.0756	0.1519	1097.3177	0.101123	-474.164708	-474.157064	-474.15612	-474.197036	28.571	
C	 0.1229066384	 1.4662412074	 0.0245516942	-0.461468
C	 0.0408191677	-0.0217176438	-0.010083676	 0.326918
N	-0.0028736961	-0.646967631	-1.1447299311	-0.347269
C	-0.077367807	-2.0084798745	-1.1002601067	 0.362737
F	-0.1190855519	-2.5923481436	-2.2822928238	-0.055108
N	-0.1110756429	-2.7757547275	-0.0717089238	-0.258641
N	-0.064856461	-2.1118978683	 1.1119633695	-0.30875
C	 0.0119620851	-0.7401055759	 1.2839973717	 0.350215
N	 0.0565056972	-0.0955630731	 2.3926986643	-0.551609
H	 1.0179860067	 1.7759129154	 0.5738888296	 0.161047
H	 0.1364217534	 1.8656164859	-0.9891688745	 0.141962
H	-0.7235673575	 1.8716621089	 0.5884176098	 0.161051
H	-0.0914736456	-2.7168427421	 1.9189375515	 0.272295
H	 0.0288979834	-0.7187652577	 3.2016445653	 0.20662
89.7903	146.597	213.0948	299.4318	346.6158	375.1652	416.8953	506.7162	538.9069	549.6375	577.469	670.9336	712.9154	779.1578	809.7514	810.2731	961.4498	1030.4732	1049.7316	1105.2745	1217.3213	1255.9128	1362.2823	1399.5111	1415.6949	1451.7803	1458.4338	1469.2361	1610.687	1664.0473	1697.0914	3049.1749	3103.368	3164.5028	3456.8816	3621.4566
CC1=NC(F)=NNC1=N	Cc1nc(F)n[nH]c1[NH]	
InChI=1S/C4H5FN4/c1-2-3(6)8-9-4(5)7-2/h1H3,(H2,6,8)	InChI=1S/C4H10FN4/c1-2-3(6)8-9-4(5)7-2/h2-4,6-9H,1H3
