19
gdb 101048	2.22225	1.17333	1.03439	3.9764	75.63	-0.2707	0.0166	0.2873	1266.1602	0.158156	-419.187163	-419.177289	-419.176345	-419.222039	35.667	
C	-0.0724583396	 1.6180635487	 0.4790598804	-0.425877
C	-0.047480586	 0.14126337	 0.0659043102	-0.073299
C	 0.8737872271	-0.6968258064	 0.9745083763	-0.084898
O	 2.2244925935	-0.2719974373	 0.9142559626	-0.418555
C	-1.4501008408	-0.463167649	 0.0241691782	 0.154168
C	-2.2538283152	-0.3870326912	-1.2343626338	-0.269868
N	-1.7116937116	-1.6723650221	-0.7887933655	-0.336879
C	-2.1640616054	-0.4427345365	 1.2883590421	 0.2937
N	-2.7106377146	-0.3847916426	 2.3056200315	-0.349985
H	 0.9386307733	 2.0339746269	 0.4571563839	 0.119687
H	-0.6897706671	 2.2111046632	-0.2019050188	 0.125589
H	-0.4763717417	 1.7388185011	 1.4900703829	 0.141712
H	 0.3536920326	 0.0701984837	-0.9539651782	 0.083996
H	 0.4893637087	-0.6846663035	 2.0047768427	 0.116922
H	 0.8672985644	-1.740331025	 0.6411577732	 0.115608
H	 2.329917833	 0.4852622039	 1.4967926997	 0.290859
H	-3.3343724319	-0.302884896	-1.1783407377	 0.145179
H	-1.7918921127	 0.1237482279	-2.0753743438	 0.127538
H	-0.869060416	-1.9031731157	-1.3112904358	 0.244403
68.3446	99.3641	140.4688	169.7761	219.2125	234.9115	259.8614	285.3504	295.9468	394.3464	428.234	467.5479	579.3502	607.8969	706.2947	849.0706	864.9442	905.435	911.744	947.7736	987.6211	1020.4001	1068.341	1100.2769	1106.8108	1132.1158	1146.1254	1226.0315	1256.8565	1287.3644	1311.9018	1347.3132	1381.2648	1396.3912	1406.8392	1425.6273	1496.0441	1502.4944	1506.4096	1508.1431	2354.2449	3003.4461	3021.7326	3038.7757	3073.1547	3109.8661	3114.0318	3115.4241	3208.0878	3494.0263	3839.4936
CC(CO)C1(CN1)C#N	C[C@@H](CO)[C@]1(CN1)C#N	
InChI=1S/C6H10N2O/c1-5(2-9)6(3-7)4-8-6/h5,8-9H,2,4H2,1H3	InChI=1S/C6H10N2O/c1-5(2-9)6(3-7)4-8-6/h5,8-9H,2,4H2,1H3/t5-,6+/m0/s1
