20
gdb 47556	2.43714	1.57529	1.08518	2.3722	78.56	-0.236	-0.0117	0.2243	1138.3756	0.173711	-403.157288	-403.149401	-403.148457	-403.189746	31.179	
O	 0.0083561078	-0.096669314	-0.0033909132	-0.307533
C	 0.0257626656	 1.1126590981	 0.0274696722	 0.384017
C	-1.2629085986	 1.9315839697	 0.0591159145	-0.286421
C	-1.5399889118	 2.8026867828	-1.1886816181	-0.20069
C	-0.4670720213	 3.8634216066	-1.4924717013	-0.213971
C	 0.774216366	 3.2728390456	-2.1366045927	-0.00813
N	 2.0898265194	 3.7064141619	-1.6327679355	-0.343208
C	 1.6524417132	 2.3172942641	-1.410941044	-0.020334
C	 1.3405916679	 1.8914304145	 0.0163471167	-0.305691
H	-2.0847275627	 1.2254009387	 0.2044121834	 0.117578
H	-1.222099272	 2.5891865556	 0.9385010617	 0.110354
H	-1.6722337742	 2.1518567239	-2.0623056414	 0.108068
H	-2.5033818161	 3.2995979366	-1.0299757863	 0.104809
H	-0.8869248623	 4.6232620015	-2.1618648508	 0.099962
H	-0.181464757	 4.3884029315	-0.5747231777	 0.110634
H	 0.686120228	 3.1060559209	-3.2094588812	 0.085176
H	 2.7673117826	 3.7468687658	-2.389783847	 0.232611
H	 2.1164071259	 1.5392524597	-2.0131592635	 0.097441
H	 1.2694963065	 2.7832101268	 0.6447116268	 0.118289
H	 2.131652923	 1.2464373897	 0.4073154574	 0.117041
85.1568	132.9359	240.3662	294.2266	300.0095	359.5412	436.5944	455.2233	516.9038	558.2326	655.2108	746.8319	797.4778	845.7936	854.574	886.668	904.2528	945.4064	966.26	986.6885	1010.259	1062.0805	1072.3352	1085.1451	1145.6722	1162.4101	1196.454	1215.5393	1252.8877	1264.1748	1267.6916	1285.0211	1303.4123	1344.9542	1358.5033	1378.5071	1406.9307	1466.0665	1471.2175	1479.3975	1492.8894	1497.6813	1808.1305	3017.0791	3027.5613	3035.6246	3062.6688	3069.2479	3078.5566	3099.36	3111.5251	3115.8524	3135.209	3501.9484
O=C1CCCC2NC2C1	O=C1CCC[C@H]2N[C@H]2C1	
InChI=1S/C7H11NO/c9-5-2-1-3-6-7(4-5)8-6/h6-8H,1-4H2	InChI=1S/C7H11NO/c9-5-2-1-3-6-7(4-5)8-6/h6-8H,1-4H2/t6-,7+/m1/s1
