15
gdb 37192	3.69147	1.75933	1.65238	1.5645	62.72	-0.2488	0.05	0.2988	832.9873	0.113371	-457.62951	-457.623667	-457.622723	-457.659408	24.801	
C	 0.1089875844	 1.4947827721	 0.2180586891	-0.179972
O	 1.5166430247	 1.4308115238	-0.166609633	-0.296515
C	 1.2995777254	 0.2213952522	-0.9366767999	 0.118439
C	 1.486978716	-1.1780885689	-0.321742267	-0.034461
O	 0.7000860961	-0.7539560021	 0.8257427775	-0.320089
C	-0.0363460624	 0.0401956662	-0.1980779759	 0.315635
C	-0.7919112696	-1.0683430946	-0.9330059185	-0.089482
O	-0.2319211957	-1.3256070688	-2.2337139448	-0.238657
C	 0.3595634557	-1.9734558573	-1.0960962773	 0.04127
H	-0.0243488911	 1.7049558779	 1.2817669406	 0.130331
H	-0.4396676284	 2.2156700953	-0.3999840359	 0.114645
H	 1.4233767294	 0.3802341227	-2.0047679615	 0.11145
H	 2.4146937503	-1.6983447655	-0.0807575181	 0.087941
H	-1.8175557387	-1.3710607621	-0.7620578925	 0.118849
H	 0.3070551638	-3.056293481	-1.0703134628	 0.120617
274.9413	294.4197	401.4142	408.1134	467.2642	600.3649	608.2752	731.6887	748.6193	793.2937	837.6188	839.533	878.3621	899.1086	924.67	943.4749	959.3438	997.6296	1011.1102	1063.74	1069.2261	1092.4838	1158.1813	1192.1	1206.0304	1219.0435	1245.3508	1277.1771	1290.6086	1315.2226	1356.5123	1376.1876	1496.5646	3031.8448	3112.4081	3115.5801	3147.9478	3180.7419	3197.9214
C1OC2C3OC12C1OC31	C1O[C@H]2[C@H]3O[C@@]12[C@H]1O[C@@H]31	
InChI=1S/C6H6O3/c1-6-4(7-1)3(9-6)2-5(6)8-2/h2-5H,1H2	InChI=1S/C6H6O3/c1-6-4(7-1)3(9-6)2-5(6)8-2/h2-5H,1H2/t2-,3-,4-,5-,6-/m0/s1
