17
gdb 47067	3.09355	1.568	1.31257	5.2839	67.37	-0.2772	0.0328	0.3101	991.8738	0.137925	-458.998456	-458.99118	-458.990236	-459.031019	27.661	
O	 0.313870715	 0.0819096377	 0.3453679379	-0.357094
C	 0.1551268527	 1.1771495405	-0.0989294567	 0.449161
O	-0.9945769382	 1.8692587145	 0.0871017362	-0.248276
C	-1.3272151851	 2.8733383655	-0.8923115939	-0.100884
C	-0.2432615141	 3.9280842619	-0.9754762366	-0.050887
C	 0.0393864511	 4.7377079561	 0.3248930313	-0.234087
C	 1.3503818265	 3.9280909212	 0.5417124973	-0.247518
C	 1.1405590932	 3.2382132347	-0.8316716842	 0.125533
O	 1.1103872595	 1.8054870057	-0.8269162387	-0.254283
H	-1.4693031567	 2.3843650974	-1.8637323803	 0.124961
H	-2.2857097685	 3.2834800253	-0.5660013838	 0.130175
H	-0.3779307747	 4.5247280086	-1.8812147265	 0.085497
H	 0.1999424489	 5.801748865	 0.1423924586	 0.111608
H	-0.7119571697	 4.6298010343	 1.1104383015	 0.117001
H	 2.2709540867	 4.5075247728	 0.6333205437	 0.112341
H	 1.3019094701	 3.2225456345	 1.3742087299	 0.133737
H	 1.8778150135	 3.4925492643	-1.5927404559	 0.103017
46.4744	109.4267	198.3536	331.2729	394.0416	449.7804	515.793	564.4473	705.6053	741.4054	763.3761	791.8283	800.8892	861.3567	888.7152	956.3717	959.4975	991.7302	1019.0757	1073.802	1099.7228	1133.7055	1149.9372	1174.1217	1215.9239	1237.661	1256.8195	1268.6469	1290.0418	1314.4103	1342.3449	1395.4049	1412.9287	1470.5955	1491.0864	1502.8991	1889.2271	3034.1663	3070.1132	3074.2875	3078.836	3108.2985	3112.0115	3119.3207	3136.2695
O=C1OCC2CCC2O1	O=C1OC[C@H]2CC[C@H]2O1	
InChI=1S/C6H8O3/c7-6-8-3-4-1-2-5(4)9-6/h4-5H,1-3H2	InChI=1S/C6H8O3/c7-6-8-3-4-1-2-5(4)9-6/h4-5H,1-3H2/t4-,5-/m1/s1
