19
gdb 22542	2.30248	1.0923	0.82089	3.6281	79.23	-0.2628	-0.0089	0.2539	1435.2629	0.1563	-419.191063	-419.180415	-419.17947	-419.227653	37.105	
C	-0.6730719882	 1.4038219206	 0.0607318928	-0.408592
C	-0.6194643568	-0.1053977706	 0.3049804283	-0.172264
C	 0.7097030075	-0.564720731	 0.9430593727	-0.214552
C	 0.9140035279	 0.0722565379	 2.2539767036	 0.279993
N	 1.0702068491	 0.5712464198	 3.2849025528	-0.334118
C	 0.8693621978	-2.074880443	 1.0891021535	 0.354701
C	 2.1646923062	-2.6276245531	 1.616362122	-0.474389
N	-0.1235115084	-2.7873102218	 0.7236206805	-0.154731
O	 0.1405561658	-4.1523330434	 0.8681058419	-0.39685
H	 0.1293878799	 1.7290667357	-0.6108686662	 0.116155
H	-1.6247508562	 1.6809442075	-0.4012709337	 0.122105
H	-0.5773272226	 1.9662988242	 0.9945071267	 0.142979
H	-1.4459059112	-0.4225404932	 0.946851379	 0.128446
H	-0.7336351549	-0.6523921875	-0.6344979066	 0.119826
H	 1.5376693784	-0.2157014393	 0.3063662222	 0.134882
H	 2.8370947018	-1.8335553422	 1.9449351942	 0.136028
H	 1.9738415095	-3.3011795582	 2.4566873457	 0.160248
H	 2.662420212	-3.2229973783	 0.8434050029	 0.149526
H	-0.6850980578	-4.5535098142	 0.5758216476	 0.310607
46.9285	63.345	95.1145	131.8973	160.6492	183.3925	258.789	284.0614	320.4497	350.2951	397.1816	413.53	486.1953	554.4676	567.0112	703.7186	757.8318	828.2175	896.5612	950.6835	997.3159	1031.1061	1038.6354	1061.8052	1120.7324	1129.4302	1222.4707	1269.9977	1292.3398	1335.876	1366.1263	1400.0674	1404.8093	1417.2103	1471.0602	1482.5944	1484.8578	1499.4088	1506.7607	1733.4762	2353.2066	2992.533	3035.5166	3046.4081	3068.6246	3094.4948	3106.8955	3113.3609	3121.007	3142.2956	3817.1452
CCC(C#N)C(C)=NO	CC[C@@H](C#N)C(=NO)C	
InChI=1S/C6H10N2O/c1-3-6(4-7)5(2)8-9/h6,9H,3H2,1-2H3	InChI=1S/C6H10N2O/c1-3-6(4-7)5(2)8-9/h6,9H,3H2,1-2H3/t6-/m0/s1
