17
gdb 47852	2.54077	1.62764	1.15098	0.958	71.47	-0.2496	-0.0233	0.2263	1058.6638	0.138296	-455.166306	-455.158602	-455.157658	-455.198716	29.305	
O	-0.0405823317	-0.1435620931	-0.0560030432	-0.346465
C	-0.0336765602	 1.0682880105	-0.0107436575	 0.354738
C	-1.3742743355	 1.8134119214	 0.0335928508	-0.187506
O	-1.3598885776	 3.2065576247	-0.1082704329	-0.224483
C	-1.238251912	 3.9272636735	 1.1034975974	-0.072151
C	 0.0942121781	 3.6528732809	 1.8060383736	-0.196567
N	 1.2005801831	 3.9500098524	 0.923983613	-0.19999
C	 1.595143469	 3.0793444823	 0.0954218776	 0.093492
N	 1.1680547942	 1.7566284825	-0.123960276	-0.32214
H	-1.9341698614	 1.4062770435	-0.8147409884	 0.151995
H	-1.8975735733	 1.4882568362	 0.944659967	 0.128209
H	-1.3014061983	 4.9817705432	 0.8233733776	 0.126077
H	-2.0727634909	 3.6924430792	 1.782416469	 0.097075
H	 0.1605497543	 4.3008723367	 2.6866098503	 0.113265
H	 0.1166258015	 2.6110432947	 2.1648230046	 0.104103
H	 2.4547515902	 3.3214903702	-0.5320052253	 0.120943
H	 1.9048369305	 1.1212880314	-0.4064671377	 0.259406
80.6778	137.7611	235.1339	279.5034	302.7602	370.3468	456.4044	504.2543	522.0915	560.2506	629.2618	680.9193	748.7313	836.5304	862.9439	891.4007	953.2197	1007.9105	1032.9921	1042.7888	1115.6859	1136.0907	1163.9173	1268.0473	1273.5929	1314.9758	1330.1108	1364.3643	1377.5648	1408.879	1441.0869	1460.5203	1479.2333	1491.0798	1507.5291	1740.8192	1786.5369	2975.6535	2991.0847	3008.3594	3065.047	3082.5183	3104.0895	3114.3545	3567.9059
O=C1COCCN=CN1	O=C1COCCN=CN1	
InChI=1S/C5H8N2O2/c8-5-3-9-2-1-6-4-7-5/h4H,1-3H2,(H,6,7,8)	InChI=1S/C5H8N2O2/c8-5-3-9-2-1-6-4-7-5/h4H,1-3H2,(H,6,7,8)
