13
gdb 20409	4.96133	2.17212	1.54126	1.9793	58.82	-0.2252	-0.0049	0.2202	757.5328	0.099264	-394.771117	-394.765067	-394.764123	-394.801775	22.141	
C	 0.0418827727	 1.3627676169	-0.1170089414	-0.090713
C	 1.5245605064	 1.8568255059	 0.0768971828	-0.375871
C	 2.1245311773	 0.6152249161	 0.653004644	 0.246421
N	 3.2572661464	 0.1390557734	 1.1501606709	-0.302194
N	 2.9373088405	-1.1350452812	 1.4010466899	-0.10823
N	 1.6756325335	-1.5311013833	 1.1099756197	-0.33139
C	 1.179489174	-0.4060857547	 0.6335272135	 0.41086
O	-0.0269825083	-0.0787598799	 0.1387470719	-0.271489
H	-0.6349643462	 1.8490592379	 0.5910872761	 0.129242
H	-0.328638078	 1.5266384353	-1.1304333999	 0.130847
H	 1.9806966124	 2.1445135701	-0.8760153996	 0.135283
H	 1.5672497833	 2.7256664409	 0.7392383021	 0.135249
H	 3.596638846	-1.7713909473	 1.81501431	 0.291985
60.3857	234.7121	307.0347	360.2564	484.5175	646.264	680.9019	724.3913	742.0683	789.1706	833.5005	931.5093	979.6324	984.5995	1072.8601	1152.595	1161.0979	1199.4485	1201.2235	1242.9638	1280.8542	1372.2435	1448.8502	1462.0095	1491.4142	1514.6666	1570.4545	1627.4674	3048.5942	3062.784	3088.7267	3122.6748	3692.0276
C1CC2=NNN=C2O1	C1Cc2n[nH]nc2O1	
InChI=1S/C4H5N3O/c1-2-8-4-3(1)5-7-6-4/h1-2H2,(H,5,6,7)	InChI=1S/C4H5N3O/c1-2-8-4-3(1)5-7-6-4/h1-2H2,(H,5,6,7)
