16
gdb 19792	3.12364	2.62582	1.85838	3.106	62.52	-0.2599	0.057	0.3168	754.582	0.130986	-383.702823	-383.696309	-383.695365	-383.733236	25.604	
C	 0.0895022129	 1.5488193438	 0.0118425406	-0.393785
C	 0.0130332237	 0.0175765814	 0.0018656172	-0.052122
C	 0.6929184694	-0.6249949383	-1.2132891322	 0.025403
O	 2.0920453429	-0.360339549	-1.3381491613	-0.233181
C	 1.6942938341	-1.6090240989	-0.7691415651	 0.006226
C	 1.694543859	-1.6189289045	 0.7510624416	 0.006219
O	 2.0924927812	-0.3777654773	 1.3361535778	-0.233187
C	 0.6933151991	-0.6407702975	 1.2083000606	 0.025416
H	 1.1353971366	 1.8631754713	 0.0128078878	 0.152882
H	-0.4014149709	 1.971918126	-0.8698860309	 0.114408
H	-0.3994353042	 1.9602487	 0.9001761576	 0.114422
H	-1.0378073317	-0.3029735941	-0.0000689254	 0.079022
H	 0.1523812751	-0.7006854299	-2.1551991346	 0.09574
H	 1.9665998218	-2.5006593838	-1.3266271462	 0.098399
H	 1.9670153718	-2.5177561164	 1.2967927867	 0.0984
H	 0.1530600993	-0.7286803627	 2.1493111758	 0.095738
156.6349	210.0327	226.6151	325.2743	413.2355	539.272	569.8218	700.3365	711.2879	822.093	828.8117	856.4852	877.4096	887.1804	942.0527	955.4029	1020.0402	1024.263	1049.1016	1089.8304	1093.4792	1130.7009	1144.7057	1243.1535	1267.2618	1290.0288	1319.9427	1324.1283	1347.7885	1396.439	1425.8646	1432.4973	1494.9246	1504.143	3021.3082	3042.5003	3106.7032	3124.7596	3127.4547	3136.9011	3151.0727	3165.1948
CC1C2OC2C2OC12	C[C@H]1[C@H]2O[C@H]2[C@H]2O[C@@H]12	
InChI=1S/C6H8O2/c1-2-3-5(7-3)6-4(2)8-6/h2-6H,1H3	InChI=1S/C6H8O2/c1-2-3-5(7-3)6-4(2)8-6/h2-6H,1H3/t2-,3+,4-,5+,6-
