20
gdb 120207	2.94239	1.14776	0.93807	1.6409	76.92	-0.2279	0.0705	0.2984	1285.847	0.17081	-440.188569	-440.179925	-440.178981	-440.222273	33.379	
O	 0.7392850408	 0.6772189469	-0.6833057725	-0.418041
C	 0.0681476828	-0.2773251871	 0.1043384328	-0.04944
C	-1.3745538022	 0.1682693709	 0.3856646543	-0.203731
N	-1.9977110069	 0.4840854856	-0.9098844898	-0.124633
C	-3.1506402177	 1.4673628664	-1.0443457003	-0.089673
C	-3.3866539168	 0.8247386651	-2.4361568472	-0.213041
C	-3.1670015233	-0.3352333307	-1.4324177496	-0.081827
C	-4.1687472624	 0.4253292491	-0.4842273637	 0.178284
O	-4.3031990588	 0.1650089657	 0.8785132936	-0.440783
H	 0.0924072723	 0.900960094	-1.3702257521	 0.274055
H	 0.0450298299	-1.2652718535	-0.3875823108	 0.081026
H	 0.6201916007	-0.3893795774	 1.0439096332	 0.101251
H	-1.8869080053	-0.6247366323	 0.9494045597	 0.101228
H	-1.343628296	 1.0797652282	 0.9976249733	 0.109888
H	-3.0309198081	 2.5231008643	-0.7933387934	 0.088597
H	-4.3779276328	 0.931830714	-2.8773317083	 0.104121
H	-2.5762470297	 0.9702918041	-3.1476545137	 0.111446
H	-3.0746067784	-1.4025501747	-1.6380537296	 0.089469
H	-5.1877655869	 0.5008426118	-0.87556846	 0.090642
H	-3.4725110011	 0.3376534495	 1.327532504	 0.291165
51.1247	119.9817	179.6141	203.9583	298.0647	317.2481	348.0407	401.6	479.8013	543.4776	574.1052	659.7997	733.3398	753.0559	806.0174	861.6674	889.4237	893.6492	932.7765	949.8436	1014.2676	1031.2827	1078.6376	1094.6366	1098.339	1131.705	1151.5609	1154.1275	1186.9955	1194.7384	1212.6712	1223.0699	1236.8435	1271.7282	1287.5981	1299.4487	1374.2948	1385.2191	1445.728	1455.4426	1482.849	1501.3875	1509.185	2953.7097	2982.065	3045.8994	3064.7617	3068.695	3090.6534	3101.6981	3113.5848	3175.2723	3699.7613	3862.3798
OCCN1C2CC1C2O	OCCN1[C@H]2C[C@@H]1[C@H]2O	
InChI=1S/C6H11NO2/c8-2-1-7-4-3-5(7)6(4)9/h4-6,8-9H,1-3H2	InChI=1S/C6H11NO2/c8-2-1-7-4-3-5(7)6(4)9/h4-6,8-9H,1-3H2/t4-,5+,6-
