20
gdb 119538	3.02319	1.06796	0.87448	2.0089	80.6	-0.2427	-0.0199	0.2228	1391.049	0.170009	-403.131164	-403.122045	-403.121101	-403.165693	33.643	
C	 0.0610534395	 1.6301232872	 0.0213475143	-0.384991
C	 0.1604721237	 0.1038883324	 0.0699492788	-0.16722
C	 0.5654730316	-0.5056417086	-1.2829051852	-0.31045
C	 0.6277603745	-2.0041560554	-1.2257887736	 0.220373
C	 1.8425278715	-2.7948651286	-0.8545823509	-0.275655
N	 1.3573606091	-2.9272960782	-2.2237020414	-0.162037
C	 0.2324837041	-3.925651349	-2.1294664406	-0.290269
C	-0.5468619568	-2.9388392418	-1.2374006017	 0.364063
O	-1.695309676	-2.8228499408	-0.9141472245	-0.311686
H	 1.0192617866	 2.0826090535	-0.2577559588	 0.113599
H	-0.6843481906	 1.9544376482	-0.7129783641	 0.11945
H	-0.2301947585	 2.0385933593	 0.9936915517	 0.115612
H	 0.8885987483	-0.1975591001	 0.8336272942	 0.096473
H	-0.8014544378	-0.3243802262	 0.3734278886	 0.127331
H	-0.1590811476	-0.2044244518	-2.0498544962	 0.112087
H	 1.5411867578	-0.1177121416	-1.5997032726	 0.109269
H	 2.7640461427	-2.2257656783	-0.7668484602	 0.132718
H	 1.7682547152	-3.6445944316	-0.1783507008	 0.120217
H	-0.2583664226	-4.0629004138	-3.0965443031	 0.143233
H	 0.5231574355	-4.8978536348	-1.7209499841	 0.127883
58.1427	89.1425	112.2797	168.8679	239.4036	260.9824	317.0476	357.2067	472.3672	494.0783	550.9626	669.7672	737.2258	747.2888	771.0433	846.8044	886.3617	888.9298	907.2543	990.928	998.8552	1043.8164	1049.1253	1084.3107	1116.1517	1123.437	1131.4158	1195.5602	1230.9103	1247.7193	1296.5086	1309.971	1337.919	1362.1573	1393.2028	1414.2778	1462.2483	1483.1083	1495.062	1499.8336	1506.0296	1511.4305	1879.6678	3021.386	3029.3927	3033.0137	3056.2047	3057.9935	3075.9362	3096.9832	3100.4671	3105.9343	3119.8638	3189.2243
CCCC12CN1CC2=O	CCC[C@]12CN1CC2=O	
InChI=1S/C7H11NO/c1-2-3-7-5-8(7)4-6(7)9/h2-5H2,1H3	InChI=1S/C7H11NO/c1-2-3-7-5-8(7)4-6(7)9/h2-5H2,1H3/t7-,8?/m1/s1
