15
gdb 49799	3.13063	1.5189	1.05678	5.7134	71.92	-0.2357	-0.0105	0.2252	1077.079	0.113564	-453.978641	-453.970779	-453.969835	-454.011811	28.375	
N	 0.1405442809	 1.316737418	-0.1788632193	-0.416354
C	 0.003083388	 0.0773606256	 0.0206122327	 0.098568
N	-1.2199884401	-0.6161406264	-0.0382877238	-0.188528
C	-1.1669046122	-2.0226520031	-0.0091137544	 0.043208
C	-2.2198799192	-2.7659696284	-0.3232660434	-0.176954
C	-3.4655859233	-2.0594279745	-0.7465089235	-0.130752
O	-3.5541145492	-0.7523532772	-0.1545234975	-0.245832
C	-2.4756269681	 0.0455224229	 0.0176104558	 0.489155
O	-2.6121921572	 1.2049902579	 0.2631381288	-0.320309
H	 1.122265356	 1.5710531944	-0.0791533905	 0.234357
H	 0.8183968005	-0.6230819071	 0.2397160443	 0.098963
H	-0.210518511	-2.4335396289	 0.2927611316	 0.12924
H	-2.1864376255	-3.8460026504	-0.2801656525	 0.117246
H	-3.5231843109	-1.9520149255	-1.8402886165	 0.12979
H	-4.3686557388	-2.5810860173	-0.4192898217	 0.138201
52.0649	131.263	137.0317	210.704	255.3719	440.3523	455.3032	481.1312	568.6236	630.6524	703.9881	720.574	765.8527	820.5869	874.7936	939.4833	960.0764	1030.8215	1054.3056	1058.4849	1130.6655	1158.9779	1197.7536	1251.777	1265.2873	1341.1062	1421.944	1424.6366	1456.3333	1506.7842	1722.1557	1758.1392	1878.3341	2991.4379	3035.717	3090.8136	3196.3741	3230.4679	3498.7905
N=CN1C=CCOC1=O	[NH][CH]N1C=CCOC1=O	
InChI=1S/C5H6N2O2/c6-4-7-2-1-3-9-5(7)8/h1-2,4,6H,3H2	InChI=1S/C5H6N2O2/c6-4-7-2-1-3-9-5(7)8/h1-2,4,6H,3H2
