19
gdb 67597	2.82621	1.87059	1.82486	0.4022	76.9	-0.2084	0.0921	0.3005	894.1919	0.162625	-382.047661	-382.040959	-382.040015	-382.078282	28.088	
C	 0.0048883697	 1.4689064744	 0.082713811	-0.507614
C	 0.0052157443	-0.027660062	-0.0639324912	 0.339219
C	 0.9955762698	-0.8479082915	-0.8264580406	-0.098143
C	 0.2615585056	-2.0056193342	-1.4740150554	-0.185834
N	-1.0661577243	-2.0842489351	-0.8347314123	-0.121728
C	-1.0116526711	-2.1071175155	 0.63621801	-0.044928
C	 0.3656802496	-1.997777301	 1.263783813	-0.189722
N	 1.0270038126	-0.8339529132	 0.6483612488	-0.15974
C	-1.284642535	-0.8293379176	-0.083125581	-0.11792
H	 1.029015633	 1.8481037895	 0.116872892	 0.132221
H	-0.5131181308	 1.9462149414	-0.7563086968	 0.120422
H	-0.4975430422	 1.7755491754	 1.0069469461	 0.122758
H	 1.8712040475	-0.4217438753	-1.3116875863	 0.087212
H	 0.1256500872	-1.8256461468	-2.5463633492	 0.111438
H	 0.7834235369	-2.9637792164	-1.3655763699	 0.111157
H	-1.7848492021	-2.7001774746	 1.1190104621	 0.090387
H	 0.2851677953	-1.8290101469	 2.3435559199	 0.111046
H	 0.9767930827	-2.8965086522	 1.1178062295	 0.110811
H	-2.2523029088	-0.3456065284	-0.1550963697	 0.088958
178.1965	224.4473	292.7748	308.6282	437.0258	487.2224	574.4088	632.0317	716.2268	739.4643	759.4629	774.963	808.6514	827.3753	894.0346	928.3082	952.1921	966.4998	985.5788	1033.1942	1045.3372	1075.093	1097.9649	1103.7379	1115.1504	1136.7207	1203.7529	1234.632	1236.4423	1260.5019	1287.8262	1309.3094	1329.7799	1332.8544	1368.4291	1413.1023	1444.646	1486.9975	1488.3711	1495.4694	1509.5305	3031.3823	3032.2627	3036.3137	3067.9034	3070.4698	3091.9146	3122.244	3126.7229	3133.2928	3175.3808
CC12C3CN4C(CN13)C24	C[C@@]12[C@@H]3CN4[C@@H](CN13)[C@@H]24	
InChI=1S/C7H10N2/c1-7-5-3-8-4(6(7)8)2-9(5)7/h4-6H,2-3H2,1H3	InChI=1S/C7H10N2/c1-7-5-3-8-4(6(7)8)2-9(5)7/h4-6H,2-3H2,1H3/t4-,5-,6-,7-,8?,9?/m0/s1
