20
gdb 84839	2.25718	1.82714	1.23806	2.4138	79.75	-0.2424	0.0225	0.2649	1074.5332	0.1725	-403.143855	-403.135591	-403.134647	-403.176212	33.029	
C	-0.3896501772	 1.3870365789	 0.1097384509	-0.485269
C	 0.1047234243	-0.0374044079	 0.0045457949	 0.298391
N	-0.5900401787	-1.0919022072	 0.7759445376	-0.377021
C	 0.7794788262	-0.6876767182	 1.158843249	-0.071826
C	 1.8711821534	-1.7183170598	 0.9752012448	-0.272512
C	 1.9768745522	-2.2291276335	-0.433770323	-0.06354
C	 1.3466032464	-1.6904977075	-1.4743228361	-0.072882
C	 0.4172658834	-0.5079478087	-1.4134528396	 0.035905
O	-0.80182811	-0.7907869193	-2.1006890791	-0.444165
H	 0.3837303092	 2.0979390317	-0.201730372	 0.123521
H	-1.2591602307	 1.5328783625	-0.5396417069	 0.138547
H	-0.6763024115	 1.6334350965	 1.13772207	 0.106735
H	-1.2648714914	-0.6695022474	 1.4089224585	 0.226487
H	 0.8688802172	-0.0858336298	 2.0620401613	 0.079196
H	 2.8320263122	-1.2777942204	 1.2793465692	 0.111301
H	 1.7008031482	-2.5576887399	 1.6635125082	 0.113836
H	 2.6196303672	-3.0932683194	-0.5852293299	 0.088311
H	 1.4633093962	-2.114871008	-2.468303541	 0.093015
H	 0.8623986487	 0.3269049346	-1.971118597	 0.085879
H	-1.2476119754	-1.4449965571	-1.5454252997	 0.28609
94.025	204.9259	238.9143	250.9433	264.7366	334.8302	388.847	444.5463	482.3125	514.5315	520.6152	608.0637	696.5052	761.6949	798.5348	847.4268	881.2755	901.5852	944.4905	968.8708	1006.2409	1020.359	1044.0301	1051.6678	1072.8248	1115.707	1141.1113	1173.4267	1202.2496	1234.4565	1261.4217	1289.4333	1332.7723	1377.0417	1383.988	1408.0293	1413.6959	1430.577	1466.9234	1468.1703	1484.1233	1504.8551	1731.7031	3001.9608	3019.0173	3027.0858	3028.7414	3093.3779	3102.9196	3114.3418	3145.7138	3170.5228	3494.2349	3758.3056
CC12NC1CC=CC2O	C[C@]12N[C@H]1CC=C[C@H]2O	
InChI=1S/C7H11NO/c1-7-5(8-7)3-2-4-6(7)9/h2,4-6,8-9H,3H2,1H3	InChI=1S/C7H11NO/c1-7-5(8-7)3-2-4-6(7)9/h2,4-6,8-9H,3H2,1H3/t5-,6+,7-/m0/s1
