22
gdb 23024	2.69529	0.97128	0.76735	0.5033	86.49	-0.2338	0.0149	0.2486	1559.7822	0.191552	-404.3042	-404.293471	-404.292527	-404.341283	38.558	
C	-0.3076080612	 1.7124545878	-0.503779967	-0.384347
C	 0.0105346817	 0.2972813368	-0.0064609473	-0.177569
C	-1.2523640317	-0.4964455122	 0.267793668	 0.011031
C	-1.9431166027	-1.2611579865	-0.8361313636	-0.290399
C	-1.3389944705	-2.0009688862	 0.3490037958	-0.104212
C	-0.2241875777	-2.9693239321	 0.1577701315	 0.340215
C	-0.5779542643	-4.3739475783	-0.263636017	-0.466617
N	 0.9749836366	-2.5820764535	 0.3769388878	-0.173155
O	 1.8989230316	-3.6177611306	 0.1422623497	-0.402974
H	 0.6087480908	 2.2804593767	-0.6927993044	 0.107914
H	-0.8845540418	 1.6844468487	-1.4345406523	 0.113888
H	-0.8979146736	 2.2700610119	 0.2324459419	 0.10929
H	 0.6273128403	-0.2282270503	-0.7397904595	 0.104622
H	 0.6143925605	 0.3500473201	 0.9066686357	 0.101942
H	-1.9257770883	 0.006170967	 0.9603837625	 0.079856
H	-3.0228792293	-1.2246005053	-0.9315010131	 0.108396
H	-1.4112132802	-1.3366539556	-1.7798102873	 0.114968
H	-2.0793858605	-2.377674273	 1.0535332855	 0.093944
H	-0.1630508348	-4.5909731882	-1.2538393881	 0.14492
H	-0.1370238884	-5.1024475299	 0.4232785385	 0.14606
H	-1.6598602953	-4.5130504467	-0.2993457029	 0.118423
H	 2.734425759	-3.1922991506	 0.3606196358	 0.303805
26.305	66.9805	84.7992	118.1402	175.9027	217.4724	234.8071	302.5373	308.4096	354.3906	394.6186	442.609	524.2564	572.7147	661.8848	755.9931	767.745	795.5567	859.893	917.927	956.3022	961.4401	987.1266	1031.8782	1038.7642	1044.7601	1062.467	1104.7019	1132.4751	1149.4606	1198.9047	1206.5128	1261.231	1291.4809	1339.7928	1380.9821	1397.6553	1407.4658	1419.7471	1434.5017	1474.5946	1478.3649	1484.1426	1494.9865	1498.156	1507.1502	1722.8263	3027.9187	3043.411	3045.0792	3081.7238	3100.6052	3101.6238	3102.412	3108.7191	3121.7654	3124.94	3137.2868	3211.463	3823.8481
CCC1CC1C(C)=NO	CC[C@H]1C[C@H]1C(=NO)C	
InChI=1S/C7H13NO/c1-3-6-4-7(6)5(2)8-9/h6-7,9H,3-4H2,1-2H3	InChI=1S/C7H13NO/c1-3-6-4-7(6)5(2)8-9/h6-7,9H,3-4H2,1-2H3/t6-,7-/m0/s1
