15
gdb 131362	3.43639	1.57425	1.08691	2.3888	73.75	-0.1993	-0.0004	0.1989	1037.2921	0.115777	-416.832199	-416.825295	-416.82435	-416.863227	27.535	
O	 0.0887228637	 1.3595368224	-0.0018364749	-0.428029
C	 0.0724454377	 0.0116352773	 0.059924256	 0.253504
N	 0.0781467284	-0.7312944794	-1.0436238703	-0.33507
N	 0.0573744117	-2.0250403688	-0.5926868578	-0.348766
C	 0.0394999648	-2.0795590549	 0.7504529422	 0.359469
C	 0.0482971947	-0.7813509511	 1.2262034191	 0.174531
C	 0.0288049619	-0.8334970412	 2.6851174097	-0.214295
C	 0.0089278968	-2.1239721761	 3.0747543402	-0.091595
C	 0.0134889696	-3.0707498633	 1.875076901	-0.416013
H	 0.103501381	 1.5966932829	-0.9378562161	 0.301394
H	 0.057785011	-2.7679839147	-1.2686776342	 0.27064
H	 0.0302284438	 0.0265358019	 3.3411908844	 0.10695
H	-0.0083861336	-2.4859501945	 4.0938734461	 0.098047
H	-0.8742494225	-3.716242937	 1.8605167341	 0.134622
H	 0.8861419011	-3.7366037835	 1.8833124306	 0.134611
173.765	218.6638	281.931	361.4112	377.0105	416.081	483.0765	526.003	630.664	647.8239	658.2165	703.9601	750.6182	815.1836	870.4219	926.4449	929.0908	949.8282	1054.0665	1097.5425	1137.0633	1151.6092	1193.4632	1241.4922	1270.7723	1341.7829	1383.9882	1428.0067	1447.5276	1552.2424	1564.3379	1598.8424	1618.5918	3028.5873	3057.2788	3215.6987	3237.769	3687.959	3791.3184
OC1=NNC2=C1C=CC2	Oc1n[nH]c2c1C=CC2	
InChI=1S/C6H6N2O/c9-6-4-2-1-3-5(4)7-8-6/h1-2H,3H2,(H2,7,8,9)	InChI=1S/C6H6N2O/c9-6-4-2-1-3-5(4)7-8-6/h1-2H,3H2,(H2,7,8,9)
