18
gdb 84165	2.79166	1.39471	0.97978	2.0359	74.41	-0.2358	-0.0277	0.2081	1207.1222	0.146101	-439.125109	-439.116002	-439.115057	-439.159617	32.801	
C	-0.5825906023	 1.3948298405	-0.0061954162	-0.386395
C	 0.2041344664	 0.0879447839	 0.0224412021	-0.06776
N	 0.9655679593	-0.098246172	-1.2157798033	-0.304004
C	 1.9028858539	-0.9502892114	-1.2249932275	 0.390834
C	 2.6495927107	-1.3210812514	-2.469616302	-0.45716
O	 2.3401060998	-1.6763346838	-0.1491945408	-0.259705
C	 2.2225091049	-1.0488576778	 1.1258632208	-0.176888
C	 1.0912800239	-0.0348997342	 1.252456041	 0.341515
O	 0.9573086838	 0.6049481919	 2.2666258725	-0.304073
H	 0.0987111014	 2.2463468326	-0.0855332647	 0.126628
H	-1.2473409024	 1.4043877755	-0.8727331281	 0.122414
H	-1.1700425501	 1.5104229966	 0.9067048948	 0.129784
H	-0.507320151	-0.7536953566	 0.0986271127	 0.116369
H	 3.7119759017	-1.0780330299	-2.3655327889	 0.139439
H	 2.5817610569	-2.401455997	-2.6342415513	 0.144237
H	 2.2300844534	-0.792015452	-3.3241133489	 0.148502
H	 2.0737134191	-1.842435688	 1.8646969025	 0.151431
H	 3.1623632904	-0.5380801371	 1.3710465153	 0.144831
41.728	95.9175	151.9441	183.7698	202.0738	260.7742	316.437	386.4723	409.8465	492.1635	519.6345	596.8795	612.4465	716.5727	733.8272	860.8473	905.325	939.739	1008.3399	1062.6467	1080.7556	1102.4211	1109.1821	1142.4341	1204.0504	1242.62	1258.2285	1289.5041	1331.4198	1367.3191	1405.4298	1408.5559	1467.2187	1473.0352	1476.9038	1484.8595	1493.8803	1749.4008	1823.0931	2950.5017	3032.5908	3047.3163	3056.1516	3090.5357	3104.0482	3129.8457	3144.1758	3168.0651
CC1N=C(C)OCC1=O	C[C@H]1N=C(C)OCC1=O	
InChI=1S/C6H9NO2/c1-4-6(8)3-9-5(2)7-4/h4H,3H2,1-2H3	InChI=1S/C6H9NO2/c1-4-6(8)3-9-5(2)7-4/h4H,3H2,1-2H3/t4-/m1/s1
