19
gdb 104751	2.23937	1.30036	0.96177	6.1254	76.72	-0.2656	0.0195	0.285	1268.4729	0.158193	-419.192851	-419.182911	-419.181967	-419.227926	35.587	
C	-0.2732253384	-0.8805551342	 1.3035577476	-0.388239
C	-0.5519517792	-0.3815343368	-0.117575447	-0.264004
C	 0.6652361919	-0.2523575253	-1.030863423	 0.289429
C	 0.4895315502	 0.8096481728	-2.1068676767	-0.158513
O	 1.6726192944	 0.886631173	-2.8848043674	-0.421086
N	 1.9934778887	-0.405213708	-0.4412308635	-0.346953
C	 1.5212249451	-1.426645776	-1.4054108494	-0.217389
C	 1.2781660085	-2.7605955931	-0.9148475266	 0.335017
N	 1.0666232014	-3.8437379427	-0.5686077407	-0.347825
H	 0.1356661341	-1.8926956596	 1.3088911185	 0.152505
H	 0.4409787695	-0.2296989625	 1.8126976751	 0.129661
H	-1.2052443044	-0.8914256881	 1.8765432153	 0.109384
H	-1.2845396662	-1.0337295305	-0.6093460601	 0.117679
H	-1.0251479591	 0.6077699589	-0.0567247124	 0.098184
H	-0.3867349117	 0.5589630195	-2.7240167245	 0.109855
H	 0.2823522422	 1.7709804864	-1.6107960622	 0.106506
H	 1.570579789	 1.5831909915	-3.5386283022	 0.301817
H	 2.6539201191	 0.1937760772	-0.934127797	 0.250632
H	 1.9493022449	-1.3999919023	-2.4025804837	 0.143339
59.6569	116.5232	129.4669	148.2001	204.0433	212.3664	240.424	271.2155	346.0319	380.7659	420.2733	542.3803	561.7193	607.454	701.1327	782.4504	818.8295	914.5047	944.8893	979.7852	1011.0247	1044.6347	1077.453	1098.789	1113.9426	1142.3735	1205.4159	1228.4299	1249.26	1276.1707	1317.7303	1348.6948	1390.7655	1417.445	1443.7267	1453.0561	1487.0189	1495.9991	1508.1322	1516.3898	2354.4596	2974.2261	3008.701	3014.9397	3050.4014	3053.6521	3122.911	3142.7467	3165.7551	3491.8311	3850.467
CCC1(CO)NC1C#N	CC[C@@]1(CO)N[C@H]1C#N	
InChI=1S/C6H10N2O/c1-2-6(4-9)5(3-7)8-6/h5,8-9H,2,4H2,1H3	InChI=1S/C6H10N2O/c1-2-6(4-9)5(3-7)8-6/h5,8-9H,2,4H2,1H3/t5-,6-/m0/s1
