19
gdb 6921	4.86114	0.99701	0.94116	3.3691	73.64	-0.237	-0.0181	0.2189	1280.9608	0.163057	-365.0557	-365.046456	-365.045512	-365.090141	33.017	
C	 0.0757478714	 1.5162115401	-0.2058621718	-0.43802
C	-0.0526931026	 0.0299276876	 0.0590337439	 0.322836
C	-1.3063488428	-0.5964479832	-0.5218774125	-0.457326
N	 1.2061897385	-0.7359655729	-0.0270604122	-0.367507
C	 0.526546776	-0.60747326	 1.2791176249	-0.065073
C	 1.2785122178	 0.1217836249	 2.3773823839	-0.288908
C	 2.3844375143	-0.746130857	 2.942652354	 0.159874
O	 2.5246926504	-1.0095854854	 4.1096527121	-0.241985
H	 1.0357324829	 1.9073180191	 0.1345431069	 0.128154
H	 0.0052121802	 1.7133285564	-1.2813859804	 0.120467
H	-0.7270361123	 2.0732904219	 0.2896722165	 0.117354
H	-1.319320043	-0.4952758693	-1.6134887721	 0.123491
H	-1.3715675785	-1.6618973504	-0.2783195578	 0.11345
H	-2.2076626333	-0.1079148438	-0.1354786522	 0.126108
H	 1.0388553206	-1.6568783011	-0.4251994075	 0.227609
H	-0.0118920227	-1.484791406	 1.6373997579	 0.089334
H	 1.7488814944	 1.0219719048	 1.9654412494	 0.122926
H	 0.6104603784	 0.4170957813	 3.192030503	 0.118639
H	 3.0816093802	-1.1438257868	 2.1718177543	 0.088577
53.2016	67.6745	145.6464	183.1317	219.031	236.3599	289.9672	369.7092	404.7496	433.9283	503.8074	515.1726	701.6006	795.4993	831.9952	876.711	957.4765	980.659	983.7685	1000.2534	1060.4914	1079.6991	1092.8099	1127.288	1156.8591	1198.5372	1261.4218	1291.9685	1311.6208	1356.3287	1413.3161	1418.9756	1423.7661	1449.1802	1454.6292	1477.6739	1490.2594	1499.9547	1512.8019	1831.6285	2888.7706	3023.8629	3035.3885	3045.045	3087.4736	3094.0978	3096.7111	3100.6577	3111.9562	3135.4715	3494.7088
CC1(C)NC1CC=O	CC1(C)N[C@H]1CC=O	
InChI=1S/C6H11NO/c1-6(2)5(7-6)3-4-8/h4-5,7H,3H2,1-2H3	InChI=1S/C6H11NO/c1-6(2)5(7-6)3-4-8/h4-5,7H,3H2,1-2H3/t5-/m0/s1
