22
gdb 114123	4.62838	0.85713	0.80853	2.3123	82.37	-0.2307	0.0571	0.2878	1508.3497	0.193591	-404.301799	-404.292072	-404.291128	-404.336739	36.158	
C	 0.1654558564	 1.669084219	-0.0137370248	-0.376393
C	 0.0451276179	 0.1438183688	 0.0691472795	-0.197586
C	 0.5342793085	-0.5463735342	-1.1950389233	 0.097425
C	 0.341998856	-2.0764995146	-1.388377045	-0.369352
C	-0.3943316722	-1.7240274468	-2.6863711106	 0.342306
C	-0.1719855804	-2.3869972505	-4.016390683	-0.180159
O	-0.8692510826	-3.6214839453	-4.1378533071	-0.410285
C	-1.5382647273	-0.8435231115	-2.3929184653	-0.285689
N	-0.1951706673	-0.2282570747	-2.487597571	-0.188049
H	 1.2083714229	 1.9750223733	-0.1510856757	 0.115265
H	-0.4062563444	 2.058401242	-0.8612440049	 0.136645
H	-0.206346463	 2.1464082484	 0.8977943637	 0.11001
H	 0.6370513715	-0.2369492506	 0.9122052894	 0.098103
H	-0.9933448604	-0.1369507568	 0.2822405491	 0.095635
H	 1.5798353022	-0.2687814157	-1.3636206148	 0.082401
H	 1.2832155274	-2.6103839316	-1.5419259303	 0.103167
H	-0.2444410878	-2.6088043442	-0.6326488689	 0.101178
H	-0.5552956001	-1.7390418602	-4.8105463343	 0.12058
H	 0.9071282945	-2.5204148211	-4.194238435	 0.087578
H	-0.4974622404	-4.2338985404	-3.495160317	 0.284644
H	-2.1803724446	-0.5594796426	-3.2210169113	 0.122358
H	-2.0456777269	-0.9053320309	-1.4338297196	 0.110217
57.3666	87.3527	104.4656	179.6781	222.2904	239.5785	282.9452	328.712	365.8932	408.133	442.0698	546.7778	679.5025	703.9552	787.6201	819.4668	829.6453	888.0851	936.0968	941.2439	969.0655	993.2708	1009.7303	1046.7643	1078.2756	1107.4003	1114.7123	1118.3105	1127.4288	1169.2182	1206.228	1245.6005	1277.0529	1296.8697	1326.4378	1339.5834	1374.6618	1380.1955	1404.1599	1412.1389	1423.5979	1481.0837	1489.2291	1496.4863	1497.558	1506.5473	1514.9074	2977.7645	3021.7077	3036.6026	3040.797	3046.2546	3059.7267	3085.0283	3101.7837	3103.5601	3113.5177	3115.7435	3199.0406	3817.5194
CCC1CC2(CO)CN12	CC[C@H]1C[C@@]2(CO)CN12	
InChI=1S/C7H13NO/c1-2-6-3-7(5-9)4-8(6)7/h6,9H,2-5H2,1H3	InChI=1S/C7H13NO/c1-2-6-3-7(5-9)4-8(6)7/h6,9H,2-5H2,1H3/t6-,7-,8?/m0/s1
