23
gdb 115602	2.46826	1.14111	0.98055	1.364	81.87	-0.2417	0.0808	0.3225	1352.0785	0.203558	-425.403752	-425.393259	-425.392315	-425.438953	38.802	
C	 0.0339651208	 1.4212375111	 0.2067082996	-0.251217
O	-0.0977677233	 0.0588649819	 0.5453329453	-0.286453
C	-1.2929437136	-0.5721774987	 0.1161173075	 0.420313
C	-2.5211082146	-0.0186766745	 0.8375032006	-0.447338
C	-1.4963560035	-0.7190315571	-1.4257620878	-0.279985
C	-1.7996109829	-2.2263855074	-1.2038048602	-0.225071
C	-1.1899015193	-2.1245131913	 0.2225800126	-0.042559
C	 0.2289840503	-2.6624301706	 0.3167366983	-0.089378
O	 0.1468732944	-4.0776696568	 0.1819341788	-0.428382
H	 1.0522375331	 1.7170006292	 0.4723657896	 0.12441
H	-0.1109110907	 1.5944546561	-0.8699125409	 0.106657
H	-0.6672670238	 2.0640436098	 0.7572608336	 0.107883
H	-2.7150366453	 1.0243622707	 0.5680033224	 0.113065
H	-3.4127801249	-0.5957302756	 0.5744454116	 0.119861
H	-2.3805449374	-0.0783042413	 1.9215541507	 0.120601
H	-2.2736594014	-0.1070072126	-1.8905995099	 0.09058
H	-0.5567752416	-0.5638150249	-1.9622631445	 0.104473
H	-2.8699154763	-2.4451593832	-1.1937034113	 0.099371
H	-1.3100341939	-2.9357186685	-1.8730447537	 0.109992
H	-1.7836511746	-2.5708702696	 1.0260527499	 0.06916
H	 0.8567492493	-2.2232746392	-0.4726876163	 0.084822
H	 0.6728446242	-2.3745543077	 1.2799834866	 0.095362
H	 1.0397993151	-4.4315417498	 0.2238263774	 0.283837
87.7536	108.587	125.6632	142.2885	193.8675	247.929	250.5581	267.7757	305.4758	313.2976	367.1848	423.3291	448.4543	548.8583	638.9452	736.0188	835.3016	883.0617	904.8254	923.738	931.2036	960.4736	969.5904	1063.7038	1070.0863	1103.394	1145.3757	1165.3248	1177.3804	1181.3533	1193.1762	1219.8189	1232.1014	1245.022	1255.7818	1273.0573	1281.7215	1309.4358	1358.8012	1402.693	1456.7408	1473.7331	1474.925	1484.1076	1489.3774	1496.32	1505.9183	1512.1958	1519.6403	2986.7294	2989.8997	3021.2782	3032.3255	3038.9768	3056.3479	3060.0278	3073.2748	3104.3823	3106.2782	3108.3414	3110.8724	3127.269	3830.3226
COC1(C)CCC1CO	CO[C@@]1(C)CC[C@H]1CO	
InChI=1S/C7H14O2/c1-7(9-2)4-3-6(7)5-8/h6,8H,3-5H2,1-2H3	InChI=1S/C7H14O2/c1-7(9-2)4-3-6(7)5-8/h6,8H,3-5H2,1-2H3/t6-,7-/m0/s1
