17
gdb 43720	4.99975	1.06958	1.02965	4.3073	72.74	-0.2674	0.0108	0.2782	1176.9752	0.136303	-421.817792	-421.810441	-421.809497	-421.849743	28.685	
O	 0.1480330931	 0.2634385032	-0.719886662	-0.312967
C	-0.0320532851	 1.2600175049	-0.0997078692	 0.429522
C	-1.2108224126	 2.118532105	 0.3706359995	-0.508664
C	-0.1051768596	 2.9711290475	 0.983181247	 0.468519
O	 0.9179889884	 2.0709529	 0.4776913887	-0.272507
C	 0.2095213367	 4.4228325152	 1.0018648649	-0.139371
C	-1.0282669139	 5.2217860422	 1.4235269691	-0.234691
C	-1.1134097531	 4.3831357467	 2.7442130702	-0.23469
C	 0.124901209	 3.5894660103	 2.3141822447	-0.139374
H	-1.785675884	 2.5706403236	-0.4398039141	 0.146769
H	-1.8821015326	 1.6129701055	 1.0673982472	 0.146867
H	 1.0826810152	 4.8013922288	 0.4847715307	 0.106757
H	-0.8055844702	 6.2723218547	 1.61892877	 0.116596
H	-1.8872221752	 5.1712653704	 0.7465649506	 0.10194
H	-0.9352515296	 4.9950518797	 3.6303366049	 0.116595
H	-2.0263776866	 3.8006597174	 2.9049731292	 0.101937
H	 0.9234904101	 3.2336467949	 2.9535169186	 0.106761
97.5155	151.4128	179.9006	306.7339	385.9666	419.3054	497.0156	525.036	584.0287	707.4566	771.4222	790.5006	840.8251	870.8686	890.6698	947.6073	950.3695	983.3485	987.2348	1017.4412	1030.9662	1051.2573	1097.609	1121.9856	1159.3772	1167.0169	1213.5746	1222.6422	1250.3616	1256.8573	1280.478	1288.2264	1443.5208	1472.6784	1482.4866	1505.9709	1944.9374	3047.226	3054.7698	3083.9701	3103.6696	3121.2178	3140.5983	3187.6708	3196.4341
O=C1CC2(O1)C1CCC21	O=C1C[C@@]2(O1)[C@H]1CC[C@@H]21	
InChI=1S/C7H8O2/c8-6-3-7(9-6)4-1-2-5(4)7/h4-5H,1-3H2	InChI=1S/C7H8O2/c8-6-3-7(9-6)4-1-2-5(4)7/h4-5H,1-3H2/t4-,5+,7+
