19
gdb 76125	3.07253	1.29656	1.09456	5.6675	80.13	-0.2423	0.0318	0.2741	1163.3453	0.159028	-382.051822	-382.042877	-382.041933	-382.08518	33.598	
C	-0.1375619988	 1.572291707	 0.1088788336	-0.418035
C	 0.0098588678	 0.0630035639	 0.0125305799	-0.041129
C	 1.1335101942	-0.5483197023	-0.9367432313	-0.177691
C	 1.9910089914	 0.3653362773	-1.6769045437	 0.302658
N	 2.659835491	 1.0893896967	-2.2811760762	-0.342516
C	 1.7318163158	-1.2388178272	 0.299105729	-0.123444
N	 2.0540469532	-0.1621851478	 1.2614538605	-0.35614
C	 0.6712724016	-0.6893687859	 1.1882631028	 0.345126
C	-0.0281927992	-1.2718987847	 2.3763954945	-0.512226
H	 0.806632768	 2.0314620646	 0.4090219165	 0.155136
H	-0.438650044	 2.0003887507	-0.8521988465	 0.127176
H	-0.903144639	 1.83487843	 0.8470525742	 0.112297
H	-0.9439563929	-0.4066871688	-0.2460551561	 0.083157
H	 0.6979432356	-1.2682044738	-1.633875479	 0.121771
H	 2.2542973131	-2.1873348569	 0.3164977408	 0.105087
H	 2.5105367446	-0.5996671973	 2.0612440695	 0.231427
H	-0.3603665005	-0.4860931651	 3.0646492037	 0.136341
H	-0.9111547473	-1.844150422	 2.0724957144	 0.128491
H	 0.6337401153	-1.9446796586	 2.9324988035	 0.122517
95.9117	129.5131	192.1094	200.9517	211.4523	242.386	300.6882	354.7694	415.6967	507.0418	537.1441	620.3538	673.2855	691.7427	773.1477	852.2485	874.1807	923.171	966.4784	976.3933	1004.3614	1039.8708	1089.3178	1099.5726	1100.9576	1120.1189	1146.8733	1198.2951	1244.4048	1288.099	1311.9586	1344.0044	1365.9195	1408.0924	1412.493	1455.996	1482.1021	1488.9599	1498.727	1502.596	2354.7756	3025.7435	3039.0826	3060.616	3086.7265	3089.2129	3098.0594	3102.6694	3136.3513	3192.0541	3478.496
CC1C(C#N)C2NC12C	C[C@H]1[C@@H](C#N)[C@H]2N[C@@]12C	
InChI=1S/C7H10N2/c1-4-5(3-8)6-7(4,2)9-6/h4-6,9H,1-2H3	InChI=1S/C7H10N2/c1-4-5(3-8)6-7(4,2)9-6/h4-6,9H,1-2H3/t4-,5+,6+,7-/m0/s1
