25
gdb 110098	1.68564	1.26355	0.90382	1.3779	89.79	-0.2378	0.0754	0.3132	1491.0816	0.226058	-389.488546	-389.477136	-389.476192	-389.524937	42.123	
C	 0.0163936656	 1.413793005	-0.826989412	-0.372185
C	-0.2413241404	 0.573037468	 0.4304821649	-0.202034
C	-1.4826235416	-0.2901975588	 0.3084070917	-0.098563
C	-1.4819908521	-1.6922970236	-0.2993475141	-0.04208
C	-0.2444706238	-2.3840987058	-0.836444399	-0.204875
C	-0.4106702086	-3.9075356356	-0.9124509568	-0.375144
C	-1.7681078165	-1.5064647541	 1.1670198976	 0.362337
C	-0.8223144328	-1.9664735466	 2.2545822746	-0.453778
O	-3.1230740109	-1.7348391058	 1.4902468437	-0.466219
H	 0.8978237834	 2.051390486	-0.7048621414	 0.107704
H	 0.1791812772	 0.7763696072	-1.7020272317	 0.120436
H	-0.8377584808	 2.0634979417	-1.0476352767	 0.113878
H	 0.6404205849	-0.0415950827	 0.6391576435	 0.093893
H	-0.3508202105	 1.2419449147	 1.2949575525	 0.091892
H	-2.3805086825	 0.2793716661	 0.0747733577	 0.078364
H	-2.3803429044	-1.9202201783	-0.868687385	 0.089342
H	-0.0241488349	-1.9938964812	-1.8388705284	 0.097155
H	 0.6327836392	-2.1474094746	-0.2252496509	 0.092287
H	-1.2616062035	-4.1789832287	-1.546515762	 0.116818
H	 0.4823553757	-4.3840240464	-1.3294964758	 0.107416
H	-0.5907024317	-4.3355960055	 0.0788745982	 0.121154
H	 0.2278098748	-1.8526610093	 1.9776076643	 0.118012
H	-0.9815538171	-1.3869917945	 3.173090936	 0.104806
H	-1.0046288561	-3.0197718249	 2.4904838831	 0.125589
H	-3.3507456825	-1.1526262123	 2.224214356	 0.273796
65.1352	77.4753	134.1584	146.2075	187.2317	202.2721	210.4237	249.9372	279.0606	295.1878	315.2312	373.6956	415.254	480.8006	489.076	553.6934	702.8247	767.9177	775.7391	816.4125	859.7639	945.1187	953.3827	972.6062	997.3467	1042.0234	1053.0819	1062.9616	1092.4529	1110.2701	1138.2131	1160.2361	1185.7912	1236.1821	1282.2129	1288.565	1296.35	1328.7463	1336.1524	1369.1285	1392.4111	1409.2125	1411.8421	1415.3419	1461.5109	1479.1155	1486.5822	1495.7208	1497.2308	1498.0324	1504.4172	1505.6963	1513.0062	3014.334	3020.4767	3024.1352	3031.3421	3032.8879	3056.1263	3067.1114	3085.9883	3099.2187	3101.3785	3104.6461	3105.7884	3118.3811	3126.5716	3136.5802	3784.5523
CCC1C(CC)C1(C)O	CC[C@H]1[C@@H](CC)[C@]1(C)O	
InChI=1S/C8H16O/c1-4-6-7(5-2)8(6,3)9/h6-7,9H,4-5H2,1-3H3	InChI=1S/C8H16O/c1-4-6-7(5-2)8(6,3)9/h6-7,9H,4-5H2,1-3H3/t6-,7+,8+
