18
gdb 15674	2.91649	1.81333	1.20477	2.7884	70.16	-0.231	0.0165	0.2476	1012.1442	0.153529	-384.945454	-384.93717	-384.936226	-384.978372	30.189	
C	-0.1692403126	 1.5286011215	-0.0648811221	-0.499668
C	-0.0359378709	 0.0411570311	 0.0081130099	 0.309515
C	 0.0760049763	-0.8350388674	-0.9873624296	-0.20547
C	 0.1626411027	-2.2345821363	-0.4539136231	-0.116637
O	 0.0791825877	-2.0922779194	 0.9653073272	-0.293599
C	-0.0130371356	-0.7049688756	 1.3206481936	 0.013849
C	 1.1764805212	-0.375657356	 2.2311512983	-0.05626
O	 1.2235704036	-1.2595804771	 3.3306796036	-0.423423
H	 0.6651683594	 2.0331276064	 0.4372584399	 0.136235
H	-0.1984658786	 1.8754944243	-1.1007317092	 0.12942
H	-1.0853067684	 1.8678002071	 0.434767026	 0.133084
H	 0.0976994059	-0.6040173588	-2.0456096384	 0.101084
H	-0.660374137	-2.8751018889	-0.8073578658	 0.107833
H	 1.1030460498	-2.7383451968	-0.727348885	 0.106171
H	-0.9392744387	-0.5549382012	 1.8991126671	 0.084629
H	 2.1021544495	-0.418067605	 1.6330549165	 0.080995
H	 1.0798039612	 0.6381421663	 2.635450655	 0.101805
H	 1.1305998845	-2.1429564041	 2.9521120561	 0.290438
80.3309	123.4976	167.96	173.825	243.0344	284.3876	356.0325	480.169	493.5944	540.3385	604.2968	769.2435	805.7622	830.8174	945.6811	952.947	998.9433	1041.6602	1045.4941	1060.2269	1079.8381	1094.2458	1111.2403	1192.883	1205.1744	1225.6493	1276.1425	1324.597	1358.0083	1382.0941	1389.4182	1418.2427	1437.4612	1480.3597	1489.4914	1500.8828	1523.512	1732.1074	2960.8964	2975.5906	2977.8384	2992.8565	3022.8881	3066.7503	3071.1316	3116.842	3207.8918	3779.1825
CC1=CCOC1CO	CC1=CCO[C@H]1CO	
InChI=1S/C6H10O2/c1-5-2-3-8-6(5)4-7/h2,6-7H,3-4H2,1H3	InChI=1S/C6H10O2/c1-5-2-3-8-6(5)4-7/h2,6-7H,3-4H2,1H3/t6-/m0/s1
