19
gdb 73333	2.61169	1.98929	1.38635	1.5771	80.6	-0.222	-0.0022	0.2198	965.2648	0.161187	-385.849846	-385.842726	-385.841782	-385.88075	30.03	
O	 0.0811010112	 1.3581851343	-0.0117819942	-0.470103
C	-0.0408511776	-0.0370762911	-0.0210515396	 0.399801
C	 0.7834368015	-0.7810604074	-1.1168265817	-0.28296
C	-0.2242365043	-1.8042548458	-1.7713440796	-0.263988
C	-1.0463365591	-2.0016393069	-0.5208957407	 0.123358
C	-0.6738793989	-2.8218482855	 0.4727134236	-0.113366
C	-0.5344045924	-2.0685286106	 1.7849567526	-0.270656
C	-0.6510329273	-0.6191454359	 1.306844547	-0.110078
C	-1.4070046072	-0.6256980164	 0.009124022	-0.168329
H	 0.8899718278	 1.583000551	 0.4600811065	 0.281531
H	 1.1351909691	-0.0280430517	-1.8296671654	 0.10522
H	 1.6537763366	-1.3157945608	-0.7233917674	 0.098955
H	-0.7673506596	-1.3348417349	-2.5974244495	 0.104103
H	 0.2667294685	-2.7096315029	-2.1351941217	 0.100396
H	-0.1949642294	-3.783517137	 0.3153956092	 0.088898
H	-1.296127723	-2.2872410528	 2.5482444856	 0.104776
H	 0.4354631669	-2.3118021566	 2.2397248505	 0.103033
H	-0.8496685129	 0.1651959142	 2.0320500662	 0.079517
H	-2.3298193897	-0.1052637031	-0.2210092134	 0.08989
209.3687	247.3906	267.2127	307.777	381.8195	392.0328	451.4779	524.683	626.8411	647.4898	724.6143	763.1906	826.5411	837.2549	856.2679	887.4751	902.3869	922.4626	936.0026	973.1062	995.1042	1039.532	1049.8661	1056.4347	1110.5807	1126.4702	1152.9827	1177.0689	1217.604	1228.3905	1251.9652	1267.0503	1289.4505	1304.0067	1322.324	1324.9456	1420.0374	1476.6556	1482.0792	1495.33	1660.1088	2992.6414	3028.6774	3040.4975	3052.0599	3089.2785	3114.9552	3151.8321	3173.322	3175.9036	3800.5099
OC12CCC3=CCC1C23	O[C@@]12CC[C]3[CH]C[C@@H]1[C@@H]23	
InChI=1S/C8H10O/c9-8-4-3-5-1-2-6(8)7(5)8/h1,6-7,9H,2-4H2	InChI=1S/C8H10O/c9-8-4-3-5-1-2-6(8)7(5)8/h1,6-7,9H,2-4H2/t6-,7+,8+/m1/s1
