21
gdb 81432	3.21598	1.40743	1.30755	1.2609	81.66	-0.2417	0.0843	0.326	1082.1755	0.183893	-387.045808	-387.037953	-387.037009	-387.077402	32.863	
C	-0.0771326876	 1.5975423514	-0.0013685383	-0.437934
C	-0.0111912729	 0.0726901453	 0.0106573782	 0.04801
C	 1.0704228764	-0.6056873156	-0.8866928641	-0.047014
C	 2.0854841244	-0.2979618242	 0.2718265059	-0.22986
C	 0.8185301005	-0.6017631484	 1.1459237581	-0.10754
C	 0.6878624262	-2.1154906279	 0.857890954	 0.415211
O	 1.4346558201	-2.9861695171	 1.653965143	-0.471223
C	-0.4200453632	-2.6521982633	-0.0152009535	-0.386228
C	 0.8603894414	-2.1161790178	-0.6400443144	-0.086872
H	 0.8950418767	 2.0819241959	 0.1136795162	 0.119252
H	-0.5103548133	 1.9485102039	-0.9447287329	 0.114724
H	-0.7226049834	 1.956557005	 0.8081494602	 0.113429
H	-1.0314878752	-0.2943229349	-0.1148733482	 0.059443
H	 1.2401389553	-0.2805117372	-1.9145784958	 0.054995
H	 2.9309813848	-0.979991243	 0.3871666558	 0.103537
H	 2.4304686673	 0.7357072604	 0.3124785338	 0.090833
H	 0.7315169236	-0.286827643	 2.1879670458	 0.04901
H	 0.9339022586	-3.1534746129	 2.4596981147	 0.280237
H	-0.4767075515	-3.7365955839	-0.0149892202	 0.110424
H	-1.3826075621	-2.1682435834	-0.1305220117	 0.112339
H	 1.5294788536	-2.8202595595	-1.1212451366	 0.095225
183.6638	208.4229	233.1764	276.5888	301.3706	371.2069	410.6463	449.2077	510.592	541.9498	598.6742	726.8439	783.875	817.2174	832.4373	854.7607	879.7179	886.7944	942.9166	968.6163	989.3337	1022.2563	1033.6924	1043.8205	1053.69	1076.8927	1089.8403	1101.5186	1118.0306	1123.657	1201.4041	1214.6627	1236.7336	1249.3707	1256.137	1268.9878	1288.3552	1321.9841	1380.9922	1411.7195	1414.4271	1491.4036	1499.2606	1500.392	1519.0772	3032.1783	3072.9766	3075.9615	3087.6286	3091.8309	3099.0176	3118.3341	3132.1656	3138.7224	3179.0767	3211.1938	3794.2506
CC1C2CC1C1(O)CC21	C[C@H]1[C@H]2C[C@@H]1[C@@]1(O)C[C@@H]21	
InChI=1S/C8H12O/c1-4-5-2-6(4)8(9)3-7(5)8/h4-7,9H,2-3H2,1H3	InChI=1S/C8H12O/c1-4-5-2-6(4)8(9)3-7(5)8/h4-7,9H,2-3H2,1H3/t4-,5+,6-,7-,8-/m0/s1
