23
gdb 114065	2.58115	1.21901	0.9923	1.5981	86.72	-0.2228	0.0854	0.3082	1348.6321	0.203471	-388.27187	-388.261754	-388.260809	-388.306453	38.066	
C	 0.2133002171	 1.5269267831	 0.0783896765	-0.378009
C	-0.1640386737	 0.0547378091	-0.1190877859	-0.204284
C	 0.6292447264	-0.597585392	-1.2373072256	 0.116257
O	 2.0727169217	-0.5966308249	-1.0149155592	-0.350471
C	 2.13598667	-1.9989139521	-1.3228152566	 0.443773
C	 3.3008240861	-2.4739451412	-2.1281449641	-0.488989
C	 1.3685487996	-2.7692061093	-0.2891360303	-0.392787
C	 0.6289881875	-2.1147432679	-1.4481588766	 0.181293
C	-0.2598775198	-2.8560526955	-2.4033393121	-0.497421
H	 1.2783962315	 1.6193362997	 0.3084735914	 0.137434
H	 0.0142219373	 2.1123951317	-0.8261823928	 0.111464
H	-0.3554026783	 1.9749616448	 0.8986170255	 0.109038
H	-0.0065583589	-0.4984903188	 0.8131889546	 0.098498
H	-1.2309649945	-0.0336399801	-0.3643275446	 0.094653
H	 0.4230303647	-0.0820875674	-2.1881414113	 0.068825
H	 4.2328053105	-2.3534796234	-1.5638192935	 0.131454
H	 3.1922987604	-3.5344809811	-2.3735958474	 0.120161
H	 3.3938927029	-1.9058396229	-3.0591862568	 0.125181
H	 1.4332915863	-3.851181581	-0.3662585143	 0.106412
H	 1.2973279767	-2.3900103925	 0.7264466198	 0.108705
H	-1.2716173282	-2.9791404522	-1.9977028236	 0.122194
H	-0.3472992435	-2.3280827326	-3.3599850708	 0.117603
H	 0.1299859584	-3.8579312436	-2.6111087123	 0.119016
89.6953	139.6393	158.7671	166.4834	178.0641	194.0011	240.6048	282.3992	335.5949	355.0715	456.068	497.3733	532.2985	597.6047	705.1691	727.6881	785.0443	843.5285	897.0498	927.1276	943.8297	960.4571	974.5202	995.9201	1051.5062	1062.8552	1093.8605	1112.0303	1116.5065	1155.7207	1202.3879	1227.9741	1259.0976	1287.0881	1325.2936	1349.9081	1386.2215	1407.4372	1411.8187	1417.6732	1437.3542	1473.1858	1476.7239	1487.2549	1494.5378	1497.7448	1498.6985	1509.4294	1517.9771	2981.6162	3019.0285	3023.3147	3030.8111	3035.8044	3069.8242	3076.1925	3093.1748	3093.7048	3102.6412	3111.1489	3113.988	3119.5159	3198.3278
CCC1OC2(C)CC12C	CC[C@H]1O[C@@]2(C)C[C@@]12C	
InChI=1S/C8H14O/c1-4-6-7(2)5-8(7,3)9-6/h6H,4-5H2,1-3H3	InChI=1S/C8H14O/c1-4-6-7(2)5-8(7,3)9-6/h6H,4-5H2,1-3H3/t6-,7+,8+/m1/s1
