27
gdb 117979	2.57961	0.84671	0.76231	1.2907	92.4	-0.2597	0.069	0.3287	1708.9121	0.248612	-390.708754	-390.696606	-390.695662	-390.745979	45.229	
C	 0.0153194837	 1.5852024142	 0.1659082852	-0.380755
C	-0.0389737194	 0.0592762118	 0.0469684635	-0.171335
C	 0.6269430265	-0.4580734614	-1.2361249098	-0.183507
C	 0.6926934165	-1.9939930611	-1.3423435564	 0.040836
C	-0.7108966509	-2.6228951431	-1.3801079717	-0.414307
C	 1.5814918166	-2.4990419002	-2.5159647194	 0.345621
C	 1.0062331354	-2.1622842611	-3.9002650067	-0.422272
C	 3.0245866825	-1.9809005349	-2.4027595409	-0.418977
O	 1.6035057077	-3.92614524	-2.3438587343	-0.468094
H	 1.0496896253	 1.9471203718	 0.1720847561	 0.111718
H	-0.4962252932	 2.0664710227	-0.6753405246	 0.112235
H	-0.4637099316	 1.9314967069	 1.0872005852	 0.110094
H	 0.4554147287	-0.3938843807	 0.916755185	 0.093655
H	-1.084494353	-0.2663198399	 0.0871266381	 0.100376
H	 0.0886377775	-0.0501777165	-2.1031723838	 0.090261
H	 1.6386066883	-0.0386188339	-1.2800854817	 0.089942
H	 1.1948186744	-2.368909013	-0.4392919897	 0.074201
H	-0.6438588975	-3.6955931913	-1.5672400772	 0.134153
H	-1.2297668674	-2.4769531947	-0.4289870592	 0.109179
H	-1.332518242	-2.1728755101	-2.1627860391	 0.104455
H	 0.9301173279	-1.0822152962	-4.0576231671	 0.116852
H	 1.6590648345	-2.560123684	-4.6867660799	 0.098657
H	 0.0160887434	-2.6042900399	-4.0322064596	 0.124112
H	 3.4284725907	-2.1788003468	-1.4054510025	 0.118225
H	 3.6610955219	-2.4962351631	-3.1319388384	 0.096426
H	 3.1031330743	-0.9098910264	-2.6073297214	 0.116862
H	 2.1217040794	-4.298602819	-3.0647945499	 0.271387
45.0835	75.8771	99.8956	146.7153	216.7144	240.234	248.2762	255.9492	265.3333	284.3863	293.7314	317.3406	349.0553	369.4697	407.4555	471.9525	521.0724	535.8252	731.4847	748.128	851.0178	878.5744	893.5505	914.697	937.8643	963.5944	991.22	1021.7542	1035.9542	1062.6903	1094.8533	1111.854	1145.4842	1197.5523	1202.9892	1219.2533	1270.9241	1306.4402	1335.8736	1357.7688	1359.607	1374.3423	1394.6518	1398.4588	1405.6408	1413.6037	1416.4535	1478.2107	1481.2913	1487.4901	1493.9473	1497.3402	1500.386	1505.0579	1510.1118	1512.3718	1514.0313	3001.637	3010.6216	3022.4299	3027.3341	3027.939	3032.8453	3038.7099	3049.8936	3069.6445	3091.4141	3096.0014	3097.1299	3099.7091	3103.3847	3120.7364	3128.4274	3139.8658	3809.3657
CCCC(C)C(C)(C)O	CCC[C@@H](C)C(C)(C)O	
InChI=1S/C8H18O/c1-5-6-7(2)8(3,4)9/h7,9H,5-6H2,1-4H3	InChI=1S/C8H18O/c1-5-6-7(2)8(3,4)9/h7,9H,5-6H2,1-4H3/t7-/m1/s1
