17
gdb 19435	3.99201	1.94518	1.6183	2.4249	67.41	-0.2314	0.0734	0.3048	830.985	0.144023	-363.814967	-363.808377	-363.807433	-363.845542	26.358	
C	-0.0409711856	 1.4859532239	 0.0164123356	-0.296537
N	 1.2375780846	 0.7428096601	-0.0167659338	-0.357413
C	-0.0357255952	 0.0069405307	-0.0102883055	 0.336683
C	-0.339573688	-0.863106066	 1.210225934	-0.154978
O	-0.35905211	-2.2163430743	 0.747915441	-0.259603
C	-0.621452342	-2.2103506032	-0.630676684	 0.127308
C	-1.8283192405	-1.4667579204	-1.1349322277	-0.339325
C	-0.4463977039	-0.8254598019	-1.1919200191	-0.167604
H	-0.2320484121	 2.0190309531	 0.9448575699	 0.117479
H	-0.3681664604	 2.0106453729	-0.8778072422	 0.112909
H	 1.6277346823	 0.7645829542	-0.9566621917	 0.22797
H	 0.4298001723	-0.7664927412	 1.9797674863	 0.127656
H	-1.3131114514	-0.5987281404	 1.6478640078	 0.097694
H	-0.2752336664	-3.1145875516	-1.1164409784	 0.104689
H	-2.2509290061	-1.7917460817	-2.0795370859	 0.115406
H	-2.5559141631	-1.0898851055	-0.424247973	 0.121306
H	 0.0148912456	-0.6297971387	-2.1537559032	 0.08636
117.0759	220.3117	290.5332	353.4243	392.6456	478.5319	531.1968	703.5699	743.4704	792.6095	817.6218	846.9666	904.807	927.2401	958.3051	972.1916	976.1469	1021.1398	1027.2894	1057.8982	1075.1261	1088.146	1093.1994	1135.69	1160.2372	1195.9184	1227.5676	1261.6358	1288.7441	1318.1134	1335.7182	1389.7405	1431.8438	1475.4434	1513.7451	1516.8265	2995.7108	3100.3101	3101.4303	3133.5582	3166.6597	3183.5629	3188.6215	3221.3261	3486.8422
C1NC11COC2CC12	C1N[C@]21CO[C@H]1C[C@@H]21	
InChI=1S/C6H9NO/c1-4-5(1)8-3-6(4)2-7-6/h4-5,7H,1-3H2	InChI=1S/C6H9NO/c1-4-5(1)8-3-6(4)2-7-6/h4-5,7H,1-3H2/t4-,5+,6-/m1/s1
