17
gdb 124736	3.77937	1.04668	0.85762	6.8499	72.6	-0.229	-0.0232	0.2058	1316.0884	0.136496	-455.144633	-455.136099	-455.135155	-455.178003	32.1	
C	 0.3075555957	 1.1794676486	-0.6731985439	-0.398221
C	 0.1713592342	-0.1128223829	 0.1385239853	-0.07696
N	 0.4779989349	 0.0164965034	 1.5763671274	-0.527195
H	 1.4708345478	 0.1881628634	 1.7013187529	 0.240059
H	-0.0024663713	 0.8303905694	 1.9534627206	 0.235599
H	-1.2247187341	-1.7291783444	 1.8075004127	 0.279298
C	-1.2003925233	-0.7244316755	 0.0231378957	 0.471963
N	-1.4727797075	-1.8127406749	 0.8261477767	-0.214475
O	-2.8310601685	-2.12901657	 0.6839216811	-0.253605
C	-3.3501215813	-1.3322960022	-0.3592931962	 0.499619
O	-4.4800993355	-1.4841786811	-0.7320539498	-0.367655
C	-2.2696820426	-0.4445161258	-0.7541884325	-0.51644
H	 1.3204896324	 1.5793655208	-0.5704291939	 0.117249
H	 0.1188694985	 1.0060801988	-1.737180951	 0.134102
H	-0.3992878842	 1.9382617595	-0.3212562025	 0.126997
H	 0.8808026708	-0.852162149	-0.2557737136	 0.12163
H	-2.3556734859	 0.2880278218	-1.5378062888	 0.128035
64.9307	136.0123	176.9436	248.5625	263.7016	314.1945	342.2913	396.6406	450.9649	530.1978	575.1505	648.8718	705.5659	708.3471	754.7971	815.4422	859.8423	881.7519	927.1926	979.4078	1020.8223	1059.2895	1109.9596	1123.8532	1141.537	1202.0395	1226.6251	1309.1162	1350.2854	1398.624	1408.7985	1438.4174	1489.9115	1499.9419	1650.9656	1661.7517	1873.529	3027.2057	3036.4828	3110.3665	3114.3384	3288.0341	3481.8351	3542.9336	3567.2626
CC([NH3+])C1=NOC([O-])=C1	C[C@@H](N)c1[nH]oc(=O)c1	
InChI=1S/C5H8N2O2/c1-3(6)4-2-5(8)9-7-4/h2-3,8H,6H2,1H3	InChI=1S/C5H8N2O2/c1-3(6)4-2-5(8)9-7-4/h2-3,7H,6H2,1H3/t3-/m1/s1
