19
gdb 86679	2.19389	1.5024	1.12533	2.6274	75.77	-0.2424	-0.0323	0.2101	1157.1886	0.156624	-423.003686	-422.99454	-422.993596	-423.0383	33.341	
C	-0.8357445857	 1.3809628587	 0.2141901521	-0.401044
C	-0.181288114	 0.0305038046	 0.0082916125	 0.089444
O	 0.9004906784	 0.0821042344	-0.9663187998	-0.317527
C	 1.8542634599	-0.4638418304	-0.0403510481	-0.016191
C	 3.0198639477	 0.4697100537	 0.2128759208	 0.129665
O	 3.9512367106	 0.1868007282	 0.9226375023	-0.248881
C	 0.7913278897	-0.498839975	 1.0669677552	 0.265085
C	 0.9369209753	-0.1203525168	 2.5102549183	-0.328309
C	 0.5828447235	-1.5374260858	 2.1212050236	-0.324576
H	-0.1069507317	 2.12331246	 0.5521355791	 0.121619
H	-1.2779565769	 1.7296813061	-0.724177027	 0.131825
H	-1.6357447014	 1.3104416904	 0.9593085555	 0.118352
H	-0.9280813258	-0.7138849402	-0.3013514632	 0.081862
H	 2.2331979778	-1.4480015958	-0.3483288119	 0.105534
H	 2.9225033804	 1.4597680112	-0.2874670742	 0.090453
H	 1.9388924926	 0.0695049372	 2.880257477	 0.140172
H	 0.1655047049	 0.4989089661	 2.9562610951	 0.118917
H	-0.4324267661	-1.8797294276	 2.297596394	 0.11718
H	 1.3415355206	-2.304547499	 2.2373005185	 0.126421
46.7786	69.068	163.7387	196.3377	209.6104	228.7333	318.6142	374.1296	416.5196	462.7495	529.7864	589.4865	770.1899	787.2617	843.5649	886.9692	904.2023	918.4639	977.2051	1014.2995	1045.0196	1056.303	1080.057	1083.1974	1097.6595	1103.6464	1141.9537	1190.6511	1217.7995	1247.5179	1290.1269	1306.607	1368.9659	1392.4906	1401.6523	1408.9525	1459.7603	1485.4549	1490.0785	1503.8297	1823.3966	2884.747	3003.5517	3015.6095	3035.9355	3107.114	3118.8255	3124.0148	3130.758	3205.4445	3221.1561
CC1OC(C=O)C11CC1	C[C@H]1O[C@@H](C=O)C21CC2	
InChI=1S/C7H10O2/c1-5-7(2-3-7)6(4-8)9-5/h4-6H,2-3H2,1H3	InChI=1S/C7H10O2/c1-5-7(2-3-7)6(4-8)9-5/h4-6H,2-3H2,1H3/t5-,6+/m1/s1
