20
gdb 95086	2.27543	1.92466	1.35742	1.3225	73.33	-0.212	0.0619	0.2738	1005.7104	0.172931	-440.255606	-440.247671	-440.246727	-440.287571	32.451	
O	-0.1098273812	 1.3440911442	 0.7180044698	-0.448055
C	-0.0358369784	 0.0950160433	 0.0433913617	 0.135922
C	 0.9491324939	-0.8299902707	 0.7888549906	-0.25208
C	 0.2411040189	-1.8878897488	 1.6853336628	-0.16807
N	-1.1559947909	-2.1634240872	 1.2948757163	-0.106055
C	-1.9189059108	-0.8706316292	 1.3766884467	-0.232721
C	-1.4264753164	-0.5446639429	-0.0467003593	 0.341892
O	-2.1846720652	 0.2555799169	-0.9221884451	-0.502861
C	-1.2861572257	-2.079541887	-0.2043606408	-0.248795
H	-0.8053188457	 1.846302818	 0.2764653181	 0.285912
H	 0.318722487	 0.2521845424	-0.9873481336	 0.071062
H	 1.5652874131	-1.3433683165	 0.0453981428	 0.105373
H	 1.6275223316	-0.2048823963	 1.3751844838	 0.119212
H	 0.7989786389	-2.8298723259	 1.6548937445	 0.101447
H	 0.2207213969	-1.5666272608	 2.731268565	 0.111757
H	-2.9962970504	-1.073400282	 1.4240742304	 0.086089
H	-1.6302843086	-0.1940270169	 2.1837898088	 0.117942
H	-3.1043089303	-0.0263143161	-0.8755037949	 0.28112
H	-0.4542386372	-2.4875478405	-0.7856990299	 0.104347
H	-2.2184321098	-2.5599728843	-0.5220715876	 0.096563
95.6699	205.267	264.9644	329.9138	369.6791	378.3826	420.6279	424.511	445.302	500.9365	531.3359	644.251	681.1806	784.233	795.8259	850.1284	908.9707	926.2596	948.9022	974.0657	1015.9532	1022.7228	1048.2091	1085.1155	1107.0059	1143.4137	1158.438	1186.3212	1239.9244	1244.1635	1258.7157	1261.9484	1295.9123	1306.462	1354.5066	1362.3821	1377.4844	1404.1871	1425.4475	1479.8189	1494.1305	1500.7711	1523.2349	2974.8334	3020.6541	3034.533	3041.415	3060.5326	3080.2715	3094.3215	3108.083	3114.0126	3791.1542	3811.4046
OC1CCN2CC1(O)C2	O[C@H]1CCN2C[C@]1(O)C2	
InChI=1S/C6H11NO2/c8-5-1-2-7-3-6(5,9)4-7/h5,8-9H,1-4H2	InChI=1S/C6H11NO2/c8-5-1-2-7-3-6(5,9)4-7/h5,8-9H,1-4H2/t5-/m0/s1
