19
gdb 40363	3.78629	1.283	1.19822	1.2973	74.7	-0.2412	0.0829	0.3241	1092.6074	0.160437	-422.978264	-422.970859	-422.969914	-423.010516	29.37	
C	 0.841003808	 0.9235799963	-0.185956811	-0.174431
O	-0.1827028487	 0.2084453862	-0.8825279943	-0.238907
C	-0.4460947021	 0.6343651938	 0.456152002	-0.056016
C	-0.6086459069	-0.4591933814	 1.4583250006	 0.481933
C	-1.8176027132	-1.4350979393	 1.4819819997	-0.276567
C	-0.8827115729	-2.1682611886	 2.492493522	-0.088224
C	 0.2999004491	-1.7096073327	 1.58113025	-0.280494
C	-0.7990514246	-1.1066448953	 3.5957799706	-0.074283
O	-0.6056386407	 0.0835605708	 2.7944545138	-0.328811
H	 1.7181568629	 0.3382219485	 0.0830715694	 0.116007
H	 1.042932512	 1.9282258756	-0.5538015087	 0.118249
H	-1.1736899165	 1.4420939975	 0.5438496453	 0.098308
H	-2.7692365729	-1.0390055411	 1.8452308349	 0.097386
H	-1.9445046716	-1.9773342394	 0.5444896498	 0.115335
H	-1.0301243127	-3.2049379869	 2.7910977844	 0.075976
H	 0.3720619774	-2.2782852237	 0.6538157639	 0.116813
H	 1.2813780333	-1.5676783234	 2.0407391179	 0.096504
H	-1.7170416754	-1.0158580568	 4.1881293495	 0.100816
H	 0.0520083154	-1.2430578703	 4.2732449601	 0.100406
58.4212	168.1317	176.674	332.0544	383.4398	428.8287	499.6202	534.6098	632.0875	662.5034	827.4285	858.8763	868.6505	883.2339	892.7342	919.6151	950.3877	959.4299	968.0923	987.9079	1009.8459	1063.2345	1088.3712	1096.9855	1109.8453	1148.0212	1153.4658	1165.9285	1171.1212	1187.3799	1212.0797	1247.5345	1277.4902	1291.8523	1328.7451	1362.2732	1454.1731	1474.744	1508.996	1526.7899	1533.2837	3023.6954	3063.0649	3066.8883	3070.7357	3089.2136	3106.9155	3131.2447	3140.9126	3148.036	3178.1783
C1OC1C12CC(C1)CO2	C1O[C@H]1[C@@]12C[C@@H](C1)CO2	
InChI=1S/C7H10O2/c1-5-2-7(1,9-3-5)6-4-8-6/h5-6H,1-4H2	InChI=1S/C7H10O2/c1-5-2-7(1,9-3-5)6-4-8-6/h5-6H,1-4H2/t5-,6-,7+/m1/s1
