18
gdb 105653	2.12693	1.41382	1.22858	2.5197	72.85	-0.2691	0.0086	0.2777	1141.2643	0.145307	-439.065804	-439.056234	-439.05529	-439.100469	33.835	
C	-0.0651004262	 1.4359285497	-0.0053683177	-0.268135
O	 0.1590980777	 0.0340358147	-0.0759023127	-0.273525
C	 0.709820329	-0.540715222	 1.0752658763	 0.194353
C	-0.2696951276	-0.7381638316	 2.2688154158	-0.117801
O	-0.3474283077	-2.1493289988	 2.0278968505	-0.283061
C	 0.678162127	-2.1028815135	 1.0099745551	 0.106586
C	 0.2641259873	-2.7570317496	-0.2880407792	-0.400998
C	 2.0151004814	 0.0492447049	 1.4095723158	 0.24339
N	 3.039195471	 0.5169007388	 1.6716778073	-0.341738
H	 0.8744388805	 1.986471027	 0.1285491827	 0.142365
H	-0.5196239692	 1.720915257	-0.9553699216	 0.14342
H	-0.7512395653	 1.6967290809	 0.8117755005	 0.118323
H	 0.1452719135	-0.4995961165	 3.2548289742	 0.120248
H	-1.2352543901	-0.237668142	 2.137199775	 0.118892
H	 1.6124659205	-2.5370875258	 1.3881003723	 0.096377
H	-0.6305327942	-2.2852315631	-0.6960169335	 0.138308
H	 1.0693730224	-2.6873025392	-1.025554462	 0.130394
H	 0.0576489699	-3.8150975211	-0.1005512689	 0.132601
60.9224	118.3465	149.3956	168.0404	179.9191	206.7478	224.4925	311.088	372.2289	415.7341	492.2386	539.1522	577.5395	637.2633	785.7786	883.7442	894.517	997.3952	1030.7559	1035.5711	1082.2158	1096.9184	1124.6027	1160.8208	1183.8217	1188.3399	1218.6533	1231.7946	1300.4551	1357.3838	1383.1496	1405.4521	1479.0865	1481.5622	1488.851	1490.866	1503.9407	1509.4024	2349.3053	3005.6674	3022.3187	3029.7304	3050.0989	3068.0515	3080.4794	3118.3195	3138.9742	3151.0844
COC1(COC1C)C#N	CO[C@]1(CO[C@H]1C)C#N	
InChI=1S/C6H9NO2/c1-5-6(3-7,8-2)4-9-5/h5H,4H2,1-2H3	InChI=1S/C6H9NO2/c1-5-6(3-7,8-2)4-9-5/h5H,4H2,1-2H3/t5-,6-/m0/s1
