19
gdb 93601	2.81637	1.24118	0.90611	0.9105	88.44	-0.2245	-0.0187	0.2058	1285.1356	0.157865	-385.884397	-385.874956	-385.874012	-385.918526	35.319	
C	-0.1316607951	 1.5327689997	 0.0982433348	-0.510087
C	-0.0176590714	 0.0474583432	 0.0138356427	 0.168799
C	 0.0401105186	-0.7150797065	-1.094356137	 0.099764
C	 0.0800682256	-2.1998122863	-0.7643018733	-0.325245
C	 0.3825021953	-2.2151933957	 0.7488760688	-0.252791
C	-0.0111474693	-0.8108540643	 1.2658982561	 0.07642
O	 0.8198630731	-0.3138814396	 2.3074168064	-0.430133
C	 0.0147619633	-0.2534241321	-2.4324885419	 0.19587
C	 0.0012936654	 0.0998536005	-3.5854560949	-0.415639
H	 0.6239665735	 1.9417106532	 0.7774346441	 0.131237
H	-0.0265744043	 2.0003038176	-0.8830903573	 0.134596
H	-1.1054793648	 1.821776006	 0.5160020418	 0.13167
H	-0.8899048462	-2.6611815735	-0.9893428991	 0.117298
H	 0.8243293314	-2.7377912894	-1.3599321333	 0.113181
H	-0.1236145418	-3.0208252621	 1.2853248136	 0.106569
H	 1.4587947527	-2.3447928618	 0.9135792196	 0.097931
H	-1.0139137983	-0.8178468025	 1.7160338484	 0.096019
H	 1.7234749284	-0.2963880258	 1.9712732142	 0.274933
H	-0.0144810361	 0.4211487394	-4.5972329139	 0.189608
79.3886	125.4714	136.5036	139.8583	230.2225	265.3434	327.4081	365.6636	410.845	483.3577	518.7661	564.7972	581.063	600.2835	639.0447	648.9918	703.1948	857.0313	887.5601	961.5693	993.901	1031.043	1059.0435	1071.6019	1096.3088	1149.8444	1170.2797	1230.3279	1252.8438	1272.647	1310.5526	1329.6035	1342.0225	1408.864	1423.8349	1475.355	1480.2792	1484.8521	1501.0824	1692.2833	2215.7219	3008.8468	3021.2965	3027.8273	3040.2612	3073.0536	3075.849	3106.6826	3128.7375	3503.0455	3790.5002
CC1=C(CCC1O)C#C	CC1=C(CC[C@H]1O)C#C	
InChI=1S/C8H10O/c1-3-7-4-5-8(9)6(7)2/h1,8-9H,4-5H2,2H3	InChI=1S/C8H10O/c1-3-7-4-5-8(9)6(7)2/h1,8-9H,4-5H2,2H3/t8-/m1/s1
