19
gdb 100601	2.54333	1.05371	0.92593	3.8925	74.73	-0.2495	-0.0238	0.2257	1355.2624	0.157907	-456.371357	-456.361241	-456.360296	-456.406999	35.386	
C	-0.219321285	 1.1811173115	-0.9319836718	-0.249069
O	 0.2684714313	 0.1368300548	-0.1064251289	-0.254757
C	 1.124252269	-0.774930061	-0.7860344359	 0.06066
C	 1.9367156218	-1.5184928649	 0.2722484923	-0.402553
C	 0.3253028189	-1.7540670421	-1.6484135699	 0.333327
N	 0.8179692591	-2.2168951166	-2.7199506602	-0.506642
N	-0.9210312427	-2.0666036222	-1.070815275	-0.325578
C	-1.8462916552	-2.9606066492	-1.542327571	 0.162197
O	-1.7238282062	-3.6482158851	-2.5315807557	-0.299655
H	 0.606130272	 1.778819585	-1.3426834607	 0.123147
H	-0.8217049063	 0.8008617061	-1.7690978891	 0.120543
H	-0.8447383015	 1.8199808648	-0.3044142884	 0.132114
H	 1.79902497	-0.2383484245	-1.4643546237	 0.1024
H	 1.2795649091	-2.0781523293	 0.9450348195	 0.120712
H	 2.6207532072	-2.2197188657	-0.2109265937	 0.144841
H	 2.5117054075	-0.8048595929	 0.8675065327	 0.128417
H	 0.1876520648	-2.8986847702	-3.1443971124	 0.251543
H	-1.1552705171	-1.5191292276	-0.2525466515	 0.264807
H	-2.7472809266	-2.9898221008	-0.8996317263	 0.093546
63.0502	69.4683	124.3984	168.6038	200.759	220.8219	229.8196	266.357	284.1227	291.2594	463.1826	474.5044	567.9852	691.1701	712.5944	738.9907	870.3033	927.5949	965.0033	978.1434	1028.2363	1070.4384	1112.6426	1132.7722	1139.7221	1183.3287	1189.6932	1236.6101	1330.9999	1340.4177	1362.8593	1402.2312	1437.3677	1477.3281	1486.0675	1489.2617	1495.0422	1502.97	1516.4707	1735.3849	1811.2019	2948.5929	2994.1517	3038.7988	3048.0124	3049.2609	3121.4577	3122.4481	3139.6426	3482.7021	3578.808
COC(C)C(=N)NC=O	CO[C@@H](C)C(=N)NC=O	
InChI=1S/C5H10N2O2/c1-4(9-2)5(6)7-3-8/h3-4H,1-2H3,(H2,6,7,8)	InChI=1S/C5H10N2O2/c1-4(9-2)5(6)7-3-8/h3-4H,1-2H3,(H2,6,7,8)/t4-/m0/s1
