20
gdb 56000	3.71894	0.99054	0.90717	1.2309	82.72	-0.2434	0.0186	0.262	1377.1585	0.171163	-403.176369	-403.167265	-403.166321	-403.211276	33.246	
C	 0.0792050437	 1.4047867626	-0.3656550314	-0.458871
C	 0.0597972119	-0.0556244032	 0.0141764794	 0.394867
N	 0.1773583403	-0.5691773283	 1.1717947611	-0.527011
O	-0.1112179017	-0.8134450655	-1.0847513406	-0.261625
C	-0.20125577	-2.2550056826	-0.9003604674	 0.111805
C	-0.7243178024	-2.8668371007	-2.2153798429	-0.242987
C	 0.5104487836	-3.4741313901	-2.9280694359	-0.253544
C	 1.5493177961	-3.5157340196	-1.834797664	-0.053334
C	 1.1646194837	-2.8726686822	-0.7336215752	-0.080942
H	 0.8823986523	 1.5946703972	-1.0840945507	 0.145554
H	-0.8611254989	 1.6801003108	-0.8529417704	 0.143801
H	 0.2269805628	 2.0368070237	 0.511545604	 0.123782
H	 0.2820124128	 0.1594061652	 1.8738851137	 0.215969
H	-0.8569703528	-2.4247268724	-0.0434911554	 0.101756
H	-1.4435082544	-3.65614148	-1.9793893066	 0.107799
H	-1.2444094283	-2.1143429884	-2.8115512358	 0.110428
H	 0.2997640629	-4.4663138619	-3.3431878341	 0.104695
H	 0.8546426734	-2.8584213675	-3.7697762274	 0.111812
H	 2.5073190422	-4.0087197591	-1.9645643618	 0.094397
H	 1.7370508328	-2.741926408	 0.1748244813	 0.111646
58.4072	68.3346	102.0769	114.1527	199.6377	277.2473	343.642	396.3215	505.2825	576.9542	608.9039	713.1329	750.2254	801.1544	813.9972	848.5142	895.6611	906.046	924.2976	968.0083	990.1098	998.7962	1037.9559	1061.682	1066.8423	1080.5315	1110.7383	1127.9801	1181.115	1229.8691	1286.3455	1312.4332	1330.1954	1346.8963	1377.9157	1392.2288	1424.547	1471.0016	1473.0738	1481.955	1493.3166	1683.3336	1718.3284	3020.8083	3047.9396	3052.7715	3067.4212	3088.3832	3111.9142	3118.6096	3141.7006	3184.2413	3234.6283	3514.4387
CC(=N)OC1CCC=C1	C[C]([NH])O[C@H]1CCC=C1	
InChI=1S/C7H11NO/c1-6(8)9-7-4-2-3-5-7/h2,4,7-8H,3,5H2,1H3	InChI=1S/C7H11NO/c1-6(8)9-7-4-2-3-5-7/h2,4,7-8H,3,5H2,1H3/t7-/m1/s1
