22
gdb 62666	2.97515	1.36475	1.1818	1.6759	85.96	-0.2466	0.0901	0.3367	1169.5324	0.193666	-367.166579	-367.157582	-367.156638	-367.199347	35.794	
C	-0.0553956685	 1.5383612282	-0.0183652848	-0.458224
C	 0.0561770181	 0.024758331	 0.0282093932	 0.318226
C	-1.1645863778	-0.6754201224	-0.5514030026	-0.45243
C	 1.3607793545	-0.6998504902	-0.2244659253	-0.116604
C	 2.555484893	 0.0065825618	 0.3761958792	-0.123613
N	 3.1550714555	-0.7612738119	 1.4724465005	-0.372404
C	 1.9204659527	-0.0164908182	 1.7481965249	 0.324646
C	 1.9277823252	 0.9795708114	 2.87197296	-0.481708
C	 0.705055986	-0.7265407927	 1.1753844478	-0.174927
H	 0.8408016761	 2.0361137086	 0.3548000152	 0.126242
H	-0.2191517221	 1.8741956368	-1.0491707614	 0.111465
H	-0.9084441779	 1.8834173198	 0.5778432183	 0.112055
H	-1.316453173	-0.3914125494	-1.598813371	 0.116777
H	-1.0633207474	-1.7645510578	-0.5098969491	 0.113313
H	-2.0704186967	-0.4011875751	 0.0009865764	 0.116833
H	 1.4197204632	-1.5201361789	-0.9334345636	 0.082215
H	 3.1607269699	 0.7798053012	-0.0837173462	 0.092274
H	 2.9853134448	-1.7595912297	 1.3633900626	 0.220586
H	 2.9030061478	 1.4677147294	 2.9430423653	 0.130765
H	 1.1568619992	 1.7439874282	 2.7358225293	 0.117868
H	 1.7355271183	 0.4801259459	 3.8290772779	 0.119055
H	 0.198671169	-1.5643383761	 1.6462487035	 0.077592
164.4912	172.1853	190.2875	208.5323	236.1582	268.9784	338.4806	344.5685	359.177	456.4374	509.2979	538.7537	626.9569	714.3044	793.918	813.4717	856.0242	867.2277	924.0971	952.3114	964.3912	976.1725	1002.328	1026.1428	1042.3476	1059.3046	1071.7839	1101.6232	1125.911	1150.4699	1156.1042	1221.2412	1242.844	1263.3823	1295.8674	1308.5787	1385.3476	1400.8305	1406.6128	1423.562	1436.0178	1483.1116	1485.5288	1489.0949	1494.895	1507.264	1510.1119	3023.4681	3028.3143	3032.5511	3078.9919	3087.886	3092.7788	3099.7399	3123.8827	3133.823	3145.9176	3157.8141	3175.0008	3462.7249
CC1(C)C2C3NC3(C)C12	CC1(C)[C@H]2[C@@H]3N[C@]3(C)[C@@H]12	
InChI=1S/C8H13N/c1-7(2)4-5(7)8(3)6(4)9-8/h4-6,9H,1-3H3	InChI=1S/C8H13N/c1-7(2)4-5(7)8(3)6(4)9-8/h4-6,9H,1-3H3/t4-,5-,6+,8-/m1/s1
