19
gdb 30661	3.08555	1.236	0.99988	3.2317	79.01	-0.1893	0.0236	0.213	1233.8778	0.159654	-419.229385	-419.220323	-419.219379	-419.263912	32.728	
C	 0.171985423	 1.5709833047	 0.1496839661	-0.383315
C	 0.0740312792	 0.0498561733	-0.023856764	-0.167251
N	 0.6551291186	-0.7341892368	 1.0678364228	-0.166834
C	-0.0627045202	-0.760986554	 2.32937918	-0.340075
C	 2.0220940228	-0.8004469084	 1.174750404	 0.432955
C	 2.896139742	-0.9896210057	 2.2071282224	-0.230418
N	 4.1892539801	-1.0608911124	 1.6910855394	-0.249729
C	 4.0461978764	-0.9024599506	 0.423733594	 0.050558
O	 2.7475253691	-0.7363689831	 0.0195153598	-0.200027
H	 1.2169277393	 1.888967124	 0.2117075236	 0.134321
H	-0.2870217807	 2.0785264084	-0.7047218732	 0.119689
H	-0.3427110369	 1.9074140454	 1.0550650111	 0.120849
H	-0.975004916	-0.2538399799	-0.1083742329	 0.106594
H	 0.5689156326	-0.2515921158	-0.9499794901	 0.132148
H	 0.2559121506	-1.6308874021	 2.911896747	 0.139875
H	 0.0974262317	 0.1383051232	 2.9445612189	 0.118949
H	-1.1322541957	-0.8579828939	 2.1273442054	 0.128179
H	 2.6978259444	-1.0761053819	 3.2613359571	 0.111062
H	 4.7937227495	-0.8714001944	-0.3518343413	 0.142469
54.7731	67.8498	144.4992	185.622	210.4508	247.4767	288.7363	374.1523	446.6413	507.0909	607.2302	657.7395	703.8782	761.4433	771.1741	793.158	875.5664	935.4644	971.2683	1018.5527	1084.2158	1090.5884	1109.6595	1126.1648	1153.8533	1194.5388	1233.6012	1272.3254	1302.6231	1352.6637	1390.3106	1407.2557	1419.4881	1457.7664	1484.075	1485.0911	1492.444	1504.5519	1515.0017	1575.1813	1647.0001	2981.4561	3039.1096	3049.2807	3071.6649	3097.4416	3111.8505	3118.7757	3122.3966	3280.6262	3286.2441
CCN(C)C1=CN=CO1	CCN(C)c1cnco1	
InChI=1S/C6H10N2O/c1-3-8(2)6-4-7-5-9-6/h4-5H,3H2,1-2H3	InChI=1S/C6H10N2O/c1-3-8(2)6-4-7-5-9-6/h4-5H,3H2,1-2H3
