20
gdb 108480	2.20025	1.6778	1.14953	2.5654	75.05	-0.2138	0.0457	0.2595	1121.6008	0.169939	-440.218201	-440.209124	-440.20818	-440.252115	33.727	
C	-0.1897344361	 1.562064447	-0.0497940695	-0.343222
N	 0.0140088459	 0.1404051368	 0.0870429883	-0.106087
C	-1.1753151228	-0.721132397	 0.2707627516	-0.196798
C	-0.4166192933	-1.5355149065	 1.3338327133	 0.050314
O	 0.4758337484	-2.5294934336	 0.8075013834	-0.299634
C	 1.6064412577	-1.616125923	 0.8427514459	-0.09077
C	 0.6939252309	-0.4520199725	 1.2797644295	 0.271592
C	 1.1360342445	 0.427933029	 2.4262948824	-0.194331
O	 2.361013887	 1.099790356	 2.1578236774	-0.413259
H	 0.7692762196	 2.0796830883	-0.1766244318	 0.110389
H	-0.7705582883	 1.7505650671	-0.9592211845	 0.131262
H	-0.7328301739	 2.0375186475	 0.7891076359	 0.094435
H	-2.0358563508	-0.1888160715	 0.7094525734	 0.085962
H	-1.4998216608	-1.2588680102	-0.6262141131	 0.110162
H	-0.9546863836	-1.8721914685	 2.2231105077	 0.080651
H	 2.3456200762	-1.9305904693	 1.5903227531	 0.100742
H	 2.0804606776	-1.4998132433	-0.1359111754	 0.107101
H	 0.3421428924	 1.1341812789	 2.7114741962	 0.095338
H	 1.3320525916	-0.2057428794	 3.2977187352	 0.118618
H	 2.1978647976	 1.7579056144	 1.4754986808	 0.287536
59.4973	115.623	168.19	231.1556	236.8359	272.127	283.0233	337.0216	392.5092	405.9885	449.6722	643.3107	698.1034	792.2714	844.5029	899.8569	931.0106	962.9254	990.6011	1005.0247	1045.8077	1064.4876	1094.0057	1108.9062	1136.9323	1148.4837	1169.8967	1185.1858	1211.1409	1225.8778	1272.6235	1282.3448	1324.5455	1331.6757	1371.2017	1382.1722	1413.0245	1451.0478	1482.6006	1491.0117	1500.5756	1503.6221	1512.592	2920.7416	2964.4944	2996.7402	3019.6059	3038.2733	3067.2549	3073.0263	3081.1561	3083.4698	3092.8549	3827.9983
CN1CC2OCC12CO	CN1C[C@H]2OC[C@@]12CO	
InChI=1S/C6H11NO2/c1-7-2-5-6(7,3-8)4-9-5/h5,8H,2-4H2,1H3	InChI=1S/C6H11NO2/c1-7-2-5-6(7,3-8)4-9-5/h5,8H,2-4H2,1H3/t5-,6-/m1/s1
