19
gdb 90426	2.54564	1.58938	1.22648	3.2671	77.23	-0.2103	0.0221	0.2324	1087.661	0.159343	-419.194372	-419.185574	-419.184629	-419.227934	32.057	
C	-0.2639803209	 1.484045622	-0.0337075545	-0.329176
N	 0.1254645247	 0.0880000114	-0.0116354129	-0.064577
C	 1.2094036683	-0.4022737086	-0.8907059083	-0.19842
C	 1.8341061992	-1.1588326784	 0.3146462722	-0.017938
C	 0.7344152177	-0.4981152605	 1.1985621925	-0.163195
C	 1.9077945437	 0.3148035696	 1.8160015739	 0.395793
O	 2.0386512112	 1.2383582559	 2.5783138462	-0.380432
N	 2.8259363743	-0.3815232045	 1.0522286539	-0.064649
C	 4.2016857874	-0.0689036627	 0.7505176324	-0.351279
H	 0.5665491455	 2.1846839239	 0.1562349479	 0.113171
H	-0.7005345287	 1.721600742	-1.0095468707	 0.120201
H	-1.0296047813	 1.6580773243	 0.7290910028	 0.130504
H	 0.8391748956	-1.0273859999	-1.7109389694	 0.109241
H	 1.8691716948	 0.373537288	-1.305088658	 0.095847
H	 2.0174422446	-2.230622167	 0.2450555853	 0.091031
H	 0.0519487083	-1.0127567234	 1.8774378938	 0.09463
H	 4.5297211236	 0.6929824883	 1.4618438147	 0.162222
H	 4.8418962658	-0.9516264913	 0.8547779338	 0.130831
H	 4.3175961462	 0.327162201	-0.2667960655	 0.126195
90.8574	131.1139	150.531	157.045	203.4295	237.1785	328.8171	354.4804	432.7526	489.6506	631.1249	695.4785	766.1068	788.5182	863.0692	877.9387	931.2384	989.5667	1000.1685	1052.3514	1070.8481	1124.3406	1146.3239	1156.1308	1165.667	1187.133	1229.2308	1253.1971	1272.1688	1283.6934	1300.8449	1323.7616	1396.9637	1445.5456	1452.8446	1483.3581	1486.5979	1501.1308	1507.4832	1513.4468	1861.3663	2964.5975	2997.1783	3013.7615	3055.1798	3061.7782	3072.2029	3094.1443	3103.2781	3119.0485	3129.0285
CN1CC2C1C(=O)N2C	CN1C[C@@H]2[C@H]1C(=O)N2C	
InChI=1S/C6H10N2O/c1-7-3-4-5(7)6(9)8(4)2/h4-5H,3H2,1-2H3	InChI=1S/C6H10N2O/c1-7-3-4-5(7)6(9)8(4)2/h4-5H,3H2,1-2H3/t4-,5+/m1/s1
