16
gdb 14442	4.31008	2.13077	1.85464	2.0244	63.65	-0.2134	0.0808	0.2941	763.505	0.131061	-383.695467	-383.689075	-383.688131	-383.725636	25.412	
C	-0.0027311759	 1.4794507588	-0.0543486843	-0.501803
C	-0.0185652102	-0.0096915753	 0.0156620117	 0.441852
O	 0.8350788886	-0.7367090379	-0.8782003531	-0.33336
C	-0.0512452984	-1.8937131008	-0.764877649	 0.057522
C	 0.5498428266	-2.7965120983	 0.3019032217	-0.075236
O	 0.5634616964	-1.9756362305	 1.4780042069	-0.265498
C	-0.291886225	-0.8839234937	 1.2332101116	 0.039274
C	-1.1124657291	-1.0597454315	-0.0135768051	-0.262283
H	 0.9938235083	 1.8614857185	 0.1924227955	 0.138155
H	-0.2654594554	 1.8282409172	-1.0582654636	 0.130495
H	-0.716195037	 1.9028947173	 0.6588786125	 0.125065
H	-0.2797457558	-2.3460835038	-1.7303438153	 0.088229
H	-0.0551325512	-3.7019204519	 0.4660021718	 0.092409
H	 1.5776847809	-3.0836278641	 0.0614629874	 0.119939
H	-0.7034095675	-0.442317016	 2.1331966732	 0.106638
H	-2.1867105454	-1.039629198	-0.1385137219	 0.098603
197.0915	212.0118	263.4587	289.0581	421.7584	535.6661	616.5475	715.1691	753.687	782.3373	838.6679	867.8627	883.4481	918.1156	924.074	972.2928	995.8044	1015.4047	1047.282	1080.1888	1108.1525	1109.8789	1173.8307	1198.2898	1229.4612	1266.9765	1279.5361	1311.4206	1366.4518	1405.794	1453.3332	1472.5703	1498.5558	1500.1828	2986.1046	3033.7268	3087.2545	3100.143	3113.7493	3115.1893	3188.3999	3200.1975
CC12OC3COC1C23	C[C@@]12O[C@H]3CO[C@@H]1[C@@H]23	
InChI=1S/C6H8O2/c1-6-4-3(8-6)2-7-5(4)6/h3-5H,2H2,1H3	InChI=1S/C6H8O2/c1-6-4-3(8-6)2-7-5(4)6/h3-5H,2H2,1H3/t3-,4-,5+,6-/m0/s1
