18
gdb 32246	2.57594	1.55953	0.97841	1.6156	84.66	-0.1863	0.0183	0.2046	1188.2205	0.149598	-402.0087	-402.000443	-401.999499	-402.041296	32.188	
C	-0.0626392674	 1.3608340992	-0.0918374192	-0.246916
O	-0.0115913983	-0.0464518287	 0.015459312	-0.285127
C	 0.6347775386	-0.5884511068	 1.0957106746	 0.355292
C	 1.2447140667	 0.1397354656	 2.1092828437	-0.245977
C	 1.8878362819	-0.5213181717	 3.1605127769	-0.132747
C	 1.9179372188	-1.9083013672	 3.1861588787	-0.110361
C	 1.3049107075	-2.6396324321	 2.1692564727	-0.179955
C	 0.6536022865	-2.000867311	 1.1151293824	 0.217564
N	-0.0196835739	-2.7033535752	 0.1152603914	-0.591063
H	 0.9419582613	 1.7994670775	-0.1548442356	 0.123677
H	-0.6079731778	 1.5791062003	-1.0118568456	 0.131379
H	-0.5936879629	 1.8114033102	 0.756637397	 0.126098
H	 1.2281150482	 1.2221281115	 2.0884470231	 0.091745
H	 2.359788732	 0.0571109672	 3.946706437	 0.085835
H	 2.4167942807	-2.4315078262	 3.9947692153	 0.086311
H	 1.3233737422	-3.7255889148	 2.1895191212	 0.078196
H	 0.3561441204	-3.6201504023	-0.0773572098	 0.242388
H	-0.1645666345	-2.1630353555	-0.7253097858	 0.25366
84.3998	176.277	235.7654	246.2401	306.3526	334.1588	342.1759	461.8567	508.3901	517.3151	569.4022	595.8392	634.6991	744.9504	757.306	770.3504	849.3704	857.78	891.2293	937.1192	1050.6331	1076.1263	1099.3846	1166.1116	1179.0212	1182.6938	1211.6428	1256.2284	1308.0652	1330.1932	1384.3268	1477.7216	1488.6431	1494.4687	1508.6232	1545.8756	1624.6968	1634.8127	1655.7835	3002.8935	3061.1999	3129.4991	3162.3923	3179.8429	3194.5208	3208.4446	3563.4397	3667.5794
COC1=CC=CC=C1N	COc1ccccc1N	
InChI=1S/C7H9NO/c1-9-7-5-3-2-4-6(7)8/h2-5H,8H2,1H3	InChI=1S/C7H9NO/c1-9-7-5-3-2-4-6(7)8/h2-5H,8H2,1H3
