20
gdb 52406	8.07298	0.46992	0.45998	4.442	79.62	-0.2609	0.0228	0.2836	2319.8652	0.169174	-440.256133	-440.245956	-440.245012	-440.293912	34.368	
N	-0.1384923589	 1.2633993162	 0.3112797855	-0.437671
C	-0.0835352257	 0.0049604067	 0.2289751894	 0.129313
O	-1.203066363	-0.7072108737	 0.0063816128	-0.181718
C	-1.0398043741	-2.1125805273	-0.1907676554	-0.07799
C	-2.4101337742	-2.7642988928	-0.0915452545	-0.189768
C	-2.3550448473	-4.277740888	-0.3364629306	-0.228326
C	-3.7151608686	-4.9199837774	-0.2086673154	 0.098993
C	-3.9030822052	-6.2643680999	 0.3480667614	-0.181444
O	-4.2078530141	-5.1021155111	 1.1216665391	-0.23417
H	 0.7884606869	 1.6383377467	 0.5015698915	 0.227992
H	 0.8185984525	-0.6153597106	 0.3328449366	 0.080951
H	-0.5919225063	-2.297008862	-1.1778390795	 0.106532
H	-0.3597724161	-2.5232874222	 0.569092897	 0.106441
H	-2.8293040362	-2.5670208813	 0.9006032154	 0.132871
H	-3.0772458605	-2.2875470548	-0.819222825	 0.116705
H	-1.9583212945	-4.4834503573	-1.3401146079	 0.10337
H	-1.6749739844	-4.7519413165	 0.3815586493	 0.105308
H	-4.4698550846	-4.5529938762	-0.9078195361	 0.093852
H	-4.7601330174	-6.8642599972	 0.0451779901	 0.116514
H	-3.0348985483	-6.8324158913	 0.6807515563	 0.112247
24.9446	54.4511	81.2372	89.1556	102.6761	159.6852	215.1907	282.0188	369.9692	430.3886	509.6645	636.5251	754.3819	796.6895	823.0261	858.6043	886.7357	948.4726	1000.2713	1031.3745	1045.1432	1056.8533	1073.1094	1115.8043	1141.2741	1158.661	1162.583	1180.5891	1226.128	1269.1538	1296.7604	1298.3612	1312.144	1322.4249	1370.5108	1410.8511	1435.1091	1450.656	1473.425	1498.3207	1519.6994	1531.7095	1749.2868	2988.7728	3013.8331	3016.6376	3030.4128	3044.2104	3057.9426	3081.1749	3088.6886	3097.9122	3167.5282	3517.664
N=COCCCC1CO1	[NH][CH]OCCC[C@H]1CO1	
InChI=1S/C6H11NO2/c7-5-8-3-1-2-6-4-9-6/h5-7H,1-4H2	InChI=1S/C6H11NO2/c7-5-8-3-1-2-6-4-9-6/h5-7H,1-4H2/t6-/m0/s1
