16
gdb 57122	3.19368	0.7914	0.66759	3.5707	84.6	-0.265	-0.0525	0.2124	1612.1901	0.121138	-400.761984	-400.751942	-400.750998	-400.79841	34.228	
C	 0.6882660182	 1.9702163271	-0.0729530743	-0.385288
C	 0.3893865119	 0.4678397925	 0.0734230804	-0.282747
C	 0.8263122796	-0.2959092818	-1.0833989068	 0.148644
C	 1.2092516734	-0.9161090558	-2.0483005377	-0.022421
C	 1.6378444162	-1.6198793445	-3.1364215232	 0.209646
N	 2.0021026548	-2.2216542779	-4.0611971539	-0.334202
C	 0.969121969	-0.1082337266	 1.403836275	 0.391617
C	 0.9001726672	-1.6069339026	 1.589994257	-0.481211
O	 1.4109050847	 0.6394588436	 2.2371214817	-0.273797
H	 1.7624440835	 2.1395323888	-0.172130624	 0.144894
H	 0.1850787455	 2.3737408681	-0.9540360168	 0.13078
H	 0.3434703208	 2.4972002788	 0.8177572994	 0.145908
H	-0.700080101	 0.3269089387	 0.1646174119	 0.145596
H	 1.6136481588	-2.0944940806	 0.9172718781	 0.166173
H	 1.1444841248	-1.8581761856	 2.6223280054	 0.152293
H	-0.0917396172	-1.9909594823	 1.3300484878	 0.144117
31.3514	69.234	108.544	120.0699	194.2754	202.7763	245.6433	270.364	380.2525	415.5624	474.6321	522.3525	569.9529	588.8457	607.824	699.9912	765.1037	946.4179	960.1348	1028.8198	1080.1607	1096.9794	1180.9305	1194.0899	1261.8665	1309.2508	1385.4703	1409.3816	1459.5053	1472.0153	1485.642	1493.2015	1829.9807	2260.8441	2394.8197	2984.7571	3045.5871	3064.1559	3108.1091	3142.3915	3153.0469	3159.0215
CC(C#CC#N)C(C)=O	C[C@@H](C#CC#N)C(=O)C	
InChI=1S/C7H7NO/c1-6(7(2)9)4-3-5-8/h6H,1-2H3	InChI=1S/C7H7NO/c1-6(7(2)9)4-3-5-8/h6H,1-2H3/t6-/m0/s1
