21
gdb 79912	2.33267	1.56798	1.31052	1.7354	83.68	-0.217	0.0142	0.2312	1105.2558	0.182549	-387.091863	-387.083035	-387.082091	-387.124637	34.892	
C	-0.2571094297	 1.5551938705	 0.0022616969	-0.405482
C	 0.0180542796	 0.0412334865	-0.0015576461	-0.07762
C	 0.7901470656	-0.4521913267	-1.2292488751	-0.117973
C	 2.2342374992	-0.0499747654	-1.4087327167	 0.124724
O	 2.8402717656	 1.015907473	-0.7413263348	-0.424233
C	 1.9183853891	-1.3664921833	-0.7293354944	-0.146125
C	 1.83085661	-1.2832098625	 0.7571776406	-0.212963
C	 0.8413336382	-0.4803667219	 1.1754566838	 0.29689
C	 0.497171105	-0.1400268317	 2.59174282	-0.494866
H	 0.6748573336	 2.1216200086	-0.0584677366	 0.137833
H	-0.8715483628	 1.8300274675	-0.860745815	 0.114995
H	-0.8000368805	 1.8596477705	 0.9031837992	 0.107032
H	-0.9576616868	-0.4692858885	 0.0294228911	 0.080827
H	 0.2260691247	-0.6983031821	-2.1224560801	 0.080674
H	 2.6148638751	-0.114689606	-2.4236588149	 0.102321
H	 2.8011275103	 0.8171079755	 0.2035550441	 0.277539
H	 2.1915905013	-2.301589934	-1.2067117571	 0.083789
H	 2.5217403149	-1.8019947372	 1.4141497854	 0.090977
H	 1.1533076065	-0.6549321377	 3.2987250074	 0.123698
H	 0.5740389782	 0.9373145151	 2.7824722265	 0.13134
H	-0.5391132672	-0.4204372303	 2.821766736	 0.126622
122.6495	173.7599	187.8687	225.3567	259.2932	301.141	318.9956	348.3175	366.6634	534.9301	537.8408	588.1189	685.1857	728.2046	752.3737	762.0947	795.4751	873.3646	906.3771	975.1623	1002.4218	1012.1763	1026.6835	1037.1024	1060.5256	1069.5729	1102.6096	1111.5108	1125.6864	1194.8642	1202.6912	1283.1638	1306.6506	1317.3993	1339.2915	1344.9481	1368.4035	1409.2719	1415.5542	1445.3087	1478.1188	1487.6537	1500.8627	1510.507	1692.5163	2970.8399	3017.6206	3039.2026	3064.33	3100.2972	3110.2073	3131.488	3152.4354	3156.7596	3168.9522	3181.7857	3746.9465
CC1C2C(O)C2C=C1C	C[C@H]1[C@H]2[C@@H](O)[C@H]2C=C1C	
InChI=1S/C8H12O/c1-4-3-6-7(5(4)2)8(6)9/h3,5-9H,1-2H3	InChI=1S/C8H12O/c1-4-3-6-7(5(4)2)8(6)9/h3,5-9H,1-2H3/t5-,6+,7-,8+/m1/s1
