16
gdb 15662	3.48366	1.88606	1.28885	2.856	67.65	-0.2231	-0.0513	0.1718	931.4506	0.13038	-383.760094	-383.752442	-383.751498	-383.792611	27.593	
C	-0.0518134827	 1.4193982958	 0.0930501098	-0.245398
O	-0.0049260769	 0.0216117748	-0.1477409192	-0.245602
C	-1.2440368864	-0.6327483112	-0.0122826842	 0.023198
C	-1.1702532766	-2.0424778186	-0.6243875365	-0.301907
C	-1.7364148449	-2.9428603859	 0.4432483991	-0.052853
C	-1.9966060496	-2.3063986941	 1.5924510323	-0.164872
C	-1.658631293	-0.8736145284	 1.4668345221	 0.36496
O	-1.6839025129	-0.0294718071	 2.334204675	-0.334193
H	 0.9534112449	 1.8019135095	-0.0993691723	 0.123027
H	-0.75806609	 1.9126314069	-0.5936966224	 0.100067
H	-0.3438298061	 1.6465155154	 1.1224197534	 0.146321
H	-2.0446989005	-0.0419819924	-0.4891405174	 0.086831
H	-1.7148473004	-2.1328999822	-1.5702281903	 0.119598
H	-0.1237626679	-2.290373838	-0.8368076219	 0.143133
H	-1.8944911917	-4.0022906845	 0.2694026778	 0.11896
H	-2.3762831054	-2.7398323098	 2.5088177145	 0.118729
49.649	128.5298	196.7274	251.096	264.3121	345.6093	415.4731	487.5149	612.4818	677.1081	754.1414	778.0776	833.2625	930.2164	957.2619	999.1661	1034.3341	1052.5332	1114.0177	1151.4921	1176.1647	1182.4429	1185.1101	1240.2983	1267.4704	1312.7946	1362.1933	1378.996	1467.7242	1476.6123	1482.9823	1519.9321	1648.3289	1808.3052	2958.7504	2982.518	3043.8809	3078.4808	3083.011	3127.6983	3187.6473	3226.0341
COC1CC=CC1=O	CO[C@H]1CC=CC1=O	
InChI=1S/C6H8O2/c1-8-6-4-2-3-5(6)7/h2-3,6H,4H2,1H3	InChI=1S/C6H8O2/c1-8-6-4-2-3-5(6)7/h2-3,6H,4H2,1H3/t6-/m0/s1
