13
gdb 130021	5.1332	1.31312	1.0526	7.6427	67.63	-0.2392	-0.031	0.2082	1033.7807	0.09107	-448.898127	-448.891237	-448.890293	-448.929377	26.237	
N	 0.0025044487	 1.271327269	 0.0567306442	-0.559945
C	-0.0240449165	-0.0735081214	 0.0164207146	 0.401023
N	-1.1342699521	-0.7593409325	 0.0162076792	-0.365141
C	-0.7252963176	-2.0870747449	-0.0012829394	 0.38575
N	-1.3079693421	-3.2486617504	-0.0111655553	-0.225696
O	-0.2383300519	-4.1491104561	-0.032778986	-0.173286
N	 0.994824474	-3.5039238269	-0.0356656175	-0.208436
C	 0.688985446	-2.2506546177	-0.015936003	 0.334598
C	 1.2939857951	-0.8845604747	-0.0039629989	-0.470576
H	 0.8586772127	 1.7807944206	-0.0652008267	 0.274563
H	-0.8686718481	 1.7734014767	 0.0007579834	 0.281761
H	 1.8944028474	-0.6563419302	-0.8906311739	 0.160894
H	 1.9059874746	-0.6761436016	 0.8793090595	 0.164492
142.0831	156.7505	264.9938	329.0284	378.6517	468.347	536.9261	569.5395	591.4193	602.4881	734.9243	762.0616	811.9706	828.7306	859.0832	867.2774	961.0209	1046.2437	1100.6806	1151.5294	1226.0558	1242.759	1399.2385	1418.9445	1445.9107	1583.1855	1605.1798	1674.2386	1696.9869	3058.3398	3099.9091	3613.8096	3746.8605
NC1=NC2=NON=C2C1	NC1=Nc2nonc2C1	
InChI=1S/C4H4N4O/c5-3-1-2-4(6-3)8-9-7-2/h1H2,(H2,5,6,8)	InChI=1S/C4H4N4O/c5-3-1-2-4(6-3)8-9-7-2/h1H2,(H2,5,6,8)
