17
gdb 78259	3.1113	1.29757	1.12391	2.5026	68.61	-0.2451	-0.041	0.2041	1099.0743	0.134751	-458.92597	-458.917537	-458.916593	-458.959468	31.486	
O	 0.0099875793	 1.2372747995	-0.0710148903	-0.420625
C	-0.0178048027	-0.1422622282	 0.1632383152	 0.078505
C	-0.5923843008	-0.7496441889	 1.4105782574	-0.164141
C	-1.3073379916	-0.8790541621	 0.0525242215	-0.080759
C	-2.4800018552	 0.0040803772	 0.5418064902	-0.153418
C	-3.7778875497	-0.7462253503	 0.6100166767	 0.143756
O	-3.942421339	-1.7591169483	 1.2567659989	-0.279128
C	-1.7372669785	 0.1229947408	 1.9514447489	 0.141964
O	-2.4111949743	-0.3803239099	 3.0617062694	-0.431769
H	 0.6859789474	 1.6238255556	 0.4957408694	 0.291833
H	 0.8324462201	-0.6871328421	-0.24907617	 0.099067
H	-0.0710377441	-1.493899904	 2.0016149927	 0.095373
H	-1.4296504218	-1.7432015085	-0.5894225308	 0.099962
H	-2.6054242247	 0.9399055521	-0.0066336695	 0.094611
H	-4.6183251957	-0.3262513155	 0.0174404947	 0.09446
H	-1.4580240324	 1.1517487899	 2.1932862954	 0.093171
H	-2.8259712863	-1.2167953373	 2.7987439302	 0.297137
52.1935	106.5596	190.6063	224.4601	256.3394	304.8815	353.8704	417.2181	505.6657	571.951	626.4836	676.6982	727.2194	767.0391	804.0904	895.6216	916.172	974.9697	997.8536	1011.4141	1029.2092	1062.8606	1083.411	1089.0534	1149.6133	1199.7172	1207.4162	1239.7253	1267.0912	1291.826	1306.2542	1333.4224	1351.395	1427.0264	1445.7855	1464.842	1787.0498	2904.008	3073.694	3092.237	3097.9721	3176.2701	3186.5194	3693.0844	3807.8652
OC1C2C1C(C=O)C2O	O[C@H]1[C@@H]2[C@H]1[C@@H](C=O)[C@H]2O	
InChI=1S/C6H8O3/c7-1-2-3-4(5(2)8)6(3)9/h1-6,8-9H	InChI=1S/C6H8O3/c7-1-2-3-4(5(2)8)6(3)9/h1-6,8-9H/t2-,3-,4-,5-,6-/m1/s1
