16
gdb 57168	3.21364	1.22264	0.89066	3.5219	76.23	-0.2477	-0.0454	0.2023	1232.3101	0.123014	-434.078266	-434.068756	-434.067812	-434.113083	34.289	
C	-1.0968486364	 1.1880111174	-0.2312897212	-0.35331
N	-0.2400016004	 0.0220800632	 0.0135019885	-0.19222
C	-0.1897843281	-0.4333385549	 1.3777290735	 0.485545
N	 0.594522726	-1.5042661075	 1.6099363205	-0.552319
O	-0.8325919084	 0.1440553423	 2.2345607405	-0.408266
C	 0.4396893846	-0.5416253539	-1.0532160585	 0.310337
N	 1.2165153387	-1.5657254916	-0.947057708	-0.559431
C	 0.2307975133	 0.0916878139	-2.331578167	 0.243255
C	 0.1159742857	 0.5547173561	-3.4358898741	-0.428937
H	-0.5145282849	 2.0224608548	-0.6300241842	 0.134947
H	-1.8948707201	 0.9437448316	-0.9369493804	 0.13491
H	-1.5275561845	 1.4663507414	 0.7270843904	 0.18015
H	 1.1061193833	-1.9396248969	 0.8462762783	 0.292212
H	 0.6321394265	-1.8241740319	 2.5616854688	 0.260425
H	 1.6088679122	-1.808461848	-1.8512258086	 0.236468
H	 0.0093089026	 0.9695896541	-4.4085762584	 0.216232
54.9069	69.6271	122.3847	162.8149	216.6556	299.4828	337.0811	362.2813	392.6898	440.0643	480.059	564.6052	642.769	663.1429	669.5958	687.7746	736.9155	740.709	778.7537	803.5879	907.5691	1075.5375	1150.3702	1160.3086	1221.6638	1247.2152	1350.8051	1404.9464	1458.3731	1506.2498	1507.362	1590.81	1641.2444	1805.1951	2226.2305	3053.0333	3115.0071	3187.3832	3412.0315	3496.0244	3545.0198	3708.6475
CN(C(N)=O)C(=N)C#C	CN(C(=O)N)C(=N)C#C	
InChI=1S/C5H7N3O/c1-3-4(6)8(2)5(7)9/h1,6H,2H3,(H2,7,9)	InChI=1S/C5H7N3O/c1-3-4(6)8(2)5(7)9/h1,6H,2H3,(H2,7,9)
