12
gdb 5030	3.55554	2.3698	1.42377	4.4578	59.82	-0.2245	-0.0423	0.1822	786.0709	0.085867	-414.703439	-414.697066	-414.696121	-414.73386	24.188	
N	 0.019617167	 1.3750244197	 0.1372318022	-0.579915
C	-0.0526248859	 0.0077066368	 0.0439118461	 0.141199
C	-1.1776072491	-0.738951573	 0.0120171344	-0.041598
O	-1.1234883674	-2.1086824517	-0.0197089427	-0.161037
C	 0.0869210209	-2.677502274	-0.0169184622	 0.128604
N	 1.2215750617	-2.0890825609	-0.005861448	-0.314648
C	 1.2559720728	-0.6908714886	 0.0069797693	 0.378842
O	 2.294986605	-0.0586473357	-0.0215754898	-0.362319
H	 0.9439035999	 1.7205522831	-0.0875608786	 0.272694
H	-0.7486525906	 1.9229219559	-0.2152676599	 0.2535
H	-2.1958707192	-0.3759064915	 0.0143073513	 0.133994
H	 0.0037401049	-3.7604004302	-0.029212892	 0.150683
121.2604	287.1331	317.11	383.1901	421.9306	507.0935	532.3012	545.379	571.1096	613.2749	762.4464	814.9667	822.8686	904.2466	960.1299	1061.8827	1073.0355	1161.1513	1272.3234	1349.5672	1418.716	1429.8533	1607.0625	1634.833	1697.3672	1769.2628	3188.9445	3231.203	3551.5648	3679.9905
NC1=COC=NC1=O	Nc1cocnc1=O	
InChI=1S/C4H4N2O2/c5-3-1-8-2-6-4(3)7/h1-2H,5H2	InChI=1S/C4H4N2O2/c5-3-1-8-2-6-4(3)7/h1-2H,5H2
