15
gdb 51040	2.19521	1.40901	1.00745	4.4069	67.27	-0.2605	-0.0211	0.2394	1164.5218	0.111569	-453.93693	-453.928339	-453.927395	-453.970941	29.978	
O	 0.0467893317	-0.0389344601	 0.1070209697	-0.252443
C	 0.013648378	 1.1508816063	 0.1019508458	 0.165241
O	 1.1352623713	 1.8958330235	-0.0897931531	-0.232503
C	 1.0114832486	 3.3159512366	-0.0147766214	 0.253907
C	 0.8471288957	 3.8748929212	 1.4339938079	-0.213102
N	 2.3068704803	 4.0859149769	 1.4935280498	-0.308497
C	 2.4312665929	 3.9445840424	 0.0270457107	-0.202464
C	 0.0906233027	 3.8282989242	-1.028200512	 0.244294
N	-0.6386367577	 4.2508818914	-1.8190688243	-0.323677
H	-0.8985786485	 1.759059351	 0.2386694352	 0.105029
H	 0.2333716844	 4.7840807506	 1.4496241963	 0.12563
H	 0.4564695884	 3.1605745334	 2.1659488972	 0.13264
H	 2.5984618592	 4.9800233392	 1.8687288233	 0.235826
H	 3.223037935	 3.2678767533	-0.3047481508	 0.145367
H	 2.4803938879	 4.88244236	-0.5385861643	 0.124751
73.9932	112.3125	130.2424	160.1515	184.1464	240.8089	368.621	414.8834	504.9261	546.5292	563.5463	662.5582	735.7135	916.0787	922.9171	945.5073	1006.8692	1037.8606	1040.207	1074.6271	1120.8341	1134.1822	1150.1327	1206.3875	1248.3971	1276.6058	1362.2082	1382.8537	1435.1725	1491.502	1514.2921	1878.1392	2354.972	2980.9463	3022.0216	3034.6957	3079.3741	3101.7121	3556.217
O=COC1(CNC1)C#N	O=COC1(CNC1)C#N	
InChI=1S/C5H6N2O2/c6-1-5(9-4-8)2-7-3-5/h4,7H,2-3H2	InChI=1S/C5H6N2O2/c6-1-5(9-4-8)2-7-3-5/h4,7H,2-3H2
