15
gdb 51146	3.22576	1.24298	0.9865	2.8502	69.38	-0.2675	0.0001	0.2676	1162.9918	0.11154	-453.895562	-453.887518	-453.886574	-453.929199	29.197	
N	-0.1569021259	 1.32452764	-0.0781664442	-0.435557
C	-0.067889532	 0.0717444408	-0.0215021491	 0.115542
O	-1.2051365796	-0.6610023957	 0.1689583516	-0.21801
C	-1.0470273726	-2.026810792	 0.1210210162	 0.291581
C	-1.230737535	-2.8554586744	-1.1568076721	-0.350167
C	-2.087027809	-3.1066435353	 0.0400228499	-0.000681
O	-1.3445660118	-3.925508132	 0.9889757738	-0.2695
C	-0.4226734737	-2.8953141471	 1.1736866116	 0.396511
N	 0.5286304695	-2.7641043662	 1.97328532	-0.556749
H	 0.7666060767	 1.7344392109	-0.2021672336	 0.237611
H	 0.8351734426	-0.5434180923	-0.0904259343	 0.118543
H	-1.7052297369	-2.2881358534	-1.9522630049	 0.14579
H	-0.4969803614	-3.5930018961	-1.4661967083	 0.138439
H	-3.1640372534	-3.0911729382	 0.121541278	 0.146306
H	 0.6322881426	-3.5760619989	 2.5834714154	 0.24034
46.3871	95.5788	139.7265	197.5855	291.983	382.7143	443.6599	458.8035	534.577	640.2381	748.7213	783.3779	826.1552	858.0158	870.3509	913.4478	929.8417	978.6265	1003.8849	1023.6662	1035.3606	1042.6039	1071.8632	1080.735	1171.847	1259.165	1276.0988	1286.5197	1405.6337	1421.4174	1480.0829	1752.7437	1843.5803	3075.2226	3124.262	3221.9733	3235.0141	3487.3893	3521.4663
N=COC12CC1OC2=N	[NH][CH]O[C@]12C[C@H]1O[C]2[NH]	
InChI=1S/C5H6N2O2/c6-2-8-5-1-3(5)9-4(5)7/h2-3,6-7H,1H2	InChI=1S/C5H6N2O2/c6-2-8-5-1-3(5)9-4(5)7/h2-3,6-7H,1H2/t3-,5-/m1/s1
