19
gdb 69396	3.97342	1.0923	0.97275	3.1563	82.16	-0.24	-0.0238	0.2162	1248.9739	0.158784	-385.89988	-385.891449	-385.890505	-385.933131	32.16	
C	-0.0395311598	 1.5640374632	-0.0452678588	-0.48824
C	 0.0214853633	 0.0554827049	-0.0060421588	 0.322585
C	-0.864879279	-0.741097496	 0.9320747721	-0.322819
C	 0.6354791999	-0.7484952393	 1.135420538	-0.115204
C	 1.4722387882	-1.8843581452	 0.5359816978	-0.125689
C	 1.1182951628	-3.2522216401	 1.0988275905	 0.158696
O	 1.9229232525	-4.0646724829	 1.4758363701	-0.253531
C	 1.1674048992	-1.7751838892	-0.9513812624	-0.110483
C	 0.4107812886	-0.7109484473	-1.2292289916	-0.137946
H	 0.9109615787	 1.9939363908	-0.3797439198	 0.12298
H	-0.8221359307	 1.9106232331	-0.7303374645	 0.121291
H	-0.2643004885	 1.9739819765	 0.944096262	 0.118867
H	-1.4398016768	-0.1861781683	 1.6673305098	 0.112687
H	-1.3671581789	-1.6175819846	 0.5387725131	 0.115774
H	 1.0170556171	-0.2476719738	 2.0175168629	 0.095404
H	 2.5429307768	-1.7429856798	 0.7273783985	 0.099466
H	 0.0264013786	-3.4635538421	 1.1359665508	 0.075049
H	 1.5327240775	-2.501389909	-1.6680357744	 0.109896
H	 0.0916095204	-0.4152922308	-2.2232422953	 0.101217
58.2976	122.1609	203.3347	209.0395	261.3343	335.4206	371.3863	409.5101	472.9294	532.8248	613.2708	738.1368	760.9891	778.4175	823.3394	909.4194	924.9214	930.3882	956.3439	976.5995	982.5622	1045.3329	1065.6438	1077.7712	1087.2182	1102.3962	1119.1596	1142.3685	1245.4236	1272.0987	1281.5352	1291.0954	1349.5283	1401.7844	1419.8673	1425.6488	1480.5976	1489.6024	1500.7869	1660.1628	1824.9912	2882.3917	3026.0407	3036.5494	3086.0795	3103.381	3125.4077	3176.7355	3182.3956	3211.1352	3214.2855
CC12CC1C(C=O)C=C2	C[C@]12C[C@H]1[C@@H](C=O)C=C2	
InChI=1S/C8H10O/c1-8-3-2-6(5-9)7(8)4-8/h2-3,5-7H,4H2,1H3	InChI=1S/C8H10O/c1-8-3-2-6(5-9)7(8)4-8/h2-3,5-7H,4H2,1H3/t6-,7+,8+/m1/s1
