16
gdb 107381	3.32876	1.25667	1.02939	5.4923	64.96	-0.2515	0.0492	0.3007	1134.5565	0.124561	-475.045006	-475.036958	-475.036013	-475.077872	30.193	
O	-0.0543271418	 1.4152732796	 0.2058171802	-0.422969
C	 0.0335541795	 0.021006373	-0.0596290659	-0.165001
C	-1.3644957194	-0.5206624356	-0.0459940861	 0.34215
C	-2.0584834417	-1.0010739442	 1.2216292844	-0.358411
C	-1.7511454883	-1.9654028942	 0.1046412441	 0.032949
O	-2.7726038657	-2.2397429859	-0.8282516768	-0.243466
C	-3.1104847335	-1.0777277978	-1.4965980547	 0.46931
O	-4.022176675	-1.0034893115	-2.2686825931	-0.383466
N	-2.2285714972	-0.09416294	-1.104391028	-0.416506
H	 0.8102266478	 1.8080183515	 0.0525465189	 0.294426
H	 0.4853609287	-0.1688313793	-1.0443947513	 0.103952
H	 0.6360544459	-0.5003750896	 0.7001919816	 0.092196
H	-1.4470176022	-1.08871169	 2.1131211287	 0.127046
H	-3.0905466564	-0.713348634	 1.3879704887	 0.134235
H	-1.0502924286	-2.7825494215	 0.2199763118	 0.122164
H	-2.4549021422	 0.8728726697	-1.2668947326	 0.271393
79.6817	132.8093	163.0947	251.0724	291.3841	370.9352	403.0144	460.9099	481.3749	510.206	675.7754	710.05	769.508	785.0957	872.7964	897.1149	927.2352	972.1915	1014.9208	1028.6648	1050.8004	1074.5964	1096.4741	1149.1085	1208.6797	1230.6675	1243.2295	1280.2199	1345.0244	1377.3965	1409.807	1461.018	1485.1105	1509.4088	1900.0172	2978.1869	3017.5066	3135.8717	3195.0531	3232.0277	3667.4974	3830.5568
OCC12CC1OC(=O)N2	OC[C@]12C[C@H]1OC(=O)N2	
InChI=1S/C5H7NO3/c7-2-5-1-3(5)9-4(8)6-5/h3,7H,1-2H2,(H,6,8)	InChI=1S/C5H7NO3/c7-2-5-1-3(5)9-4(8)6-5/h3,7H,1-2H2,(H,6,8)/t3-,5-/m1/s1
