21
gdb 118348	2.71465	0.93255	0.83808	2.6257	76.12	-0.2525	-0.0347	0.2178	1499.5197	0.179254	-461.361047	-461.350225	-461.349281	-461.397653	37.781	
C	-0.8191581908	 1.3390874873	-0.3500136038	-0.231345
O	-0.1181456831	 0.1423078893	-0.0987487902	-0.245939
C	 0.4311760671	-0.4261094909	-1.2684602072	-0.069808
C	 1.1395341264	-1.7381224803	-0.8903450591	-0.127785
C	 0.152668091	-2.6214084433	-0.1445607233	 0.166647
O	-0.4171197479	-3.5735045906	-0.6305883054	-0.270702
C	 1.7386505272	-2.419044426	-2.1428330759	 0.12978
C	 2.635536262	-3.61178977	-1.7959656875	-0.419415
O	 0.7245498285	-2.7697571017	-3.0715939295	-0.443505
H	-0.1622102761	 2.1102626707	-0.7817187264	 0.108157
H	-1.6618494188	 1.1798279587	-1.0399227878	 0.112085
H	-1.205700108	 1.6985193141	 0.6063975501	 0.130549
H	-0.348704879	-0.6372266576	-2.0144578107	 0.118384
H	 1.1578149152	 0.2611444143	-1.7333217383	 0.094651
H	 1.9409983839	-1.4827063075	-0.1841792524	 0.095003
H	-0.0450037424	-2.3290935566	 0.9052564824	 0.112387
H	 2.3519382993	-1.6687140001	-2.6590150135	 0.084371
H	 3.4757447433	-3.3057025368	-1.1630045041	 0.108362
H	 2.0738189751	-4.3900135155	-1.2710247849	 0.129437
H	 3.0364706113	-4.0441696721	-2.7162849995	 0.127079
H	 0.1341489558	-3.3729554353	-2.5975165429	 0.291607
52.136	86.1153	98.9822	118.578	142.3029	221.6514	224.3787	245.473	282.9976	307.5889	336.0932	459.7037	462.5846	519.6877	593.524	769.9089	787.0447	896.1138	927.9352	966.0944	986.8488	1015.8855	1059.7452	1098.0049	1141.5913	1152.3323	1165.4446	1185.4851	1228.9764	1239.4504	1282.7583	1298.8409	1365.2664	1368.1095	1401.6498	1409.9342	1428.187	1455.4183	1479.9023	1484.7696	1493.5568	1503.151	1504.6529	1532.9308	1798.2725	2943.7797	2961.6732	2977.8157	3016.5868	3020.4934	3023.7538	3034.0772	3039.4328	3109.086	3118.9588	3124.7898	3732.805
COCC(C=O)C(C)O	COC[C@@H](C=O)[C@@H](C)O	
InChI=1S/C6H12O3/c1-5(8)6(3-7)4-9-2/h3,5-6,8H,4H2,1-2H3	InChI=1S/C6H12O3/c1-5(8)6(3-7)4-9-2/h3,5-6,8H,4H2,1-2H3/t5-,6-/m1/s1
