20
gdb 47899	2.53335	1.44398	1.04846	4.0897	81.95	-0.232	-0.0157	0.2163	1182.6218	0.173984	-403.191298	-403.183054	-403.18211	-403.224007	32.24	
O	 0.0236696636	-0.0581560484	 0.3693332328	-0.378751
C	 0.0231141821	 1.1449843096	 0.1642128429	 0.350941
N	-1.1458724488	 1.8583944612	 0.0821133691	-0.295929
C	-1.3391454593	 3.3013743481	 0.1870939291	-0.162902
C	-1.5107154856	 4.0317186008	-1.1568251211	-0.178103
C	-0.2181892776	 4.3148105533	-1.9345138764	-0.18809
C	 0.6648020157	 3.0721229408	-2.2004759109	-0.252155
C	 1.5729968581	 2.7100312296	-1.050613743	-0.046363
C	 1.2952247468	 1.9023731925	-0.0248283456	-0.154591
H	-1.9598508984	 1.2748111194	 0.2151768097	 0.24252
H	-2.2390461517	 3.458682129	 0.791173016	 0.109297
H	-0.5052459592	 3.7347686516	 0.7472018306	 0.123735
H	-2.1957205635	 3.4430716533	-1.7800467573	 0.100654
H	-2.0128232421	 4.9874779154	-0.9616675892	 0.09682
H	-0.4923959376	 4.7646296371	-2.8954506225	 0.099723
H	 0.3744897085	 5.0697093042	-1.4020925664	 0.098639
H	 0.0223938219	 2.2245165145	-2.4609429991	 0.120248
H	 1.2926559441	 3.270471477	-3.0755138555	 0.10402
H	 2.5681946744	 3.1510792145	-1.0869112123	 0.097594
H	 2.0643285684	 1.6587281265	 0.7019194491	 0.112693
87.964	156.565	192.3278	257.105	290.797	336.9169	394.6427	435.9226	475.2244	539.8609	601.2729	638.8268	728.6696	756.3251	801.7899	833.4328	844.2107	900.3982	928.4276	997.066	1012.0924	1031.2547	1062.3763	1102.8846	1143.0504	1196.9272	1223.9064	1255.9966	1294.5563	1304.4277	1341.6384	1358.5678	1384.329	1394.7874	1405.1575	1429.915	1462.1213	1478.3277	1487.4582	1490.9955	1496.2153	1701.7023	1765.9404	3019.3473	3023.9923	3039.6287	3042.272	3060.2028	3070.08	3082.7214	3093.6377	3134.7458	3180.6093	3600.4735
O=C1NCCCCC=C1	O=C1NCCCCC=C1	
InChI=1S/C7H11NO/c9-7-5-3-1-2-4-6-8-7/h3,5H,1-2,4,6H2,(H,8,9)/b5-3-	InChI=1S/C7H11NO/c9-7-5-3-1-2-4-6-8-7/h3,5H,1-2,4,6H2,(H,8,9)/b5-3-
