13
gdb 5462	3.5578	1.98734	1.27697	2.2	72.5	-0.1919	-0.0075	0.1844	885.2634	0.095701	-361.45618	-361.448981	-361.448037	-361.487304	27.397	
N	 0.0457500399	 1.4157922934	 0.1666603183	-0.619031
C	 0.0384216641	 0.0330525819	 0.0459906982	 0.115406
C	-1.0683659513	-0.7884928463	 0.0106515349	 0.187537
O	-0.6586454036	-2.108766641	-0.0298606411	-0.181641
C	 0.6870422019	-2.0987243645	-0.0308538159	-0.022912
C	 1.1788179297	-0.8309177113	 0.0155428004	-0.218853
C	-2.4333850337	-0.4850773574	 0.0125432229	 0.220366
C	-3.5995322199	-0.171938664	 0.0051570092	-0.420585
H	 0.8056835682	 1.8708153458	-0.3192052184	 0.249885
H	-0.8417584832	 1.8429447507	-0.0637602865	 0.254216
H	 1.1632222699	-3.0654087568	-0.0658078709	 0.1362
H	 2.2174998034	-0.5397799874	 0.0356607389	 0.111202
H	-4.6278490255	 0.0912376972	 0.0139307901	 0.188211
133.9275	154.2899	279.7173	311.1367	353.3603	415.2341	481.3176	523.5211	605.7842	612.4828	652.881	703.1654	712.4097	732.8907	770.1192	815.803	903.411	1041.3942	1083.2396	1156.3108	1220.9422	1272.011	1330.4297	1478.2251	1528.2775	1631.0417	1665.785	2211.2676	3251.9011	3278.5584	3503.1758	3548.0092	3645.7058
NC1=C(OC=C1)C#C	Nc1c(occ1)C#C	
InChI=1S/C6H5NO/c1-2-6-5(7)3-4-8-6/h1,3-4H,7H2	InChI=1S/C6H5NO/c1-2-6-5(7)3-4-8-6/h1,3-4H,7H2
