19
gdb 99712	1.96874	1.08943	0.73477	1.5233	81.47	-0.2515	0.0353	0.2868	1568.9235	0.155676	-422.960253	-422.949655	-422.948711	-422.997903	35.694	
C	 0.6863921989	-0.5904999316	 1.0867533836	-0.23385
O	-0.0608772233	-0.7968204706	-0.094148774	-0.234857
C	 0.6386629252	-0.4636131162	-1.283982737	-0.093752
C	 1.814184591	-1.3129359427	-1.512766669	 0.105649
C	 2.7647520655	-2.0251558458	-1.7119084062	 0.043296
C	 3.915665157	-2.8799469663	-1.962611447	-0.500315
C	-0.3682725739	-0.6025350569	-2.4141295393	 0.08604
C	-1.2115613802	 0.5266850098	-2.8107674357	-0.177975
O	-0.0810107716	 0.1343909357	-3.5966676551	-0.232828
H	 1.5906176372	-1.2127986264	 1.1110877244	 0.119378
H	 0.9849958091	 0.4639900064	 1.1953873909	 0.103098
H	 0.0384025752	-0.8632738166	 1.9226769445	 0.127465
H	 0.9615735	 0.5911211078	-1.2498186001	 0.09211
H	 4.1345426273	-2.9365744038	-3.0344596467	 0.1557
H	 4.8122274141	-2.5021159394	-1.4592896626	 0.149805
H	 3.7369584224	-3.9002126019	-1.6062531654	 0.151586
H	-0.7275122389	-1.6182804389	-2.5745875417	 0.105806
H	-2.1840835488	 0.3406731711	-3.262924511	 0.117751
H	-1.112050886	 1.4789231362	-2.2917078127	 0.115895
29.6517	52.559	82.2308	106.0354	133.4802	174.852	218.1955	274.941	310.0583	353.4656	413.1087	444.3531	495.8937	578.3048	804.6442	863.1739	884.6939	963.5442	977.1469	1051.907	1054.6318	1094.5212	1114.4188	1146.4139	1154.5249	1166.3216	1175.9871	1184.614	1220.2381	1284.8802	1293.52	1343.1135	1413.6925	1444.5222	1475.9866	1476.6769	1477.7577	1484.4302	1510.9094	1530.139	2365.7809	2957.2112	2982.2683	3029.6215	3046.8364	3087.3519	3091.4353	3092.7078	3121.0124	3124.5711	3175.6457
COC(C#CC)C1CO1	CO[C@@H](C#CC)[C@H]1CO1	
InChI=1S/C7H10O2/c1-3-4-6(8-2)7-5-9-7/h6-7H,5H2,1-2H3	InChI=1S/C7H10O2/c1-3-4-6(8-2)7-5-9-7/h6-7H,5H2,1-2H3/t6-,7+/m0/s1
