15
gdb 49930	5.2325	0.90428	0.81863	2.3603	75.52	-0.2372	-0.0273	0.2098	1324.9472	0.113746	-416.850986	-416.842931	-416.841987	-416.884742	28.563	
O	-0.0831290181	-0.0470103455	 0.2574295849	-0.316736
C	-0.0200960737	 1.1585204892	 0.1644795712	 0.147686
N	 1.1442350578	 1.8649422305	 0.0265572122	-0.06842
C	 1.2420101212	 3.3229967257	-0.1344052139	-0.19967
C	 2.7800972659	 3.6019932362	-0.0380833958	-0.192837
C	 3.3837183796	 2.2048309207	-0.1245498593	-0.175661
C	 2.4165410495	 1.2915154249	-0.0550541901	 0.0222
C	 3.2462905386	 4.5145141048	-1.0839663202	 0.269968
N	 3.6153110602	 5.2356751064	-1.9079216013	-0.315819
H	-0.9047101557	 1.8229312256	 0.186867251	 0.084052
H	 0.8563368101	 3.6295837684	-1.1114103011	 0.151331
H	 0.6810858136	 3.8461496034	 0.6423164012	 0.143368
H	 3.0278741127	 4.0660049924	 0.9261363418	 0.143687
H	 4.4441241136	 2.018825565	-0.1901415364	 0.135919
H	 2.4811927246	 0.2139215524	-0.0408747141	 0.170933
32.262	129.0355	154.0389	227.9796	241.7537	282.842	431.4644	460.7819	562.847	592.3136	704.1871	750.4607	791.2697	856.7291	912.3476	955.0555	1002.6137	1022.5354	1027.1499	1063.3506	1119.0241	1215.5772	1247.1811	1270.0673	1309.5958	1314.2044	1352.0494	1435.5422	1445.3816	1514.8513	1682.9518	1795.9275	2361.5661	2954.3158	3011.6015	3055.4958	3112.6984	3254.6352	3275.1992
O=CN1CC(C=C1)C#N	O=CN1C[C@@H](C=C1)C#N	
InChI=1S/C6H6N2O/c7-3-6-1-2-8(4-6)5-9/h1-2,5-6H,4H2	InChI=1S/C6H6N2O/c7-3-6-1-2-8(4-6)5-9/h1-2,5-6H,4H2/t6-/m0/s1
