12
gdb 15456	3.89365	1.85144	1.26475	5.8223	65.29	-0.2708	-0.0756	0.1952	874.1134	0.085346	-377.555466	-377.54894	-377.547995	-377.586356	23.71	
N	-0.0560966026	 1.296697607	 0.0102864257	-0.529651
C	-0.0273633385	 0.0370413461	 0.003702007	 0.357089
O	 1.0964526132	-0.7510095997	-0.0080444264	-0.242662
C	 0.7327562058	-2.1316845766	-0.0125277982	-0.131596
C	-0.7636737305	-2.1377351061	-0.0022428688	-0.210336
C	-1.1990439671	-0.8713331546	 0.00717628	 0.146347
C	-2.5442874062	-0.4171367582	 0.0187545116	 0.254472
N	-3.6453676375	-0.0632889292	 0.028140674	-0.324553
H	 0.8859857614	 1.6889951946	 0.0057791244	 0.235796
H	 1.1499666991	-2.6167545181	-0.9051623363	 0.146717
H	 1.1621910535	-2.6257376848	 0.8693184475	 0.146717
H	-1.3656178005	-3.0355898304	-0.0026422303	 0.151659
145.4779	150.8717	205.1751	343.4394	400.3266	526.6749	533.9203	589.4311	755.4519	763.88	805.7061	849.9656	879.0489	952.293	990.2136	1031.3707	1091.9553	1173.6675	1198.5851	1242.1627	1343.04	1385.8939	1494.0361	1675.8925	1772.1459	2360.1438	3016.4725	3046.3976	3244.9913	3494.0553
N=C1OCC=C1C#N	[NH]C1=C([CH]CO1)C#N	
InChI=1S/C5H4N2O/c6-3-4-1-2-8-5(4)7/h1,7H,2H2	InChI=1S/C5H4N2O/c6-3-4-1-2-8-5(4)7/h1,7H,2H2
