21
gdb 106244	2.49824	1.24332	1.01663	3.5699	84.1	-0.2353	-0.0053	0.23	1281.9827	0.181039	-387.095038	-387.085611	-387.084667	-387.129307	35.43	
C	 0.0805439093	 1.5174916006	 0.178435841	-0.375386
C	-0.0990936591	 0.0136430276	-0.0742262664	-0.292451
C	 0.6422352482	-0.4643514297	-1.2935880593	 0.352132
C	 0.1941989996	-0.1679793922	-2.7387843159	-0.427574
C	 0.4951514805	-1.6540278404	-3.0644575294	 0.428241
O	 0.233127963	-2.3451399379	-4.0094883962	-0.325399
C	 0.9929146717	-1.9419917625	-1.6845164167	-0.265828
C	 2.0606923884	-0.9250369097	-1.2749903179	-0.051263
C	 3.1856937502	-0.4535505888	-2.1749997906	-0.42243
H	 1.1347119462	 1.7672198582	 0.3367913299	 0.119296
H	-0.2767032296	 2.1066284781	-0.6726949069	 0.122508
H	-0.4789821556	 1.8356221342	 1.0631757898	 0.116701
H	 0.247680079	-0.5498270264	 0.8008293728	 0.10047
H	-1.1675371618	-0.2130219027	-0.1857219952	 0.102776
H	-0.8830968803	 0.009365955	-2.8227764108	 0.126876
H	 0.7242903688	 0.6075567348	-3.2978835457	 0.116588
H	 0.8626989827	-2.8696403699	-1.1388114491	 0.102512
H	 2.3989445973	-1.1399261459	-0.2612710714	 0.093297
H	 2.8576735671	-0.2731479196	-3.2013171258	 0.131288
H	 3.6218270448	 0.4765102231	-1.7940099433	 0.120306
H	 3.9820165098	-1.203897966	-2.2133984129	 0.12734
74.859	97.6604	141.7528	179.5722	206.2645	265.1702	297.2138	345.6804	410.194	465.2689	475.6924	594.0571	608.5808	680.2155	730.4098	789.6621	832.6462	892.6647	930.3337	964.7885	979.5344	987.727	1026.1446	1055.9125	1076.4947	1106.7813	1109.7555	1138.3628	1154.8402	1203.1273	1233.1149	1252.6006	1321.3334	1343.9934	1363.1307	1409.6722	1415.7108	1448.8425	1472.4335	1482.9558	1494.428	1498.4778	1503.8642	1507.4559	1874.5133	3017.3098	3035.0593	3036.0536	3052.4773	3054.1287	3096.7219	3103.7422	3104.7797	3106.3091	3108.9693	3124.5626	3183.1286
CCC12CC(=O)C1C2C	CC[C@]12CC(=O)[C@H]1[C@H]2C	
InChI=1S/C8H12O/c1-3-8-4-6(9)7(8)5(8)2/h5,7H,3-4H2,1-2H3	InChI=1S/C8H12O/c1-3-8-4-6(9)7(8)5(8)2/h5,7H,3-4H2,1-2H3/t5-,7-,8-/m1/s1
