14
gdb 132666	3.18477	1.30951	0.92796	0.675	68.15	-0.2116	-0.0018	0.2098	1139.1226	0.101008	-481.855155	-481.84775	-481.846805	-481.886749	29.216	
O	 0.0467140182	 1.3728392452	-0.1294491791	-0.44589
C	 0.0532083902	 0.0117696352	-0.0435182748	 0.422566
C	-0.0034036059	-0.7066428654	-1.2388861798	-0.206929
C	 0.0007741966	-2.0984205849	-1.2021131004	-0.219433
C	 0.0608050609	-2.7476557839	 0.0152725293	 0.143031
F	 0.0669781303	-4.0984750115	 0.0947805688	-0.104425
C	 0.1177768851	-2.0431305246	 1.2176104484	 0.299365
O	 0.1765265848	-2.6924667828	 2.4085279249	-0.440882
C	 0.1137259662	-0.6520765	 1.1833529337	-0.375904
H	 0.0888782283	 1.7462216748	 0.7566740242	 0.298538
H	-0.049773011	-0.1700722943	-2.1779226786	 0.109883
H	-0.0422530124	-2.6855265871	-2.1120869438	 0.115226
H	 0.169211877	-3.6399868359	 2.2236215251	 0.304114
H	 0.1581838018	-0.1075581749	 2.1213171722	 0.100741
156.7978	233.739	296.6043	343.233	346.8799	372.5744	444.3714	450.7764	470.2265	514.6591	603.0065	638.7965	700.6059	747.0417	791.7345	817.9286	843.9927	917.9813	978.1285	1113.9456	1186.4529	1199.4099	1205.9416	1282.1229	1306.052	1353.4054	1415.4773	1507.6689	1553.4746	1658.0747	1669.3294	3178.7436	3199.9798	3217.5434	3792.4613	3828.3146
OC1=CC=C(F)C(O)=C1	Oc1ccc(F)c(O)c1	
InChI=1S/C6H5FO2/c7-5-2-1-4(8)3-6(5)9/h1-3,8-9H	InChI=1S/C6H5FO2/c7-5-2-1-4(8)3-6(5)9/h1-3,8-9H
