17
gdb 118615	2.00889	1.20715	0.89319	3.55	71.91	-0.2742	-0.0052	0.269	1339.4121	0.133423	-455.127215	-455.117058	-455.116114	-455.163987	33.681	
C	-0.6614981571	 0.6290888418	 0.1030512657	-0.243174
O	 0.7044421324	 0.2340042278	 0.1237846884	-0.22591
C	 1.0906406797	-0.5534474887	 1.2094417318	-0.092379
C	 0.7876279739	-2.0557516427	 1.0474791207	-0.049921
O	-0.6179023704	-2.2476502259	 1.1828877575	-0.190412
C	-1.0549310551	-3.5280535234	 1.3225633484	 0.134946
N	-2.2871294236	-3.7420724914	 1.4514844782	-0.42795
C	 1.2758528737	-2.5710695179	-0.2449377646	 0.287425
N	 1.6653638458	-3.008693669	-1.2401343376	-0.30765
H	-0.9439748068	 1.1170806782	 1.0470274408	 0.11095
H	-0.7593428859	 1.3484156642	-0.7125513339	 0.134443
H	-1.3346802017	-0.2158612418	-0.0706218694	 0.143296
H	 2.1765185337	-0.4484657514	 1.3091870182	 0.129749
H	 0.6175052687	-0.229496347	 2.1488026771	 0.114779
H	 1.3173920465	-2.5934996313	 1.8476910213	 0.131935
H	-0.24801318	-4.2713992965	 1.3096994545	 0.108956
H	-2.4644384839	-4.739154505	 1.553108393	 0.240918
48.9176	69.4478	84.1172	90.0897	125.6222	188.5001	231.4832	247.5322	329.1007	389.1748	450.9726	516.6957	641.5322	712.2746	822.4991	842.7187	907.6562	974.5869	1017.539	1039.5927	1077.0963	1129.6523	1173.8558	1182.331	1226.2874	1269.3535	1302.0903	1335.2652	1361.7141	1409.0943	1424.8893	1465.5655	1482.7724	1494.5691	1510.6283	1753.7579	2362.6171	2995.9278	3002.8702	3008.4336	3045.3711	3078.2441	3086.476	3132.7079	3524.4687
COCC(OC=N)C#N	COC[C@@H](O[CH][NH])C#N	
InChI=1S/C5H8N2O2/c1-8-3-5(2-6)9-4-7/h4-5,7H,3H2,1H3	InChI=1S/C5H8N2O2/c1-8-3-5(2-6)9-4-7/h4-5,7H,3H2,1H3/t5-/m0/s1
