19
gdb 84769	2.28407	1.53612	1.3071	2.3066	81.57	-0.2265	0.0184	0.245	1091.5855	0.158639	-382.051498	-382.042439	-382.041495	-382.084795	34.987	
C	 0.0963895035	 1.5831081169	-0.2253872801	-0.397576
C	-0.0288808532	 0.081805605	 0.0429020805	 0.014279
N	 0.5292913321	-0.6670464924	-1.0996452869	-0.244478
C	 1.5800834373	-1.2480182567	-0.6752355832	 0.056068
N	 1.945543912	-1.0435932001	 0.6490234233	-0.317715
C	 0.7592951628	-0.4542057197	 1.3189785409	 0.057575
C	 1.178999704	 0.607528295	 2.3452766587	-0.428958
C	-0.0205659729	-1.5041734319	 1.9872272986	 0.35688
C	-0.6496733008	-2.3651844802	 2.5435165752	-0.500558
H	 1.1415828893	 1.8810820472	-0.3506317755	 0.124164
H	-0.4295029087	 1.8177764022	-1.1543207621	 0.131115
H	-0.3448752149	 2.1776514236	 0.5798807688	 0.112793
H	-1.0881073771	-0.1683417234	 0.1496263394	 0.094808
H	 2.2265709595	-1.8516029322	-1.3071966182	 0.122244
H	 2.4026631907	-1.805644653	 1.1318813751	 0.241693
H	 1.7978250181	 1.3721588809	 1.8726141675	 0.127231
H	 0.3014479164	 1.0801474114	 2.7944885564	 0.129285
H	 1.7564289566	 0.1438416153	 3.1501852	 0.120602
H	-1.2125031546	-3.126194608	 3.0254851217	 0.200547
71.7383	143.9488	178.7605	259.6115	272.5598	293.2662	304.535	356.4225	430.7258	473.1384	535.7276	578.7551	621.8619	626.336	628.6063	650.546	763.5463	824.4855	874.802	916.3145	954.0624	967.6189	1044.583	1071.6424	1114.8458	1116.7335	1154.8443	1175.0008	1195.1014	1302.7842	1341.5153	1361.8614	1400.6322	1402.1164	1416.048	1478.2513	1489.134	1497.6392	1505.956	1699.4932	2225.6243	3042.2213	3050.1387	3063.0663	3115.4413	3118.8547	3123.2047	3141.6128	3175.549	3499.5272	3583.7997
CC1N=CNC1(C)C#C	C[C@H]1[N][CH]N[C@]1(C)C#C	
InChI=1S/C7H10N2/c1-4-7(3)6(2)8-5-9-7/h1,5-6H,2-3H3,(H,8,9)	InChI=1S/C7H10N2/c1-4-7(3)6(2)8-5-9-7/h1,5-6H,2-3H3,(H,8,9)/t6-,7-/m1/s1
