19
gdb 112021	3.5024	1.32138	1.15969	2.6039	76.49	-0.2355	-0.0027	0.2329	1123.1168	0.160071	-422.990706	-422.98284	-422.981895	-423.023331	30.374	
C	 0.0506733225	 1.3873390622	 0.0537665478	-0.237641
O	-0.1446671127	 0.0019688616	-0.1063810166	-0.248992
C	 0.601977848	-0.5812906494	-1.162517513	 0.125123
C	 2.0762395928	-0.7600036148	-0.8320994765	-0.11157
C	 2.5875099944	-1.9912081094	-0.8525675617	-0.048823
C	 1.6234852031	-3.1115673917	-1.1851216698	 0.039891
C	 0.8437822833	-2.749422171	-2.4748810554	-0.254342
C	-0.006285254	-1.9628661279	-1.4521300049	 0.050636
O	 0.401131973	-2.8959664973	-0.4160192071	-0.284344
H	 1.071881466	 1.637879713	 0.3762196536	 0.107447
H	-0.1616743782	 1.9388821725	-0.876525641	 0.100528
H	-0.645235225	 1.7220502866	 0.8269972583	 0.130198
H	 0.4968199574	 0.0467316266	-2.0663703436	 0.065867
H	 2.6706050781	 0.1147735108	-0.588329621	 0.09723
H	 3.632736929	-2.2023134637	-0.6512824885	 0.096237
H	 2.0291333311	-4.1160086673	-1.0511187304	 0.077226
H	 1.3709514516	-2.2082570549	-3.2627321077	 0.101433
H	 0.2918633372	-3.5981218298	-2.8826497173	 0.111113
H	-1.0916097676	-1.9051440161	-1.5607892352	 0.082782
70.4195	126.2832	188.9713	252.9309	352.1206	373.2037	384.3854	467.5489	559.2366	616.4887	730.5804	733.1941	852.2645	866.7418	891.433	935.7247	960.121	962.9021	970.4054	986.1478	996.1363	1072.7541	1106.1621	1119.031	1144.9109	1167.5001	1182.1972	1202.5699	1223.5794	1249.9691	1297.6676	1310.5204	1330.1194	1361.873	1366.3249	1400.8384	1478.0004	1485.4345	1491.3382	1509.7227	1689.278	2932.1847	2971.1636	3021.9675	3070.9238	3092.1635	3097.5333	3112.4177	3137.1857	3168.6082	3191.7908
COC1C=CC2CC1O2	CO[C@H]1C=C[C@@H]2C[C@H]1O2	
InChI=1S/C7H10O2/c1-8-6-3-2-5-4-7(6)9-5/h2-3,5-7H,4H2,1H3	InChI=1S/C7H10O2/c1-8-6-3-2-5-4-7(6)9-5/h2-3,5-7H,4H2,1H3/t5-,6+,7-/m1/s1
