16
gdb 71536	3.89358	1.07045	1.03734	7.5793	104.09	-0.1378	-0.0659	0.0719	1179.5222	0.122176	-396.821921	-396.813355	-396.812411	-396.855011	32.439	
N	 1.179672512	 1.4127144457	 0.2007712669	-0.560249
C	 0.7847802399	 0.1152090922	 0.0264754837	 0.296904
C	 0.2748049476	-0.587436733	-1.1702396035	-0.305692
C	-0.114925972	-1.8338879363	-0.2373770681	-0.157077
C	 0.4452107396	-0.9425436893	 0.9665041056	-0.078752
N	-1.0426896203	-0.8332317501	 1.3416417252	-0.302867
C	-1.4706753099	-1.6914961061	 0.3245761879	 0.118121
C	-2.7379222205	-1.8112509084	-0.2209514394	 0.181002
N	-3.8214693136	-1.9514881677	-0.6411729235	-0.391974
H	 1.1585124293	 1.8006883072	 1.1320665661	 0.262976
H	 0.9354403519	 2.0757285325	-0.5211937285	 0.263075
H	-0.5184479217	-0.1073357036	-1.7659606109	 0.114782
H	 1.0507932406	-0.9489079579	-1.8516315603	 0.142861
H	 0.2980045976	-2.7861418478	-0.5608559927	 0.099984
H	 1.0463000666	-1.2374725835	 1.8292991065	 0.086609
H	-1.5202479972	 0.052452496	 1.528705065	 0.230298
66.8543	135.2914	200.3199	239.4817	287.9208	299.0126	380.6161	431.3916	456.8479	509.1107	544.3373	580.2792	621.7342	671.2264	704.651	764.3781	818.4351	851.0537	955.6659	985.0309	1022.3236	1079.6904	1129.586	1150.8988	1200.0523	1206.5525	1232.771	1286.5234	1298.5673	1369.8696	1424.2674	1451.3846	1507.6877	1641.4024	2236.3404	2979.4074	3071.8271	3075.9387	3145.2577	3403.2622	3547.8947	3663.973
NC12CC3C1NC23C#N	N[C]1C[C@H]2[C@@H]1N[C]2C#N	
InChI=1S/C6H7N3/c7-2-6-3-1-5(6,8)4(3)9-6/h3-4,9H,1,8H2	InChI=1S/C6H7N3/c7-2-5-3-1-4(8)6(3)9-5/h3,6,9H,1,8H2/t3-,6+/m1/s1
