16
gdb 60511	2.15124	1.46581	0.92538	1.9715	70.94	-0.2881	-0.0997	0.1884	1213.5231	0.122252	-437.884165	-437.875053	-437.874108	-437.918853	32.322	
O	 0.1736579338	 1.6008103056	-0.0306161604	-0.430058
C	 0.0883371892	 0.204865151	-0.0653904902	 0.018651
C	 0.7101412165	-0.3661482757	-1.3284936397	-0.0046
C	 0.1927973147	-1.6511015024	-1.9309818702	-0.263838
C	-0.085519791	-0.3370397974	-2.608517174	-0.270409
C	 0.7621998033	-0.3737362692	 1.1720493112	 0.265292
O	 1.322525596	 0.3214068442	 1.9864059193	-0.293211
C	 0.6978746594	-1.8320335466	 1.3455809168	 0.271672
N	 0.6231505856	-2.9758189703	 1.4976268136	-0.306526
H	 0.6482772416	 1.8338193569	 0.7815999635	 0.299724
H	-0.9677102721	-0.1195175634	-0.0268657966	 0.105332
H	 1.7752504209	-0.170167857	-1.4124637224	 0.101117
H	 0.9165690358	-2.3253164547	-2.3731900925	 0.127602
H	-0.6304192001	-2.154844645	-1.4361507127	 0.127919
H	-1.0947357269	 0.0579648747	-2.5638148445	 0.126537
H	 0.4449543633	-0.1003376406	-3.5233182912	 0.124797
48.3098	83.1295	124.1859	172.2849	242.4004	291.84	309.0758	355.3128	363.7809	431.9741	542.7617	598.8587	684.7308	771.0937	832.0676	866.5275	887.5671	943.4293	968.4118	1064.487	1082.5118	1086.9977	1131.1671	1152.5734	1167.1706	1195.0023	1224.8732	1268.6526	1309.3304	1395.2371	1425.3167	1472.7388	1504.4263	1778.07	2340.6065	2943.2622	3139.7931	3143.7296	3152.0442	3219.0692	3233.0101	3714.6725
OC(C1CC1)C(=O)C#N	O[C@@H](C1CC1)C(=O)C#N	
InChI=1S/C6H7NO2/c7-3-5(8)6(9)4-1-2-4/h4,6,9H,1-2H2	InChI=1S/C6H7NO2/c7-3-5(8)6(9)4-1-2-4/h4,6,9H,1-2H2/t6-/m0/s1
