16
gdb 45811	2.81087	1.74054	1.24872	3.9145	71.26	-0.2171	-0.0064	0.2107	986.0077	0.126318	-437.906092	-437.898717	-437.897772	-437.938406	28.421	
O	 0.1860177821	 0.0874428076	 0.5502482032	-0.360715
C	 0.0210988587	 1.1389804804	-0.0115989135	 0.43785
N	-1.1874194537	 1.8018722024	 0.024835454	-0.377284
C	-1.6410444433	 2.9298268311	-0.6767953775	-0.014845
C	-0.9209798586	 3.9660558966	-1.1120669175	-0.072391
C	 0.5303193677	 4.1833562709	-0.9299793983	-0.112105
C	 1.1720704496	 3.9176835821	 0.4438204894	-0.342404
C	 1.4476917493	 3.0142894716	-0.710979228	 0.115878
O	 0.9967429913	 1.6789778399	-0.790916476	-0.242147
H	-1.8762253322	 1.2773195945	 0.5420890013	 0.264419
H	-2.7144573101	 2.9158279818	-0.8321403538	 0.116842
H	-1.4621791827	 4.7365217738	-1.64930884	 0.10197
H	 0.9419504868	 5.0078484236	-1.5019754104	 0.09578
H	 1.968799666	 4.5692937576	 0.7844960466	 0.126468
H	 0.505430133	 3.572855047	 1.2252022353	 0.142456
H	 2.4319202061	 3.0505522391	-1.1637386149	 0.120227
59.5353	111.7903	263.2836	274.8309	397.7702	463.5687	517.3774	569.7846	612.5118	665.0074	707.1073	754.5169	767.6074	800.027	824.7214	883.9949	895.4404	943.4778	1007.1893	1018.4041	1051.0727	1067.486	1127.8002	1138.9215	1184.6501	1230.6518	1256.7058	1317.2471	1394.3066	1417.9067	1450.7936	1479.0106	1492.0314	1737.5775	1834.7346	3143.5074	3161.9045	3177.4496	3180.3636	3201.2316	3234.8761	3629.1145
O=C1NC=CC2CC2O1	O=C1NC=C[C@H]2C[C@H]2O1	
InChI=1S/C6H7NO2/c8-6-7-2-1-4-3-5(4)9-6/h1-2,4-5H,3H2,(H,7,8)	InChI=1S/C6H7NO2/c8-6-7-2-1-4-3-5(4)9-6/h1-2,4-5H,3H2,(H,7,8)/t4-,5+/m0/s1
