15
gdb 20439	4.85861	2.09722	1.51699	5.3485	66.06	-0.2462	0.0099	0.2561	799.1679	0.123406	-358.855465	-358.849531	-358.848587	-358.885577	22.68	
C	 0.0123435314	 1.5306862951	-0.0436823447	-0.217547
C	 1.5184375415	 1.89796111	 0.0242584745	-0.173318
N	 2.0696712771	 0.699773662	 0.6395027062	 0.072713
N	 3.2711319963	 0.4401109183	 1.1692600889	-0.178008
N	 3.2439792035	-0.820583793	 1.528823341	-0.191903
C	 2.0281977997	-1.3605379575	 1.2174061688	-0.214951
C	 1.2567903852	-0.3796281613	 0.6380004953	 0.349967
C	-0.0496357503	-0.0299116549	-0.0059558839	-0.356482
H	-0.4960897055	 1.9345051863	 0.8358614454	 0.128992
H	-0.4716272642	 1.9497622285	-0.9276439023	 0.119688
H	 1.9612561666	 2.0488349418	-0.9662129003	 0.134604
H	 1.7256802858	 2.7796195299	 0.6335690232	 0.143418
H	 1.8000174405	-2.3909394678	 1.4348001277	 0.120454
H	-0.9187927658	-0.3918970226	 0.5483726723	 0.131614
H	-0.1136710618	-0.4516819547	-1.0160438622	 0.130758
136.4441	212.833	250.8599	429.7443	574.9651	662.229	707.2538	722.7606	747.5742	837.0704	860.5705	898.4006	918.3149	1001.2698	1010.112	1092.6737	1124.5935	1131.5997	1188.269	1207.1781	1224.9374	1264.6288	1281.5947	1299.3809	1337.2601	1342.5867	1354.7708	1476.2248	1495.0977	1499.6816	1527.1412	1582.7806	3038.5378	3049.8334	3069.7843	3096.7006	3112.932	3127.3337	3273.0762
C1CN2N=NC=C2C1	C1Cn2nncc2C1	
InChI=1S/C5H7N3/c1-2-5-4-6-7-8(5)3-1/h4H,1-3H2	InChI=1S/C5H7N3/c1-2-5-4-6-7-8(5)3-1/h4H,1-3H2
