15
gdb 14902	4.99516	1.49755	1.22299	2.3799	67.62	-0.2535	0.0152	0.2687	951.662	0.119761	-362.63624	-362.629097	-362.628153	-362.66773	26.774	
C	-0.0464685075	-1.2096205227	-0.0522269066	-0.436078
C	 0.0175160935	-0.0107867468	-0.0150839233	 0.33239
C	 0.0459361692	 1.4506868264	 0.0572748631	-0.154512
C	-0.7215924777	 1.9626640742	 1.2931969929	-0.233826
C	-0.4785987583	 3.4585770094	 1.4276286097	-0.081978
O	 0.9261367135	 3.7555159138	 1.4678566979	-0.223959
C	 1.7197682369	 2.9617168835	 0.7127037483	 0.136713
N	 1.4352166003	 1.9341502206	 0.0318980054	-0.269066
H	-0.0865721045	-2.2697831815	-0.0976268322	 0.195145
H	-0.4491097892	 1.8368973171	-0.8463603389	 0.117559
H	-1.7920554769	 1.7565546608	 1.2045880004	 0.118224
H	-0.354147452	 1.4433225499	 2.1838780966	 0.128354
H	-0.9203075762	 4.0050844333	 0.5842595208	 0.116067
H	-0.8951962088	 3.8616720598	 2.3533189182	 0.124291
H	 2.7443587878	 3.3278501921	 0.7498296376	 0.130676
84.2096	154.2743	220.555	280.0006	420.2444	441.0334	492.2329	550.7227	609.82	627.798	656.4772	782.4413	832.081	871.2475	935.8478	969.212	993.505	1049.9496	1089.5336	1110.2444	1177.7992	1227.4647	1267.6499	1313.3648	1321.9034	1369.7484	1398.3707	1414.6416	1479.5477	1509.8914	1726.4272	2243.3134	2988.8051	3025.6557	3057.0137	3103.0937	3109.6712	3158.4612	3504.5582
C#CC1CCOC=N1	C#C[C@H]1CCOC=N1	
InChI=1S/C6H7NO/c1-2-6-3-4-8-5-7-6/h1,5-6H,3-4H2	InChI=1S/C6H7NO/c1-2-6-3-4-8-5-7-6/h1,5-6H,3-4H2/t6-/m0/s1
