17
gdb 41108	3.06386	1.97635	1.78049	1.7574	74.88	-0.2267	-0.0148	0.212	841.2277	0.138207	-384.604576	-384.598549	-384.597605	-384.634379	26.732	
C	 0.0332936222	 1.5277420417	 0.2666236908	-0.163811
O	 1.4526484131	 1.4806213016	-0.1462862437	-0.362155
C	 1.1171698996	 0.3344227922	-0.961757293	 0.390069
C	 0.4414876649	 0.7572120977	-2.2828253235	-0.168809
C	-0.6718252198	 0.036322862	-2.3905796791	-0.054838
C	-0.7071318252	-0.9153606221	-1.1790890609	-0.196753
C	 0.5665189477	-1.8274188288	-1.2938198565	-0.066354
C	 1.6740564798	-1.0805563812	-1.1432579882	-0.189733
C	-0.088478841	 0.0189690013	-0.090820096	-0.000913
H	-0.0569404013	 1.78565076	 1.3241689062	 0.111505
H	-0.5323748991	 2.2254294102	-0.3568963216	 0.114813
H	 0.8452090961	 1.5121614791	-2.9432475565	 0.106537
H	-1.4055525237	 0.0370619123	-3.1858184079	 0.102375
H	-1.6423603613	-1.4444789523	-0.9986129512	 0.065196
H	 0.5220700503	-2.8793882641	-1.5444434022	 0.103434
H	 2.7064931224	-1.3886578557	-1.230903022	 0.113168
H	 0.1961555053	-0.553078414	 0.7925791052	 0.096269
304.4726	328.6598	401.7871	448.0941	480.7634	546.2571	601.9074	648.2317	717.1827	729.1615	740.4989	769.5441	836.0725	846.6885	867.1526	908.7884	917.1048	932.0701	939.3584	992.775	1043.0593	1060.8069	1075.889	1083.9367	1118.0498	1156.3589	1177.7435	1193.1409	1227.6007	1258.4299	1288.3392	1303.5407	1322.3791	1388.9456	1499.5712	1571.7758	1643.3169	3056.3488	3100.441	3117.6313	3124.373	3209.4714	3210.7538	3237.5252	3239.8048
C1OC23C=CC(C=C2)C13	C1O[C@@]23C=C[C@@H](C=C2)[C@H]13	
InChI=1S/C8H8O/c1-3-8-4-2-6(1)7(8)5-9-8/h1-4,6-7H,5H2	InChI=1S/C8H8O/c1-3-8-4-2-6(1)7(8)5-9-8/h1-4,6-7H,5H2/t6-,7-,8-/m0/s1
