21
gdb 92601	2.10496	1.73506	1.52259	0.925	77.63	-0.2415	0.0834	0.3249	1048.5901	0.182387	-424.232157	-424.223456	-424.222511	-424.265037	33.607	
C	 0.2634500399	 1.5689781434	-0.0006997295	-0.410348
C	 0.1127528349	 0.066572358	 0.084126966	 0.115121
O	 0.9645436085	-0.6645724191	-0.8401243817	-0.329555
C	 1.3823401565	-1.5872559923	 0.1919374567	 0.078123
C	 2.874040876	-1.5307760901	 0.474660913	-0.249743
C	 3.0006254423	-0.2003089551	 1.2307416839	-0.08906
O	 1.7773756188	-0.0418805961	 1.9543799609	-0.302767
C	 0.716610043	-0.7155843632	 1.2870884212	 0.344131
C	-0.22427184	-1.2953871667	 2.3205257471	-0.463665
H	 1.2674557796	 1.8910381049	 0.2818892136	 0.130068
H	 0.0576949299	 1.9068797267	-1.0213037001	 0.124413
H	-0.4527726252	 2.0562304765	 0.6693687293	 0.118573
H	-0.9374071468	-0.2161008538	-0.0837860896	 0.064131
H	 0.9849959801	-2.5944259308	 0.0267913089	 0.069372
H	 3.1590625345	-2.3753282245	 1.1114578304	 0.105801
H	 3.4720928212	-1.5630597864	-0.439248745	 0.115675
H	 3.8185794695	-0.1811563552	 1.9561116621	 0.108085
H	 3.1437725688	 0.6282583618	 0.5249565545	 0.102817
H	-0.6414955637	-0.4976072678	 2.9435709218	 0.129436
H	-1.0519679319	-1.8276048619	 1.8434106701	 0.117325
H	 0.3078873042	-1.9894735884	 2.9777262361	 0.122069
116.577	174.1735	185.5707	199.2393	220.8151	244.4004	318.7494	373.5392	424.7393	539.4519	611.3785	633.5907	678.0119	805.0897	837.6262	880.2424	885.2479	900.0663	916.3093	973.9315	1012.7739	1019.5462	1058.1653	1090.5865	1118.4895	1133.7098	1161.0275	1181.9218	1213.4634	1215.5673	1255.9284	1272.011	1311.0258	1337.8592	1354.2068	1382.0417	1398.82	1410.0681	1415.9062	1467.9257	1483.7022	1484.8719	1485.8507	1493.0847	1518.6604	2985.3133	3017.1248	3039.2173	3042.6902	3044.523	3058.5575	3089.9585	3107.0909	3109.0921	3114.2084	3118.8915	3136.1851
CC1OC2CCOC12C	C[C@H]1O[C@H]2CCO[C@@]12C	
InChI=1S/C7H12O2/c1-5-7(2)6(9-5)3-4-8-7/h5-6H,3-4H2,1-2H3	InChI=1S/C7H12O2/c1-5-7(2)6(9-5)3-4-8-7/h5-6H,3-4H2,1-2H3/t5-,6+,7+/m1/s1
