18
gdb 39760	4.88003	1.31203	1.20439	2.2064	75.72	-0.2393	0.0823	0.3215	1045.649	0.150037	-401.865037	-401.858452	-401.857508	-401.89577	27.44	
C	 0.0141262153	 1.5258941067	 0.0136383814	-0.34599
N	 1.2650477603	 0.7084943417	 0.064592939	-0.404133
C	-0.0291147702	 0.0587457133	 0.0010396755	 0.444679
C	-0.5850433663	-1.0118746004	 0.9345780993	-0.188573
C	-1.8286063011	-1.136699962	-0.02037561	-0.0473
C	-2.1948815852	-2.6146067208	-0.0568370925	-0.113529
O	-0.8900129396	-3.2182944498	-0.080851712	-0.286945
C	-0.0371043754	-2.0930250553	-0.0534667882	 0.157318
C	-0.5955751997	-0.9619327739	-0.9813772615	-0.215606
H	-0.1938079433	 2.0848531098	 0.9221898222	 0.120472
H	-0.2146017355	 2.0599047079	-0.9057522886	 0.111616
H	 1.714607603	 0.710715617	-0.8485515319	 0.229067
H	-0.5822352049	-1.042092416	 2.0234036339	 0.081104
H	-2.6182385043	-0.3867249503	 0.0015787132	 0.076871
H	-2.747413594	-2.9469459035	 0.8306725284	 0.10507
H	-2.759012933	-2.9020031161	-0.9527414635	 0.103607
H	 1.0091915122	-2.3908170898	-0.0631321209	 0.098325
H	-0.6083443386	-0.9361303085	-2.0718265839	 0.073944
158.224	242.615	259.3822	341.4733	470.113	472.8723	562.2238	727.5819	753.492	758.0855	781.2995	869.6465	889.4873	912.1521	934.0203	958.606	963.2164	973.9896	981.7277	993.6761	1038.3245	1045.0757	1070.2021	1113.7187	1127.3886	1142.114	1148.1722	1166.15	1192.0855	1203.4631	1210.6739	1257.798	1274.1458	1277.6915	1318.8642	1384.2685	1458.7733	1522.0483	1535.8806	3018.8171	3057.0457	3101.5432	3105.9685	3124.7012	3133.3126	3155.0637	3184.6174	3486.909
C1NC11C2C3COC2C13	C1N[C@]21[C@H]1[C@@H]3CO[C@H]1[C@H]23	
InChI=1S/C7H9NO/c1-3-4-6(9-1)5(3)7(4)2-8-7/h3-6,8H,1-2H2	InChI=1S/C7H9NO/c1-3-4-6(9-1)5(3)7(4)2-8-7/h3-6,8H,1-2H2/t3-,4-,5+,6+,7+
