17
gdb 11434	4.31299	1.33416	1.21283	3.0399	64.	-0.2287	-0.0188	0.2099	1013.7956	0.142755	-401.011287	-401.003446	-401.002502	-401.043865	29.022	
O	 0.0575052704	 1.167546517	 0.6766267973	-0.415106
C	-0.0537966534	-0.2102418245	 0.3471290811	-0.07465
C	-1.4304398642	-0.53975488	-0.2525321749	-0.009486
C	-1.6635479797	-2.0485462866	-0.3832174851	-0.334777
C	-2.3886968268	-2.4278191198	 0.9115164142	 0.4078
O	-2.5738449183	-3.5401258776	 1.3275951276	-0.305708
C	-2.8245969488	-1.1273346966	 1.5892322037	-0.274779
N	-2.5496779251	-0.0901136451	 0.5964887381	-0.307102
H	 0.0711812743	 1.6686902343	-0.1458629475	 0.285889
H	 0.7451383091	-0.5284523849	-0.3405227076	 0.093518
H	 0.0924859326	-0.7511210153	 1.2895258949	 0.113794
H	-1.5038769634	-0.0344077994	-1.2252426533	 0.069414
H	-2.3319202678	-2.2778776209	-1.2205143757	 0.141003
H	-0.7564765216	-2.6443735088	-0.5129140021	 0.129254
H	-3.8858335332	-1.1731623549	 1.857339558	 0.132389
H	-2.2577218034	-1.0386656235	 2.5317188973	 0.120104
H	-2.3140845808	 0.8002769967	 1.0209878841	 0.228444
62.9694	121.6606	169.1925	238.3863	337.4579	347.7243	445.1271	472.3424	503.8146	605.3465	680.6148	750.7781	804.1585	825.9219	897.438	934.8584	1009.1368	1035.7251	1071.6648	1085.674	1116.0323	1153.2272	1189.4491	1207.3339	1223.6922	1239.9172	1283.9168	1331.0188	1377.5461	1396.7669	1412.812	1444.5164	1454.6236	1485.1187	1500.8607	1857.6268	2962.048	2986.1284	3003.0721	3055.5846	3059.173	3066.6781	3108.6546	3539.1968	3807.2934
OCC1CC(=O)CN1	OC[C@H]1CC(=O)CN1	
InChI=1S/C5H9NO2/c7-3-4-1-5(8)2-6-4/h4,6-7H,1-3H2	InChI=1S/C5H9NO2/c7-3-4-1-5(8)2-6-4/h4,6-7H,1-3H2/t4-/m1/s1
