19
gdb 54026	2.1758	1.54777	0.97458	0.8592	78.53	-0.2558	-0.0153	0.2405	1224.0752	0.158926	-419.220603	-419.211455	-419.21051	-419.254802	33.819	
C	-0.0164762699	 1.4929164768	 0.0271324284	-0.470542
C	-0.0998248113	-0.0157252171	 0.0298737121	 0.386537
N	-0.3172473408	-0.6019120816	 1.1379209294	-0.495834
N	 0.0835978389	-0.6904272486	-1.2076632714	-0.130454
C	 0.0269651869	-0.0296735054	-2.4289962582	 0.147382
O	 0.017401423	-0.5772781524	-3.5054120064	-0.313344
C	 0.1115676295	-2.1354018993	-1.2223389796	 0.009264
C	 1.1961257853	-2.8353346344	-1.9889881406	-0.257472
C	 1.2184936912	-2.8595970247	-0.4869999616	-0.27995
H	 0.9151425792	 1.8539660262	-0.4193787335	 0.138022
H	-0.8482299283	 1.9494846323	-0.5191962512	 0.143952
H	-0.0673913581	 1.8171035094	 1.0656868636	 0.156094
H	-0.3588355485	-1.6143776929	 1.0284036457	 0.225295
H	-0.0059550444	 1.0639629182	-2.3227879174	 0.101335
H	-0.872595422	-2.5963101693	-1.2249860291	 0.115739
H	 0.9166660825	-3.732452248	-2.5282872828	 0.127345
H	 1.9219611173	-2.2157491416	-2.4988910412	 0.137617
H	 1.9598479668	-2.2509757809	 0.0174838348	 0.134757
H	 0.9601646928	-3.7759270566	 0.0321571689	 0.124257
57.2382	107.6703	148.7733	198.5808	226.7801	264.4471	280.5807	388.9361	404.134	474.7557	509.9532	578.6146	632.7028	739.279	794.1176	828.8271	906.4305	915.8644	965.0005	988.1105	1026.179	1057.8883	1070.9333	1076.976	1084.5232	1120.9849	1129.3815	1194.5037	1205.0014	1234.1395	1296.8414	1377.3181	1389.0131	1414.9015	1455.2142	1465.8676	1484.9827	1491.4525	1500.6864	1711.7138	1803.0983	3032.3661	3047.6091	3104.5086	3137.1478	3141.9366	3158.4833	3163.15	3226.3526	3248.5998	3497.9706
CC(=N)N(C=O)C1CC1	CC(=N)N(C=O)C1CC1	
InChI=1S/C6H10N2O/c1-5(7)8(4-9)6-2-3-6/h4,6-7H,2-3H2,1H3	InChI=1S/C6H10N2O/c1-5(7)8(4-9)6-2-3-6/h4,6-7H,2-3H2,1H3
