14
gdb 49166	3.07559	1.34394	1.19275	3.9534	71.47	-0.2578	-0.0785	0.1793	1035.7415	0.101229	-436.663587	-436.656462	-436.655518	-436.695572	26.688	
O	-0.0004059451	-0.004901722	 0.1678565268	-0.267403
C	 0.055895106	 1.1997678255	 0.0554620831	 0.049667
C	 1.3008175673	 1.951066966	-0.0726528098	 0.240276
C	 1.5051632394	 3.2943455901	-0.0202100829	-0.171522
C	 3.00758738	 3.4219521452	-0.0465174653	-0.174207
N	 3.4643135161	 2.3505549963	-0.9845397496	-0.287873
C	 2.7124265331	 1.3894929002	-0.1214977404	-0.234682
C	 3.308518566	 2.282041598	 1.0514590344	 0.459862
O	 3.7578174061	 2.1817014133	 2.1341224759	-0.273194
H	-0.8640614023	 1.8242628067	 0.0350731836	 0.078701
H	 0.7839889283	 4.0841318882	 0.1422775436	 0.137232
H	 3.4954589723	 4.3925892754	-0.0741099209	 0.104533
H	 3.0212400092	 2.4471752114	-1.9019441331	 0.220093
H	 2.8741896637	 0.3219131755	-0.2356692454	 0.118516
88.0292	155.4299	184.0176	272.0061	385.3533	486.5365	529.0738	566.1126	624.4016	686.9712	769.9149	811.5207	830.6436	859.2947	897.8748	949.8644	977.065	1034.4365	1038.2575	1059.0329	1085.133	1173.7857	1196.9263	1225.3081	1277.6104	1309.4645	1317.8438	1414.0635	1597.8943	1778.8521	1957.6878	2890.6649	3166.606	3182.3396	3230.3844	3423.9139
O=CC1=CC2NC1C2=O	O=CC1=C[C@@H]2N[C@H]1C2=O	
InChI=1S/C6H5NO2/c8-2-3-1-4-6(9)5(3)7-4/h1-2,4-5,7H	InChI=1S/C6H5NO2/c8-2-3-1-4-6(9)5(3)7-4/h1-2,4-5,7H/t4-,5+/m0/s1
