15
gdb 43019	2.40386	2.03132	1.39283	3.7672	65.31	-0.2504	-0.0464	0.2041	919.7565	0.113229	-457.744711	-457.737886	-457.736942	-457.775946	26.552	
O	 0.0052841692	 0.0505465678	 0.3309157599	-0.313804
C	-0.0139130073	 1.2430836232	 0.119016599	 0.398214
C	-1.312607768	 1.9691674923	-0.0810566096	-0.073443
O	-1.4529819591	 3.30048447	 0.4281515414	-0.226468
C	-1.3338110689	 3.1538981742	-0.9750382447	 0.047354
C	-0.0703431855	 3.6710016822	-1.6325328863	-0.291214
C	 1.2237101405	 3.1890982279	-1.0086426347	 0.047355
O	 1.3756242812	 3.3394146064	 0.390984707	-0.226467
C	 1.2586061537	 2.0045552083	-0.1148410761	-0.073443
H	-2.1901201516	 1.3327130965	 0.0144799952	 0.115649
H	-2.2554373076	 3.3454272497	-1.5262641919	 0.10943
H	-0.0800972563	 3.371846779	-2.6882880894	 0.124002
H	-0.0852818177	 4.7684826725	-1.6197605778	 0.137756
H	 2.1249192348	 3.4057132375	-1.5838196464	 0.10943
H	 2.1555061327	 1.3925224825	-0.0426205855	 0.115649
113.2301	232.8782	250.6312	340.4241	390.8651	432.8176	462.3913	546.0148	637.9153	753.9205	810.1331	815.6475	855.5216	870.0195	915.4504	954.5273	986.9812	1009.2978	1046.5346	1101.2685	1123.446	1149.8352	1240.2888	1268.2024	1278.0958	1285.1687	1345.8564	1371.8433	1372.4992	1422.9333	1459.212	1474.749	1796.1556	3028.1914	3065.7523	3102.6388	3104.5741	3141.7501	3144.2059
O=C1C2OC2CC2OC12	O=C1[C@H]2O[C@H]2C[C@H]2O[C@@H]12	
InChI=1S/C6H6O3/c7-4-5-2(8-5)1-3-6(4)9-3/h2-3,5-6H,1H2	InChI=1S/C6H6O3/c7-4-5-2(8-5)1-3-6(4)9-3/h2-3,5-6H,1H2/t2-,3+,5-,6+
