19
gdb 38587	3.63638	1.64603	1.48718	1.5692	78.59	-0.2277	0.0662	0.2939	938.7312	0.163137	-381.936386	-381.930103	-381.929159	-381.966604	27.408	
C	 0.0776761144	 1.4579239193	 0.1170979983	-0.248128
C	 1.3237602142	 0.6586901797	-0.0048103719	-0.18963
N	-0.0328953195	-0.0023481191	-0.0072335732	-0.104916
C	-0.3580207171	-0.483823472	-1.3959681179	-0.230702
C	 0.6518166507	 0.2260206365	-2.3082876561	 0.022142
N	 1.8425448361	-0.3217251913	-3.1843857484	-0.179017
C	 2.571688303	 0.9431741008	-2.6676603325	-0.251909
C	 1.8485335422	 0.4270376971	-1.3874475989	 0.319156
C	 2.3354769316	-0.9606775644	-1.8803444543	-0.199214
H	-0.2087782413	 1.8503263142	 1.0889497081	 0.119997
H	-0.2186378801	 2.086883432	-0.7195241788	 0.110352
H	 1.9359204769	 0.4555575086	 0.8684504344	 0.096666
H	-0.2887961035	-1.5734415903	-1.3918487058	 0.123935
H	-1.3917699612	-0.2176076688	-1.6304637512	 0.110867
H	 0.2280085827	 1.1079233478	-2.7938084853	 0.080376
H	 3.6591841116	 0.8539950259	-2.7217735455	 0.105575
H	 2.2164533868	 1.8720763267	-3.1207864046	 0.10605
H	 1.7834095072	-1.8517948878	-1.5810967838	 0.110497
H	 3.411591875	-1.153121105	-1.8744084328	 0.097904
194.5054	303.7421	389.8357	418.1829	428.337	542.3888	601.2891	669.13	690.3253	749.4766	752.361	793.2669	830.0822	868.7272	901.6401	942.8933	964.9924	982.8078	1013.786	1035.7306	1044.6121	1069.6052	1081.7396	1110.6705	1117.9278	1148.3749	1160.5366	1164.0025	1184.2062	1192.0454	1219.494	1239.4853	1253.7873	1281.5038	1320.2835	1375.7685	1403.7518	1492.2717	1504.6752	1518.4653	1556.8668	3056.7382	3064.2406	3068.8773	3075.6543	3104.9869	3114.6198	3129.0358	3139.1211	3156.1225	3185.9869
C1C2N1CC1N3CC21C3	C1[C@H]2N1C[C@@H]1N3C[C@@]21C3	
InChI=1S/C7H10N2/c1-5-7-3-9(4-7)6(7)2-8(1)5/h5-6H,1-4H2	InChI=1S/C7H10N2/c1-5-7-3-9(4-7)6(7)2-8(1)5/h5-6H,1-4H2/t5-,6+,8?/m1/s1
