19
gdb 38291	3.77515	1.7032	1.68787	1.5507	77.15	-0.234	0.0716	0.3056	889.0708	0.163395	-385.81164	-385.805884	-385.80494	-385.841335	25.946	
C	-0.0578582614	 1.5882452094	 0.0223469086	-0.235281
C	 1.4716316101	 1.3628851984	 0.0283574437	 0.047697
O	 1.2428037367	 0.1392746649	 0.7981639637	-0.288382
C	-0.0031591625	 0.0432604695	 0.0362291016	 0.047697
C	 0.3696557199	-0.4846342234	-1.3724976895	-0.007567
C	 0.7963903111	 0.6190898559	-2.4019584478	-0.066756
C	 1.7198922624	-0.4170328235	-3.0780749399	-0.262474
C	 1.9200844121	-0.6317143907	-1.5607928899	-0.024922
C	 1.9466524434	 0.9264429776	-1.3809149009	-0.007567
H	-0.4102275719	 1.9877267433	 0.974468711	 0.105011
H	-0.5260179226	 2.106452111	-0.815958225	 0.098282
H	 2.1408189748	 2.0591221611	 0.5377004513	 0.073001
H	-0.7661614305	-0.5420082511	 0.5532164603	 0.073001
H	-0.2599770856	-1.2943601522	-1.749979847	 0.060872
H	 0.1467301233	 1.3421770145	-2.8985857261	 0.069707
H	 1.2279681251	-1.2254252727	-3.6270048574	 0.087851
H	 2.57450181	-0.0205630016	-3.6341917809	 0.087852
H	 2.5671606146	-1.3519102734	-1.0635758375	 0.081108
H	 2.8188474739	 1.4605341965	-1.7664129584	 0.060872
312.9203	314.0929	410.9509	463.9133	529.8819	604.6453	671.8291	790.4845	803.1958	815.053	840.7615	867.0555	894.6147	898.1762	916.8974	929.1914	948.5039	973.0716	996.9599	1008.9519	1053.9377	1062.8267	1069.162	1100.1094	1101.1275	1116.986	1125.451	1161.5214	1191.5841	1201.3795	1231.9025	1236.933	1242.207	1254.5031	1306.858	1309.4312	1320.8486	1336.4656	1379.0063	1496.5356	1511.5779	3042.0737	3070.3205	3073.074	3076.3946	3088.6139	3094.1739	3100.6097	3104.0683	3131.4389	3139.8017
C1C2OC1C1C3CC1C23	C1[C@H]2O[C@@H]1[C@H]1[C@@H]3C[C@H]1[C@H]23	
InChI=1S/C8H10O/c1-3-7-4(1)8(3)6-2-5(7)9-6/h3-8H,1-2H2	InChI=1S/C8H10O/c1-3-7-4(1)8(3)6-2-5(7)9-6/h3-8H,1-2H2/t3-,4+,5-,6+,7-,8+
