19
gdb 96248	2.34601	1.71405	1.18481	2.0574	79.36	-0.2384	-0.0311	0.2073	1073.6238	0.161087	-423.012326	-423.004284	-423.00334	-423.044595	31.747	
O	 0.2286345613	 1.3714192805	 0.1934938124	-0.436714
C	 0.0434225719	-0.0242732501	-0.0269485963	 0.059036
C	-1.4458982056	-0.3687887576	 0.0840709854	-0.117025
O	-2.2739383332	 0.5099559144	-0.6639481402	-0.271489
C	-2.1184152733	 0.4555873772	-2.0932354634	-0.127818
C	-2.0473211752	-0.9330965974	-2.6577551731	-0.090181
C	-0.9038455363	-1.6263971422	-2.7513994679	-0.074591
C	 0.4234781623	-1.1547238682	-2.3523105954	-0.097999
C	 0.796106127	-0.450915916	-1.2730027336	-0.060838
H	-0.5687567928	 1.79509011	-0.1513063632	 0.291101
H	 0.5440695109	-0.5318282409	 0.8120750201	 0.090782
H	-1.6242696346	-1.4181735786	-0.1762043605	 0.107188
H	-1.7538969156	-0.2123535281	 1.1218464573	 0.11578
H	-2.9889637671	 0.9914119988	-2.4808092321	 0.111348
H	-1.2153283298	 1.0096097633	-2.3844406764	 0.107587
H	-2.9726005029	-1.3858384798	-3.0029361881	 0.096606
H	-0.9291482826	-2.6054434365	-3.2279819967	 0.098367
H	 1.2173873167	-1.4272525029	-3.0479129838	 0.096386
H	 1.844099229	-0.1610704659	-1.2141918046	 0.102474
96.4453	210.621	234.8744	249.0712	305.8725	327.8191	403.2172	412.488	444.0791	552.9106	607.8237	679.2437	746.6459	765.932	825.4143	841.4584	911.3103	928.4548	961.71	1004.0817	1017.7601	1024.8897	1063.2856	1078.7532	1117.5849	1130.9898	1239.762	1245.2223	1268.8349	1297.5649	1323.389	1373.4698	1384.0747	1409.9475	1418.2777	1433.1254	1450.8493	1488.175	1503.6429	1683.0125	1700.6961	2985.4953	3007.6496	3043.9738	3089.5621	3095.9732	3114.9856	3133.9984	3147.3913	3171.2135	3756.0379
OC1COCC=CC=C1	O[C@H]1COCC=CC=C1	
InChI=1S/C7H10O2/c8-7-4-2-1-3-5-9-6-7/h1-4,7-8H,5-6H2/b3-1-,4-2-	InChI=1S/C7H10O2/c8-7-4-2-1-3-5-9-6-7/h1-4,7-8H,5-6H2/b3-1-,4-2-/t7-/m1/s1
