16
gdb 45191	2.99277	1.94828	1.65179	3.6113	67.31	-0.2373	-0.0036	0.2336	850.3722	0.127376	-437.866583	-437.860496	-437.859552	-437.896888	25.212	
O	-0.0173222985	 0.008334195	-0.2546326096	-0.334834
C	 0.021965746	 1.1794974179	-0.0113006103	 0.422529
O	-1.122878947	 1.9071294267	 0.1708926003	-0.236184
C	-0.8803347706	 3.2040926147	 0.7408103268	 0.07349
C	 0.0188990799	 3.010501041	 1.9766533853	-0.190589
N	 1.2255913732	 3.1471421653	 1.0974217794	-0.148244
C	 0.3595731915	 3.9066531516	 0.0905823306	-0.001721
C	 1.0155521359	 3.1470443729	-1.0571595288	-0.248363
C	 1.2637990561	 2.0548240595	 0.0254705927	-0.13999
H	-1.8447273473	 3.7103769239	 0.7926107827	 0.097913
H	-0.0006520758	 3.8564598168	 2.6693504671	 0.122743
H	-0.0898481764	 2.0721598471	 2.528344339	 0.128592
H	 0.3577765836	 4.9979596829	 0.1357995126	 0.087157
H	 0.4280614114	 2.878225012	-1.9359486655	 0.129315
H	 1.9489566251	 3.6292116561	-1.3521527813	 0.129958
H	 2.1705156929	 1.4531788067	 0.0070348389	 0.108227
145.4753	325.2504	356.1707	427.5266	466.031	529.5775	609.7822	697.2447	750.6992	787.9873	800.802	826.8927	869.0815	915.8233	960.4406	977.7506	984.3032	986.556	1046.4284	1058.0883	1088.9228	1119.6456	1174.5632	1194.7712	1207.4278	1232.9241	1239.7911	1261.4616	1291.4781	1301.0598	1328.0591	1374.4336	1480.125	1489.0916	1870.9235	3054.17	3080.0493	3090.5853	3110.5255	3116.3526	3138.0653	3145.2675
O=C1OC2CN3C2CC13	O=C1O[C@H]2CN3[C@H]2C[C@H]13	
InChI=1S/C6H7NO2/c8-6-4-1-3-5(9-6)2-7(3)4/h3-5H,1-2H2	InChI=1S/C6H7NO2/c8-6-4-1-3-5(9-6)2-7(3)4/h3-5H,1-2H2/t3-,4+,5-/m0/s1
