19
gdb 73586	2.37076	1.95027	1.473	1.3423	73.43	-0.2389	0.075	0.3139	963.0753	0.160668	-422.993808	-422.986419	-422.985475	-423.025214	30.376	
O	-0.0707590849	 1.356095601	-0.0211945917	-0.489225
C	-0.0057631043	-0.0521139209	-0.0485689218	 0.415266
C	-1.3654872782	-0.6218055646	-0.4730255722	-0.288187
C	-1.8765601362	-1.2560320673	 0.8401063435	-0.076049
O	-0.7164268892	-1.7048976126	 1.5482341668	-0.26646
C	 0.3037900356	-0.7576252956	 1.307109962	 0.037281
C	 1.6354149142	-1.2826165934	 0.7459664205	-0.076974
C	 1.3864160728	-2.113581177	-0.4746374676	-0.290991
C	 1.3216646847	-0.6183773223	-0.6068131406	-0.145991
H	 0.7690556234	 1.6858430902	 0.3182433762	 0.275897
H	-2.022059058	 0.1687597716	-0.8412461216	 0.116433
H	-1.257451465	-1.377841881	-1.2542106644	 0.109468
H	-2.4230439629	-0.5093446922	 1.4364057222	 0.09914
H	-2.527548407	-2.1217483858	 0.6924347318	 0.107575
H	 0.4188255501	-0.0536991443	 2.142610908	 0.065797
H	 2.568285294	-1.3214064312	 1.2939239116	 0.086376
H	 2.2680308372	-2.574285701	-0.9082795676	 0.114095
H	 0.4896634869	-2.7217830888	-0.537619125	 0.11954
H	 1.9757046168	-0.0671238248	-1.2731655799	 0.08701
145.369	182.9587	278.8453	300.0986	342.5126	383.2091	463.2257	512.8997	593.7393	639.4245	660.9841	761.8542	809.1818	843.4189	872.5606	934.9819	944.6905	962.7727	979.0292	994.2045	1011.84	1030.813	1060.3093	1074.8177	1090.8085	1101.1126	1127.9016	1174.9209	1185.2155	1204.881	1243.563	1249.596	1303.9924	1310.2612	1339.0089	1356.8055	1368.7976	1400.6761	1478.5195	1494.8134	1516.3392	2987.6056	3013.5553	3073.3698	3093.005	3127.8879	3128.5832	3173.2659	3190.019	3211.3301	3795.5207
OC12CCOC1C1CC21	O[C@]12CCO[C@H]1[C@H]1C[C@@H]21	
InChI=1S/C7H10O2/c8-7-1-2-9-6(7)4-3-5(4)7/h4-6,8H,1-3H2	InChI=1S/C7H10O2/c8-7-1-2-9-6(7)4-3-5(4)7/h4-6,8H,1-3H2/t4-,5+,6-,7-/m0/s1
