21
gdb 101791	3.19484	0.74622	0.64173	2.0462	76.36	-0.2695	0.0144	0.2839	1784.1617	0.178962	-461.405375	-461.394163	-461.393219	-461.443628	38.484	
C	-0.5046738342	 1.3087831321	 0.6294367627	-0.381361
C	-0.713439273	-0.2027655814	 0.5141651867	-0.186356
C	-1.458189994	-0.6088779617	-0.7601705347	 0.104594
O	-0.7668578614	-0.2155765861	-1.9411629953	-0.429601
C	-1.7411826636	-2.1093048101	-0.8324328002	-0.088278
O	-2.6102709818	-2.4557317642	 0.2586163572	-0.242136
C	-2.8686861821	-3.7737644878	 0.4135526238	 0.433431
C	-3.7969809843	-4.0003154744	 1.5823367754	-0.479414
O	-2.408654057	-4.6296822927	-0.2975280686	-0.345846
H	 0.0781564866	 1.5614394569	 1.5200147707	 0.111309
H	 0.0208696212	 1.6961015833	-0.247586249	 0.126453
H	-1.4642118487	 1.8328864459	 0.698258235	 0.117236
H	 0.2582317414	-0.7201658304	 0.5269146433	 0.083253
H	-1.272247613	-0.5811947063	 1.3768459482	 0.112159
H	-2.4157196922	-0.0754519085	-0.8038468941	 0.097561
H	 0.1184089291	-0.5959754468	-1.904875662	 0.280754
H	-2.2219442823	-2.3577845349	-1.782876849	 0.126943
H	-0.8155495818	-2.6932096613	-0.7613420404	 0.110317
H	-4.7430182844	-3.4773697572	 1.4154057876	 0.150905
H	-3.9785713062	-5.0678544119	 1.6993532738	 0.149322
H	-3.3576279984	-3.5925323224	 2.4970272787	 0.148755
29.0933	52.5462	73.7768	86.2863	146.2075	186.317	223.151	243.9842	270.6852	297.1774	337.3359	437.0321	505.5343	509.2683	606.2935	649.6587	777.6828	822.8905	919.7448	969.5242	984.7755	990.7595	1049.7587	1064.7775	1070.4517	1093.6233	1138.2251	1158.4272	1236.7776	1258.2184	1264.8232	1326.2958	1330.6248	1384.37	1394.139	1405.4048	1408.6097	1422.0284	1469.5251	1476.1364	1485.5813	1497.3491	1506.3147	1510.3095	1827.9358	2995.9878	3034.7275	3039.0782	3047.007	3057.4635	3073.4033	3098.521	3104.3156	3120.9425	3122.1377	3169.797	3792.3249
CCC(O)COC(C)=O	CC[C@@H](O)COC(=O)C	
InChI=1S/C6H12O3/c1-3-6(8)4-9-5(2)7/h6,8H,3-4H2,1-2H3	InChI=1S/C6H12O3/c1-3-6(8)4-9-5(2)7/h6,8H,3-4H2,1-2H3/t6-/m1/s1
