22
gdb 105369	3.0656	0.97201	0.87593	1.7618	82.48	-0.2384	0.0807	0.3191	1448.3508	0.192766	-404.296918	-404.287236	-404.286292	-404.332124	35.825	
C	-0.2155321736	 1.6608560841	 0.0496773618	-0.401912
C	-0.5215698144	 0.2139805729	 0.4404265117	-0.238343
C	 0.5757796166	-0.5050679448	 1.2060558917	 0.415408
C	 0.2685737056	-1.951763807	 1.5616792304	-0.227302
N	 0.0907605469	-2.764281668	 0.3628589236	-0.062699
C	 1.2709358534	-3.4608326557	-0.1386753233	-0.218508
C	 0.1767492668	-4.2079862908	 0.5409360996	-0.217245
C	 1.9846226936	-0.0828273206	 1.1549080605	-0.223598
O	 1.1706255468	 0.222993524	 2.2915458115	-0.281053
H	 0.5595742509	 1.7191256612	-0.7210525517	 0.113816
H	-1.110440466	 2.1452183403	-0.3512943694	 0.112306
H	 0.1209787785	 2.2338127107	 0.9184908635	 0.134607
H	-1.4204582862	 0.1903807732	 1.0719206926	 0.102137
H	-0.7590881807	-0.3890888624	-0.4422159065	 0.123228
H	 1.0668747247	-2.3316155133	 2.2223520682	 0.0874
H	-0.6690616539	-1.9861233681	 2.1309469499	 0.107352
H	 1.3786924661	-3.4972923872	-1.2188546955	 0.117758
H	 2.2046724588	-3.3440292346	 0.4092964091	 0.109409
H	 0.382774409	-4.5870742219	 1.5409682655	 0.111181
H	-0.5309747921	-4.7992683259	-0.0331504055	 0.118295
H	 2.7733943789	-0.8137124397	 1.3315532051	 0.103862
H	 2.28055938	 0.7733180037	 0.5533787671	 0.113903
64.2829	67.7269	92.2971	154.3693	226.4568	256.0651	321.8956	336.0714	363.4149	400.4464	457.9912	541.0953	709.1382	772.8251	776.4397	836.3708	860.8534	896.862	915.1039	935.7581	1009.786	1017.6745	1032.0016	1049.6305	1089.1263	1112.8872	1118.6549	1125.8348	1145.1792	1163.9069	1171.3291	1177.607	1233.4131	1264.2171	1297.531	1323.5191	1378.6814	1385.467	1397.2574	1425.1833	1483.4246	1487.7822	1495.1893	1498.1388	1511.2237	1520.7712	1533.0059	2954.7635	3017.651	3040.4776	3044.3399	3076.3955	3087.0483	3093.5092	3098.0031	3106.0868	3119.3534	3175.3295	3176.885	3190.9293
CCC1(CN2CC2)CO1	CC[C@@]1(CN2CC2)CO1	
InChI=1S/C7H13NO/c1-2-7(6-9-7)5-8-3-4-8/h2-6H2,1H3	InChI=1S/C7H13NO/c1-2-7(6-9-7)5-8-3-4-8/h2-6H2,1H3/t7-/m1/s1
