20
gdb 15091	2.37494	1.56857	1.02736	2.0249	71.01	-0.2483	0.0715	0.3198	1168.4014	0.175779	-386.112427	-386.102915	-386.101971	-386.147032	34.172	
O	-0.1763847273	 1.4007431609	 0.1133142589	-0.425393
C	-0.1098736362	-0.0200611144	 0.1147619516	-0.092344
C	-1.5163629373	-0.5725886688	-0.1294454823	-0.017546
C	-2.0279272706	-0.1518086044	-1.5181420104	-0.068522
O	-3.399882683	-0.45140165	-1.7324687067	-0.420815
C	-1.5401003276	-2.0769196636	 0.0586538828	 0.040405
C	-1.6672240179	-2.6843024267	 1.4364641764	-0.284699
C	-2.8055719808	-2.7883544969	 0.4527540366	-0.255352
H	 0.7158714203	 1.7450006119	 0.2106507141	 0.287377
H	 0.5722823905	-0.3861030698	-0.6711958426	 0.083699
H	 0.2652984025	-0.4000436611	 1.0766262955	 0.092413
H	-2.1724514633	-0.1116529181	 0.6245183384	 0.066638
H	-1.821499146	 0.9152707217	-1.6693755374	 0.104763
H	-1.4810065153	-0.7065803269	-2.2905972141	 0.099877
H	-3.9157651495	 0.1389844563	-1.1746708624	 0.279556
H	-0.8956138104	-2.6145416314	-0.6347368784	 0.076865
H	-1.0949827906	-3.5770144317	 1.6637606987	 0.107984
H	-1.7839957152	-2.0086585005	 2.278260821	 0.107862
H	-3.6868791599	-2.1818475424	 0.6251756412	 0.107041
H	-3.0154726625	-3.7521313239	 0.0027900793	 0.110192
59.4858	96.1324	117.6548	165.6449	217.4136	239.3062	263.1536	293.0941	355.5654	413.0011	469.0416	534.6512	761.3804	814.8418	828.4539	888.3095	926.6154	953.1198	982.5091	1050.3022	1058.6428	1064.9512	1073.6695	1100.3593	1106.3545	1137.0078	1153.7437	1196.0769	1216.3077	1228.123	1253.8207	1263.5259	1316.3091	1338.9662	1400.8156	1409.8002	1428.3368	1453.553	1471.5745	1505.3828	1510.8406	1520.2977	2959.4529	2992.7081	3007.3915	3019.4251	3065.0902	3119.2146	3127.0213	3142.1488	3206.5235	3227.0725	3819.3686	3834.3605
OCC(CO)C1CC1	OCC(CO)C1CC1	
InChI=1S/C6H12O2/c7-3-6(4-8)5-1-2-5/h5-8H,1-4H2	InChI=1S/C6H12O2/c7-3-6(4-8)5-1-2-5/h5-8H,1-4H2
