20
gdb 26335	3.80551	1.0836	0.86456	2.6973	84.92	-0.169	0.0421	0.2111	1377.8162	0.170817	-399.368095	-399.358204	-399.35726	-399.403832	35.376	
C	 0.0694334808	 1.3700247031	 0.0342249002	-0.32448
N	 0.2480500747	-0.064626149	 0.0319977089	-0.153352
C	-0.2927517269	-0.7607168495	 1.1888511659	-0.333422
C	 0.0934069868	-0.6864513991	-1.2026782004	 0.361163
C	-0.0315293433	-0.111012492	-2.4483680574	-0.226513
N	-0.0772794907	-1.1866207502	-3.3282385176	-0.288281
C	-0.0009005363	-2.328611367	-2.5970964198	 0.353632
C	-0.0303734418	-3.6953893722	-3.196167763	-0.498738
N	 0.1027695751	-2.0595236569	-1.3104884028	-0.373387
H	 0.7405459295	 1.8312683815	-0.6981476198	 0.122413
H	-0.9637611895	 1.6820846517	-0.2050200819	 0.097239
H	 0.3248641424	 1.7653181397	 1.0212394308	 0.117733
H	-1.3890033777	-0.660507271	 1.2756800336	 0.095241
H	-0.0516949393	-1.8204390468	 1.1117699705	 0.156259
H	 0.1608526618	-0.3541440872	 2.0984003334	 0.10896
H	-0.090934523	 0.9063282366	-2.7904722264	 0.115693
H	-0.1628878044	-1.1238355065	-4.3280388119	 0.256786
H	 0.8081763774	-3.8592474216	-3.8831111858	 0.129656
H	 0.0370046282	-4.4291758345	-2.3922087077	 0.155163
H	-0.9555704739	-3.8791648293	-3.7550048788	 0.128234
26.0203	67.1961	137.7806	184.1202	192.5679	236.2415	251.1667	334.806	367.0234	374.2706	464.7447	520.4536	590.6393	612.0985	667.8658	715.7707	739.2015	937.3256	974.7734	1020.6032	1052.3921	1059.5282	1082.1659	1112.8024	1129.379	1176.7683	1217.7144	1235.6002	1293.1799	1353.5913	1394.0409	1411.8639	1438.401	1455.9385	1464.1103	1482.6975	1483.5979	1492.9993	1504.0469	1510.2353	1516.9725	1581.8262	1625.1422	2937.1662	2951.5959	3027.8182	3057.4282	3068.9558	3075.6189	3106.9931	3148.2123	3154.8033	3290.5686	3671.1698
CN(C)C1=CNC(C)=N1	CN(C)c1c[nH]c(C)n1	
InChI=1S/C6H11N3/c1-5-7-4-6(8-5)9(2)3/h4H,1-3H3,(H,7,8)	InChI=1S/C6H11N3/c1-5-7-4-6(8-5)9(2)3/h4H,1-3H3,(H,7,8)
