18
gdb 120812	4.55905	0.63544	0.60543	4.8171	73.67	-0.2782	0.029	0.3073	1802.051	0.145885	-439.069842	-439.060014	-439.05907	-439.106191	33.901	
O	 0.0174681145	 1.3618300341	 0.3213326033	-0.420541
C	-0.0809303517	-0.0491176764	 0.412174209	-0.068319
C	-1.2923146855	-0.4739344801	-0.4151803539	-0.219813
C	-1.4593468595	-1.972631608	-0.4287014016	 0.048661
O	-1.9449133878	-2.6013235959	 0.7698041993	-0.249361
C	-2.7433230227	-2.6910973699	-0.4046145076	 0.058951
C	-4.0947772384	-1.992970565	-0.3810779194	-0.371899
C	-5.1295178435	-2.8254880175	 0.2333518423	 0.263676
N	-5.9433749506	-3.4935228607	 0.7083845185	-0.297323
H	 0.7390353885	 1.6517304618	 0.8869043728	 0.290082
H	 0.8255824765	-0.5419502052	 0.0238044725	 0.088201
H	-0.2179841384	-0.3826791633	 1.4514471588	 0.110114
H	-2.1769968782	 0.0240457634	-0.0096630113	 0.113283
H	-1.1585467629	-0.1166464988	-1.4436762921	 0.117607
H	-0.6244209792	-2.5114507971	-0.8831620701	 0.0994
H	-2.7744588393	-3.6861271594	-0.8505981369	 0.113084
H	-4.0285532264	-1.051328158	 0.1692439077	 0.164817
H	-4.4044286456	-1.7561536841	-1.4063213715	 0.159379
38.2266	70.9949	81.7217	118.2908	157.2408	243.6268	260.1427	339.0008	380.7571	384.2025	499.4668	513.6946	566.8566	769.333	823.2836	854.0372	901.4726	954.7145	999.3334	1025.4471	1051.128	1087.1816	1106.3717	1157.2452	1171.4058	1230.9096	1241.3409	1247.5714	1298.8698	1315.3093	1316.3518	1335.9563	1410.0884	1447.8802	1461.9498	1477.4611	1497.0795	1529.2154	2366.7	2966.4389	3010.1787	3043.3895	3047.6648	3077.7833	3101.5589	3104.7973	3118.7944	3833.6021
OCCC1OC1CC#N	OCC[C@H]1O[C@H]1CC#N	
InChI=1S/C6H9NO2/c7-3-1-5-6(9-5)2-4-8/h5-6,8H,1-2,4H2	InChI=1S/C6H9NO2/c7-3-1-5-6(9-5)2-4-8/h5-6,8H,1-2,4H2/t5-,6+/m0/s1
