18
gdb 78904	2.92861	2.04272	1.65879	2.2017	72.99	-0.2066	0.0649	0.2716	863.7573	0.150764	-401.88062	-401.874263	-401.873319	-401.910953	27.174	
O	-0.0886546013	 1.4557215025	-0.0193090228	-0.434236
C	 0.0154100934	 0.0397232551	-0.0412755227	 0.123018
C	-1.3566215655	-0.5978188023	-0.1166728815	-0.071732
C	-1.2355540941	-2.0071241108	-0.6231242302	-0.122546
C	-1.928716182	-0.9726317797	-1.4834145579	-0.031459
N	-0.9218835848	-1.0643453092	-2.5695859798	-0.138521
C	 0.0734266392	 0.0604308205	-2.5520949678	-0.169185
C	 0.7317314026	-0.5337340994	-1.2867600155	-0.127096
C	-0.0565880758	-1.855360409	-1.6064858643	 0.002578
H	 0.7964952798	 1.8192132294	 0.0846213016	 0.283131
H	 0.5166205631	-0.3111777572	 0.8756454719	 0.063687
H	-2.0844983873	-0.3764414473	 0.6559318653	 0.091089
H	-1.6026777397	-2.9029853647	-0.1420381011	 0.091826
H	-2.979702593	-0.8342011707	-1.7111771237	 0.09224
H	 0.6991457371	 0.0038794134	-3.4476218731	 0.096913
H	-0.3473936812	 1.0634436237	-2.4551913196	 0.118085
H	 1.8211693265	-0.5472784191	-1.2060740321	 0.059112
H	 0.466113953	-2.7265155152	-2.0019622267	 0.073095
176.5438	282.34	292.7723	400.8908	493.3643	526.8534	615.7127	690.7979	704.8833	771.0371	796.9876	823.7624	855.1154	904.5416	913.8583	929.2867	940.454	965.4485	989.4752	1018.8848	1039.297	1060.8112	1065.8259	1104.4204	1108.2513	1114.1529	1176.5001	1197.6768	1216.5037	1235.1508	1244.9835	1254.8691	1280.1799	1295.4071	1319.9465	1357.4059	1398.4122	1431.0961	1495.0203	2959.5336	3052.233	3076.5579	3106.3628	3117.9814	3168.1903	3181.9332	3209.3773	3816.4814
OC1C2C3C2N2CC1C32	O[C@H]1[C@@H]2[C@H]3[C@@H]2N2C[C@@H]1[C@@H]32	
InChI=1S/C7H9NO/c9-7-2-1-8-5(2)3-4(7)6(3)8/h2-7,9H,1H2	InChI=1S/C7H9NO/c9-7-2-1-8-5(2)3-4(7)6(3)8/h2-7,9H,1H2/t2-,3-,4-,5+,6+,7-/m1/s1
