20
gdb 26386	4.1173	0.92382	0.89868	1.4709	83.44	-0.1784	0.0398	0.2181	1408.057	0.170814	-403.178034	-403.168805	-403.167861	-403.213001	34.479	
C	 0.1292869651	 1.5025310055	-0.0289561747	-0.397726
C	 0.0061215322	-0.0210328092	-0.0235672453	 0.054552
C	 0.504803218	-0.635112502	 1.2928180614	-0.386135
N	-1.3906806826	-0.3769737665	-0.329493487	-0.400464
C	-1.7121353906	-1.6955032379	-0.5976180797	 0.441369
C	-2.784931596	-2.4809375853	-0.2838838621	-0.308046
C	-2.5732953695	-3.7244090328	-0.9719701535	-0.157312
C	-1.3964718079	-3.609841106	-1.630174561	-0.033908
O	-0.8572543292	-2.3627794046	-1.413804255	-0.180541
H	 1.1668628783	 1.8069658421	 0.1356680646	 0.118504
H	-0.2117778969	 1.9162336718	-0.9813724267	 0.126818
H	-0.4754202973	 1.946153217	 0.7720296736	 0.108659
H	 0.6056642246	-0.4237088752	-0.8456516054	 0.110297
H	-0.063652033	-0.2432092738	 2.1448137888	 0.106655
H	 0.3950579511	-1.7232125169	 1.2817792206	 0.13099
H	 1.5616159958	-0.4008477088	 1.4580199822	 0.11435
H	-2.043894809	 0.0279354904	 0.3293209162	 0.231737
H	-3.6114409192	-2.2136627032	 0.3547517979	 0.090927
H	-3.2173849565	-4.5900522317	-0.9606694455	 0.104109
H	-0.8099680573	-4.2642022529	-2.2513967394	 0.125167
30.6776	65.4007	129.1897	221.4439	253.0002	275.1758	323.6873	388.6295	435.2607	457.2213	595.9908	621.9263	664.1461	710.5018	745.0257	768.5041	832.1647	847.8229	897.9033	928.3445	936.5469	953.217	992.2673	1028.6824	1094.104	1143.8366	1167.3554	1181.0898	1188.3149	1248.0949	1303.3197	1342.4291	1361.5532	1397.1042	1415.7974	1420.6835	1478.5857	1483.9552	1487.5302	1503.8457	1507.9978	1570.6866	1647.6357	3025.6691	3030.0171	3065.6651	3092.4805	3104.2123	3113.9032	3124.708	3249.256	3262.5214	3295.5709	3568.1689
CC(C)NC1=CC=CO1	CC(C)Nc1ccco1	
InChI=1S/C7H11NO/c1-6(2)8-7-4-3-5-9-7/h3-6,8H,1-2H3	InChI=1S/C7H11NO/c1-6(2)8-7-4-3-5-9-7/h3-6,8H,1-2H3
