19
gdb 62777	2.7902	1.39524	1.15885	3.9549	79.89	-0.2475	0.0108	0.2583	1126.3977	0.158782	-382.042821	-382.034067	-382.033123	-382.075753	33.475	
C	-0.3291846084	 1.5168491987	-0.1177111481	-0.473744
C	-0.0600714196	 0.0258304558	-0.080156788	 0.32628
C	-1.1129824697	-0.7475834578	 0.6958529806	-0.440529
C	 0.5862783733	-0.7280364544	-1.1757613941	-0.060139
C	 1.6712385602	 0.0618564377	-1.9039950009	-0.299274
C	 2.3645246562	 0.1997114064	-0.5175081673	-0.095282
C	 2.7107251899	 1.5171980635	 0.0063345587	 0.291594
N	 3.0144873293	 2.5550908353	 0.4156838886	-0.333551
N	 1.2784280063	-0.5793268344	 0.1879957744	-0.18343
H	 0.3386615129	 2.0790434947	-0.7701565369	 0.135703
H	-1.3526275188	 1.6832423371	-0.4704233358	 0.121503
H	-0.2485039727	 1.9456819677	 0.8860014941	 0.141764
H	-2.0943104036	-0.6416483249	 0.2215164882	 0.117206
H	-0.8592416997	-1.8089327509	 0.7470328158	 0.129284
H	-1.1856142636	-0.3681738148	 1.7199863938	 0.128522
H	 0.2159912818	-1.6934625856	-1.5070194036	 0.09972
H	 2.2634541238	-0.5360141375	-2.5970170238	 0.127059
H	 1.3584940229	 0.9795758087	-2.4061537224	 0.127779
H	 3.2692259795	-0.4125065952	-0.4732702633	 0.139537
118.3789	134.877	190.6904	222.057	262.1133	278.4586	320.0891	364.2801	423.7322	462.0228	526.2902	594.8693	630.8525	738.6948	780.5168	844.8763	859.8431	957.3521	965.3979	989.5716	1001.1241	1032.2145	1061.329	1073.5109	1081.3971	1133.9635	1149.6412	1231.5376	1258.0521	1269.6589	1302.0054	1355.993	1407.431	1415.7748	1427.2111	1477.7676	1480.9535	1497.2152	1505.4281	1511.9437	2349.4357	3037.0501	3045.1306	3072.7385	3080.1475	3101.4483	3106.4267	3125.7654	3136.4705	3144.7758	3158.5209
CC1(C)C2CC(C#N)N12	CC1(C)[C@H]2C[C@@H](C#N)N12	
InChI=1S/C7H10N2/c1-7(2)6-3-5(4-8)9(6)7/h5-6H,3H2,1-2H3	InChI=1S/C7H10N2/c1-7(2)6-3-5(4-8)9(6)7/h5-6H,3H2,1-2H3/t5-,6+,9?/m0/s1
