15
gdb 127682	2.57577	1.87452	1.09233	2.476	73.37	-0.2233	-0.0431	0.1802	1038.7872	0.113922	-450.126374	-450.118386	-450.117441	-450.15938	29.021	
C	-0.3928396239	 1.359010036	-0.0189319465	-0.31234
N	-0.0011292114	-0.0409756283	-0.008050519	-0.070974
N	 0.0663692473	-0.66811637	-1.2163585821	-0.230612
C	 0.4056698102	-1.8911168429	-1.2369061068	 0.109803
O	 0.7181748914	-2.6664145863	-0.1552714493	-0.228506
C	 0.6730821471	-2.1048478009	 1.0988503776	 0.351654
N	 0.9495836736	-2.7649441642	 2.1366649564	-0.509572
C	 0.2785240002	-0.6603545907	 1.1934508103	 0.332156
N	 0.1963182565	-0.0158665724	 2.2909304357	-0.531238
H	 0.3945525785	 1.9772177106	 0.4219061327	 0.149452
H	-0.563618057	 1.6401145153	-1.0566474457	 0.145319
H	-1.301351327	 1.5038667701	 0.572800454	 0.149449
H	 0.4745161521	-2.4341565865	-2.1681502428	 0.158162
H	 1.198159163	-3.7281443162	 1.9104601468	 0.239042
H	 0.4396103394	-0.6438681236	 3.0569731187	 0.248205
73.8622	114.8128	145.2552	182.2311	325.5916	365.9056	470.8463	499.3856	524.7495	556.0956	583.5584	705.7308	767.9572	838.2965	868.3409	885.9554	901.2662	965.1866	1006.9071	1082.3258	1154.115	1156.0874	1236.2684	1273.6696	1303.5683	1396.2641	1432.054	1471.1602	1471.5013	1510.3066	1685.5516	1713.5558	1757.564	3049.1269	3107.0796	3173.9024	3254.1347	3496.4516	3499.443
CN1N=COC(=N)C1=N	CN1N=COC(=C1[NH])[NH]	
InChI=1S/C4H6N4O/c1-8-3(5)4(6)9-2-7-8/h2,5-6H,1H3	InChI=1S/C4H6N4O/c1-8-3(5)4(6)9-2-7-8/h2,5-6H,1H3
