23
gdb 42143	1.81837	1.76255	1.0201	1.4557	80.49	-0.2372	0.0776	0.3148	1234.2606	0.208279	-425.398486	-425.389778	-425.388834	-425.431451	34.369	
C	-0.0746559698	 1.5753330153	 0.0110217501	-0.202282
C	 1.3015514291	 2.2650986827	 0.096359919	-0.214088
C	 2.234268037	 1.7410754411	 1.2128941738	-0.060735
O	 3.498758685	 1.2545650227	 0.7822322277	-0.255421
C	 3.5361821708	 0.2323240757	-0.2000861674	-0.089065
C	 2.7461277101	-1.0540301389	 0.1390092107	-0.089068
O	 1.7970157253	-1.4670069845	-0.8305241893	-0.25543
C	 0.7880672303	-0.549338466	-1.23180276	-0.060735
C	-0.0769667797	 0.0370346988	-0.0920158916	-0.214084
H	-0.6697047004	 1.8567348797	 0.8893998022	 0.098041
H	-0.6089743951	 1.9914583359	-0.8527859477	 0.09804
H	 1.8254261542	 2.1884567681	-0.8611790505	 0.111829
H	 1.1323782022	 3.3373322983	 0.2414401922	 0.101214
H	 2.4916894305	 2.548903571	 1.9035442557	 0.109318
H	 1.7121635783	 0.9795429461	 1.8104056266	 0.087599
H	 3.2101437265	 0.6022220636	-1.1822409193	 0.099994
H	 4.6002922819	-0.0005813481	-0.2955185169	 0.112459
H	 3.432435937	-1.9021875842	 0.2117609465	 0.11246
H	 2.2879072472	-0.9395787039	 1.1313242495	 0.099996
H	 1.2241045544	 0.2653593296	-1.8281804713	 0.087599
H	 0.1680902569	-1.1332318475	-1.9177654353	 0.109319
H	 0.2439881186	-0.4080357579	 0.8546092193	 0.11183
H	-1.1140326604	-0.2902243075	-0.2214436641	 0.101212
143.3607	154.5951	173.5465	202.2089	264.7787	332.2497	337.818	396.223	420.0736	477.5818	480.4315	516.636	729.2511	753.5202	794.4187	836.1169	931.8854	951.7452	962.2138	972.9941	1014.0664	1035.9351	1054.3261	1081.5977	1094.6871	1105.7449	1146.8961	1165.6235	1209.1882	1237.9826	1265.1534	1300.1163	1314.4854	1315.2786	1327.1136	1341.7676	1376.0036	1377.8318	1388.0462	1415.3519	1425.672	1426.2366	1481.8856	1484.0149	1490.9027	1496.3892	1499.3031	1517.6341	1527.3664	2987.811	2993.2564	3013.1373	3014.5403	3016.9862	3043.8324	3050.8244	3050.8523	3073.168	3076.4852	3079.6952	3089.6877	3091.1329	3094.171
C1CCOCCOCC1	C1CCOCCOCC1	
InChI=1S/C7H14O2/c1-2-4-8-6-7-9-5-3-1/h1-7H2	InChI=1S/C7H14O2/c1-2-4-8-6-7-9-5-3-1/h1-7H2
