13
gdb 31447	3.07083	1.37896	0.95724	3.6038	63.17	-0.2813	-0.0928	0.1885	1119.3287	0.089204	-489.934436	-489.926852	-489.925908	-489.967172	27.042	
O	 0.1582514329	 1.3731462543	-0.0603266332	-0.41702
C	 0.0389939184	-0.0150658528	-0.0660617393	-0.11239
C	-1.3817044338	-0.4996400403	-0.0202935424	 0.340356
N	-2.3217141178	 0.3970280422	 0.018321022	-0.384637
C	-3.6340463858	-0.0040379131	 0.0609258373	 0.471979
O	-4.6088630631	 0.6720998962	 0.0995363868	-0.308388
O	-3.8383639756	-1.4353748628	 0.0575440464	-0.190179
C	-2.7851162884	-2.2351180853	 0.0157373752	 0.160617
N	-1.5532092203	-1.868568049	-0.0239112774	-0.305535
H	-0.7431363904	 1.7276282504	-0.0268996843	 0.30457
H	 0.5015511324	-0.4579946617	-0.9640078617	 0.136112
H	 0.5625170373	-0.4702843773	 0.7912938983	 0.136133
H	-3.0618648258	-3.2871400207	 0.0177505624	 0.168382
77.5369	135.083	168.2202	201.6725	331.5873	412.2639	426.0963	525.0694	578.5147	624.4929	626.9271	682.3284	803.6848	850.2165	952.4564	996.3916	1030.1375	1109.2251	1141.5474	1239.4387	1242.4653	1283.4698	1346.4621	1411.9143	1461.0734	1485.473	1567.8301	1672.6261	1916.2456	2977.1854	2990.2323	3177.6394	3710.7254
OCC1=NC(=O)OC=N1	OCc1nc(=O)ocn1	
InChI=1S/C4H4N2O3/c7-1-3-5-2-9-4(8)6-3/h2,7H,1H2	InChI=1S/C4H4N2O3/c7-1-3-5-2-9-4(8)6-3/h2,7H,1H2
