18
gdb 90564	3.1535	1.11958	0.99301	2.8852	74.18	-0.2346	0.0285	0.2631	1236.0776	0.147274	-439.064327	-439.055843	-439.054899	-439.098076	31.533	
C	-0.1778703953	 1.9582010755	 1.7442970464	-0.415877
C	-0.1340736275	 0.4857324193	 1.3926278884	 0.145158
O	 0.3114532095	 0.1916100091	 0.0239446208	-0.320145
C	 1.1589747281	-0.8559704231	 0.5137874088	 0.025879
C	 2.2750774811	-0.269143948	 1.2977555469	 0.045087
N	 2.8452915662	 0.982626896	 0.9087646539	-0.287277
C	 4.0441939492	 1.4210898082	 1.3769406682	 0.148439
O	 4.7086933911	 0.8587472896	 2.2216485199	-0.325584
C	 0.9184554252	-0.4624907666	 1.9650097538	-0.181191
H	-0.8566123506	 2.4863583924	 1.0666114806	 0.12946
H	-0.5608107308	 2.0780113484	 2.7633456749	 0.127527
H	 0.8080533014	 2.4221450453	 1.6930557296	 0.126408
H	-1.131829677	 0.0438992724	 1.5133175831	 0.092753
H	 1.1558163716	-1.8000470835	-0.0193457952	 0.111115
H	 3.0232709464	-0.9639820525	 1.6641092026	 0.137228
H	 2.3884374764	 1.4714579716	 0.1534106953	 0.259491
H	 4.352136035	 2.3680361421	 0.8909480132	 0.075287
H	 0.8004809101	-1.072994126	 2.8502658188	 0.10624
43.5776	139.8277	182.4851	219.0575	228.8181	247.8674	322.4164	429.052	571.5977	604.1718	612.6973	713.2455	739.6104	799.5942	812.7068	858.4732	939.5984	965.7625	998.1328	1026.0998	1037.9101	1055.4854	1056.5352	1090.6441	1107.9854	1154.6373	1175.1727	1239.1298	1255.8178	1303.4928	1327.1319	1390.5586	1405.6554	1413.1751	1429.7738	1486.1645	1497.5662	1530.6509	1801.9056	2937.7256	3016.9063	3043.6242	3106.2591	3144.6249	3173.8109	3184.4158	3205.1464	3619.0781
CC1OC2C(NC=O)C12	C[C@H]1O[C@H]2[C@@H](NC=O)[C@@H]12	
InChI=1S/C6H9NO2/c1-3-4-5(7-2-8)6(4)9-3/h2-6H,1H3,(H,7,8)	InChI=1S/C6H9NO2/c1-3-4-5(7-2-8)6(4)9-3/h2-6H,1H3,(H,7,8)/t3-,4-,5+,6-/m1/s1
