20
gdb 84881	2.14918	1.77828	1.33556	3.08	75.12	-0.2423	0.0318	0.2742	1057.9346	0.17058	-440.30114	-440.29213	-440.291186	-440.334084	34.863	
C	-0.1273342437	 1.5400214787	-0.0865750893	-0.405436
C	 0.044442077	 0.0189229175	 0.0039766903	 0.046205
N	 0.6821538255	-0.4619567086	-1.2236767485	-0.274423
C	 1.8641277885	-0.9003920042	-1.1777800313	 0.128793
O	 2.7179636956	-0.9727237088	-0.1255183824	-0.222225
C	 2.274365411	-0.31881946	 1.0623723049	-0.10356
C	 0.7657879278	-0.4859388366	 1.2758383663	 0.302816
C	 0.3239109454	 0.2117523802	 2.563831437	-0.440807
O	 0.4399150782	-1.8761015825	 1.3352562606	-0.464629
H	 0.8327504656	 2.0613614799	-0.0028878532	 0.112002
H	-0.5518398865	 1.7899563123	-1.0618987738	 0.135509
H	-0.797264508	 1.9188095586	 0.6897178985	 0.115327
H	-0.9537631005	-0.4348087634	 0.0264549674	 0.098731
H	 2.3466978997	-1.3027079119	-2.0666099336	 0.121412
H	 2.84224568	-0.7657127838	 1.8854499734	 0.103695
H	 2.5379524478	 0.7458709851	 1.0076286618	 0.110914
H	 0.5806522593	 1.274497305	 2.5706748867	 0.122312
H	-0.7576751824	 0.1128114758	 2.6916143025	 0.132566
H	 0.8075619253	-0.2553282339	 3.4303412542	 0.104182
H	 0.9621403445	-2.2807878091	 2.0365595783	 0.276617
109.7467	173.8371	226.5195	237.8357	267.9759	273.9986	310.5128	324.8319	366.3867	427.6775	461.4438	528.4969	562.4887	602.1823	721.1466	858.1364	876.2236	897.853	927.8786	963.0641	984.8403	995.7659	1065.9168	1081.8546	1108.1307	1138.9495	1171.9552	1199.0911	1211.0067	1272.0516	1333.9023	1353.7134	1378.7306	1398.9575	1403.2596	1406.9749	1422.3878	1483.4335	1491.599	1496.1083	1503.3065	1507.0922	1741.7762	3018.6891	3028.5927	3032.0897	3039.5921	3071.7646	3096.567	3109.0943	3122.7583	3128.1459	3158.7437	3801.0524
CC1N=COCC1(C)O	C[C@H]1N=COC[C@]1(C)O	
InChI=1S/C6H11NO2/c1-5-6(2,8)3-9-4-7-5/h4-5,8H,3H2,1-2H3	InChI=1S/C6H11NO2/c1-5-6(2,8)3-9-4-7-5/h4-5,8H,3H2,1-2H3/t5-,6+/m1/s1
