17
gdb 49630	3.49958	1.54596	1.32156	1.2163	70.83	-0.248	-0.0296	0.2184	965.1676	0.137218	-421.782905	-421.776179	-421.775235	-421.814321	26.788	
O	-0.7343625203	 0.8756282626	-0.5383332773	-0.239966
C	 0.1187393348	 1.0527797815	 0.2944193964	 0.119109
C	 1.2738114404	 2.017480397	 0.2056990934	-0.057937
C	 1.3473207761	 3.0112881919	-0.9670223805	-0.107822
C	 0.054285721	 3.8540230217	-0.7860344613	-0.255535
C	 0.7416350266	 4.3609282989	 0.4906204735	-0.068342
C	 2.1237450378	 4.1765756041	-0.1641934942	 0.102635
O	 2.707621918	 3.6350264231	 1.0284144937	-0.287822
C	 1.3627698607	 3.1413873086	 1.2842222302	 0.033291
H	 0.1252065587	 0.4493041515	 1.2332159018	 0.078152
H	 2.1833683289	 1.4132807893	 0.3185636722	 0.109184
H	 1.6687163683	 2.6443257527	-1.9388154621	 0.079641
H	-0.0093338037	 4.6609797467	-1.5219154308	 0.104177
H	-0.8969432842	 3.3275290307	-0.732804177	 0.128756
H	 0.4528871356	 5.2409295253	 1.061941081	 0.082206
H	 2.7170258103	 4.9192792299	-0.6943294117	 0.091884
H	 1.1597068212	 2.9161429945	 2.3304320929	 0.088389
77.3336	192.1296	228.4995	389.2629	418.335	517.4698	645.5702	691.3645	745.5121	767.8496	810.6545	849.8952	852.4944	875.6508	928.7061	945.6748	978.337	994.0051	1011.7455	1022.7084	1061.0825	1076.5447	1079.9273	1117.7676	1154.512	1177.0297	1204.6833	1222.7206	1240.239	1246.8101	1287.4953	1305.239	1328.0431	1357.3171	1431.9576	1508.5601	1822.6857	2849.1985	3034.2233	3069.378	3129.0518	3136.0672	3143.9556	3150.5027	3153.424
O=CC1C2CC3C2OC13	O=C[C@H]1[C@H]2C[C@@H]3[C@H]2O[C@H]13	
InChI=1S/C7H8O2/c8-2-5-3-1-4-6(3)9-7(4)5/h2-7H,1H2	InChI=1S/C7H8O2/c8-2-5-3-1-4-6(3)9-7(4)5/h2-7H,1H2/t3-,4-,5+,6+,7+/m1/s1
