19
gdb 11411	4.01204	1.33841	1.05749	3.9766	72.45	-0.2356	0.0378	0.2734	1136.644	0.166949	-365.124019	-365.115866	-365.114922	-365.156815	30.38	
C	 0.0642442836	 1.5695009671	-0.0175358638	-0.394875
C	 0.0175876059	 0.0387935208	-0.0438001145	-0.176873
C	-1.3927780129	-0.5450946324	 0.0589835709	 0.061402
C	-1.4354624753	-2.0913287502	-0.0125953827	-0.22954
C	-2.6425405249	-2.4864251164	 0.8507131703	-0.335321
C	-2.814694085	-1.3140672046	 1.8224867605	 0.403809
O	-3.514244872	-1.2703329519	 2.8099983777	-0.379046
N	-2.0298155403	-0.2944607784	 1.3460617891	-0.309259
H	 1.0881725619	 1.933124492	-0.143895566	 0.12234
H	-0.5433870508	 1.9998884746	-0.8213094017	 0.119051
H	-0.3050292407	 1.97074808	 0.9326976499	 0.11571
H	 0.4618505784	-0.3232737922	-0.9797500493	 0.101536
H	 0.6241001228	-0.3699978864	 0.7736870731	 0.103982
H	-2.0034667653	-0.1198656777	-0.7554719036	 0.0737
H	-1.4950147416	-2.4463694103	-1.0436608108	 0.106802
H	-0.5139902873	-2.491531503	 0.4239957976	 0.110831
H	-3.5637396823	-2.5662374492	 0.2617180125	 0.128252
H	-2.5240331247	-3.4247578709	 1.395177353	 0.129683
H	-2.1273741594	 0.6277054091	 1.7409646178	 0.247815
93.904	105.5138	141.3372	203.3991	248.1897	381.5252	429.7819	487.5962	506.4593	568.9739	625.5166	658.3394	788.4392	824.2942	860.3877	915.2341	956.9274	992.6389	1002.7325	1050.762	1076.1665	1116.5131	1154.2282	1192.5587	1222.7296	1267.5764	1291.5201	1296.1934	1320.6991	1341.8279	1375.1503	1405.7366	1415.6	1433.6358	1469.4451	1477.4892	1497.9505	1501.3055	1507.269	1831.9925	2951.5748	3023.5369	3032.4934	3048.9713	3051.5314	3061.9609	3098.6007	3106.9274	3107.3375	3121.4332	3640.0879
CCC1CCC(=O)N1	CC[C@H]1CCC(=O)N1	
InChI=1S/C6H11NO/c1-2-5-3-4-6(8)7-5/h5H,2-4H2,1H3,(H,7,8)	InChI=1S/C6H11NO/c1-2-5-3-4-6(8)7-5/h5H,2-4H2,1H3,(H,7,8)/t5-/m0/s1
