14
gdb 130855	4.09293	1.24953	0.96913	7.7467	72.64	-0.2521	-0.0489	0.2032	1134.6205	0.102137	-432.834032	-432.826871	-432.825927	-432.866143	25.766	
O	-0.0772932639	-0.0429558984	-0.1434627883	-0.257125
C	-0.0107750926	 1.1562751264	-0.0272040077	 0.090514
C	 1.2205313503	 1.9470230927	 0.0034618481	 0.015473
C	 1.3920779442	 3.3177417087	 0.1330296839	 0.318129
C	 1.1291170152	 4.8143295423	 0.2917574704	-0.382278
C	 2.6984806685	 4.9698781565	 0.2461975312	-0.167964
N	 2.7127308409	 3.4935219274	 0.098912336	 0.071392
N	 3.4079573024	 2.3361139835	-0.0438042655	-0.154228
N	 2.4928348801	 1.4144616642	-0.0982746638	-0.212499
H	-0.9283571117	 1.7807532968	 0.070315213	 0.062157
H	 0.6001198345	 5.2853559833	-0.5379410073	 0.152135
H	 0.6690961694	 5.1093415797	 1.2359220619	 0.152117
H	 3.1035767306	 5.494216146	-0.6202867492	 0.156083
H	 3.1730653023	 5.3168973708	 1.1649915175	 0.156093
95.9267	168.2047	171.5412	215.2094	315.0494	376.453	499.9281	674.218	681.3459	707.2232	798.8947	806.554	864.6284	905.0702	1029.8407	1045.2154	1062.5601	1118.7456	1134.438	1178.2286	1205.8506	1221.6689	1268.6277	1299.1718	1357.479	1426.3012	1472.5237	1483.706	1525.7303	1567.1794	1810.7437	2864.4935	3088.7577	3092.1191	3142.3643	3157.1141
O=CC1=C2CCN2N=N1	O=Cc1c2CCn2nn1	
InChI=1S/C5H5N3O/c9-3-4-5-1-2-8(5)7-6-4/h3H,1-2H2	InChI=1S/C5H5N3O/c9-3-4-5-1-2-8(5)7-6-4/h3H,1-2H2
