18
gdb 84574	2.64022	1.97672	1.48217	2.7742	75.28	-0.2229	0.0066	0.2295	925.2909	0.149569	-401.89256	-401.885361	-401.884417	-401.923843	29.156	
O	 0.1484855557	 1.4245447093	-0.2098084091	-0.417776
C	 0.0785083497	 0.0105491308	-0.0465172582	 0.055334
C	 0.7040589893	-0.4912527521	 1.2467637599	-0.111141
C	-0.147196353	-1.1667190134	 2.0214009443	-0.082638
C	-1.5109052945	-1.2564612998	 1.3968394056	-0.082389
C	-2.5938432548	-0.2395455503	 1.8185045746	-0.045156
C	-2.1029182218	 1.1472415706	 1.7747109504	-0.230591
N	-2.4829870227	 0.5176531064	 0.4965043218	-0.136242
C	-1.3947753565	-0.454302652	 0.0801450395	 0.003807
H	 1.069996376	 1.6582071466	-0.3583002887	 0.283684
H	 0.547460855	-0.4767816737	-0.9164361935	 0.07161
H	 1.7458547615	-0.2955976478	 1.4848514831	 0.091061
H	 0.0933382354	-1.5894373426	 2.9914683076	 0.099456
H	-1.8940436069	-2.2749727176	 1.3032454674	 0.080906
H	-3.5618708858	-0.5091150567	 2.2286828189	 0.090691
H	-2.8079012334	 1.9234519841	 2.0584859844	 0.116039
H	-1.0648840312	 1.3844423656	 1.9735956156	 0.128695
H	-1.7394462621	-0.9660009574	-0.8183594535	 0.08465
140.759	211.002	221.3219	261.0467	339.163	459.6374	507.7985	570.7871	658.7548	735.6942	750.6716	755.8677	800.3805	826.8912	859.0915	915.2625	956.9835	973.3847	985.8593	1013.7373	1041.5321	1058.5501	1066.26	1089.0065	1110.7326	1130.312	1156.6971	1205.6465	1213.0108	1241.466	1264.8489	1295.4715	1323.846	1333.4869	1359.8983	1383.8448	1417.8828	1506.8467	1669.5616	2961.1989	3082.346	3105.8945	3128.8397	3159.5597	3164.9851	3193.4394	3221.7462	3822.0395
OC1C=CC2C3CN3C12	O[C@H]1C=C[C@H]2[C@H]3CN3[C@@H]12	
InChI=1S/C7H9NO/c9-6-2-1-4-5-3-8(5)7(4)6/h1-2,4-7,9H,3H2	InChI=1S/C7H9NO/c9-6-2-1-4-5-3-8(5)7(4)6/h1-2,4-7,9H,3H2/t4-,5+,6-,7+,8?/m0/s1
