17
gdb 102973	2.13763	1.10563	0.85968	4.5114	66.69	-0.2587	-0.0454	0.2133	1366.5244	0.131728	-496.107986	-496.09785	-496.096906	-496.144745	33.489	
C	-0.2969202144	 0.7820656015	 0.56567394	-0.24677
O	 0.1814448258	-0.502475306	 0.208296238	-0.246873
C	 0.5421163364	-0.6238797891	-1.1465330031	 0.030693
C	 1.3581275717	-1.9100727146	-1.2893915694	-0.122177
O	 0.560663083	-3.0522458733	-0.9795199829	-0.187485
C	 0.5631838603	-3.4869296237	 0.3030138978	 0.185017
O	-0.1446779034	-4.3705945889	 0.6758036438	-0.270914
C	-0.6889363473	-0.6862237084	-2.0607561194	 0.14095
O	-0.6400282936	-0.4721661818	-3.2421538925	-0.237761
H	 0.4731262721	 1.5512494212	 0.408321814	 0.118991
H	-1.1921304438	 1.0645512306	-0.0063580025	 0.121859
H	-0.5547237316	 0.7430699624	 1.6255701921	 0.144446
H	 1.1716735285	 0.2162553607	-1.4814855027	 0.099537
H	 1.6871279798	-2.0257831963	-2.3239431491	 0.148759
H	 2.2339180895	-1.8578361857	-0.6319705479	 0.125902
H	 1.2930172342	-2.949633305	 0.9346697406	 0.088656
H	-1.6278151273	-0.9713541835	-1.5383807367	 0.107172
54.6814	58.8474	68.448	120.9041	165.5398	178.5326	216.7774	258.5734	310.1595	367.2541	415.3749	537.308	589.1154	673.1206	862.5752	913.6413	990.4194	1035.5727	1049.48	1077.4855	1103.4728	1152.77	1163.9388	1181.5451	1227.7248	1281.8738	1325.166	1337.3481	1390.4379	1402.1255	1429.6101	1481.1478	1487.8126	1488.3926	1505.287	1837.9258	1872.9767	2904.8314	2982.2087	2985.0174	2991.499	3042.8031	3043.5266	3126.1359	3132.4946
COC(COC=O)C=O	CO[C@@H](COC=O)C=O	
InChI=1S/C5H8O4/c1-8-5(2-6)3-9-4-7/h2,4-5H,3H2,1H3	InChI=1S/C5H8O4/c1-8-5(2-6)3-9-4-7/h2,4-5H,3H2,1H3/t5-/m1/s1
