15
gdb 80819	2.0353	1.69534	1.23425	4.1576	67.53	-0.2726	-0.0021	0.2705	1034.2585	0.113082	-453.877862	-453.87009	-453.869146	-453.910065	29.815	
O	 0.1473632958	 1.4192191527	-0.1190506217	-0.436675
C	 0.108949566	 0.0460802119	-0.048679834	 0.183495
C	-0.0070564736	-0.6471576528	 1.3479270961	-0.125946
N	-1.4182329281	-0.0726562925	 1.4021564601	-0.379877
C	-1.2970483467	-0.6736639063	 0.0131028659	 0.128861
C	-2.3734244164	-0.6701294887	-0.939697058	 0.139935
N	-3.2231854424	-0.7031766849	-1.7240064099	-0.341337
C	-0.5597751247	-1.9076675535	 0.6515231871	 0.102101
O	 0.3415616111	-2.6674571593	-0.0863547329	-0.421001
H	-0.5042481694	 1.7410517684	 0.5216636447	 0.299424
H	 0.8242029099	-0.3783026189	-0.7479321671	 0.126345
H	 0.6678816194	-0.5817153023	 2.1996248401	 0.105923
H	-2.024095129	-0.6541019552	 1.9897926409	 0.226093
H	-1.2253220239	-2.5133718264	 1.2810293054	 0.09044
H	-0.1391977178	-3.3553611122	-0.5587582267	 0.302218
117.669	146.5007	231.1853	286.7593	316.3341	353.7769	369.6523	516.5554	545.2045	563.2149	595.4801	617.939	706.4299	797.3077	823.0725	904.2742	931.325	940.4258	977.6067	1087.3437	1132.2043	1159.4952	1181.8957	1189.3187	1206.1234	1225.0829	1265.7832	1286.1999	1303.9122	1335.254	1429.8291	1464.4879	2345.3591	3023.0462	3141.6569	3173.5476	3396.4887	3732.5969	3816.9436
OC1C2NC1(C#N)C2O	O[C@H]1[C@H]2N[C@]1(C#N)[C@H]2O	
InChI=1S/C5H6N2O2/c6-1-5-3(8)2(7-5)4(5)9/h2-4,7-9H	InChI=1S/C5H6N2O2/c6-1-5-3(8)2(7-5)4(5)9/h2-4,7-9H/t2-,3-,4-,5+/m0/s1
