23
gdb 100030	2.46306	1.20311	1.0062	2.2379	82.07	-0.2478	0.0602	0.308	1315.1092	0.203459	-425.414075	-425.403483	-425.402539	-425.448959	40.305	
C	-1.7304507625	 0.0894445962	 1.5073866519	-0.416512
C	-0.6497088189	 0.0602173107	 0.4463179117	-0.007689
C	 0.0448559208	 1.3221427204	-0.0076639845	-0.306493
C	 0.8324825254	 0.251338376	 0.7072077779	-0.015967
C	 1.481116365	 0.5123116124	 2.0599455121	 0.334295
C	 2.916487479	 1.0307577464	 1.8575066972	-0.413808
O	 0.7241313056	 1.4959024406	 2.76555765	-0.469871
C	 1.4880473304	-0.7765576221	 2.8982029127	-0.110751
O	 1.9845808047	-0.4296790199	 4.1917155935	-0.437157
H	-1.4975426811	 0.8117756919	 2.2901806348	 0.141824
H	-2.6940868222	 0.3581554597	 1.0590973717	 0.106574
H	-1.8553075994	-0.8939235003	 1.9773064634	 0.100665
H	-0.8518330135	-0.6547489046	-0.3490888818	 0.075067
H	 0.2186611621	 1.4851241614	-1.0659158233	 0.100169
H	-0.1617720103	 2.2200577361	 0.5638463084	 0.130489
H	 1.4767968552	-0.353557616	 0.0735117482	 0.074314
H	 2.8893190799	 1.9783884898	 1.314154494	 0.122097
H	 3.4012481018	 1.1912975863	 2.8240676829	 0.12178
H	 3.5214892032	 0.3176997819	 1.2872074583	 0.103079
H	 0.9928753547	 1.4065137126	 3.6893024543	 0.283672
H	 0.4652512417	-1.1668927159	 2.9647419037	 0.101211
H	 2.1222539389	-1.5385866851	 2.4219421066	 0.08866
H	 1.7627233896	-1.1341593686	 4.8060485163	 0.294351
71.8446	126.6818	155.2192	213.1372	222.7438	238.4846	243.5854	277.9423	290.7617	363.105	367.1814	400.0648	437.5384	464.4716	538.8636	633.4323	740.4825	771.776	844.3642	862.4074	922.5603	928.2562	951.2627	981.9614	1028.1472	1063.9648	1074.5455	1075.0826	1121.2962	1133.6747	1153.4484	1170.9011	1203.8375	1209.2974	1246.0741	1264.052	1280.784	1359.9694	1392.9684	1398.947	1419.6369	1436.3519	1442.8912	1488.8679	1490.5352	1497.7085	1503.2734	1504.8549	1514.7746	2995.3156	3022.8099	3039.2293	3051.5699	3072.2201	3110.0109	3112.4379	3128.8775	3130.1009	3135.1246	3148.7246	3223.4086	3767.3122	3846.8068
CC1CC1C(C)(O)CO	C[C@H]1C[C@H]1[C@@](C)(O)CO	
InChI=1S/C7H14O2/c1-5-3-6(5)7(2,9)4-8/h5-6,8-9H,3-4H2,1-2H3	InChI=1S/C7H14O2/c1-5-3-6(5)7(2,9)4-8/h5-6,8-9H,3-4H2,1-2H3/t5-,6+,7-/m0/s1
