16
gdb 34390	2.65659	1.63179	1.31809	4.9205	73.96	-0.2667	-0.0231	0.2435	996.3953	0.125761	-400.750952	-400.743621	-400.742677	-400.782937	27.953	
N	-0.0464183361	-1.1249012741	-0.2252980843	-0.337443
C	-0.039278893	 0.0251728556	-0.1106805758	 0.23704
C	-0.0122734897	 1.4784456043	 0.059731178	 0.288749
O	-0.3683153774	 2.1625642363	-1.1674476132	-0.312913
C	 0.8387446032	 2.9624165592	-1.1177658017	-0.088695
C	 1.3651784066	 2.213565974	 0.1261421452	-0.131546
C	 1.401452125	 2.9699565413	 1.4651150251	-0.286805
C	 0.0048426631	 2.7847960586	 2.0120132212	-0.060756
C	-0.7529959002	 1.9704492695	 1.2781086339	-0.128418
H	 1.4289047368	 2.8470803392	-2.0323534244	 0.120387
H	 0.6166686226	 4.0247822051	-0.9595281623	 0.109656
H	 2.2426881028	 1.5969889649	-0.0602575457	 0.108207
H	 2.153977524	 2.5601797766	 2.1499898125	 0.125304
H	 1.6529355943	 4.0296254657	 1.3310831301	 0.119451
H	-0.3253503415	 3.2754848145	 2.9213045629	 0.114691
H	-1.7776024305	 1.6854984691	 1.4800477484	 0.123091
93.8856	154.7145	168.3074	272.0342	357.9038	471.1693	508.1234	543.3177	570.2321	677.5959	748.8072	764.498	831.8236	890.9636	922.7857	945.5163	982.0781	1005.5479	1014.0056	1055.3769	1077.8779	1094.7031	1136.722	1159.0435	1173.3398	1200.0153	1243.1605	1317.1885	1323.1557	1347.889	1381.0411	1480.9725	1521.7866	1674.6407	2354.0849	3025.5638	3028.0307	3054.7316	3079.6564	3131.297	3192.5408	3226.561
N#CC12OCC1CC=C2	N#C[C@]12OC[C@H]1CC=C2	
InChI=1S/C7H7NO/c8-5-7-3-1-2-6(7)4-9-7/h1,3,6H,2,4H2	InChI=1S/C7H7NO/c8-5-7-3-1-2-6(7)4-9-7/h1,3,6H,2,4H2/t6-,7+/m1/s1
