23
gdb 103840	3.61638	0.83654	0.81522	1.277	87.23	-0.2444	0.0755	0.3198	1545.9666	0.204325	-388.260716	-388.250513	-388.249569	-388.29612	38.139	
C	-0.1129044367	 1.6190438907	-0.020145257	-0.465458
C	-0.0452183281	 0.1043774409	 0.0303400193	 0.35226
C	-1.2976150267	-0.579268721	-0.4701546388	-0.141758
O	-1.4758136756	-0.2577646847	-1.8456604954	-0.421484
C	 1.2697634767	-0.5869216853	-0.2545100774	-0.334256
C	 0.7001720628	-0.604567889	 1.1461307843	-0.058024
C	 1.3608899291	 0.1219495444	 2.2752512549	 0.01739
C	 0.7485252606	 0.1023251583	 3.6557394162	-0.269352
C	 2.024457744	-0.6567032053	 3.385802037	-0.271704
H	 0.8423624561	 2.0829509697	 0.2369990376	 0.109569
H	-0.38464532	 1.9429649692	-1.0286460963	 0.133719
H	-0.8695409597	 2.0052573571	 0.6736977006	 0.109056
H	-1.2062934794	-1.6684882895	-0.3313926101	 0.077561
H	-2.1635801366	-0.2427427565	 0.1239596919	 0.082021
H	-2.3442214038	-0.569871804	-2.1158583867	 0.285095
H	 1.2613396619	-1.5031927368	-0.8354049369	 0.108411
H	 2.1355033036	 0.0427772488	-0.4348682228	 0.10522
H	 0.2616780182	-1.5523340404	 1.4556920527	 0.068704
H	 1.8584730315	 1.0455499045	 1.9962818957	 0.079153
H	 0.7994043373	 1.0025977578	 4.258360688	 0.108912
H	-0.1619609032	-0.4718031207	 3.7947070838	 0.107408
H	 1.9713439305	-1.739843006	 3.3437630519	 0.109059
H	 2.9503656875	-0.2754267224	 3.8022717277	 0.108497
53.5426	87.8746	124.4819	146.1617	211.427	237.8128	265.2895	300.0819	349.7309	370.4853	376.1743	434.4811	592.4675	711.4924	755.9661	805.5385	823.5213	878.2877	907.1105	922.1646	941.7399	971.6611	985.6766	991.5017	1054.4677	1058.3227	1063.8796	1074.2398	1092.4392	1105.9567	1124.516	1132.7644	1197.6498	1213.5998	1235.9834	1242.8073	1248.0744	1279.7955	1339.3107	1364.4714	1413.1377	1450.6623	1460.2864	1469.7186	1488.6919	1494.2717	1505.1906	1515.1502	1517.5054	2956.3862	2987.9031	3030.6672	3097.4353	3107.5091	3120.5469	3125.6397	3127.0351	3132.0818	3152.2213	3204.6544	3208.8208	3220.5435	3829.1428
CC1(CO)CC1C1CC1	C[C@@]1(CO)C[C@H]1C1CC1	
InChI=1S/C8H14O/c1-8(5-9)4-7(8)6-2-3-6/h6-7,9H,2-5H2,1H3	InChI=1S/C8H14O/c1-8(5-9)4-7(8)6-2-3-6/h6-7,9H,2-5H2,1H3/t7-,8-/m0/s1
