20
gdb 65104	2.9915	1.4445	1.18005	2.4372	78.55	-0.2327	0.0747	0.3075	1113.9367	0.170555	-403.084947	-403.076558	-403.075613	-403.117814	32.726	
C	-0.0602055416	 1.5331110142	-0.0192900532	-0.489864
C	-0.0233954471	 0.0217002879	-0.0444734929	 0.306922
C	 1.178890647	-0.6813202593	-0.5230082267	-0.229003
O	 0.9127569356	-0.576205837	 0.8758182082	-0.273083
C	-1.3360372267	-0.6871044769	-0.1145329632	 0.323592
C	-2.5473609374	-0.1518358207	-0.7722330749	-0.292863
N	-2.5518440303	-0.2396422483	 0.6989165401	-0.169248
C	-2.8102922183	-1.6903931117	 1.010953163	-0.151154
C	-1.5385763271	-2.1574767844	 0.2576138005	-0.325558
H	 0.9316802404	 1.9205897513	 0.2231296293	 0.128652
H	-0.3647657252	 1.940313559	-0.9886054204	 0.120997
H	-0.7698931463	 1.8787115165	 0.7379402263	 0.151553
H	 1.0943795933	-1.6841724916	-0.9406386358	 0.109862
H	 2.0272951091	-0.1016756282	-0.8858444506	 0.112493
H	-2.5305597739	 0.8709938945	-1.1336654001	 0.119876
H	-3.1850363466	-0.8223833399	-1.3468930423	 0.106468
H	-2.7683252874	-1.8516732883	 2.0893371986	 0.116958
H	-3.7741826177	-2.0471444386	 0.632626665	 0.102979
H	-1.6610372408	-2.8596815491	-0.5721133924	 0.097018
H	-0.759819809	-2.5189347995	 0.9291046114	 0.133402
68.4509	162.8721	193.4147	220.8843	291.1252	318.6397	379.3889	412.5088	465.3573	523.7439	572.7765	743.9361	774.0252	789.6079	806.6676	844.074	886.4814	925.7897	938.6215	970.4571	1000.4639	1021.7068	1080.1704	1101.0156	1107.52	1125.0069	1134.8002	1163.5174	1167.8758	1200.5719	1222.877	1263.3542	1283.1938	1323.059	1362.773	1409.0737	1418.3016	1481.5358	1487.0485	1494.2552	1504.2759	1516.9009	1529.3245	3043.7101	3045.2154	3058.8542	3076.2894	3095.3638	3112.8184	3113.4221	3133.2167	3139.9184	3160.6188	3197.9578
CC1(CO1)C12CN1CC2	C[C@]1(CO1)[C@]12CN1CC2	
InChI=1S/C7H11NO/c1-6(5-9-6)7-2-3-8(7)4-7/h2-5H2,1H3	InChI=1S/C7H11NO/c1-6(5-9-6)7-2-3-8(7)4-7/h2-5H2,1H3/t6-,7-,8?/m0/s1
