21
gdb 39243	2.57166	2.09434	1.47912	0.5763	86.75	-0.219	0.0138	0.2328	965.0028	0.186821	-349.94912	-349.942328	-349.941384	-349.979982	29.037	
C	-0.1358481082	 1.3317541769	 0.2626862368	-0.325842
C	 1.4210111374	 1.4405839103	-0.0049455462	-0.024179
C	 2.4026592296	 1.0068830207	 1.1058993294	-0.215916
C	 2.5943005822	-0.5354482513	 1.018144567	-0.218469
C	 2.1457697716	-1.0064455984	-0.4042662352	-0.014935
C	 1.0687371979	-2.1374576916	-0.3252918146	-0.255741
C	-0.1747009172	-1.3440028085	 0.0891038259	-0.20577
C	-0.0157601538	-0.0759948976	-0.2836347908	 0.265237
C	 1.3257015326	 0.1839719487	-0.930405695	-0.066416
H	-0.5015590063	 1.4371672525	 1.2883189874	 0.103017
H	-0.6823651394	 2.0295888878	-0.3808264586	 0.105358
H	 1.7177820891	 2.3874525847	-0.462216389	 0.06548
H	 3.3596601376	 1.5071755838	 0.9213496488	 0.098991
H	 2.0796737763	 1.3188865031	 2.1046815571	 0.096148
H	 3.6331987062	-0.8130744507	 1.2188831281	 0.092984
H	 1.9891466079	-1.0341513905	 1.7801274779	 0.10219
H	 3.003646454	-1.2812341356	-1.0261438221	 0.053356
H	 0.9544300661	-2.6586543148	-1.2862911198	 0.097916
H	 1.3256190436	-2.9025010373	 0.4167365848	 0.097752
H	-0.9436362471	-1.7435129927	 0.7408880212	 0.086607
H	 1.33999407	 0.3613485103	-2.0090967031	 0.062234
116.2509	245.589	325.9561	339.9052	388.4331	537.6553	587.2665	674.4175	696.6309	744.8022	777.5931	819.0902	822.8175	850.3914	875.1134	910.2196	917.8813	937.3512	946.7646	959.5363	984.8298	1025.2551	1043.4428	1066.3281	1110.0073	1129.2006	1137.3865	1161.7335	1202.3161	1215.0355	1226.3171	1238.9729	1249.817	1266.3119	1297.9406	1307.572	1322.6009	1330.0267	1350.4588	1354.3371	1475.4145	1486.3561	1487.9994	1505.5979	1712.2394	3006.1121	3035.5865	3038.0254	3050.0798	3055.3707	3059.0887	3064.7175	3073.2629	3079.0239	3092.1708	3099.722	3190.7987
C1C2CCC3CC=C1C23	C1[C@H]2CC[C@H]3C[CH][C]1[C@@H]23	
InChI=1S/C9H12/c1-3-7-5-8-4-2-6(1)9(7)8/h3,6,8-9H,1-2,4-5H2	InChI=1S/C9H12/c1-3-7-5-8-4-2-6(1)9(7)8/h3,6,8-9H,1-2,4-5H2/t6-,8-,9+/m1/s1
