17
gdb 8817	2.93353	1.49251	1.04333	2.2879	69.11	-0.2668	-0.0341	0.2327	1129.4507	0.139518	-363.905971	-363.896557	-363.895613	-363.941103	32.243	
C	 0.0583619779	 1.5822549541	-0.1542608922	-0.383349
C	-0.3928512573	 0.1636890254	-0.4932522256	-0.289099
C	-1.0980183643	-0.5329779427	 0.6533586432	 0.386761
O	-1.3809470602	 0.0153283948	 1.6881734445	-0.285607
C	-1.4128710324	-2.0501014497	 0.4796688627	-0.240389
C	-2.3973006339	-2.561910333	 1.5432546158	-0.38688
C	-1.8630561814	-2.3617266186	-0.8769578367	 0.271949
N	-2.2326464231	-2.5994368456	-1.9463791523	-0.326785
H	 0.5465859072	 2.0432963915	-1.0166700737	 0.119021
H	-0.7929424417	 2.2026002777	 0.1355322815	 0.138376
H	 0.7619854059	 1.5819231221	 0.6824483932	 0.130556
H	-1.0790332167	 0.1572392943	-1.3505852179	 0.158004
H	 0.4500563609	-0.4657761347	-0.8103742726	 0.128162
H	-0.4432623233	-2.5538484647	 0.6129986236	 0.151501
H	-2.0263585794	-2.2960700419	 2.5336556114	 0.148115
H	-3.3785699958	-2.10040105	 1.4129996292	 0.145823
H	-2.5073286424	-3.6459249192	 1.4717283158	 0.13384
33.2419	66.584	132.8091	182.9868	193.3905	217.2007	241.2846	311.0927	381.0724	459.6012	507.5463	571.693	656.733	729.8439	808.5718	869.0559	974.1302	999.6994	1020.232	1095.3154	1106.5772	1131.3554	1145.4071	1252.733	1292.4327	1307.3596	1375.1391	1410.7129	1415.2117	1444.6324	1486.9173	1493.8253	1494.8244	1498.1632	1822.8311	2352.4988	3005.3477	3025.8201	3053.132	3054.8696	3064.9301	3125.3011	3131.5887	3141.0628	3156.3638
CCC(=O)C(C)C#N	CCC(=O)[C@@H](C)C#N	
InChI=1S/C6H9NO/c1-3-6(8)5(2)4-7/h5H,3H2,1-2H3	InChI=1S/C6H9NO/c1-3-6(8)5(2)4-7/h5H,3H2,1-2H3/t5-/m0/s1
