18
gdb 34683	2.6308	1.79584	1.39641	1.541	80.81	-0.2203	0.0278	0.2481	976.3833	0.148025	-364.692691	-364.685257	-364.684313	-364.724155	30.336	
C	-0.5786968632	-1.2074703502	-0.2853681815	-0.431625
C	-0.2413443535	-0.0719750239	-0.0721619089	 0.307157
C	-0.007891506	 1.3405235864	 0.0742636349	-0.169079
C	 0.4866249483	 2.1050903549	 1.2454288688	-0.059955
C	 1.6705303207	 1.521793905	 2.0328052326	-0.040891
C	 1.8366352833	-0.018847426	 2.1862098242	-0.250195
C	 2.6245531406	-0.053378741	 0.8319566665	-0.237988
C	 2.4298028256	 1.4798817313	 0.6926408766	 0.037097
N	 1.2639114467	 2.1054314984	-0.070999505	-0.183202
H	-0.8416365562	-2.2237632059	-0.4467841195	 0.198292
H	-0.7703655541	 1.8997519245	-0.469410831	 0.128806
H	-0.0607612899	 2.9872927294	 1.5690559712	 0.097681
H	 1.9922629731	 2.1527866249	 2.8606567931	 0.075847
H	 2.4495763379	-0.2890520076	 3.0491639638	 0.099313
H	 0.914681003	-0.5988354363	 2.2192046345	 0.119345
H	 3.6803361891	-0.3071976613	 0.96044759	 0.09917
H	 2.2146608848	-0.6752711814	 0.0383650604	 0.125918
H	 3.3152277698	 2.083335159	 0.4929206991	 0.084309
136.6701	168.9791	239.4744	280.8976	344.0518	411.6231	569.4513	609.7999	618.9062	658.5292	668.1698	680.7844	716.2514	727.3702	848.5668	865.8978	874.7161	893.6777	920.7712	958.2769	979.7754	1038.4001	1069.9299	1074.3955	1111.6824	1128.9861	1176.8425	1211.8665	1235.9324	1254.6138	1265.9972	1273.9006	1302.7896	1317.0898	1360.2507	1413.1215	1470.4677	1490.6707	2223.6366	3065.5403	3075.7428	3097.2232	3103.3893	3114.0803	3134.8749	3138.1182	3152.4393	3500.8855
C#CC1C2C3CCC3N12	C#C[C@H]1[C@H]2[C@H]3CC[C@H]3N12	
InChI=1S/C8H9N/c1-2-6-8-5-3-4-7(5)9(6)8/h1,5-8H,3-4H2	InChI=1S/C8H9N/c1-2-6-8-5-3-4-7(5)9(6)8/h1,5-8H,3-4H2/t5-,6-,7+,8+,9?/m0/s1
