18
gdb 38202	3.31742	1.8522	1.50794	1.7632	74.59	-0.2463	0.0108	0.2571	901.0068	0.151926	-401.935322	-401.929189	-401.928245	-401.965481	26.3	
C	-0.0056353778	 1.6263706235	 0.013060724	-0.256981
C	 1.515588845	 1.3424443174	 0.0144291787	-0.027804
C	 1.1635381797	 0.0896654874	 0.9127990384	-0.316391
C	-0.0725694054	 0.0689651316	-0.0189870751	 0.371015
N	-1.3782557328	-0.5763536969	-0.0742487704	-0.365661
C	-1.5716826454	-0.6860291196	-1.3322116703	 0.074011
O	-0.5715536887	-0.3655790671	-2.2166457525	-0.256293
C	 0.5833311889	-0.294683285	-1.3449012268	 0.120566
C	 1.6832883899	 0.7815334808	-1.4318343552	-0.271661
H	-0.3785071599	 2.0195489981	 0.9602838662	 0.107071
H	-0.4323581194	 2.1768284362	-0.8293766384	 0.09923
H	 2.2376123894	 2.084963979	 0.351694113	 0.071625
H	 1.8296517392	-0.7777164143	 0.8948535972	 0.095564
H	 0.9461954997	 0.3855262829	 1.9403483148	 0.112613
H	-2.4944205617	-1.0081409346	-1.8025706245	 0.135792
H	 1.009774726	-1.3058409568	-1.3258803134	 0.085034
H	 1.4826732185	 1.5494055699	-2.1835578181	 0.119404
H	 2.6650911249	 0.3475788773	-1.6357177776	 0.102866
199.4066	292.1674	387.9826	406.2297	493.5102	558.9182	578.9645	620.9651	703.1882	813.8	821.8154	847.2738	871.0171	905.1161	933.1679	953.3958	961.542	992.3798	999.4819	1034.2954	1063.4308	1079.3682	1092.0266	1105.9403	1139.1255	1190.1679	1194.5379	1227.9009	1241.5342	1261.2098	1275.4928	1318.9508	1326.4839	1335.7066	1409.2147	1484.4569	1491.9589	1523.174	1630.2188	3017.7235	3057.9375	3064.5022	3068.4147	3113.9499	3124.7627	3128.6734	3134.644	3211.7515
C1C2CC11N=COC1C2	C1[C@H]2C[C@]31[N][CH]O[C@H]3C2	
InChI=1S/C7H9NO/c1-5-2-7(3-5)6(1)9-4-8-7/h4-6H,1-3H2	InChI=1S/C7H9NO/c1-5-2-7(3-5)6(1)9-4-8-7/h4-6H,1-3H2/t5-,6-,7-/m0/s1
