15
gdb 36263	5.61983	1.0018	0.96956	3.2976	69.01	-0.2525	0.0109	0.2635	1179.3546	0.111948	-416.683872	-416.67677	-416.675826	-416.716056	26.987	
N	-0.0149724518	-1.2317577489	 0.0084469942	-0.301072
C	-0.034730857	-0.0792768813	-0.0640151453	 0.282167
C	-0.0659994248	 1.3850377063	-0.1293226885	-0.295593
N	 1.2885696333	 1.9360250259	-0.0386369847	-0.127502
C	 1.8772244597	 1.9681203164	 1.3362786597	-0.073167
C	 2.7063621892	 3.2381677896	 0.9932969183	 0.087626
O	 2.3021825301	 3.9781111612	 2.1767731685	-0.319167
C	 1.0984203173	 3.2538045229	 1.8107778298	 0.075216
C	 1.3437945395	 3.3994746548	 0.2606198814	-0.073709
H	-0.4976218725	 1.6807777218	-1.0925011751	 0.159048
H	-0.7531307369	 1.7436903733	 0.6570646361	 0.134924
H	 2.1667495583	 1.0770415389	 1.8920481602	 0.117677
H	 3.7215850232	 3.3329373695	 0.6149370916	 0.118574
H	 0.2126593893	 3.3892977559	 2.4302959227	 0.111349
H	 1.0152040031	 4.1745781637	-0.4322395889	 0.103631
59.0698	126.2294	228.0044	303.3171	390.4089	466.3954	542.6314	599.6327	745.5004	761.2203	777.941	807.8918	820.1009	886.838	904.9639	943.4652	964.714	994.7625	1042.7387	1052.7475	1093.1701	1103.7153	1156.5652	1159.3784	1165.0323	1182.2477	1189.2462	1264.0838	1286.8465	1341.1849	1375.723	1475.2151	2367.9976	2955.7067	3062.4554	3117.6899	3128.0548	3137.8166	3158.9523
N#CCN1C2C3OC2C13	N#CCN1[C@H]2[C@@H]3O[C@H]2[C@H]13	
InChI=1S/C6H6N2O/c7-1-2-8-3-5-4(8)6(3)9-5/h3-6H,2H2	InChI=1S/C6H6N2O/c7-1-2-8-3-5-4(8)6(3)9-5/h3-6H,2H2/t3-,4+,5-,6+
