18
gdb 54731	2.99326	1.37975	1.34714	3.6001	74.43	-0.2125	0.0299	0.2423	1038.9827	0.147865	-401.899444	-401.891394	-401.89045	-401.93217	31.614	
N	 0.8912292797	-0.1509131022	 1.0546489136	-0.504777
C	 0.0465301172	 0.1572218315	 0.0231769034	 0.326627
O	 0.1726482493	 1.1535310794	-0.6592869337	-0.360743
C	-1.1313420061	-0.7912243299	-0.1009528789	-0.107538
C	-1.6842440002	-1.4810594443	-1.313120154	-0.078146
C	-0.6710469756	-2.2081978017	-2.2385400708	-0.04149
C	 0.7641732846	-2.0965435674	-1.8173030045	-0.310465
C	-0.1590956598	-3.0107739683	-1.0535532235	-0.062925
C	-1.181474993	-2.2984769885	-0.1202072612	-0.117946
H	 1.7170388759	 0.4135726267	 1.1747044364	 0.258382
H	 0.8619110967	-1.0595166208	 1.4839476295	 0.263059
H	-1.9511598651	-0.3960573499	 0.5008057079	 0.122028
H	-2.7112405634	-1.3234897803	-1.6167401144	 0.094103
H	-0.9591438185	-2.5684896924	-3.2172510847	 0.090992
H	 1.4513339905	-2.6281733882	-2.4701689522	 0.111444
H	 1.1851943434	-1.1880423728	-1.4094544777	 0.139087
H	 0.0139228944	-4.0774012844	-0.9924267191	 0.08908
H	-1.77418861	-2.8552210863	 0.5955606637	 0.089228
65.0782	123.4462	164.6547	285.4308	314.4305	354.0629	475.4595	521.8618	574.8144	626.1985	677.359	692.009	713.8644	730.7527	801.105	865.9333	895.9094	905.1871	917.8743	940.0599	1004.6336	1025.1301	1031.4395	1052.47	1066.9376	1073.9103	1092.9491	1107.9952	1150.0244	1199.3799	1263.1502	1291.1032	1308.5298	1329.4277	1359.1415	1436.7432	1500.7282	1607.4302	1796.7844	3103.572	3136.9099	3176.0878	3189.6048	3191.865	3202.7606	3234.1258	3594.6184	3732.2127
NC(=O)C1C2C3CC3C12	NC(=O)[C@H]1[C@H]2[C@H]3C[C@H]3[C@@H]12	
InChI=1S/C7H9NO/c8-7(9)6-4-2-1-3(2)5(4)6/h2-6H,1H2,(H2,8,9)	InChI=1S/C7H9NO/c8-7(9)6-4-2-1-3(2)5(4)6/h2-6H,1H2,(H2,8,9)/t2-,3+,4-,5+,6-
