20
gdb 107003	2.8929	1.25777	1.04481	2.2095	74.59	-0.242	0.0563	0.2982	1198.9126	0.170486	-440.235608	-440.226312	-440.225368	-440.269568	35.102	
C	-0.3089863793	 1.486936658	-0.0222204428	-0.414253
C	-0.0579262795	-0.0114757678	-0.075361468	-0.070717
C	 1.1429050213	-0.5599380985	-0.9612298659	 0.136054
O	 1.9966818559	 0.3650407415	-1.5720219266	-0.431936
C	 1.6891625861	-1.2571223212	 0.2932086656	-0.168105
N	 1.974670433	-0.1330670372	 1.2252617132	-0.403646
C	 0.5941794229	-0.7001954021	 1.1344591752	 0.325397
C	-0.0948677435	-1.2510018667	 2.3418420854	-0.188432
O	-0.6805009343	-0.2356000333	 3.1459382247	-0.409034
H	 0.5902270445	 2.025740343	 0.2873795178	 0.119241
H	-0.6088313937	 1.8674098512	-1.0034109229	 0.120851
H	-1.1044658108	 1.7152606151	 0.6941921836	 0.120781
H	-0.9749242949	-0.5456127674	-0.3469041541	 0.073561
H	 0.8036609307	-1.2499157271	-1.7366703233	 0.087226
H	 2.4331234681	 0.8314091806	-0.8460433892	 0.292325
H	 2.2363371395	-2.1892828274	 0.3751721959	 0.095442
H	 2.4257315435	-0.535311806	 2.0469112608	 0.22759
H	-0.9253138406	-1.8975971816	 2.0378379525	 0.117742
H	 0.6087497897	-1.8733731327	 2.921637333	 0.081841
H	 0.0049466017	 0.4114976397	 3.3437379452	 0.288071
83.7477	102.0334	164.7858	182.0009	224.4286	256.0083	308.0513	362.6975	380.3897	457.7836	505.0608	595.1026	627.0422	674.5187	708.8754	780.6114	868.8063	882.6179	947.8058	967.5867	979.1748	1025.6667	1040.4092	1061.8966	1103.1265	1116.7863	1130.9884	1152.0914	1188.5631	1205.8382	1245.3958	1281.679	1293.9179	1341.6234	1354.4855	1381.0723	1403.6717	1413.2729	1444.7993	1456.115	1486.9336	1497.5735	1504.9371	2954.7803	3040.5175	3048.9066	3067.1176	3093.5797	3108.485	3119.5911	3180.3776	3467.2822	3753.9597	3810.0102
CC1C(O)C2NC12CO	C[C@H]1[C@@H](O)[C@H]2N[C@@]12CO	
InChI=1S/C6H11NO2/c1-3-4(9)5-6(3,2-8)7-5/h3-5,7-9H,2H2,1H3	InChI=1S/C6H11NO2/c1-3-4(9)5-6(3,2-8)7-5/h3-5,7-9H,2H2,1H3/t3-,4+,5+,6-/m0/s1
