21
gdb 37799	2.37457	2.05535	1.60992	1.326	80.28	-0.2397	0.0756	0.3153	949.1377	0.187392	-387.09774	-387.090958	-387.090013	-387.128441	29.163	
C	-0.0653915679	 1.5176408843	 0.1814303222	-0.257032
C	 1.3361551344	 2.0852219715	 0.0013719418	-0.063859
C	 2.3194891484	 0.9510413477	 0.2337445891	-0.055161
C	 1.5140787803	-0.3185985177	 0.4659006164	-0.231218
C	 0.0813482124	-0.0040656007	-0.0368121139	 0.101311
O	-0.1288283108	-0.4332010371	-1.3805123969	-0.266271
C	 0.2892047834	 0.4345290624	-2.4156334663	-0.069854
C	 1.7639272715	 0.8398793877	-2.3750537797	-0.244495
C	 2.2213590789	 1.5910587866	-1.1303141655	-0.023701
H	-0.3838204008	 1.6936210202	 1.2160171406	 0.098716
H	-0.8316257237	 1.9577023642	-0.4630642286	 0.106633
H	 1.531624854	 3.079555823	 0.3887435082	 0.077085
H	 3.2265960014	 1.0986718168	 0.8099702707	 0.075067
H	 1.9088044698	-1.2027446965	-0.0446060802	 0.103888
H	 1.4856422536	-0.5440629453	 1.5388472648	 0.094887
H	-0.6630986556	-0.5635229338	 0.5361960262	 0.080969
H	 0.0885428626	-0.1147644752	-3.3411820275	 0.101747
H	-0.3319802311	 1.342406918	-2.4420598273	 0.089159
H	 2.3887802349	-0.0519796004	-2.514622792	 0.104523
H	 1.937008873	 1.4765947169	-3.2521784263	 0.096901
H	 3.0453973415	 2.2695056072	-1.3369238558	 0.080706
168.0721	246.2634	335.1783	378.2092	422.2713	448.024	468.2603	605.1859	682.9985	716.042	762.7385	781.2652	797.6911	860.5109	879.9407	894.9339	920.5376	969.1382	986.0145	1031.6929	1045.8663	1055.1274	1064.9526	1071.7066	1102.7544	1125.3365	1150.7929	1181.4765	1204.6072	1239.9791	1245.8827	1263.0986	1304.6317	1317.8854	1320.7475	1359.8903	1361.764	1377.0703	1397.5813	1419.9007	1439.4012	1472.1745	1481.6617	1491.526	1514.0656	2988.1022	3015.3889	3032.2563	3035.4955	3052.4919	3070.5264	3073.1159	3083.6198	3086.6229	3130.1376	3155.6132	3167.5056
C1C2C3CC1OCCC23	C1[C@H]2[C@H]3C[C@@H]1OCC[C@@H]23	
InChI=1S/C8H12O/c1-2-9-5-3-7-6(1)8(7)4-5/h5-8H,1-4H2	InChI=1S/C8H12O/c1-2-9-5-3-7-6(1)8(7)4-5/h5-8H,1-4H2/t5-,6+,7-,8+
