13
gdb 77790	2.66767	1.46038	1.10706	3.3543	65.66	-0.2683	-0.041	0.2273	1049.8547	0.089028	-452.735356	-452.727596	-452.726652	-452.767858	28.389	
N	 0.1162733916	 1.4584003342	 0.1369535952	-0.511069
C	 0.0140328512	 0.0420602527	 0.0850160991	-0.041258
C	-0.4155882136	-0.8164601476	 1.2694755524	-0.330219
C	-1.619234555	-0.1768569969	 1.9133218802	 0.461372
O	-1.9844621263	 0.1395615616	 2.9927498141	-0.298727
O	-2.3218191854	-0.0423069639	 0.7096524066	-0.28861
C	-1.2746130945	-0.7563060759	 0.0020241233	 0.30225
C	-1.6347120725	-1.7612724331	-0.9353866706	 0.224088
N	-1.8852764594	-2.5657591282	-1.7286797972	-0.331228
H	 0.210617797	 1.8427747265	-0.7976378544	 0.25333
H	-0.7034638023	 1.8809935612	 0.561542602	 0.261741
H	 0.8295659805	-0.4215115181	-0.4649218213	 0.143842
H	 0.1857788487	-1.6141181526	 1.6811900006	 0.154489
107.8675	151.6256	158.7157	200.83	281.0636	410.9609	454.6659	511.5919	529.3239	541.5205	652.4114	715.7833	754.4986	828.6347	839.0129	905.8325	934.6911	980.1243	1007.6855	1059.7717	1140.3682	1180.0281	1226.0435	1267.3509	1314.4896	1462.926	1666.1344	1963.0147	2349.1356	3156.6273	3232.1856	3506.4559	3587.4813
NC1C2C(=O)OC12C#N	N[C@H]1[C@H]2C(=O)O[C@@]12C#N	
InChI=1S/C5H4N2O2/c6-1-5-2(3(5)7)4(8)9-5/h2-3H,7H2	InChI=1S/C5H4N2O2/c6-1-5-2(3(5)7)4(8)9-5/h2-3H,7H2/t2-,3-,5+/m0/s1
