12
gdb 129227	3.05222	1.59196	1.18678	2.8016	67.7	-0.2614	-0.1071	0.1543	968.1764	0.078137	-464.938794	-464.931647	-464.930703	-464.970994	25.996	
N	-0.0361163703	 1.1400861627	 0.5803020399	-0.488449
C	 0.0516372646	-0.00034292	 0.0350790227	 0.407073
N	-1.179795648	-0.6579207539	-0.2463412196	-0.206077
N	-1.5488223297	-1.9390046316	-0.3426635247	-0.034498
N	-0.7956882264	-2.911036076	-0.0750681575	-0.203185
C	 0.5729707691	-2.8210313866	 0.2821086101	 0.357252
O	 1.0658539079	-3.6046069158	 1.0536574593	-0.276907
C	 1.450783013	-1.8143881019	-0.4146378994	-0.05137
N	 1.2323701462	-0.5630630293	-0.4657288384	-0.210109
H	 0.8802278388	 1.5872894548	 0.6000354569	 0.24904
H	-1.9769085818	-0.0351214743	-0.2749980484	 0.29417
H	 2.3934830066	-2.1975955582	-0.8075797809	 0.163059
66.6222	113.6654	249.26	319.3299	393.417	418.2384	465.4539	549.5687	645.4457	672.0812	707.2461	726.5025	774.3725	871.2712	875.1321	934.0229	957.254	1060.3557	1122.0049	1214.782	1307.7429	1374.585	1436.8756	1579.5626	1704.7013	1729.1281	1797.6103	3130.0212	3505.3629	3596.5386
N=C1NN=NC(=O)C=N1	[NH][C]1NN=NC(=O)C=N1	
InChI=1S/C3H3N5O/c4-3-5-1-2(9)6-8-7-3/h1H,(H2,4,6,7,9)	InChI=1S/C3H3N5O/c4-3-5-1-2(9)6-8-7-3/h1H,(H2,4,6,7,9)
