18
gdb 121069	2.71244	1.21391	1.08284	3.2061	69.88	-0.2642	0.0284	0.2926	1208.8573	0.147188	-476.220893	-476.212015	-476.211071	-476.255431	31.407	
C	-0.1989390768	 0.9924998388	-0.2934147165	-0.226876
O	-0.0504067162	-0.3885805427	-0.0528025727	-0.235784
C	 0.7145998526	-0.6757318679	 1.0883038471	-0.087154
C	 0.8330783946	-2.1893381809	 1.2286740997	 0.194097
O	-0.4153966585	-2.8269483315	 1.341814681	-0.263411
C	-0.766773455	-3.3160757607	 0.0531726894	-0.163253
C	 0.5483981066	-3.3760405458	-0.6906684617	 0.395873
N	 0.7508401026	-3.9181747163	-1.8081819725	-0.539812
O	 1.4803297071	-2.7455087598	 0.0839830615	-0.238143
H	 0.7741327615	 1.4833595679	-0.4475741678	 0.110977
H	-0.7985252132	 1.1014045075	-1.1996174217	 0.135663
H	-0.7132445745	 1.4964476495	 0.5392018829	 0.110281
H	 1.7268616928	-0.2439365554	 1.014957826	 0.098523
H	 0.2418675924	-0.2789795517	 2.0021061762	 0.100772
H	 1.4328698157	-2.4299345426	 2.1144727056	 0.101989
H	-1.2207860745	-4.3045179126	 0.1536012852	 0.139136
H	-1.4628339541	-2.6415470593	-0.4574129826	 0.140811
H	 1.722794967	-3.8066042665	-2.098918349	 0.226309
58.9452	81.7833	116.6804	165.0703	211.3368	226.9366	345.66	351.0833	450.0766	529.8727	647.9197	671.7522	815.2181	853.2608	875.9884	888.3053	935.5638	1027.3037	1037.2383	1046.9104	1055.6916	1071.1226	1154.6437	1184.123	1200.8392	1210.9201	1230.6315	1260.7978	1287.7524	1351.5475	1391.727	1397.9926	1416.2908	1476.9906	1486.0029	1494.4018	1498.5937	1519.2278	1800.9972	2961.3055	2979.9537	2999.2796	3026.4112	3047.0749	3050.5826	3108.9913	3123.3076	3484.1513
COCC1OCC(=N)O1	COC[C@H]1OC[C]([NH])O1	
InChI=1S/C5H9NO3/c1-7-3-5-8-2-4(6)9-5/h5-6H,2-3H2,1H3	InChI=1S/C5H9NO3/c1-7-3-5-8-2-4(6)9-5/h5-6H,2-3H2,1H3/t5-/m0/s1
