23
gdb 38870	2.55053	2.01489	1.83457	0.0239	86.03	-0.2752	0.0848	0.3599	929.3408	0.213276	-351.180042	-351.173896	-351.172951	-351.209938	28.651	
C	-0.0206159021	 1.5909308949	 0.0155532939	-0.206044
C	 1.5220263245	 1.7065388747	-0.000718974	-0.016878
C	 1.7892898517	 1.0486243341	 1.3663609544	-0.20667
C	 1.1066164375	-0.3201313664	 1.0910254478	-0.003775
C	 2.2235367011	-1.2108575675	 0.5024531814	-0.210882
C	 2.9619290503	-0.3752911771	-0.5858671682	-0.210882
C	 1.9591226148	 0.6676837687	-1.1279983926	-0.003775
C	 0.6522254871	-0.1316277004	-1.3896591303	-0.206671
C	 0.0055349868	 0.0442029443	-0.0025529137	-0.016879
H	-0.4605918337	 2.035647997	 0.9122370753	 0.083808
H	-0.5249642681	 2.0076643781	-0.8604374538	 0.083808
H	 1.9409378682	 2.7061340995	-0.131173112	 0.050366
H	 2.8437808864	 0.9387032247	 1.6316679638	 0.085041
H	 1.3101225943	 1.6189553976	 2.1676731487	 0.084037
H	 0.6586435068	-0.7738820058	 1.9778270936	 0.055787
H	 2.9156164991	-1.5124021224	 1.2959364534	 0.088793
H	 1.8131468215	-2.1343132239	 0.0815912325	 0.093394
H	 3.853852053	 0.1088904743	-0.1755541457	 0.093394
H	 3.3063491582	-1.0192828111	-1.4020587283	 0.088793
H	 2.3487406014	 1.1746695085	-2.0135207063	 0.055787
H	 0.0215297234	 0.3105070909	-2.1666529841	 0.084038
H	 0.8515935342	-1.1655293881	-1.6824412719	 0.085041
H	-0.9482295563	-0.4674762349	 0.139620016	 0.050366
300.5764	329.2675	404.7628	472.6949	496.6894	536.9134	602.813	604.7905	741.1429	759.553	804.1152	819.9723	855.4665	880.8226	886.4396	915.538	923.1196	941.1404	956.2734	962.8299	973.7667	1000.9852	1042.3285	1043.3648	1080.6401	1089.872	1104.2791	1110.6719	1142.7154	1160.2093	1208.9564	1210.1041	1232.3166	1237.6637	1277.0435	1300.367	1305.7238	1307.4711	1310.3053	1316.9924	1324.8284	1344.4812	1360.6279	1365.3294	1488.7789	1491.1183	1512.5896	1521.0435	1542.1618	3034.5331	3043.1748	3049.3879	3050.5685	3057.5475	3064.9078	3074.3745	3076.1735	3080.9142	3091.2693	3094.6689	3095.0834	3099.3836	3103.7948
C1C2CC3CCC2CC13	C1[C@H]2C[C@@H]3CC[C@H]2C[C@H]13	
InChI=1S/C9H14/c1-2-7-4-8-5-9(7)3-6(1)8/h6-9H,1-5H2	InChI=1S/C9H14/c1-2-7-4-8-5-9(7)3-6(1)8/h6-9H,1-5H2/t6-,7-,8+,9+/m0/s1
