18
gdb 78738	3.39658	1.25666	1.20816	2.8894	79.18	-0.221	-0.0163	0.2047	1099.0407	0.147224	-401.887636	-401.879774	-401.87883	-401.920009	30.269	
C	 0.017549769	 1.5241113093	-0.0331743177	-0.336047
N	 0.0262094282	 0.0743053703	 0.1077544167	-0.069801
C	-0.8956352866	-0.5657899329	 1.0155477122	-0.058238
C	 0.0485804307	-1.6318310917	 1.3860651076	-0.160876
C	 1.1248676269	-0.6045481626	 0.8621889695	-0.030927
C	 1.1634126982	 0.0259668893	 2.2878273121	-0.309816
C	-0.2202158847	-0.5795660375	 2.4731936794	 0.247232
C	-1.0394204162	-0.7092411929	 3.6704519285	 0.032868
O	-0.8076412275	-0.1679274758	 4.7292425068	-0.277341
H	 0.8921158295	 1.8297403502	-0.6160252052	 0.12579
H	-0.8762951799	 1.8149933415	-0.594459177	 0.127033
H	 0.0170765184	 2.0791725254	 0.9164096401	 0.114146
H	-1.9722214302	-0.5710811618	 0.8976920773	 0.111903
H	-0.0171134655	-2.7095506905	 1.4087688615	 0.11351
H	 2.0337219579	-0.8307947104	 0.3076694107	 0.0874
H	 1.8922120552	-0.4899707003	 2.917268105	 0.118773
H	 1.3028638743	 1.1060951876	 2.3787835677	 0.10786
H	-1.9403857078	-1.3559195873	 3.5414152047	 0.05653
95.489	157.2783	191.0297	213.4042	294.7093	342.3117	435.2954	476.0034	578.8238	627.768	678.2989	738.6466	787.3911	843.3095	887.2183	903.7047	931.3901	953.4956	1014.5285	1029.0055	1040.911	1056.9734	1106.5213	1127.4083	1137.7089	1157.0643	1182.0523	1223.747	1227.1417	1247.5235	1289.6263	1337.1598	1378.8711	1438.0597	1448.3705	1482.8663	1496.5148	1517.7189	1789.2846	2838.8992	2995.184	3065.2692	3073.3893	3106.3665	3119.3043	3135.7388	3195.7588	3229.3831
CN1C2C3C1CC23C=O	CN1[C@H]2[C@H]3[C@@H]1C[C@@]23C=O	
InChI=1S/C7H9NO/c1-8-4-2-7(3-9)5(4)6(7)8/h3-6H,2H2,1H3	InChI=1S/C7H9NO/c1-8-4-2-7(3-9)5(4)6(7)8/h3-6H,2H2,1H3/t4-,5+,6-,7-/m0/s1
