21
gdb 81705	2.6965	1.56219	1.30637	2.0126	77.45	-0.2463	0.0849	0.3312	1072.0764	0.184855	-424.213129	-424.205364	-424.20442	-424.244831	31.576	
C	 0.0013422004	 1.5676737003	 0.0058489504	-0.428116
C	-0.012710164	 0.0411875454	-0.0247371986	-0.006315
C	 0.7597584007	-0.589821522	-1.227291919	-0.031413
C	 2.0134477761	-0.6848392395	-0.3102024037	-0.2451
C	 1.0500266527	-0.6098996273	 0.9101435617	 0.13069
O	 0.7050777422	-1.8824206222	 1.439276668	-0.26727
C	-0.0521364253	-2.7432273787	 0.6224073975	 0.016314
O	 0.4954458423	-2.9847312469	-0.6447510491	-0.238819
C	 0.2443949507	-1.9781159005	-1.6225579183	-0.105686
H	 1.0117437769	 1.970186667	-0.1222416258	 0.118408
H	-0.6217522383	 1.9799167089	-0.7950898373	 0.116269
H	-0.3864718179	 1.9429891897	 0.9589953952	 0.119245
H	-1.0410040103	-0.3060405491	 0.117147232	 0.067744
H	 0.8335057977	 0.034242778	-2.1240224388	 0.064221
H	 2.6225325636	-1.5863312046	-0.380405892	 0.114536
H	 2.6516963309	 0.1987400419	-0.3811199776	 0.098153
H	 1.3779611617	-0.0229225919	 1.7718882077	 0.076508
H	-0.0567734829	-3.6995541537	 1.1508423315	 0.115648
H	-1.0878671112	-2.3777792154	 0.5181432266	 0.081257
H	-0.8342986423	-1.931136457	-1.845461881	 0.091742
H	 0.7583465963	-2.3304189823	-2.5220476295	 0.111982
185.7128	220.7481	235.0811	244.4243	311.4222	349.6415	390.7305	409.7409	448.781	564.4276	655.6676	781.8594	805.1978	817.4027	874.5429	901.5012	932.0428	952.7975	977.7705	1032.1604	1043.7965	1067.2972	1082.4443	1088.0141	1112.81	1151.1768	1172.2613	1175.1882	1203.8435	1251.7311	1261.7598	1276.8945	1300.0153	1316.064	1335.7997	1354.5783	1387.3761	1404.5518	1410.9293	1446.4974	1472.7085	1491.8125	1497.1648	1498.9556	1516.139	2954.8794	2973.6702	3028.7414	3050.2091	3052.5833	3070.5535	3079.8896	3082.6358	3095.5843	3100.0682	3101.0454	3140.4442
CC1C2CC1OCOC2	C[C@H]1[C@H]2C[C@@H]1OCOC2	
InChI=1S/C7H12O2/c1-5-6-2-7(5)9-4-8-3-6/h5-7H,2-4H2,1H3	InChI=1S/C7H12O2/c1-5-6-2-7(5)9-4-8-3-6/h5-7H,2-4H2,1H3/t5-,6-,7-/m0/s1
