17
gdb 72865	3.1192	1.24743	1.05892	1.9869	74.48	-0.2438	0.0325	0.2763	1151.999	0.134299	-421.751286	-421.742955	-421.742011	-421.784379	32.013	
O	 0.5730546249	 1.3026983883	-0.6282730263	-0.466989
C	 0.154430721	 0.0708975154	-0.1431411109	 0.365162
C	 0.3126020723	-1.0667545091	-1.1621870217	-0.113387
O	-1.0395287637	-1.5315305916	-0.9267038321	-0.283913
C	-1.3127310099	-0.4682396728	-0.0046195955	 0.022451
C	-1.0162157004	-0.8923409938	 1.4755255702	-0.18348
C	 0.4421187414	-0.3150989636	 1.32876868	-0.330563
C	-1.8323829449	-0.2522662436	 2.4849942115	 0.300603
C	-2.5122775809	 0.3185829485	 3.2970529879	-0.448739
H	 0.4431897224	 1.9675224794	 0.0563107428	 0.286023
H	 0.4387494559	-0.6982520782	-2.1865092391	 0.117057
H	 1.0656341958	-1.8337224235	-0.9464251972	 0.103556
H	-2.2409393829	 0.0676566184	-0.2121002145	 0.09295
H	-1.0491796711	-1.9804810526	 1.5736096749	 0.11662
H	 1.2632065809	-1.0150737019	 1.501082122	 0.113731
H	 0.590442526	 0.5626509842	 1.9634633581	 0.111664
H	-3.1172156767	 0.8013619865	 4.0240125998	 0.197254
53.8629	147.2079	180.3202	271.2864	321.6779	360.8721	385.3433	406.1691	455.1103	525.4822	623.5641	625.9618	643.3802	682.1732	797.8079	874.8608	908.8591	926.4348	983.0501	1001.3665	1024.5385	1031.8801	1068.6966	1119.8967	1125.7346	1148.2015	1163.1771	1205.2007	1232.2751	1269.5413	1307.1059	1319.6515	1356.6099	1409.731	1476.791	1516.0336	2230.9158	3023.865	3060.1645	3076.2789	3077.5795	3098.5813	3118.4449	3503.8017	3810.8903
OC12COC1C(C2)C#C	O[C@]12CO[C@H]1[C@@H](C2)C#C	
InChI=1S/C7H8O2/c1-2-5-3-7(8)4-9-6(5)7/h1,5-6,8H,3-4H2	InChI=1S/C7H8O2/c1-2-5-3-7(8)4-9-6(5)7/h1,5-6,8H,3-4H2/t5-,6+,7-/m1/s1
