16
gdb 65015	2.29153	1.34168	1.08091	4.0273	69.16	-0.2778	-0.0512	0.2266	1152.6374	0.120997	-437.881807	-437.872479	-437.871535	-437.916627	32.509	
C	-0.284703872	 1.4804512418	-0.4582738934	-0.475165
C	 0.0058481791	 0.0309926788	-0.147266089	 0.396106
C	 1.0597428369	-0.7054760729	-0.8570716741	-0.22333
O	 1.2566285136	-0.2451304159	 0.4867507514	-0.27405
C	-1.1483172612	-0.7774607312	 0.4784974451	-0.326286
C	-1.4736917686	-0.2210745274	 1.8740172362	 0.155077
O	-2.5619155873	 0.1167981187	 2.2436776977	-0.216177
C	-2.3187755113	-0.8353418646	-0.3931068155	 0.306699
N	-3.2210412312	-0.8760944558	-1.1124931734	-0.315041
H	 0.6093683729	 1.9644539524	-0.8562625595	 0.139504
H	-1.0904461484	 1.5626291402	-1.1936044675	 0.158375
H	-0.5949632303	 2.0207664775	 0.4423270116	 0.142947
H	 0.9852345607	-1.7849306269	-0.9777376027	 0.125661
H	 1.6493549355	-0.1915241091	-1.6133242432	 0.131101
H	-0.7735089739	-1.7967540392	 0.6412708311	 0.151561
H	-0.5745078244	-0.1639050065	 2.5210710452	 0.12302
57.0724	76.9328	134.2689	160.276	191.3742	223.5367	336.4357	351.5335	367.2638	412.4797	477.0999	529.2165	707.8066	738.3255	811.1714	857.4685	923.8294	957.1409	993.7182	1043.944	1056.5159	1121.5903	1135.222	1166.4047	1221.6194	1264.0169	1296.36	1400.5945	1409.8344	1425.6338	1484.9697	1491.7478	1532.5212	1845.2186	2369.1288	2933.4329	3034.895	3045.1479	3092.3666	3112.6432	3137.8107	3183.0704
CC1(CO1)C(C=O)C#N	C[C@]1(CO1)[C@@H](C=O)C#N	
InChI=1S/C6H7NO2/c1-6(4-9-6)5(2-7)3-8/h3,5H,4H2,1H3	InChI=1S/C6H7NO2/c1-6(4-9-6)5(2-7)3-8/h3,5H,4H2,1H3/t5-,6+/m1/s1
