15
gdb 131514	2.10121	1.7097	1.04365	2.7209	74.72	-0.2432	-0.0675	0.1757	1101.6848	0.112264	-453.952054	-453.943804	-453.94286	-453.985395	29.877	
O	-0.1249317788	 1.4025302765	-0.4029204805	-0.420715
C	 0.1272667849	 0.030562477	-0.1302956676	 0.021925
C	-1.1487351275	-0.7985539168	 0.1936253068	-0.247235
C	-1.5723001045	-1.4976118379	-1.1088744585	-0.331648
C	-0.2830287539	-1.6491228916	-1.9339641845	 0.332994
C	 0.6799620765	-0.7346547378	-1.3085909911	 0.175475
N	 1.8828077173	-0.5786123323	-1.7808924538	 0.132999
N	 2.9181887769	-0.4680790045	-2.2215314354	-0.212645
O	-0.1193843008	-2.3602343212	-2.8981376525	-0.347448
H	-0.6504939214	 1.4588580371	-1.2092214292	 0.280038
H	 0.8130084812	 0.0515869646	 0.7207928292	 0.107054
H	-0.8999884418	-1.5462546094	 0.9529470214	 0.119791
H	-1.9141327888	-0.1411087787	 0.6109275579	 0.120582
H	-2.0369783136	-2.4744506615	-0.9599952518	 0.138009
H	-2.2770915359	-0.8970431038	-1.6971976403	 0.130824
81.0733	124.2932	131.8914	152.7592	308.2519	353.1512	431.3902	447.5914	507.1346	541.3241	604.051	626.836	661.537	771.7734	787.1874	901.8839	986.8067	1017.056	1046.8555	1060.4605	1143.3775	1192.6404	1227.9141	1264.4646	1281.1695	1299.9049	1334.0076	1381.8686	1431.3651	1463.1086	1485.9892	1796.3721	2222.9241	3041.9674	3058.8942	3080.7348	3111.4019	3120.9646	3795.9411
OC1CCC2=C1N=NO2	O[C@H]1CCC(=O)[C]1[N][N]	
InChI=1S/C5H6N2O2/c8-3-1-2-4-5(3)6-7-9-4/h3,8H,1-2H2	InChI=1S/C5H6N2O2/c6-7-5-3(8)1-2-4(5)9/h3,8H,1-2H2/t3-/m0/s1
