16
gdb 67792	3.21047	2.04694	1.51011	0.898	71.86	-0.2269	0.0059	0.2329	859.2795	0.125401	-400.675409	-400.669003	-400.668058	-400.705569	27.541	
O	-0.0955993988	 1.3181078367	-0.0866707953	-0.484606
C	 0.0536432171	-0.0720269207	-0.0555999661	 0.385641
C	 1.1888973696	-0.6634180573	-0.7551693805	-0.178148
C	 1.3093925686	-1.9960608658	-0.7007449497	-0.066917
C	 0.2783263245	-2.7349384356	 0.0225699254	-0.076202
C	-1.1487745498	-2.2753876387	 0.0587721892	-0.070918
C	-1.3131875137	-0.7586410949	 0.0074096886	-0.139827
C	-0.4651701383	-0.717848074	 1.2445160921	-0.09566
N	-0.348000622	-2.2065858107	 1.3155690126	-0.17893
H	 0.6135752094	 1.704629174	 0.4389491279	 0.288291
H	 1.8877788575	-0.010251945	-1.2657437114	 0.098757
H	 2.1296325796	-2.5374250383	-1.157028809	 0.09988
H	 0.4074719851	-3.8090375642	 0.1090561807	 0.09951
H	-1.9739880976	-2.971305037	-0.0513979992	 0.102754
H	-2.2082319511	-0.2151902021	-0.2601957386	 0.108921
H	-0.5279912802	-0.1427682264	 2.1587919133	 0.107454
255.3167	290.2003	367.01	378.3624	416.94	509.5105	559.5658	588.4772	655.091	688.0494	730.5865	754.1505	821.6127	853.434	881.6573	902.5426	923.1139	939.371	951.3907	971.3965	1019.5993	1041.6027	1066.1068	1076.5552	1131.3759	1164.9307	1194.4794	1224.5996	1257.9205	1280.0232	1310.0663	1374.4828	1396.2771	1455.807	1676.2884	3159.0481	3168.2666	3185.322	3200.6896	3206.4788	3220.2424	3796.8161
OC12C=CC3C4C1C2N34	O[C@]12C=C[C@@H]3[C@@H]4[C@H]1[C@H]2N34	
InChI=1S/C7H7NO/c9-7-2-1-3-5-4(7)6(7)8(3)5/h1-6,9H	InChI=1S/C7H7NO/c9-7-2-1-3-5-4(7)6(7)8(3)5/h1-6,9H/t3-,4+,5-,6-,7-,8?/m1/s1
