23
gdb 93771	2.74817	1.20983	0.94558	1.5838	88.6	-0.2295	0.0324	0.2618	1339.2588	0.205981	-388.319437	-388.309777	-388.308832	-388.353286	37.345	
C	-0.1469065059	 1.5856982538	 0.0178929659	-0.385182
C	 0.0144678992	 0.0525175605	 0.0360958638	-0.027448
C	 0.6777702631	-0.4441931457	-1.2259665678	-0.157441
C	 1.9158112828	-0.9395416929	-1.3080578532	 0.317439
C	 2.5065841876	-1.4209876726	-2.6058638019	-0.474088
C	 2.8047283483	-1.0669329305	-0.0901966763	-0.297456
C	 2.2814160732	-0.2722010866	 1.1135740918	-0.240222
C	 0.7716107591	-0.4672872817	 1.2700839	 0.126096
O	 0.2519009444	 0.1936434081	 2.4173423443	-0.446328
H	 0.823665141	 2.0903347857	-0.0138810121	 0.111281
H	-0.7056594597	 1.8942540555	-0.8716916481	 0.104193
H	-0.6840092858	 1.9277694359	 0.9045114036	 0.131575
H	-0.9987347258	-0.370764072	 0.0783352826	 0.077762
H	 0.0820386415	-0.3660952858	-2.1343054118	 0.07331
H	 1.7983414706	-1.328863887	-3.4334981323	 0.118455
H	 3.4107959655	-0.854220517	-2.8641276175	 0.119651
H	 2.8123425066	-2.473404311	-2.5357507808	 0.119093
H	 2.8987790861	-2.131879294	 0.1726064445	 0.10473
H	 3.8233808219	-0.7439605611	-0.3420490324	 0.099864
H	 2.7961034114	-0.5903584458	 2.0294908786	 0.077724
H	 2.4940315016	 0.7950842615	 0.9862533984	 0.10863
H	 0.5757352114	-1.5509568196	 1.3431478609	 0.060635
H	 0.740703032	-0.1196121978	 3.18476821	 0.277727
94.8825	138.4943	198.8024	201.5711	230.6745	269.4424	278.2891	302.5699	378.5553	378.9188	417.5273	476.2317	516.1657	601.0462	677.7018	744.6039	812.8739	861.6841	889.5003	936.5119	979.4539	1011.5747	1016.6948	1052.9173	1058.7564	1074.853	1106.8186	1112.413	1150.1573	1174.9987	1208.5772	1232.6774	1268.198	1330.0652	1334.7416	1336.3279	1359.7607	1389.7667	1397.6842	1408.0106	1414.1012	1436.5316	1475.5327	1480.1366	1488.5914	1492.772	1499.9709	1504.0708	1737.5589	2945.7961	2990.8996	3005.0556	3011.5502	3021.6849	3032.7184	3040.0514	3055.5244	3074.8706	3102.3405	3109.808	3132.8811	3134.255	3817.9408
CC1C=C(C)CCC1O	C[C@H]1C=C(C)CC[C@H]1O	
InChI=1S/C8H14O/c1-6-3-4-8(9)7(2)5-6/h5,7-9H,3-4H2,1-2H3	InChI=1S/C8H14O/c1-6-3-4-8(9)7(2)5-6/h5,7-9H,3-4H2,1-2H3/t7-,8+/m0/s1
