17
gdb 35046	2.67333	1.45296	1.4416	3.1801	77.92	-0.2399	-0.0076	0.2324	1008.7904	0.138217	-380.863237	-380.855742	-380.854798	-380.895343	28.875	
N	-0.2935923683	-1.1282392401	-0.1842618995	-0.345973
C	-0.1783326868	 0.0187464034	-0.0831685847	 0.308674
C	-0.0405035685	 1.4497868378	-0.0016282537	-0.177202
C	 0.5281993959	 2.0777923184	 1.246880029	-0.062671
C	 1.0237878146	 1.2798029092	 2.3949076519	-0.065763
C	 2.2973155327	 0.8906079119	 2.4342983662	-0.060176
C	 3.2379340168	 1.1835012817	 1.2926676746	-0.255394
C	 2.4909143895	 1.2256306854	-0.0470827652	-0.174871
N	 1.2906345613	 2.0907719942	 0.0066458829	-0.112529
H	-0.7930363126	 1.9911196281	-0.5693635735	 0.134226
H	 0.0978065242	 3.0457034115	 1.5070183687	 0.112495
H	 0.335425986	 1.0837373425	 3.2111580641	 0.10468
H	 2.6833626109	 0.3563036968	 3.2972257534	 0.103893
H	 3.7548533092	 2.1364442437	 1.4730689911	 0.12467
H	 4.0212923446	 0.4209629948	 1.2342858802	 0.118202
H	 3.1373085923	 1.6237555022	-0.8353356456	 0.113869
H	 2.2217694681	 0.2018121084	-0.3301382498	 0.133871
89.4594	130.051	191.3267	276.6481	378.4076	442.1351	478.6988	503.9602	610.0832	630.239	698.0644	741.6853	772.1273	832.9146	850.0757	901.6668	986.576	993.1735	1000.4351	1030.5134	1047.3313	1082.334	1102.6924	1145.4467	1190.6643	1229.4831	1272.9227	1310.8493	1349.161	1358.9385	1367.5913	1410.5471	1420.4465	1475.3423	1514.3783	1711.1903	2347.0793	3014.8245	3036.8619	3073.4183	3080.7649	3094.1252	3142.1231	3166.1747	3187.2735
N#CC1C2C=CCCN12	N#C[C@H]1[C@H]2C=CCCN12	
InChI=1S/C7H8N2/c8-5-7-6-3-1-2-4-9(6)7/h1,3,6-7H,2,4H2	InChI=1S/C7H8N2/c8-5-7-6-3-1-2-4-9(6)7/h1,3,6-7H,2,4H2/t6-,7+,9?/m1/s1
