19
gdb 66382	2.38142	1.46381	1.30255	0.8694	71.14	-0.2494	-0.0361	0.2133	1080.1252	0.158544	-460.176461	-460.167835	-460.166891	-460.209636	32.536	
C	 0.1154161169	 1.5485958277	 0.2269764157	-0.43722
C	 0.007521037	 0.0267240127	 0.0844027939	 0.254213
C	 0.5875858976	-0.473711922	-1.2475549304	-0.235228
C	 0.8240699823	-1.9848560579	-1.1959325244	-0.109009
O	 1.564242546	-2.3311302467	-0.0289695084	-0.226694
C	 0.8800365053	-1.9235613429	 1.1161986234	 0.003727
O	 0.7241685907	-0.5220005897	 1.1946029653	-0.278933
C	-1.4794358784	-0.3229841545	 0.2417493471	 0.124985
O	-2.2477417466	-0.5114063433	-0.6647404757	-0.250164
H	 1.1712525024	 1.8309578519	 0.2452649071	 0.137656
H	-0.37840875	 2.0478629666	-0.6108972316	 0.133856
H	-0.3436548551	 1.8849815823	 1.161616573	 0.129248
H	-0.1015408525	-0.2252956001	-2.0594938226	 0.123584
H	 1.5392035034	 0.0364357719	-1.4265050507	 0.109337
H	-0.1361198918	-2.524414792	-1.1995954085	 0.108933
H	 1.4105204245	-2.3263791142	-2.0518585566	 0.1163
H	-0.1109056236	-2.4166863251	 1.1553543799	 0.080793
H	 1.4772792995	-2.2160824598	 1.9817559227	 0.122998
H	-1.8035618276	-0.3465535047	 1.3075627507	 0.091619
77.7226	144.8765	180.4924	230.4465	293.5872	300.1994	314.8894	368.8328	443.249	470.1711	505.1544	577.2514	675.5055	748.7702	850.1891	892.0592	925.1639	962.4611	984.943	1016.9973	1037.4425	1063.0839	1099.7091	1150.5238	1177.7359	1224.0479	1234.5002	1276.4841	1290.693	1333.115	1363.6296	1389.942	1398.1676	1405.6089	1447.103	1459.8444	1480.7203	1494.8789	1499.9699	1513.5317	1830.6283	2875.5574	2913.4814	2988.5929	3042.9534	3055.7061	3102.6062	3111.9486	3116.4867	3118.7602	3132.2054
CC1(CCOCO1)C=O	C[C@]1(CCOCO1)C=O	
InChI=1S/C6H10O3/c1-6(4-7)2-3-8-5-9-6/h4H,2-3,5H2,1H3	InChI=1S/C6H10O3/c1-6(4-7)2-3-8-5-9-6/h4H,2-3,5H2,1H3/t6-/m0/s1
