19
gdb 62129	4.849	0.74161	0.70453	5.1973	73.38	-0.2735	0.0117	0.2852	1603.4802	0.157521	-460.162788	-460.153243	-460.152298	-460.198154	34.209	
O	-0.4771441475	 0.9764947779	-0.3367953079	-0.423231
C	-0.0146026817	-0.3463053717	-0.1072181319	 0.085634
C	 0.9703276284	-0.7736593309	-1.1997554039	-0.108438
O	 0.3357289148	-0.8126061639	-2.4770763567	-0.174283
C	 0.3615677599	 0.3075546824	-3.2263617479	 0.188655
O	-0.2224241608	 0.4038196646	-4.2622237354	-0.275299
C	 0.5827925952	-0.5492673425	 1.2771173137	 0.004721
C	 1.3927198357	 0.5267239999	 1.963443753	-0.283013
C	 0.0168033722	 0.1709407906	 2.469336478	-0.268149
H	 0.2700938796	 1.5783936222	-0.2435396308	 0.282811
H	-0.9105996875	-0.9704458862	-0.2064725148	 0.113962
H	 1.8340043158	-0.0932410838	-1.2175672931	 0.106281
H	 1.3408597867	-1.7852696538	-1.0143487193	 0.126393
H	 0.9984875991	 1.1006067928	-2.7903058538	 0.062036
H	 0.917891326	-1.5690742621	 1.4483660231	 0.091631
H	 2.259218576	 0.2222166583	 2.539236838	 0.120588
H	 1.5133319011	 1.4926473097	 1.4818643744	 0.10032
H	-0.7768750774	 0.8834605179	 2.2761470294	 0.131731
H	-0.0695587757	-0.3685860715	 3.405381756	 0.117651
60.6628	70.4943	76.7857	173.6974	193.8035	265.2584	308.5796	332.6614	359.8764	397.663	499.2079	584.6954	672.2933	782.6247	802.455	835.1287	890.3451	929.7139	996.2992	1030.7328	1047.9883	1053.6656	1060.5105	1072.6346	1089.2644	1137.2208	1151.5212	1171.4896	1197.5307	1231.4796	1269.315	1296.114	1341.068	1398.7401	1406.0285	1426.2709	1431.3757	1464.5218	1490.3985	1508.0688	1871.0485	2952.4739	3009.931	3052.1598	3101.0188	3125.2149	3139.9424	3144.1091	3207.2202	3233.0149	3799.2385
OC(COC=O)C1CC1	O[C@@H](COC=O)C1CC1	
InChI=1S/C6H10O3/c7-4-9-3-6(8)5-1-2-5/h4-6,8H,1-3H2	InChI=1S/C6H10O3/c7-4-9-3-6(8)5-1-2-5/h4-6,8H,1-3H2/t6-/m0/s1
