18
gdb 77450	1.9293	1.56308	1.4505	3.7899	73.16	-0.2324	0.0071	0.2395	1074.6275	0.145536	-439.081567	-439.072226	-439.071282	-439.115097	34.68	
C	 0.0797618121	 1.5918263739	-0.0427165319	-0.427338
C	 0.128572539	 0.0805497849	-0.068610574	-0.120569
C	 0.6996306225	-0.7727980072	-1.1778936866	 0.282132
C	-0.0096172719	-1.8714134802	-1.9071227714	-0.479635
N	 1.9131183056	-0.1560181898	-1.7475384199	-0.383693
C	 2.5701191519	-0.1152124566	-0.5006202861	 0.351857
O	 3.639563133	 0.3141020734	-0.1727793521	-0.349485
C	 1.3791428349	-0.7862909225	 0.1830635026	 0.169405
O	 1.4071538811	-1.8169666851	 1.0919388804	-0.449422
H	 0.9510039024	 2.0393116251	-0.5285340999	 0.127129
H	-0.8161440664	 1.9599683645	-0.5545547554	 0.122926
H	 0.0504421108	 1.9646102422	 0.9863632542	 0.127106
H	-0.7305170235	-0.4003168057	 0.4002490094	 0.098474
H	-0.6055005276	-1.4802656187	-2.7394453314	 0.12356
H	 0.7102359937	-2.5893479949	-2.3107197169	 0.138009
H	-0.6865089118	-2.3997725507	-1.2295327517	 0.133769
H	 1.897473317	 0.641934723	-2.3741721486	 0.237081
H	 1.4770737474	-1.4448748155	 1.9780170993	 0.298695
129.9906	166.3256	171.3727	191.4603	193.9272	234.6083	256.3063	276.9126	355.3323	432.6951	520.4211	569.5511	590.6421	680.685	696.8247	736.1624	779.8538	816.4526	916.0879	939.3865	1008.8453	1071.0574	1098.2007	1116.3787	1127.1564	1158.3931	1228.6657	1276.1065	1295.7783	1334.8177	1361.1903	1416.7253	1420.9151	1477.9702	1490.1268	1490.267	1498.2529	1515.1353	1894.8483	3034.2828	3035.4015	3094.8552	3098.1411	3106.5587	3119.3509	3122.8108	3534.9398	3800.5642
CC1C2(C)NC(=O)C12O	C[C@H]1[C@@]2(C)NC(=O)[C@@]12O	
InChI=1S/C6H9NO2/c1-3-5(2)6(3,9)4(8)7-5/h3,9H,1-2H3,(H,7,8)	InChI=1S/C6H9NO2/c1-3-5(2)6(3,9)4(8)7-5/h3,9H,1-2H3,(H,7,8)/t3-,5+,6-/m0/s1
