13
gdb 48147	4.05	0.86265	0.71117	6.6336	71.73	-0.255	-0.0922	0.1628	1451.8659	0.086196	-452.727449	-452.718331	-452.717386	-452.76269	31.178	
N	 0.1895584709	 1.4754158924	 0.0055626462	-0.456695
C	 0.0711306573	 0.2080643738	 0.0011870172	 0.251795
N	-1.1808856658	-0.4273979823	 0.0091161278	-0.378344
C	-2.4448583488	 0.1454560935	 0.0257450666	 0.334548
O	-2.7097372768	 1.3163520564	 0.0362732143	-0.276194
C	-3.5396072604	-0.9465941752	 0.0294298686	 0.078457
O	-4.7041256206	-0.6770900848	 0.0432484253	-0.194238
C	 1.1632529979	-0.7318437446	-0.0127968313	 0.258546
C	 2.0867416023	-1.5026317879	-0.0246222587	-0.427693
H	 1.1765804853	 1.7286347872	-0.0018952545	 0.241526
H	-1.1406705002	-1.4355260695	 0.0027721971	 0.265668
H	-3.1796741243	-2.0039973185	 0.0183949489	 0.080495
H	 2.9126548332	-2.1719867807	-0.0350513875	 0.222129
41.7364	66.7354	109.1115	148.9821	208.6284	274.9964	287.6542	380.7939	432.9375	540.8355	599.2642	600.1881	660.6649	676.5684	723.3945	773.8023	859.8251	884.6155	978.392	988.1998	1075.4153	1174.2748	1320.2925	1423.3659	1540.9664	1690.6488	1832.9978	1859.0666	2227.1158	2833.1074	3493.1429	3506.4641	3621.6118
N=C(NC(=O)C=O)C#C	N=C(NC(=O)C=O)C#C	
InChI=1S/C5H4N2O2/c1-2-4(6)7-5(9)3-8/h1,3H,(H2,6,7,9)	InChI=1S/C5H4N2O2/c1-2-4(6)7-5(9)3-8/h1,3H,(H2,6,7,9)
