18
gdb 96984	4.01974	1.33441	1.20251	2.7708	78.88	-0.2361	0.0297	0.2658	1083.2973	0.149237	-401.932742	-401.925277	-401.924333	-401.965354	28.764	
C	 0.1123162598	 1.4484046394	-0.070292464	-0.334177
N	 0.1476241692	-0.0047247331	-0.0512934566	-0.348783
C	 0.5362721258	-0.6045112675	 0.9851408986	 0.458663
O	 0.9632471998	-0.0060452533	 2.1557751824	-0.261965
C	 1.1630266548	-1.0437865743	 3.1238957808	 0.068362
C	-0.2042528767	-1.7013037008	 3.4817249149	-0.249854
C	 0.0929532613	-2.7426905757	 2.4041221265	-0.073081
C	 1.5493358776	-2.3308047485	 2.344457233	-0.095526
C	 0.6759710475	-2.0779531773	 1.148963296	-0.153927
H	 0.7048930469	 1.8085652787	-0.9191613421	 0.121685
H	-0.9184519415	 1.7793320426	-0.2445984719	 0.122254
H	 0.4816926363	 1.9241390898	 0.8451097926	 0.121437
H	 1.7946126894	-0.6576470134	 3.9203342459	 0.094507
H	-0.1822086259	-2.1480883054	 4.4794067514	 0.109504
H	-1.0859922124	-1.0615106003	 3.3787460015	 0.109395
H	-0.3312650257	-3.7362095551	 2.3280441601	 0.097914
H	 2.4714115964	-2.8948724444	 2.3612348949	 0.099909
H	 0.7480518572	-2.6879249114	 0.2595127762	 0.113684
46.042	109.9071	227.4235	238.874	394.0201	431.4042	469.9642	670.5996	677.1422	684.7788	785.2153	792.1767	818.1628	874.6316	884.9578	900.984	964.1916	980.1784	1006.8312	1023.1675	1039.9594	1066.6517	1077.3598	1109.2575	1132.2026	1150.1147	1153.0147	1197.6611	1199.7556	1230.4942	1285.0203	1324.5107	1350.501	1376.7942	1438.5629	1486.9032	1495.6026	1496.0355	1805.6414	3015.0889	3050.3763	3072.2444	3086.6889	3108.0335	3149.1044	3190.4105	3211.8768	3227.0829
CN=C1OC2CC3C2C13	CN=C1O[C@H]2C[C@@H]3[C@H]2[C@H]13	
InChI=1S/C7H9NO/c1-8-7-6-3-2-4(9-7)5(3)6/h3-6H,2H2,1H3	InChI=1S/C7H9NO/c1-8-7-6-3-2-4(9-7)5(3)6/h3-6H,2H2,1H3/t3-,4+,5-,6-/m1/s1
