18
gdb 71749	2.85731	2.22097	1.70005	1.474	72.71	-0.2357	0.0654	0.3011	843.0535	0.151055	-401.912687	-401.906473	-401.905528	-401.942712	27.173	
O	-0.0887307548	 1.3605169778	 0.0676392419	-0.502226
C	 0.0192941958	-0.0300858316	 0.0570528782	 0.420823
C	 0.8724136984	-0.7448380863	 1.0971929497	-0.231755
N	 0.6064861721	-2.1441458451	 0.7470749579	-0.138614
C	 0.3720141268	-2.1768043833	-0.7229633433	-0.042729
C	-0.7833915183	-2.1853059809	 0.2201794203	-0.043981
C	-1.3527108744	-0.7747951213	-0.01275921	-0.091214
C	-1.2856701447	-0.6086966275	-1.5600799631	-0.239048
C	 0.2445662237	-0.7665297318	-1.3191526105	-0.133518
H	 0.7723564616	 1.7330113178	-0.1507366975	 0.282882
H	 1.9432157079	-0.5270260019	 1.005376746	 0.094172
H	 0.5507734664	-0.5361090116	 2.1226204269	 0.110211
H	 0.7453266213	-3.0317696946	-1.2725205266	 0.09193
H	-1.3928198597	-3.0454413851	 0.4663528174	 0.092173
H	-2.2055852337	-0.4492660064	 0.5814790979	 0.07109
H	-1.7883391357	-1.3546280559	-2.1812676865	 0.09174
H	-1.5541410975	 0.4015474988	-1.87758575	 0.109667
H	 0.9947834947	-0.4364516311	-2.0387650587	 0.058395
270.5896	299.9767	332.4389	420.3545	440.0035	506.3962	610.9346	682.1843	687.8785	747.6542	783.5257	823.8918	833.3663	863.4519	909.9634	928.7693	933.1283	972.3443	1002.6275	1022.6106	1053.5705	1068.0437	1077.6936	1093.8164	1134.2537	1147.916	1172.5254	1197.2772	1218.448	1220.1087	1249.665	1254.1104	1279.0596	1287.6407	1328.6667	1348.8649	1390.2944	1490.9519	1495.1022	3034.7339	3059.3736	3089.2063	3106.9294	3121.6012	3126.5974	3186.1128	3196.8258	3803.7877
OC12CN3C4C3C1CC24	O[C@@]12CN3[C@H]4[C@@H]3[C@@H]1C[C@@H]24	
InChI=1S/C7H9NO/c9-7-2-8-5-3(7)1-4(7)6(5)8/h3-6,9H,1-2H2	InChI=1S/C7H9NO/c9-7-2-8-5-3(7)1-4(7)6(5)8/h3-6,9H,1-2H2/t3-,4+,5-,6+,7-,8?
