21
gdb 52604	2.52676	0.99708	0.86735	2.4008	88.07	-0.235	-0.0094	0.2257	1490.9418	0.177317	-387.093269	-387.081539	-387.080595	-387.132517	40.498	
C	 0.0748291324	 1.4811184401	-0.0697911405	-0.498718
C	 0.0545803823	 0.025627591	-0.0381833345	 0.040737
C	 0.0437068083	-1.1768287379	 0.0101089858	 0.137328
C	 0.0228342576	-2.6403551957	 0.0153801102	-0.08475
C	-1.4504242808	-3.1344201832	 0.0635623051	-0.407212
C	 0.7084718359	-3.170971279	-1.266197705	-0.419117
C	 0.7133688712	-3.1732302233	 1.3046928295	 0.396008
C	 1.1899292013	-4.6181003052	 1.3044003761	-0.490905
O	 0.8415058189	-2.4776825754	 2.2813305507	-0.295118
H	 1.1007310762	 1.8634389056	-0.1115298931	 0.147723
H	-0.4594354737	 1.8704716602	-0.9436553688	 0.143542
H	-0.398579423	 1.9025746439	 0.8237742029	 0.150893
H	-1.987820876	-2.7662264191	-0.8145018023	 0.129324
H	-1.5016876319	-4.2277625915	 0.0627485383	 0.113368
H	-1.953094304	-2.7583314875	 0.9576810528	 0.139777
H	 1.7575460043	-2.8648679804	-1.3083302649	 0.127775
H	 0.6586016903	-4.2617447765	-1.3254299049	 0.113778
H	 0.2047074951	-2.7605715345	-2.1452605964	 0.129688
H	 2.095015159	-4.7109853978	 0.6939131303	 0.147508
H	 1.4242481937	-4.9096502402	 2.3288035915	 0.143135
H	 0.447754363	-5.3014444938	 0.8821685173	 0.135236
10.9982	30.3363	84.3191	115.7596	141.3116	212.6836	242.7244	264.7804	266.6955	301.3084	311.8853	328.7624	380.6033	448.0433	524.896	588.5203	604.4958	624.396	770.5392	904.8252	941.9822	967.5537	1002.5901	1050.036	1052.7044	1054.279	1073.6454	1139.1945	1147.4054	1224.3336	1296.246	1379.043	1390.3196	1413.5998	1415.3399	1458.8812	1474.3369	1478.0718	1479.1296	1483.2829	1487.905	1498.5182	1508.8517	1814.2419	2374.0552	3026.6303	3039.5962	3040.9883	3045.8573	3086.2376	3088.6117	3106.0081	3113.7501	3119.1306	3120.2515	3130.1904	3152.6937
CC#CC(C)(C)C(C)=O	CC#CC(C)(C)C(=O)C	
InChI=1S/C8H12O/c1-5-6-8(3,4)7(2)9/h1-4H3	InChI=1S/C8H12O/c1-5-6-8(3,4)7(2)9/h1-4H3
