21
gdb 102469	2.17798	1.07006	0.83919	0.7377	75.84	-0.2628	0.0144	0.2772	1470.4773	0.179762	-461.395764	-461.384514	-461.383569	-461.433579	38.284	
C	 0.935044102	-0.1829414569	 1.1482530935	-0.389995
C	 0.1061552406	-0.0829852597	-0.1345458533	-0.178978
C	-1.3099025339	-0.6919473437	-0.0199146267	-0.086952
C	-2.1634417101	-0.3541555093	-1.2477181806	-0.092666
O	-2.3198095798	 1.0561373543	-1.288424219	-0.423449
C	-1.2225842941	-2.1999874411	 0.1158564132	 0.435675
O	-1.0094376653	-2.963117439	-0.7954082921	-0.373956
O	-1.3933599264	-2.6003549739	 1.3927965859	-0.231814
C	-1.2926227111	-4.0142326776	 1.6099206811	-0.241953
H	 1.9182578037	 0.2770868415	 1.0100611181	 0.113273
H	 0.4400957716	 0.3308194264	 1.9794429461	 0.118633
H	 1.0942864278	-1.2220091163	 1.4536277677	 0.118613
H	-0.0181671333	 0.9652002745	-0.4197465697	 0.121191
H	 0.6280200569	-0.5801564028	-0.9614891767	 0.108482
H	-1.801729882	-0.2875938105	 0.870367822	 0.099917
H	-1.6651477353	-0.7390278888	-2.1480087347	 0.109526
H	-3.1395676815	-0.8578135786	-1.1701859117	 0.090885
H	-2.7563179263	 1.2853315609	-2.1135722416	 0.28977
H	-2.061468787	-4.5460381376	 1.0437692209	 0.140076
H	-0.3122559143	-4.3843133033	 1.2997753232	 0.14057
H	-1.436398272	-4.1608567286	 2.6803812743	 0.133152
24.8715	76.8203	102.9935	118.1213	133.371	181.0965	203.2005	231.4325	249.4841	269.3999	332.4273	353.7112	391.4963	512.2585	700.7413	759.7251	805.8793	841.6281	912.1347	982.9555	1004.3665	1041.3356	1061.9985	1080.2639	1125.7408	1158.4709	1178.5787	1189.2309	1213.6468	1244.2573	1264.8936	1288.7782	1332.3241	1371.3415	1386.6756	1417.851	1454.2954	1472.3014	1481.5957	1491.9577	1496.8418	1500.5281	1504.6359	1521.2231	1807.8839	2979.1778	3028.121	3034.9779	3036.8052	3052.3264	3070.8226	3088.5558	3104.9252	3111.7802	3126.6897	3159.4068	3837.9964
CCC(CO)C(=O)OC	CC[C@@H](CO)C(=O)OC	
InChI=1S/C6H12O3/c1-3-5(4-7)6(8)9-2/h5,7H,3-4H2,1-2H3	InChI=1S/C6H12O3/c1-3-5(4-7)6(8)9-2/h5,7H,3-4H2,1-2H3/t5-/m0/s1
