18
gdb 78701	5.51439	1.11828	1.11308	1.7607	76.91	-0.2175	0.087	0.3046	1143.8538	0.147031	-401.814884	-401.807582	-401.806637	-401.846336	29.36	
C	 0.085447513	 1.5175705156	-0.2086254008	-0.32647
N	 0.050713138	 0.0684886344	-0.0428933281	-0.118534
C	-1.1088472948	-0.4741026938	 0.7279985107	-0.008127
C	-0.2827557324	-1.7189489503	 1.1879515586	-0.193171
C	 0.6454058905	-0.4586092634	 1.2216977191	-0.00419
C	-0.5713818541	-0.0632844349	 2.1581457886	-0.208539
C	-0.7001598944	-1.5011012628	 2.631731431	 0.515882
C	-1.5375694548	-2.2091464026	 3.589101536	-0.298229
O	-0.1091201727	-2.0698315078	 3.7781842193	-0.291756
H	 1.0898322559	 1.8174718752	-0.5252604063	 0.121601
H	-0.612431496	 1.805159966	-1.0019694678	 0.120132
H	-0.1729014719	 2.0877550127	 0.6996190149	 0.09566
H	-2.1377612009	-0.4528848627	 0.3661302614	 0.085125
H	-0.1135238988	-2.6273097643	 0.6139171964	 0.093844
H	 1.7104215954	-0.4180313088	 1.4516240728	 0.09388
H	-0.7350656846	 0.8605211222	 2.7088666432	 0.088527
H	-2.1522124206	-1.6543727486	 4.2969202017	 0.116661
H	-1.8771888668	-3.222311006	 3.3775876492	 0.117706
135.6741	194.6058	222.5766	276.3362	337.7223	371.6016	484.1724	600.2241	602.8126	733.5569	777.8141	797.9903	814.0021	838.0799	874.8022	883.1934	907.8559	963.894	998.4177	1032.2622	1091.3086	1103.125	1109.8238	1115.6568	1118.8664	1147.1646	1149.2021	1157.5472	1162.2991	1178.1843	1204.1512	1229.9022	1256.2628	1317.3088	1447.05	1469.4696	1491.7007	1497.0574	1560.3214	2964.9833	3063.3007	3080.8869	3098.7001	3104.923	3113.9563	3142.6164	3150.1482	3165.7253
CN1C2C3C1C2C31CO1	CN1[C@H]2[C@H]3[C@@H]1[C@@H]2[C@]13CO1	
InChI=1S/C7H9NO/c1-8-5-3-6(8)4(5)7(3)2-9-7/h3-6H,2H2,1H3	InChI=1S/C7H9NO/c1-8-5-3-6(8)4(5)7(3)2-9-7/h3-6H,2H2,1H3/t3-,4+,5-,6+,7-
