22
gdb 91377	3.05465	1.30247	1.11813	1.249	81.99	-0.2055	0.08	0.2855	1202.1265	0.195133	-404.336154	-404.327519	-404.326575	-404.369225	33.588	
C	-0.8986714159	 0.9780208779	 0.5052439589	-0.404131
C	-0.2409824955	-0.3432022454	 0.1468377817	 0.140499
C	 0.7670822794	-0.2943601496	-1.0186692503	-0.253794
C	 1.7848814755	-1.3995114593	-0.6880254436	-0.022262
C	 1.4954263968	-1.7010654303	 0.8139491661	 0.100699
C	 0.9829661635	-3.0948857102	 0.3527061492	-0.208261
N	 1.4689844599	-2.8083027664	-1.0074700539	-0.062478
C	 0.6781535083	-3.1763542453	-2.1558135586	-0.328637
O	 0.5217513286	-0.7943736445	 1.2726496734	-0.270596
H	-0.1395043233	 1.7327792224	 0.7326518241	 0.121229
H	-1.5129285821	 1.3379881762	-0.3260150722	 0.114369
H	-1.5417608582	 0.8620390924	 1.3821019246	 0.125915
H	-1.0242418176	-1.085052191	-0.0802941317	 0.068489
H	 0.2876518415	-0.4205558049	-1.9932594256	 0.103673
H	 1.2809146597	 0.6734313556	-1.0235724924	 0.100865
H	 2.7999295908	-1.1177206028	-0.9863869243	 0.071919
H	 2.324712122	-1.7037895737	 1.521995427	 0.084409
H	 1.4459236567	-3.9740311218	 0.816656618	 0.096526
H	-0.1101088045	-3.1850306679	 0.4493611498	 0.091138
H	-0.3581808211	-2.7875560882	-2.1418877242	 0.089319
H	 1.1599996581	-2.8168042219	-3.0715199325	 0.119882
H	 0.6172093774	-4.268496741	-2.2217769435	 0.121227
81.8513	154.2114	206.7118	211.2436	234.3727	301.0616	323.5895	384.651	450.6959	499.0345	590.6778	637.3987	751.1773	791.2753	831.7227	859.0839	897.118	913.9152	959.5428	983.3688	1032.5748	1042.9441	1064.22	1110.9447	1118.5702	1144.6053	1152.6903	1170.9301	1187.944	1222.1738	1246.7384	1256.5636	1272.9633	1301.9976	1326.8047	1344.5159	1359.914	1382.1486	1396.6625	1412.9571	1450.9843	1476.9534	1484.1944	1486.3535	1498.741	1505.5521	1520.5351	2918.7242	2959.4503	2987.3114	3037.0486	3039.9364	3041.2823	3047.9015	3053.3249	3091.5322	3100.6114	3109.2582	3114.0111	3118.0641
CC1CC2C(CN2C)O1	C[C@H]1C[C@H]2[C@H](CN2C)O1	
InChI=1S/C7H13NO/c1-5-3-6-7(9-5)4-8(6)2/h5-7H,3-4H2,1-2H3	InChI=1S/C7H13NO/c1-5-3-6-7(9-5)4-8(6)2/h5-7H,3-4H2,1-2H3/t5-,6-,7-/m0/s1
