23
gdb 121295	4.0655	0.85317	0.74127	0.8302	88.5	-0.2389	0.0294	0.2682	1609.8819	0.206363	-388.308477	-388.299022	-388.298078	-388.343269	35.464	
C	-0.0268007902	 1.535818915	-0.0933702007	-0.381961
C	 0.1939225218	 0.0392583441	 0.0581176205	-0.041188
O	 0.5901116954	-0.4784146748	-1.1965020675	-0.260748
C	 0.6863057278	-1.8912087234	-1.2674408239	 0.142602
C	 0.754814294	-2.2676000732	-2.7460303643	-0.216843
C	 0.7626038528	-3.7914187643	-2.9314531716	-0.262097
C	 1.6951996081	-4.4730803449	-1.9644153337	-0.041354
C	 2.215214451	-3.8672793719	-0.8978002755	-0.056986
C	 1.9119614968	-2.4397706996	-0.5173004849	-0.265417
H	 0.8945502054	 2.0270233668	-0.419351256	 0.125538
H	-0.8017102332	 1.7352661422	-0.8389622743	 0.1241
H	-0.3362833324	 1.9759081893	 0.8594689398	 0.111547
H	 0.9587485046	-0.1531835434	 0.8269666337	 0.087242
H	-0.7332292651	-0.4552183747	 0.3951900819	 0.082233
H	-0.2232307124	-2.3389312906	-0.8285965108	 0.06124
H	-0.0876371252	-1.811157859	-3.2741270406	 0.098046
H	 1.6706349312	-1.8358571923	-3.1677315865	 0.104931
H	-0.2531568753	-4.1960309321	-2.8068151991	 0.107304
H	 1.0469640983	-4.0401679425	-3.96158394	 0.103873
H	 1.9419778451	-5.5129008811	-2.1662968453	 0.082531
H	 2.8929123416	-4.4126843005	-0.245052222	 0.08236
H	 2.7715989924	-1.7908613891	-0.7404315761	 0.113069
H	 1.7606411775	-2.3754925398	 0.5670978171	 0.099979
63.4682	77.2084	114.5707	168.5637	221.0976	255.4934	316.4474	370.152	397.5673	460.0036	507.2392	536.0463	675.9151	744.5033	821.0546	827.161	871.7705	902.1173	934.2104	951.8622	974.007	1004.3993	1049.9312	1054.6125	1084.1424	1106.571	1138.1714	1152.9737	1156.1226	1187.6735	1207.9518	1245.9716	1269.1851	1297.8912	1325.8514	1331.7626	1364.7888	1378.3896	1391.4133	1404.2484	1416.1046	1438.1929	1476.3956	1481.0432	1483.4618	1499.8937	1500.6222	1529.7573	1726.0451	2940.7782	2957.1373	2988.8552	2996.48	3005.8208	3032.085	3043.6054	3045.5419	3047.7985	3088.3646	3117.641	3120.7745	3139.9798	3163.9885
CCOC1CCC=CC1	CCO[C@H]1CCC=CC1	
InChI=1S/C8H14O/c1-2-9-8-6-4-3-5-7-8/h3-4,8H,2,5-7H2,1H3	InChI=1S/C8H14O/c1-2-9-8-6-4-3-5-7-8/h3-4,8H,2,5-7H2,1H3/t8-/m1/s1
