21
gdb 40162	3.84105	1.14845	1.06184	1.3196	82.73	-0.2323	0.0849	0.3172	1229.2099	0.18314	-387.066383	-387.058186	-387.057242	-387.099963	32.625	
C	 0.0232081028	 1.5209555473	-0.0205389156	-0.308689
C	 1.2923109644	 0.7019780939	 0.0314520081	-0.315512
C	-0.04446039	 0.0175486242	-0.0378675827	 0.355169
C	-0.5863229581	-0.7722045675	 1.1589838732	-0.160695
O	-1.6241911377	-1.5920682141	 0.6351196812	-0.283975
C	-1.2010838705	-1.9701297272	-0.6541532238	 0.462896
C	-0.6879386362	-3.3765406562	-0.8457418485	-0.326446
C	-2.0512157819	-2.9538171781	-1.3761963687	-0.342689
C	-0.5280939295	-0.7524327017	-1.2747081242	-0.392301
H	-0.288364739	 2.0395363553	 0.8810192175	 0.110873
H	-0.2045948322	 2.0517556009	-0.9398098183	 0.110981
H	 1.9269699656	 0.6820346148	-0.8487776897	 0.111196
H	 1.837256783	 0.6641035582	 0.9703279348	 0.110498
H	 0.2060591886	-1.3953094528	 1.6048711852	 0.089034
H	-1.017708894	-0.1433840911	 1.9431041225	 0.105103
H	 0.1121120244	-3.5524293514	-1.5575620272	 0.107328
H	-0.6783340987	-4.0205019667	 0.0265556417	 0.118233
H	-2.9253398881	-3.3240372867	-0.852314014	 0.124468
H	-2.1791771108	-2.8360490457	-2.4471631201	 0.112643
H	-1.2536219377	-0.1597335057	-1.8431741265	 0.107606
H	 0.2855767655	-1.0289758797	-1.950860555	 0.104277
21.7496	143.2421	234.7825	279.2108	314.1145	360.2859	396.3098	429.291	475.5274	589.6418	757.9458	775.0277	780.7217	786.8325	852.921	878.1115	904.1722	905.5593	933.1584	950.0002	983.2053	988.582	1041.8052	1045.4525	1060.0316	1074.5496	1076.3713	1080.3769	1104.1779	1184.2173	1187.9777	1189.1202	1231.4369	1247.2973	1273.1701	1290.6927	1348.0939	1371.9152	1401.6741	1450.4731	1467.69	1492.6476	1496.4232	1505.3029	1517.4817	2966.9033	3035.0899	3080.2287	3086.2628	3116.5851	3120.7976	3127.1325	3132.6416	3194.3276	3209.9459	3213.1973	3227.252
C1CC11COC2(CC2)C1	C1CC21COC1(CC1)C2	
InChI=1S/C8H12O/c1-2-7(1)5-8(3-4-8)9-6-7/h1-6H2	InChI=1S/C8H12O/c1-2-7(1)5-8(3-4-8)9-6-7/h1-6H2
