17
gdb 45181	2.84125	1.88026	1.60373	3.5623	70.29	-0.2397	-0.0135	0.2261	885.3063	0.13835	-421.815825	-421.80946	-421.808516	-421.846445	26.496	
O	 0.0067276159	-0.005484065	-0.0796358164	-0.32793
C	 0.0018783701	 1.1955241406	 0.0128338178	 0.440516
C	-1.27670875	 2.042262577	 0.1122763277	-0.336427
C	-0.8799237889	 3.3633358865	 0.7628243622	 0.078461
O	-0.100130203	 3.0197595812	 1.9537716752	-0.299438
C	 1.0807693395	 3.1732864777	 1.1617360148	 0.131351
C	 0.3796647715	 4.0317357268	 0.0965971474	-0.077081
C	 1.0278952219	 3.2065245961	-1.0252564414	-0.263826
C	 1.2465557169	 2.0658024197	 0.0277978722	-0.188408
H	-1.7078290134	 2.1863886815	-0.8862902016	 0.127039
H	-2.0121483535	 1.5050276539	 0.716363056	 0.138576
H	-1.7222515622	 4.0144186628	 1.0033822383	 0.08913
H	 1.9721107549	 3.431840228	 1.7345532701	 0.091126
H	 0.3837398938	 5.1211233406	 0.087359894	 0.081122
H	 0.4511562026	 2.965669496	-1.9224959463	 0.110217
H	 1.9796582364	 3.6497491169	-1.3286252904	 0.117547
H	 2.1578807674	 1.4716151796	-0.0110768397	 0.088027
113.2277	324.7269	350.0161	385.3043	452.0777	510.0712	594.4405	647.408	706.035	742.1881	771.8396	814.6321	854.2289	890.8632	932.7657	947.183	966.4491	990.1749	1000.0943	1047.5052	1054.5585	1065.5084	1125.3105	1152.1583	1190.7562	1209.424	1228.3727	1248.943	1254.7979	1275.9906	1307.6914	1327.3922	1342.0689	1350.4897	1443.2663	1497.9542	1838.3064	3042.841	3058.3949	3093.4776	3105.9233	3108.5172	3110.3866	3120.8037	3134.2603
O=C1CC2OC3C2CC13	O=C1C[C@H]2O[C@@H]3[C@H]2C[C@H]13	
InChI=1S/C7H8O2/c8-5-2-6-4-1-3(5)7(4)9-6/h3-4,6-7H,1-2H2	InChI=1S/C7H8O2/c8-5-2-6-4-1-3(5)7(4)9-6/h3-4,6-7H,1-2H2/t3-,4+,6-,7+/m1/s1
