25
gdb 112965	3.27894	0.86323	0.81323	1.4416	89.32	-0.2391	0.0798	0.3189	1613.1662	0.22743	-389.494078	-389.483389	-389.482445	-389.530252	39.436	
C	-0.242418072	 1.6227761276	 0.0876965453	-0.380291
C	-0.1380570249	 0.1638242803	-0.3646821233	-0.188444
C	-1.3211273665	-0.6713614922	 0.0977466193	 0.182814
C	-1.2098135807	-2.2059541981	-0.0225941882	-0.354239
C	-1.291329903	-2.2021259553	 1.5205023691	 0.172069
O	-1.4051343269	-0.7549074455	 1.5449897519	-0.317865
C	-2.4549051848	-2.8992614094	 2.230716093	 0.015019
C	-2.3620329829	-2.6364075708	 3.7415177274	-0.389111
C	-3.8276322572	-2.4787359533	 1.689457349	-0.395188
H	 0.6374813582	 2.1976917033	-0.2158175487	 0.109495
H	-1.1250490149	 2.1088221248	-0.342943327	 0.111394
H	-0.3281765038	 1.6756653844	 1.1767045481	 0.136562
H	-0.0811851552	 0.1042218515	-1.4600991012	 0.092687
H	 0.783969105	-0.2849783249	 0.0261498494	 0.095347
H	-2.2535428202	-0.2545932383	-0.3099680289	 0.068836
H	-2.0328828682	-2.700140684	-0.5405400766	 0.106759
H	-0.2636356675	-2.5652918211	-0.4328697244	 0.103069
H	-0.3528085665	-2.513738874	 2.0011643236	 0.066787
H	-2.3194588762	-3.9771411141	 2.0552344454	 0.069332
H	-3.1737361396	-3.1348007947	 4.2805425095	 0.106937
H	-1.4130659773	-2.9974578037	 4.1520755768	 0.107057
H	-2.4283620262	-1.5624174604	 3.9438611241	 0.133377
H	-3.9510332494	-2.7248244746	 0.6302171403	 0.107085
H	-4.6281708138	-2.9857164063	 2.2369244482	 0.10891
H	-3.9666982154	-1.3999928312	 1.8064376479	 0.131602
46.135	73.9262	112.2537	138.8031	209.3888	223.4585	233.0217	262.8085	277.8656	340.216	394.0108	447.121	468.4665	588.0624	710.4212	756.2104	802.4463	864.33	914.8056	923.9788	933.7638	967.3957	969.3692	975.331	997.8451	1046.3601	1050.8128	1100.5284	1108.4697	1137.4239	1164.3165	1200.7686	1208.6411	1253.8123	1272.4166	1289.3673	1312.4806	1326.7644	1346.2434	1369.2369	1383.6135	1397.4184	1405.4985	1409.8859	1424.8913	1475.1063	1482.3701	1491.9268	1497.469	1498.4867	1509.1379	1509.6411	1516.0903	2987.2868	2993.9061	2999.5727	3015.8436	3031.7602	3035.5572	3039.1094	3055.606	3075.1229	3099.1225	3101.7029	3101.9407	3107.859	3116.2434	3118.8769	3130.0085
CCC1CC(O1)C(C)C	CC[C@H]1C[C@@H](O1)C(C)C	
InChI=1S/C8H16O/c1-4-7-5-8(9-7)6(2)3/h6-8H,4-5H2,1-3H3	InChI=1S/C8H16O/c1-4-7-5-8(9-7)6(2)3/h6-8H,4-5H2,1-3H3/t7-,8+/m0/s1
