17
gdb 39528	3.6444	1.95305	1.57456	0.1903	81.85	-0.2011	0.0146	0.2157	864.787	0.13762	-347.43243	-347.426377	-347.425433	-347.462408	26.253	
C	-0.0894547389	 1.5244812003	 0.0109296115	-0.436464
C	 1.3935662827	 1.923155328	-0.0008162421	-0.059048
C	 2.2647764717	 0.8974406763	-0.0144252162	-0.266802
C	 1.521357883	-0.3643082957	-0.0141943216	 0.363237
C	 1.2102383888	-1.6448038547	-0.7850847896	-0.171367
C	-0.3052323537	-1.2492290186	-0.7709780663	-0.167767
C	-0.2908921877	-1.2574480767	 0.7670355944	-0.167767
C	 1.224544767	-1.6529800445	 0.7486705079	-0.171372
C	 0.0358367738	 0.0128365738	 0.0016812042	 0.324748
H	-0.6047660068	 1.9186174192	 0.8968187976	 0.11265
H	-0.6212210921	 1.928015535	-0.8608908518	 0.11265
H	 1.690702096	 2.9669635147	 0.0019666967	 0.094126
H	 3.3430002273	 1.0034219452	-0.0239356572	 0.099408
H	 1.819806561	-2.2230942248	-1.4684504238	 0.083886
H	-1.1311218831	-1.4711305374	-1.4355301075	 0.082998
H	-1.104271275	-1.4865194761	 1.4444598655	 0.082998
H	 1.846693846	-2.2384625042	 1.4143450283	 0.083886
186.6004	248.7757	419.1013	448.7216	590.8341	622.902	672.2968	747.9166	794.5413	795.2988	800.1198	812.7607	841.309	845.399	875.0146	892.0358	908.3249	912.0709	957.286	961.7909	988.1	1011.7704	1030.671	1031.3764	1130.2083	1161.0714	1168.1226	1176.9097	1178.1074	1207.7674	1241.7228	1288.9971	1328.2028	1418.9064	1430.865	1485.1259	1617.2341	3009.8977	3032.3935	3174.4791	3182.114	3187.6129	3187.7478	3197.0404	3208.5731
C1C=CC23C4C5C(C24)C135	C1C=C[C@@]23[C@@H]4[C@H]5[C@@H]([C@H]24)[C@@]135	
InChI=1S/C9H8/c1-2-8-4-5(8)7-6(4)9(7,8)3-1/h1-2,4-7H,3H2	InChI=1S/C9H8/c1-2-8-4-5(8)7-6(4)9(7,8)3-1/h1-2,4-7H,3H2/t4-,5+,6-,7+,8+,9-
