23
gdb 112720	2.36929	1.12729	0.96098	0.5339	81.82	-0.2515	0.075	0.3266	1358.5894	0.203339	-425.413559	-425.402885	-425.401941	-425.448683	39.956	
C	-0.0715790694	 1.5296199238	-0.1123746105	-0.429143
C	-0.0214848933	-0.0001305595	-0.0264997267	 0.26157
C	-1.4034423186	-0.5961675793	-0.2821008961	-0.455901
C	 1.1450100551	-0.5873040876	-0.8793862217	 0.113871
O	 1.5317398679	 0.2127086609	-1.9744753926	-0.435373
C	 2.0373318654	-0.6337915837	 0.3860061801	-0.290039
C	 0.7417876065	-0.5439264954	 1.234553095	 0.02409
C	 0.7658573485	 0.2531148774	 2.5228479412	-0.107687
O	 1.5739470582	-0.4631932879	 3.4497986761	-0.423866
H	 0.9057014965	 1.9907640656	 0.0498489579	 0.117045
H	-0.4096779423	 1.837766229	-1.1057310987	 0.124119
H	-0.771083385	 1.937285588	 0.6256766699	 0.103446
H	-1.7782310304	-0.3068399154	-1.2706594911	 0.117742
H	-1.3795049781	-1.6903627682	-0.2377870213	 0.107153
H	-2.1301437057	-0.2484120356	 0.4616730887	 0.109705
H	 0.8902203663	-1.6053076862	-1.211396446	 0.058859
H	 2.2828147151	-0.2078120576	-2.4045534918	 0.282494
H	 2.6859867881	-1.5001976892	 0.5306001132	 0.095665
H	 2.6363359707	 0.2783345939	 0.469040719	 0.101145
H	 0.3803548932	-1.5503810947	 1.4733070993	 0.074294
H	 1.1729180876	 1.259625795	 2.3429830428	 0.083381
H	-0.2607307771	 0.3779916475	 2.9068246969	 0.082731
H	 1.6351062509	 0.0556934892	 4.2571049162	 0.284699
78.3649	107.6453	167.1463	192.9649	222.5236	231.4986	241.4502	265.5964	286.3317	313.7703	333.6893	387.5569	454.1985	473.2788	561.1469	590.0178	743.5977	800.9734	886.2982	918.3905	936.8884	956.7189	995.2729	1003.7809	1047.0617	1073.4621	1094.067	1141.2633	1158.2342	1171.019	1192.0047	1208.2268	1248.3119	1254.3346	1268.1204	1279.8895	1308.0967	1335.2599	1373.5355	1399.764	1412.234	1432.8918	1461.0248	1481.9278	1486.8157	1490.4238	1501.6859	1506.2387	1522.6533	2957.3232	2978.92	2996.7777	3019.6204	3037.5205	3046.491	3057.7838	3085.0078	3092.1841	3104.432	3115.0911	3120.2338	3819.2176	3827.2931
CC1(C)C(O)CC1CO	CC1(C)[C@@H](O)C[C@H]1CO	
InChI=1S/C7H14O2/c1-7(2)5(4-8)3-6(7)9/h5-6,8-9H,3-4H2,1-2H3	InChI=1S/C7H14O2/c1-7(2)5(4-8)3-6(7)9/h5-6,8-9H,3-4H2,1-2H3/t5-,6-/m0/s1
