18
gdb 54314	2.72849	1.39179	1.05305	3.175	71.66	-0.2483	0.0223	0.2706	1148.5582	0.1468	-439.081334	-439.072328	-439.071384	-439.115352	33.492	
N	-0.0737198218	 1.4927055821	-0.0793392781	-0.547464
C	 0.1018530697	 0.1373109986	-0.1686793002	 0.366725
O	 1.1904347227	-0.348988109	-0.4211214321	-0.366775
C	-1.0974483592	-0.7360056544	 0.0828803648	 0.194531
C	-2.1948291248	-0.2948108047	 1.0313495345	-0.314299
C	-2.4633374458	-0.3120943687	-0.4417007026	-0.30642
C	-0.7587590132	-2.2006014981	 0.0119166838	 0.025237
C	-0.5420462364	-3.0173533047	 1.2083085644	-0.17284
O	-1.7697970261	-3.10056061	 0.470254732	-0.255083
H	 0.7053936053	 2.0651622997	-0.3609755631	 0.262612
H	-0.9802215637	 1.9231210934	-0.0356561785	 0.256926
H	-2.6545114219	-1.0802425594	 1.6197207556	 0.143284
H	-2.0705559032	 0.6517088545	 1.5448262588	 0.114571
H	-2.5354079939	 0.6212646515	-0.9893636483	 0.110988
H	-3.0953708716	-1.1067173947	-0.8215720283	 0.142774
H	-0.2629772377	-2.5054762274	-0.9073129742	 0.110542
H	 0.0937259175	-3.8986745071	 1.1531170302	 0.121942
H	-0.623582096	-2.5576317015	 2.1916540013	 0.112749
60.8601	81.1861	191.3688	210.0162	227.9098	264.8506	296.7332	380.8026	445.4186	489.2348	547.5393	580.0965	674.1673	756.7378	789.0114	842.7032	877.9359	894.8303	915.7877	961.6484	995.3386	1055.8112	1064.1355	1086.667	1096.1425	1099.9532	1152.3987	1169.3856	1200.1253	1215.1314	1280.1762	1332.8492	1387.7061	1440.8171	1462.4033	1497.1599	1528.2207	1619.4912	1773.0453	3092.345	3135.6777	3136.9498	3143.3954	3182.2771	3220.9682	3236.5116	3606.1411	3737.6414
NC(=O)C1(CC1)C1CO1	NC(=O)C1(CC1)[C@H]1CO1	
InChI=1S/C6H9NO2/c7-5(8)6(1-2-6)4-3-9-4/h4H,1-3H2,(H2,7,8)	InChI=1S/C6H9NO2/c7-5(8)6(1-2-6)4-3-9-4/h4H,1-3H2,(H2,7,8)/t4-/m1/s1
