23
gdb 116223	2.27705	1.36733	1.04827	1.2794	84.74	-0.2619	0.0747	0.3367	1259.5722	0.206934	-388.287416	-388.278129	-388.277184	-388.321781	35.563	
O	 0.0068308316	 1.3418926221	-0.6376411684	-0.422441
C	-0.0082503889	-0.0799110303	-0.6523116348	-0.08146
C	-1.205366508	-0.5494190515	 0.1769172925	-0.072771
C	-2.5503465944	-0.1317603565	-0.45012356	-0.211058
C	-2.8415652392	-1.2088181791	-1.5235293897	-0.20573
C	-2.0727527465	-2.4839480076	-1.0669271139	-0.290933
C	-1.3253746732	-2.0716938743	 0.2072659579	 0.404994
C	-0.2895890043	-2.9569433037	 0.8450421779	-0.336986
C	-1.6311117847	-2.7658372418	 1.5131445499	-0.321831
H	 0.7353924227	 1.6405899754	-1.1891795411	 0.284937
H	-0.0832675723	-0.4626785199	-1.6829836293	 0.082928
H	 0.9182774847	-0.4896408247	-0.221486849	 0.08392
H	-1.0843411443	-0.1316687691	 1.1824013235	 0.069425
H	-3.3254760821	-0.1544592625	 0.3233375812	 0.093022
H	-2.5174522206	 0.8817640681	-0.8555941073	 0.108546
H	-3.9141653116	-1.3904804014	-1.6311847043	 0.095627
H	-2.4847182868	-0.8811507323	-2.5046442929	 0.099019
H	-2.7438693388	-3.3277204004	-0.8794794521	 0.09567
H	-1.3717378619	-2.8113066665	-1.842884094	 0.096085
H	-0.0804079172	-3.9163211355	 0.3820627271	 0.107196
H	 0.5765441322	-2.4927439593	 1.3061622095	 0.107575
H	-1.6675639092	-2.1700689839	 2.4198875704	 0.108561
H	-2.3305434671	-3.5958344353	 1.4975629971	 0.105705
55.9158	90.3106	150.7032	176.5162	251.5229	273.6341	293.9393	311.5843	449.4512	470.4268	529.9881	643.9187	776.3515	781.4922	812.3341	840.0032	859.4731	896.1722	916.2996	931.776	975.2322	986.7371	1010.9676	1012.3677	1054.9598	1069.8673	1071.9726	1080.0204	1126.1645	1177.6059	1185.8653	1189.2291	1236.6516	1247.0865	1264.1828	1272.8861	1282.6872	1297.612	1328.658	1340.9962	1365.8152	1389.6094	1454.3416	1467.7579	1490.7519	1493.9018	1504.3286	1513.3708	1523.4904	2968.424	2995.5563	3033.0405	3041.8825	3053.777	3056.6881	3068.7006	3094.7845	3112.8699	3118.7852	3123.2959	3195.7238	3211.0573	3831.8125
OCC1CCCC11CC1	OC[C@H]1CCCC21CC2	
InChI=1S/C8H14O/c9-6-7-2-1-3-8(7)4-5-8/h7,9H,1-6H2	InChI=1S/C8H14O/c9-6-7-2-1-3-8(7)4-5-8/h7,9H,1-6H2/t7-/m1/s1
