19
gdb 116830	11.53271	0.37113	0.36279	1.4512	101.88	-0.2265	-0.0023	0.2242	2957.1958	0.15707	-385.848458	-385.837517	-385.836572	-385.8863	37.109	
C	 0.0286531672	 1.5777411246	 0.010521142	-0.365766
C	-0.0081692812	 0.0371589663	 0.0022947656	-0.343218
C	-1.3604159075	-0.5016461544	 0.0122575734	 0.292093
C	-2.4924938577	-0.9319891419	 0.0207166581	-0.237145
C	-3.7643308802	-1.4143777178	 0.0302385239	-0.176127
C	-4.8973209558	-1.8418046322	 0.0387715474	 0.234312
C	-6.2499499568	-2.3735123514	 0.04877989	-0.356279
C	-6.2848838071	-3.907463113	 0.0412949097	-0.065016
O	-7.6507902722	-4.2838105618	 0.0521932479	-0.412681
H	 1.063906038	 1.9310763339	 0.0025516444	 0.116894
H	-0.4823822304	 1.9825729519	-0.8668302449	 0.132208
H	-0.4654021452	 1.9727207409	 0.9019761484	 0.132208
H	 0.5249090039	-0.3379076095	-0.8813628245	 0.134747
H	 0.5417366367	-0.3476761944	 0.8713181403	 0.134747
H	-6.7934079542	-2.0202905532	 0.9342474404	 0.142751
H	-6.8099331407	-2.0113244091	-0.8226653501	 0.14275
H	-5.764522648	-4.2798388063	-0.8533791896	 0.101624
H	-5.7478521946	-4.2889125835	 0.9221964093	 0.101624
H	-7.7000631242	-5.2439560792	 0.0473877882	 0.290276
32.1532	51.3283	69.0382	112.4456	118.0568	212.4423	232.1067	234.3943	288.8585	345.2485	391.9382	397.1221	519.2682	572.9328	580.107	656.9758	785.8992	794.1445	901.3918	992.463	1018.7214	1080.7928	1081.5966	1085.1297	1102.1759	1221.3283	1236.5487	1269.4978	1284.0403	1304.1645	1332.2449	1360.1226	1410.2019	1455.3612	1470.749	1473.2784	1494.8353	1505.2332	1527.9455	2275.6207	2384.3458	2986.8759	3015.8053	3018.1463	3025.7165	3043.3515	3046.6393	3063.5398	3120.8566	3127.9151	3834.6837
CCC#CC#CCCO	CCC#CC#CCCO	
InChI=1S/C8H10O/c1-2-3-4-5-6-7-8-9/h9H,2,7-8H2,1H3	InChI=1S/C8H10O/c1-2-3-4-5-6-7-8-9/h9H,2,7-8H2,1H3
