17
gdb 75166	2.80107	1.3003	1.02098	2.9934	76.55	-0.2468	-0.0531	0.1937	1185.982	0.134678	-421.88384	-421.875091	-421.874147	-421.917999	31.201	
C	 0.1171278299	 1.4769190731	-0.0871796443	-0.492992
C	 0.0169070179	-0.013320474	-0.0452939948	 0.217378
C	-0.0793047725	-0.894985161	-1.0516776602	-0.150442
C	-0.1598351448	-2.3342609241	-0.6102568151	-0.290623
C	-0.0696259201	-2.2590768898	 0.917631307	-0.211718
C	 1.1306419422	-2.9613401028	 1.5313945141	 0.150492
O	 1.9372164884	-3.6076947564	 0.914821367	-0.2378
C	 0.0111664479	-0.7438003942	 1.2446116723	 0.311153
O	 0.0717600444	-0.2702996831	 2.3553044874	-0.33022
H	 1.0476936731	 1.8146483406	 0.3817646557	 0.145772
H	 0.0841335209	 1.8555785965	-1.1114813744	 0.124396
H	-0.6982942422	 1.9338398644	 0.4837444238	 0.144686
H	-0.0975382764	-0.6245972998	-2.1029656429	 0.113139
H	-1.0906213953	-2.8017236594	-0.9518462222	 0.12145
H	 0.662430232	-2.930800842	-1.0202705504	 0.149196
H	-0.9555287618	-2.6493643558	 1.4336484646	 0.127339
H	 1.2168613762	-2.809706252	 2.6272006824	 0.108797
53.5523	105.98	114.2093	196.0927	231.4688	255.8342	292.1455	373.6705	488.6747	569.7807	644.4022	676.9071	732.4782	767.716	846.0952	889.7861	929.972	973.2387	1018.8245	1042.8783	1062.2993	1069.6292	1092.2819	1178.9827	1185.4291	1233.8787	1300.8849	1323.1545	1345.9214	1412.6915	1415.5816	1473.7991	1477.2977	1485.5075	1696.7408	1796.3364	1830.5051	2926.3828	3038.2208	3038.7134	3047.965	3077.576	3092.7521	3124.9718	3185.4265
CC1=CCC(C=O)C1=O	CC1=CC[C@@H](C=O)C1=O	
InChI=1S/C7H8O2/c1-5-2-3-6(4-8)7(5)9/h2,4,6H,3H2,1H3	InChI=1S/C7H8O2/c1-5-2-3-6(4-8)7(5)9/h2,4,6H,3H2,1H3/t6-/m0/s1
