17
gdb 47158	2.47363	1.90671	1.13862	3.7024	76.55	-0.232	-0.0048	0.2272	1042.8121	0.138051	-417.980237	-417.972767	-417.971823	-418.012457	28.732	
N	-0.0796224182	 1.3138113369	-0.2440387238	-0.517718
C	 0.0206911945	 0.0945335165	 0.0710787528	 0.400356
O	 1.2144145958	-0.4721380522	 0.4220737731	-0.260964
C	 1.33803857	-1.8667157613	 0.7786467048	-0.110966
C	 0.1299706618	-2.422174208	 1.4930167809	-0.275676
C	-1.0318857621	-1.9430663922	 1.0891906861	 0.336426
C	-2.4771277973	-1.7473777494	 1.4821934229	-0.264871
N	-2.4167197965	-0.4270567054	 0.7747014531	-0.312309
C	-1.1667322824	-0.8399227726	 0.0785542774	-0.131855
H	 0.8296999364	 1.7755311025	-0.1727738781	 0.217805
H	 1.565466771	-2.4343649408	-0.1351698911	 0.122469
H	 2.2245667002	-1.9100443262	 1.4168858715	 0.129249
H	 0.2683203288	-3.1182104639	 2.3130405688	 0.107524
H	-3.1550136377	-2.4808853963	 1.0209566859	 0.107692
H	-2.7064300332	-1.679737524	 2.5506719529	 0.125756
H	-3.1959211309	-0.2353740689	 0.1551664938	 0.226342
H	-1.3309880001	-1.2104889847	-0.946240991	 0.10074
80.0549	125.456	233.814	260.6564	331.8542	457.8032	481.7619	499.9859	592.0621	675.0513	709.3676	777.4677	818.9873	879.5966	893.6709	926.5047	965.9194	973.5908	1008.2757	1021.9501	1043.0943	1080.5094	1118.4648	1120.8231	1153.6248	1214.1679	1254.2591	1266.1503	1291.984	1337.7143	1344.4929	1379.7508	1417.0123	1499.2913	1500.8315	1758.7179	1796.1222	2967.4726	2992.3045	3000.0087	3067.1481	3090.0317	3190.0844	3460.8288	3538.7342
N=C1OCC=C2CNC12	[NH][C]1OC[CH][C]2CN[C@@H]12	
InChI=1S/C6H8N2O/c7-6-5-4(3-8-5)1-2-9-6/h1,5,7-8H,2-3H2	InChI=1S/C6H8N2O/c7-6-5-4(3-8-5)1-2-9-6/h1,5,7-8H,2-3H2/t5-/m1/s1
