21
gdb 59637	3.32904	1.01945	0.8309	1.1542	82.31	-0.2238	0.0227	0.2465	1441.5229	0.180662	-424.238328	-424.22845	-424.227506	-424.273148	36.347	
C	 0.0106274692	 1.5094730033	-0.1090554569	-0.409343
C	-0.0229817953	-0.0079124132	 0.0379421278	 0.125571
O	 0.7380348412	-0.4563151617	 1.1568364206	-0.434092
C	-1.4622238366	-0.5508727019	 0.144420046	 0.073046
O	-2.2326692802	-0.136461846	-0.9879148689	-0.280918
C	-2.8277508865	-1.2667150246	-1.6161183596	-0.152479
C	-2.3221933871	-2.4700386663	-0.8598913299	 0.297011
C	-2.6896183769	-3.8643367126	-1.2502017455	-0.492792
C	-1.5541743708	-2.0499184537	 0.1421276616	-0.212477
H	 1.04172987	 1.8622698698	-0.1989635114	 0.118349
H	-0.5557269394	 1.8204084604	-0.990064948	 0.139647
H	-0.4435682613	 1.9912014454	 0.7672032504	 0.101164
H	 0.4477159084	-0.4755181981	-0.8345456361	 0.088604
H	 0.4549228877	 0.0542777773	 1.9236677386	 0.277605
H	-1.9087324183	-0.1198740002	 1.0616526611	 0.062298
H	-3.9273924163	-1.1874056239	-1.5774852286	 0.098638
H	-2.5465672337	-1.2921780072	-2.68094387	 0.102021
H	-3.7769571656	-4.0106316265	-1.2230973173	 0.12872
H	-2.370798756	-4.08728657	-2.276330734	 0.129553
H	-2.2315636741	-4.6004081315	-0.5850036923	 0.130734
H	-1.0371036984	-2.6629804287	 0.8678880624	 0.109141
79.7276	81.3409	138.3609	170.9875	217.4646	251.0506	286.9186	295.6904	329.5069	372.6305	440.5403	463.6953	502.5768	614.336	779.8526	835.4866	878.8066	904.8762	918.6343	964.8444	992.518	1002.2502	1039.9836	1061.4757	1094.6219	1104.0011	1116.9389	1152.756	1199.9342	1212.6523	1258.2689	1286.1197	1320.1331	1336.4192	1384.8144	1389.5493	1396.8645	1413.9892	1416.6259	1480.4323	1489.3142	1490.8958	1496.1728	1521.1768	1732.788	2907.5567	2959.9539	2984.3489	3019.2994	3021.1827	3050.5184	3064.3412	3099.0744	3116.9602	3134.1781	3228.6498	3797.2588
CC(O)C1OCC(C)=C1	C[C@@H](O)[C@H]1OCC(=C1)C	
InChI=1S/C7H12O2/c1-5-3-7(6(2)8)9-4-5/h3,6-8H,4H2,1-2H3	InChI=1S/C7H12O2/c1-5-3-7(6(2)8)9-4-5/h3,6-8H,4H2,1-2H3/t6-,7+/m1/s1
