20
gdb 14093	3.18062	1.58796	1.41872	1.8124	75.12	-0.2379	0.0797	0.3175	1008.5704	0.175938	-348.978513	-348.969964	-348.96902	-349.011359	31.953	
C	-0.0593167752	 1.5232934346	-0.0703230379	-0.407077
C	 0.0783690801	 0.0169940347	-0.054323282	-0.052593
C	 1.4395585365	-0.6342797033	-0.1814324633	-0.359425
C	 0.6968784754	-0.6875300992	 1.1180307251	 0.280674
C	 1.0853272231	-0.1152624195	 2.476363614	-0.140135
O	 0.5131799986	-1.2593634952	 3.1454762367	-0.299182
C	 0.1821404243	-1.9073036283	 1.888535609	 0.094035
C	-1.285885407	-2.274539654	 1.797951093	-0.40127
H	 0.7885480968	 2.0047377492	 0.4286471994	 0.115977
H	-0.0974120416	 1.9051456057	-1.0962773633	 0.119775
H	-0.9721423622	 1.8486640852	 0.4410819436	 0.119766
H	-0.7389085816	-0.5143606988	-0.5375115548	 0.085089
H	 1.5269078746	-1.5487519348	-0.7606931117	 0.110369
H	 2.309020564	 0.0147914548	-0.2425535455	 0.109252
H	 2.1644499397	-0.0276677111	 2.6633720173	 0.096616
H	 0.5959862744	 0.8213893194	 2.7744934723	 0.099522
H	 0.8056966803	-2.8033715879	 1.74817288	 0.070718
H	-1.9176313948	-1.388558631	 1.9092458562	 0.119217
H	-1.508550421	-2.7465579293	 0.834342614	 0.112328
H	-1.5437022145	-2.9857832712	 2.5890257678	 0.126343
83.0266	136.013	181.9595	197.5109	226.4261	248.0645	367.7712	400.3141	442.3684	500.0016	560.382	770.4897	796.0472	863.8267	878.7462	893.8051	923.2032	984.3642	1014.4595	1033.2485	1054.7347	1081.2105	1098.9666	1119.0465	1129.572	1146.5103	1161.1959	1184.0585	1232.1471	1285.8844	1314.6116	1367.8727	1381.1774	1402.407	1413.1519	1438.4363	1483.4473	1488.5082	1491.5131	1494.7936	1509.288	1528.5419	2981.659	2998.0077	3026.9151	3032.849	3036.1104	3089.7552	3093.7466	3102.3836	3113.1104	3117.0628	3130.1787	3196.8802
CC1CC11COC1C	C[C@H]1C[C@]21CO[C@H]2C	
InChI=1S/C7H12O/c1-5-3-7(5)4-8-6(7)2/h5-6H,3-4H2,1-2H3	InChI=1S/C7H12O/c1-5-3-7(5)4-8-6(7)2/h5-6H,3-4H2,1-2H3/t5-,6-,7+/m0/s1
