22
gdb 113776	2.37596	1.35487	1.2515	0.6878	82.46	-0.209	0.0717	0.2807	1169.0152	0.193068	-404.290149	-404.280674	-404.27973	-404.323948	36.835	
O	 0.8421660127	-0.9177893644	-1.308573119	-0.413649
C	-0.1102237064	-1.9604896344	-1.208176113	-0.111831
C	-1.484683953	-1.5366451836	-0.7126682876	-0.004579
C	-1.6463591323	-0.398631083	 0.2291885871	-0.255704
N	-2.1890969001	-0.3202400867	-1.1237636712	-0.140067
C	-1.6903041612	 0.6353390673	-2.1068461319	 0.356504
C	-0.8940933917	 1.8219883211	-1.5939834452	-0.469704
C	-1.3989508492	 0.0956712891	-3.4952759117	-0.32383
C	-2.6529080574	 0.901834441	-3.2381604585	-0.295439
H	 0.6215302597	-0.4087657764	-2.094692233	 0.29809
H	-0.212631316	-2.4943113907	-2.1649843946	 0.095955
H	 0.2958270509	-2.6828442887	-0.4894366274	 0.117467
H	-2.1514995363	-2.3949372686	-0.6096862077	 0.084011
H	-2.3802106296	-0.4294979297	 1.0318560293	 0.107626
H	-0.7395435101	 0.1541814564	 0.4584630806	 0.126261
H	 0.0607780536	 1.5263737728	-1.1499680381	 0.131815
H	-0.685734602	 2.5175589997	-2.4123007631	 0.112936
H	-1.4667961349	 2.3655591559	-0.8349915183	 0.127201
H	-0.6044837511	 0.5516123032	-4.0793072401	 0.111116
H	-1.5237147394	-0.9683329102	-3.6621180072	 0.119254
H	-3.5905398332	 0.3597581466	-3.2084541494	 0.119039
H	-2.711792113	 1.9048194533	-3.6470321501	 0.107528
76.57	125.792	161.3809	221.994	255.0466	276.9091	305.7647	353.4121	355.4044	419.164	434.9018	494.7477	602.9368	667.6866	763.2152	789.6104	813.5428	842.5003	915.834	936.4448	940.3484	962.1059	998.912	1037.5012	1053.1383	1061.9927	1077.9127	1102.8684	1117.7291	1129.8059	1134.8571	1169.5321	1195.7881	1233.1683	1255.6178	1324.2709	1351.6031	1384.3705	1409.1412	1418.3329	1427.3738	1455.3123	1484.0814	1493.4108	1498.2412	1509.8046	1520.5759	2990.4529	3035.7242	3052.7067	3084.4792	3099.1644	3102.3615	3111.3664	3119.8602	3134.6193	3189.175	3207.8218	3230.3073	3828.1812
OCC1CN1C1(C)CC1	OC[C@H]1CN1C1(C)CC1	
InChI=1S/C7H13NO/c1-7(2-3-7)8-4-6(8)5-9/h6,9H,2-5H2,1H3	InChI=1S/C7H13NO/c1-7(2-3-7)8-4-6(8)5-9/h6,9H,2-5H2,1H3/t6-,8?/m1/s1
