22
gdb 35968	2.83326	1.13479	0.87473	4.388	85.94	-0.3079	0.0412	0.3491	1360.4772	0.197406	-367.251142	-367.242381	-367.241437	-367.284596	33.704	
N	 0.114557972	-1.2307593515	 0.1269776368	-0.328554
C	 0.0568246015	-0.0774257469	 0.0703499035	 0.262333
C	-0.0053962295	 1.3870834977	 0.0132495495	-0.141128
C	-0.7930945985	 1.928035467	 1.2372185829	-0.198724
C	-1.5168846205	 3.2690091702	 1.0176941435	-0.207044
C	-0.7645602079	 4.3503175461	 0.2157790946	-0.186529
C	 0.756302012	 4.4248338507	 0.4357552377	-0.187402
C	 1.5510776973	 3.4343381233	-0.4317602438	-0.207348
C	 1.438095532	 1.9485292016	-0.0674719175	-0.186114
H	-0.5449195284	 1.6409669525	-0.9092745979	 0.120842
H	-1.5346507611	 1.1857777604	 1.5466905268	 0.120613
H	-0.0864935212	 2.0103264966	 2.0707953142	 0.112319
H	-2.4771345023	 3.0805389166	 0.5227766918	 0.104157
H	-1.7675716642	 3.6637786661	 2.0094325888	 0.104793
H	-0.9445805344	 4.2041192766	-0.8573362588	 0.095609
H	-1.2174973925	 5.3185701478	 0.4558848172	 0.097521
H	 1.0961942169	 5.4350818855	 0.1807625512	 0.098805
H	 0.9998766171	 4.2854223779	 1.4975337034	 0.095314
H	 1.2429785401	 3.5714177806	-1.4775552354	 0.099279
H	 2.6148244547	 3.697462985	-0.3957805347	 0.100953
H	 1.9185439037	 1.7637865109	 0.9013174705	 0.113384
H	 2.0015521534	 1.3660944253	-0.8040155142	 0.11692
87.389	132.2776	163.5035	179.1489	277.3428	300.1767	333.8221	383.969	478.7979	513.7987	535.8468	560.1481	738.1014	771.8441	834.2622	848.4708	866.8299	887.9109	962.4343	998.5566	1016.8113	1028.3363	1041.2177	1065.864	1119.1366	1135.8416	1189.4273	1219.9554	1229.5614	1273.1013	1292.2557	1307.9344	1321.3246	1332.6359	1363.7125	1377.6098	1386.1779	1389.1975	1402.5267	1408.1725	1481.6364	1483.8886	1487.8384	1491.7844	1502.124	1509.6997	2353.1676	3011.4058	3014.7266	3020.4037	3021.0561	3027.759	3032.5643	3043.592	3053.0522	3059.9156	3062.8301	3070.4792	3078.3339	3089.418
N#CC1CCCCCC1	N#CC1CCCCCC1	
InChI=1S/C8H13N/c9-7-8-5-3-1-2-4-6-8/h8H,1-6H2	InChI=1S/C8H13N/c9-7-8-5-3-1-2-4-6-8/h8H,1-6H2
