18
gdb 20090	3.49329	1.4461	1.24654	1.9731	68.48	-0.2269	0.0536	0.2805	1032.0252	0.153072	-384.892862	-384.884609	-384.883664	-384.926076	31.032	
O	-0.008506655	 1.1975218297	-0.4268744392	-0.430059
C	-0.0829366194	-0.1508709139	-0.0772012155	 0.075892
C	-0.3049877829	-0.4700915479	 1.3842295558	 0.012161
O	-0.4964644871	 0.6491444021	 2.2177834587	-0.423216
C	-1.4066548221	-0.7440710418	 0.3837971849	-0.10311
C	-2.6698815368	 0.0545590434	 0.3580898494	 0.045205
C	-3.7991654463	-0.3607272178	-0.5525569483	-0.274195
C	-3.9403409184	-0.5125718141	 0.9423257167	-0.270512
H	-0.1616072892	 1.691939018	 0.3907248718	 0.282597
H	 0.5901761889	-0.7605274133	-0.6726905925	 0.09697
H	 0.2003095706	-1.3100297819	 1.8569096789	 0.088724
H	 0.3595888807	 0.8820734546	 2.5943407183	 0.296222
H	-1.542904722	-1.7993798441	 0.1565581772	 0.083114
H	-2.5299986948	 1.1223293512	 0.475671569	 0.084705
H	-4.3682664348	 0.4158239757	-1.0514522881	 0.111272
H	-3.6685979865	-1.2613471993	-1.143824125	 0.10748
H	-3.903953539	-1.5155518498	 1.3549494095	 0.10664
H	-4.6077385859	 0.1588241992	 1.4713661184	 0.110109
39.7662	123.2029	165.0978	254.8053	284.2172	306.7791	321.551	505.36	568.8005	584.2783	662.9091	739.6821	771.5776	794.4844	825.1684	868.1479	935.9052	943.9005	1014.5177	1053.3594	1053.8392	1062.721	1076.277	1112.0038	1126.4449	1151.8811	1192.4426	1196.3808	1224.0611	1242.2854	1266.8356	1303.5198	1327.1837	1409.4862	1429.8412	1470.7094	1477.1013	1508.8666	3113.7238	3126.705	3128.0917	3133.3685	3152.4004	3180.0621	3205.7426	3221.9698	3733.5968	3799.6385
OC1C(O)C1C1CC1	O[C@H]1[C@@H](O)[C@H]1C1CC1	
InChI=1S/C6H10O2/c7-5-4(6(5)8)3-1-2-3/h3-8H,1-2H2	InChI=1S/C6H10O2/c7-5-4(6(5)8)3-1-2-3/h3-8H,1-2H2/t4-,5+,6-
