18
gdb 110571	3.71682	1.19836	1.05698	2.6975	73.22	-0.2397	0.0683	0.308	1177.0908	0.146398	-438.96746	-438.959252	-438.958308	-439.000374	31.12	
C	 0.0272134073	 1.3216638597	-0.262643211	-0.241078
O	-0.0741928343	 0.0785319173	 0.3964203517	-0.251833
C	-1.3104726317	-0.5388870218	 0.2196911823	 0.164149
C	-1.5787191276	-1.3912643008	-1.0379730749	-0.137332
N	-0.6682266318	-2.532050925	-0.525797263	-0.146352
C	-1.788269889	-3.5465862158	-0.739895756	-0.243205
C	-2.5634198335	-2.3282047486	-0.2486423918	 0.332055
O	-3.903712293	-2.1529869091	 0.0454892059	-0.464645
C	-1.4083826667	-1.9764777012	 0.7219647393	-0.093285
H	 1.0080354845	 1.7371736929	-0.021320397	 0.130981
H	-0.0533379474	 1.2160577271	-1.3546998938	 0.107978
H	-0.7507472921	 2.0246411991	 0.0751235047	 0.103925
H	-2.1417096312	 0.1199424688	 0.5105572567	 0.077819
H	-1.5961187519	-1.1334953408	-2.0982132319	 0.080445
H	-1.9022395099	-3.8539562745	-1.7849657805	 0.097557
H	-1.7211550287	-4.417917427	-0.0807515381	 0.107267
H	-4.4168847857	-2.2937842145	-0.758137244	 0.284712
H	-1.2138234274	-2.3904103559	 1.7115576312	 0.090842
75.089	145.0934	167.0818	252.9971	266.761	331.799	351.8877	395.5027	507.1839	555.0928	637.9906	741.1444	819.4169	863.5158	885.1771	912.2016	924.0049	968.7826	1002.991	1048.4405	1070.047	1082.0222	1096.0569	1104.5872	1149.3197	1180.8601	1182.7595	1197.3478	1215.031	1234.7075	1246.7151	1282.627	1304.1154	1371.4635	1405.3422	1483.5402	1489.2375	1508.0861	1519.7465	2974.3898	3002.6974	3024.2427	3037.6755	3100.3307	3102.8218	3120.1025	3121.3324	3801.7265
COC1C2N3CC2(O)C13	CO[C@H]1[C@H]2N3C[C@@]2(O)[C@H]13	
InChI=1S/C6H9NO2/c1-9-3-4-6(8)2-7(4)5(3)6/h3-5,8H,2H2,1H3	InChI=1S/C6H9NO2/c1-9-3-4-6(8)2-7(4)5(3)6/h3-5,8H,2H2,1H3/t3-,4+,5-,6-
