21
gdb 90129	3.29071	1.4609	1.31204	0.296	86.96	-0.2143	0.0208	0.2351	1078.4269	0.184181	-349.929424	-349.921694	-349.92075	-349.961031	31.962	
C	-0.0966669958	 1.6146694984	 0.0329250978	-0.403135
C	 0.0507606842	 0.0999967502	-0.0203104081	-0.024053
C	 1.1552934672	-0.5317013947	-0.9463441511	-0.31214
C	 1.7398717749	-1.2851067831	 0.2638000443	 0.264131
C	 2.1582788082	-0.3255711737	 1.3357671418	-0.364882
C	 0.6875124081	-0.6392570967	 1.1827677066	 0.228004
C	 0.1381980019	-1.7572276838	 1.9926399346	-0.182213
C	 0.7300310431	-2.9173614325	 1.6708840796	-0.063042
C	 1.7438282345	-2.7838903056	 0.5351111948	-0.359147
H	 0.8546071643	 2.1058955557	 0.2638194365	 0.113014
H	-0.446911831	 2.0091607024	-0.9276135655	 0.110317
H	-0.8188342225	 1.9130536975	 0.8009947963	 0.11382
H	-0.9186547552	-0.3524929579	-0.2496279563	 0.075222
H	 0.7392332112	-1.1950515018	-1.7085970461	 0.100067
H	 1.8352538549	 0.1741217999	-1.4374083702	 0.091706
H	 2.6320881016	-0.7502424005	 2.2138641442	 0.114752
H	 2.5389506322	 0.652422177	 1.0519948125	 0.105756
H	-0.6211852928	-1.6458243327	 2.7599832798	 0.090106
H	 0.5503256587	-3.8631016423	 2.1740729573	 0.089091
H	 1.430064761	-3.3579676945	-0.3477458141	 0.104955
H	 2.7284526911	-3.1777033414	 0.8188958452	 0.107674
142.9206	206.4795	224.4762	242.6219	327.7634	391.9315	438.3525	480.9737	565.4112	624.1	672.8212	744.7488	772.7291	800.6736	833.056	861.3729	879.9662	912.8199	930.3775	945.2311	962.2368	971.3148	999.755	1075.7174	1076.8213	1094.9264	1126.2198	1132.3744	1164.7512	1197.6394	1216.7987	1243.1967	1263.361	1283.2569	1326.2259	1350.6471	1368.1909	1385.2689	1413.1974	1472.6277	1476.9204	1490.456	1495.9412	1498.2043	1637.0459	3009.6841	3025.7298	3032.1726	3037.8197	3053.3346	3091.1156	3095.4132	3101.6447	3112.327	3165.8196	3190.8039	3208.2341
CC1CC23CC12C=CC3	C[C@H]1C[C@@]23C[C@@]12C=CC3	
InChI=1S/C9H12/c1-7-5-8-3-2-4-9(7,8)6-8/h2,4,7H,3,5-6H2,1H3	InChI=1S/C9H12/c1-7-5-8-3-2-4-9(7,8)6-8/h2,4,7H,3,5-6H2,1H3/t7-,8-,9-/m0/s1
