23
gdb 101914	1.88471	1.29824	0.92319	2.4794	86.19	-0.236	-0.008	0.228	1407.3203	0.203363	-388.306485	-388.295803	-388.294859	-388.342946	38.554	
C	 1.1488505014	-0.3023939275	 1.0940208315	-0.39925
C	 0.30691594	-0.2176758498	-0.1825732381	-0.167165
C	-1.1692225612	-0.59324764	 0.0253973848	-0.102203
C	-1.9933515679	-0.329272489	-1.2318488673	 0.034361
C	-3.4627335808	 0.0077414478	-1.1632222718	-0.279312
C	-2.4623729433	 1.0647704753	-1.5611921334	-0.280456
C	-1.3234646819	-2.0817987205	 0.3741084365	 0.401989
C	-2.402125944	-2.4480386905	 1.374902315	-0.486768
O	-0.6298685795	-2.9219802795	-0.1537319482	-0.319052
H	 2.1825122972	 0.0008178522	 0.9018231673	 0.114829
H	 0.7526415682	 0.3525933975	 1.8788570111	 0.106533
H	 1.1738895521	-1.3238189714	 1.4866892532	 0.12745
H	 0.3482754438	 0.7990138421	-0.5892891433	 0.092737
H	 0.7235530151	-0.8865049703	-0.9427242377	 0.118144
H	-1.591474902	 0.007680475	 0.8426493268	 0.064099
H	-1.685845822	-0.9404793603	-2.0763342227	 0.100431
H	-4.1220459545	-0.396656046	-1.9231623505	 0.116362
H	-3.9220215281	 0.101111008	-0.1842549583	 0.109515
H	-2.251031811	 1.852231389	-0.8447870353	 0.112308
H	-2.4327561745	 1.3875194049	-2.5959465022	 0.115729
H	-2.1550385681	-2.0225162132	 2.3549919193	 0.138927
H	-3.364077453	-2.0179551018	 1.0764726576	 0.142252
H	-2.4863688262	-3.5324027319	 1.4582033959	 0.138542
42.741	82.6629	95.6366	148.8746	154.4651	168.932	203.7845	277.6521	322.7475	343.6552	402.4511	443.5278	585.6324	598.1616	728.7969	779.0466	827.4905	849.5492	859.0385	899.0053	938.4638	963.3896	975.931	1030.425	1042.7749	1060.1772	1082.8828	1107.4758	1125.4342	1148.0454	1169.3745	1193.7142	1200.2046	1225.9897	1280.6774	1289.8634	1357.7315	1375.5609	1382.5121	1400.2311	1409.2832	1462.1223	1469.9186	1475.8185	1479.3708	1499.1271	1504.5667	1508.1019	1805.4797	3011.6048	3029.9442	3034.9613	3040.3073	3079.4073	3097.5256	3100.6653	3108.7305	3128.2206	3133.0642	3144.7169	3150.0564	3206.5113	3221.7509
CCC(C1CC1)C(C)=O	CC[C@@H](C1CC1)C(=O)C	
InChI=1S/C8H14O/c1-3-8(6(2)9)7-4-5-7/h7-8H,3-5H2,1-2H3	InChI=1S/C8H14O/c1-3-8(6(2)9)7-4-5-7/h7-8H,3-5H2,1-2H3/t8-/m1/s1
