19
gdb 81557	3.12247	1.18968	1.02794	2.1698	76.29	-0.2361	-0.0109	0.2252	1215.9477	0.158072	-422.988963	-422.980205	-422.979261	-423.022937	32.839	
C	-1.3060112165	 0.7036125237	 0.4455002363	-0.479935
C	-0.0049180227	-0.0236698051	 0.1463031073	 0.343447
O	 0.9391527178	 0.0229661123	 0.9056601317	-0.304676
C	 0.0292654271	-0.7793224274	-1.1621795809	-0.06509
C	 1.2540825915	-1.662892605	-1.5390276471	-0.111018
C	 0.7779966393	-2.7040294115	-0.4836574345	-0.238929
C	-0.5132977688	-2.261364327	-1.2277774855	-0.091134
C	 0.3021945145	-2.4100890467	-2.5333310575	 0.14313
O	-0.2156379092	-1.74651255	-3.6573299266	-0.440185
H	-1.4746385675	 1.4911114779	-0.298210465	 0.140807
H	-2.1579548274	 0.0181101582	 0.3758728116	 0.137462
H	-1.2636618983	 1.1474442754	 1.4408606354	 0.139015
H	-0.3623095257	-0.1561661825	-1.9700554795	 0.096653
H	 2.274406582	-1.3222655326	-1.7160096995	 0.076759
H	 1.092601471	-3.7395567242	-0.6426727824	 0.089923
H	 0.87823332	-2.4082705722	 0.5574646849	 0.130141
H	-1.5380835526	-2.5921777479	-1.0533257867	 0.077441
H	 0.601476778	-3.4384688537	-2.7753727449	 0.068989
H	 0.4655246376	-1.7291872617	-4.3366679372	 0.287198
46.0356	114.8934	151.1078	176.2069	260.9873	282.4291	363.4303	380.9811	478.1533	564.2488	589.7928	625.1682	766.4422	817.3398	833.9653	885.6821	898.9894	906.9358	960.1897	992.0658	1019.3781	1028.7995	1062.5068	1064.4546	1108.2843	1118.4369	1156.1177	1183.0686	1194.3018	1207.0494	1214.643	1248.4968	1253.5893	1315.0633	1375.0179	1390.4449	1432.4818	1462.8318	1474.8575	1523.6403	1795.7783	3016.6932	3034.7939	3064.0207	3083.7709	3095.6931	3104.77	3115.1386	3150.6629	3172.3363	3823.2073
CC(=O)C1C2CC1C2O	CC(=O)[C@H]1[C@H]2C[C@@H]1[C@H]2O	
InChI=1S/C7H10O2/c1-3(8)6-4-2-5(6)7(4)9/h4-7,9H,2H2,1H3	InChI=1S/C7H10O2/c1-3(8)6-4-2-5(6)7(4)9/h4-7,9H,2H2,1H3/t4-,5+,6+,7+
