16
gdb 34497	4.65309	1.01432	0.89728	3.7104	82.52	-0.2343	-0.0501	0.1842	1266.3194	0.124399	-400.753478	-400.745579	-400.744635	-400.786407	29.475	
N	 0.0568738148	-1.1358703131	 0.0451120961	-0.330846
C	-0.0068356756	 0.0210886576	 0.0268609762	 0.208775
C	-0.0404464826	 1.4361423507	 0.0101768879	 0.1539
C	-1.1124038149	 2.2262952711	-0.1275909571	-0.274938
C	-0.6906350267	 3.6327144133	-0.0886635386	 0.450607
C	-1.3055921816	 4.7216905427	-0.9349931994	-0.321797
C	-1.4885987936	 4.7349930513	 0.5659940056	-0.321797
O	 0.7123722652	 3.6378069753	 0.0823314637	-0.308559
C	 1.1982598906	 2.3010295221	 0.1535823462	-0.176196
H	-2.1380700474	 1.9066856084	-0.2498385572	 0.140944
H	-0.6053492635	 5.4321183015	-1.3595124014	 0.137731
H	-2.1511452094	 4.4745741188	-1.5675661364	 0.12396
H	-2.4618896632	 4.4971601048	 0.9811029596	 0.123959
H	-0.9093462707	 5.4542114364	 1.1338455591	 0.137729
H	 1.7096882149	 2.1339033095	 1.1120550407	 0.128262
H	 1.9247789237	 2.1181554595	-0.6507065352	 0.128265
64.7398	122.5656	142.6729	269.5969	304.2483	353.7165	463.2901	536.5068	553.0643	564.2661	593.8153	764.3843	837.593	845.6395	906.7088	913.041	916.0464	927.3338	973.4046	1048.3207	1053.6336	1068.2803	1084.9492	1144.0252	1193.2837	1197.7035	1242.4151	1288.0269	1376.5968	1390.0604	1450.6237	1485.9318	1524.7884	1673.8557	2337.6312	2997.8398	3024.2746	3135.5767	3137.4031	3222.3378	3236.2196	3238.5583
N#CC1=CC2(CC2)OC1	N#CC1=CC2(CC2)OC1	
InChI=1S/C7H7NO/c8-4-6-3-7(1-2-7)9-5-6/h3H,1-2,5H2	InChI=1S/C7H7NO/c8-4-6-3-7(1-2-7)9-5-6/h3H,1-2,5H2
