17
gdb 112066	2.22341	1.50589	1.00803	4.0013	73.46	-0.2349	-0.0065	0.2284	1169.5681	0.138596	-414.198884	-414.190345	-414.189401	-414.232514	31.196	
N	 0.0423836275	 1.5941093656	-0.1353547588	-0.504085
C	 0.0293610367	 0.1367098936	-0.114965597	-0.161367
C	 0.7004749476	-0.4824129876	 1.1215774039	 0.013339
N	 0.0290854283	-0.0601735223	 2.361696825	-0.243202
C	-0.0731416771	-1.0926055963	 3.0984083747	 0.066901
N	 0.4735030267	-2.2793078639	 2.6195071947	-0.300118
C	 0.7302788601	-2.0606436951	 1.1879911492	-0.158876
C	-0.2802787453	-2.7290965568	 0.3511341761	 0.281354
N	-1.0690297193	-3.2895876833	-0.2815440874	-0.324816
H	-0.3417060094	 1.9310503249	 0.7436414171	 0.244099
H	 1.0001283832	 1.9329363104	-0.1711279684	 0.221856
H	-1.0116365526	-0.2021061476	-0.1558366799	 0.128845
H	 0.5189565367	-0.2371299109	-1.0220294694	 0.109027
H	 1.741039917	-0.1312861539	 1.1638541594	 0.092622
H	-0.5173485439	-1.0881885887	 4.0895235974	 0.138152
H	 0.0513211969	-3.1546271609	 2.8973734117	 0.258549
H	 1.7106788169	-2.4482956772	 0.8993463217	 0.137719
72.314	118.4162	125.7718	207.7553	225.5549	315.333	368.9089	403.3202	462.4332	556.8352	585.9883	620.2177	784.2848	810.5557	843.7686	887.2468	909.4736	948.8011	988.6554	1032.3212	1039.5062	1080.7463	1115.7093	1133.9063	1193.2648	1231.843	1289.5011	1333.067	1339.5447	1360.571	1390.5844	1401.3122	1425.7782	1481.0635	1669.8049	1700.0691	2348.8306	3004.8736	3037.6854	3075.9074	3084.1276	3189.3447	3484.2105	3561.401	3595.8574
NCC1N=CNC1C#N	NC[C@H]1[N][CH]N[C@H]1C#N	
InChI=1S/C5H8N4/c6-1-4-5(2-7)9-3-8-4/h3-5H,1,6H2,(H,8,9)	InChI=1S/C5H8N4/c6-1-4-5(2-7)9-3-8-4/h3-5H,1,6H2,(H,8,9)/t4-,5+/m1/s1
