19
gdb 16915	3.80811	1.73335	1.36529	1.2274	70.67	-0.2213	0.0757	0.2969	935.7246	0.167698	-365.040876	-365.033574	-365.032629	-365.072114	29.024	
O	-0.0937046398	 1.4427733848	-0.01760921	-0.443141
C	 0.0206664852	 0.0264126597	 0.0112838421	 0.148834
C	 0.7988099763	-0.4829220052	 1.2246470179	-0.249698
C	 0.9184780574	-2.0147640271	 1.1603632361	-0.150708
N	-0.3220164751	-2.7472632696	 0.9047050706	-0.083265
C	-1.4816242335	-2.5023568168	 1.7501642856	-0.244031
C	-1.4676255309	-2.0243409815	 0.3349923938	-0.014882
C	-1.4060134896	-0.5243353411	 0.0367306696	-0.230561
H	 0.7952606232	 1.8116812115	-0.0365468655	 0.277579
H	 0.5284041721	-0.3329061045	-0.9007525204	 0.064113
H	 1.8072607034	-0.0495406363	 1.2428132436	 0.084973
H	 0.2942458573	-0.1494507709	 2.1397856459	 0.104328
H	 1.6075266998	-2.2745421587	 0.3457749288	 0.104308
H	 1.3594855576	-2.408510798	 2.0826519755	 0.10473
H	-2.04273576	-3.388071824	 2.0389853648	 0.11002
H	-1.4223305899	-1.7375360382	 2.5236311826	 0.10489
H	-2.0107741106	-2.6129054061	-0.4010704127	 0.090352
H	-1.9566810749	 0.0445368918	 0.7947460078	 0.114343
H	-1.8912398077	-0.3171989598	-0.9209287062	 0.107817
108.0795	206.9592	281.2342	320.0995	351.3133	370.2612	422.6356	473.5787	523.9996	636.7676	729.6462	785.9329	845.5321	900.1909	920.5633	934.1413	954.5275	1035.1442	1046.6927	1076.3751	1100.6479	1119.4992	1125.6064	1146.6051	1163.72	1190.3982	1228.717	1270.2594	1293.362	1324.6337	1332.9869	1349.5349	1371.3534	1399.8377	1404.3392	1436.1095	1486.1557	1492.1092	1496.225	1517.3145	2946.6429	3015.1141	3020.5734	3042.8259	3058.8546	3070.0443	3087.3511	3090.1293	3123.3038	3169.0711	3813.9567
OC1CCN2CC2C1	O[C@H]1CCN2C[C@H]2C1	
InChI=1S/C6H11NO/c8-6-1-2-7-4-5(7)3-6/h5-6,8H,1-4H2	InChI=1S/C6H11NO/c8-6-1-2-7-4-5(7)3-6/h5-6,8H,1-4H2/t5-,6+,7?/m1/s1
