16
gdb 46002	5.26906	0.93941	0.84584	3.7752	73.89	-0.2444	-0.0357	0.2087	1309.9149	0.125036	-437.908489	-437.900535	-437.899591	-437.941727	29.06	
O	-0.0992961407	-0.0510054778	 0.2431935409	-0.388308
C	-0.0100638284	 1.1512980024	 0.1154108503	 0.450787
N	-1.0555999361	 2.0413474811	-0.0352226544	-0.354224
C	-0.6318642027	 3.4190096374	-0.0928768212	-0.252348
C	 0.8758033258	 3.290853624	-0.0377957867	 0.350685
C	 1.2154565854	 2.0028443602	 0.0899960646	-0.371983
C	 1.7663546039	 4.4611262193	-0.0991790333	-0.027363
C	 1.5608920117	 5.5690728901	-1.0553722511	-0.181418
O	 1.2057835942	 5.71801062	 0.3133270691	-0.227083
H	-2.0126341761	 1.7470557345	 0.0573702958	 0.254936
H	-0.967502687	 3.9193917125	-1.0123767656	 0.124366
H	-0.9987728482	 4.0178700889	 0.7514200238	 0.144061
H	 2.2082350989	 1.583835709	 0.1752997764	 0.120531
H	 2.7848942623	 4.2886955143	 0.2465729095	 0.107694
H	 2.4246989937	 6.1445637951	-1.3852928496	 0.128416
H	 0.7304315832	 5.530443559	-1.7580045383	 0.121251
58.5399	119.7497	154.0357	171.0782	321.5934	358.1961	417.6765	514.1043	547.0466	621.0167	704.6558	737.0837	836.2413	862.2914	897.5329	914.524	934.9766	975.7928	1014.0905	1084.5939	1093.6256	1146.6121	1166.6034	1176.359	1189.8523	1206.4685	1273.608	1328.8197	1353.7755	1402.89	1429.0283	1497.317	1523.6792	1687.4438	1824.4495	3005.8785	3035.6675	3086.7077	3121.6868	3176.7231	3239.0824	3673.2297
O=C1NCC(=C1)C1CO1	O=C1NCC(=C1)[C@H]1CO1	
InChI=1S/C6H7NO2/c8-6-1-4(2-7-6)5-3-9-5/h1,5H,2-3H2,(H,7,8)	InChI=1S/C6H7NO2/c8-6-1-4(2-7-6)5-3-9-5/h1,5H,2-3H2,(H,7,8)/t5-/m1/s1
