20
gdb 18272	4.04308	1.48433	1.23473	1.1769	73.92	-0.26	0.0799	0.3399	1028.1119	0.17907	-349.002431	-348.994726	-348.993781	-349.034342	30.068	
O	-0.0651769611	 1.4372916782	-0.0573009731	-0.42454
C	 0.0280330248	 0.0203820152	 0.0237601387	-0.0891
C	-1.3839163762	-0.5480768792	-0.0023886933	 0.038941
C	-2.1682816385	-0.2204537737	-1.2968590427	-0.225178
C	-3.2187726443	-1.3460672585	-1.433944275	-0.221526
C	-2.5800014676	-2.5586101355	-0.7698004403	-0.026723
C	-1.1520093314	-2.8822054484	-1.1328620596	-0.290315
C	-1.4493919448	-2.0681899515	 0.1076471365	-0.047492
H	 0.8261403838	 1.7976263726	-0.0626591408	 0.284994
H	 0.6052755243	-0.3900674379	-0.8208139472	 0.081757
H	 0.5380429726	-0.2903247438	 0.9502614658	 0.079931
H	-1.9226247617	-0.123244504	 0.8556255421	 0.076807
H	-2.613481663	 0.7754952202	-1.2671419467	 0.108142
H	-1.4855201554	-0.2273846498	-2.1537961135	 0.09805
H	-4.1339491034	-1.0816680407	-0.8901457775	 0.097072
H	-3.5056339808	-1.5220363717	-2.4767679397	 0.093186
H	-3.2214453396	-3.3717467373	-0.4475521691	 0.077206
H	-0.8228340417	-3.9044583641	-0.981087818	 0.105813
H	-0.7004202493	-2.4025246273	-1.9954355214	 0.106908
H	-1.2532945066	-2.5225160429	 1.0732281249	 0.076066
99.9678	142.4648	205.938	268.734	282.4403	366.6488	415.8892	474.9815	613.6756	632.1908	770.4056	822.8439	831.8452	850.6078	905.7219	948.2702	970.1913	986.2361	994.4873	1040.3692	1063.283	1072.6937	1091.4426	1092.0223	1111.0078	1151.9496	1194.6289	1203.7465	1222.9105	1248.134	1262.3995	1310.6614	1323.5737	1328.7101	1346.7627	1374.5126	1399.5565	1460.5341	1485.7249	1492.4088	1509.4252	1521.7484	2960.9727	2986.1308	3017.0324	3028.4163	3045.3434	3067.8626	3113.106	3127.5821	3157.277	3167.3083	3209.069	3830.9437
OCC1CCC2CC12	OC[C@H]1CC[C@H]2C[C@@H]12	
InChI=1S/C7H12O/c8-4-6-2-1-5-3-7(5)6/h5-8H,1-4H2	InChI=1S/C7H12O/c8-4-6-2-1-5-3-7(5)6/h5-8H,1-4H2/t5-,6+,7+/m0/s1
