17
gdb 114179	4.26438	0.93565	0.83335	3.3587	71.05	-0.2592	-0.0393	0.2199	1349.8182	0.133762	-458.924165	-458.915395	-458.91445	-458.9581	31.663	
O	 0.0368283041	 1.3748386532	-0.1547165002	-0.42076
C	 0.0573676091	-0.022147517	 0.0968275077	-0.092111
C	-1.3716481514	-0.5186268876	-0.0130890998	 0.000994
C	-2.0533348293	-0.4968908361	-1.427934282	-0.315538
C	-2.2431195575	-2.0097239646	-1.3164826364	 0.317336
O	-0.9518490959	-2.6130662113	-1.115603919	-0.268525
C	-1.5755492672	-2.0440887677	 0.0218071714	-0.066751
C	-3.3343689744	-2.8796576843	-1.7880762291	 0.063719
O	-4.3244736866	-2.4718388589	-2.344673378	-0.257902
H	 0.9448207657	 1.6897342236	-0.1870223452	 0.290274
H	 0.681202506	-0.55754944	-0.6328837615	 0.104961
H	 0.4514208174	-0.2444566831	 1.1024651517	 0.086957
H	-2.0006336608	-0.0187371133	 0.7283793115	 0.097121
H	-2.9994779868	 0.044512438	-1.4396363937	 0.135534
H	-1.4299208529	-0.1704921716	-2.2619294085	 0.121957
H	-1.7529829982	-2.6970773643	 0.8699841997	 0.115874
H	-3.1693896313	-3.956910435	-1.5680956588	 0.086861
80.6794	102.9949	127.934	179.6669	243.9094	259.0153	288.3117	396.6854	449.1433	489.1591	585.0702	701.4276	755.535	816.1066	853.5787	896.8386	925.3197	980.3531	999.5051	1033.6419	1064.4201	1079.9942	1100.7137	1159.2959	1198.6795	1211.2278	1248.8898	1261.1223	1271.4831	1300.9447	1354.7547	1376.102	1431.3195	1463.8771	1476.2313	1524.9675	1809.0126	2900.7796	2964.3966	3019.6378	3082.2979	3089.775	3151.3453	3177.3065	3831.3755
OCC1CC2(OC12)C=O	OC[C@H]1C[C@]2(O[C@@H]12)C=O	
InChI=1S/C6H8O3/c7-2-4-1-6(3-8)5(4)9-6/h3-5,7H,1-2H2	InChI=1S/C6H8O3/c7-2-4-1-6(3-8)5(4)9-6/h3-5,7H,1-2H2/t4-,5+,6+/m1/s1
