23
gdb 111006	2.44961	1.36067	1.16655	1.7175	84.67	-0.2378	0.0828	0.3206	1224.3294	0.206085	-388.288815	-388.279771	-388.278827	-388.322409	35.379	
C	-0.0007451366	 1.6492361145	-0.0976225915	-0.377921
C	 0.0722445204	 0.140580457	 0.17225674	-0.229318
C	-1.285610805	-0.5373515377	 0.0557194517	 0.009025
C	-1.9973704173	-0.8184114352	-1.2925913646	 0.05839
C	-0.9779020749	-1.6322677064	-2.1162392567	-0.223953
C	-0.5779996222	-2.6353777917	-0.9910913857	-0.252122
C	-1.4957979394	-2.079364609	 0.1266822468	 0.388537
C	-1.6437623815	-2.8478136711	 1.4099428665	-0.499445
O	-2.7457695102	-1.8759302828	-0.6205176354	-0.334193
H	 0.9807067926	 2.1208802604	 0.0102519968	 0.112836
H	-0.3587697966	 1.8542375987	-1.1124343456	 0.118134
H	-0.6872749681	 2.1421441734	 0.5992347616	 0.117266
H	 0.7960736878	-0.3158276996	-0.5117382458	 0.098841
H	 0.464422345	-0.0281908769	 1.1840720022	 0.097693
H	-2.0087843021	-0.0700918125	 0.7319918936	 0.075917
H	-2.6249465946	-0.0878302243	-1.8036457936	 0.071383
H	-1.4611661836	-2.1205757934	-2.9648468731	 0.105098
H	-0.1437653867	-1.0327749901	-2.4915860341	 0.095578
H	-0.8471080434	-3.6669028143	-1.2301805479	 0.101809
H	 0.4837918268	-2.607637493	-0.730818258	 0.094603
H	-0.681025205	-2.9167137464	 1.9274616223	 0.119928
H	-2.3627190034	-2.3626499992	 2.0759234754	 0.124809
H	-1.9928865122	-3.8664329507	 1.2099858551	 0.127103
62.8995	154.4686	189.4093	197.9444	242.947	272.355	300.1456	319.8077	449.931	508.3267	570.0658	605.4537	717.7291	774.8183	806.8978	827.7475	844.1427	865.4503	894.7203	916.0301	948.8668	971.4746	987.4126	998.3115	1056.553	1078.9622	1106.2533	1141.8797	1165.0033	1177.0569	1189.2416	1236.1409	1246.3077	1269.7286	1285.662	1294.8238	1313.6017	1340.7939	1352.6013	1404.1637	1411.4062	1422.0307	1473.5472	1480.9423	1489.529	1493.7143	1499.7673	1502.2252	1508.1213	3020.0974	3031.4059	3035.244	3052.1723	3058.2138	3065.7945	3069.6907	3099.1319	3100.9573	3103.8468	3104.7333	3114.7317	3116.8347	3120.7114
CCC1C2CCC1(C)O2	CC[C@H]1[C@H]2CC[C@]1(C)O2	
InChI=1S/C8H14O/c1-3-6-7-4-5-8(6,2)9-7/h6-7H,3-5H2,1-2H3	InChI=1S/C8H14O/c1-3-6-7-4-5-8(6,2)9-7/h6-7H,3-5H2,1-2H3/t6-,7+,8-/m0/s1
