18
gdb 19360	4.21855	1.63532	1.46359	2.9083	71.49	-0.1971	0.0713	0.2684	930.0108	0.153791	-343.874711	-343.867297	-343.866353	-343.906291	29.012	
C	-0.2651968702	 1.4976737685	-0.0557115811	-0.371469
C	 0.1029137174	 0.011947434	 0.0706405955	-0.315256
C	 0.8291769787	-0.5123233428	-1.1304391805	 0.373744
N	 0.1642869152	-0.8302248422	-2.4175480493	-0.349143
C	 0.9624541106	-1.8678399424	-1.7103715712	-0.143669
C	 2.4772258486	-1.6119331144	-1.991756279	-0.05495
N	 2.6092713723	-0.4308961641	-2.8794497068	-0.307521
C	 2.3523719905	-0.2499758635	-1.4304775581	-0.111556
H	 0.6291128327	 2.1135372915	-0.195914338	 0.12252
H	-0.9192678738	 1.6679460517	-0.916170271	 0.128424
H	-0.7804122047	 1.8525462371	 0.8419346026	 0.111345
H	 0.7273452789	-0.1379005809	 0.9617847071	 0.10176
H	-0.8038264994	-0.586773904	 0.2287440486	 0.095372
H	-0.812088775	-1.0269922311	-2.1897609726	 0.220902
H	 0.5252630523	-2.8091025372	-1.4016284069	 0.090819
H	 3.268824495	-2.3423510878	-1.8885958021	 0.092675
H	 3.6118338503	-0.2862831609	-3.0094008085	 0.226166
H	 3.0256553506	 0.3095917187	-0.7932439588	 0.089835
92.0012	142.0049	192.8381	309.8797	336.6236	424.7235	445.5746	583.3029	656.3525	739.5006	768.8299	802.9616	817.7352	832.5618	879.0416	904.2489	907.2988	935.4758	952.7793	999.5119	1027.496	1069.59	1096.5986	1104.0107	1108.5166	1150.9294	1226.2029	1234.8574	1276.8728	1296.0787	1333.8498	1358.7398	1365.2679	1410.7172	1443.6342	1477.2376	1496.6351	1506.5566	3010.9637	3038.4933	3044.4658	3107.1058	3113.4131	3186.3017	3191.123	3204.9735	3447.578	3454.8947
CCC12NC1C1NC21	CC[C@]12N[C@H]1[C@H]1N[C@@H]21	
InChI=1S/C6H10N2/c1-2-6-4-3(7-4)5(6)8-6/h3-5,7-8H,2H2,1H3	InChI=1S/C6H10N2/c1-2-6-4-3(7-4)5(6)8-6/h3-5,7-8H,2H2,1H3/t3-,4+,5-,6+/m0/s1
