20
gdb 121766	4.13852	0.60352	0.54484	2.4118	74.15	-0.2415	0.0363	0.2778	1999.1712	0.169176	-477.443402	-477.432398	-477.431454	-477.481715	37.487	
O	 0.0790300564	 1.295641641	-0.4140336757	-0.424877
C	-0.1242568988	-0.0697676524	-0.0650035138	-0.078649
C	-1.5986950158	-0.2262528604	 0.2764976862	-0.146739
N	-2.4362856717	 0.1545591198	-0.843524733	-0.319568
C	-3.3769052245	-0.6702245691	-1.384237761	 0.41629
O	-3.6431223649	-1.7679381618	-0.9203366252	-0.385276
C	-4.0651200215	-0.1209336452	-2.6290751988	-0.305812
C	-5.4674260729	-0.6908475234	-2.7978680524	-0.065591
O	-5.979352628	-0.1941243906	-4.0267658426	-0.426413
H	 0.97417032	 1.3966144538	-0.7494003396	 0.29299
H	 0.1337337371	-0.7359021273	-0.9014942987	 0.09932
H	 0.4861770487	-0.3574536616	 0.8044180947	 0.094374
H	-1.8344599293	-1.2642067659	 0.5195767337	 0.146045
H	-1.8285003844	 0.3938544272	 1.1528728107	 0.114006
H	-2.2214031344	 1.0317791342	-1.2896990604	 0.252775
H	-4.1043854232	 0.9735682585	-2.6096488546	 0.11007
H	-3.4683041092	-0.3992276738	-3.5070466437	 0.134149
H	-5.4100842699	-1.7862175293	-2.7849923083	 0.114274
H	-6.0976239838	-0.3866846773	-1.9479015871	 0.09244
H	-6.8442331202	-0.5894079363	-4.1682378503	 0.286193
30.7828	45.9742	69.8854	81.9748	137.559	175.3708	260.9248	266.7954	284.0127	309.0566	364.3933	431.6133	506.601	529.2948	629.865	725.2197	812.4214	849.8393	909.02	974.1106	1027.5721	1064.5913	1080.434	1088.9146	1104.1808	1128.8697	1201.1382	1215.5954	1231.3531	1255.4317	1263.4822	1304.6358	1307.8776	1359.2961	1397.4106	1452.9773	1457.2799	1472.4691	1486.2674	1515.1019	1527.1741	1538.1746	1766.7803	2983.0447	2985.5918	3012.6259	3033.165	3035.5829	3044.3599	3082.2129	3126.5265	3644.3213	3832.3203	3838.3674
OCCNC(=O)CCO	OCCNC(=O)CCO	
InChI=1S/C5H11NO3/c7-3-1-5(9)6-2-4-8/h7-8H,1-4H2,(H,6,9)	InChI=1S/C5H11NO3/c7-3-1-5(9)6-2-4-8/h7-8H,1-4H2,(H,6,9)
