19
gdb 101093	2.27476	1.26133	1.04648	3.8206	72.5	-0.2532	-0.0382	0.215	1227.1981	0.157874	-460.15645	-460.147145	-460.146201	-460.190537	34.718	
O	-0.095044126	 1.5094960989	 0.1404055555	-0.424768
C	-0.0592268243	 0.1181187998	 0.3704344307	-0.07288
C	-1.3698137061	-0.5261108995	-0.1085814268	-0.003939
O	-1.6158759559	-0.1426250542	-1.4582745308	-0.453964
C	-1.3952763652	-2.0381141064	 0.0704921017	 0.252397
C	-1.6286020591	-2.6171447748	 1.4612535385	-0.308263
C	-2.7107036508	-2.7294870449	 0.4477845011	-0.309019
C	-0.5488445488	-2.8376818427	-0.8408201621	 0.114902
O	 0.0546383077	-2.3943627865	-1.7950957314	-0.295497
H	-0.4775364896	 1.607103392	-0.7422087271	 0.285851
H	 0.7904717152	-0.3581285297	-0.1447778918	 0.096086
H	 0.0721815343	-0.0351143286	 1.4472632968	 0.099242
H	-2.1884974372	-0.0846912889	 0.4727381211	 0.090026
H	-0.9796424473	-0.642689154	-1.9925348968	 0.298028
H	-1.0783066098	-3.510930353	 1.7364058316	 0.12917
H	-1.7383986283	-1.8949045853	 2.2625020376	 0.139132
H	-3.5740767274	-2.0783657913	 0.5189306116	 0.144276
H	-2.9143708515	-3.7019898267	 0.0126817406	 0.131235
H	-0.51282135	-3.9260180842	-0.6085060297	 0.087985
85.8747	118.3043	142.1804	165.9437	241.4841	272.0216	291.2044	330.558	440.7735	476.5901	479.6958	503.1321	570.9926	650.6062	780.9777	827.8718	855.1425	907.628	937.2372	958.3733	983.6724	1046.4788	1066.225	1082.2281	1086.8389	1097.4639	1107.5787	1196.0726	1207.2436	1243.683	1313.2728	1328.7843	1357.8279	1389.1737	1437.8723	1443.2652	1459.1068	1467.9012	1496.8645	1510.4968	1784.6657	2879.7717	2980.4613	3038.6418	3067.2149	3135.4897	3140.0887	3217.2072	3232.5189	3707.8404	3756.1879
OCC(O)C1(CC1)C=O	OC[C@@H](O)C1(CC1)C=O	
InChI=1S/C6H10O3/c7-3-5(9)6(4-8)1-2-6/h4-5,7,9H,1-3H2	InChI=1S/C6H10O3/c7-3-5(9)6(4-8)1-2-6/h4-5,7,9H,1-3H2/t5-/m1/s1
