22
gdb 106315	2.65763	1.25548	1.07825	2.5788	82.37	-0.2285	0.0774	0.3059	1250.4039	0.193996	-404.304874	-404.295453	-404.294508	-404.338517	36.277	
C	 0.1113617612	 1.773735275	 0.2071493739	-0.432822
C	 0.0128450263	 0.2901264833	 0.4852458041	 0.001916
N	 0.8723496843	-0.7981096006	-0.0645988826	-0.238605
C	 2.3363385362	-0.4080576548	-0.0473879037	 0.104305
C	 2.8463916003	 0.5361387378	-1.1239116167	-0.412653
C	 2.2892596782	-0.0193209741	 1.455466963	-0.364933
C	 0.8300349494	-0.4855857187	 1.4359772769	 0.278455
C	 0.2456547101	-1.532795622	 2.3568299742	-0.153388
O	-0.7966017405	-2.2389062616	 1.7171772432	-0.415563
H	 1.0688864994	 2.2125785073	 0.4913659602	 0.122765
H	-0.0633356576	 1.9876204103	-0.8523343708	 0.129218
H	-0.6673362688	 2.2903601661	 0.7788721617	 0.123728
H	-1.0133379073	-0.0683702575	 0.4397299839	 0.107042
H	 2.8753451618	-1.3551440779	-0.1509327061	 0.08886
H	 2.434847864	 1.5433798557	-1.0465442794	 0.120195
H	 3.937660211	 0.6138029741	-1.0635862522	 0.116984
H	 2.593060031	 0.1417858493	-2.1137852433	 0.127823
H	 2.9382507902	-0.6314509621	 2.0852155744	 0.108148
H	 2.4535005351	 1.031593908	 1.7103250998	 0.103942
H	 1.050978233	-2.2131844503	 2.6841094851	 0.082522
H	-0.1775313275	-1.0740563161	 3.2590947321	 0.109143
H	-0.4737119999	-2.4094699012	 0.8195914724	 0.292917
102.0102	162.0586	185.2855	194.644	219.3269	232.467	261.5763	332.616	350.8265	436.655	527.7683	538.0039	606.0127	646.6156	675.5227	746.2521	824.4498	839.4469	883.9725	939.5795	986.7724	1009.4758	1027.5843	1078.4999	1108.8029	1113.9284	1123.0016	1142.3634	1161.5606	1203.2788	1221.901	1226.2034	1275.5324	1310.6844	1340.0678	1376.2427	1392.7349	1407.4118	1411.9927	1445.5977	1462.2329	1485.2733	1496.092	1498.471	1504.5183	1510.0897	1513.3175	2951.5274	3037.9936	3039.5449	3045.5248	3046.917	3057.6913	3095.5601	3098.8673	3110.8189	3124.0827	3140.5673	3147.5068	3718.9424
CC1N2C(C)CC12CO	C[C@H]1N2[C@@H](C)C[C@@]12CO	
InChI=1S/C7H13NO/c1-5-3-7(4-9)6(2)8(5)7/h5-6,9H,3-4H2,1-2H3	InChI=1S/C7H13NO/c1-5-3-7(4-9)6(2)8(5)7/h5-6,9H,3-4H2,1-2H3/t5-,6+,7+,8?/m0/s1
