20
gdb 72996	2.63079	1.44547	1.14956	3.3122	80.3	-0.2386	-0.0244	0.2142	1140.9442	0.168904	-403.121384	-403.112094	-403.11115	-403.15516	34.785	
C	-0.2801845141	 1.3480728961	 0.0272238527	-0.494293
C	-0.0941299675	-0.1442083213	 0.0877258584	 0.311557
C	-0.817546105	-1.096027334	-0.8732274584	-0.312427
C	-1.0707532028	-1.9960612636	 0.3589585832	-0.153743
N	-0.4104462708	-1.0120807146	 1.2865523556	-0.215701
C	 1.006854941	-0.8622182927	 0.8171968518	 0.162287
C	 1.8453816747	-1.981372527	 0.2388405005	-0.495995
C	 1.7480958773	-0.026291149	 1.8242924186	 0.128653
O	 2.9487990115	-0.0028932523	 1.9324221851	-0.269241
H	 0.23999631	 1.7552737474	-0.8477531334	 0.131208
H	-1.3425419517	 1.5961296849	-0.0707186399	 0.125326
H	 0.1039018954	 1.8588086845	 0.9120208189	 0.132334
H	-1.7350812476	-0.6518874009	-1.2658542221	 0.114416
H	-0.2436417571	-1.5002089886	-1.711341206	 0.110184
H	-2.1246118391	-2.0895512725	 0.6273672786	 0.117224
H	-0.6167665031	-2.9904163314	 0.3664111049	 0.112858
H	 1.4371233301	-2.4009571076	-0.6806350982	 0.120102
H	 2.8435635469	-1.5899021229	 0.0301452444	 0.149858
H	 1.9610922854	-2.7909598076	 0.9674678023	 0.132976
H	 1.0894973464	 0.5629265532	 2.494725453	 0.092418
83.163	123.789	156.2942	174.5251	253.2796	262.3824	319.5323	330.9196	356.232	420.1133	471.4801	550.0885	628.1399	729.72	741.3801	788.1507	842.2287	906.7294	947.1149	972.0795	992.4244	1018.379	1034.6408	1091.652	1107.1817	1134.6284	1163.5089	1215.7064	1217.7736	1263.6129	1281.9796	1311.9759	1384.0446	1401.8525	1410.9072	1429.8653	1476.1214	1483.2942	1489.3283	1495.0735	1502.4902	1511.2828	1817.7725	2923.0834	3033.48	3049.6351	3059.0821	3067.6552	3091.471	3104.4381	3117.4127	3123.4486	3130.5546	3147.2207
CC12CCN1C2(C)C=O	C[C@]12CCN1[C@]2(C)C=O	
InChI=1S/C7H11NO/c1-6-3-4-8(6)7(6,2)5-9/h5H,3-4H2,1-2H3	InChI=1S/C7H11NO/c1-6-3-4-8(6)7(6,2)5-9/h5H,3-4H2,1-2H3/t6-,7-,8?/m1/s1
