16
gdb 80744	4.19088	1.15242	1.12938	2.5092	67.77	-0.2611	0.0063	0.2675	1091.2008	0.125138	-437.872066	-437.864344	-437.8634	-437.904641	29.172	
O	-0.1283511776	 1.4909772805	-0.0975958058	-0.424552
C	-0.0151447577	 0.1126300201	 0.0423666911	 0.102589
C	-1.2667699629	-0.7526386006	 0.1416618527	-0.121103
C	-2.5776155255	-0.0766362226	-0.2482822899	-0.268367
C	-2.4943715514	-0.0293861711	-1.7978265807	-0.045592
O	-1.1000838782	-0.0644765975	-2.1249505956	-0.263437
C	-0.4183932417	-0.7726288821	-1.1045110667	 0.010645
C	-3.1944136546	-1.1681807751	-2.4253201002	 0.284127
N	-3.7470358173	-2.0611117282	-2.9072655001	-0.314216
H	-0.242030853	 1.6650594506	-1.041488418	 0.298939
H	 0.8377264445	-0.18812315	 0.6449099134	 0.108501
H	-1.2805669888	-1.5895349344	 0.8284045735	 0.108233
H	-3.4485706306	-0.6353537167	 0.0959040582	 0.135818
H	-2.629774287	 0.9417539703	 0.1447865008	 0.135684
H	-2.9020533204	 0.8952857056	-2.2158315266	 0.136986
H	 0.1621752721	-1.6182750088	-1.454876966	 0.115747
65.874	135.7354	195.5242	240.4611	296.614	381.8593	475.3431	513.3633	577.7266	652.0892	740.8413	747.4947	775.9915	788.9934	836.9616	909.0572	971.2291	974.4412	1001.7588	1050.2833	1072.0847	1091.9853	1100.5702	1120.8566	1201.4654	1220.4076	1260.763	1295.1047	1330.9814	1336.5469	1354.024	1380.0211	1427.3982	1482.1194	2356.5323	3072.6745	3084.0882	3135.2487	3147.1223	3176.6535	3193.8546	3757.069
OC1C2CC(OC12)C#N	O[C@H]1[C@H]2C[C@@H](O[C@@H]12)C#N	
InChI=1S/C6H7NO2/c7-2-3-1-4-5(8)6(4)9-3/h3-6,8H,1H2	InChI=1S/C6H7NO2/c7-2-3-1-4-5(8)6(4)9-3/h3-6,8H,1H2/t3-,4-,5+,6-/m1/s1
