15
gdb 67189	3.04422	1.57163	1.51346	2.6293	66.16	-0.2278	0.0088	0.2365	918.7074	0.114525	-453.894942	-453.888165	-453.887221	-453.925925	27.237	
O	-0.192892084	 1.4115994944	-0.0383744354	-0.455342
C	 0.0149029496	 0.059420902	-0.0060467585	 0.346075
C	-0.9707171809	-1.0812708174	 0.0532810578	-0.107396
N	-0.3823265738	-1.7269607484	-1.112410016	-0.297356
C	 0.828060639	-0.837161059	-1.0007254462	-0.176547
C	 1.8342894316	-1.5314095053	-0.1212992442	 0.412312
N	 2.9675430512	-1.9762513698	-0.4531779255	-0.549244
O	 1.256915361	-1.6679661179	 1.1283391025	-0.243234
C	 0.0871599224	-0.8692689535	 1.1598733544	-0.026093
H	 0.5330575485	 1.8514755981	 0.419541436	 0.296615
H	-2.0343769646	-1.1065815495	 0.2606107607	 0.112099
H	-0.1687567803	-2.7164213673	-0.9846323661	 0.230527
H	 1.2082321892	-0.4461504437	-1.9410608089	 0.110339
H	 3.4204289223	-2.4399788254	 0.3368669233	 0.225409
H	-0.2206010612	-0.5828939273	 2.1569843761	 0.121835
134.7776	247.1866	316.211	332.8389	350.0083	436.549	536.5456	590.455	635.2651	717.9461	749.9466	794.7964	824.9975	868.2856	895.3996	926.9504	934.2603	972.417	1024.1885	1038.6441	1066.7634	1081.1646	1117.8078	1157.6371	1182.9717	1237.1156	1253.8868	1276.1969	1324.9696	1339.0675	1370.3245	1495.9189	1776.0733	3157.3076	3184.66	3213.6291	3452.7498	3468.1271	3786.6358
OC12C3NC1C(=N)OC23	O[C@@]12[C@H]3N[C@@H]1[C]([NH])O[C@@H]23	
InChI=1S/C5H6N2O2/c6-4-2-5(8)1(7-2)3(5)9-4/h1-3,6-8H	InChI=1S/C5H6N2O2/c6-4-2-5(8)1(7-2)3(5)9-4/h1-3,6-8H/t1-,2+,3+,5-/m0/s1
