14
gdb 33601	4.05457	1.53772	1.39004	5.4849	69.54	-0.2494	-0.0046	0.2448	905.3302	0.103475	-395.630842	-395.624799	-395.623854	-395.661302	24.338	
N	-0.0313571672	-1.0500401143	-0.0426284417	-0.344265
C	-0.021651577	 0.1052205014	 0.0195223587	 0.148098
C	 0.0335163045	 1.5253267815	 0.0959965093	 0.313073
C	-0.9271059808	 2.4108083376	 0.8289020188	-0.064806
C	-0.0217874355	 3.64203504	 1.0448910298	-0.063107
N	 1.3230751562	 3.0862056343	 1.3986741979	-0.31796
C	 1.263265487	 2.4658287461	 0.0416338382	-0.129838
C	 0.2214348913	 3.4960003689	-0.4904059571	 0.003294
N	-0.8947943387	 2.4495838786	-0.6636560115	-0.204776
H	-1.7807230326	 2.0463192154	 1.3846742312	 0.129203
H	-0.3957097757	 4.5131555706	 1.5772822757	 0.098241
H	 2.003544023	 3.8468270877	 1.3738520797	 0.225146
H	 2.1784094263	 2.1342316859	-0.4418332846	 0.105938
H	 0.3705859893	 4.2771837263	-1.2321688144	 0.101758
149.6389	163.2058	442.7782	496.8436	525.3308	552.5581	627.077	759.3175	765.8359	808.1284	833.5615	846.3064	869.1121	875.481	899.014	931.3737	975.3447	980.4877	1020.6062	1065.5696	1115.5853	1134.7144	1169.8524	1188.8534	1205.0451	1228.6063	1255.8039	1309.6386	1344.545	1387.7948	2352.7776	3145.5746	3156.5563	3164.8872	3214.3708	3458.1278
N#CC12C3C4NC1C4N23	N#C[C@@]12[C@H]3[C@H]4N[C@@H]1[C@H]4N23	
InChI=1S/C6H5N3/c7-1-6-4-3-2(8-4)5(6)9(3)6/h2-5,8H	InChI=1S/C6H5N3/c7-1-6-4-3-2(8-4)5(6)9(3)6/h2-5,8H/t2-,3-,4+,5+,6-,9?/m0/s1
