16
gdb 18008	5.35626	1.4886	1.33453	2.9792	67.87	-0.234	0.0214	0.2554	951.5917	0.131212	-379.875008	-379.867625	-379.866681	-379.907037	26.807	
C	 0.0119952983	 1.4230257496	 0.2642613532	-0.339017
N	-0.0666530523	-0.0230213798	 0.4171598094	-0.335716
C	-1.0704507709	-0.6309403177	-0.0042295242	 0.515654
O	-2.2389459983	-0.1500932769	-0.6121011006	-0.288211
C	-2.8347052756	-1.4770706039	-0.6244232821	 0.102986
C	-2.5599035229	-2.2713146279	-1.9145321589	-0.189134
N	-1.2215664713	-2.6787354393	-1.3909363644	-0.315168
C	-1.5233242515	-2.0767225349	-0.0595098969	-0.18769
H	 0.8436704051	 1.6657293558	-0.4066985057	 0.13112
H	-0.9017817094	 1.8819114893	-0.1306519967	 0.126353
H	 0.2439275073	 1.8715464857	 1.2359952035	 0.126034
H	-3.8216525568	-1.4805543762	-0.1644856276	 0.098545
H	-3.2645471815	-3.1017046179	-2.0441662182	 0.105308
H	-2.5213756158	-1.6837207079	-2.83671464	 0.122233
H	-1.0983808542	-3.6825752011	-1.3457942206	 0.228778
H	-1.4081890202	-2.7033825568	 0.8238885097	 0.097926
87.9579	105.1977	171.843	205.6796	323.7044	388.9715	467.8838	661.7404	679.3251	746.0628	803.0254	832.5968	866.9164	940.5053	985.0797	1004.9965	1017.4123	1054.6559	1062.5711	1113.0365	1130.9941	1145.266	1170.1757	1196.4704	1225.3766	1259.3966	1322.4002	1342.3736	1387.3804	1438.9719	1493.0219	1494.1256	1497.8051	1853.9557	3018.3643	3026.8987	3084.1713	3087.1522	3090.4672	3121.9519	3132.3664	3556.9572
CN=C1OC2CNC12	CN=C1O[C@H]2CN[C@@H]12	
InChI=1S/C5H8N2O/c1-6-5-4-3(8-5)2-7-4/h3-4,7H,2H2,1H3	InChI=1S/C5H8N2O/c1-6-5-4-3(8-5)2-7-4/h3-4,7H,2H2,1H3/t3-,4+/m0/s1
