18
gdb 33855	4.03977	1.30594	1.16504	1.7015	81.96	-0.2324	0.0325	0.265	1086.1511	0.14815	-364.736643	-364.729098	-364.728154	-364.768276	30.829	
C	 0.0369194381	-1.1473124254	 0.0128479308	-0.395155
C	 0.0161850684	 0.0549426082	-0.0130936746	 0.220991
C	-0.0578357693	 1.4900092451	-0.0422104603	 0.133454
C	 0.418678432	 2.2424293646	-1.2435121366	-0.273305
N	 1.2206859188	 2.2692858506	-0.0232945454	-0.132265
C	 1.0355742622	 3.3930296392	 0.8917401275	 0.010811
C	 0.0610898944	 4.514210233	 0.620093701	-0.306653
C	-0.3449892281	 3.3617894855	 1.5060639208	-0.028062
C	-1.0807544825	 2.1713324643	 0.8891318327	-0.320599
H	 0.0720215416	-2.208209002	 0.034876592	 0.190146
H	 0.8690389718	 1.6901601695	-2.0634339416	 0.124238
H	-0.1379766176	 3.122478872	-1.5498903782	 0.114509
H	 1.9196622114	 3.6053548415	 1.4813284731	 0.101122
H	 0.2730467725	 5.4597170091	 1.1086217346	 0.115378
H	-0.3957769917	 4.6289237363	-0.3558611511	 0.115416
H	-0.4971316168	 3.5532612365	 2.5622434832	 0.092421
H	-1.9912604184	 2.4564228579	 0.3518360593	 0.11441
H	-1.3736016867	 1.467527954	 1.6716088029	 0.123142
123.2871	147.8732	244.4511	276.0029	430.8541	435.9819	521.9729	549.8457	565.5055	598.9627	649.4057	669.6865	725.3635	752.912	800.5497	830.6583	861.1644	893.1581	918.5967	947.3966	993.9874	1036.799	1062.9061	1075.3115	1108.0784	1124.0725	1125.1256	1168.863	1181.2028	1223.9366	1228.6965	1288.9092	1330.9854	1358.6816	1377.3021	1479.1092	1489.6693	1520.2984	2235.8084	3053.515	3104.9733	3115.216	3136.5218	3168.7308	3178.2277	3199.5344	3216.7864	3503.5723
C#CC12CN1C1CC1C2	C#C[C@]12CN1[C@H]1C[C@H]1C2	
InChI=1S/C8H9N/c1-2-8-4-6-3-7(6)9(8)5-8/h1,6-7H,3-5H2	InChI=1S/C8H9N/c1-2-8-4-6-3-7(6)9(8)5-8/h1,6-7H,3-5H2/t6-,7-,8-,9?/m0/s1
