18
gdb 91105	3.23881	1.70194	1.37645	2.1686	76.62	-0.223	-0.0132	0.2098	955.6221	0.149564	-401.878834	-401.87182	-401.870876	-401.909853	28.864	
O	-0.2862158375	 1.3835937267	-0.1768905893	-0.427767
C	 0.0017159469	 0.0091613725	-0.0842715566	 0.078865
C	 0.3341383702	-0.4966983278	 1.3846247543	-0.269089
C	-0.1568643498	-1.9662705737	 1.4402626248	-0.020394
C	-0.8433407349	-2.2586567782	 0.1622733723	-0.105358
N	-1.5765257389	-2.5125165621	 1.3937301666	-0.122856
C	-2.7493390868	-1.6088339105	 1.3566332176	-0.189444
C	-2.3852178709	-0.5165312671	 0.3654473703	-0.123493
C	-1.2311446199	-0.8444729624	-0.2293113995	 0.078853
H	 0.5301323387	 1.8724344514	-0.0354435776	 0.287294
H	 0.815173634	-0.2747376272	-0.7687740496	 0.073663
H	 1.4084417062	-0.4747365689	 1.6065956821	 0.094516
H	-0.1717360095	 0.1778505644	 2.0821422539	 0.113218
H	 0.4940242945	-2.6866861583	 1.9241325082	 0.097904
H	-0.6296402494	-3.0515139652	-0.5483963678	 0.086675
H	-3.6254716077	-2.221495764	 1.1046618275	 0.116251
H	-2.9427775542	-1.1632932718	 2.3406447502	 0.116894
H	-2.7747223609	 0.4922495722	 0.4331923328	 0.114267
157.7171	231.1433	252.6872	290.3343	391.5843	435.8128	513.7518	596.322	637.1357	663.7826	761.5888	772.8425	823.9658	843.8044	887.708	891.3035	917.3536	954.4862	976.3966	1009.4207	1030.1507	1036.6721	1096.1118	1114.9193	1143.3755	1179.8589	1198.6909	1210.8307	1241.9833	1248.4348	1289.8855	1300.0243	1308.2758	1326.766	1356.5483	1436.6753	1473.9152	1482.4281	1653.3055	2985.4059	3013.577	3027.9578	3050.5379	3087.945	3147.1622	3166.8901	3207.2046	3826.26
OC1CC2C3N2CC=C13	O[C@H]1C[C@@H]2[C@H]3N2C[CH][C]13	
InChI=1S/C7H9NO/c9-6-3-5-7-4(6)1-2-8(5)7/h1,5-7,9H,2-3H2	InChI=1S/C7H9NO/c9-6-3-5-7-4(6)1-2-8(5)7/h1,5-7,9H,2-3H2/t5-,6+,7+,8?/m1/s1
