20
gdb 76503	2.95845	1.27929	1.14043	1.5078	79.75	-0.2201	0.0721	0.2922	1164.6146	0.170531	-403.07785	-403.069121	-403.068176	-403.110926	33.795	
C	-0.1195293293	 1.5103268966	 0.0326405089	-0.418583
C	 0.0229259435	 0.0043596413	 0.0425428884	-0.118445
C	 1.3861007849	-0.6486079475	-0.124114575	-0.016678
O	 2.5445689441	 0.1359155767	-0.1769588424	-0.418013
C	 0.6904223535	-0.6970452859	 1.1971014561	 0.383587
C	 1.2673517011	-0.1026795502	 2.5068768408	-0.304823
C	 0.8113017694	-1.3892426959	 3.2122068484	-0.037684
N	-0.6586941813	-1.4812809656	 3.0221215442	-0.336423
C	 0.2607982447	-1.9416100795	 1.9444170177	-0.168371
H	 0.7862507322	 1.9917400663	 0.4101340418	 0.127731
H	-0.3008630851	 1.885111145	-0.9815911848	 0.106987
H	-0.9587402869	 1.8282987543	 0.6595188414	 0.126499
H	-0.8033387549	-0.536213821	-0.4148779859	 0.079268
H	 1.4384685868	-1.5715106957	-0.7045531058	 0.078567
H	 2.5887016907	 0.5475365995	-1.0464827348	 0.289332
H	 2.3521592361	 0.0117296588	 2.4575724403	 0.120496
H	 0.8098129411	 0.8177699438	 2.8782274584	 0.104323
H	 1.2965324058	-1.8961456653	 4.0368731097	 0.09132
H	-0.9649756584	-2.3186172484	 3.5194981588	 0.223263
H	 0.2238666918	-2.9602332272	 1.5760718136	 0.087648
108.7765	147.0668	172.8535	184.9716	236.0978	291.6696	317.1078	389.163	449.1185	563.4416	579.1705	583.7198	762.1392	804.2625	815.2373	834.1084	862.7356	905.6368	940.9225	965.6525	995.1956	1013.4939	1046.7618	1064.3875	1090.9289	1108.2675	1124.9221	1144.6247	1160.5594	1172.8073	1197.0701	1223.7185	1272.3314	1297.1117	1306.3826	1326.9571	1371.6885	1383.7419	1412.3949	1474.7683	1482.7349	1499.5703	1506.9106	3029.8032	3064.5548	3078.029	3088.8785	3114.1959	3124.9851	3131.0264	3177.2242	3194.5313	3455.8756	3804.3022
CC1C(O)C11CC2NC12	C[C@H]1[C@@H](O)[C@]21C[C@H]1N[C@@H]21	
InChI=1S/C7H11NO/c1-3-6(9)7(3)2-4-5(7)8-4/h3-6,8-9H,2H2,1H3	InChI=1S/C7H11NO/c1-3-6(9)7(3)2-4-5(7)8-4/h3-6,8-9H,2H2,1H3/t3-,4+,5+,6+,7-/m0/s1
