17
gdb 30634	4.51425	1.04423	0.85699	2.1346	75.64	-0.2425	-0.0446	0.1979	1318.3111	0.136905	-418.075604	-418.067248	-418.066303	-418.109317	30.15	
C	 0.0539296462	 1.555177631	 0.0103505033	-0.382273
C	-0.0378357714	 0.0304572053	 0.0033139519	-0.315552
C	-1.4757108926	-0.4573859911	 0.0122649432	 0.442584
O	-2.4355005392	 0.2718875311	 0.0236015518	-0.315051
N	-1.654052283	-1.8611415975	 0.0065233531	-0.092664
C	-2.8905052774	-2.4997904793	 0.0130435472	-0.0941
C	-2.6147964001	-3.8310282207	 0.00418048	-0.094861
N	-1.2443544303	-4.0536367975	-0.007866864	-0.272259
C	-0.703806134	-2.8690735962	-0.0062095529	 0.027508
H	 1.1005452115	 1.8702127734	 0.0035820969	 0.117403
H	-0.4434262928	 1.9804791636	-0.864280845	 0.139241
H	-0.4293303506	 1.9715049629	 0.8971179103	 0.139239
H	 0.4633898356	-0.3889778232	-0.8778583769	 0.13972
H	 0.4773054517	-0.3978916218	 0.8720858126	 0.13972
H	-3.7995034561	-1.9252563225	 0.0231554687	 0.159378
H	-3.3118284741	-4.6547322537	 0.0055784675	 0.121675
H	 0.3542493666	-2.6605943037	-0.013578498	 0.140293
62.76	94.0537	152.9129	169.9232	204.645	295.7768	381.0059	515.8301	550.5733	639.0233	668.1556	716.2705	776.7816	817.176	832.4559	885.4764	907.7645	944.4519	1012.7144	1048.6474	1080.6951	1101.6702	1120.7041	1130.8047	1261.2179	1286.6806	1294.4485	1324.7208	1370.5633	1416.5933	1418.0973	1462.7805	1491.6817	1498.5506	1513.7947	1571.3214	1816.6965	3033.5222	3057.1832	3066.6754	3130.2273	3135.9575	3257.4308	3267.4866	3308.3751
CCC(=O)N1C=CN=C1	CCC(=O)n1ccnc1	
InChI=1S/C6H8N2O/c1-2-6(9)8-4-3-7-5-8/h3-5H,2H2,1H3	InChI=1S/C6H8N2O/c1-2-6(9)8-4-3-7-5-8/h3-5H,2H2,1H3
