19
gdb 109504	2.01029	1.36624	1.03377	2.5936	78.69	-0.238	0.0387	0.2768	1235.0963	0.155922	-422.973665	-422.963571	-422.962627	-423.008242	37.836	
C	-0.1215863899	 1.5813692127	 0.1589625408	-0.46072
C	-0.0397345276	 0.0865205235	-0.0407277669	 0.370009
O	-1.1384641974	-0.6179373482	 0.4705904752	-0.456815
C	 0.5276137089	-0.5564995529	-1.2639380574	-0.079125
C	 1.1166508872	 0.205106759	-2.4323003597	-0.095423
O	 2.1891155164	-0.5019876698	-3.0322232118	-0.420227
C	 1.3067464793	-0.6510329905	 0.0606167091	-0.311802
C	 2.5510212001	 0.0402927407	 0.2087810708	 0.327794
C	 3.6061172564	 0.614344629	 0.3088343648	-0.466805
H	 0.7801928692	 2.0924790045	-0.1809754694	 0.139934
H	-0.9872280188	 1.990443167	-0.3708351627	 0.130922
H	-0.2390773287	 1.8081326621	 1.2259293635	 0.1128
H	-1.2090364023	-0.4159394367	 1.4109664573	 0.281663
H	 0.0408219855	-1.4874342482	-1.537705367	 0.11233
H	 0.3577914781	 0.3256954075	-3.2125470571	 0.114258
H	 1.431258238	 1.2112087547	-2.1250572555	 0.094913
H	 2.8966199902	-0.5371493402	-2.3777751209	 0.289209
H	 1.2449581198	-1.6135939882	 0.5590174062	 0.117864
H	 4.5308573255	 1.1238739739	 0.4223604507	 0.19922
73.23	131.4441	137.5835	171.0502	226.9514	233.799	318.2759	337.6573	362.2005	390.3111	403.3026	426.197	503.9776	540.5769	582.291	632.3113	657.7173	708.8786	834.4407	844.9915	937.6253	970.3209	1009.8644	1042.8314	1063.5923	1094.3759	1109.6712	1134.2202	1194.0541	1250.0028	1273.8366	1325.2955	1344.6655	1400.9029	1420.2856	1426.3188	1449.7009	1491.475	1502.0375	1506.0805	2219.8974	3016.818	3030.6593	3074.3605	3094.4609	3141.7677	3153.7469	3167.145	3500.9979	3786.5068	3791.3168
CC1(O)C(CO)C1C#C	C[C@@]1(O)[C@@H](CO)[C@H]1C#C	
InChI=1S/C7H10O2/c1-3-5-6(4-8)7(5,2)9/h1,5-6,8-9H,4H2,2H3	InChI=1S/C7H10O2/c1-3-5-6(4-8)7(5,2)9/h1,5-6,8-9H,4H2,2H3/t5-,6+,7+/m1/s1
