17
gdb 120132	3.46088	0.91227	0.84421	3.2185	68.42	-0.2708	-0.0047	0.2662	1377.8306	0.135231	-458.948764	-458.940277	-458.939333	-458.982929	30.886	
O	 0.0733322131	 1.3458936123	 0.0116390289	-0.414405
C	-0.0715764249	-0.046006857	 0.2262123958	-0.054077
C	-1.4142574542	-0.5822522921	-0.285465683	-0.247316
C	-1.5111073617	-2.0869684957	-0.1534342797	-0.043645
C	-1.9227340813	-2.8059200112	 1.0809068228	 0.080917
O	-2.90608856	-2.0242174415	 1.8137162601	-0.264315
C	-3.8100241256	-2.1690522744	 0.7604812937	 0.465991
O	-4.9458479376	-1.827728576	 0.7390232028	-0.319862
C	-2.8290914345	-2.8913300952	-0.1245749	-0.307916
H	-0.5863579983	 1.7984392241	 0.5471564983	 0.28587
H	 0.7541919691	-0.5168694799	-0.3195198271	 0.109847
H	 0.0512949633	-0.3085907802	 1.2886811957	 0.09816
H	-2.226502966	-0.1049932411	 0.2731105318	 0.118445
H	-1.5326881794	-0.2954404528	-1.3359933914	 0.118936
H	-0.755760704	-2.6357804925	-0.7162450242	 0.111258
H	-1.3967827417	-3.5711847054	 1.6339952913	 0.131384
H	-3.0506416062	-3.6931605114	-0.8132663957	 0.130728
60.685	90.1731	99.758	193.4378	264.48	312.22	387.367	414.2039	480.8952	601.8681	707.2606	755.4499	791.2402	804.0186	826.4179	896.1043	933.7149	946.3424	1007.0597	1027.5045	1056.7031	1065.1709	1076.4487	1089.0726	1116.7199	1142.765	1221.8318	1268.7524	1293.5508	1316.9085	1331.5468	1397.3453	1425.9914	1444.0602	1481.0685	1511.8472	1945.7449	2984.0315	3045.9214	3060.2768	3091.9914	3120.7076	3221.6301	3234.4849	3814.6628
OCCC1C2OC(=O)C12	OCC[C@H]1[C@H]2OC(=O)[C@@H]12	
InChI=1S/C6H8O3/c7-2-1-3-4-5(3)9-6(4)8/h3-5,7H,1-2H2	InChI=1S/C6H8O3/c7-2-1-3-4-5(3)9-6(4)8/h3-5,7H,1-2H2/t3-,4+,5-/m1/s1
