18
gdb 81057	2.517	1.60319	1.22353	10.1356	73.57	-0.1939	0.0352	0.2292	1056.465	0.148332	-439.017318	-439.009069	-439.008125	-439.050591	31.018	
C	-0.3514090691	 1.3822858119	-0.1054322672	-0.361863
N	 0.0121569635	-0.0465773995	-0.0260891527	-0.06175
H	-0.8123639971	-0.6122430779	-0.2245932567	 0.278083
C	 0.9721246715	-0.6621992418	 0.9976689808	-0.039195
C	 1.0889989126	-1.878469017	 0.0499763657	-0.265192
C	 1.2307376959	-0.6226452247	-0.8664988909	 0.199089
C	 2.1608272374	-0.0291045131	 0.2368809426	-0.262023
C	 1.148519973	-0.4775380535	-2.4105042858	 0.287062
O	 0.0382220854	-0.0340269322	-2.7691854437	-0.495489
O	 2.1743497492	-0.8357050084	-2.9882074098	-0.44959
H	-0.6119986691	 1.5611697858	-1.1507030548	 0.212898
H	-1.1955091151	 1.5751362728	 0.5606247118	 0.143581
H	 0.4893896457	 2.0080094276	 0.1870885631	 0.159559
H	 0.7129804853	-0.6193527269	 2.056327713	 0.115387
H	 1.9888565172	-2.4798330073	 0.1511228835	 0.145827
H	 0.1967408476	-2.4951663721	-0.0886386042	 0.122769
H	 2.2926373146	 1.0508361359	 0.2766057449	 0.126614
H	 3.1117390915	-0.5447836497	 0.3473695905	 0.144232
48.8876	152.3179	170.9913	188.6477	268.2193	333.5245	369.7033	463.4196	547.3729	596.7913	638.9704	731.5214	763.3996	776.3722	823.6949	909.595	941.1947	954.1515	984.0922	1001.5173	1074.3411	1080.2682	1108.5174	1132.7589	1137.4391	1173.6018	1178.9536	1184.5975	1237.7328	1245.5297	1265.5808	1326.4139	1421.1158	1471.6551	1488.5603	1503.8604	1521.6374	1544.7036	1806.9488	3062.9258	3074.5157	3107.4291	3119.0245	3150.8041	3177.3342	3182.0878	3187.865	3479.5049
C[NH+]1C2CC1(C2)C([O-])=O	C[NH]1[C@H]2C[C@@]1(C2)C(=O)[O]	
InChI=1S/C6H9NO2/c1-7-4-2-6(7,3-4)5(8)9/h4H,2-3H2,1H3,(H,8,9)	InChI=1S/C6H9NO2/c1-7-4-2-6(7,3-4)5(8)9/h4,7H,2-3H2,1H3/t4-,6+
