19
gdb 78846	2.64793	1.80289	1.46126	1.8055	77.03	-0.2158	0.0826	0.2984	974.787	0.16022	-385.847646	-385.840196	-385.839251	-385.879068	30.657	
C	-0.0725282148	 1.5300182388	-0.0510665113	-0.515615
C	 0.0480897112	 0.0374180084	-0.0140803086	 0.342547
C	 0.8719080729	-0.8408986706	-1.0033557603	-0.159044
C	-0.1990310728	-1.9090982197	-0.9526992913	-0.086915
C	 1.1191915148	-2.1432265177	-0.2556039458	-0.120144
C	 0.990237975	-1.9130498029	 1.2409331797	 0.138709
O	 2.1944107522	-1.5168992784	 1.8762733299	-0.438662
C	-0.0894742295	-0.844336292	 1.2207863221	-0.170011
C	-1.0182957166	-1.0386991712	 0.0407797707	-0.146626
H	 0.8792811086	 2.0189609372	 0.1920392134	 0.11498
H	-0.3809159713	 1.8834133655	-1.0419416752	 0.120544
H	-0.8167957487	 1.8795577031	 0.6719142247	 0.12124
H	 1.4570106088	-0.490388219	-1.843073789	 0.085048
H	-0.5920470382	-2.5278069487	-1.7474077319	 0.088029
H	 1.8224335214	-2.8660922314	-0.6512626976	 0.088885
H	 0.6671858451	-2.8161372726	 1.7693952763	 0.088666
H	 2.5123056165	-0.734491575	 1.4109389779	 0.277368
H	-0.4672259295	-0.4156091924	 2.1415564332	 0.085938
H	-2.094858125	-0.9420420314	 0.0847340131	 0.085061
142.0453	203.6217	238.536	279.4527	296.6927	375.0886	534.1941	565.0219	585.7912	690.7031	746.9259	765.3344	777.4212	841.9766	849.3889	874.1208	892.7829	922.7223	955.9296	966.3017	986.2014	1007.2844	1026.4633	1045.2551	1056.3164	1070.8249	1097.1194	1118.2796	1184.563	1212.0651	1236.6654	1263.6318	1272.5281	1282.0741	1298.6342	1362.9056	1414.3674	1427.8188	1444.1861	1484.3274	1500.4793	3016.5717	3063.6963	3071.8076	3095.608	3187.1949	3191.2335	3196.9042	3202.0397	3213.7199	3793.4266
CC12C3C4C3C(O)C1C24	C[C@@]12[C@@H]3[C@H]4[C@@H]3[C@@H](O)[C@@H]1[C@@H]24	
InChI=1S/C8H10O/c1-8-4-2-3(4)7(9)6(8)5(2)8/h2-7,9H,1H3	InChI=1S/C8H10O/c1-8-4-2-3(4)7(9)6(8)5(2)8/h2-7,9H,1H3/t2-,3+,4-,5+,6+,7-,8+/m1/s1
