15
gdb 11714	5.72098	1.36258	1.24194	4.2367	66.88	-0.2715	0.017	0.2885	952.0751	0.119387	-362.646903	-362.639657	-362.638713	-362.678305	27.303	
O	-0.1109870981	 1.4397580659	-0.0924325165	-0.427162
C	-0.0201967755	 0.0412946393	 0.0337296201	 0.118887
C	 0.2652105644	-0.5660500237	 1.4549287593	-0.333483
C	-1.0912828038	-1.2868934311	 1.38155457	 0.20856
C	-2.1948863022	-0.2699996787	 1.1975375427	-0.309506
C	-1.3799883178	-0.6474211856	 0.0014276939	-0.096364
C	-1.335047694	-2.6248986472	 1.805854863	 0.185811
N	-1.5148603438	-3.7146038802	 2.1539136889	-0.350387
H	 0.7790045131	 1.8064724005	-0.0820790163	 0.28986
H	 0.660711424	-0.3863250919	-0.7124217462	 0.086085
H	 1.1198363869	-1.244068189	 1.4651611093	 0.124897
H	 0.3582467656	 0.1577659079	 2.2691932942	 0.112317
H	-3.2014332432	-0.6721590649	 1.2155450167	 0.139853
H	-2.0817666997	 0.7107676939	 1.6486636035	 0.1372
H	-1.8240217659	-1.1196721252	-0.8652304426	 0.113433
104.6381	153.7419	221.9963	284.1488	330.9647	421.8635	472.3802	558.072	576.2287	599.5859	700.2937	817.5881	859.6116	890.8388	966.844	970.3893	990.0461	1030.3656	1068.9	1090.0309	1117.0018	1169.867	1197.9177	1225.0087	1245.6302	1289.7444	1318.9304	1386.2034	1427.2849	1474.5529	1495.0282	2344.9862	3025.3268	3063.9544	3131.881	3133.6207	3202.5937	3228.3162	3818.6775
OC1CC2(CC12)C#N	O[C@H]1C[C@]2(C[C@@H]12)C#N	
InChI=1S/C6H7NO/c7-3-6-1-4(6)5(8)2-6/h4-5,8H,1-2H2	InChI=1S/C6H7NO/c7-3-6-1-4(6)5(8)2-6/h4-5,8H,1-2H2/t4-,5-,6+/m0/s1
