17
gdb 97407	2.76635	1.00079	0.79196	4.7731	78.03	-0.2615	0.0065	0.268	1448.7174	0.134159	-417.995242	-417.985912	-417.984968	-418.030467	32.611	
C	 0.1559483492	 0.9721627831	 0.4687969067	-0.316655
N	-0.2147635556	-0.1107678877	-0.4185206129	-0.195063
C	-1.0693889865	-0.9300372964	-0.0097979456	 0.134393
O	-1.4282713358	-1.9849784159	-0.7985478994	-0.202748
C	-2.5139538538	-2.7341232508	-0.3589427642	 0.112992
C	-2.5221985339	-4.1609206769	-0.7699288633	-0.311958
C	-2.3073648866	-3.8183918479	 0.7026978433	-0.212983
C	-1.0156943318	-3.9992517694	 1.297196318	 0.296812
N	 0.0184136998	-4.1365993475	 1.7972383971	-0.33065
H	 1.2289514175	 0.9152776319	 0.6817127721	 0.138417
H	-0.0200427844	 1.9298901572	-0.033162388	 0.131125
H	-0.3877102687	 0.9740407715	 1.4270156114	 0.100771
H	-1.5814558555	-0.9002426371	 0.9623712286	 0.087352
H	-3.4558808676	-2.1922103376	-0.3105092299	 0.121734
H	-3.4609828546	-4.6279021088	-1.0410614667	 0.140086
H	-1.651547685	-4.5028577668	-1.3161133262	 0.164948
H	-3.1379169066	-3.9950094709	 1.3781171189	 0.141428
45.3619	77.9154	128.6145	146.4899	208.2202	219.0905	306.6206	332.2527	365.9678	461.1479	540.4915	576.0433	676.015	775.5243	789.5314	867.9042	973.3168	987.1487	1022.906	1060.7277	1078.1632	1118.8633	1123.5363	1141.1966	1144.4796	1182.3251	1198.8379	1256.8401	1367.6018	1387.1565	1412.8635	1450.0569	1479.049	1480.3246	1503.6744	1787.6167	2356.7373	2975.6024	3019.6631	3066.5405	3086.7871	3132.271	3155.6886	3169.739	3252.1139
CN=COC1CC1C#N	CN=CO[C@H]1C[C@H]1C#N	
InChI=1S/C6H8N2O/c1-8-4-9-6-2-5(6)3-7/h4-6H,2H2,1H3	InChI=1S/C6H8N2O/c1-8-4-9-6-2-5(6)3-7/h4-6H,2H2,1H3/t5-,6-/m0/s1
