19
gdb 91607	2.28372	2.02998	1.48131	2.6064	76.3	-0.2158	0.0291	0.2449	966.4791	0.162317	-419.217643	-419.210252	-419.209308	-419.249256	29.634	
C	-0.2178068201	 1.4544018611	-0.0276750838	-0.329894
N	 0.0627831197	 0.0286965845	-0.0127356248	-0.059987
C	 0.8262395362	-0.4863035978	-1.1739981042	-0.176978
C	 1.858624551	-1.3946105574	-0.4923212794	 0.078856
C	 1.0802210781	-1.9228244132	 0.7232087781	-0.241654
C	 0.7718901513	-0.4890815038	 1.18033211	-0.093244
C	 2.1783962027	 0.0881982241	 1.1893031665	 0.439733
N	 2.6598415873	 0.9737882911	 1.9476925163	-0.567092
O	 2.83018965	-0.508986883	 0.1296121329	-0.262692
H	 0.684798025	 2.0882897037	-0.0455266221	 0.11374
H	-0.8234695876	 1.6920832291	-0.9078418675	 0.120026
H	-0.7982689454	 1.720902572	 0.8609300083	 0.125749
H	 0.1786224884	-1.0311833952	-1.8721104105	 0.105841
H	 1.341872394	 0.3099120737	-1.7268064836	 0.106752
H	 2.3930873355	-2.0975390673	-1.1283548086	 0.091484
H	 0.1822046754	-2.4860920311	 0.4663872377	 0.117105
H	 1.7125179587	-2.4835842499	 1.413829039	 0.118733
H	 0.2109739137	-0.3301009783	 2.0986188029	 0.094273
H	 3.6201051663	 1.1973015278	 1.6757016927	 0.219248
139.2596	141.1909	214.9549	345.1171	384.1412	415.6123	424.4042	477.685	568.2929	680.5741	705.1734	803.122	824.8214	873.5104	887.8828	905.5721	939.4045	949.0979	967.7377	979.0237	1046.7435	1050.203	1089.6543	1122.3762	1153.509	1166.017	1208.9777	1228.6146	1238.2434	1261.5778	1288.6315	1299.2117	1327.0298	1361.5897	1370.4736	1459.9576	1481.1307	1488.8993	1503.3345	1515.0219	1783.473	2964.8602	3010.224	3047.68	3065.963	3084.9511	3106.2303	3143.6841	3148.7881	3151.21	3453.9719
CN1CC2CC1C(=N)O2	CN1C[C@@H]2C[C@H]1[C]([NH])O2	
InChI=1S/C6H10N2O/c1-8-3-4-2-5(8)6(7)9-4/h4-5,7H,2-3H2,1H3	InChI=1S/C6H10N2O/c1-8-3-4-2-5(8)6(7)9-4/h4-5,7H,2-3H2,1H3/t4-,5-/m0/s1
