13
gdb 130306	3.55858	1.77704	1.1872	5.6111	65.03	-0.2274	-0.0069	0.2205	937.6756	0.092394	-448.925092	-448.918571	-448.917627	-448.955852	25.456	
N	 0.0032646803	 1.3803582558	 0.1548803847	-0.593529
C	 0.0262848702	 0.0139526395	 0.0281817386	 0.441928
N	-1.0332755772	-0.7484995346	-0.0099540372	-0.213797
O	-0.554162711	-2.0953803327	-0.0312149848	-0.252773
C	 0.7846600068	-2.0367562573	-0.035870197	 0.536666
N	 1.7552923281	-2.8997310517	-0.056657239	-0.400536
C	 2.8809951318	-2.081881039	-0.0216726636	-0.071685
C	 2.5760469035	-0.7447635985	 0.0203481409	-0.173882
N	 1.1815804575	-0.7267604708	 0.0059683762	-0.088188
H	 0.672483281	 1.8678165665	-0.4263210798	 0.271114
H	-0.9301010245	 1.7587442495	 0.0584943108	 0.280178
H	 3.8688399709	-2.5176799113	-0.0272610882	 0.124261
H	 3.1760204027	 0.1461161345	 0.0684309183	 0.140245
167.0635	250.8733	267.2458	318.4938	392.2404	568.3302	600.0926	620.7604	659.9482	666.501	702.8763	725.1953	763.0976	809.7598	868.6259	916.373	960.1311	1073.6514	1135.5135	1152.0716	1194.4522	1274.5968	1345.9475	1396.1434	1506.6312	1553.5879	1592.8688	1637.6817	1683.1305	3252.6512	3301.0447	3549.677	3649.159
NC1=NOC2=NC=CN12	Nc1noc2nccn12	
InChI=1S/C4H4N4O/c5-3-7-9-4-6-1-2-8(3)4/h1-2H,(H2,5,7)	InChI=1S/C4H4N4O/c5-3-7-9-4-6-1-2-8(3)4/h1-2H,(H2,5,7)
