22
gdb 60863	2.8189	1.12118	1.03828	4.0336	83.16	-0.2331	0.0319	0.265	1289.8179	0.193423	-404.365972	-404.356167	-404.355223	-404.400595	36.481	
C	 0.7610413275	 1.3142531157	 0.1125885889	-0.356647
N	 0.0059575942	 0.0705884489	 0.0984041929	-0.091324
C	-0.941832904	-0.1324302678	 1.0579805097	 0.142347
O	-1.1712295029	 0.606459044	 1.9958520841	-0.351965
C	 0.1181980852	-0.8086990628	-1.065977726	 0.316096
C	-0.7294834095	-0.2822465032	-2.2320187573	-0.424077
C	 1.5735739729	-1.157534038	-1.5063642992	-0.252849
C	 1.1252207336	-2.6285514361	-1.7109064444	-0.232875
C	-0.1101982865	-2.3340726368	-0.8210473695	-0.254367
H	 1.8355071382	 1.1198861406	 0.0393728603	 0.124438
H	 0.4721155238	 1.9744182132	-0.7142842632	 0.122806
H	 0.5440819954	 1.8167194418	 1.0550290319	 0.168614
H	-1.4958765077	-1.0754473557	 0.9012066404	 0.076483
H	-0.4264443531	 0.7307702828	-2.514740663	 0.121895
H	-0.6247874499	-0.9183784958	-3.1162818559	 0.11995
H	-1.7879431976	-0.2568618677	-1.9533403613	 0.123516
H	 1.9783272512	-0.6160050292	-2.3649683733	 0.100499
H	 2.2696400298	-1.0696592869	-0.6685039757	 0.111725
H	 0.8549733991	-2.845551275	-2.7470891957	 0.110285
H	 1.8082948406	-3.4057122859	-1.3644508743	 0.107209
H	 0.0812504177	-2.6035855363	 0.2199896771	 0.115079
H	-1.075424958	-2.7468730197	-1.1239887066	 0.103161
64.9287	97.9099	150.0549	189.6945	200.9228	257.2458	294.66	324.7439	338.1848	368.7361	421.1277	471.045	503.017	695.7681	785.6043	800.9679	873.1137	890.0775	918.8517	925.4476	943.8529	993.5257	1031.5163	1045.9991	1059.6457	1155.7966	1166.8882	1171.1301	1191.3278	1208.3458	1254.5863	1263.3609	1276.4591	1286.4808	1310.8502	1385.0724	1410.3946	1435.698	1444.5506	1471.6667	1482.6678	1490.6579	1497.0239	1502.8662	1509.4295	1515.457	1784.0725	2968.5053	3024.0111	3035.9081	3059.1728	3064.7661	3072.9254	3082.9815	3107.5367	3108.671	3109.279	3118.0189	3132.3197	3157.5767
CN(C=O)C1(C)CCC1	CN(C=O)C1(C)CCC1	
InChI=1S/C7H13NO/c1-7(4-3-5-7)8(2)6-9/h6H,3-5H2,1-2H3	InChI=1S/C7H13NO/c1-7(4-3-5-7)8(2)6-9/h6H,3-5H2,1-2H3
