22
gdb 115729	2.79834	1.1224	0.87215	2.5029	83.33	-0.2382	0.0787	0.3169	1403.5731	0.193582	-404.298187	-404.288676	-404.287732	-404.333727	34.61	
C	-0.0424741306	 1.5385609538	-0.0285192929	-0.385541
C	-0.1076561663	 0.0727577582	 0.4113591145	-0.183206
C	-1.4232165281	-0.5755398563	 0.0160718645	 0.137707
O	-1.6265918531	-0.5934739774	-1.4213587994	-0.293608
C	-1.7436658954	-2.0286254666	-1.4434125396	-0.08288
C	-1.5509109092	-2.1241506022	 0.0823322927	-0.034792
N	-0.3630261534	-2.8445154758	 0.4932903843	-0.053566
C	-0.3189003441	-3.2876858377	 1.8847305362	-0.223343
C	-0.5456964545	-4.2647966197	 0.7861911566	-0.227767
H	 0.9224122749	 1.9850617702	 0.2295388881	 0.108484
H	-0.1774354493	 1.6169273042	-1.1108851399	 0.136886
H	-0.8265934769	 2.135403209	 0.451318909	 0.108331
H	 0.7141834437	-0.4985663451	-0.0300177097	 0.114567
H	 0.0028038856	-0.0034533695	 1.5011604642	 0.090264
H	-2.2603880948	-0.0555689387	 0.5051423262	 0.064704
H	-2.7182425952	-2.356749368	-1.8253063624	 0.095339
H	-0.9441262118	-2.5033309453	-2.0245281794	 0.106007
H	-2.4488402671	-2.4623505769	 0.6238749363	 0.057654
H	 0.6494449918	-3.2173641829	 2.3710233725	 0.120881
H	-1.1688982306	-3.0515837852	 2.5232659692	 0.111834
H	-1.5472404516	-4.6814368871	 0.690590489	 0.111537
H	 0.2539840262	-4.9207853711	 0.4554225102	 0.120509
39.949	68.4414	104.8582	130.9408	215.875	231.4362	286.8281	313.7715	415.6179	454.4625	549.5833	730.066	757.0571	823.7899	827.3712	879.787	900.4384	927.1036	950.3229	977.5795	1022.0911	1031.4208	1049.8039	1088.9534	1104.768	1111.899	1120.2544	1120.8965	1161.8807	1166.5027	1176.958	1208.2682	1259.6832	1274.1894	1290.8609	1321.7694	1332.354	1361.1858	1395.1187	1402.4853	1409.4166	1478.3085	1490.587	1497.9466	1509.9412	1515.226	1518.6573	2958.7047	2990.2859	3016.1601	3027.5842	3033.8045	3063.1856	3084.4889	3094.5619	3099.1245	3104.3235	3119.5201	3179.9813	3194.0628
CCC1OCC1N1CC1	CC[C@H]1OC[C@H]1N1CC1	
InChI=1S/C7H13NO/c1-2-7-6(5-9-7)8-3-4-8/h6-7H,2-5H2,1H3	InChI=1S/C7H13NO/c1-2-7-6(5-9-7)8-3-4-8/h6-7H,2-5H2,1H3/t6-,7-/m1/s1
