18
gdb 77863	2.07664	1.61351	1.53238	4.2733	75.27	-0.2672	0.0169	0.2841	1015.2169	0.147973	-401.933287	-401.924832	-401.923888	-401.966	32.285	
C	-0.3057803863	 1.5547939668	 0.0235448353	-0.432833
C	 0.0030869438	 0.0639626694	-0.0100046667	-0.038666
C	 0.6894482518	-0.5877216663	-1.2186300392	-0.086259
C	 2.1446479581	-0.1973020172	-1.3903205246	-0.179875
C	 2.7200962232	 1.0882440815	-1.0866921545	 0.291654
N	 3.2069248975	 2.1076460327	-0.8305170138	-0.354846
C	 1.7662089471	-1.2095271561	-0.3297197663	-0.109518
C	 1.1393596072	-0.5460003393	 0.9110509604	 0.105827
O	 1.9081821202	 0.2741744002	 1.7413840948	-0.426736
H	 0.5678656395	 2.1785219558	-0.1728028643	 0.145226
H	-1.0671045048	 1.8047416627	-0.7230433267	 0.11828
H	-0.6976594016	 1.8328037066	 1.00702355	 0.128523
H	-0.9197030682	-0.4894098101	 0.1933555208	 0.087347
H	 0.1770868557	-1.0399385899	-2.0596118152	 0.103883
H	 2.6029136359	-0.6498644982	-2.2654329283	 0.140782
H	 2.2013743609	-2.2012044335	-0.3648027654	 0.104681
H	 0.7179289173	-1.3095354014	 1.5692133926	 0.101061
H	 2.3313878227	 0.9656699265	 1.2188860211	 0.30147
127.9304	143.9335	174.793	206.4639	226.1841	280.8297	372.3583	433.0567	475.1968	558.201	564.1809	650.6722	733.0491	767.6017	775.9829	797.223	904.3389	939.8844	957.2349	988.5387	1005.5293	1055.776	1078.0889	1095.3481	1143.7832	1161.1354	1186.5125	1217.2326	1272.4694	1286.9547	1311.3643	1339.5858	1369.7887	1411.5074	1420.3474	1449.5246	1498.2095	1504.9035	2336.2719	3041.6285	3047.4452	3085.1069	3103.3373	3141.0972	3153.1202	3179.0861	3190.6492	3789.0038
CC1C2C(C#N)C2C1O	C[C@H]1[C@H]2[C@@H](C#N)[C@H]2[C@H]1O	
InChI=1S/C7H9NO/c1-3-5-4(2-8)6(5)7(3)9/h3-7,9H,1H3	InChI=1S/C7H9NO/c1-3-5-4(2-8)6(5)7(3)9/h3-7,9H,1H3/t3-,4+,5-,6+,7-/m0/s1
