21
gdb 62887	3.10781	1.50048	1.17742	1.4966	83.46	-0.245	0.0896	0.3347	1113.5353	0.181876	-387.01972	-387.011316	-387.010372	-387.051933	34.46	
C	-0.1382163581	 1.5973829177	-0.0024479754	-0.45729
C	 0.0069507521	 0.0836678665	 0.0091355047	 0.478478
O	-1.3006708745	-0.3969634327	-0.1853591313	-0.495004
C	 1.1752132354	-0.6192355871	-0.7867033729	-0.197546
C	 2.1519610592	-0.1208666669	 0.3218744209	-0.237937
C	 0.8993187691	-0.6311300486	 1.0976921399	-0.197526
C	 0.9518936139	-1.8403061516	 0.1353255217	 0.431354
C	 0.1523009008	-3.1027785596	 0.0103009469	-0.40339
C	 1.6629316683	-3.1416218226	 0.2312239186	-0.382779
H	 0.8004292119	 2.1319193022	 0.1383896963	 0.115501
H	-0.5756141897	 1.9093486827	-0.9556433062	 0.125166
H	-0.8310242982	 1.8981168713	 0.7892561836	 0.12517
H	-1.265073963	-1.3590827307	-0.186356161	 0.288354
H	 1.3385209302	-0.6279882398	-1.8661994316	 0.068986
H	 3.0524755546	-0.7230308412	 0.4499185409	 0.100115
H	 2.380772194	 0.9430520989	 0.3620791858	 0.093568
H	 0.7463473732	-0.6535250316	 2.1785040413	 0.068986
H	-0.4808213348	-3.4130042362	 0.8371154229	 0.121458
H	-0.2166651412	-3.4016482583	-0.9670673352	 0.121454
H	 2.2805352355	-3.464108124	-0.6012460174	 0.116441
H	 2.0165630114	-3.4754718883	 1.2017530874	 0.116441
143.4131	176.8251	191.2334	229.0062	321.4634	376.7422	383.8742	410.549	435.9266	481.7135	582.8952	645.9953	691.8929	752.2131	776.191	802.1668	878.5933	884.7505	913.9496	942.6107	969.9717	976.9877	1011.3068	1044.7517	1050.3324	1076.2313	1079.2741	1083.9639	1101.7536	1117.5003	1156.8384	1179.976	1186.8312	1199.0328	1216.1529	1240.7509	1260.4633	1382.3721	1398.1479	1426.4614	1462.4624	1480.969	1494.584	1509.365	1530.5603	3050.7206	3082.2737	3092.5232	3101.2435	3109.2587	3109.6314	3121.6529	3143.0544	3159.0851	3188.9545	3206.9089	3809.917
CC1(O)C2CC1C21CC1	C[C@@]1(O)[C@H]2C[C@@H]1C12CC1	
InChI=1S/C8H12O/c1-7(9)5-4-6(7)8(5)2-3-8/h5-6,9H,2-4H2,1H3	InChI=1S/C8H12O/c1-7(9)5-4-6(7)8(5)2-3-8/h5-6,9H,2-4H2,1H3/t5-,6+,7-
