17
gdb 65868	3.08785	1.15448	1.12404	2.9538	69.1	-0.2506	-0.0385	0.2121	1147.4222	0.135962	-455.204587	-455.195844	-455.1949	-455.238388	32.078	
C	 0.1286963269	 1.5656347759	 0.2436878169	-0.446295
C	-0.0478452148	 0.0459062391	 0.0883335112	 0.190839
C	 0.6294865712	-0.5172726352	-1.1891988564	-0.20671
N	 1.9035818848	-0.9891198267	-0.6725580108	-0.347541
C	 1.8614733723	-1.2163910859	 0.6910063514	 0.4369
O	 2.7103835037	-1.7383593749	 1.3746606926	-0.401874
N	 0.6360716598	-0.7109349448	 1.1377702326	-0.384104
C	-1.5399542238	-0.2835032124	 0.142817574	 0.149003
O	-2.1964536622	-0.6694269107	-0.7867812114	-0.243357
H	 1.1928765656	 1.8180632743	 0.2260698175	 0.14685
H	-0.373751453	 2.1023435337	-0.567386178	 0.137515
H	-0.2918950404	 1.9143816519	 1.1934787744	 0.122911
H	 0.0141929565	-1.3161422744	-1.6189723827	 0.133212
H	 0.7601153194	 0.2596231643	-1.947729967	 0.119205
H	 2.5103845742	-1.5750250289	-1.222845573	 0.258218
H	 0.6147674363	-0.3882642339	 2.0936942843	 0.251001
H	-1.9926686666	-0.1263539415	 1.1486993043	 0.084227
52.8398	106.6714	168.1202	225.8393	251.0764	294.1744	341.0222	385.3964	467.4556	488.3919	525.6941	561.7998	695.1565	721.4339	763.8272	817.6673	902.2434	958.6397	973.5549	998.0073	1023.2143	1087.5464	1148.1227	1202.349	1205.001	1246.4105	1310.9878	1361.865	1383.4755	1400.2159	1425.6028	1445.5856	1490.7576	1493.3011	1536.7366	1840.0108	1855.7874	2873.3349	3031.3885	3038.6593	3083.458	3102.9321	3119.1012	3623.8698	3651.6502
CC1(CNC(=O)N1)C=O	C[C@]1(CNC(=O)N1)C=O	
InChI=1S/C5H8N2O2/c1-5(3-8)2-6-4(9)7-5/h3H,2H2,1H3,(H2,6,7,9)	InChI=1S/C5H8N2O2/c1-5(3-8)2-6-4(9)7-5/h3H,2H2,1H3,(H2,6,7,9)/t5-/m0/s1
