21
gdb 119880	3.14473	0.94735	0.78111	0.8077	82.05	-0.2383	0.0221	0.2604	1521.7101	0.181846	-424.225916	-424.216136	-424.215191	-424.261397	35.161	
C	-0.0765892154	 1.4294981719	-0.1396840174	-0.223144
O	-0.0066251585	 0.0299092376	-0.0163539223	-0.231156
C	-1.2666549123	-0.5905607198	-0.1223583533	-0.160029
C	-1.1331814593	-2.0728300115	 0.0022152255	 0.250499
C	-0.014386654	-2.7845141088	 0.1457220212	-0.1534
C	-0.2739188366	-4.2656675404	 0.2692640205	-0.262379
C	-1.7922936949	-4.3868448461	-0.0198789532	-0.243872
C	-2.3671083908	-2.9497342248	 0.0767733167	 0.039396
O	-3.1186408049	-2.6931537031	 1.2688918119	-0.433377
H	 0.9399464618	 1.8180326047	-0.0415613997	 0.126674
H	-0.4809403307	 1.7346670345	-1.1181842294	 0.104074
H	-0.7066034991	 1.878722105	 0.6446075398	 0.104596
H	-1.9565029028	-0.219191375	 0.6563915264	 0.104109
H	-1.7413925583	-0.3384926142	-1.0902612505	 0.092096
H	 0.9782954151	-2.3523296106	 0.1855927305	 0.106706
H	 0.3260185652	-4.8503762566	-0.4377700719	 0.107454
H	 0.0000784807	-4.6347109207	 1.2673070092	 0.104421
H	-1.9484946373	-4.7760840328	-1.0303178933	 0.106194
H	-2.3202308376	-5.0518213952	 0.6682554232	 0.10507
H	-3.0848340331	-2.7474489179	-0.7261183114	 0.081303
H	-2.5045016274	-2.7573698861	 2.0094326475	 0.274766
65.9819	76.755	85.0026	134.268	215.1429	236.624	261.2951	325.7122	358.1402	364.2617	455.1088	579.3964	703.4055	731.0375	775.8271	854.9131	876.2089	933.0494	941.9068	991.6237	1014.8904	1041.4019	1050.0341	1072.294	1141.9109	1162.5332	1169.3773	1185.2391	1222.1272	1232.8916	1251.9798	1262.4618	1279.0499	1303.136	1324.1134	1348.941	1425.6688	1429.6754	1477.4842	1479.8246	1485.1457	1498.6263	1499.0323	1522.3748	1725.5088	2920.7648	2954.3008	2969.0103	3011.2577	3012.7365	3043.3043	3048.3545	3064.9722	3107.5622	3114.2379	3210.9797	3792.3159
COCC1=CCCC1O	COCC1=CCC[C@H]1O	
InChI=1S/C7H12O2/c1-9-5-6-3-2-4-7(6)8/h3,7-8H,2,4-5H2,1H3	InChI=1S/C7H12O2/c1-9-5-6-3-2-4-7(6)8/h3,7-8H,2,4-5H2,1H3/t7-/m1/s1
