22
gdb 56633	1.9938	1.35554	1.11219	3.8504	86.11	-0.2772	0.0369	0.3141	1264.6667	0.192525	-367.229359	-367.218969	-367.218024	-367.264423	38.448	
C	-0.3648018025	 1.4438298043	 0.0565211336	-0.402262
C	 0.0757879332	-0.0289421612	-0.0781441656	-0.209046
C	 0.902655889	-0.2091189526	-1.2809369102	 0.281724
N	 1.5627304075	-0.3478960838	-2.2199217621	-0.337148
C	 0.8071724692	-0.5618867661	 1.1617639409	 0.369246
C	 2.0948736179	 0.1631978042	 1.5118926409	-0.477021
C	-0.054787746	-1.0607397625	 2.3019133907	-0.353238
C	 0.7456260186	-2.0438836786	 1.4779984646	-0.029003
C	 0.0713640752	-3.0808769859	 0.6039588742	-0.425077
H	 0.4951433859	 2.1123485279	 0.1362385113	 0.140219
H	-0.9522858974	 1.7517953232	-0.8119665968	 0.133881
H	-0.97892201	 1.5586477977	 0.9537448262	 0.128203
H	-0.8255211028	-0.6312429826	-0.231542407	 0.118971
H	 1.9168760277	 1.2111409573	 1.7756991808	 0.118997
H	 2.5782179273	-0.3107543151	 2.3708294848	 0.11824
H	 2.8019584399	 0.1403802153	 0.6754301057	 0.140343
H	 0.2571731634	-0.8381261162	 3.3169656675	 0.112814
H	-1.1324711788	-1.0605865198	 2.1632674511	 0.107497
H	 1.6480512054	-2.4163347367	 1.9569893151	 0.087907
H	-0.8929139005	-2.7401138817	 0.2161278332	 0.115311
H	 0.6984900282	-3.353693463	-0.2513618398	 0.137139
H	-0.1223859206	-3.991597834	 1.1807316709	 0.1223
54.0062	120.6431	170.4947	181.8628	206.3522	228.3474	234.1344	245.1568	294.8747	365.1444	383.0604	434.7768	487.9245	536.8256	589.7729	715.3379	784.47	834.3517	879.4591	905.1805	938.2513	963.1554	1021.4969	1031.7441	1061.2421	1083.3023	1109.2327	1127.8023	1134.1909	1141.7077	1189.8774	1254.6052	1300.3285	1323.0589	1353.3894	1408.6093	1412.0315	1421.5805	1432.7379	1488.141	1490.946	1494.1549	1495.6538	1501.6834	1507.836	1511.82	2351.8747	3032.1323	3035.5184	3052.8854	3057.4127	3095.7849	3095.8787	3105.5078	3107.1968	3120.3365	3127.6893	3135.0515	3136.4518	3204.1114
CC(C#N)C1(C)CC1C	C[C@@H](C#N)[C@@]1(C)C[C@H]1C	
InChI=1S/C8H13N/c1-6-4-8(6,3)7(2)5-9/h6-7H,4H2,1-3H3	InChI=1S/C8H13N/c1-6-4-8(6,3)7(2)5-9/h6-7H,4H2,1-3H3/t6-,7+,8+/m1/s1
