20
gdb 6863	3.20985	1.80723	1.60861	1.7368	70.16	-0.2554	0.0764	0.3318	916.928	0.177818	-386.15043	-386.142459	-386.141515	-386.182035	31.1	
C	 0.0070997381	 1.5208316867	 0.0105009893	-0.433258
C	-0.0309482126	-0.0114009968	 0.0025215454	 0.2354
C	-1.481194505	-0.5202320595	 0.0063631806	-0.409964
C	 0.7161634815	-0.5484620036	-1.2360549601	-0.097255
O	 0.869822862	-1.9609967749	-1.1792971275	-0.239548
C	 1.5546713759	-2.3433490707	-0.0170370537	 0.015008
O	 0.8803597838	-1.9734153728	 1.155359047	-0.239548
C	 0.7272787397	-0.5615719223	 1.2285272009	-0.097255
H	 1.034624869	 1.9017230949	 0.0078535297	 0.112509
H	-0.5035852979	 1.9294253377	-0.8683963603	 0.117333
H	-0.4955469271	 1.92002237	 0.8983085029	 0.117332
H	-2.0231957703	-0.1586554894	-0.8743272569	 0.106724
H	-1.5080495427	-1.6114333526	 0.0007553428	 0.138401
H	-2.0152414136	-0.167942481	 0.8956352041	 0.106724
H	 0.166944565	-0.3315213501	-2.1572646116	 0.107105
H	 1.7083843339	-0.0697382679	-1.3074361126	 0.082132
H	 1.6182125769	-3.4331876186	-0.0231202694	 0.116447
H	 2.5698600362	-1.8983321502	-0.0192521446	 0.072474
H	 1.7201225015	-0.0835814961	 1.2960531089	 0.082132
H	 0.1863948156	-0.3544775729	 2.1569067851	 0.107106
171.9171	194.7786	221.8386	233.3647	300.539	315.6696	383.101	403.8352	448.1246	491.8246	508.8048	661.5335	789.0323	904.4137	926.6136	943.3973	953.5329	960.684	980.1434	1041.0509	1045.8035	1067.8054	1131.4339	1194.2815	1215.5365	1237.8863	1256.1865	1288.8501	1338.925	1341.2106	1373.8663	1394.79	1406.2776	1433.0108	1442.4681	1482.2496	1488.1354	1489.3022	1498.6627	1502.7335	1510.4765	1511.8435	2904.873	2951.5624	2961.9651	3024.6296	3033.3953	3078.6677	3081.2521	3091.4814	3092.8704	3096.5859	3114.2469	3135.8337
CC1(C)COCOC1	CC1(C)COCOC1	
InChI=1S/C6H12O2/c1-6(2)3-7-5-8-4-6/h3-5H2,1-2H3	InChI=1S/C6H12O2/c1-6(2)3-7-5-8-4-6/h3-5H2,1-2H3
