21
gdb 96427	2.22953	1.47791	1.07555	2.7971	78.56	-0.2399	-0.0247	0.2152	1194.1845	0.182705	-424.246712	-424.237712	-424.236768	-424.280663	33.758	
C	-0.0404770728	 1.5694050116	 0.0027254634	-0.407673
C	 0.0558358457	 0.041951649	-0.0012997134	 0.011328
C	 0.6911035665	-0.5096881259	-1.2885951959	-0.208553
C	 0.797680604	-2.0345251616	-1.2292490214	-0.079034
O	 1.4978943116	-2.4690342567	-0.0732047472	-0.242955
C	 0.8606649875	-2.0660743731	 1.124550485	-0.113848
C	 0.7901565266	-0.5336508203	 1.24633776	-0.090173
C	 2.1848712145	 0.044481774	 1.4157931123	 0.159071
O	 2.4303617355	 1.039529388	 2.052092796	-0.264205
H	 0.945408881	 2.0385725764	-0.066324725	 0.13191
H	-0.6384622191	 1.9143306171	-0.8473142772	 0.110296
H	-0.511361383	 1.9348250795	 0.9206081025	 0.120946
H	-0.9665218763	-0.3613112843	 0.0545710495	 0.076323
H	 0.0914250905	-0.2174142984	-2.1588029564	 0.099105
H	 1.6906848453	-0.0806047978	-1.4322820946	 0.107864
H	-0.2125107663	-2.4799496886	-1.2417948123	 0.086789
H	 1.3501998903	-2.4314422269	-2.0854165699	 0.110518
H	-0.1596252293	-2.4822343308	 1.178722861	 0.093391
H	 1.4438241903	-2.5043266083	 1.9408263242	 0.113689
H	 0.2224454984	-0.2532820037	 2.1412829541	 0.092656
H	 2.9945223592	-0.5213699394	 0.9052496252	 0.092555
54.5182	113.9197	174.9174	219.8956	233.7682	288.9916	311.7535	376.6995	400.4998	434.05	503.2071	558.6082	658.3206	796.8799	859.2876	883.8068	892.9271	956.9935	978.0695	998.1912	1014.5387	1023.5215	1080.492	1103.5002	1132.6812	1175.8124	1191.3331	1216.6469	1254.9928	1288.1129	1299.7064	1321.1179	1340.5584	1365.818	1385.3364	1392.3878	1413.1315	1418.2549	1436.1549	1481.8276	1491.2363	1493.103	1497.6472	1502.5369	1820.2473	2895.0579	2954.4171	2963.5658	2986.8384	3027.0281	3036.384	3048.2518	3069.9913	3074.8984	3089.035	3104.0736	3112.5585
CC1CCOCC1C=O	C[C@H]1CCOC[C@H]1C=O	
InChI=1S/C7H12O2/c1-6-2-3-9-5-7(6)4-8/h4,6-7H,2-3,5H2,1H3	InChI=1S/C7H12O2/c1-6-2-3-9-5-7(6)4-8/h4,6-7H,2-3,5H2,1H3/t6-,7+/m0/s1
