23
gdb 76612	2.26935	1.29093	1.14392	1.9296	81.58	-0.228	0.0479	0.2758	1243.672	0.203214	-425.402539	-425.392069	-425.391125	-425.437279	40.445	
C	 0.3742177791	 1.4600258157	 0.6285617754	-0.442979
C	 0.0701592764	 0.0250190967	 0.1519659144	 0.24559
C	 0.4455275386	-0.9506705075	 1.2869641212	-0.400571
C	-1.4387360228	-0.0913940312	-0.1469224888	-0.396505
C	 0.833249472	-0.4243653977	-1.1030082905	-0.06836
C	 0.9542051342	 0.3038874444	-2.422532669	-0.011299
O	 0.5591460262	 1.6570142166	-2.4534129622	-0.420742
C	 2.1990365875	 0.0159937488	-1.6080671679	 0.06332
O	 2.8832548134	 1.1093580978	-1.0761456507	-0.429497
H	 1.4288426732	 1.5792937007	 0.8851252226	 0.128067
H	 0.111676984	 2.200487094	-0.1295168444	 0.125571
H	-0.2186556286	 1.672437915	 1.5253072993	 0.09908
H	-0.0959645755	-0.7005492329	 2.2057880258	 0.105451
H	 0.1967141019	-1.9849417111	 1.023972845	 0.102362
H	 1.5176968323	-0.9059221744	 1.5035805969	 0.120294
H	-1.7315320517	 0.6016307346	-0.9415098813	 0.122838
H	-1.704928196	-1.1053276768	-0.4663071844	 0.100855
H	-2.0291214441	 0.143458185	 0.7458253211	 0.103963
H	 0.6765477767	-1.4894927865	-1.2739717955	 0.084914
H	 0.7433541514	-0.2404165511	-3.341314076	 0.089033
H	 0.9526837107	 2.0571356952	-3.2370447333	 0.296144
H	 2.8930355257	-0.7532175176	-1.9342265087	 0.098436
H	 2.3276060753	 1.8828551723	-1.245282069	 0.284037
49.0257	147.0446	185.0336	230.0085	254.2532	267.9356	276.5545	289.8938	298.2697	330.5431	380.2851	388.013	395.3833	520.8262	577.8322	613.0135	663.2837	725.6415	791.6904	808.4373	880.0338	932.3823	935.9182	964.9448	1026.5051	1038.3664	1059.4605	1079.1182	1084.3212	1127.6799	1163.9018	1216.4221	1236.848	1242.3416	1265.0745	1303.319	1330.0428	1369.5888	1397.0851	1397.7712	1416.5205	1432.8249	1470.5186	1479.2913	1487.4427	1496.8228	1505.3815	1507.5353	1532.4862	3022.2794	3026.3064	3041.6242	3087.5834	3091.6869	3098.0589	3100.6776	3105.8913	3111.7374	3112.672	3141.2657	3149.3397	3741.9091	3796.8191
CC(C)(C)C1C(O)C1O	CC(C)(C)[C@H]1[C@@H](O)[C@H]1O	
InChI=1S/C7H14O2/c1-7(2,3)4-5(8)6(4)9/h4-6,8-9H,1-3H3	InChI=1S/C7H14O2/c1-7(2,3)4-5(8)6(4)9/h4-6,8-9H,1-3H3/t4-,5+,6-
