19
gdb 86737	3.75419	1.07414	0.97012	3.0366	78.52	-0.2245	-0.0189	0.2055	1296.073	0.156965	-423.051503	-423.042169	-423.041224	-423.086365	33.718	
C	 0.2664860721	 1.6548293933	-0.088328413	-0.393837
C	-0.03347585	 0.1625870954	 0.0279666078	 0.094841
O	 0.5495453387	-0.5285546626	-1.0865679699	-0.264924
C	 1.2325245767	-1.6842194074	-0.6535814034	-0.035646
C	 1.3147706271	-1.5471866864	 0.8518170845	-0.109295
C	 0.5699702002	-0.5158781302	 1.2310729441	-0.090203
C	 0.4597243953	-2.9721561066	-1.0282089499	 0.371045
C	 1.2812659668	-4.2477192417	-1.0598428468	-0.487783
O	-0.7211986764	-2.9449008356	-1.2650311959	-0.286792
H	 1.3442964839	 1.8354213055	-0.0409050342	 0.119738
H	-0.1099987134	 2.0381428629	-1.0406815132	 0.130617
H	-0.2203497943	 2.2086657681	 0.7211160987	 0.112342
H	-1.1246619275	 0.011714776	 0.009515376	 0.099266
H	 2.2254115491	-1.7221149475	-1.1292093564	 0.092291
H	 1.8688085317	-2.2266578628	 1.4860138558	 0.110952
H	 0.3961061215	-0.1803718234	 2.2456821809	 0.110228
H	 1.8934233772	-4.3479291542	-0.1566827051	 0.134654
H	 0.6237872479	-5.1117796485	-1.1617251612	 0.14621
H	 1.9733391834	-4.2172303842	-1.909881729	 0.146293
56.5091	65.3357	116.2337	148.6369	231.8879	236.1953	292.1549	340.8399	406.3797	512.0942	580.2528	595.3937	714.931	756.8752	807.0732	832.2462	856.9945	898.1046	950.4839	956.2667	965.0662	1033.6648	1041.4515	1090.3287	1128.119	1136.9854	1141.655	1188.3437	1257.5046	1310.2618	1339.0621	1366.8834	1376.9998	1380.4053	1402.0378	1461.8549	1475.2364	1485.5364	1496.675	1681.915	1831.6216	2976.153	2979.05	3034.7936	3039.2294	3094.369	3113.3114	3123.0432	3152.4444	3207.9443	3232.9174
CC1OC(C=C1)C(C)=O	C[C@H]1O[C@@H](C=C1)C(=O)C	
InChI=1S/C7H10O2/c1-5-3-4-7(9-5)6(2)8/h3-5,7H,1-2H3	InChI=1S/C7H10O2/c1-5-3-4-7(9-5)6(2)8/h3-5,7H,1-2H3/t5-,7+/m1/s1
