17
gdb 77618	2.13661	1.59162	1.2821	2.0211	74.74	-0.2439	0.0101	0.2539	1065.3924	0.135172	-417.975422	-417.966406	-417.965461	-418.009005	32.967	
C	 0.093523021	 1.5288461312	-0.0225549861	-0.484776
C	 0.0487228837	 0.041172676	 0.0864857461	 0.393876
O	 0.527860555	-0.7068957434	-1.0322259147	-0.312006
C	 1.2115401603	-1.6572497624	-0.1739415706	-0.139431
C	 0.6602242434	-0.982594219	 1.0758480341	 0.030197
C	 1.2899884411	-0.8003033244	 2.3301083789	 0.191845
N	 1.7753659714	-0.6438936989	 3.3713979025	-0.361516
C	-0.8814926241	-0.793407465	 0.8915174224	-0.087443
N	-1.6612161987	-0.1918176629	 1.92663747	-0.519949
H	 1.1108998587	 1.8737074712	-0.2245824201	 0.144172
H	-0.5502118094	 1.8479355503	-0.8497154395	 0.150681
H	-0.2668179156	 2.0135476796	 0.8878873871	 0.135418
H	 0.8939819506	-2.6896589845	-0.359338238	 0.118084
H	 2.2973115666	-1.5722009279	-0.2855618707	 0.130084
H	-1.3949371342	-1.6011933892	 0.3735132849	 0.114624
H	-1.8335473934	-0.8583905138	 2.673848712	 0.250379
H	-1.1848383963	 0.5974156332	 2.3510199318	 0.245761
104.4896	123.5238	137.0199	183.9407	228.1564	250.7814	292.1167	352.2617	424.4945	478.9014	555.6191	583.3538	622.8597	687.2498	714.3248	811.7359	871.3896	940.6959	993.7099	1009.0907	1033.7992	1093.984	1108.9595	1150.8385	1158.806	1202.2842	1235.9804	1284.9247	1336.5597	1379.3976	1417.6556	1465.7553	1468.7432	1500.7307	1520.0909	1664.5954	2330.9762	3031.0534	3044.4414	3084.7369	3112.2891	3129.3589	3133.4516	3500.6075	3577.9202
CC12OCC1(C#N)C2N	C[C@@]12OC[C@]1(C#N)[C@H]2N	
InChI=1S/C6H8N2O/c1-5-4(8)6(5,2-7)3-9-5/h4H,3,8H2,1H3	InChI=1S/C6H8N2O/c1-5-4(8)6(5,2-7)3-9-5/h4H,3,8H2,1H3/t4-,5-,6+/m0/s1
