17
gdb 61035	2.81877	1.17335	0.86589	3.8331	68.42	-0.259	-0.0335	0.2254	1281.3182	0.134067	-458.997347	-458.988301	-458.987357	-459.032065	31.542	
C	-0.0915253007	 1.4619476962	-0.2314642158	-0.39931
C	-0.0601302955	-0.0544556918	-0.0373087923	-0.108489
C	 0.5736859484	-0.7708599079	-1.2279816889	 0.140195
O	 0.9355356784	-0.2094729627	-2.2299640855	-0.239701
C	 0.6599819988	-0.4694325997	 1.2562515642	-0.2
C	-0.013677871	-0.1749824014	 2.6125514797	-0.104331
O	-0.0532053578	-1.6069778091	 2.9158724257	-0.233873
C	 0.5086117526	-1.9296133187	 1.7087767512	 0.458457
O	 0.727777209	-3.0137881457	 1.27193232	-0.321005
H	 0.923347798	 1.8664522178	-0.2898922651	 0.132678
H	-0.5977654599	 1.7178306722	-1.1645149554	 0.142306
H	-0.6136190711	 1.9541121637	 0.5942977389	 0.113888
H	-1.0893769439	-0.444563997	 0.0217196292	 0.108801
H	 0.6788618312	-1.8686917343	-1.1058615127	 0.119637
H	 1.710619451	-0.1641389699	 1.2235989157	 0.126199
H	 0.5829830453	 0.3613391288	 3.3519791078	 0.133736
H	-1.0256763827	 0.2331772093	 2.5628715033	 0.130814
63.2539	85.1133	130.0332	137.1443	190.062	263.4584	285.8139	336.2049	355.9903	534.4647	627.1864	706.2745	750.9664	806.904	879.5819	918.9269	942.9908	960.777	988.799	1063.4668	1112.6587	1123.2855	1131.0919	1155.1543	1178.3418	1227.2056	1262.5731	1330.0379	1342.7949	1366.434	1409.5782	1433.4495	1488.6099	1492.4578	1517.2679	1827.4602	1928.4034	2932.1252	2984.6677	3047.0226	3070.4584	3074.1884	3115.152	3133.3496	3137.4516
CC(C=O)C1COC1=O	C[C@@H](C=O)[C@H]1COC1=O	
InChI=1S/C6H8O3/c1-4(2-7)5-3-9-6(5)8/h2,4-5H,3H2,1H3	InChI=1S/C6H8O3/c1-4(2-7)5-3-9-6(5)8/h2,4-5H,3H2,1H3/t4-,5+/m0/s1
