18
gdb 41440	2.8611	2.11889	1.66079	2.3931	74.94	-0.2208	0.061	0.2819	865.1575	0.149967	-401.815218	-401.808896	-401.807952	-401.845428	27.225	
C	 0.004333623	 1.5509456698	 0.2142685462	-0.333128
C	 1.5068623103	 1.5866826418	-0.2871039289	-0.332758
C	 1.2444359757	 0.1814039276	-0.8725075937	 0.234164
N	 0.4188262113	 0.0812126035	-2.1326312212	-0.357938
C	-0.1813876858	-0.9207782421	-1.200520773	-0.129173
C	 1.2888613936	-1.3854249211	-0.8086806865	 0.073571
O	 1.3266458363	-1.8372703107	 0.5094936587	-0.267792
C	 0.4707212765	-0.895631943	 1.2037975457	-0.135665
C	 0.01314107	-0.0083747914	 0.0625973767	 0.184903
H	-0.177764425	 1.9086421897	 1.2293571143	 0.114543
H	-0.6834430908	 2.0750631614	-0.4515867079	 0.118438
H	 1.7965570308	 2.3694573522	-0.9930471086	 0.114917
H	 2.2163564451	 1.5782551199	 0.5437986282	 0.124043
H	-0.2051673574	 0.888459809	-2.2006240249	 0.205574
H	-1.0129518505	-1.5700725229	-1.4923368762	 0.074102
H	 1.8901623623	-2.0063922758	-1.4708579508	 0.101884
H	-0.3349426707	-1.4463256653	 1.7034225937	 0.108031
H	 1.0543202653	-0.3635069727	 1.9658724882	 0.102283
228.3067	250.6352	334.2362	440.3201	445.7081	500.4741	628.2953	673.4931	681.8653	704.4128	772.5717	813.4613	832.0328	851.9445	907.0561	924.83	951.915	959.4985	984.0943	1029.7896	1060.4786	1090.0403	1113.1093	1125.3005	1147.5239	1191.1867	1197.7202	1212.642	1226.9272	1239.2527	1242.8777	1249.3115	1273.6417	1294.4635	1321.0324	1379.4164	1469.0477	1483.915	1515.4166	3016.6731	3055.5501	3058.2911	3062.6979	3078.8251	3115.2177	3132.1513	3146.1272	3414.3127
C1CC23NC4C2OCC134	C1C[C@@]23N[C@H]4[C@@H]2OC[C@@]134	
InChI=1S/C7H9NO/c1-2-7-5-4(8-7)6(1,7)3-9-5/h4-5,8H,1-3H2	InChI=1S/C7H9NO/c1-2-7-5-4(8-7)6(1,7)3-9-5/h4-5,8H,1-3H2/t4-,5-,6+,7+/m0/s1
