18
gdb 12193	4.01369	1.42073	1.2103	1.5945	73.85	-0.2506	0.0512	0.3018	1025.883	0.152005	-347.759738	-347.751042	-347.750098	-347.792584	32.614	
C	-0.1512885625	 1.5136981303	-0.0927197529	-0.386091
C	-0.0186544501	-0.0035398054	-0.0347423659	-0.033464
C	 1.1402148945	-0.583267143	-0.8904123784	 0.133212
O	 1.5252293103	 0.2315264969	-1.970837738	-0.428168
C	 2.036967949	-0.6341292979	 0.3733582629	-0.280027
C	 0.7348240275	-0.5600078714	 1.2341872433	-0.174971
C	 0.7485659775	 0.2180501669	 2.4540479944	 0.326544
C	 0.7645093977	 0.8758016996	 3.4613798107	-0.458375
H	 0.8015172912	 2.016722655	 0.0920473259	 0.124233
H	-0.5035273708	 1.8249500241	-1.0797097911	 0.123754
H	-0.8641124856	 1.8611875712	 0.6605910948	 0.1186
H	-0.9936579857	-0.4663950779	-0.2104549613	 0.073356
H	 0.893942789	-1.5997786508	-1.2312774512	 0.065667
H	 2.2582917243	-0.1936177702	-2.4266724474	 0.284165
H	 2.6881238972	-1.4985911059	 0.5214916863	 0.09869
H	 2.6214017756	 0.2836563537	 0.4675324892	 0.119979
H	 0.3783698961	-1.5722761908	 1.452236926	 0.10084
H	 0.7797147647	 1.4519216855	 4.3529591327	 0.192055
78.5266	138.2358	197.5597	217.692	236.1733	249.7519	335.1984	394.5407	478.6406	521.0427	567.5421	613.7126	624.5185	649.6069	760.3528	809.7459	904.8	912.9359	992.9974	1018.4208	1046.1673	1089.9626	1119.3107	1126.186	1173.5315	1208.7493	1235.7094	1254.0235	1276.362	1323.2415	1344.5582	1369.7244	1409.4864	1431.7155	1485.1876	1492.0296	1494.0752	2230.9367	2985.0774	3044.7659	3047.9649	3064.1877	3068.6918	3118.6905	3122.9139	3130.8158	3505.4826	3821.0422
CC1C(O)CC1C#C	C[C@H]1[C@@H](O)C[C@H]1C#C	
InChI=1S/C7H10O/c1-3-6-4-7(8)5(6)2/h1,5-8H,4H2,2H3	InChI=1S/C7H10O/c1-3-6-4-7(8)5(6)2/h1,5-8H,4H2,2H3/t5-,6-,7+/m1/s1
