21
gdb 116861	3.90689	0.56049	0.54798	0.7897	84.85	-0.2495	0.0452	0.2947	2103.3142	0.17837	-424.199259	-424.187673	-424.186729	-424.237742	40.747	
C	-0.0339892199	 1.550752757	-0.0082588551	-0.397229
C	 0.0175045416	 0.0113840439	 0.0120716528	 0.172665
C	 0.6966402941	-0.4969775723	 1.2906819959	-0.382895
O	-1.3143262625	-0.5196901055	 0.0592147614	-0.442766
C	 0.7196488623	-0.4832128294	-1.1838578361	 0.141575
C	 1.26856763	-0.8683845504	-2.1853942897	-0.05002
C	 1.9321856255	-1.3762969952	-3.379309423	-0.326072
C	 1.947001066	-2.9079961036	-3.4386110063	-0.061695
O	 2.6130329099	-3.2672721069	-4.6368961707	-0.41544
H	 0.9723532933	 1.9791813561	 0.0023034278	 0.121463
H	-0.5424723129	 1.9050631313	-0.9102519902	 0.111611
H	-0.5846024252	 1.9066618772	 0.8671869337	 0.120341
H	 0.1341056774	-0.1497002014	 2.1621103215	 0.120404
H	 0.7128168932	-1.5888638897	 1.297075138	 0.128032
H	 1.7224138654	-0.1266277284	 1.3563404271	 0.119339
H	-1.7236261028	-0.3462995738	-0.7953968241	 0.278707
H	 1.4396663339	-0.999578397	-4.2841593575	 0.135948
H	 2.9682367678	-1.0184656491	-3.4213048338	 0.138451
H	 2.4621115643	-3.302320592	-2.5501615713	 0.099254
H	 0.9133957262	-3.2841687633	-3.4168845668	 0.098795
H	 2.6349198825	-4.2266698374	-4.6946311835	 0.289532
14.6152	66.5795	75.2433	134.5777	167.4781	219.9698	239.2087	263.578	282.2382	302.0583	327.9608	360.808	382.5867	417.2989	481.6296	563.0793	585.9849	678.1381	793.6734	865.7043	928.0469	954.8615	998.1172	1016.1619	1077.8912	1081.009	1087.3958	1126.9475	1191.9641	1220.9479	1236.7935	1251.6693	1303.3439	1331.0565	1367.1407	1390.6712	1411.5579	1453.9682	1475.5102	1477.3513	1478.6922	1492.9052	1503.9075	1527.9958	2358.353	2984.6674	3015.4536	3030.1548	3037.2459	3049.9407	3067.2107	3112.1852	3120.5405	3128.3269	3137.9257	3809.5484	3835.5993
CC(C)(O)C#CCCO	CC(C)(O)C#CCCO	
InChI=1S/C7H12O2/c1-7(2,9)5-3-4-6-8/h8-9H,4,6H2,1-2H3	InChI=1S/C7H12O2/c1-7(2,9)5-3-4-6-8/h8-9H,4,6H2,1-2H3
