23
gdb 93053	2.05691	1.51133	0.9196	0.6682	96.86	-0.2022	-0.0127	0.1895	1349.2925	0.206637	-351.184511	-351.175189	-351.174245	-351.218518	36.048	
C	 0.0243493968	 1.5724611372	 0.0919111514	-0.39445
C	-0.0131301152	 0.0385802699	 0.0341951056	 0.019397
C	 0.4195237734	-0.4369259739	-1.35930115	-0.244184
C	 0.4940635878	-1.9147296254	-1.6162155902	-0.088236
C	 0.4084021905	-2.9464516812	-0.7623733212	-0.061003
C	 0.2753913601	-2.9726031521	 0.6902525241	-0.15466
C	 0.4690353313	-1.9771327182	 1.571394862	 0.290533
C	 0.3196181466	-2.2127031327	 3.0502697595	-0.477105
C	 0.8483889997	-0.571091699	 1.1644968047	-0.303695
H	 1.0502468182	 1.9437741703	-0.0213346277	 0.112066
H	-0.5787088798	 2.0175104495	-0.7065571417	 0.109543
H	-0.3589738571	 1.9433345862	 1.0480100897	 0.109305
H	-1.0489659534	-0.2847173928	 0.1977494974	 0.081163
H	-0.2683555747	-0.0027883791	-2.099966176	 0.102303
H	 1.3976192432	 0.0100992617	-1.6019967969	 0.103585
H	 0.6236105805	-2.1665246456	-2.6678690821	 0.082743
H	 0.4502170036	-3.9374142924	-1.211819174	 0.077831
H	 0.0242680656	-3.9503277931	 1.0977332113	 0.07185
H	 0.0749199172	-3.2537030733	 3.2769803755	 0.11823
H	 1.2427610349	-1.9539456155	 3.5864798093	 0.122426
H	-0.4682232241	-1.5757523266	 3.4752322038	 0.121489
H	 1.9047482782	-0.5490203155	 0.8575753676	 0.110287
H	 0.7834499265	 0.0768081615	 2.0462568079	 0.090581
54.9243	129.9643	183.3135	220.278	229.9308	280.824	340.2513	354.7087	377.4666	434.3955	442.6999	537.4408	567.3687	728.5244	769.7972	818.5145	856.656	892.2332	906.1825	920.5941	934.9038	981.2703	1011.6834	1020.4971	1049.7562	1068.2882	1103.5515	1109.1573	1166.4684	1174.2835	1203.528	1278.105	1288.6582	1326.1829	1345.0776	1370.8637	1393.0416	1403.7282	1409.4903	1414.9762	1448.8069	1463.9077	1474.3416	1480.8246	1491.0163	1496.8522	1499.596	1692.7942	1717.9343	2974.0255	2998.0401	3005.4363	3006.14	3023.051	3029.6911	3047.7322	3052.1796	3089.9096	3098.8543	3109.9245	3118.9451	3134.1909	3149.4855
CC1CC=CC=C(C)C1	C[C@H]1CC=CC=C(C)C1	
InChI=1S/C9H14/c1-8-5-3-4-6-9(2)7-8/h3-5,9H,6-7H2,1-2H3	InChI=1S/C9H14/c1-8-5-3-4-6-9(2)7-8/h3-5,9H,6-7H2,1-2H3/t9-/m0/s1
