16
gdb 26049	3.38057	1.20516	0.91677	0.8629	77.14	-0.2065	0.0158	0.2223	1220.3812	0.124401	-400.740606	-400.732169	-400.731225	-400.774105	31.838	
O	-0.9179730426	 0.5554954093	 0.089805538	-0.418228
C	 0.0821580294	-0.4503787381	-0.1282217131	-0.207557
C	 0.9435536209	-0.1354149919	-1.2712485894	 0.333164
C	 1.6346641036	 0.1537597604	-2.2105028913	-0.448967
C	 0.8786621423	-0.6984300304	 1.12311086	 0.306404
C	 2.2095918591	-0.9646132193	 1.3561903304	-0.235529
C	 2.3648988415	-1.1658374659	 2.7560311953	-0.148835
C	 1.125436059	-1.012217885	 3.3339410271	-0.091249
N	 0.2294705684	-0.7401686428	 2.3337062818	-0.288576
H	-0.4502446527	 1.3851188278	 0.2457926809	 0.28583
H	-0.5122031355	-1.3405370547	-0.3782411357	 0.130475
H	 2.2437747781	 0.402866078	-3.0443785153	 0.202659
H	 2.9770039829	-1.0145321793	 0.599958314	 0.103362
H	 3.2820219072	-1.3926018409	 3.2774938353	 0.094997
H	 0.8104031709	-1.0638184985	 4.3638630679	 0.117187
H	-0.7421027327	-0.5052118285	 2.4465675942	 0.264862
47.1975	121.7064	158.3895	212.0088	289.9971	352.0326	424.6517	471.1158	531.2726	572.4043	629.242	633.212	649.9489	675.2648	722.0982	778.3113	812.6694	858.4605	895.1331	924.0472	1001.3827	1036.4296	1058.063	1114.3323	1141.7582	1236.5384	1252.3709	1276.0479	1329.2152	1415.225	1440.9149	1458.5864	1494.0079	1606.5714	2239.0468	3006.5228	3244.9543	3260.4789	3271.2944	3501.7755	3673.7638	3787.1472
OC(C#C)C1=CC=CN1	O[C@@H](C#C)c1ccc[nH]1	
InChI=1S/C7H7NO/c1-2-7(9)6-4-3-5-8-6/h1,3-5,7-9H	InChI=1S/C7H7NO/c1-2-7(9)6-4-3-5-8-6/h1,3-5,7-9H/t7-/m0/s1
