23
gdb 84090	2.24375	1.43625	1.08349	1.1187	87.8	-0.2281	0.0303	0.2584	1250.9191	0.204716	-388.313726	-388.303558	-388.302614	-388.348125	38.533	
C	 0.6760904499	 1.5815752724	 0.0731642188	-0.376393
C	 0.1133895789	 0.1546385597	-0.0402448664	-0.080461
C	 0.6680612168	-0.6143519296	-1.2150749274	-0.173906
C	 1.5225658602	-1.5781741708	-0.8613872876	 0.327899
C	 2.2623892515	-2.5024008466	-1.7772079068	-0.496255
C	 1.6995833865	-1.6370576951	 0.6465409587	-0.096438
C	 3.0753859655	-1.1319086909	 1.1160143131	-0.391838
C	 0.495998963	-0.7912284037	 1.1443051689	 0.098672
O	 0.8084733816	-0.1483945858	 2.368423034	-0.426693
H	 1.7679944919	 1.5801183046	 0.1251959984	 0.124713
H	 0.3808665402	 2.1779424372	-0.7965261953	 0.10696
H	 0.3019817081	 2.0855154073	 0.9698545304	 0.100241
H	-0.9808800156	 0.2370262017	-0.1075954413	 0.061716
H	 0.4081012032	-0.3721612962	-2.2416714167	 0.079731
H	 2.0160953916	-2.3116826137	-2.8255065092	 0.12076
H	 3.3483557798	-2.3992938933	-1.661028391	 0.127637
H	 2.0254476876	-3.5514084737	-1.55663883	 0.122409
H	 1.5937488125	-2.6695719856	 1.0063561605	 0.0674
H	 3.2833623033	-0.124506448	 0.7445664873	 0.118995
H	 3.1181289788	-1.104053185	 2.2069897452	 0.130606
H	 3.870190458	-1.793824865	 0.7572311029	 0.104179
H	-0.3476095979	-1.4818688807	 1.2926934876	 0.066702
H	 0.0084810348	 0.2703545208	 2.6997917159	 0.283365
82.4949	135.1711	184.9147	193.7719	214.9038	235.6053	261.2848	273.3239	285.7115	302.7183	411.3891	476.2062	507.7511	579.7753	631.2105	729.3146	747.2532	817.2274	856.0248	871.0157	942.2543	1004.2227	1029.8091	1040.1932	1051.7257	1070.7419	1090.2977	1113.0798	1123.3482	1150.0225	1192.225	1254.9929	1285.4034	1296.0182	1321.9239	1356.526	1359.8409	1368.3546	1399.1664	1407.2606	1413.5902	1428.6594	1478.2612	1486.201	1489.1298	1492.4423	1498.7184	1502.7707	1718.5121	2970.0974	2996.0124	3009.3879	3017.0021	3037.0604	3043.0273	3063.2772	3101.0403	3106.7017	3108.9563	3119.3824	3130.7448	3168.6366	3825.8857
CC1C=C(C)C(C)C1O	C[C@H]1C=C(C)[C@@H](C)[C@H]1O	
InChI=1S/C8H14O/c1-5-4-6(2)8(9)7(5)3/h4,6-9H,1-3H3	InChI=1S/C8H14O/c1-5-4-6(2)8(9)7(5)3/h4,6-9H,1-3H3/t6-,7+,8-/m0/s1
