19
gdb 83079	2.37915	1.70697	1.50477	2.9512	79.76	-0.2218	-0.0057	0.2161	998.0333	0.160663	-385.906573	-385.898881	-385.897937	-385.938314	30.765	
C	-0.1984795179	 1.5854768224	 0.0473644421	-0.428745
C	 0.0363658737	 0.0837064694	 0.0057764785	 0.027811
C	 0.8034256371	-0.5798921549	-1.1976213027	-0.169443
C	 2.0728568136	 0.2252677905	-1.5651037434	-0.262729
C	 2.8627648788	 0.544148238	-0.3167818275	-0.067843
C	 2.4135137249	 0.145414213	 0.8750019032	-0.058712
C	 1.0919333849	-0.6032816745	 0.9491356046	-0.202146
C	 1.1835847975	-1.6602370431	-0.1711507728	 0.441419
O	 1.3452309402	-2.844277532	-0.2108269497	-0.326474
H	 0.733350839	 2.1522386112	-0.010392101	 0.127173
H	-0.8394215601	 1.8958338662	-0.7850478729	 0.117947
H	-0.7047629691	 1.8690461579	 0.9761599191	 0.118759
H	-0.9185450044	-0.4384754979	 0.1292127431	 0.088368
H	 0.2391060537	-0.8865934971	-2.080591246	 0.082742
H	 2.6846183045	-0.3665999623	-2.2588889634	 0.12493
H	 1.8072240633	 1.143589554	-2.1076872641	 0.111374
H	 3.7950275878	 1.0916615165	-0.4194341616	 0.09591
H	 2.9663475297	 0.3260075747	 1.7908943176	 0.099738
H	 0.8074470025	-0.9053935321	 1.9565497966	 0.07992
141.4782	198.08	222.8151	232.3935	266.4043	407.0201	476.7075	501.058	533.0347	586.8364	677.0146	687.8916	775.9559	801.2048	828.1409	891.9416	930.3099	961.4314	975.4399	1004.4648	1018.9209	1042.8707	1068.4222	1108.4964	1123.0644	1134.0189	1145.6971	1186.8995	1224.5979	1253.9028	1285.174	1302.5181	1360.4319	1380.3437	1398.6022	1411.8667	1477.9493	1494.703	1504.9468	1692.9928	1893.263	3005.0705	3035.0908	3036.094	3046.9626	3093.9289	3095.029	3119.3373	3125.9964	3165.672	3190.3562
CC1C2CC=CC1C2=O	C[C@H]1[C@H]2CC=C[C@@H]1C2=O	
InChI=1S/C8H10O/c1-5-6-3-2-4-7(5)8(6)9/h2-3,5-7H,4H2,1H3	InChI=1S/C8H10O/c1-5-6-3-2-4-7(5)8(6)9/h2-3,5-7H,4H2,1H3/t5-,6+,7-/m1/s1
