20
gdb 111443	2.90322	1.47076	1.17737	2.6466	76.81	-0.2287	0.0746	0.3033	1095.0111	0.173078	-403.100825	-403.093045	-403.0921	-403.132991	31.369	
O	 0.1019582529	 1.4244933607	 0.0218873698	-0.427269
C	 0.1090103694	 0.0112072502	-0.0547778869	-0.051043
C	-1.305004839	-0.5607676671	 0.0002607267	-0.007797
C	-1.4529923075	-2.0752914526	-0.1659009261	-0.057238
C	-0.8601770184	-3.0383373389	 0.8322719387	-0.309232
C	-2.2868468192	-2.5711774101	 0.9981790836	-0.042652
C	-2.5853733465	-1.3630990603	 1.8623081385	-0.024574
C	-1.4744897704	-0.6432397897	 2.5330267057	-0.264148
N	-2.0086939494	-0.1464403589	 1.2492281461	-0.126126
H	-0.5352632224	 1.6582370168	 0.7069357218	 0.293015
H	 0.5766070018	-0.2540795056	-1.0092749279	 0.106738
H	 0.7287108179	-0.4305673862	 0.7423553878	 0.078256
H	-1.8688738006	-0.0859628082	-0.8123448322	 0.093917
H	-1.6281206593	-2.4404016835	-1.1724133626	 0.091218
H	-0.7214849824	-4.0584089741	 0.488247715	 0.114885
H	-0.0963534595	-2.7171084297	 1.528946429	 0.117164
H	-3.088773356	-3.2860591411	 0.8581493709	 0.090298
H	-3.5966318735	-1.2807785961	 2.2512181009	 0.091725
H	-1.6819954201	 0.0123335549	 3.3751570897	 0.115604
H	-0.4958255376	-1.1078837405	 2.5744047217	 0.11726
101.5649	135.2438	222.943	276.7287	364.792	382.2867	421.5465	495.9137	533.083	676.0756	679.1122	703.3384	787.1488	820.5789	839.2514	842.021	933.8062	950.8447	1002.125	1017.7936	1038.8315	1052.9852	1065.1751	1078.1355	1084.3483	1107.399	1111.2039	1123.7291	1134.9732	1160.3948	1204.2226	1229.2752	1271.4844	1312.2336	1339.067	1344.0534	1366.7464	1383.3504	1397.2762	1438.2792	1487.4689	1507.7003	1523.8713	2973.6392	3028.6783	3067.2392	3113.4556	3138.4677	3142.0529	3161.1182	3183.2569	3198.2712	3223.2308	3794.7597
OCC1C2CC2C2CN12	OC[C@H]1[C@H]2C[C@H]2[C@H]2CN12	
InChI=1S/C7H11NO/c9-3-7-5-1-4(5)6-2-8(6)7/h4-7,9H,1-3H2	InChI=1S/C7H11NO/c9-3-7-5-1-4(5)6-2-8(6)7/h4-7,9H,1-3H2/t4-,5+,6-,7+,8?/m1/s1
