14
gdb 6359	5.70446	1.13827	0.96107	5.1276	56.63	-0.2606	0.0127	0.2734	1152.93	0.106529	-453.070527	-453.061776	-453.060832	-453.104809	29.574	
C	 0.153208657	 1.3208254969	 0.0074668494	-0.236698
O	-0.0596939992	-0.0921196241	 0.0946237575	-0.274315
C	-1.3581369934	-0.4718607868	-0.0257463071	 0.546546
O	-2.28236286	 0.2735471007	-0.1868924537	-0.359599
N	-1.3911071371	-1.8575927662	 0.0502974133	-0.44981
C	-2.5485024989	-2.6522551446	 0.1295166084	 0.470027
N	-2.2346366619	-4.0026157055	 0.0861715417	-0.568239
O	-3.6659662935	-2.2276118686	 0.2713372501	-0.332868
H	 1.2284357235	 1.4634505601	 0.1165761988	 0.132897
H	-0.1873990952	 1.7047488744	-0.9573889703	 0.143725
H	-0.3840331071	 1.8425224464	 0.8032487549	 0.146073
H	-0.4950654384	-2.298828443	 0.1871450763	 0.260857
H	-1.4474964214	-4.2975871062	-0.4717219438	 0.252857
H	-3.0518129844	-4.5872023035	-0.0048930156	 0.268547
54.5194	80.1633	97.8386	157.5288	175.408	305.4765	379.8142	397.1808	420.9417	545.3239	560.435	620.3639	746.1468	772.9805	788.4155	950.4584	974.9464	1105.0731	1130.0679	1183.1296	1202.0145	1216.5446	1335.1132	1469.5175	1480.5145	1498.6077	1526.4542	1628.3465	1823.754	1892.8671	3052.9441	3128.3904	3158.6312	3575.5067	3634.0226	3691.3917
COC(=O)NC(N)=O	COC(=O)NC(=O)N	
InChI=1S/C3H6N2O3/c1-8-3(7)5-2(4)6/h1H3,(H3,4,5,6,7)	InChI=1S/C3H6N2O3/c1-8-3(7)5-2(4)6/h1H3,(H3,4,5,6,7)
