16
gdb 48762	2.85732	1.40797	1.07272	4.3217	71.14	-0.2493	-0.0361	0.2132	1099.8329	0.12455	-437.930479	-437.92269	-437.921746	-437.963087	29.483	
O	-0.080169177	 0.0003543985	 0.1829050919	-0.275083
C	 0.0046844396	 1.1696486639	-0.1045211256	 0.099845
C	 1.2637736393	 1.9344643238	-0.0740719051	 0.267016
C	 1.2454686788	 3.4285699934	 0.2541920911	-0.327145
C	 1.6337326427	 2.9910738764	-1.1227308592	-0.093917
C	 3.0987537076	 2.7554812574	-1.4470550094	-0.357453
C	 3.5634457219	 1.6181694137	-0.511081809	 0.401928
O	 4.6781405143	 1.1620875484	-0.4257677539	-0.3629
N	 2.4675413853	 1.2341446873	 0.2236720009	-0.36785
H	-0.8851183926	 1.7720537907	-0.3946170368	 0.076792
H	 0.2772713108	 3.90493513	 0.3691059241	 0.131395
H	 2.0117846651	 3.7639114039	 0.9448244481	 0.138681
H	 0.9409519527	 3.1905469235	-1.9318220141	 0.113976
H	 3.2400853868	 2.4318864831	-2.4822002618	 0.143295
H	 3.7297566381	 3.6348617949	-1.2916435839	 0.143521
H	 2.4840189166	 0.442098351	 0.8462452626	 0.267899
80.3196	116.3889	199.1296	251.0982	381.0884	402.4067	410.0979	473.6797	526.8215	583.4594	634.9038	673.7132	785.2928	811.832	869.1395	876.4313	934.0902	956.8323	1023.6137	1058.5941	1068.4281	1089.0739	1092.5857	1193.3849	1238.5063	1257.3254	1280.8253	1325.8942	1370.1849	1428.4336	1440.281	1461.7256	1475.8596	1809.4451	1840.665	2883.0614	3068.5172	3110.0616	3130.6957	3180.1378	3225.0709	3652.1908
O=CC12CC1CC(=O)N2	O=C[C@]12C[C@H]1CC(=O)N2	
InChI=1S/C6H7NO2/c8-3-6-2-4(6)1-5(9)7-6/h3-4H,1-2H2,(H,7,9)	InChI=1S/C6H7NO2/c8-3-6-2-4(6)1-5(9)7-6/h3-4H,1-2H2,(H,7,9)/t4-,6-/m1/s1
