18
gdb 115764	3.87848	0.84969	0.74342	1.5539	72.05	-0.2628	0.0205	0.2833	1475.0855	0.147443	-439.071047	-439.061836	-439.060892	-439.106383	32.38	
O	-0.0287972574	 1.4791562924	-0.3357199705	-0.421766
C	 0.0436315697	 0.1821541105	 0.2180422083	-0.065213
C	-1.3148819886	-0.4950218249	 0.1005498248	 0.088367
O	-1.7023945059	-0.5572316472	-1.2971235688	-0.301015
C	-1.7032615554	-2.0024210315	-1.2866194078	-0.079925
C	-1.4426935139	-2.0365118184	 0.2343050206	-0.059208
C	-0.2475868211	-2.8506140137	 0.7487035875	-0.374508
C	-0.4902232298	-4.2882952404	 0.634077446	 0.26209
N	-0.7041757881	-5.4188920454	 0.5288072513	-0.297403
H	-0.4013365527	 1.368538614	-1.2198747729	 0.29585
H	 0.8170477613	-0.420743376	-0.2845800271	 0.082684
H	 0.3327221454	 0.2944494108	 1.2691667055	 0.11109
H	-2.0505652556	 0.0784837402	 0.6770520169	 0.094929
H	-2.6587261872	-2.4131799695	-1.6269471751	 0.12349
H	-0.8964861772	-2.4203395574	-1.9029978807	 0.111156
H	-2.332880624	-2.3190945363	 0.7992181026	 0.1112
H	 0.6634386385	-2.6115571888	 0.1901895989	 0.158426
H	-0.0473414478	-2.6153563783	 1.8004598705	 0.159754
51.8343	65.2226	103.1767	116.1354	186.0004	271.2439	351.1248	393.4828	457.3969	468.3157	488.2746	542.4092	779.4221	836.6929	869.3766	897.9329	937.415	952.1174	1015.4976	1044.8468	1080.9295	1086.439	1122.8666	1145.4575	1161.6241	1215.0184	1242.1697	1251.2323	1291.5689	1319.9368	1342.4927	1359.2526	1394.0181	1405.0597	1437.8779	1466.015	1498.8812	1526.781	2363.1551	2972.539	3017.202	3036.7233	3046.2579	3068.9038	3075.3123	3083.7342	3102.1235	3778.3806
OCC1OCC1CC#N	OC[C@H]1OC[C@H]1CC#N	
InChI=1S/C6H9NO2/c7-2-1-5-4-9-6(5)3-8/h5-6,8H,1,3-4H2	InChI=1S/C6H9NO2/c7-2-1-5-4-9-6(5)3-8/h5-6,8H,1,3-4H2/t5-,6-/m1/s1
