21
gdb 63184	2.94599	1.35314	1.25273	0.7474	78.92	-0.2218	0.0834	0.3052	1133.0453	0.182088	-424.203092	-424.194055	-424.193111	-424.236673	34.184	
C	-0.3430257966	 1.5508048398	-0.1152683179	-0.451767
C	-0.0913471414	 0.060096427	-0.0324528857	 0.242995
C	-1.2595064407	-0.812545385	-0.450991875	-0.455064
C	 1.2962329035	-0.4806478229	-0.3447599583	 0.00212
O	 2.3345568713	 0.413285475	-0.6260589026	-0.25289
C	 3.2611006267	 0.4515783817	 0.4537392507	-0.099203
C	 2.5863594104	 1.0234873315	 1.6894038516	-0.062881
O	 1.3814580726	 0.3416884093	 2.0356831474	-0.270265
C	 0.7905329699	-0.488836365	 1.0769378494	 0.041604
H	 0.5756792028	 2.1275321741	-0.0052144934	 0.126802
H	-0.777637132	 1.8084696481	-1.0877651398	 0.113347
H	-1.0459612226	 1.8699120471	 0.6617376577	 0.117564
H	-1.5315675899	-0.6285945849	-1.4970028241	 0.118049
H	-1.0257334724	-1.8778856444	-0.3521951818	 0.111452
H	-2.1414082019	-0.6085618572	 0.1672424309	 0.119026
H	 1.3770817425	-1.4219590578	-0.8894197419	 0.083485
H	 3.6585197619	-0.5550235703	 0.6515790299	 0.099557
H	 4.0879530374	 1.0975317952	 0.1454828345	 0.113208
H	 3.2556911036	 0.9605375047	 2.5557867958	 0.10504
H	 2.3588308826	 2.0844316262	 1.5133481545	 0.105409
H	 0.5023739922	-1.4393981522	 1.519676318	 0.092414
73.9136	136.1515	162.9801	199.7597	218.6425	258.7318	326.3642	338.05	442.4436	489.3975	513.6681	531.4453	720.3895	734.3881	812.0871	833.6669	879.619	918.3007	973.9387	993.8834	1015.9925	1022.898	1053.72	1096.3099	1111.2192	1139.2035	1149.8046	1182.6969	1201.71	1257.838	1265.2645	1304.205	1330.4682	1343.8683	1398.2517	1403.4111	1406.8359	1421.7039	1445.8915	1481.2128	1489.8801	1492.7847	1500.5376	1507.4306	1515.8114	2995.3081	3005.3742	3020.3969	3034.4516	3055.4036	3083.6016	3087.1198	3089.6432	3093.8919	3095.8033	3127.1428	3142.4104
CC1(C)C2OCCOC12	CC1(C)[C@H]2OCCO[C@@H]12	
InChI=1S/C7H12O2/c1-7(2)5-6(7)9-4-3-8-5/h5-6H,3-4H2,1-2H3	InChI=1S/C7H12O2/c1-7(2)5-6(7)9-4-3-8-5/h5-6H,3-4H2,1-2H3/t5-,6+
