17
gdb 15815	4.80874	1.19687	1.00337	2.3139	66.7	-0.2553	0.0343	0.2896	1182.5232	0.141257	-401.011698	-401.003107	-401.002163	-401.045796	29.656	
C	 0.1216909856	 1.4713951843	-0.16379958	-0.391422
C	 0.1939105523	-0.0396192446	-0.0580003601	-0.032328
O	 0.5649574311	-0.5477873701	-1.3536190392	-0.251008
C	 0.656368266	-1.8896694066	-1.4379826432	 0.472308
O	 0.4778667241	-2.6541263329	-0.5211099601	-0.390786
N	 0.9167214677	-2.2670063221	-2.7511689642	-0.121028
C	 2.1144681806	-1.8663352697	-3.4684195409	-0.222611
C	 1.8949196328	-3.2893799344	-3.0512398309	-0.215835
H	 1.0884209725	 1.8898948257	-0.4581485878	 0.127072
H	-0.6240573202	 1.7755271479	-0.903500355	 0.13171
H	-0.1578304694	 1.8974733248	 0.8042981724	 0.122836
H	 0.9358565079	-0.3636727908	 0.6788421449	 0.119433
H	-0.7667903137	-0.476129239	 0.2323993146	 0.123989
H	 1.9666725099	-1.5675378794	-4.5020693887	 0.128507
H	 2.8572928508	-1.2890954861	-2.9247597179	 0.132236
H	 2.4807216793	-3.6739687267	-2.2209793625	 0.138547
H	 1.5895909825	-4.0300242403	-3.7842599914	 0.128379
49.0724	87.9876	116.3369	151.165	234.714	271.5982	275.366	370.5993	505.1386	603.32	784.2107	807.0528	823.0001	847.9777	887.0157	972.3704	998.4471	1048.5446	1076.0225	1131.6398	1135.8593	1136.4253	1173.1855	1178.3237	1184.353	1233.491	1291.4591	1371.9546	1408.6333	1431.3626	1485.3719	1497.4211	1499.7791	1522.5639	1527.6871	1809.6743	3046.3217	3050.7438	3088.5656	3114.4792	3118.9606	3120.7337	3126.1499	3197.8129	3211.6013
CCOC(=O)N1CC1	CCOC(=O)N1CC1	
InChI=1S/C5H9NO2/c1-2-8-5(7)6-3-4-6/h2-4H2,1H3	InChI=1S/C5H9NO2/c1-2-8-5(7)6-3-4-6/h2-4H2,1H3
