19
gdb 92314	2.15874	1.89051	1.27507	4.0063	74.44	-0.2288	-0.0115	0.2173	1038.6891	0.160105	-423.044438	-423.036368	-423.035424	-423.077411	31.267	
O	 0.1561549736	 1.1525368689	-0.7587142807	-0.420175
C	 0.0724180304	-0.075680947	-0.0715054125	 0.129967
C	 0.1562217979	-0.0366699484	 1.4820323267	-0.276462
C	-1.247161326	-0.7054090234	 1.5710637166	-0.011038
C	-2.3744387565	 0.1609073826	 2.1732268612	-0.232062
C	-2.7267174851	 1.1842707167	 1.0797746897	-0.322792
C	-2.4605148551	 0.4492786603	-0.2364860509	 0.43
O	-3.029738673	 0.6297037283	-1.2801308302	-0.318783
C	-1.3864442275	-0.6134045287	 0.0183296528	-0.16856
H	 1.0738126301	 1.4433057128	-0.7546289972	 0.286517
H	 0.7483659512	-0.8212245809	-0.5104027183	 0.075319
H	 0.9812086943	-0.599602318	 1.925117182	 0.099703
H	 0.1820049301	 0.9858025743	 1.8712080884	 0.100788
H	-1.2275670733	-1.7119273504	 1.9909955629	 0.072344
H	-3.2482126312	-0.4665322175	 2.3838614738	 0.105863
H	-2.0734351456	 0.6248208424	 3.1176054384	 0.102396
H	-3.7475024623	 1.5682662756	 1.118362248	 0.121549
H	-2.0468946514	 2.0462430833	 1.1030017885	 0.135603
H	-1.5929926406	-1.5082626808	-0.5692269894	 0.089823
51.0637	128.9024	180.3406	250.7084	334.1641	390.7918	414.0801	444.871	525.3331	584.1039	684.098	711.1868	731.397	809.088	838.6203	880.3867	917.7444	947.4321	970.5274	983.5457	1027.6779	1039.4768	1098.813	1136.4199	1154.1601	1168.6019	1178.8227	1204.6628	1226.352	1257.898	1262.682	1284.6848	1296.4751	1320.1578	1328.5087	1351.1503	1413.457	1457.6281	1478.9316	1494.1444	1847.2638	3007.77	3035.4117	3038.3133	3053.431	3082.7878	3092.3949	3109.6011	3114.6127	3121.3233	3815.8993
OC1CC2CCC(=O)C12	O[C@H]1C[C@H]2CCC(=O)[C@@H]12	
InChI=1S/C7H10O2/c8-5-2-1-4-3-6(9)7(4)5/h4,6-7,9H,1-3H2	InChI=1S/C7H10O2/c8-5-2-1-4-3-6(9)7(4)5/h4,6-7,9H,1-3H2/t4-,6+,7+/m1/s1
