16
gdb 125252	3.04141	1.4164	0.97328	4.1198	78.41	-0.2178	-0.0572	0.1605	1165.1362	0.124635	-434.06398	-434.055689	-434.054745	-434.096698	31.507	
C	 0.0074741251	 1.4820023844	-0.1202377069	-0.473744
C	-0.01292997	-0.0125139034	-0.0779527606	 0.250899
C	-1.1268254092	-0.7610714397	-0.1382615458	-0.243055
C	-1.0254258362	-2.2040476248	-0.0826451292	 0.390621
N	-2.1864309828	-2.9536774025	-0.2175119628	-0.561393
N	 0.0877092123	-2.8532741212	 0.0343220274	-0.184704
O	 1.2606377994	-2.0785900443	 0.0492061486	-0.289563
C	 1.2737866545	-0.7059131825	 0.0248476941	 0.360045
N	 2.3741629962	-0.0671735946	 0.0810880496	-0.533501
H	 0.6117741587	 1.8278916843	-0.9643893305	 0.157941
H	-1.0022453137	 1.8908765922	-0.2019829226	 0.116604
H	 0.4913460941	 1.8788974021	 0.777483852	 0.156576
H	-2.1091481612	-0.3103438332	-0.2389046205	 0.10968
H	-2.9900550566	-2.5782635334	 0.2665713422	 0.255358
H	-2.0438585387	-3.9360716245	-0.0210512605	 0.262583
H	 3.1602518681	-0.7157399089	 0.1477201054	 0.225652
87.6086	152.6404	195.8231	279.2296	305.8086	339.4271	367.9539	377.0068	469.4844	502.1354	559.1969	606.2826	692.0467	705.6649	759.4714	812.3677	861.2416	902.4044	920.3065	995.9155	1046.7665	1059.1817	1068.3156	1152.9613	1197.6845	1269.988	1387.7872	1414.8614	1444.1202	1463.1399	1483.3577	1620.1772	1646.874	1689.7216	1727.4905	3046.1471	3107.0825	3132.0958	3178.4279	3478.8985	3548.3583	3652.8485
CC1=CC(N)=NOC1=N	CC1=C(ON=C([CH]1)N)[NH]	
InChI=1S/C5H7N3O/c1-3-2-4(6)8-9-5(3)7/h2,7H,1H3,(H2,6,8)	InChI=1S/C5H7N3O/c1-3-2-4(6)8-9-5(3)7/h2,7H,1H3,(H2,6,8)
