22
gdb 81783	2.12995	1.71508	1.31589	0.7899	81.92	-0.199	0.0679	0.2669	1107.3113	0.191696	-404.303429	-404.293701	-404.292757	-404.336718	38.221	
C	-0.4856070485	 1.4011471654	 0.4181437555	-0.328387
N	-0.0677111504	 0.0296857572	 0.1908168066	-0.108083
C	 0.2635969456	-0.375344084	-1.1699333978	-0.102563
C	 1.560647477	 0.2379859352	-1.6755568032	-0.348943
C	 1.6123742125	-0.9108592199	-0.7186436815	 0.356451
O	 2.3098796857	-2.0546514393	-1.0546692237	-0.461502
C	 1.257111353	-0.4813287507	 0.721178941	 0.240943
C	 2.1878974779	 0.521281856	 1.3987527802	-0.447833
C	 1.0022340797	-1.6831989858	 1.6336872722	-0.429998
H	 0.1862956157	 2.1696946685	-0.0007140482	 0.09268
H	-1.4732329057	 1.5459764288	-0.0333330037	 0.119511
H	-0.5851745862	 1.586316417	 1.4922285538	 0.116759
H	-0.4893681916	-0.7848651806	-1.8353064948	 0.092243
H	 1.8187794351	-0.0447083693	-2.6916477808	 0.11837
H	 1.8652038009	 1.2422750116	-1.3960030833	 0.105224
H	 1.8598108017	-2.8098679846	-0.6598585788	 0.286805
H	 2.401909682	 1.3881358372	 0.7695840238	 0.118105
H	 1.7620992542	 0.8835265543	 2.3411259641	 0.115155
H	 3.1410303842	 0.0358940692	 1.6325024468	 0.124229
H	 1.9366151264	-2.201915043	 1.876717285	 0.112457
H	 0.541511243	-1.3563334719	 2.5708965697	 0.118137
H	 0.3127717879	-2.3903072311	 1.1614239171	 0.110241
141.8029	188.8664	205.1315	226.2759	232.08	245.1893	271.5881	302.6817	340.4826	365.469	410.8816	477.2625	500.294	531.5812	616.4088	657.4884	719.9735	825.6892	891.8271	921.354	938.1908	962.758	989.6986	995.9071	1013.0148	1052.7755	1074.8491	1136.966	1153.1844	1181.7801	1203.9765	1213.2852	1236.1606	1268.1363	1295.4599	1340.9167	1388.9433	1411.4414	1415.5989	1452.0361	1477.3547	1483.3705	1486.0847	1496.4616	1500.7698	1505.9918	1513.0809	2956.6479	3026.9729	3037.5714	3056.5074	3094.6826	3098.4533	3101.2252	3106.1617	3117.9161	3124.0985	3160.7822	3206.258	3797.089
CN1C2CC2(O)C1(C)C	CN1[C@H]2C[C@@]2(O)C1(C)C	
InChI=1S/C7H13NO/c1-6(2)7(9)4-5(7)8(6)3/h5,9H,4H2,1-3H3	InChI=1S/C7H13NO/c1-6(2)7(9)4-5(7)8(6)3/h5,9H,4H2,1-3H3/t5-,7-/m0/s1
