21
gdb 23368	1.94946	1.33372	0.97982	1.7574	82.32	-0.2303	0.0035	0.2339	1321.2329	0.181281	-420.344463	-420.334264	-420.33332	-420.380257	37.271	
C	 0.4201597271	-0.7426387737	-1.3617038488	-0.398895
C	-0.0348298272	-0.0309423506	-0.0776983094	-0.067548
C	 0.3641872176	 1.4585359069	-0.0829920562	-0.393075
C	-1.5268370611	-0.1664888528	 0.1595898794	 0.363502
N	-2.0773477945	-0.3820348002	 1.2942439869	-0.215029
O	-1.1558393348	-0.5299035493	 2.3417189787	-0.398495
C	-2.467329419	-0.0208557935	-0.9909633693	-0.066387
C	-3.2926746756	-1.1923461042	-1.4181297085	-0.225999
N	-3.9148313793	-0.0346190076	-0.7709638734	-0.318181
H	 1.5090588525	-0.6805593605	-1.4545261634	 0.11609
H	 0.1429090556	-1.8009685249	-1.353681345	 0.121195
H	-0.012173804	-0.289056385	-2.2591366473	 0.119365
H	 0.4622407349	-0.5048216264	 0.7719790185	 0.112489
H	-0.1268511339	 2.0024761916	-0.897384179	 0.119259
H	 0.0917936748	 1.9393789922	 0.8602864908	 0.132241
H	 1.4457117753	 1.559712703	-0.2198034466	 0.115931
H	-1.7330061644	-0.6866047535	 3.0961827923	 0.306622
H	-2.1390349282	 0.6763731106	-1.7580080008	 0.098671
H	-3.5379875846	-1.3273286339	-2.4683180413	 0.117958
H	-3.176072973	-2.10903797	-0.8460063879	 0.117224
H	-4.0710847982	-0.2411503984	 0.2144393203	 0.243061
30.6131	73.6332	163.858	191.7236	228.6799	231.8026	248.8245	262.4676	308.2459	366.2372	413.8409	429.1128	533.0684	609.2048	701.6767	727.1517	841.7787	882.7016	912.437	932.9917	967.8709	975.6391	985.6979	1025.2583	1048.7935	1115.0322	1123.1863	1141.7553	1188.777	1192.9158	1239.6458	1280.1622	1319.0532	1336.5732	1352.4152	1394.1227	1397.2457	1420.5048	1433.7138	1487.2235	1492.094	1501.1538	1504.0678	1510.1207	1715.4319	3032.9027	3038.3797	3078.9151	3099.969	3104.7646	3108.0395	3112.5918	3118.2253	3134.3276	3195.2561	3487.8939	3823.5728
CC(C)C(=NO)C1CN1	CC(C)C(=NO)[C@H]1CN1	
InChI=1S/C6H12N2O/c1-4(2)6(8-9)5-3-7-5/h4-5,7,9H,3H2,1-2H3	InChI=1S/C6H12N2O/c1-4(2)6(8-9)5-3-7-5/h4-5,7,9H,3H2,1-2H3/t5-/m1/s1
