16
gdb 69757	3.15304	1.5732	1.31943	3.7353	69.45	-0.2596	0.0204	0.2801	988.5506	0.123666	-437.831965	-437.824604	-437.82366	-437.863635	28.719	
C	-0.0748881744	 1.5432139254	 0.0710339403	-0.50668
C	 0.1346482847	 0.0681927799	-0.0076048546	 0.424344
O	-0.7852376552	-0.8006171016	 0.653357766	-0.261446
C	 0.6026008868	-0.9522705207	 0.9586629319	-0.085067
C	 1.2379183364	-1.7873169953	-0.187679079	 0.087633
O	 0.3680001491	-2.7952340628	-0.7755784182	-0.263965
C	-0.1053180994	-1.8893218304	-1.7206902214	 0.462281
N	-0.9132720907	-2.0453725329	-2.6629089223	-0.552433
C	 0.7427348875	-0.7401633671	-1.205215983	-0.277405
H	 0.8339340286	 2.0813817199	-0.2156682464	 0.129629
H	-0.8790965727	 1.851704076	-0.6056874844	 0.147702
H	-0.3518802435	 1.8323296433	 1.0881592943	 0.140493
H	 0.8952215203	-0.8895187421	 2.0007795203	 0.112007
H	 2.2697436921	-2.1178722262	-0.083359944	 0.102033
H	-1.2799474328	-2.9983586323	-2.6879687129	 0.231118
H	 1.3977034834	-0.2096451132	-1.8919827267	 0.109755
139.6579	158.2808	199.5185	261.3301	349.9615	401.5138	451.1186	572.4156	618.8257	662.3446	749.9412	790.6258	837.2974	868.8985	875.2587	888.1427	895.8923	967.1228	976.2669	999.5721	1006.0987	1053.19	1097.4379	1158.9719	1167.0368	1186.764	1215.2208	1256.8051	1275.0995	1315.4066	1404.1806	1459.2714	1480.516	1492.4952	1828.5605	3038.6681	3104.0405	3125.1607	3136.4586	3155.8193	3183.4583	3478.3573
CC12OC1C1OC(=N)C21	C[C@]12O[C@H]1[C@H]1O[C]([NH])[C@@H]21	
InChI=1S/C6H7NO2/c1-6-2-3(4(6)9-6)8-5(2)7/h2-4,7H,1H3	InChI=1S/C6H7NO2/c1-6-2-3(4(6)9-6)8-5(2)7/h2-4,7H,1H3/t2-,3-,4-,6+/m0/s1
