16
gdb 36322	3.34679	1.29906	1.13847	3.3797	72.9	-0.2261	0.0015	0.2276	1079.5954	0.126056	-396.923725	-396.916091	-396.915147	-396.95671	28.349	
N	 0.2031889326	-1.0966803388	-0.345912461	-0.300429
C	 0.0999051702	 0.0425687165	-0.1843777974	 0.270473
C	-0.0013370226	 1.504525635	 0.0192131732	-0.315795
N	 1.2626209309	 2.1921425134	-0.0096989921	-0.026989
C	 2.1033367585	 2.338003209	 1.0838059175	 0.049571
N	 3.3159482201	 2.6635818695	 0.8363873704	-0.258973
C	 3.4519491032	 2.644269944	-0.6043794963	 0.00112
C	 3.2351001034	 1.3203039092	-1.3028145344	-0.305931
C	 2.0843899511	 2.2910270794	-1.1913770524	-0.045714
H	-0.6649770027	 1.9108535539	-0.753034471	 0.16409
H	-0.4878570307	 1.6880375998	 0.9832652086	 0.165996
H	 1.6972103659	 2.2069865031	 2.0823036009	 0.132746
H	 4.1223876105	 3.3760050409	-1.0377687401	 0.104957
H	 3.675637672	 1.2178820619	-2.2879274121	 0.123777
H	 3.2200902285	 0.4156539979	-0.7047547168	 0.13594
H	 1.6264067989	 2.7478938853	-2.061781687	 0.105161
58.5168	66.6107	212.8561	298.5861	352.1473	375.2365	420.6057	492.0784	629.7553	701.4323	744.4653	768.2787	818.3237	890.8694	901.6264	927.6344	944.0951	980.3209	995.5203	1050.9488	1073.779	1100.3795	1115.6026	1186.7309	1207.1248	1247.2468	1299.0623	1343.1745	1364.3966	1377.9279	1417.596	1456.2846	1464.706	1655.295	2356.7671	3040.5443	3084.4221	3136.6585	3165.0789	3187.6519	3190.9936	3230.9976
N#CCN1C=NC2CC12	N#CCN1C=N[C@H]2C[C@@H]12	
InChI=1S/C6H7N3/c7-1-2-9-4-8-5-3-6(5)9/h4-6H,2-3H2	InChI=1S/C6H7N3/c7-1-2-9-4-8-5-3-6(5)9/h4-6H,2-3H2/t5-,6+/m0/s1
