21
gdb 74983	2.80018	1.3878	1.14015	2.2137	83.92	-0.2343	0.0175	0.2518	1179.6663	0.182547	-387.097481	-387.088832	-387.087887	-387.130506	33.531	
C	 0.2970184845	 1.4906520058	 0.1110567775	-0.486456
C	 0.0349310526	 0.0201570087	 0.0222858701	 0.324391
C	 0.1116077695	-0.7480176406	-1.070038392	-0.193853
C	-0.2045323985	-2.1846379178	-0.782559462	 0.060169
O	 0.965417701	-3.0452481936	-0.680501704	-0.29717
C	 0.9145658804	-2.9952247831	 0.7593412848	-0.118665
C	-0.4375629571	-2.2344493188	 0.7556735329	 0.293901
C	-1.6272694519	-3.0342959266	 1.2624157264	-0.483263
C	-0.3833975547	-0.7734869994	 1.246065283	-0.38175
H	 1.1056551113	 1.7030686657	 0.8219440111	 0.127765
H	 0.5748976036	 1.9127981116	-0.8581440809	 0.126254
H	-0.5868260184	 2.0277191055	 0.4786180272	 0.126057
H	 0.3886934052	-0.3939688932	-2.0574416348	 0.090545
H	-0.9489596746	-2.6317700329	-1.4525213585	 0.068639
H	 0.896011991	-4.0001811322	 1.1994179227	 0.09541
H	 1.7588965344	-2.4355832063	 1.1848395746	 0.091215
H	-1.5976924418	-3.1378186333	 2.3534683927	 0.115923
H	-2.5716597333	-2.5434989926	 1.0013832237	 0.116241
H	-1.6404290855	-4.0409728418	 0.8316891913	 0.122614
H	 0.3202906597	-0.6382821895	 2.0791696541	 0.101684
H	-1.3596006771	-0.4319708055	 1.6196296703	 0.100347
85.1306	147.3722	186.0402	240.0865	251.1424	293.7458	345.6371	376.9633	422.4254	490.4323	536.4413	667.4935	691.1517	838.1157	865.5567	882.8947	892.8078	934.9668	955.5166	973.3981	978.13	1001.1185	1017.6148	1047.5055	1050.0301	1133.8933	1155.2727	1174.6187	1185.0977	1231.3978	1256.2144	1278.6997	1298.0233	1336.7801	1345.7788	1371.6418	1412.7639	1413.9688	1478.7462	1482.139	1486.8715	1494.2793	1497.1989	1520.6963	1709.6952	2997.3094	3000.8223	3018.296	3022.1522	3027.0859	3031.6569	3046.1055	3064.126	3086.7665	3097.1401	3114.2931	3187.7826
CC1=CC2OCC2(C)C1	CC1=C[C@H]2OC[C@@]2(C)C1	
InChI=1S/C8H12O/c1-6-3-7-8(2,4-6)5-9-7/h3,7H,4-5H2,1-2H3	InChI=1S/C8H12O/c1-6-3-7-8(2,4-6)5-9-7/h3,7H,4-5H2,1-2H3/t7-,8-/m1/s1
