19
gdb 40282	2.93984	1.4061	1.07067	1.6915	78.36	-0.2387	0.0059	0.2446	1147.8491	0.160494	-423.003238	-422.995383	-422.994438	-423.035774	30.668	
C	 0.669740093	 1.4541073528	 0.0765599657	-0.210673
O	 1.4196385914	 0.244066414	 0.0485098262	-0.275426
C	-0.0188168315	 0.1467756935	 0.0136867241	 0.356256
C	-0.574150336	-0.4421501089	 1.2998904261	-0.170589
O	-1.9589827344	-0.2405408596	 1.4771440102	-0.237018
C	-2.7803599953	-1.142020991	 0.7582554064	-0.073505
C	-3.018182486	-0.7462517049	-0.7003134947	-0.265888
C	-1.8071659588	-0.6769334697	-1.5966108629	-0.069921
C	-0.5637567053	-0.2972895238	-1.2964609912	-0.114547
H	 0.6868190798	 2.0019609047	 1.0184186559	 0.11733
H	 0.7378263069	 2.0672235632	-0.8208411418	 0.115224
H	-0.3348131615	-1.5173742192	 1.3240373964	 0.098758
H	-0.0712624724	 0.0330927944	 2.1471100473	 0.109747
H	-2.3547432539	-2.1569445308	 0.8055290822	 0.092619
H	-3.7416612307	-1.1565286449	 1.2831102646	 0.105375
H	-3.7337775325	-1.4632480621	-1.1222485384	 0.104535
H	-3.5288122379	 0.2279128785	-0.7175710765	 0.124105
H	-2.000102846	-0.9206978146	-2.6392971993	 0.093859
H	 0.1766978411	-0.2594406416	-2.0923652703	 0.099759
66.5395	150.2766	249.7377	296.9128	323.8511	333.0916	421.9637	453.8498	496.6386	565.6593	646.3144	741.6028	783.4882	813.8087	870.7377	907.0328	933.7376	945.3152	982.6261	1011.305	1046.5982	1058.33	1090.0381	1133.9789	1151.0145	1162.8558	1223.4018	1242.7038	1272.9882	1323.101	1327.4009	1363.3886	1383.1416	1391.7285	1426.3165	1443.2332	1462.7323	1484.1817	1496.9746	1523.5705	1726.7823	2977.6565	2983.4279	3005.4503	3050.0528	3068.6611	3078.6347	3085.8255	3139.2985	3162.6754	3168.1997
C1OC11COCCC=C1	C1O[C@]21COCCC=C2	
InChI=1S/C7H10O2/c1-2-4-8-5-7(3-1)6-9-7/h1,3H,2,4-6H2	InChI=1S/C7H10O2/c1-2-4-8-5-7(3-1)6-9-7/h1,3H,2,4-6H2/t7-/m0/s1
