14
gdb 44326	3.45511	2.01182	1.62603	2.6714	64.86	-0.248	-0.0272	0.2208	808.1835	0.104031	-432.839955	-432.834111	-432.833167	-432.870112	23.792	
N	-0.1698278	 1.11804262	 0.4140281465	-0.529489
C	-0.1241890794	-0.0407642219	-0.0601967916	 0.426726
O	 0.9834397008	-0.8711990864	-0.0967614617	-0.226702
C	 0.6729598189	-1.9817529265	-0.9101690359	 0.054199
C	-0.4550300753	-2.9665062067	-0.5385409279	-0.054204
N	-1.2251636759	-2.7563555342	 0.6678806504	-0.178124
C	-1.645700986	-1.5611386047	 0.6143068927	 0.013398
N	-1.2678862482	-0.7793375547	-0.5611217493	-0.176121
C	-0.6911267502	-1.7953291882	-1.4695006115	-0.09486
H	 0.7421994692	 1.3946684233	 0.7770991826	 0.240294
H	 1.5217958504	-2.3419051613	-1.4760132226	 0.131215
H	-0.3491919117	-3.9859895959	-0.8867694602	 0.117154
H	-2.1944350402	-1.0540120396	 1.3988731678	 0.159146
H	-0.9973388725	-1.7981054433	-2.5076015194	 0.117369
137.1238	272.5826	367.1371	478.463	619.0479	639.3105	721.8751	744.5761	767.6056	788.1602	811.7459	840.9107	873.4006	885.098	938.1527	951.8944	976.0014	1003.3687	1031.5523	1054.8805	1085.7142	1088.1	1104.5239	1156.872	1231.5471	1264.834	1314.4831	1325.6087	1385.2297	1672.8756	1794.6874	3190.4939	3202.4538	3212.9897	3226.9446	3504.2837
N=C1OC2C3N=CN1C23	[NH][C]1O[C@H]2[C@H]3[N][CH]N1[C@@H]23	
InChI=1S/C5H5N3O/c6-5-8-1-7-2-3(8)4(2)9-5/h1-4,6H	InChI=1S/C5H5N3O/c6-5-8-1-7-2-3(8)4(2)9-5/h1-4,6H/t2-,3+,4-/m0/s1
