19
gdb 85565	2.59603	1.38089	0.96832	0.2507	75.65	-0.2489	-0.033	0.2159	1213.6378	0.159042	-423.08676	-423.077991	-423.077047	-423.120577	32.598	
C	-0.0777695488	 1.5502053993	-0.0022810744	-0.397007
C	 0.058372153	 0.0297676924	 0.0372365945	-0.095278
C	 0.7540713983	-0.5353307153	-1.2293808361	-0.303887
C	 0.958249382	-2.0435617514	-1.1623705748	 0.375878
O	 0.5998199449	-2.7890194911	-2.0424864737	-0.297845
C	 1.6518458141	-2.536358393	 0.1017061798	-0.303815
C	 0.9858073709	-1.9680246354	 1.3753453717	-0.308156
C	 0.7936211956	-0.4581826531	 1.2884044283	 0.380286
O	 1.1925484164	 0.2945458879	 2.1454148935	-0.300161
H	 0.9063238245	 2.0266103255	-0.0402150785	 0.128385
H	-0.6476948345	 1.8629452491	-0.8821491259	 0.113639
H	-0.5843800406	 1.9192826634	 0.8922959939	 0.13227
H	-0.9437743572	-0.4240864139	 0.0819223164	 0.104921
H	 0.1813323973	-0.2981506562	-2.1288911243	 0.12745
H	 1.741647073	-0.0617844608	-1.3269465082	 0.124863
H	 1.6559298675	-3.628197185	 0.1015342988	 0.12944
H	 2.6959273791	-2.1966853983	 0.0634849439	 0.130371
H	-0.0042487241	-2.4277682034	 1.496524	 0.129182
H	 1.5715689984	-2.1952409008	 2.2682901052	 0.129466
69.9196	97.42	134.6556	194.8014	272.4851	297.6801	372.0711	397.7541	429.8881	503.6808	568.0402	601.5808	714.8356	732.1538	785.6257	839.9389	876.9628	942.9226	967.9113	990.0389	1062.2464	1075.5099	1118.2515	1130.8528	1147.7347	1210.4338	1225.5517	1254.8815	1291.4514	1308.9196	1323.7949	1352.1722	1374.5811	1413.0439	1465.6455	1474.4805	1479.4674	1490.0546	1492.5507	1816.2419	1823.0615	2991.9398	3015.8501	3023.4611	3032.2001	3046.6398	3106.3576	3113.408	3114.9274	3116.4833	3128.969
CC1CC(=O)CCC1=O	C[C@H]1CC(=O)CCC1=O	
InChI=1S/C7H10O2/c1-5-4-6(8)2-3-7(5)9/h5H,2-4H2,1H3	InChI=1S/C7H10O2/c1-5-4-6(8)2-3-7(5)9/h5H,2-4H2,1H3/t5-/m0/s1
