21
gdb 88209	3.23538	1.22623	1.04818	1.6309	78.83	-0.2352	0.0804	0.3155	1214.8033	0.183511	-424.218816	-424.210406	-424.209462	-424.251397	33.622	
O	 0.0279821688	 1.3696091966	-0.0465746457	-0.424153
C	-0.0150430325	-0.026784984	-0.0048619984	 0.015014
C	-0.4888298616	-0.73829336	 1.2506716249	-0.392253
C	-1.3585548199	-0.6664116517	 0.0012194694	 0.432269
C	-2.6323471645	 0.1530676311	 0.0007935114	-0.245712
C	-3.8129777701	-0.724944439	 0.4459905088	-0.208736
C	-3.8414986978	-2.0245278398	-0.3720750661	-0.19369
C	-2.4727354774	-2.7057171412	-0.3274379157	-0.07643
O	-1.4402292275	-1.8325575493	-0.7756809548	-0.295622
H	 0.7605753108	 1.6588578549	 0.5071559774	 0.28852
H	 0.7443773592	-0.5384356677	-0.5956580324	 0.097177
H	-0.0232341797	-1.686640929	 1.4951070346	 0.114166
H	-0.7707347852	-0.1208197184	 2.097578843	 0.110441
H	-2.5174718925	 1.0310696981	 0.6402886446	 0.104277
H	-2.8078463615	 0.5187808675	-1.0190160799	 0.10442
H	-3.7020322938	-0.9692073981	 1.5109591094	 0.095076
H	-4.7570834832	-0.1800330153	 0.3419274387	 0.093027
H	-4.6074027541	-2.7119723092	 0.0051304623	 0.091669
H	-4.0897605291	-1.8003585118	-1.4169939909	 0.102999
H	-2.2549600428	-3.0455021027	 0.6987043243	 0.085
H	-2.4352800556	-3.576709631	-0.9878286448	 0.102541
113.7722	167.2001	187.6587	271.0473	309.1443	309.6716	381.7561	421.8032	438.7392	478.5951	527.7219	610.872	690.2783	821.2005	838.276	854.0436	871.7616	922.6006	937.9527	964.647	965.9801	1004.0715	1015.1639	1059.7566	1080.6559	1105.5331	1135.3097	1160.2398	1187.7853	1218.9973	1250.2686	1267.1377	1299.7285	1305.5584	1323.7603	1367.4956	1377.1444	1383.9291	1409.7175	1419.6034	1474.4863	1481.4821	1489.103	1491.6743	1506.4815	2970.9642	3018.7309	3027.4063	3031.45	3068.515	3076.0326	3086.7345	3105.1076	3108.5608	3127.9836	3223.0717	3807.4957
OC1CC11CCCCO1	O[C@H]1C[C@]21CCCCO2	
InChI=1S/C7H12O2/c8-6-5-7(6)3-1-2-4-9-7/h6,8H,1-5H2	InChI=1S/C7H12O2/c8-6-5-7(6)3-1-2-4-9-7/h6,8H,1-5H2/t6-,7-/m0/s1
