14
gdb 133086	2.8616	1.40909	0.94982	1.702	68.5	-0.2437	-0.0461	0.1976	1139.0954	0.101401	-478.020693	-478.013274	-478.01233	-478.052952	27.112	
C	-0.0202598627	 1.4121350934	 0.0177884379	-0.238401
O	 0.0148265325	-0.016974812	-0.025860393	-0.257282
C	 0.6159588119	-0.5843855328	-1.0776302606	 0.422407
C	 0.6581618703	-1.9907664953	-1.1342607308	-0.087366
N	 1.238178036	-2.6129487976	-2.1481228946	-0.21438
C	 1.7817725376	-1.8643581688	-3.1150758936	-0.151779
C	 1.721529184	-0.4816893753	-3.0263320853	 0.299088
F	 2.2594489754	 0.2636613464	-3.9833203408	-0.06217
N	 1.1517428636	 0.1684905123	-2.0308615855	-0.389676
H	 0.9910599352	 1.8277700246	 0.030950832	 0.142447
H	-0.5540942922	 1.8166399889	-0.8465514381	 0.142454
H	-0.5457164138	 1.6609023958	 0.9399035864	 0.137603
H	 0.2128471873	-2.5836827168	-0.3423784086	 0.127962
H	 2.2608426848	-2.3578169029	-3.9527710153	 0.129092
113.9428	162.4751	208.9926	216.9265	258.9191	419.6283	480.0243	507.7458	552.7229	637.4466	692.3803	731.4942	773.9047	879.2273	929.2201	1005.045	1023.9852	1078.8377	1178.1184	1182.397	1216.0716	1255.0451	1296.7428	1374.1531	1438.1058	1471.8596	1481.8381	1499.1971	1518.6025	1589.523	1626.9415	3046.2862	3119.0724	3156.9928	3187.4872	3198.4853
COC1=CN=CC(F)=N1	COc1cncc(F)n1	
InChI=1S/C5H5FN2O/c1-9-5-3-7-2-4(6)8-5/h2-3H,1H3	InChI=1S/C5H5FN2O/c1-9-5-3-7-2-4(6)8-5/h2-3H,1H3
