21
gdb 116533	3.51261	0.84491	0.71734	3.443	87.69	-0.2414	-0.0133	0.2281	1617.7261	0.180639	-420.44245	-420.431714	-420.430769	-420.479833	37.654	
C	-0.6993625203	 0.975117582	 0.061396106	-0.357593
C	-0.2202920507	-0.4798857056	 0.0131493721	-0.143288
N	 0.6967909936	-0.6664676344	-1.0879948451	-0.276176
C	 1.8909835893	-1.0866802728	-0.9706247552	 0.382537
C	 2.6062803411	-1.4907953426	 0.302544715	-0.502964
N	 2.6299979889	-1.1854087736	-2.171343274	-0.127693
C	 1.9730233989	-0.7844474972	-3.4164401886	-0.332256
C	 3.9279420091	-1.6474547003	-2.2445705746	 0.162212
O	 4.5709419426	-1.7402816431	-3.2672370205	-0.328737
H	 0.1326768148	 1.6509588251	 0.2830583364	 0.115794
H	-1.1247561146	 1.2688333242	-0.9019643069	 0.128395
H	-1.461648907	 1.1037338829	 0.8361195193	 0.111343
H	 0.176250271	-0.763658067	 0.9989906278	 0.085611
H	-1.0857775588	-1.1303736696	-0.1706933956	 0.111345
H	 2.9013361951	-2.5441756592	 0.2784451688	 0.150817
H	 3.5102692248	-0.8951125783	 0.4590327006	 0.14997
H	 1.9583504371	-1.3468463382	 1.1645609077	 0.143079
H	 1.6599846633	 0.2596844062	-3.3562095617	 0.138354
H	 2.6931203201	-0.9258785447	-4.2196781275	 0.158617
H	 1.0817618182	-1.3922265935	-3.584306201	 0.1393
H	 4.3449361036	-1.9348170404	-1.2694700731	 0.09133
17.031	53.5338	113.7451	154.6168	180.5974	201.1428	229.5418	268.5033	337.5311	352.6743	381.3052	415.6274	446.1813	508.2144	574.0705	674.1687	798.8467	817.1761	883.0675	967.6686	1024.0478	1035.1401	1051.0991	1078.4077	1124.2802	1146.4296	1158.6697	1174.5078	1300.2009	1330.1902	1362.8843	1378.8781	1402.8579	1408.3253	1443.4774	1460.273	1482.698	1488.2007	1488.6831	1489.5633	1499.6758	1508.4615	1519.2689	1724.3329	1794.566	2989.2	3029.2852	3036.1073	3039.7031	3056.0277	3068.0484	3110.0096	3110.8394	3122.1874	3130.6283	3165.2503	3183.6037
CCN=C(C)N(C)C=O	CCN=C(C)N(C)C=O	
InChI=1S/C6H12N2O/c1-4-7-6(2)8(3)5-9/h5H,4H2,1-3H3	InChI=1S/C6H12N2O/c1-4-7-6(2)8(3)5-9/h5H,4H2,1-3H3
