20
gdb 8703	2.37674	1.65212	1.31383	2.9006	71.23	-0.2493	-0.0238	0.2255	1067.6616	0.173201	-386.15676	-386.146596	-386.145651	-386.191614	36.123	
C	 0.7292923077	-0.5234758882	 1.3858236721	-0.420501
C	 0.1604965594	 0.0867971471	 0.1009333226	-0.192403
C	 0.8354766656	-0.4089897155	-1.2069333281	 0.265268
O	 2.240070803	-0.1587406668	-1.1828887553	-0.473182
C	 0.5042550993	-1.8798307225	-1.5181778765	-0.221989
C	 1.2162857124	-2.4264257217	-2.7595837677	-0.391371
C	 0.3135788494	 0.5062320541	-2.3144674597	 0.157818
O	-0.756496377	 0.3790727233	-2.8497097046	-0.266653
H	 0.5981034207	-1.6090278933	 1.4260155495	 0.125847
H	 1.7962645254	-0.3009401536	 1.4959160841	 0.115716
H	 0.2241483111	-0.1004994818	 2.2589562119	 0.126963
H	-0.9136106151	-0.1134267548	 0.0241074504	 0.117134
H	 0.2751971707	 1.1768745514	 0.150568849	 0.10498
H	 2.6332184826	-0.7217453194	-0.5089134499	 0.285489
H	 0.7608402101	-2.4933069674	-0.6458193885	 0.089077
H	-0.5805859671	-1.9502508358	-1.6476393652	 0.122239
H	 0.8958901342	-1.8992028428	-3.6632334136	 0.131348
H	 2.3003665511	-2.314415983	-2.6736838618	 0.119297
H	 0.9905296223	-3.4878331219	-2.8968436414	 0.112327
H	 1.0083053144	 1.3396337626	-2.5603848474	 0.092596
69.1046	88.6597	115.0444	185.8172	213.0098	226.4587	236.5439	275.7147	297.5116	326.9999	369.2289	440.0974	509.2448	628.8875	724.0295	784.213	795.3708	888.9469	966.4457	980.0545	1008.4181	1036.4836	1059.6242	1084.4774	1129.5978	1159.9932	1206.7184	1282.5275	1320.1941	1341.1021	1360.5178	1390.5678	1402.2868	1413.1789	1420.2142	1474.3026	1480.2623	1495.8825	1503.9822	1509.0436	1510.0958	1835.8975	2895.5444	3028.035	3031.9391	3038.9846	3045.488	3074.1034	3083.6126	3104.9416	3112.311	3113.9223	3122.5907	3828.3859
CCC(O)(CC)C=O	CCC(O)(CC)C=O	
InChI=1S/C6H12O2/c1-3-6(8,4-2)5-7/h5,8H,3-4H2,1-2H3	InChI=1S/C6H12O2/c1-3-6(8,4-2)5-7/h5,8H,3-4H2,1-2H3
