21
gdb 64042	2.44688	1.65566	1.36446	1.7055	82.26	-0.2382	0.0019	0.2401	1063.2473	0.182643	-387.094455	-387.085975	-387.085031	-387.126761	34.039	
C	 0.1196794366	 1.5064277105	 0.0227238613	-0.425753
C	-0.0396349911	-0.023115572	-0.0087167041	 0.229136
C	-1.5326334491	-0.4014180824	 0.0477778426	-0.418268
C	 0.610962762	-0.5790005667	-1.3059585791	-0.289733
C	 0.8672625823	-2.0629789313	-1.2769579976	-0.090881
C	 1.1651758486	-2.7059932678	-0.1466934515	-0.045118
C	 1.2236673324	-1.9747042495	 1.1418174239	-0.007984
O	 2.0495579443	-0.7818385487	 1.1875093977	-0.273847
C	 0.634816637	-0.6264808051	 1.2150402019	 0.05225
H	 1.1771800629	 1.7857433365	 0.0595520062	 0.127643
H	-0.3238176279	 1.9633817986	-0.8688196688	 0.110326
H	-0.3757441521	 1.9382703547	 0.8993917206	 0.108832
H	-2.0829224784	 0.0791447753	-0.7679671683	 0.111979
H	-1.6715069141	-1.48319183	-0.0381208514	 0.122777
H	-1.9869955128	-0.0761047357	 0.9902286976	 0.1106
H	-0.0234296781	-0.3185578908	-2.1609562363	 0.097471
H	 1.5660030417	-0.0626224529	-1.4661737144	 0.125052
H	 0.8371119866	-2.6018035731	-2.2200596513	 0.094604
H	 1.3655684766	-3.7727195634	-0.1366953187	 0.089236
H	 1.2848964324	-2.5711426041	 2.0498836874	 0.090011
H	 0.2373707201	-0.285254652	 2.1738608023	 0.081668
124.073	193.4218	228.4751	258.3127	285.4344	307.3355	327.6668	373.2991	451.652	493.917	535.414	580.7659	700.4043	719.3152	815.8965	843.2486	869.2108	906.909	934.2634	947.0527	964.7818	982.3048	996.9649	1018.4306	1033.7393	1076.8439	1138.1012	1158.9877	1192.4009	1208.2843	1252.553	1287.2018	1299.2652	1336.0205	1381.0827	1395.0749	1410.7634	1423.1145	1455.2584	1468.4614	1488.3916	1490.3399	1502.5524	1511.4765	1707.2926	3022.6275	3025.6901	3030.9416	3059.5768	3079.3189	3091.0506	3095.9588	3105.9256	3109.9436	3129.956	3158.9087	3185.1798
CC1(C)CC=CC2OC12	CC1(C)CC=C[C@H]2O[C@@H]12	
InChI=1S/C8H12O/c1-8(2)5-3-4-6-7(8)9-6/h3-4,6-7H,5H2,1-2H3	InChI=1S/C8H12O/c1-8(2)5-3-4-6-7(8)9-6/h3-4,6-7H,5H2,1-2H3/t6-,7-/m1/s1
