18
gdb 98994	5.06945	0.75528	0.67298	4.8078	73.3	-0.2412	0.0282	0.2693	1674.3356	0.146249	-472.439819	-472.429242	-472.428298	-472.477015	35.738	
C	-0.0679644745	 1.383380308	 0.2345249983	-0.319547
N	 0.1510832139	-0.0287946707	-0.0249829075	-0.363901
C	 0.6318496395	-0.4227513811	-1.2592967717	 0.505308
O	 0.7773736965	 0.3244525259	-2.1958695867	-0.355426
N	 0.8722067797	-1.8084127474	-1.2851188293	-0.439828
C	 1.4521927668	-2.536648346	-2.3163346106	 0.485876
N	 2.2066102254	-2.0420432571	-3.2001326623	-0.527714
O	 1.0678869594	-3.8397489926	-2.1290288606	-0.255961
C	 1.6293723367	-4.8049455341	-3.0030598685	-0.262096
H	 0.8463651973	 1.9051842402	 0.5462046579	 0.125233
H	-0.4220192613	 1.846455747	-0.6866707842	 0.166821
H	-0.8262186472	 1.5002216436	 1.0134308719	 0.120139
H	 0.3968486474	-0.6009038098	 0.7677107831	 0.237818
H	 0.379211777	-2.3767009049	-0.6148932639	 0.251206
H	 2.513382546	-2.7335202074	-3.8771842972	 0.220664
H	 2.7244999804	-4.8026497678	-2.9506859079	 0.134704
H	 1.2513740472	-5.7714110111	-2.6674521386	 0.141011
H	 1.3163427099	-4.6359079547	-4.0402587323	 0.135691
40.1292	57.3341	65.2003	116.5993	146.6925	168.2083	210.4089	287.9071	323.4143	364.5399	418.7975	459.2989	491.5105	669.583	703.9247	753.913	768.9256	785.1911	918.835	980.1593	1044.8207	1120.9525	1150.3717	1168.9927	1173.1425	1179.9314	1209.9469	1222.7051	1300.1312	1443.4438	1467.1487	1485.5728	1490.2572	1498.9835	1507.7235	1532.9259	1548.4004	1753.7819	1840.818	3018.4575	3018.8448	3082.8015	3092.5402	3143.1161	3156.3487	3552.1538	3620.2518	3640.685
CNC(=O)NC(=N)OC	CNC(=O)NC(=N)OC	
InChI=1S/C4H9N3O2/c1-6-4(8)7-3(5)9-2/h1-2H3,(H3,5,6,7,8)	InChI=1S/C4H9N3O2/c1-6-4(8)7-3(5)9-2/h1-2H3,(H3,5,6,7,8)
