25
gdb 60377	3.23396	0.71587	0.69732	1.6842	89.56	-0.2585	0.0832	0.3416	1813.8133	0.226233	-389.488489	-389.477397	-389.476453	-389.525415	40.748	
C	-0.2985213532	 1.5671926189	-0.0276391096	-0.380875
C	 0.0474961742	 0.0729402022	 0.0443761431	 0.041038
C	-1.2175137904	-0.7614201404	 0.2871233065	-0.390424
C	 0.7839269242	-0.4237927846	-1.2131011183	-0.166871
C	 2.1651498412	 0.2107118983	-1.4375986355	-0.275792
C	 2.9478512851	-0.4410598714	-2.5658123254	 0.432392
C	 2.3957156892	-0.2891708624	-3.9674214727	-0.460615
C	 4.3859478483	-0.6946297044	-2.3873709011	-0.232512
O	 3.4388929896	-1.7580721371	-2.2573771429	-0.277967
H	 0.5925401793	 2.1945481094	-0.1248076324	 0.112154
H	-0.9491679953	 1.7752672144	-0.8860556275	 0.109212
H	-0.8297659276	 1.889108209	 0.8742041187	 0.109618
H	 0.7188201133	-0.077440573	 0.9027864852	 0.071119
H	-1.9257545327	-0.6489030537	-0.5427847854	 0.109946
H	-0.9810673984	-1.8265568177	 0.3795317012	 0.111805
H	-1.7299826221	-0.4492748956	 1.203223303	 0.107786
H	 0.9201293166	-1.5096049308	-1.1385400335	 0.109299
H	 0.142316603	-0.2503269707	-2.0879051756	 0.089615
H	 2.0688586307	 1.2825115423	-1.6509131943	 0.097878
H	 2.7515177298	 0.1219046792	-0.5154290027	 0.097643
H	 2.3323883835	 0.7682734831	-4.2467093045	 0.118307
H	 3.0357418799	-0.8025522773	-4.6890238904	 0.125035
H	 1.3912726799	-0.7168456014	-4.0435892889	 0.129276
H	 5.038595623	-0.7543357093	-3.2582649919	 0.106369
H	 4.8794028789	-0.391629357	-1.4641804549	 0.106564
35.2425	63.5445	115.6011	129.1671	192.9688	220.5773	234.6798	246.6339	324.2926	350.488	377.9033	394.3387	423.1179	459.9882	510.8309	728.2199	766.9609	814.7179	855.8875	910.163	926.1048	929.6984	937.6746	963.543	976.7418	1024.3415	1049.6744	1092.434	1127.4697	1135.8368	1147.0318	1175.6954	1194.5764	1233.9106	1279.0273	1289.9831	1328.1534	1352.1662	1371.9189	1388.7391	1400.0249	1407.0648	1420.8834	1425.8579	1468.7739	1484.269	1488.1407	1490.7534	1498.6697	1500.2134	1504.6648	1510.8373	1533.5456	2993.4675	3012.7748	3021.9719	3026.8227	3027.7689	3039.2081	3051.7793	3074.436	3075.2135	3086.124	3092.6467	3098.9627	3103.63	3104.3176	3123.8293	3158.1765
CC(C)CCC1(C)CO1	CC(C)CC[C@@]1(C)CO1	
InChI=1S/C8H16O/c1-7(2)4-5-8(3)6-9-8/h7H,4-6H2,1-3H3	InChI=1S/C8H16O/c1-7(2)4-5-8(3)6-9-8/h7H,4-6H2,1-3H3/t8-/m0/s1
