15
gdb 52572	6.81578	0.61361	0.57823	7.334	75.21	-0.2728	-0.0693	0.2035	1844.9126	0.108581	-457.769285	-457.759222	-457.758278	-457.807363	32.542	
C	-0.0596212289	 1.3297016295	 0.0828397645	-0.505072
C	 0.0939707636	-0.1135025741	 0.0546958219	 0.157299
C	 0.1998174254	-1.3161595828	 0.0424859692	-0.016733
C	 0.3585278925	-2.7487435913	 0.0072704596	 0.201774
O	-0.4762746741	-3.5317301788	 0.4008399691	-0.272447
C	 1.7102454094	-3.2230368472	-0.5398812461	-0.203049
O	 1.7189696341	-4.6055940766	-0.8276453849	-0.165851
C	 1.7103876263	-5.4547413355	 0.2292886681	 0.18668
O	 1.6582374831	-6.6367968741	 0.0906523392	-0.27009
H	 0.7715901131	 1.8318750651	-0.4220014542	 0.163535
H	-0.9910047152	 1.6276674259	-0.4102755867	 0.171927
H	-0.1007499669	 1.6915965048	 1.1158578166	 0.17071
H	 1.9397955421	-2.7032410451	-1.4730788929	 0.155983
H	 2.4886311144	-2.9481615488	 0.1877790131	 0.141834
H	 1.7895914311	-4.9351683211	 1.2015496435	 0.0835
14.0861	38.9087	64.5328	106.9482	149.809	180.7796	277.3801	296.2226	352.3086	382.8331	424.8211	559.0233	570.3717	664.4816	820.8693	958.091	992.5756	1031.5465	1042.7144	1053.5663	1078.2498	1155.3368	1215.8252	1286.7176	1378.3927	1408.996	1429.6514	1467.1703	1468.0105	1470.74	1775.2427	1877.4715	2338.4037	2972.1099	3007.9654	3034.7613	3099.8302	3104.6604	3110.2121
CC#CC(=O)COC=O	CC#CC(=O)COC=O	
InChI=1S/C6H6O3/c1-2-3-6(8)4-9-5-7/h5H,4H2,1H3	InChI=1S/C6H6O3/c1-2-3-6(8)4-9-5-7/h5H,4H2,1H3
