15
gdb 66672	4.49573	1.2114	1.15812	0.7512	77.08	-0.2193	0.0304	0.2498	1063.145	0.110389	-383.338546	-383.331139	-383.330195	-383.370012	29.97	
O	 0.2751262751	 1.3423418149	 0.2077476669	-0.4486
C	 0.1477027755	-0.0120094811	 0.0841577653	 0.392379
C	 0.9013479518	-1.0758829953	 0.8462908683	-0.144769
C	-0.3365802262	-2.0134559049	 0.7662699086	-0.140739
C	-1.1098313327	-0.9543640017	 0.010844285	-0.25324
C	-0.2664894432	-1.9792370451	-0.7693539769	 0.352497
C	-0.6727022158	-2.931831822	-1.7301135762	 0.027598
C	-1.0049456029	-3.741882752	-2.5578282922	-0.380011
C	 0.9740464207	-1.0322317755	-0.686973508	-0.279026
H	 0.1229956512	 1.7463291354	-0.6549795583	 0.292233
H	 1.7012049969	-0.9779659976	 1.5662650656	 0.10118
H	-0.6969583115	-2.810367062	 1.4030306498	 0.101565
H	-2.1764543276	-0.7866654158	-0.0564884307	 0.103825
H	-1.3008124745	-4.4577309324	-3.2835181286	 0.176186
H	 1.8355135331	-0.9118821949	-1.3291824185	 0.098921
126.3316	149.0677	288.613	332.6462	381.5442	475.9557	488.2885	496.7722	551.1078	614.3229	660.1326	674.3057	750.9534	788.6345	811.3965	839.8539	868.29	881.1267	892.3959	914.1503	963.1429	984.6961	1021.636	1079.5631	1107.9625	1119.2415	1207.7278	1223.9405	1247.3289	1306.4617	1380.5696	1472.3485	2226.5277	3198.8009	3210.4534	3214.0864	3223.8803	3503.9585	3776.8849
OC12C3C4C1C4(C#C)C23	O[C@@]12[C@H]3[C@H]4[C@@H]1[C@@]4(C#C)[C@@H]23	
InChI=1S/C8H6O/c1-2-7-3-4-6(7)8(4,9)5(3)7/h1,3-6,9H	InChI=1S/C8H6O/c1-2-7-3-4-6(7)8(4,9)5(3)7/h1,3-6,9H/t3-,4-,5+,6-,7-,8-/m0/s1
