14
gdb 129385	3.95106	1.34706	1.00653	1.1757	73.36	-0.2415	-0.0777	0.1638	1097.1843	0.103087	-429.058776	-429.051394	-429.05045	-429.090982	27.65	
N	-0.0912686315	 1.296427112	 0.2889163687	-0.5459
C	 0.0633387416	-0.0498162202	 0.0713877432	 0.284678
N	 1.1444112666	-0.7055917047	-0.1185344257	-0.49259
C	-1.2358256766	-0.8093980299	 0.1016221137	 0.406084
N	-1.197932122	-2.1487472136	 0.0630357416	-0.240757
C	-2.3798183646	-2.7387260083	 0.0800414485	-0.008046
C	-3.5583611146	-1.989114293	 0.1348287465	 0.02007
N	-3.5311240311	-0.6617451921	 0.173737441	-0.168764
N	-2.3456215623	-0.0643328822	 0.1572741561	-0.253594
H	 0.6727207376	 1.9064234237	 0.0509361574	 0.248991
H	-1.0270667104	 1.6663434657	 0.2156001947	 0.271281
H	 1.951776718	-0.078021342	-0.122810956	 0.204629
H	-2.4001361137	-3.8260675647	 0.0516610554	 0.136625
H	-4.5399531171	-2.4513656207	 0.1495605549	 0.137294
66.2497	138.2407	238.05	348.1256	382.9985	401.5686	435.0783	494.3256	528.6128	616.1547	650.0285	700.4014	813.6183	847.5578	877.5489	907.5143	1015.6565	1040.6827	1075.1628	1103.8494	1129.6388	1138.2394	1192.0335	1267.7588	1376.3225	1418.8269	1480.7225	1575.4188	1584.038	1609.5708	1715.5916	3155.2355	3193.6814	3446.4587	3576.9205	3708.2184
NC(=N)C1=NC=CN=N1	NC(=N)c1nccnn1	
InChI=1S/C4H5N5/c5-3(6)4-7-1-2-8-9-4/h1-2H,(H3,5,6)	InChI=1S/C4H5N5/c5-3(6)4-7-1-2-8-9-4/h1-2H,(H3,5,6)
