23
gdb 115410	4.5987	0.79525	0.71388	0.9015	92.47	-0.2529	0.0586	0.3115	1646.0087	0.205826	-351.147106	-351.137311	-351.136367	-351.182804	37.048	
C	-0.36839385	 1.4992625805	-0.0701337669	-0.384675
C	-0.0063264151	 0.0117655718	-0.0189356056	-0.190152
C	 0.7969503142	-0.3915392336	 1.2232978216	 0.061747
C	 0.0523359134	-0.1833465673	 2.5643208817	-0.221687
C	 0.6801538528	-1.2094100028	 3.5131778294	-0.215082
C	 0.811402747	-2.4656750108	 2.6182694388	-0.146864
C	 1.2210303123	-1.8918003246	 1.2261065268	-0.245512
C	 1.7112306016	-3.4861554628	 3.1337032177	 0.298881
C	 2.4685785911	-4.3174374231	 3.5604355939	-0.452201
H	 0.5310310468	 2.1251921962	-0.047328546	 0.113333
H	-0.9181978617	 1.7414684511	-0.984939551	 0.111499
H	-0.9947778481	 1.7902207546	 0.7793404484	 0.11812
H	-0.923685681	-0.5924457391	-0.0593608836	 0.090681
H	 0.5693869068	-0.2511425384	-0.9157429634	 0.094669
H	 1.7077178315	 0.221020756	 1.2470614757	 0.069004
H	 0.1249720876	 0.8417686928	 2.9374081165	 0.09606
H	-1.0161480916	-0.4050480938	 2.4348079347	 0.09297
H	 1.6769622444	-0.8821124821	 3.8302175269	 0.107128
H	 0.0919299011	-1.3989727515	 4.4149136548	 0.102021
H	-0.1900278146	-2.9068112133	 2.5250335979	 0.09968
H	 0.7384876861	-2.452989883	 0.420324509	 0.101319
H	 2.2993800414	-1.9953365554	 1.082766148	 0.110103
H	 3.132311384	-5.0555036311	 3.9368017847	 0.188957
17.4905	108.033	135.1594	160.4635	218.7467	238.8494	274.5629	359.6121	412.4137	505.4143	516.8246	530.8607	591.1387	619.13	623.0502	762.4681	805.1236	833.2619	872.0265	930.8197	948.2046	964.7443	999.4039	1017.0496	1040.7579	1059.5856	1068.9457	1100.0273	1153.9246	1183.577	1213.4248	1240.8713	1287.8596	1292.905	1309.7847	1318.2295	1322.1449	1334.5238	1359.7236	1375.6197	1388.2265	1412.4919	1485.7442	1491.5192	1494.0668	1500.2687	1506.0105	1508.556	2233.6737	3003.264	3008.3903	3010.6893	3018.641	3031.1124	3044.4862	3045.646	3057.4173	3089.8604	3096.9007	3100.0176	3103.394	3104.605	3505.6496
CCC1CCC(C1)C#C	CC[C@H]1CC[C@@H](C1)C#C	
InChI=1S/C9H14/c1-3-8-5-6-9(4-2)7-8/h1,8-9H,4-7H2,2H3	InChI=1S/C9H14/c1-3-8-5-6-9(4-2)7-8/h1,8-9H,4-7H2,2H3/t8-,9-/m0/s1
