19
gdb 41414	3.31394	1.84768	1.50662	1.6203	77.31	-0.2243	0.0907	0.315	919.7441	0.162208	-385.837987	-385.831553	-385.830609	-385.868386	27.57	
C	-0.04664924	 1.4702595243	 0.0356017004	-0.237686
C	 1.5108459441	 1.5740417185	-0.0610789258	-0.33706
C	 1.5567788815	 0.0807531769	-0.398068158	 0.318607
C	 2.4663968183	-1.0400306747	 0.0589408253	-0.167181
O	 1.7722853678	-2.2078504667	-0.425472195	-0.278308
C	 0.9448864047	-1.7876631035	-1.4977990124	 0.109249
C	-0.218807106	-0.8263249445	-1.2485981233	-0.11429
C	 1.1309613461	-0.3580029165	-1.8259160593	-0.177611
C	 0.0535982631	-0.091086011	 0.04458565	-0.049382
H	-0.4873343948	 1.9128314072	 0.9309639287	 0.101455
H	-0.569614675	 1.8650770588	-0.8385301865	 0.104496
H	 1.9353220479	 2.2670496053	-0.7927630464	 0.097754
H	 1.9598407733	 1.7850460896	 0.9146838971	 0.104089
H	 3.4795426495	-0.9897085319	-0.3706432265	 0.088761
H	 2.5459841145	-1.1217672671	 1.1480124136	 0.104871
H	 0.8242996439	-2.544076178	-2.2638945464	 0.102166
H	-1.1676021467	-0.942217735	-1.7648080319	 0.078515
H	 1.4112889571	 0.0800749259	-2.77548348	 0.084752
H	-0.2033715193	-0.5715906175	 0.9924207064	 0.066804
188.2509	246.2642	307.1763	374.5318	461.0454	526.2246	665.4164	678.0266	729.2299	763.8896	776.9477	794.198	842.9478	883.7963	910.4615	922.1355	945.0415	958.2577	990.1643	1023.0831	1038.8027	1062.637	1071.1871	1107.1573	1119.5513	1125.5739	1158.1744	1182.5987	1202.9882	1227.3418	1231.6705	1251.947	1274.5962	1290.1322	1304.1451	1341.4697	1364.6033	1399.8237	1475.1816	1492.9221	1513.4147	2976.7163	3047.1318	3065.8934	3069.5832	3072.5383	3094.0483	3123.7457	3147.4472	3184.2868	3196.6809
C1CC23COC4C(C24)C13	C1C[C@]23CO[C@H]4[C@H]([C@@H]24)[C@H]13	
InChI=1S/C8H10O/c1-2-8-3-9-7-5(4(1)8)6(7)8/h4-7H,1-3H2	InChI=1S/C8H10O/c1-2-8-3-9-7-5(4(1)8)6(7)8/h4-7H,1-3H2/t4-,5-,6+,7-,8+/m0/s1
