12
gdb 43600	3.41795	1.40531	1.1315	4.9809	58.9	-0.2924	-0.0414	0.251	1000.3959	0.07768	-472.633667	-472.626713	-472.625768	-472.665559	25.216	
O	-0.0401224606	 0.0586199008	 0.2893818411	-0.311591
C	 0.0025828386	 1.2166974082	 0.0175636399	 0.475411
O	-1.1224726491	 1.9462563012	-0.2915098826	-0.232429
C	-0.7916845535	 3.2435540663	-0.8105648883	-0.048059
C	-1.6024156833	 4.271290601	-0.1489191172	 0.297771
N	-2.2281937598	 5.1105002326	 0.3368111148	-0.297479
C	 0.7081360029	 3.4175649678	-0.5761278089	 0.010567
O	 1.0440502525	 3.2683830358	 0.7907724439	-0.216965
C	 1.1978462151	 2.1310687325	-0.0777113719	-0.126841
H	-1.0137022543	 3.2537230433	-1.8845416104	 0.155354
H	 1.2850633665	 4.1196055548	-1.1682038672	 0.144939
H	 2.1955497449	 1.7299216958	-0.2067981531	 0.149324
95.2999	133.1688	205.1824	295.0651	377.6002	446.2324	510.3666	568.2478	644.5093	746.9384	810.4674	835.6877	879.0866	896.0301	919.0129	1010.8588	1027.8186	1075.7726	1093.8228	1174.2798	1240.0325	1302.0664	1316.0127	1351.9548	1415.6895	1908.9575	2375.2473	3048.1514	3185.1737	3208.749
O=C1OC(C#N)C2OC12	O=C1O[C@@H](C#N)[C@H]2O[C@@H]12	
InChI=1S/C5H3NO3/c6-1-2-3-4(9-3)5(7)8-2/h2-4H	InChI=1S/C5H3NO3/c6-1-2-3-4(9-3)5(7)8-2/h2-4H/t2-,3+,4+/m0/s1
