19
gdb 69586	3.4977	1.30542	1.18536	1.2501	81.95	-0.2183	0.0184	0.2367	1109.222	0.159388	-385.867495	-385.859604	-385.85866	-385.899365	32.247	
O	-0.0645757597	 1.4237268589	 0.0772662253	-0.468856
C	 0.0006032196	 0.029377629	 0.0608721457	 0.362999
C	-0.3829395805	-0.7355858323	-1.1879413992	-0.348873
C	-1.2610723675	-0.8090267266	 0.049866771	-0.190821
C	-1.0371466796	-1.9482496606	 1.0160253756	 0.359663
C	-2.1382302803	-2.449933033	 1.9285905289	-0.31983
C	-1.6467661226	-3.321163982	 0.8063779097	-0.308185
C	 0.3614148959	-1.7786637934	 1.503583308	-0.145726
C	 0.9294334423	-0.6795160552	 0.9983744958	-0.180709
H	 0.593479183	 1.7592449893	-0.5406014511	 0.282254
H	-0.7844857208	-0.1455681968	-2.0061595223	 0.10754
H	 0.2045196653	-1.600216985	-1.4796539467	 0.110469
H	-2.2300142037	-0.3258703446	 0.0048534012	 0.094304
H	-1.8740867491	-2.7165796372	 2.9464051997	 0.113574
H	-3.1140981126	-1.9859917242	 1.8272452183	 0.116006
H	-2.2850330644	-3.4569702465	-0.0601153795	 0.116577
H	-1.0420428328	-4.1869553198	 1.0555943214	 0.111782
H	 0.8383799313	-2.498756975	 2.1596130394	 0.095788
H	 1.9348247463	-0.3277339252	 1.1988898789	 0.092044
117.3556	211.7348	236.544	261.507	336.4331	357.8587	390.0793	434.5873	531.2093	601.381	634.7754	750.0342	775.7054	784.3997	788.2145	875.1474	889.4322	920.1879	930.2126	951.2485	956.703	967.2234	999.1481	1028.6728	1055.8074	1061.3414	1065.8955	1077.5886	1116.9447	1191.8649	1219.5245	1237.5806	1283.9864	1311.6472	1352.5119	1359.5428	1418.7626	1467.0714	1470.974	1498.856	1654.9378	3119.0001	3126.0852	3129.9839	3181.0588	3182.5257	3205.8017	3208.0424	3213.2356	3221.3676	3801.6719
OC12CC1C1(CC1)C=C2	O[C@]12C[C@H]1C1(CC1)C=C2	
InChI=1S/C8H10O/c9-8-4-3-7(1-2-7)6(8)5-8/h3-4,6,9H,1-2,5H2	InChI=1S/C8H10O/c9-8-4-3-7(1-2-7)6(8)5-8/h3-4,6,9H,1-2,5H2/t6-,8+/m0/s1
