19
gdb 95927	2.1032	1.52217	1.22233	3.9671	75.15	-0.2696	0.0245	0.294	1116.8257	0.161174	-419.229224	-419.22038	-419.219435	-419.262969	33.761	
N	-0.2133847256	 1.4368998277	 0.2052698376	-0.554077
C	-0.0100880405	-0.0033028355	-0.0068209699	 0.11256
C	 0.7143601313	-0.6362145561	 1.2214337842	-0.247807
C	-0.1753839793	-1.807745838	 1.6796823432	-0.214757
C	-1.590442131	-1.3259968154	 1.3496210783	-0.246097
C	-1.4382558948	-0.6986239616	-0.0452177478	 0.128807
O	-2.4643640643	 0.1774582819	-0.4294929121	-0.433695
C	 0.728869029	-0.2721459046	-1.2533994254	 0.23566
N	 1.3049461275	-0.4601994695	-2.2391030894	-0.350681
H	 0.6722320114	 1.8833405834	 0.4253826077	 0.244089
H	-0.5511078986	 1.8609813567	-0.6548442159	 0.250191
H	 1.7391636282	-0.9346164045	 0.9929902028	 0.122646
H	 0.7524488436	 0.1286253556	 2.0035651948	 0.115575
H	 0.0595878975	-2.7118749378	 1.1060529983	 0.11549
H	-0.0308300782	-2.047517014	 2.7358018742	 0.108549
H	-2.3474619585	-2.1134420307	 1.3617686	 0.110694
H	-1.9030356773	-0.5493401193	 2.0597370244	 0.103064
H	-1.4212881105	-1.4875621959	-0.8026632792	 0.113705
H	-2.4375181298	 0.9167204478	 0.1919140441	 0.28608
41.363	150.4952	181.3103	224.0656	238.7115	306.8264	367.837	398.4295	471.9276	517.8075	547.8671	553.8892	589.3957	630.0236	711.5793	829.127	866.9433	894.929	927.8199	952.4655	995.1076	1027.496	1037.9943	1077.7542	1126.2436	1160.904	1187.5194	1208.9125	1265.3648	1290.4603	1303.5286	1323.592	1348.7135	1354.0205	1366.3867	1444.4029	1479.041	1490.0783	1506.229	1646.38	2337.2757	3031.3791	3045.0361	3055.9375	3074.2477	3101.8889	3109.203	3118.876	3490.6312	3571.1759	3768.7256
NC1(CCCC1O)C#N	N[C@]1(CCC[C@H]1O)C#N	
InChI=1S/C6H10N2O/c7-4-6(8)3-1-2-5(6)9/h5,9H,1-3,8H2	InChI=1S/C6H10N2O/c7-4-6(8)3-1-2-5(6)9/h5,9H,1-3,8H2/t5-,6-/m1/s1
