13
gdb 131741	2.0398	1.80698	1.00772	5.1999	66.19	-0.2828	-0.0507	0.2321	1088.292	0.091294	-448.933062	-448.925205	-448.924261	-448.966893	27.404	
O	 0.1483209986	 1.2583968246	-0.5492202924	-0.400199
C	 0.0056280216	 0.0381122816	 0.1563658399	-0.187767
C	-1.3881079899	-0.5088266157	 0.0732641814	 0.202179
N	-2.1230391227	-0.7741383825	 1.1516200023	-0.241093
N	-3.2723202108	-1.2111482776	 0.648143565	-0.077834
N	-3.3739025078	-1.2533608969	-0.6646660002	-0.25232
C	-2.175898397	-0.8062649566	-1.0672320098	 0.173755
C	-1.8360161898	-0.6869049438	-2.4404132363	 0.253007
N	-1.5341263854	-0.590293396	-3.5526561447	-0.333835
H	-0.4157578376	 1.9155126603	-0.1275661664	 0.291712
H	 0.7080148993	-0.6556948856	-0.3164218073	 0.14074
H	 0.2812932668	 0.1245160354	 1.2156607289	 0.123708
H	-4.0364939853	-1.4946819773	 1.2422009795	 0.307949
25.9035	122.9186	176.8927	190.5984	295.9514	365.5875	424.6251	531.2496	563.1359	571.8864	607.4745	713.7012	726.7536	804.7818	968.6501	1006.6608	1070.7195	1161.6698	1203.3381	1205.3139	1267.5376	1343.0448	1381.6004	1417.3921	1446.5532	1494.5369	1501.1705	1544.8005	2364.0609	3023.9278	3084.8974	3655.3645	3810.9087
OCC1=NNN=C1C#N	OCc1n[nH]nc1C#N	
InChI=1S/C4H4N4O/c5-1-3-4(2-9)7-8-6-3/h9H,2H2,(H,6,7,8)	InChI=1S/C4H4N4O/c5-1-3-4(2-9)7-8-6-3/h9H,2H2,(H,6,7,8)
