23
gdb 89560	5.06759	0.80279	0.80149	1.5708	86.31	-0.2539	0.0793	0.3332	1548.3809	0.205244	-388.274151	-388.264844	-388.2639	-388.308181	36.39	
C	-0.1024808305	 1.6314109584	 0.4972294551	-0.408621
C	 0.0125194399	 0.1529830643	 0.1616532626	 0.064405
C	 0.9464195601	-0.2892426342	-1.0012243856	-0.313015
C	 1.3816294618	-1.5057584454	-0.1535284325	 0.381151
C	 0.8339153986	-0.7732449804	 1.1026784614	-0.29379
C	 0.7930470512	-2.9170985689	-0.4347382823	-0.328291
C	 2.1240330334	-3.5167296677	 0.0910584646	 0.178481
O	 2.6566756576	-4.6788574963	-0.4916299677	-0.435226
C	 2.7939570911	-2.1379795837	-0.1493951944	-0.352573
H	 0.8873434391	 2.076810517	 0.6511991757	 0.109439
H	-0.5950738083	 2.1864757931	-0.3092449728	 0.112866
H	-0.6841901991	 1.7896135064	 1.4125516868	 0.113014
H	-0.9862318534	-0.271725549	 0.0099943112	 0.071147
H	 0.495023108	-0.4901931472	-1.9778357141	 0.088737
H	 1.7719153261	 0.4193208468	-1.138225979	 0.092931
H	 1.6249188516	-0.214546675	 1.6163913342	 0.09233
H	 0.2892549574	-1.365975544	 1.8438153211	 0.093132
H	-0.1395679063	-3.2057157571	 0.0579999982	 0.098144
H	 0.6918886143	-3.0948207009	-1.5127366115	 0.085114
H	 2.0567309306	-3.7334742952	 1.1611932222	 0.093895
H	 2.7377708136	-4.5239672465	-1.4387726261	 0.274132
H	 3.247669017	-2.0981917778	-1.148000457	 0.086611
H	 3.5227103658	-1.7761071568	 0.58141778	 0.095988
66.2331	76.5567	222.2115	250.679	259.8288	270.0729	311.4355	352.5489	399.9778	443.2928	452.5414	473.9224	649.2126	729.9359	803.5342	839.6227	849.8643	874.1682	897.4772	922.7077	948.8243	954.3396	985.7974	1036.6428	1067.5651	1077.8144	1087.0117	1113.9778	1135.3329	1194.1449	1200.5757	1212.28	1230.726	1235.9595	1251.2165	1269.3776	1284.2994	1289.9044	1309.2337	1336.8618	1375.6995	1409.8487	1436.2607	1464.1469	1471.9716	1489.9171	1494.0986	1496.6283	1500.5511	3020.5066	3023.2398	3028.4024	3029.5831	3034.2499	3038.3648	3067.3821	3083.4191	3084.8821	3088.4729	3090.4971	3093.9787	3097.2277	3804.5658
CC1CC2(C1)CC(O)C2	C[C@H]1C[C@@]2(C1)C[C@@H](O)C2	
InChI=1S/C8H14O/c1-6-2-8(3-6)4-7(9)5-8/h6-7,9H,2-5H2,1H3	InChI=1S/C8H14O/c1-6-2-8(3-6)4-7(9)5-8/h6-7,9H,2-5H2,1H3/t6-,7-,8-/m0/s1
