17
gdb 68576	2.36917	1.90285	1.50316	2.1164	73.01	-0.2358	-0.0195	0.2163	951.0792	0.135627	-421.832712	-421.82501	-421.824066	-421.864587	29.982	
C	 0.0343582262	 1.5652096084	 0.0535753163	-0.472673
C	-0.0104983152	 0.0595853581	-0.0095677522	 0.264258
C	 0.6866231645	-0.5758589296	-1.2311015744	-0.292868
C	 0.6636838926	-2.0834008892	-1.0960553142	-0.072038
C	 0.1008313302	-2.6470863494	-0.0251240116	-0.056175
C	-0.4388945888	-1.6993065308	 1.0254667129	-0.08426
O	 0.5033510323	-0.6000731938	 1.1980768587	-0.32531
C	-1.3349904968	-0.6872442581	 0.2858135762	 0.396054
O	-2.4973179423	-0.4694182742	 0.1415836962	-0.312669
H	 1.0703959345	 1.9191194064	 0.0413166802	 0.13069
H	-0.4845311994	 1.9900967048	-0.8111650641	 0.135175
H	-0.449564071	 1.9283031836	 0.9631592448	 0.136634
H	 0.1701748622	-0.2657887338	-2.1496218017	 0.123445
H	 1.716546985	-0.2009746378	-1.3124775062	 0.118054
H	 1.1118667658	-2.6782573969	-1.8862674028	 0.105226
H	 0.0151599683	-3.7195212698	 0.1078742384	 0.10595
H	-0.7489210481	-2.1524142981	 1.9674392534	 0.100506
133.5288	159.5296	201.8932	241.9888	309.2546	373.8401	465.9561	470.6912	542.8789	599.07	662.9211	707.7115	767.3326	827.6306	876.2388	898.746	922.3561	943.0078	963.5537	981.9944	993.8455	1036.8173	1111.3704	1142.7832	1188.8077	1201.3134	1227.429	1263.1338	1302.5288	1364.1313	1385.086	1406.5552	1464.7798	1478.6022	1489.8671	1688.4514	1914.026	3007.4932	3040.6803	3042.2282	3112.371	3118.8687	3130.0942	3171.3159	3200.7597
CC12CC=CC(O1)C2=O	C[C@@]12CC=C[C@@H](O1)C2=O	
InChI=1S/C7H8O2/c1-7-4-2-3-5(9-7)6(7)8/h2-3,5H,4H2,1H3	InChI=1S/C7H8O2/c1-7-4-2-3-5(9-7)6(7)8/h2-3,5H,4H2,1H3/t5-,7+/m1/s1
