15
gdb 56468	2.77488	1.11681	0.82396	2.2715	68.66	-0.2685	-0.0507	0.2177	1318.7241	0.110964	-454.008257	-453.99887	-453.997926	-454.043924	31.899	
C	-1.0997997027	 1.4894846841	-0.5117323559	-0.388315
C	 0.042060597	 0.5374144853	-0.1017733337	-0.283966
C	-0.456470205	-0.6750463977	 0.5431874585	 0.283475
N	-0.8216214669	-1.6649439699	 1.0174826836	-0.325814
C	 0.9718303576	 0.2575370812	-1.3222645746	 0.467599
O	 1.3137370794	 1.1672875782	-2.0289831696	-0.301999
N	 1.3643610278	-1.0649921985	-1.4799374218	-0.38086
C	 2.2261317754	-1.5779173007	-2.4570019321	 0.164584
O	 2.7839802332	-0.9511677078	-3.3105271569	-0.238983
H	-0.663930753	 2.3465890802	-1.0257636139	 0.165542
H	-1.7979536022	 0.989636767	-1.1873863016	 0.146047
H	-1.6478308347	 1.8283388219	 0.3694691015	 0.141078
H	 0.6850536159	 1.0541731833	 0.6227209278	 0.169177
H	 0.9774713709	-1.7411825518	-0.8342415403	 0.280936
H	 2.3275289174	-2.6737855348	-2.329893651	 0.101498
28.6584	66.7625	129.2866	191.3936	209.2972	220.3984	248.2064	299.5574	353.1557	482.8906	533.5041	577.4297	641.1169	676.2909	776.8583	868.7208	941.992	1010.4977	1028.5899	1074.0219	1111.4843	1129.6355	1195.0908	1268.3789	1314.6837	1405.6311	1444.1998	1494.134	1499.0656	1524.1535	1811.5603	1876.7096	2346.9637	2942.9115	3038.1968	3063.5715	3140.6418	3162.0353	3579.7377
CC(C#N)C(=O)NC=O	C[C@@H](C#N)C(=O)NC=O	
InChI=1S/C5H6N2O2/c1-4(2-6)5(9)7-3-8/h3-4H,1H3,(H,7,8,9)	InChI=1S/C5H6N2O2/c1-4(2-6)5(9)7-3-8/h3-4H,1H3,(H,7,8,9)/t4-/m0/s1
