16
gdb 28082	4.89446	0.80957	0.75575	3.8038	73.42	-0.1915	-0.0098	0.1817	1454.169	0.123455	-437.926256	-437.917394	-437.91645	-437.961303	31.779	
O	 0.0784452955	 1.366940734	 0.1747065133	-0.432398
C	 0.0575427414	 0.0222476646	-0.0003510372	 0.401168
C	 0.0792162107	-0.790623392	-1.1082104414	-0.405392
C	 0.0180455846	-2.1411874239	-0.6278855928	 0.263154
C	 0.0709746288	-3.3900801409	-1.4622183633	-0.386219
C	 1.5025706026	-3.8832489367	-1.6064582638	 0.167074
O	 1.8690605819	-5.0074396179	-1.3815052379	-0.243757
C	-0.0288444709	-2.0882757884	 0.744210323	-0.179812
N	-0.0066763355	-0.7566525113	 1.1159683386	-0.291135
H	 0.1298067464	 1.784846374	-0.6899827034	 0.309577
H	 0.1202155295	-0.4699668577	-2.1381993435	 0.088231
H	-0.5260267216	-4.2019473447	-1.0378569796	 0.122155
H	-0.3123823769	-3.1827336706	-2.4707008036	 0.119415
H	 2.2195439062	-3.0942211782	-1.9307807102	 0.073586
H	-0.078774678	-2.8713950627	 1.4824694024	 0.125724
H	-0.0511417246	-0.3958964776	 2.0530584093	 0.268628
26.4482	58.0678	137.2359	228.6133	253.0414	273.3433	366.253	435.4084	448.1682	471.9579	617.0127	643.2492	679.6257	691.8545	732.8283	750.0722	815.1398	981.0398	1009.2668	1017.7591	1058.1756	1120.2971	1161.3977	1185.8226	1193.2465	1277.6996	1302.9392	1343.3662	1420.8865	1423.2202	1456.1601	1537.0135	1570.6001	1636.4544	1830.4909	2869.3789	3021.3566	3098.7911	3240.0537	3272.0658	3684.3952	3850.24
OC1=CC(CC=O)=CN1	Oc1cc(CC=O)c[nH]1	
InChI=1S/C6H7NO2/c8-2-1-5-3-6(9)7-4-5/h2-4,7,9H,1H2	InChI=1S/C6H7NO2/c8-2-1-5-3-6(9)7-4-5/h2-4,7,9H,1H2
