15
gdb 61367	4.17561	0.79913	0.77653	2.3653	69.62	-0.2667	-0.1041	0.1626	1443.7707	0.110221	-453.978617	-453.969057	-453.968113	-454.014444	31.888	
C	-0.0452253729	 1.4166041205	 0.13696832	-0.359636
N	 0.0208785019	-0.0312887126	-0.0103376752	-0.023109
C	-0.0715589603	-0.8537108788	 1.1580852926	-0.305248
C	-1.4750320016	-0.9078744365	 1.764612757	 0.294463
O	-2.4510040441	-0.3901745896	 1.2931193381	-0.243275
C	-1.5479012554	-1.6754141375	 3.0269338656	 0.225582
N	-1.570213065	-2.285789366	 4.0087809946	-0.28162
C	 0.1286577468	-0.5920899007	-1.2572218298	 0.162524
O	 0.1927968426	 0.0224528411	-2.295542065	-0.322608
H	 0.7420573256	 1.7673897952	 0.8142363261	 0.127231
H	 0.1046613631	 1.8502530425	-0.8513995786	 0.177492
H	-1.0196120238	 1.7271207779	 0.5248716613	 0.150703
H	 0.2192819461	-1.8855135955	 0.9198361875	 0.165014
H	 0.6209382594	-0.5202313385	 1.9457567745	 0.154248
H	 0.1634274076	-1.6986461514	-1.2059391386	 0.078239
41.8418	55.9019	112.5691	139.3291	170.4294	264.556	279.2067	317.5186	347.1903	383.7144	438.2787	570.9105	592.5089	717.1225	830.4469	880.0134	971.6837	1025.6275	1059.5775	1109.8429	1157.1337	1224.0754	1292.2805	1378.5574	1417.444	1433.3105	1444.9565	1456.6936	1496.6332	1520.1051	1809.8907	1816.4404	2336.8079	2934.4305	3003.0315	3033.8873	3053.4648	3099.9465	3164.1632
CN(CC(=O)C#N)C=O	CN(CC(=O)C#N)C=O	
InChI=1S/C5H6N2O2/c1-7(4-8)3-5(9)2-6/h4H,3H2,1H3	InChI=1S/C5H6N2O2/c1-7(4-8)3-5(9)2-6/h4H,3H2,1H3
