21
gdb 105532	2.36187	1.39082	1.06444	1.7483	77.49	-0.249	0.0747	0.3237	1219.4411	0.181777	-424.177607	-424.168402	-424.167458	-424.212056	34.005	
C	 0.3164749932	 1.4361186139	-0.1097037849	-0.40963
C	-0.0097438076	-0.0566465142	-0.000894933	-0.26135
C	-1.4942393535	-0.4433590928	 0.0665777602	 0.263991
C	-2.4155164222	 0.254794229	 1.1053672679	-0.110798
O	-3.388911579	 0.5641156062	 0.0884689816	-0.279291
C	-2.4756514297	 0.1694458391	-0.9588196155	-0.133489
C	-1.6060502695	-1.9551118876	 0.1656599842	 0.042076
C	-2.8160330235	-2.7167631991	-0.1595338944	-0.197924
O	-1.6957083495	-2.6974098994	-1.0526076722	-0.244166
H	 1.4009458139	 1.5811404459	-0.1265372673	 0.119194
H	-0.085300231	 1.8798272623	-1.0252331979	 0.124945
H	-0.0762526177	 2.0075296871	 0.7370348087	 0.122058
H	 0.434032344	-0.5868539925	-0.8536745731	 0.118002
H	 0.4852294887	-0.4646832952	 0.8911844051	 0.099328
H	-2.8294153206	-0.3815477398	 1.8966469734	 0.100099
H	-1.9979440521	 1.1625628345	 1.5593775412	 0.096508
H	-2.0835893413	 1.0386611148	-1.5004564059	 0.097889
H	-2.9242617023	-0.5209343627	-1.6792263	 0.117571
H	-0.9255317245	-2.3982960117	 0.8969652632	 0.088615
H	-2.9973099743	-3.6694255849	 0.3357176599	 0.115622
H	-3.7068655616	-2.1968574029	-0.5051005113	 0.130749
68.6156	86.5904	103.8103	190.7579	222.1476	269.7242	305.2721	340.8227	390.5219	463.2624	547.5559	620.2226	770.0443	799.4837	863.4307	870.6011	933.253	947.8771	950.1293	999.1807	1012.2713	1031.5832	1042.0796	1064.9173	1103.8513	1150.5859	1156.6972	1163.8473	1174.8566	1184.1125	1223.1277	1256.1876	1296.4905	1305.4683	1330.5699	1362.1905	1391.1545	1416.9604	1437.8758	1482.8177	1496.0532	1504.6422	1519.5709	1537.2051	1546.5917	3009.8788	3011.774	3028.9351	3043.4071	3046.2858	3057.5145	3076.4102	3083.4225	3094.3907	3107.838	3113.4459	3182.5815
CCC1(COC1)C1CO1	CCC1(COC1)[C@H]1CO1	
InChI=1S/C7H12O2/c1-2-7(4-8-5-7)6-3-9-6/h6H,2-5H2,1H3	InChI=1S/C7H12O2/c1-2-7(4-8-5-7)6-3-9-6/h6H,2-5H2,1H3/t6-/m1/s1
