18
gdb 123488	3.7476	1.12291	1.0859	3.4489	77.52	-0.2206	0.0143	0.235	1176.9194	0.150438	-398.112432	-398.104611	-398.103666	-398.145541	29.554	
C	-0.2564651544	 1.7198857794	-0.6677123452	-0.233783
N	-0.8517180403	 0.4217354366	-0.3062888095	-0.07762
C	 0.0039499037	-0.7504886024	-0.1672100645	-0.226736
C	-0.6161155153	-0.1124804076	 1.0288250564	-0.219513
C	 1.1507692682	 2.0075671234	-0.218652141	 0.301921
N	 1.3901208701	 2.5355177413	 0.9853684234	-0.277278
N	 2.7299553183	 2.6394674867	 1.0523906115	-0.176985
C	 3.3562938636	 2.202682644	-0.0662521313	-0.023199
C	 2.3611647575	 1.7805063034	-0.9203274652	-0.272057
H	-0.2991125635	 1.7913103291	-1.7601057261	 0.106848
H	-0.9187541943	 2.4910372953	-0.2621780163	 0.122037
H	-0.4002000218	-1.6722579709	-0.5775857333	 0.108198
H	 1.0786651634	-0.6297673393	-0.2842627852	 0.11228
H	 0.0455535549	 0.4386658504	 1.6927115042	 0.128682
H	-1.482627293	-0.5615657821	 1.5074278426	 0.108087
H	 3.1471165244	 3.0310514127	 1.8797465264	 0.276414
H	 4.4299358614	 2.23293534	-0.1645846229	 0.135539
H	 2.4820807871	 1.3737337497	-1.9114775839	 0.107165
53.4086	114.6636	119.8428	296.121	316.1957	367.7356	453.8098	525.5984	651.7626	683.0131	746.7264	768.9996	806.2242	835.6827	852.1042	876.2749	946.1202	964.1921	992.1828	1026.6234	1052.5845	1071.4849	1111.1951	1118.2331	1126.4764	1172.5847	1187.878	1210.9562	1270.565	1305.7207	1314.1738	1372.3951	1404.6054	1465.4186	1476.8381	1487.9228	1491.1374	1519.7901	1566.0959	3042.2436	3089.03	3100.0334	3103.945	3179.158	3193.8813	3255.5136	3274.1515	3673.2714
C(N1CC1)C1=NNC=C1	C(N1CC1)c1n[nH]cc1	
InChI=1S/C6H9N3/c1-2-7-8-6(1)5-9-3-4-9/h1-2H,3-5H2,(H,7,8)	InChI=1S/C6H9N3/c1-2-7-8-6(1)5-9-3-4-9/h1-2H,3-5H2,(H,7,8)
