18
gdb 127966	2.37081	1.48383	0.92877	1.743	79.54	-0.1961	0.0143	0.2103	1272.2182	0.146041	-435.284162	-435.274178	-435.273234	-435.320465	33.586	
C	 0.0971918478	 1.4386793368	-0.0351422982	-0.32526
N	 0.0402806665	-0.0107779636	-0.0023859043	-0.392895
C	 0.5653036879	-0.6296134074	 0.9616880712	 0.498902
O	 1.2148803541	-0.0911722692	 2.0744644879	-0.241481
C	 1.5695768414	-1.1576695812	 2.8575503587	 0.396459
C	 2.27363835	-0.8925092952	 4.133043145	-0.489039
N	 1.2384051776	-2.2944298253	 2.3639694578	-0.283935
N	 0.6304295012	-1.9886447767	 1.1629051368	-0.087122
C	 0.0205513087	-3.0005659891	 0.3398905749	-0.32856
H	 0.9814393058	 1.7866251515	-0.5873562447	 0.116419
H	-0.7816307021	 1.8194387216	-0.5646019547	 0.119166
H	 0.1255655743	 1.9014245656	 0.9605130937	 0.112272
H	 1.6651820283	-0.2616722467	 4.789447053	 0.150304
H	 2.4780242313	-1.8399358435	 4.6327864206	 0.159083
H	 3.2183014153	-0.3680296803	 3.9546681936	 0.150637
H	 0.7396262186	-3.7951184895	 0.122422657	 0.140148
H	-0.858406962	-3.4384945984	 0.8268206487	 0.134376
H	-0.2861036948	-2.5152184595	-0.5875816171	 0.170525
41.6419	50.3621	100.5627	151.2494	176.4121	186.2347	205.9201	259.5392	297.3329	354.9965	567.2255	633.7529	645.1573	648.2893	713.4841	827.102	953.5929	1009.2423	1039.6683	1067.6479	1081.7339	1090.0485	1131.4592	1157.9188	1176.5655	1284.4542	1338.9177	1416.9289	1428.364	1445.2209	1451.3228	1470.4185	1481.8958	1485.8234	1493.5401	1504.0947	1516.4112	1699.4061	1817.7373	2994.5716	3031.3401	3042.9351	3043.7783	3084.9966	3096.5999	3097.5869	3155.384	3155.5909
CN=C1OC(C)=NN1C	CN=c1oc(C)nn1C	
InChI=1S/C5H9N3O/c1-4-7-8(3)5(6-2)9-4/h1-3H3	InChI=1S/C5H9N3O/c1-4-7-8(3)5(6-2)9-4/h1-3H3
