20
gdb 79409	2.22673	1.69838	1.54282	1.6296	79.33	-0.2149	0.0786	0.2935	1030.8765	0.167923	-403.044267	-403.035268	-403.034324	-403.077254	34.502	
C	-0.6480928523	 1.4152213908	-0.432303388	-0.335074
N	-0.4278309364	 0.0045514003	-0.1330384892	-0.139743
C	-1.2349225406	-0.5861941141	 0.9714017309	-0.126201
C	-0.1332119045	-1.6347775944	 1.2662073088	 0.037841
O	-0.0985600811	-1.405841232	 2.6965498224	-0.359285
C	-0.3246436771	-0.0635529419	 2.1547556437	 0.40926
C	-0.447901838	 1.043164855	 3.1561037884	-0.533151
C	 0.616513618	-0.3215474277	 0.8900742215	 0.264416
C	 2.0840873053	-0.0756439096	 0.7272009322	-0.541282
H	 0.1526004249	 1.7735870994	-1.0875729229	 0.121673
H	-1.5914780344	 1.5213855785	-0.9780756861	 0.121863
H	-0.6891268173	 2.0784769521	 0.4471598883	 0.096232
H	-2.3177408794	-0.7146796626	 0.9306972604	 0.082941
H	-0.0089207572	-2.6446138232	 0.879107648	 0.097507
H	 0.4745850319	 1.1256715499	 3.7403465305	 0.135219
H	-0.6410210863	 2.0036600728	 2.6735566191	 0.13326
H	-1.269901328	 0.8301171122	 3.8474078128	 0.138027
H	 2.6216598022	-0.4838588686	 1.5889095851	 0.138699
H	 2.4599495428	-0.5596854801	-0.1798923917	 0.133657
H	 2.3074379875	 0.9946260133	 0.6608891559	 0.124141
148.7639	169.6692	176.3024	196.5587	209.8548	220.176	276.0953	317.4876	394.4593	537.0167	556.9002	646.4372	679.2775	742.9125	750.0925	780.698	809.6603	824.4491	897.5966	937.4404	963.6416	1034.1847	1098.3613	1103.5714	1105.7714	1133.0875	1149.8204	1157.6486	1185.4298	1195.3121	1260.4023	1270.6401	1318.5638	1372.2437	1401.5334	1415.7992	1448.9835	1471.9244	1480.1169	1484.7087	1490.5128	1496.2515	1498.7916	2974.8512	3032.1666	3039.0036	3063.1139	3096.8847	3099.5785	3104.4757	3107.31	3111.3145	3130.8642	3140.9486
CN1C2C3OC2(C)C13C	CN1[C@H]2[C@@H]3O[C@@]2(C)[C@]13C	
InChI=1S/C7H11NO/c1-6-5-4(8(6)3)7(6,2)9-5/h4-5H,1-3H3	InChI=1S/C7H11NO/c1-6-5-4(8(6)3)7(6,2)9-5/h4-5H,1-3H3/t4-,5-,6+,7+/m0/s1
