17
gdb 55375	3.23407	1.3343	1.19974	5.7819	67.73	-0.2374	0.0266	0.264	1062.3189	0.138826	-455.153819	-455.146343	-455.145398	-455.186209	28.771	
O	-0.2092974557	-0.0306062545	 0.2595029192	-0.358832
C	-0.0549113216	 1.2674185109	-0.0158387555	 0.434294
O	 1.0130329844	 1.7914963888	-0.1904882625	-0.354558
C	-1.3787443922	 2.0509179892	-0.0486953486	-0.137633
N	-2.5303379438	 1.1435542605	-0.2094504667	-0.335561
H	-2.7452310668	 0.9663193483	-1.1826005209	 0.238455
H	-1.1788302111	-0.1555202619	 0.3511126691	 0.309095
C	-3.6932462571	 1.6653386044	 0.537258961	-0.164636
C	-3.0669021871	 2.4847050744	 1.6457776759	-0.037622
N	-1.9906799377	 1.7614028052	 2.3499609614	-0.328405
C	-1.652242706	 2.730080589	 1.2870187923	-0.032394
H	-1.2889033674	 2.8196442613	-0.82686823	 0.097279
H	-4.3347817937	 2.3202113467	-0.0712321702	 0.099497
H	-4.3036191823	 0.8351698429	 0.9087989182	 0.119896
H	-3.6675334188	 3.2143332307	 2.1771616055	 0.099566
H	-1.826540165	 2.1906491837	 3.2569830827	 0.240507
H	-1.119591298	 3.6410108905	 1.5300047892	 0.111052
69.927	134.2052	185.7692	298.853	352.5204	401.9	460.4905	594.6109	655.5078	663.1729	734.8748	801.3659	817.9637	851.2133	873.7485	905.2151	916.0097	948.8457	983.3455	1020.7656	1032.9126	1091.4707	1100.3677	1142.9201	1163.4982	1219.6645	1239.5365	1255.0576	1284.542	1308.1259	1339.274	1368.1768	1422.4592	1433.5758	1446.8007	1511.4916	1869.7841	2993.4437	3027.9619	3064.0479	3177.3313	3198.1862	3502.9354	3509.776	3563.9536
[O-]C(=O)C1[NH2+]CC2NC12	OC(=O)[C@H]1NC[C@H]2N[C@@H]12	
InChI=1S/C5H8N2O2/c8-5(9)4-3-2(7-3)1-6-4/h2-4,6-7H,1H2,(H,8,9)	InChI=1S/C5H8N2O2/c8-5(9)4-3-2(7-3)1-6-4/h2-4,6-7H,1H2,(H,8,9)/t2-,3-,4+/m1/s1
