23
gdb 108082	2.48717	1.41735	1.18107	0.4754	90.03	-0.2279	0.091	0.3189	1211.0765	0.205904	-351.121268	-351.112227	-351.111283	-351.154771	35.211	
C	 0.188410328	 1.3967260752	 0.2530074266	-0.371839
C	-0.1217441963	-0.0404123985	-0.1889247445	-0.304543
C	 0.6406213512	-0.4629622202	-1.413360608	 0.328211
C	 0.4506175963	 0.0319403942	-2.8488027493	-0.285493
C	 1.3322603266	-1.1704487954	-3.2765860879	-0.111092
C	 2.73374968	-0.8325825628	-2.6999791996	-0.23257
C	 2.0886584848	-0.9998684105	-1.3275866589	-0.156284
C	 0.975205731	-1.862015654	-1.888267367	 0.294207
C	 0.4595655751	-3.2156633654	-1.5253376891	-0.531876
H	 1.2505623782	 1.5130418177	 0.4914707361	 0.117238
H	-0.053073031	 2.1135258163	-0.5389190697	 0.11774
H	-0.3909647887	 1.6721329274	 1.1398400928	 0.10741
H	 0.1039617142	-0.7315059147	 0.6340082237	 0.092804
H	-1.1996294369	-0.1375389961	-0.3782959448	 0.093148
H	-0.5895810121	-0.0890488404	-3.1688115591	 0.089467
H	 0.8018646887	 1.0345796775	-3.1237639274	 0.081358
H	 1.2256374665	-1.6180818301	-4.2634325302	 0.063603
H	 3.4590950535	-1.627147271	-2.8992647646	 0.093536
H	 3.1694057698	 0.1367860899	-2.971980886	 0.082567
H	 2.5757962708	-1.1020629563	-0.3645335028	 0.074375
H	 0.3264002518	-3.3036023207	-0.4412602856	 0.120969
H	-0.5107668288	-3.4200678446	-1.9939085406	 0.117844
H	 1.1495850169	-4.0093668576	-1.8361772742	 0.119224
80.6043	123.7238	186.4261	200.3387	211.8354	247.9187	324.7683	362.3829	422.3697	518.9438	577.6549	669.3759	706.7719	742.507	785.0257	823.157	889.7201	906.2345	920.5022	944.014	977.602	991.3279	999.6747	1018.4098	1053.6642	1089.4204	1098.4127	1112.2375	1127.4525	1153.3942	1176.9667	1199.7106	1216.6681	1235.6057	1262.6465	1281.2224	1315.7321	1338.6538	1369.6501	1408.8274	1411.7067	1463.8205	1479.9778	1483.3992	1492.6769	1497.3005	1498.3606	1507.6866	1512.4364	3006.7653	3014.8563	3016.1857	3024.2404	3033.8154	3038.5156	3070.5844	3076.644	3084.8873	3085.5719	3102.1177	3105.2779	3125.3939	3177.436
CCC12CC3CC1C23C	CC[C@@]12C[C@H]3C[C@@H]1[C@@]23C	
InChI=1S/C9H14/c1-3-9-5-6-4-7(9)8(6,9)2/h6-7H,3-5H2,1-2H3	InChI=1S/C9H14/c1-3-9-5-6-4-7(9)8(6,9)2/h6-7H,3-5H2,1-2H3/t6-,7-,8+,9-/m1/s1
