15
gdb 9464	2.72964	1.80785	1.73074	3.204	62.72	-0.2518	-0.0369	0.215	857.611	0.117398	-399.831801	-399.823597	-399.822652	-399.864678	28.701	
C	 0.1150584744	 1.6928369005	 0.2184301796	-0.463869
C	-0.0304652562	 0.1819057953	 0.0500474475	 0.044865
C	 0.5755662509	-0.4843794686	-1.2162545616	-0.203209
N	 1.4967632674	-1.2030490345	-0.3258996509	-0.322399
C	 1.0559252	-0.6495851859	 0.8407063965	 0.398151
O	 1.3812892242	-0.7453352213	 1.991326761	-0.353278
C	-1.4232812185	-0.293182346	 0.3991084207	 0.128486
O	-2.0689502451	-1.0780983465	-0.2477240948	-0.249747
H	 1.1449539754	 2.0071568889	 0.0276634248	 0.135536
H	-0.542881155	 2.2358592546	-0.4677932534	 0.13175
H	-0.1381597469	 1.986314588	 1.2418707147	 0.145303
H	-0.1214216234	-1.1280718801	-1.7560552338	 0.142998
H	 1.0717670618	 0.2115767652	-1.8992103813	 0.113929
H	 2.2424861668	-1.8583802129	-0.5068004106	 0.258282
H	-1.819649726	 0.1392373033	 1.3440343515	 0.093202
78.5862	100.9282	179.5796	195.7672	237.794	273.1723	306.7582	431.6447	490.8809	613.6309	672.1044	723.5687	795.1263	859.5472	935.2221	976.2143	992.9109	1022.6716	1135.4369	1156.8957	1164.756	1221.8837	1277.2696	1292.1379	1385.9938	1405.9103	1429.0389	1490.2178	1496.7215	1521.9457	1817.7557	1898.314	2894.787	3037.4631	3055.1403	3108.8881	3116.3507	3123.1776	3615.3983
CC1(CNC1=O)C=O	C[C@]1(CNC1=O)C=O	
InChI=1S/C5H7NO2/c1-5(3-7)2-6-4(5)8/h3H,2H2,1H3,(H,6,8)	InChI=1S/C5H7NO2/c1-5(3-7)2-6-4(5)8/h3H,2H2,1H3,(H,6,8)/t5-/m0/s1
