16
gdb 97835	4.04896	0.69187	0.62711	1.6526	75.87	-0.26	0.0128	0.2728	1729.6391	0.123454	-437.839037	-437.829863	-437.828919	-437.875257	31.68	
O	 0.2214566308	 1.1854832148	 0.6956848954	-0.399605
C	 0.0001050508	 0.2207909252	-0.3219031737	-0.194891
C	-1.3537650709	-0.3344037291	-0.3136082885	 0.068346
C	-2.4630495695	-0.7986159723	-0.2445705824	 0.075884
C	-3.7963825583	-1.3565384071	-0.190750946	-0.317013
C	-4.4939122207	-1.7497154992	-1.5235901415	-0.08794
O	-4.6252219296	-3.1247101866	-1.055908056	-0.247739
C	-3.9507235721	-2.8502769339	 0.113976677	 0.445144
N	-3.6104784306	-3.5873356704	 1.0640007924	-0.536069
H	-0.0140383176	 0.7777649066	 1.5358487441	 0.29095
H	 0.1875380645	 0.7381739317	-1.269415174	 0.141765
H	 0.7281129763	-0.603806023	-0.2618109895	 0.124238
H	-4.444370278	-0.756440757	 0.4561477382	 0.140431
H	-5.4709296185	-1.2994224315	-1.7096304753	 0.128099
H	-3.8600755294	-1.6934469019	-2.4101910593	 0.134611
H	-3.8960476273	-4.5559057962	 0.9112685091	 0.233789
18.5833	78.8897	84.8225	135.5941	207.4579	240.7178	333.0583	402.0178	442.1487	492.8463	531.0488	634.2587	719.1805	788.4603	863.3867	928.6598	931.015	975.29	990.0316	1007.9063	1054.8405	1060.8618	1157.1495	1185.3273	1195.3975	1216.5874	1223.1071	1327.5705	1361.2142	1367.6789	1418.999	1489.0895	1515.0189	1831.0993	2364.5941	2979.9985	3062.4173	3063.196	3074.2485	3140.2244	3481.1709	3814.7027
OCC#CC1COC1=N	OCC#C[C@H]1CO[C]1[NH]	
InChI=1S/C6H7NO2/c7-6-5(4-9-6)2-1-3-8/h5,7-8H,3-4H2	InChI=1S/C6H7NO2/c7-6-5(4-9-6)2-1-3-8/h5,7-8H,3-4H2/t5-/m0/s1
