19
gdb 69669	3.5185	1.38558	1.16646	1.4766	82.28	-0.2166	0.0202	0.2368	1092.9078	0.160077	-385.843692	-385.836071	-385.835127	-385.875355	31.031	
O	-0.5155497413	 1.4199449769	 0.0243836059	-0.46111
C	-0.1221032014	 0.094615932	 0.0328599284	 0.357959
C	-0.1303227502	-0.7441353255	-1.2077644802	-0.332678
C	-1.048091578	-1.137224676	-0.0454984015	-0.253339
C	-0.1564508156	-1.8179608457	 0.9502432291	 0.344369
C	 0.4685291781	-2.9194607409	 1.3533673254	-0.249771
C	 1.8131000619	-2.517324995	 1.9680749662	-0.232163
C	 2.070221265	-1.0807727415	 1.3908713949	-0.266264
C	 0.6335005316	-0.5616447245	 1.2223303448	-0.09321
H	 0.1226900445	 1.9230639733	-0.4931186022	 0.285946
H	-0.6539823534	-0.2813047112	-2.0396885424	 0.114164
H	 0.7006686935	-1.3858320217	-1.4869396663	 0.112989
H	-2.1211211608	-1.1990595601	-0.1728832524	 0.102657
H	 0.1562169341	-3.950503354	 1.2365959423	 0.091144
H	 1.7756783109	-2.4981662882	 3.067279503	 0.103169
H	 2.611253074	-3.2186397645	 1.7005563784	 0.100171
H	 2.7050352585	-0.4698581961	 2.0389222894	 0.091235
H	 2.5657217576	-1.1702015604	 0.4170604256	 0.097461
H	 0.268584881	-0.065437037	 2.1323751715	 0.08727
140.3097	192.3743	234.827	258.5476	297.1306	391.8554	481.336	496.7127	577.8794	621.3735	660.7485	732.1176	799.6106	820.639	871.5998	875.7302	895.0561	915.195	938.1482	958.3191	978.556	1010.3079	1059.5257	1072.9214	1085.4294	1115.419	1150.5877	1155.9193	1193.8174	1215.1307	1238.3837	1261.3858	1297.4848	1312.8682	1324.0071	1340.892	1398.7671	1478.8661	1483.6246	1492.523	1733.3858	2999.2474	3011.672	3037.4645	3061.7779	3094.2927	3110.1656	3195.2309	3198.4648	3203.2332	3794.8813
OC12CC1C1=CCCC21	O[C@]12C[C@H]1[C]1[CH]CC[C@@H]21	
InChI=1S/C8H10O/c9-8-4-7(8)5-2-1-3-6(5)8/h2,6-7,9H,1,3-4H2	InChI=1S/C8H10O/c9-8-4-7(8)5-2-1-3-6(5)8/h2,6-7,9H,1,3-4H2/t6-,7+,8+/m1/s1
