14
gdb 20426	6.19878	1.60427	1.34617	2.5674	63.63	-0.2193	0.0136	0.2329	876.708	0.110342	-374.893162	-374.886708	-374.885764	-374.92436	23.666	
C	-0.1970621513	 1.2589261712	-0.3106567674	-0.218984
C	 1.2211984958	 1.0403478199	 0.0994493379	-0.218411
N	 0.2582560894	-0.0506230656	 0.1435962034	-0.130358
C	-0.1696293487	-0.5302179515	 1.3741869393	 0.388671
N	 0.6660618973	-0.8020800615	 2.3697500571	-0.288692
N	-0.1803468269	-1.3208186957	 3.3015285617	-0.177826
C	-1.4420210057	-1.3251262866	 2.8375605621	 0.022593
N	-1.4814036681	-0.8306308557	 1.6161461676	-0.310907
H	-0.8354863329	 1.8274829628	 0.3601119274	 0.128733
H	-0.4648210046	 1.3154563822	-1.3611134564	 0.124437
H	 1.9997847167	 0.9409761957	-0.650575414	 0.123106
H	 1.543520495	 1.4564518119	 1.0497974756	 0.132319
H	 0.1817121879	-1.6337951366	 4.1864490776	 0.280669
H	-2.2831449838	-1.6887953604	 3.4089141382	 0.144651
56.3016	173.0095	211.8413	389.413	495.1836	522.7181	585.1919	669.8524	781.9272	820.6938	855.3143	917.0903	931.8881	995.2013	1007.2698	1042.0552	1099.1479	1123.8756	1132.319	1167.6999	1176.1007	1186.4645	1261.1763	1315.9445	1352.5106	1476.3415	1495.339	1520.6216	1524.1654	1572.1071	3115.5715	3119.7119	3199.1537	3212.5907	3255.9003	3672.7122
C1CN1C1=NNC=N1	C1CN1c1n[nH]cn1	
InChI=1S/C4H6N4/c1-2-8(1)4-5-3-6-7-4/h3H,1-2H2,(H,5,6,7)	InChI=1S/C4H6N4/c1-2-8(1)4-5-3-6-7-4/h3H,1-2H2,(H,5,6,7)
