18
gdb 62049	4.16131	0.70913	0.65814	4.9615	74.2	-0.2788	0.0141	0.2928	1690.0778	0.14508	-439.057244	-439.047502	-439.046557	-439.093742	33.574	
C	 0.1064459347	 1.5573016682	 0.0320612203	-0.39554
C	-0.0166215788	 0.0293063861	 0.1081790313	-0.005349
O	 0.6969327701	-0.5164810556	 1.2026950545	-0.253984
C	 2.0621791058	-0.7882526038	 0.9308077538	-0.088021
C	 2.6739420345	-1.3700172289	 2.1744856136	 0.081988
C	 4.1182805622	-1.2815548898	 2.4168280808	-0.182268
O	 3.2033622174	-0.4452331963	 3.1229553673	-0.223118
C	-1.4264256178	-0.3743125848	 0.2595827976	 0.282342
N	-2.5387627041	-0.6705449952	 0.3505694976	-0.313896
H	 1.1513089171	 1.8406946669	-0.1175214259	 0.131329
H	-0.4813570074	 1.9483589014	-0.8027779144	 0.13999
H	-0.2519130618	 2.0054772245	 0.9611419936	 0.153686
H	 0.3424514154	-0.4152162106	-0.8341541948	 0.116192
H	 2.1453820778	-1.5076167232	 0.0987413449	 0.102027
H	 2.611367959	 0.1233440548	 0.6548070605	 0.104583
H	 2.1153543524	-2.1976118655	 2.6113695049	 0.111164
H	 4.6103301693	-2.0517313363	 3.0081937046	 0.123533
H	 4.7575690843	-0.7719684119	 1.6963351996	 0.115342
28.7463	50.8972	96.7155	136.7521	194.71	221.3624	254.4256	328.9963	382.197	406.044	464.9891	569.0671	595.9279	799.1136	837.4921	873.1695	908.7831	958.0996	998.8552	1051.0192	1088.5734	1103.6148	1122.4547	1148.2358	1155.49	1163.4441	1174.5649	1270.8188	1293.5229	1337.0729	1347.9372	1395.1518	1406.2377	1464.9164	1485.9266	1491.	1501.9036	1533.2674	2367.4859	2965.7206	2979.7213	3022.8434	3054.2036	3084.3351	3122.1503	3129.7794	3143.8715	3171.2826
CC(OCC1CO1)C#N	C[C@@H](OC[C@H]1CO1)C#N	
InChI=1S/C6H9NO2/c1-5(2-7)8-3-6-4-9-6/h5-6H,3-4H2,1H3	InChI=1S/C6H9NO2/c1-5(2-7)8-3-6-4-9-6/h5-6H,3-4H2,1H3/t5-,6+/m1/s1
