18
gdb 66124	2.70921	1.46645	1.31216	1.9075	76.67	-0.2341	0.0247	0.2588	1048.5771	0.147226	-401.886804	-401.878471	-401.877527	-401.919313	32.794	
O	-0.0839231036	 1.3866152224	 0.022150391	-0.464458
C	 0.0206898603	-0.0355510668	 0.0025073959	 0.222756
C	 0.6606813499	-0.6178884472	 1.3002267498	-0.310874
C	-0.1091305099	-1.9306818132	 1.5388324103	-0.155858
N	-1.4478988239	-1.7962702245	 0.9251214651	-0.095005
C	-2.1406341766	-0.5526229287	 1.2908433613	-0.264134
C	-1.3857953718	-0.640805452	 0.0167827099	-0.024471
C	 0.7502560603	-0.4781756351	-1.1916872141	 0.291868
C	 1.3726420479	-0.8190689211	-2.1623990283	-0.480301
H	 0.7672215835	 1.7469798212	-0.2493038664	 0.283823
H	 1.736591509	-0.7708540929	 1.1994170054	 0.111214
H	 0.4983812407	 0.1107123063	 2.0984910672	 0.117305
H	 0.3896156826	-2.7663366571	 1.0373514259	 0.117938
H	-0.2034451511	-2.1858443926	 2.5987659027	 0.109523
H	-3.2240368406	-0.6186525923	 1.2683409406	 0.118238
H	-1.7436913458	 0.0679592108	 2.0891615711	 0.119413
H	-1.9003905827	-0.7217299336	-0.9346946722	 0.100691
H	 1.9116989319	-1.1248778737	-3.0251667649	 0.202333
100.5722	145.3552	198.8422	260.6114	268.5875	346.2642	406.4452	462.6247	474.4021	533.5253	630.2056	638.026	661.2112	666.901	706.94	793.5816	832.7454	880.4456	954.6393	967.9518	973.6808	1005.5361	1070.6255	1080.4431	1106.6697	1133.9184	1146.5305	1187.142	1213.1985	1239.7928	1271.9334	1306.2135	1324.0575	1362.8873	1405.2927	1487.0593	1497.5898	1519.9007	2229.4711	3048.6275	3071.2813	3091.3582	3117.0498	3125.6333	3167.9297	3201.106	3499.4561	3810.6333
OC1(CCN2CC12)C#C	O[C@]1(CCN2C[C@@H]12)C#C	
InChI=1S/C7H9NO/c1-2-7(9)3-4-8-5-6(7)8/h1,6,9H,3-5H2	InChI=1S/C7H9NO/c1-2-7(9)3-4-8-5-6(7)8/h1,6,9H,3-5H2/t6-,7-,8?/m0/s1
