15
gdb 26611	2.39398	1.89543	1.05895	3.2815	76.24	-0.1816	-0.0206	0.161	1054.4534	0.114235	-453.985828	-453.978106	-453.977162	-454.017635	30.478	
N	-0.0068754409	 1.4130598867	 0.1437907025	-0.589812
C	-0.001440283	 0.0299110602	 0.0473674132	 0.205593
C	-1.1547517883	-0.6958340997	 0.0343790984	 0.238059
O	-2.375232274	-0.1001280589	 0.0512853179	-0.45752
C	-1.1508873821	-2.1348108983	-0.0054729939	 0.324177
N	-2.2599802842	-2.7721953467	-0.0250225041	-0.603923
O	 0.0723560833	-2.7681870645	-0.0327197481	-0.230067
C	 1.2203154168	-2.0445252488	-0.0199672221	 0.050192
C	 1.2397306298	-0.7035738963	 0.0200243966	-0.226608
H	 0.7622697189	 1.8820412658	-0.311624771	 0.250436
H	-0.9006672019	 1.8321063541	-0.0723998879	 0.267403
H	-3.0076286358	-0.8418105246	 0.0197700884	 0.305229
H	-2.132557868	-3.7798792927	-0.0653233703	 0.223285
H	 2.0924870917	-2.6831800254	-0.0430070243	 0.135869
H	 2.1882564878	-0.1814421208	 0.0415447847	 0.107687
136.0755	188.3397	281.5184	289.6759	321.2034	345.6384	490.5309	505.2973	535.422	550.592	556.9294	591.3545	665.5492	707.4321	735.8729	760.6239	768.393	856.1134	890.2859	995.6322	1022.823	1108.0134	1156.863	1263.1133	1272.5956	1331.9859	1361.9867	1440.2124	1478.2887	1629.778	1645.0888	1697.7465	1738.1721	3206.7025	3238.2168	3535.0515	3559.7891	3619.4229	3664.851
NC1=C(O)C(=N)OC=C1	N[C@@H]1C(=C([NH])OC=C1)O	
InChI=1S/C5H6N2O2/c6-3-1-2-9-5(7)4(3)8/h1-2,7-8H,6H2	InChI=1S/C5H7N2O2/c6-3-1-2-9-5(7)4(3)8/h1-3,7-8H,6H2/t3-/m0/s1
