22
gdb 6860	3.14653	1.68305	1.50651	1.2864	77.43	-0.2425	0.0756	0.318	984.4191	0.20137	-350.224315	-350.216074	-350.21513	-350.256085	32.914	
C	 0.0235823948	 1.5327962511	 0.0104093006	-0.42068
C	-0.0541131795	-0.0018768443	 0.0026214725	 0.277048
C	-1.5390758722	-0.4150368031	 0.0093521699	-0.416514
C	 0.6661697759	-0.5483983454	-1.2540606228	-0.211924
C	 0.9037429478	-2.0591931166	-1.1882719571	-0.087413
O	 1.6173238836	-2.4289358998	-0.0205134686	-0.242756
C	 0.9179029319	-2.0718247052	 1.1596761828	-0.087413
C	 0.681231623	-0.5618420251	 1.2445771813	-0.211925
H	 1.0633470775	 1.8775639371	 0.0059790678	 0.109435
H	-0.4736509537	 1.9568286309	-0.8694939566	 0.107122
H	-0.4629514726	 1.9473038156	 0.9007701475	 0.107122
H	-2.0550405626	-0.0130972989	-0.8697073207	 0.109944
H	-1.6796469884	-1.4994092396	 0.0043868641	 0.113435
H	-2.0443830031	-0.0225780041	 0.8988246436	 0.109944
H	 0.0953869546	-0.3032868051	-2.1587533425	 0.087028
H	 1.6421257885	-0.0556374846	-1.3460537881	 0.096533
H	-0.0528641626	-2.6071669188	-1.2343241505	 0.085099
H	 1.5119423202	-2.391256181	-2.0352419194	 0.103627
H	-0.038111695	-2.6203297207	 1.2113677717	 0.085099
H	 1.5362544575	-2.4129360475	 1.9956278016	 0.103627
H	 1.6582534376	-0.0700294813	 1.3300990274	 0.096533
H	 0.1214084567	-0.3265224037	 2.1586697054	 0.087029
157.5556	190.0044	230.3197	254.5643	307.5842	315.9095	363.3055	402.479	422.6851	458.4878	486.7659	608.5466	705.7285	811.0975	856.7593	875.9759	927.643	942.6107	987.2537	1002.5037	1019.7848	1024.5554	1042.4215	1074.8441	1137.1047	1193.5465	1206.9102	1219.0716	1248.4178	1286.7779	1320.7992	1324.8985	1354.9373	1381.5211	1386.4571	1400.8737	1420.5745	1429.7163	1467.6239	1472.9544	1484.1812	1494.5159	1496.7822	1499.7163	1511.484	1513.5729	2958.4247	2963.6934	3017.1779	3017.9471	3022.1631	3031.4186	3060.4684	3063.0173	3076.5648	3079.1756	3086.6524	3093.003	3093.1143	3106.7625
CC1(C)CCOCC1	CC1(C)CCOCC1	
InChI=1S/C7H14O/c1-7(2)3-5-8-6-4-7/h3-6H2,1-2H3	InChI=1S/C7H14O/c1-7(2)3-5-8-6-4-7/h3-6H2,1-2H3
