18
gdb 11831	3.15258	1.91944	1.55605	1.9839	67.57	-0.2548	0.066	0.3209	892.2163	0.15296	-384.908067	-384.900149	-384.899205	-384.940074	30.311	
C	-0.26120707	 1.4675002455	 0.0409864015	-0.397112
C	-0.0655302456	-0.042158089	-0.0403467267	-0.033556
C	 1.1430360023	-0.4894142996	-0.9314000584	-0.32331
C	 1.9501412906	-0.6844823692	 0.349579555	 0.378981
C	 3.3002264922	-1.1423549588	 0.65891924	-0.26802
O	 2.9637892558	 0.2588037934	 0.7155324884	-0.281245
C	 0.6783001819	-0.6593733956	 1.2047059807	 0.079504
O	 0.7588293753	 0.0511482108	 2.4052068276	-0.431981
H	 0.6865048004	 1.9858753259	 0.2214308506	 0.122052
H	-0.6784072646	 1.8552677571	-0.8940309484	 0.111918
H	-0.9414947132	 1.7277844881	 0.8569374413	 0.127699
H	-1.0122951758	-0.5348888761	-0.2770806238	 0.068484
H	 0.9673113474	-1.4261993249	-1.4673168963	 0.107707
H	 1.54198828	 0.2534861504	-1.626232583	 0.116134
H	 3.5048114495	-1.6072818762	 1.6222929468	 0.122922
H	 3.9819428941	-1.4149002861	-0.1452146931	 0.121247
H	 0.3030286538	-1.6652034936	 1.4249114391	 0.085696
H	 1.5290839257	 0.6304954076	 2.3192109788	 0.292879
75.7568	217.386	219.2176	235.9271	260.9061	334.0808	380.3182	452.9767	482.7894	582.3062	623.8762	778.0754	788.3582	807.9474	872.0929	888.6616	914.2446	966.2186	1033.0821	1080.7115	1091.3224	1120.5359	1142.1063	1166.2738	1180.9817	1186.7042	1213.7473	1254.4421	1281.2848	1324.601	1361.0595	1412.0996	1423.7141	1445.9347	1475.7949	1495.728	1501.9163	1530.0443	3035.5637	3042.5461	3058.5054	3069.5408	3085.2806	3102.4905	3112.9619	3118.4452	3173.1816	3739.8557
CC1CC2(CO2)C1O	C[C@H]1C[C@]2(CO2)[C@H]1O	
InChI=1S/C6H10O2/c1-4-2-6(3-8-6)5(4)7/h4-5,7H,2-3H2,1H3	InChI=1S/C6H10O2/c1-4-2-6(3-8-6)5(4)7/h4-5,7H,2-3H2,1H3/t4-,5-,6-/m0/s1
