21
gdb 103134	2.2467	1.4152	1.09765	3.3411	78.67	-0.243	-0.0264	0.2167	1208.2218	0.180531	-424.240457	-424.230622	-424.229678	-424.274728	36.917	
C	-0.5874095513	 1.338020045	-0.0608775549	-0.414731
C	 0.1210808107	-0.0087577454	-0.0941892231	-0.034544
C	 1.5186415563	-0.0811491666	-0.794568693	-0.362405
C	 1.988354343	-0.9326683068	 0.3831264679	 0.388048
O	 2.8848513903	-1.7190823148	 0.5503686721	-0.330525
C	 0.751476537	-0.597804	 1.2290251328	 0.158397
C	 1.0391841116	 0.4108969293	 2.3461835959	-0.446254
C	 0.1106621372	-1.8779358582	 1.7911821955	-0.107732
O	 0.9695629708	-2.5288361264	 2.7051539669	-0.423907
H	 0.0556874925	 2.1266228258	 0.3419057818	 0.119575
H	-0.8864396659	 1.6388270105	-1.0705687424	 0.121371
H	-1.4933128534	 1.2990382727	 0.5533491623	 0.122067
H	-0.5452990306	-0.7593529602	-0.5334336022	 0.082618
H	 1.5950251196	-0.5295241233	-1.7880444223	 0.129065
H	 2.0258474229	 0.8907318003	-0.8114305338	 0.131636
H	 1.6463338817	 1.2546358577	 2.0045282471	 0.113271
H	 0.1025971567	 0.8106497348	 2.7499034912	 0.120916
H	 1.5719326658	-0.0926453983	 3.1558156632	 0.146034
H	-0.8098349238	-1.6358702972	 2.3363719227	 0.106006
H	-0.1670795956	-2.5436454311	 0.9572967246	 0.08411
H	 1.8043155645	-2.6793753879	 2.2396858376	 0.296984
76.4603	131.1587	158.8342	215.5676	228.4498	244.2782	265.8829	269.607	308.2844	416.151	432.6274	495.0327	532.4639	570.8988	658.574	707.8801	813.4734	852.2085	875.4948	951.6215	958.3734	995.5994	1063.7532	1067.3443	1073.1634	1096.3481	1149.3745	1163.7039	1185.1235	1213.8338	1226.0884	1274.8653	1302.1411	1371.3878	1380.4492	1404.6573	1414.0619	1441.9232	1447.218	1485.355	1492.972	1500.3344	1506.3369	1508.4841	1853.3766	2964.0209	3032.2399	3036.6305	3041.122	3047.0152	3050.0299	3096.8989	3100.5216	3107.0065	3112.4654	3131.2118	3743.5545
CC1CC(=O)C1(C)CO	C[C@H]1CC(=O)[C@]1(C)CO	
InChI=1S/C7H12O2/c1-5-3-6(9)7(5,2)4-8/h5,8H,3-4H2,1-2H3	InChI=1S/C7H12O2/c1-5-3-6(9)7(5,2)4-8/h5,8H,3-4H2,1-2H3/t5-,7+/m0/s1
