19
gdb 110225	2.12558	1.29213	1.18859	1.2724	71.64	-0.224	0.066	0.2899	1176.1591	0.157159	-460.111988	-460.102356	-460.101412	-460.146287	35.833	
O	 0.0801375977	 1.2778063391	-0.3603500722	-0.418926
C	 0.0432472101	-0.0293067293	 0.1999791174	-0.092791
C	-1.3253414061	-0.6609456271	 0.0776332563	-0.196231
C	-1.8990504014	-1.3138019611	-1.1627318908	 0.349134
O	-3.0211515241	-0.8783335688	-1.8428321776	-0.462297
C	-0.8548584015	-2.1334738003	-1.9122133177	-0.275269
C	-0.6238320787	-2.9943643318	-0.6227092183	-0.293902
C	-1.6745248117	-2.1471401759	 0.1016207017	 0.287874
O	-2.6153559168	-2.6552028683	 0.979530492	-0.462714
H	-0.2319341139	 1.2074394145	-1.2688236514	 0.28521
H	 0.8107959928	-0.6751378275	-0.2513618757	 0.090075
H	 0.3146592752	 0.097672604	 1.2541341919	 0.105495
H	-2.1002868331	-0.0991283194	 0.6024217708	 0.084003
H	-3.5988104135	-0.4160019509	-1.2264038998	 0.289018
H	-1.3108027986	-2.7134812705	-2.7167842857	 0.120311
H	 0.0074132567	-1.5911385748	-2.3123785015	 0.096292
H	-0.9683172687	-4.0222813046	-0.7549117588	 0.114229
H	 0.3890422645	-3.0096540601	-0.2076904762	 0.094972
H	-2.2595967588	-2.6123851269	 1.8743983458	 0.285516
73.741	120.68	147.9715	199.89	236.291	249.448	274.1648	315.2591	343.1764	388.6665	452.5537	496.8592	576.7294	623.186	720.3473	741.8648	796.05	844.1993	938.334	965.6449	997.5424	1038.8439	1053.7375	1088.0768	1112.5873	1117.7626	1188.7311	1200.0497	1210.6873	1225.6495	1240.4892	1265.6755	1313.1463	1332.4183	1378.4364	1400.892	1423.2633	1474.6353	1481.8171	1508.478	1529.4845	2995.9753	3046.911	3056.1637	3058.3964	3101.4477	3105.3139	3123.31	3783.4066	3808.6902	3817.7329
OCC1C2(O)CCC12O	OC[C@H]1[C@@]2(O)CC[C@@]12O	
InChI=1S/C6H10O3/c7-3-4-5(8)1-2-6(4,5)9/h4,7-9H,1-3H2	InChI=1S/C6H10O3/c7-3-4-5(8)1-2-6(4,5)9/h4,7-9H,1-3H2/t4-,5-,6+
