19
gdb 126684	3.148	1.21085	0.96006	3.9735	78.82	-0.1895	0.0074	0.1969	1255.3866	0.160051	-415.378062	-415.368887	-415.367943	-415.412569	33.092	
C	 0.11771394	 1.6034383531	 0.1861375716	-0.382945
C	-0.0034306054	 0.0781093044	 0.0447395648	-0.15781
N	 0.6639712906	-0.6952193739	 1.0788620769	-0.147678
C	 0.02481277	-0.7664634718	 2.3827584309	-0.337625
C	 2.038103959	-0.798044025	 1.0284191078	 0.414131
C	 2.9154121886	-0.538695592	-0.0125277293	-0.202907
N	 4.1255600579	-0.890734843	 0.5042965068	-0.156618
N	 4.0289670074	-1.3213675157	 1.7609676448	-0.115964
N	 2.7640467776	-1.2632304571	 2.0902687552	-0.290785
H	 1.1653528329	 1.9186283114	 0.1751808325	 0.125616
H	-0.3988651324	 2.105875523	-0.6381560474	 0.114836
H	-0.3289163231	 1.9493798567	 1.1232363345	 0.12534
H	-1.0609988361	-0.2092378285	 0.0527332842	 0.105719
H	 0.3906424303	-0.239700421	-0.9282515929	 0.106507
H	 0.4778864119	-1.5693612636	 2.9647803448	 0.160417
H	 0.1170008304	 0.162761688	 2.9661589534	 0.111677
H	-1.0384120632	-0.9830978733	 2.2418233305	 0.113529
H	 2.7991229772	-0.1595114636	-1.0113643197	 0.135608
H	 5.0305721863	-0.8524463783	 0.0641869605	 0.278953
61.0582	85.7318	130.493	148.7061	200.5648	257.165	306.177	382.1654	426.863	521.3778	539.7195	608.4765	665.1752	695.5556	747.1392	793.2543	886.583	978.1058	991.6467	1045.5444	1075.6357	1085.8361	1106.8857	1144.6428	1153.5975	1219.6549	1237.2363	1288.3224	1319.2998	1363.4754	1387.1372	1396.9255	1403.6278	1453.0555	1485.0322	1487.3514	1491.0319	1503.7259	1508.4348	1522.5526	1630.0465	2983.3766	3026.7008	3038.597	3063.1891	3077.2073	3108.4643	3116.317	3145.9049	3298.6622	3660.9637
CCN(C)C1=CNN=N1	CCN(C)c1c[nH]nn1	
InChI=1S/C5H10N4/c1-3-9(2)5-4-6-8-7-5/h4H,3H2,1-2H3,(H,6,7,8)	InChI=1S/C5H10N4/c1-3-9(2)5-4-6-8-7-5/h4H,3H2,1-2H3,(H,6,7,8)
