17
gdb 30509	2.5312	1.65438	1.00757	1.8156	85.15	-0.1822	-0.0228	0.1594	1149.9796	0.136853	-418.041711	-418.033279	-418.032335	-418.074712	31.91	
C	-0.1863992629	 1.3686410901	 0.0651449286	-0.320185
N	-0.2037552638	-0.080404517	 0.1378463438	-0.344345
C	 0.6242733671	-0.6646220556	 0.90848342	 0.397826
O	 1.5239574521	 0.045505742	 1.6651287481	-0.246359
C	 2.4407872705	-0.5779067111	 2.461229335	 0.028372
C	 2.5090213892	-1.9142908542	 2.5515227171	-0.15862
C	 1.5901799135	-2.724056902	 1.8044528268	-0.190422
C	 0.6564613865	-2.1287904268	 1.0117494308	 0.223385
N	-0.3224456705	-2.768618297	 0.2914525567	-0.575968
H	 0.7951445756	 1.7570912761	-0.2407725577	 0.117166
H	-0.9309140988	 1.7007903734	-0.6623555229	 0.11487
H	-0.4220428929	 1.8307221649	 1.0339514264	 0.119408
H	 3.0674459161	 0.1363045032	 2.9762726964	 0.126489
H	 3.2541536873	-2.3673750116	 3.1926298916	 0.105213
H	 1.6346907793	-3.8050226865	 1.8820688815	 0.089501
H	-0.1514742542	-3.7236350358	 0.0215190153	 0.248333
H	-0.7568119741	-2.176327622	-0.4037662773	 0.265335
82.2918	127.2074	204.4276	208.1943	249.1592	335.0259	396.7333	486.1975	510.5375	536.4966	561.243	564.7055	582.2448	748.899	752.9832	766.6492	859.0335	890.9955	901.5148	1031.8915	1059.6524	1070.781	1111.7512	1142.9867	1152.3471	1191.0366	1267.5803	1326.3607	1423.6175	1438.2928	1449.4083	1486.4773	1496.6857	1591.6649	1638.8032	1685.4491	1723.1183	2994.7879	3041.2714	3104.0349	3183.2556	3214.3472	3242.2751	3553.2144	3686.0399
CN=C1OC=CC=C1N	C[N]C1=C(CC=CO1)N	
InChI=1S/C6H8N2O/c1-8-6-5(7)3-2-4-9-6/h2-4H,7H2,1H3	InChI=1S/C6H9N2O/c1-8-6-5(7)3-2-4-9-6/h2,4H,3,7H2,1H3
