18
gdb 94603	2.95993	1.07741	0.98087	3.3656	68.81	-0.2573	0.0498	0.3071	1272.5867	0.147239	-476.252397	-476.243253	-476.242309	-476.28766	33.663	
N	-0.3818358642	 1.277162242	-0.1799676011	-0.563419
C	-0.0476629278	-0.0479822231	-0.1411553848	 0.49375
O	 1.0245927437	-0.5062124482	-0.4476408915	-0.382578
O	-1.1294987925	-0.7709466378	 0.2717060601	-0.294504
C	-0.9934855593	-2.2023120115	 0.2756681893	 0.071426
C	-1.7965189545	-2.7975906146	 1.4532623422	-0.246974
C	-3.0225554253	-2.9666818863	 0.5110272312	-0.263515
C	-2.0532624603	-2.8068444789	-0.6979438407	 0.154165
O	-2.4304970987	-2.0539108127	-1.8115823737	-0.430088
H	 0.386740571	 1.9206624714	-0.2628046135	 0.271457
H	-1.1968447445	 1.5838749174	 0.3239537096	 0.263392
H	 0.0566898216	-2.4554251124	 0.1444816236	 0.117825
H	-1.3744095573	-3.7513364182	 1.7793901035	 0.112996
H	-1.9131364757	-2.1464609642	 2.3211156785	 0.110206
H	-3.6034829023	-3.8888181064	 0.5769054161	 0.102507
H	-3.7042998597	-2.1138311167	 0.5770024856	 0.10333
H	-1.7180762235	-3.7799601502	-1.0689136948	 0.096281
H	-2.5074454807	-1.1393160296	-1.5144634597	 0.283743
23.5885	76.7059	101.0002	214.2333	250.7615	339.5315	379.4722	387.852	414.5353	461.2599	518.0572	593.2857	652.1156	677.0479	734.6084	776.8123	841.756	899.2405	922.4472	951.9087	987.4429	1068.2588	1081.7059	1111.8507	1126.203	1155.5441	1190.7008	1228.7132	1255.0465	1280.0265	1283.369	1325.8699	1339.0423	1391.2658	1438.2412	1469.62	1489.0216	1612.1843	1845.1683	3062.0344	3070.6951	3073.9355	3116.9613	3132.0164	3142.1731	3610.1369	3738.2658	3788.8798
NC(=O)OC1CCC1O	NC(=O)O[C@H]1CC[C@H]1O	
InChI=1S/C5H9NO3/c6-5(8)9-4-2-1-3(4)7/h3-4,7H,1-2H2,(H2,6,8)	InChI=1S/C5H9NO3/c6-5(8)9-4-2-1-3(4)7/h3-4,7H,1-2H2,(H2,6,8)/t3-,4+/m1/s1
