25
gdb 118580	2.81595	0.7368	0.61214	1.2267	87.74	-0.2404	0.0881	0.3285	1939.5752	0.225667	-426.612246	-426.600246	-426.599302	-426.650569	41.337	
C	-0.0270277024	 1.5486292016	 0.0099302638	-0.381811
C	 0.0108189425	 0.0184173407	 0.007326894	-0.169012
C	 0.7434237874	-0.561301604	 1.2212802728	-0.178912
C	 0.7607059229	-2.0931003877	 1.2464178612	 0.093535
C	 1.5686548927	-2.6096865602	 2.4374841711	-0.057358
O	 1.8045386071	-3.9955722685	 2.2936981679	-0.234928
C	 2.5067949815	-4.5458859557	 3.3822659401	-0.228971
O	-0.5898554087	-2.5275689207	 1.2990135249	-0.253694
C	-0.8415969038	-3.8152863205	 0.7703146512	-0.233961
H	 0.9832420352	 1.9737134016	 0.0042711752	 0.109361
H	-0.5545793073	 1.9355144132	-0.8676172421	 0.110359
H	-0.5394280467	 1.9304366848	 0.9001860364	 0.113606
H	-1.0068568275	-0.3835705221	-0.0103380524	 0.114857
H	 0.499510058	-0.3349662635	-0.9107548725	 0.088237
H	 1.7780831046	-0.1961820179	 1.2400503967	 0.090364
H	 0.2654559391	-0.2039909087	 2.143357833	 0.100686
H	 1.2356230773	-2.4712352912	 0.3254408017	 0.069532
H	 2.5287049138	-2.0688625769	 2.5005620771	 0.079789
H	 1.0074980739	-2.4057421043	 3.364488863	 0.092385
H	 1.9495645896	-4.4373502936	 4.326156241	 0.105996
H	 2.6512457987	-5.609425523	 3.1770136565	 0.126434
H	 3.492858557	-4.071584407	 3.5116170148	 0.103352
H	-0.493955382	-3.8955258765	-0.2714150711	 0.099043
H	-0.3596866277	-4.6041543833	 1.3568288501	 0.125451
H	-1.9260323553	-3.9553050266	 0.7878552155	 0.115661
60.3493	74.44	81.4712	92.4784	120.2969	123.8271	199.5283	231.3975	241.4608	248.6767	303.8212	313.3913	354.9209	385.9267	520.1599	590.6533	743.9881	828.7477	890.6642	898.824	984.5023	994.3739	1029.7975	1064.1241	1094.4971	1133.9501	1147.4998	1150.2431	1173.3726	1185.2946	1187.6124	1224.0077	1227.6028	1258.8044	1283.6212	1286.3938	1331.5835	1344.3087	1393.0294	1401.228	1412.4528	1423.2839	1472.8306	1476.6815	1480.3855	1485.5057	1486.9584	1494.2683	1498.014	1500.392	1511.0446	1517.4697	1522.286	2949.9721	2965.8576	2971.0211	2985.3489	2993.5232	3014.0116	3014.1772	3021.8145	3027.5536	3056.3452	3070.9292	3077.4369	3098.9541	3101.1607	3112.7216	3113.2852
CCCC(COC)OC	CCC[C@@H](COC)OC	
InChI=1S/C7H16O2/c1-4-5-7(9-3)6-8-2/h7H,4-6H2,1-3H3	InChI=1S/C7H16O2/c1-4-5-7(9-3)6-8-2/h7H,4-6H2,1-3H3/t7-/m0/s1
