17
gdb 125285	5.04337	1.25614	1.01839	3.0709	84.19	-0.2087	-0.0211	0.1876	1148.077	0.138908	-380.910459	-380.903189	-380.902245	-380.942084	28.097	
C	-0.0204534516	 1.4451954351	 0.0898457237	-0.488916
C	-0.0007253643	-0.0429189947	-0.0219141478	 0.296435
C	-0.0381710494	-0.8024972202	-1.135563312	-0.347743
C	 0.0019767096	-2.2078058091	-0.7611435676	 0.448954
C	 0.0042967555	-3.5242327299	-1.1894560922	-0.388174
C	 0.0709088973	-4.2683873617	 0.0134199212	 0.012317
N	 0.1073009536	-3.4941611987	 1.1041409504	-0.297411
N	 0.06392613	-2.2543893743	 0.5970150965	 0.026532
C	 0.0694972123	-0.9412225916	 1.2069396523	-0.268594
H	 0.8767225863	 1.82378454	 0.5960581019	 0.133094
H	-0.0724917307	 1.9118458253	-0.8970561779	 0.133556
H	-0.8807714819	 1.7945667016	 0.6749109068	 0.133097
H	-0.0899814237	-0.4350422469	-2.1513111811	 0.113027
H	-0.0350868989	-3.8979850698	-2.1990478947	 0.102345
H	 0.0938054456	-5.3425905341	 0.1274635471	 0.107915
H	 0.9800865697	-0.774457048	 1.7953042278	 0.141781
H	-0.7896337394	-0.8039259431	 1.8749226957	 0.141785
126.8322	160.6191	207.6855	267.293	307.9316	458.0226	480.5616	530.3874	653.1776	713.7347	761.3239	774.7131	805.9822	858.4377	879.8103	883.0943	956.8221	960.6859	1011.6541	1055.1695	1074.0544	1146.3737	1164.8667	1182.3615	1202.3215	1277.4029	1324.2508	1342.797	1361.4646	1415.2473	1435.6794	1455.1399	1477.1524	1481.7722	1491.1292	1587.5388	1663.3043	3016.8994	3031.9417	3060.6777	3065.3572	3116.1863	3228.7195	3241.8393	3274.9754
CC1=CC2=CC=NN2C1	CC1=Cc2ccnn2C1	
InChI=1S/C7H8N2/c1-6-4-7-2-3-8-9(7)5-6/h2-4H,5H2,1H3	InChI=1S/C7H8N2/c1-6-4-7-2-3-8-9(7)5-6/h2-4H,5H2,1H3
