17
gdb 14653	14.46194	0.62624	0.60704	2.3746	76.2	-0.2519	0.0214	0.2733	1788.9508	0.138923	-363.82177	-363.812126	-363.811182	-363.858036	32.373	
C	-0.0487843119	 1.3897594276	 0.0154662255	-0.315053
N	 0.0700699018	-0.050739813	 0.0944303157	-0.203152
C	 0.5187782873	-0.6500583903	-0.9147585376	 0.132301
O	 0.6566763305	-1.9927507309	-0.9126075284	-0.204227
C	 1.1753440334	-2.5680838617	-2.1087988857	-0.070155
C	 1.244897093	-4.0800290327	-1.881677765	-0.348362
C	 1.7652238844	-4.7784921765	-3.0490133892	 0.282923
C	 2.1973253099	-5.3270284058	-4.0267715875	-0.44164
H	 0.5444031692	 1.8517878121	 0.8128608835	 0.128956
H	 0.27658955	 1.8158526758	-0.9480385418	 0.095583
H	-1.0911620433	 1.682468009	 0.1856379123	 0.128959
H	 0.8276828342	-0.1614799441	-1.8527858326	 0.074328
H	 0.5219929661	-2.3422443803	-2.9610226634	 0.12071
H	 2.1747755765	-2.1709175381	-2.3268084175	 0.120716
H	 1.8742311913	-4.2754879055	-1.0056584305	 0.148773
H	 0.2417047602	-4.4447073312	-1.6321012519	 0.14877
H	 2.5776284375	-5.8272968443	-4.882759486	 0.200571
16.9125	57.4996	87.2858	127.4341	196.8475	206.0873	304.5761	307.5047	353.7407	412.9607	511.5634	624.0564	628.234	657.5562	795.	970.334	980.0253	1029.5965	1056.0194	1086.903	1099.7841	1141.0723	1156.9668	1227.8871	1248.0294	1308.2731	1311.0011	1394.8976	1433.0281	1450.8471	1476.8599	1480.195	1504.9303	1520.0765	1782.8808	2244.0471	2965.916	2987.2867	3016.3441	3039.8761	3054.992	3058.3954	3077.8615	3082.063	3506.3838
CN=COCCC#C	CN=COCCC#C	
InChI=1S/C6H9NO/c1-3-4-5-8-6-7-2/h1,6H,4-5H2,2H3	InChI=1S/C6H9NO/c1-3-4-5-8-6-7-2/h1,6H,4-5H2,2H3
