21
gdb 115492	2.41559	1.06148	0.79551	3.2328	81.39	-0.2279	0.0217	0.2496	1469.2293	0.182348	-424.228928	-424.219127	-424.218183	-424.264264	35.636	
O	 0.325946801	 1.2242324002	 0.2913400902	-0.424572
C	 0.0449941033	-0.1471843312	 0.0700104458	-0.063005
C	-1.4561834986	-0.4377085437	-0.1143452939	-0.037813
C	-1.7484548993	-1.957117015	-0.2651779424	-0.239237
C	-2.3191537692	-2.4217245682	 1.1005262148	-0.306005
C	-2.7144164259	-1.1254212454	 1.7749929529	 0.318014
C	-3.4985604339	-1.1232708252	 3.0460024782	-0.178165
O	-3.6544682833	 0.2028877622	 3.517703778	-0.41439
C	-2.2632386658	-0.0621804698	 1.1084423235	-0.18884
H	-0.0749672062	 1.4682478309	 1.1318036649	 0.284313
H	 0.587330753	-0.4192346943	-0.8423886562	 0.104252
H	 0.4395273495	-0.7739173867	 0.8870901511	 0.080017
H	-1.7839872872	 0.1255929219	-0.9968504347	 0.076655
H	-2.4950076006	-2.1111471157	-1.0491555352	 0.105311
H	-0.85884448	-2.5236329522	-0.558255385	 0.096313
H	-3.1653956366	-3.1103479195	 0.9841237995	 0.099557
H	-1.5736547211	-2.9611620731	 1.7018122515	 0.104569
H	-4.4771680044	-1.6040472198	 2.8666770455	 0.09579
H	-2.9821765109	-1.7570697908	 3.7900541265	 0.09373
H	-4.2135880562	 0.1788590907	 4.2991196477	 0.289871
H	-2.4328689777	 0.9612490047	 1.4205465674	 0.103634
65.0239	76.0393	118.6941	147.3325	193.4796	237.9952	247.1477	332.9659	368.0112	420.4208	422.2593	518.9995	639.9878	722.7016	784.3965	848.7036	874.8636	921.1062	931.8788	967.9714	1001.8073	1028.5018	1062.9895	1075.5273	1079.9441	1103.1698	1158.7372	1176.9943	1206.4843	1216.7545	1247.621	1257.6401	1278.0408	1289.6141	1326.0461	1342.9077	1364.8114	1387.8599	1416.9139	1466.834	1483.7873	1499.9765	1502.493	1507.4248	1724.4737	2935.0358	2947.0755	2965.8088	3006.4043	3025.6232	3037.2397	3053.7688	3066.497	3093.5881	3207.9206	3816.1673	3839.172
OCC1CCC(CO)=C1	OC[C@H]1CCC(=C1)CO	
InChI=1S/C7H12O2/c8-4-6-1-2-7(3-6)5-9/h3,6,8-9H,1-2,4-5H2	InChI=1S/C7H12O2/c8-4-6-1-2-7(3-6)5-9/h3,6,8-9H,1-2,4-5H2/t6-/m0/s1
