18
gdb 35363	3.818	1.4269	1.26497	1.5967	80.21	-0.225	0.0433	0.2683	1022.4618	0.149319	-364.732603	-364.725484	-364.724539	-364.763911	29.283	
C	-0.0883144182	-1.2433681908	-0.163052544	-0.444908
C	-0.0375552423	-0.0460074874	-0.0702108316	 0.329729
C	 0.0033133526	 1.4031522764	 0.0667674088	-0.145022
C	-0.6376293666	 1.9512465294	 1.3918228549	-0.268487
C	 0.254771532	 3.1508368626	 1.6852457423	-0.045952
C	 1.7457966983	 2.9058929385	 1.9124986427	-0.086469
C	 2.1257137242	 1.5710569152	 1.2890312828	-0.185648
N	 1.3862799315	 1.9533853715	 0.0244031014	-0.12345
C	 1.2325716879	 3.3382437159	 0.5601298971	-0.047354
H	-0.127806008	-2.3002850357	-0.2578537686	 0.195139
H	-0.5248443001	 1.8535133614	-0.7828697529	 0.108762
H	-1.6805325775	 2.2432371915	 1.2406723244	 0.107074
H	-0.6172632924	 1.1980730783	 2.1843481162	 0.113214
H	-0.1546161636	 4.0281009195	 2.1732031976	 0.090217
H	 2.3144421289	 3.4745704479	 2.6383766524	 0.088653
H	 3.1946893452	 1.4833289468	 1.0783062394	 0.111748
H	 1.778250838	 0.6479420893	 1.7644376434	 0.11065
H	 1.39077866	 4.2193024595	-0.0481345564	 0.092104
116.6405	153.6828	273.9709	367.6808	405.1327	502.3342	513.9091	616.5135	633.9842	654.1989	704.1375	731.2958	785.9307	806.1487	821.9599	888.1869	937.7781	975.6217	989.8889	998.1561	1007.9729	1040.6613	1052.3761	1061.5406	1074.6836	1105.0417	1120.3405	1189.6118	1192.7447	1230.5184	1280.6434	1293.9048	1307.9677	1317.554	1357.2784	1390.3546	1495.5571	1517.0136	2238.109	3027.3313	3045.1319	3058.9038	3096.0671	3101.3928	3177.8136	3182.4339	3199.3976	3503.9891
C#CC1CC2C3CN1C23	C#C[C@H]1C[C@H]2[C@H]3CN1[C@@H]23	
InChI=1S/C8H9N/c1-2-5-3-6-7-4-9(5)8(6)7/h1,5-8H,3-4H2	InChI=1S/C8H9N/c1-2-5-3-6-7-4-9(5)8(6)7/h1,5-8H,3-4H2/t5-,6-,7+,8-/m0/s1
