21
gdb 115510	2.63374	1.09803	1.01828	1.3221	74.64	-0.256	0.0779	0.3338	1305.5767	0.182354	-461.360756	-461.351017	-461.350073	-461.396277	34.83	
C	 0.1553248808	 0.5402423664	 1.0367587985	-0.242969
O	-0.2692905446	-0.7071990772	 0.5191940767	-0.247677
C	-1.4365588627	-0.6186730061	-0.2691673336	 0.222258
C	-1.7903540125	-2.0246430362	-0.7483342584	-0.276162
C	-2.6348351672	-2.5844140676	 0.4162002767	-0.00561
C	-1.811804659	-3.4303741826	 1.3849420909	-0.096582
O	-2.6873183731	-3.8734321486	 2.4149812215	-0.4258
C	-3.1906186178	-1.3038285102	 1.0869717163	-0.085009
O	-2.5521749128	-0.1782645811	 0.4622796084	-0.26169
H	 1.0571158952	 0.3545135841	 1.6243534001	 0.122092
H	 0.3968131978	 1.2456162426	 0.2266586237	 0.104108
H	-0.6116192755	 0.9935474096	 1.675268637	 0.12621
H	-1.2807060769	 0.1164782125	-1.071981854	 0.06904
H	-2.3856839281	-1.9520168919	-1.662039064	 0.107538
H	-0.8964667319	-2.614004617	-0.9636930845	 0.112462
H	-3.4544504843	-3.2077445116	 0.0484221721	 0.083145
H	-1.3729575827	-4.2849168698	 0.8453347185	 0.082937
H	-0.9866043468	-2.8254910234	 1.7853334949	 0.108835
H	-2.1585088376	-4.2905220545	 3.1008298176	 0.287209
H	-4.2686400793	-1.1859742784	 0.9418376714	 0.103642
H	-2.991790551	-1.3078903489	 2.1641053602	 0.112022
40.3718	83.6409	133.8765	135.4887	197.101	220.9822	250.2348	284.0163	369.4509	406.0762	464.9166	542.7603	715.5007	777.5555	841.9955	860.8583	936.7369	940.7017	965.6596	995.5674	1023.7564	1064.9816	1085.4895	1099.9093	1130.541	1146.1967	1182.3769	1184.5402	1213.2453	1227.5932	1242.6745	1275.5785	1290.3767	1327.8682	1345.9732	1372.4441	1394.6174	1402.4766	1450.711	1475.6172	1483.3762	1484.3226	1515.819	1522.7283	1531.181	2971.1068	2988.3862	3006.633	3029.9786	3042.0375	3063.8537	3063.9806	3074.0156	3087.3411	3121.0999	3122.6812	3835.0706
COC1CC(CO)CO1	CO[C@H]1C[C@@H](CO)CO1	
InChI=1S/C6H12O3/c1-8-6-2-5(3-7)4-9-6/h5-7H,2-4H2,1H3	InChI=1S/C6H12O3/c1-8-6-2-5(3-7)4-9-6/h5-7H,2-4H2,1H3/t5-,6+/m0/s1
