17
gdb 82628	2.38144	2.06593	1.55739	2.0956	65.74	-0.2276	0.0575	0.2852	898.3661	0.137358	-458.944134	-458.936972	-458.936028	-458.975209	29.366	
O	-0.1063039505	 1.436350136	-0.0567608409	-0.444038
C	-0.0220898989	 0.0237553114	 0.0014865705	 0.036581
C	 0.4266745302	-0.5775307804	 1.3624098419	-0.000153
C	-0.6676530606	-0.0773346912	 2.329547244	-0.224048
C	-1.8322924697	-0.6332849806	 1.5192057693	-0.189397
C	-1.2503636246	-1.8457063758	 0.8096052778	 0.031873
O	 0.116130154	-1.9697836107	 1.1809131837	-0.259596
C	-1.4196144952	-0.5746976993	 0.0386590373	 0.367305
O	-2.2990503325	-0.4564891551	-1.0189840684	-0.480134
H	 0.7752758816	 1.7879576225	-0.2136392844	 0.289826
H	 0.5685104416	-0.3842088389	-0.8294139576	 0.078782
H	 1.4697413554	-0.4643649998	 1.6532532161	 0.076691
H	-0.5735233614	-0.527556802	 3.3214936979	 0.10323
H	-0.6757523565	 1.011322323	 2.4084317251	 0.113516
H	-2.8699150097	-0.5939533699	 1.8207098079	 0.093939
H	-1.7673691365	-2.7737760629	 0.6129600873	 0.114058
H	-2.4875152366	 0.4836756638	-1.1263204179	 0.291565
194.8407	210.0838	278.9165	305.5589	352.3065	398.1093	459.1804	513.2728	597.6606	614.5332	659.9512	771.9488	800.4427	874.1602	898.111	912.2892	926.5988	961.5319	976.8133	1015.1878	1019.0383	1048.0121	1065.7975	1119.908	1146.1338	1162.4103	1198.8467	1216.1416	1246.0487	1283.0547	1291.5887	1305.1526	1333.8377	1343.9865	1420.3505	1473.4067	1485.5618	3024.9969	3067.198	3127.4871	3138.9382	3215.4537	3230.9216	3781.7893	3825.4155
OC1C2CC3C(O2)C13O	O[C@H]1[C@H]2C[C@@H]3[C@H](O2)[C@]13O	
InChI=1S/C6H8O3/c7-4-3-1-2-5(9-3)6(2,4)8/h2-5,7-8H,1H2	InChI=1S/C6H8O3/c7-4-3-1-2-5(9-3)6(2,4)8/h2-5,7-8H,1H2/t2-,3-,4+,5+,6-/m1/s1
