19
gdb 63117	2.21275	1.65891	1.18474	2.137	84.1	-0.2251	0.0398	0.2649	1114.5397	0.156892	-385.826514	-385.817394	-385.81645	-385.859519	35.687	
C	-0.0434387309	 1.5580000614	 0.0460765488	-0.461611
C	 0.0696080954	 0.0492262079	 0.0434830899	 0.351543
O	-1.0938377784	-0.5831438699	-0.4263963694	-0.460048
C	 1.3254765391	-0.7237214811	-0.2579543188	-0.175606
C	 2.5787788181	-0.0518104553	 0.3042425507	-0.244791
C	 1.9415235854	-0.0625519767	 1.7299138059	-0.301402
C	 0.6860772394	-0.7604875679	 1.1690822941	 0.13561
C	-0.0159308635	-1.7951789272	 1.8457031211	 0.221463
C	-0.5741506214	-2.6595892612	 2.470494208	-0.424722
H	 0.8401168976	 2.0516791695	 0.4548674165	 0.124179
H	-0.1822067495	 1.9268350647	-0.9779968524	 0.109064
H	-0.9142374272	 1.8623396329	 0.6342134183	 0.134105
H	-1.1631212703	-0.4021986788	-1.3703928723	 0.282311
H	 1.3011434957	-1.5120266213	-1.0015028844	 0.095982
H	 3.4592280998	-0.6948598765	 0.2478682335	 0.111237
H	 2.8379583283	 0.9229768358	-0.120664078	 0.0996
H	 2.482543647	-0.7127698454	 2.4186001379	 0.120614
H	 1.7775589261	 0.9017280662	 2.2191916995	 0.101659
H	-1.0833417908	-3.4205718669	 3.0072082712	 0.180812
123.604	145.5438	194.7406	238.7846	255.3588	266.6956	316.9579	370.0686	412.8492	455.6901	505.5992	562.0602	572.1767	619.2284	642.6809	686.0858	703.0079	799.2896	894.1938	938.2956	950.2925	963.9446	996.1217	1029.5385	1082.6744	1101.1172	1130.0313	1186.5898	1213.931	1221.9666	1250.4353	1271.4508	1299.3907	1315.8721	1413.7142	1439.3698	1474.8818	1497.8675	1499.6613	1506.9611	2231.0077	3029.0941	3050.4875	3062.9739	3095.9858	3103.8896	3127.1719	3134.0299	3182.3329	3505.2734	3796.6687
CC1(O)C2CCC12C#C	C[C@@]1(O)[C@H]2CC[C@@]12C#C	
InChI=1S/C8H10O/c1-3-8-5-4-6(8)7(8,2)9/h1,6,9H,4-5H2,2H3	InChI=1S/C8H10O/c1-3-8-5-4-6(8)7(8,2)9/h1,6,9H,4-5H2,2H3/t6-,7-,8-/m1/s1
