18
gdb 19094	3.53528	2.70195	2.70077	0.127	73.21	-0.2478	0.083	0.3308	674.5466	0.15762	-310.600894	-310.595743	-310.594798	-310.629628	23.343	
C	-0.0173426174	 1.5339941668	 0.0952711624	-0.237124
C	 1.5224577507	 1.4798955328	-0.0319010813	-0.040249
C	 2.206501757	 0.7824341834	 1.2119766488	-0.040249
C	 1.1768533336	 0.3163710742	 2.2668197871	-0.237124
C	 0.6756746967	-0.7048242211	 1.2198872992	-0.040249
C	-0.0083679786	-0.0073632636	-0.0239896706	-0.040249
C	 1.3943728508	 0.0765425725	-0.7284396957	-0.037965
C	 2.06487419	-0.6071107791	 0.4908134526	-0.037965
H	-0.4697593659	 2.0043385896	 0.9743012551	 0.090661
H	-0.4549241044	 1.9796106548	-0.8042325155	 0.0938
H	 2.0608856034	 2.3260857497	-0.46005533	 0.057893
H	 3.1575245163	 1.2079376055	 1.5340962383	 0.057893
H	 1.6848323013	-0.2021305968	 3.0867419133	 0.0938
H	 0.4751233414	 1.0409241966	 2.6924910847	 0.090661
H	 0.224635395	-1.6414874533	 1.5492567004	 0.057893
H	-0.8720061228	-0.5233343001	-0.4448952661	 0.057893
H	 1.575225344	-0.1152245183	-1.7852851838	 0.05534
H	 2.823845289	-1.3883510736	 0.4852444613	 0.055341
394.3099	400.0847	447.5655	623.1144	679.2129	694.5482	775.9036	779.5191	799.0091	826.0088	864.0233	870.4578	932.789	946.8154	948.316	950.4213	982.3653	991.6125	1038.3378	1042.3094	1091.0585	1098.0769	1100.0707	1131.6641	1162.707	1175.4811	1187.3589	1192.0876	1228.0755	1253.7333	1262.4917	1265.4018	1281.9753	1283.4828	1313.2722	1327.037	1474.6959	1506.7657	3035.1039	3041.1229	3081.5905	3088.1594	3089.2029	3090.5643	3101.7935	3101.9494	3110.213	3125.5033
C1C2C3CC4C1C2C34	C1[C@H]2[C@H]3C[C@H]4[C@@H]1[C@@H]2[C@@H]34	
InChI=1S/C8H10/c1-3-5-2-6-4(1)7(3)8(5)6/h3-8H,1-2H2	InChI=1S/C8H10/c1-3-5-2-6-4(1)7(3)8(5)6/h3-8H,1-2H2/t3-,4+,5+,6-,7+,8-
