22
gdb 88970	2.88905	1.10849	0.95588	2.5606	82.63	-0.2186	0.0846	0.3032	1341.055	0.192354	-404.296767	-404.286995	-404.286051	-404.331998	36.479	
C	-0.3060956684	 1.5103589254	 0.2925719565	-0.31502
N	-0.0026770504	 0.0939051387	 0.1345191043	-0.074558
C	 1.3467539373	-0.2677506488	-0.2776446931	-0.265096
C	 0.8603786864	-0.5941442338	 1.0948089606	 0.029359
C	 1.4724757427	 0.0650097188	 2.3193799107	-0.310516
C	 0.560078328	 0.098299753	 3.5393012468	 0.438816
C	 0.0729330984	-1.2318301603	 4.0740222731	-0.463952
C	 0.643903315	 1.2511050365	 4.4497870402	-0.234892
O	-0.4385259061	 1.1322499276	 3.5228917168	-0.267691
H	 0.5648499288	 2.1392990007	 0.536140464	 0.091876
H	-0.7258431853	 1.8774033547	-0.6498051773	 0.11559
H	-1.0454098517	 1.6390151639	 1.0859614852	 0.147398
H	 1.434821787	-1.0379072301	-1.0404605306	 0.110054
H	 2.0822620726	 0.533617542	-0.3589894131	 0.099754
H	 0.5413987127	-1.6214705673	 1.2682944138	 0.087951
H	 2.3815795662	-0.4914487039	 2.5867685812	 0.105566
H	 1.788266607	 1.085776775	 2.0884252052	 0.103459
H	 0.9168366401	-1.8802756029	 4.3337134741	 0.119202
H	-0.5398631941	-1.0831036347	 4.966142037	 0.126509
H	-0.5369418029	-1.7532156738	 3.3302070072	 0.137293
H	 0.374527338	 1.133168765	 5.498943921	 0.110146
H	 1.3501630388	 2.0551841046	 4.2441635165	 0.10875
28.6174	99.3208	146.1389	194.8237	203.3072	251.9522	307.584	350.6333	381.0454	388.5867	423.0269	463.7734	539.6088	729.2429	747.82	787.8899	833.2427	902.5034	917.5029	936.9789	959.4803	1024.3426	1043.8431	1068.907	1106.3524	1117.4258	1131.0645	1135.8108	1138.3969	1169.0439	1178.8975	1205.9493	1238.3645	1284.0615	1325.1821	1342.566	1394.2934	1417.0345	1436.9477	1451.9115	1467.639	1484.0977	1485.3376	1501.7998	1506.3419	1514.8382	1531.4092	2975.0819	3019.4149	3039.914	3067.916	3075.7235	3076.1765	3090.1139	3104.7899	3110.2272	3126.1086	3129.7466	3160.4415	3162.8937
CN1CC1CC1(C)CO1	CN1C[C@H]1C[C@@]1(C)CO1	
InChI=1S/C7H13NO/c1-7(5-9-7)3-6-4-8(6)2/h6H,3-5H2,1-2H3	InChI=1S/C7H13NO/c1-7(5-9-7)3-6-4-8(6)2/h6H,3-5H2,1-2H3/t6-,7+,8?/m1/s1
