18
gdb 102337	1.72373	1.55844	1.17835	3.2339	78.38	-0.283	-0.0067	0.2763	1184.7671	0.143478	-401.907669	-401.897201	-401.896257	-401.942883	37.146	
C	 0.1121810295	 1.55421207	 0.0099701602	-0.403137
C	 0.0368370875	 0.0293339799	-0.0570042833	-0.208532
C	-1.4226283922	-0.506721291	 0.0226758197	 0.028105
O	-2.1182194826	-0.0553738616	 1.176373071	-0.265403
C	-1.615696362	-0.4952889393	 2.4313997551	-0.260955
C	-2.2024897062	-0.0537598669	-1.1365010217	 0.331756
C	-2.8098624109	 0.3170552525	-2.102381483	-0.411738
C	-1.3746035921	-1.9973717237	-0.0014303043	 0.276276
N	-1.3083699236	-3.150680673	 0.0139588146	-0.342524
H	 1.1547162651	 1.8795405178	-0.0431269631	 0.121182
H	-0.4306513573	 2.0107138727	-0.8219272814	 0.138201
H	-0.3184305086	 1.9339435772	 0.9399624684	 0.134138
H	 0.4709019287	-0.3424477529	-0.9902492239	 0.130482
H	 0.6102824488	-0.426410071	 0.7562833179	 0.119491
H	-1.5438674317	-1.5889465744	 2.4793354855	 0.141021
H	-0.6358757417	-0.0596394058	 2.6641624901	 0.118726
H	-2.3382017709	-0.1523867264	 3.1739972609	 0.142828
H	-3.3612103397	 0.639179586	-2.9517646328	 0.210085
95.2871	114.2663	128.1988	135.7272	167.7932	187.5984	202.7819	256.8082	298.5885	356.9617	429.9871	491.1997	514.6252	570.1549	592.5672	649.8839	677.5262	681.7278	785.9313	943.7715	969.6696	1009.672	1065.6861	1100.1383	1133.8045	1179.7062	1189.8086	1235.2046	1311.163	1359.6179	1411.9066	1470.833	1481.641	1492.2011	1498.86	1503.1947	1511.7898	2249.8783	2352.588	3010.203	3051.4432	3055.7267	3072.9514	3093.8087	3123.0582	3129.9281	3134.5977	3499.1412
CCC(OC)(C#C)C#N	CC[C@@](OC)(C#C)C#N	
InChI=1S/C7H9NO/c1-4-7(5-2,6-8)9-3/h1H,5H2,2-3H3	InChI=1S/C7H9NO/c1-4-7(5-2,6-8)9-3/h1H,5H2,2-3H3/t7-/m0/s1
