13
gdb 19782	3.34451	2.60991	1.76593	4.0078	57.06	-0.2371	-0.0462	0.1909	717.6091	0.096572	-398.553229	-398.547361	-398.546417	-398.583168	22.857	
O	 0.007146224	 0.0128492012	-0.024897823	-0.30822
C	-0.0137418332	 1.2158879487	 0.0160981566	 0.447181
C	-1.2585966408	 2.0835699863	-0.0440992253	-0.173326
N	-1.3647884852	 3.1448876698	 0.992280835	-0.305491
C	-0.8215058678	 3.4793100384	-0.3305586827	-0.082316
C	 0.7082174985	 3.4931011222	-0.3536840293	 0.052093
O	 1.3000265554	 3.1469574634	 0.8887860597	-0.21601
C	 1.2041008394	 2.1229801824	-0.1123281143	-0.103325
H	-2.1595800415	 1.6329418193	-0.4446634438	 0.113417
H	-2.3409862217	 3.4342695918	 1.0307002363	 0.243482
H	-1.3688154925	 4.1298041977	-1.0028942159	 0.103384
H	 1.2433389493	 4.2168828227	-0.961339098	 0.111247
H	 2.1394062761	 1.7087746761	-0.4775176952	 0.117884
148.4974	240.3732	334.0569	429.5957	546.9937	571.4439	681.2715	730.1618	813.9019	825.5259	846.3247	875.3985	879.688	919.0566	956.306	1019.804	1038.6757	1096.1839	1127.4534	1147.8361	1196.2835	1234.2624	1242.8195	1309.9594	1359.7861	1395.2884	1405.4174	1843.7457	3156.5562	3167.3929	3178.8546	3187.7703	3483.3669
O=C1C2NC2C2OC12	O=C1[C@H]2N[C@H]2[C@H]2O[C@@H]12	
InChI=1S/C5H5NO2/c7-3-1-2(6-1)4-5(3)8-4/h1-2,4-6H	InChI=1S/C5H5NO2/c7-3-1-2(6-1)4-5(3)8-4/h1-2,4-6H/t1-,2+,4+,5-/m0/s1
