19
gdb 64175	2.2035	1.52934	1.36496	4.2909	75.37	-0.2512	0.0135	0.2647	1076.6868	0.157528	-419.201508	-419.191907	-419.190963	-419.235212	36.168	
C	-0.1544040872	 1.5341584728	-0.0315321779	-0.433806
C	-0.0281205979	 0.0144345364	-0.0488567477	 0.216851
N	-1.3273972463	-0.5698949765	-0.2646678753	-0.564394
C	 1.2299334425	-0.4590852133	-0.8398744501	-0.124731
O	 1.9726301119	-0.6270405324	 0.3895014632	-0.302378
C	 0.7724398376	-0.5666613848	 1.1875791135	 0.231574
C	 0.9441645731	 0.2382311465	 2.4660167106	-0.456514
C	 0.3216372297	-1.9378752703	 1.5124129629	 0.280035
N	-0.0302543308	-3.0159237966	 1.7373551797	-0.352801
H	 0.8101033313	 2.016286474	 0.1422271149	 0.134227
H	-0.5235477315	 1.8787243381	-1.0044415766	 0.118559
H	-0.8632136933	 1.8600790112	 0.733939371	 0.136096
H	-1.7862769328	-0.1624638065	-1.0718972247	 0.230462
H	-1.2791674158	-1.5743543301	-0.3990651056	 0.24646
H	 1.0863392469	-1.4151220804	-1.3608451674	 0.105844
H	 1.7143321636	 0.2587317009	-1.5096498176	 0.108494
H	 1.3097805531	 1.2397358508	 2.2364844397	 0.131975
H	-0.0083287056	 0.3121906426	 2.9984495699	 0.146156
H	 1.6673789313	-0.2552578825	 3.1209670177	 0.147892
87.537	144.1551	183.3486	207.3626	243.2656	267.1332	285.0573	316.9217	357.1998	379.9418	414.1297	454.5894	555.2613	585.9654	645.7173	679.2734	789.8611	871.3528	892.2753	903.5502	925.2654	995.7232	1009.0153	1076.1069	1128.4385	1137.3365	1163.997	1179.8318	1199.212	1283.2738	1331.0172	1358.9993	1401.0485	1411.8511	1473.2951	1483.7237	1496.8924	1502.529	1517.6204	1659.5004	2345.1029	3012.4439	3038.2214	3053.9295	3080.145	3105.5604	3125.6933	3134.287	3149.8242	3509.0623	3593.796
CC1(N)COC1(C)C#N	C[C@@]1(N)CO[C@]1(C)C#N	
InChI=1S/C6H10N2O/c1-5(8)4-9-6(5,2)3-7/h4,8H2,1-2H3	InChI=1S/C6H10N2O/c1-5(8)4-9-6(5,2)3-7/h4,8H2,1-2H3/t5-,6-/m1/s1
