18
gdb 69703	3.80485	1.346	1.21804	2.4754	75.89	-0.2357	-0.0305	0.2052	1062.5924	0.146959	-401.896807	-401.889069	-401.888125	-401.928824	30.56	
C	-0.0086732193	 1.521213815	 0.0243871944	-0.481482
C	 0.0401030697	 0.0244928533	 0.0568229439	 0.366244
C	-0.8631771944	-0.8317448859	 0.9054214084	-0.351602
C	 0.6322065274	-0.9665179013	 1.0628911764	-0.121473
C	 1.2389874876	-1.7086620096	-0.1344662606	-0.113759
N	 0.6668347792	-0.6949289052	-1.0937357398	-0.16634
C	-0.1583208198	-1.7306767244	-1.7939578334	-0.320057
C	 0.4183216952	-2.8123222103	-0.8483275107	 0.385292
O	 0.3066015034	-3.9957256188	-0.7440847327	-0.283146
H	 0.9644968564	 1.9351342069	-0.2557356596	 0.130094
H	-0.7445786286	 1.8673168292	-0.7116384727	 0.124479
H	-0.2963676858	 1.9255591046	 0.9997644894	 0.118514
H	-1.3456171945	-0.2894190413	 1.7126514988	 0.119549
H	-1.4694412378	-1.6410916947	 0.5099210135	 0.120714
H	 1.1424535335	-0.7897279828	 2.0010075197	 0.098777
H	 2.3251805507	-1.8342058956	-0.1243444796	 0.103758
H	-1.2439202644	-1.5935425108	-1.7539391132	 0.133719
H	 0.1418949114	-1.8613314483	-2.8391195122	 0.136718
95.5194	169.4518	201.4367	303.6065	308.8837	389.0478	417.0578	470.8109	552.8531	614.6002	654.2955	739.3849	773.5008	836.5601	877.5673	892.8302	934.1819	953.8557	975.2107	997.2336	1003.5558	1043.5939	1066.7683	1083.7871	1101.902	1115.0792	1157.9747	1175.3247	1232.864	1247.1332	1258.3388	1274.6343	1376.9889	1421.5771	1451.1831	1475.6389	1496.2263	1502.2947	1901.9061	3027.665	3042.6351	3074.9958	3091.0831	3093.1634	3113.9012	3123.0336	3192.6024	3203.8199
CC12CC1C1N2CC1=O	C[C@]12C[C@H]1[C@@H]1N2CC1=O	
InChI=1S/C7H9NO/c1-7-2-4(7)6-5(9)3-8(6)7/h4,6H,2-3H2,1H3	InChI=1S/C7H9NO/c1-7-2-4(7)6-5(9)3-8(6)7/h4,6H,2-3H2,1H3/t4-,6-,7-/m0/s1
