16
gdb 44159	3.03413	1.12384	0.96461	5.3557	73.44	-0.2557	-0.0277	0.2281	1217.6377	0.124207	-400.750215	-400.742236	-400.741292	-400.783698	29.515	
O	 0.2181398578	 0.0370527365	 0.079916564	-0.301175
C	 0.1248206163	 1.2287932153	 0.1331417704	 0.408849
C	-1.092507859	 2.193684823	 0.1121934984	-0.367672
C	-0.0881155456	 3.3425820198	-0.0622768601	-0.092922
C	 0.8769493879	 3.4095698082	 1.0678706673	-0.007394
C	 0.5392471819	 3.1075795599	 2.5267326468	-0.376246
C	 1.7433059666	 2.861741412	 3.3207448385	 0.266576
N	 2.7048484459	 2.6848342208	 3.9360716977	-0.298332
C	 1.1166663621	 2.3511304733	 0.0007919991	-0.180664
H	-1.6876934189	 2.0022342157	-0.7852419752	 0.141896
H	-1.7613892888	 2.2186527594	 0.9768525454	 0.123583
H	-0.2079557038	 4.1599702998	-0.7610557933	 0.114184
H	 1.5921573498	 4.2231193267	 0.9741960728	 0.12501
H	 0.0052273268	 3.9584415288	 2.9668722552	 0.158466
H	-0.1194613923	 2.2394339149	 2.6194445915	 0.164553
H	 2.0450402935	 2.3216231956	-0.5557882484	 0.121287
44.3207	108.395	136.6225	241.5158	338.3378	385.7478	447.9757	484.465	521.7854	594.9848	637.5576	753.7468	794.8953	845.2529	899.8936	942.5816	947.1192	963.5953	984.3694	1009.7691	1027.501	1087.0628	1106.3888	1140.1828	1180.8216	1214.9155	1248.7518	1290.9622	1318.3089	1330.4087	1438.5184	1463.2415	1467.9615	1887.3133	2365.8884	3044.6144	3061.9469	3096.5967	3113.2724	3146.5564	3198.4332	3207.8126
O=C1CC2C(CC#N)C12	O=C1C[C@H]2[C@@H](CC#N)[C@@H]12	
InChI=1S/C7H7NO/c8-2-1-4-5-3-6(9)7(4)5/h4-5,7H,1,3H2	InChI=1S/C7H7NO/c8-2-1-4-5-3-6(9)7(4)5/h4-5,7H,1,3H2/t4-,5+,7-/m1/s1
