21
gdb 89513	2.3266	1.75194	1.33017	2.3516	76.93	-0.2496	0.0738	0.3234	1055.6661	0.183997	-424.22487	-424.216712	-424.215768	-424.257218	32.856	
C	-0.1764575331	 1.5577141458	 0.1446575829	-0.487428
C	 0.0307979756	 0.0590419494	-0.0056892717	 0.33351
C	-1.2192573262	-0.8463232838	 0.207570021	-0.313859
C	-0.4412245481	-1.7139815615	 1.2363666601	 0.146718
O	-0.2003716818	-3.0525903952	 0.8740416927	-0.43808
C	 0.7804130401	-0.7347375202	 1.13033591	-0.116104
C	 1.989246606	-1.343303223	 0.4346220129	-0.116534
O	 1.5583926817	-1.5210289589	-0.9204679471	-0.270326
C	 0.8508107998	-0.3255245222	-1.2524066153	-0.136771
H	 0.7787442392	 2.0942091338	 0.1732634703	 0.115005
H	-0.75896866	 1.9627883281	-0.6917836115	 0.11886
H	-0.720593884	 1.7919358375	 1.0653825412	 0.116889
H	-2.0750933871	-0.3147987398	 0.6335341015	 0.09748
H	-1.5620407908	-1.4010671064	-0.6719521637	 0.097136
H	-0.8949992897	-1.7516532505	 2.2293873629	 0.08594
H	 0.2006294839	-3.0364357899	-0.0061885286	 0.287567
H	 1.0240479589	-0.1854734015	 2.0418617145	 0.066053
H	 2.8592972768	-0.6700524656	 0.4765615029	 0.09386
H	 2.2742333163	-2.3235934122	 0.8226147413	 0.123498
H	 0.2413328629	-0.533392904	-2.1365277045	 0.108941
H	 1.5659197798	 0.4757066098	-1.5001497318	 0.087645
83.7241	217.1605	226.2105	249.6124	308.1871	322.8004	390.7967	427.8947	490.2491	567.0451	584.3667	608.6041	741.0135	801.0518	812.6862	861.3476	903.0904	931.8661	949.7128	964.575	1005.4849	1007.3917	1027.2712	1065.2854	1082.342	1129.5857	1171.0296	1177.526	1199.8594	1231.7736	1242.4753	1269.2054	1278.7967	1293.3085	1299.3916	1333.114	1359.25	1398.0999	1414.4293	1451.9681	1473.4841	1493.5768	1496.0386	1498.9396	1510.7547	2970.7796	2988.2912	3021.2596	3043.4306	3076.8187	3082.6768	3086.0904	3094.5876	3095.4287	3101.742	3110.508	3741.2896
CC12CC(O)C1COC2	C[C@]12C[C@@H](O)[C@H]1COC2	
InChI=1S/C7H12O2/c1-7-2-6(8)5(7)3-9-4-7/h5-6,8H,2-4H2,1H3	InChI=1S/C7H12O2/c1-7-2-6(8)5(7)3-9-4-7/h5-6,8H,2-4H2,1H3/t5-,6-,7-/m1/s1
