23
gdb 60126	2.64253	1.06547	0.91615	2.2405	82.82	-0.2264	0.0695	0.2959	1423.9672	0.202395	-425.406569	-425.395629	-425.394685	-425.443332	39.804	
C	 0.2702346663	 1.5216090365	-0.2921637001	-0.395492
C	 0.0358396783	 0.0316137003	-0.0377889683	 0.149359
C	-1.44032061	-0.3426542702	-0.0691497965	-0.392397
O	 0.6778177359	-0.8003507537	-1.0152239512	-0.278427
C	 2.0788202294	-0.8038466453	-0.9614837592	 0.054166
C	 2.789833216	-1.6640439938	-1.9813769964	-0.111446
C	 2.0329088318	-2.5575598583	-2.9379977792	-0.3933
C	 2.7754954309	-0.1496231803	-2.1332350452	 0.089256
O	 1.9617363982	 0.441940436	-3.0994779591	-0.433215
H	 1.3362606844	 1.7618955165	-0.3087218495	 0.131264
H	-0.1644560172	 1.8271935741	-1.249769162	 0.120303
H	-0.1990934619	 2.1156282564	 0.4985571432	 0.116171
H	 0.4524973153	-0.2280340993	 0.9487464945	 0.074539
H	-1.8734672308	-0.1062644303	-1.0464861405	 0.121304
H	-1.5682391542	-1.4126166572	 0.1129602645	 0.125663
H	-1.9925922723	 0.2124313382	 0.6946212459	 0.116577
H	 2.4866356085	-0.7283637608	 0.0455809005	 0.084981
H	 3.7303855312	-2.0767443543	-1.6234640074	 0.084138
H	 1.1717825074	-2.0441750577	-3.3685479113	 0.122642
H	 2.6818551466	-2.8659696824	-3.7638835573	 0.117348
H	 1.6703106765	-3.460066588	-2.4355106987	 0.115709
H	 3.6971827772	 0.4056084213	-1.984487533	 0.092877
H	 1.0523541025	 0.2963456023	-2.8039978537	 0.28798
27.1486	82.1259	113.0939	122.4022	204.5176	207.2269	217.2246	246.715	293.0581	342.6732	416.5172	425.888	466.6168	513.8168	604.0807	665.3935	736.7441	799.8569	832.1949	895.3931	925.8302	942.8584	946.2679	988.7914	1030.2962	1080.488	1103.9275	1140.8554	1145.4953	1155.4022	1160.0434	1179.9393	1201.8467	1238.2935	1327.9685	1340.5983	1367.2313	1374.4993	1399.0894	1407.917	1417.0657	1419.277	1459.0015	1480.4915	1482.2929	1489.6865	1494.6777	1501.3278	1506.3031	2973.2733	3037.1582	3041.8361	3043.3458	3099.0856	3103.5332	3105.1631	3115.5573	3123.0374	3124.8144	3126.1845	3139.2867	3148.5992	3739.8444
CC(C)OC1C(C)C1O	CC(C)O[C@H]1[C@@H](C)[C@H]1O	
InChI=1S/C7H14O2/c1-4(2)9-7-5(3)6(7)8/h4-8H,1-3H3	InChI=1S/C7H14O2/c1-4(2)9-7-5(3)6(7)8/h4-8H,1-3H3/t5-,6+,7-/m0/s1
