16
gdb 50393	3.68734	0.99538	0.91238	3.5109	76.36	-0.2218	-0.0457	0.1762	1271.0625	0.124278	-437.918995	-437.910784	-437.90984	-437.95258	29.514	
O	 0.0930901012	-0.1205837436	 0.029731162	-0.245976
C	 0.051238172	 1.0770667795	 0.1428869402	 0.16075
C	 1.2662223308	 1.9836546106	 0.0040904094	-0.080581
C	 1.4785827165	 2.901617097	 1.2482417933	-0.353401
C	 2.6634001831	 2.245130482	 1.9284415865	 0.190456
C	 3.1795645013	 2.6159318908	 3.22189341	 0.056555
O	 2.7048751931	 3.484682605	 3.9309174425	-0.303969
C	 3.157227362	 1.2845460799	 1.1142566917	-0.075121
N	 2.5024386778	 1.1979958025	-0.0928541012	-0.278903
H	-0.9019619199	 1.6144442859	 0.3433489726	 0.097086
H	 1.1039370025	 2.5811441415	-0.9030665253	 0.118037
H	 1.7044808063	 3.9295768494	 0.9474454127	 0.133536
H	 0.5943269634	 2.9515533744	 1.8926487819	 0.131443
H	 4.068621561	 2.0298293204	 3.5498662059	 0.053202
H	 4.0017111392	 0.6332773553	 1.3059313595	 0.138531
H	 2.3929584397	 0.2782221795	-0.5025488019	 0.258356
56.4991	129.5645	141.8497	172.536	259.0271	333.1211	362.7241	479.8485	497.4051	580.8652	686.4924	728.8068	778.9859	834.7451	880.0058	916.3306	932.9844	1016.3217	1027.0189	1060.5988	1082.5579	1166.5616	1180.4147	1225.3433	1281.8781	1305.5842	1342.192	1366.3803	1404.0608	1429.1792	1450.9845	1498.1618	1667.3157	1759.9941	1827.9387	2862.8794	2895.8605	3018.8498	3047.4968	3077.1629	3215.765	3569.3948
O=CC1CC(C=O)=CN1	O=C[C@H]1CC(=CN1)C=O	
InChI=1S/C6H7NO2/c8-3-5-1-6(4-9)7-2-5/h2-4,6-7H,1H2	InChI=1S/C6H7NO2/c8-3-5-1-6(4-9)7-2-5/h2-4,6-7H,1H2/t6-/m1/s1
