18
gdb 74182	2.40535	1.66097	1.09224	3.7279	80.96	-0.2188	-0.0515	0.1673	1118.3929	0.148258	-401.959119	-401.951106	-401.950162	-401.991704	30.736	
C	-0.2760863931	 1.486489277	 0.092596453	-0.486484
C	-0.0205584232	 0.0078784507	 0.0414516732	 0.349526
C	-0.0035305802	-0.6921104165	-1.1088601385	-0.293027
C	 0.1760878695	-2.1465177429	-1.1421504324	 0.354407
O	 0.3369108704	-2.7695803251	-2.1748251289	-0.337537
C	 0.0699008861	-2.8830612244	 0.1986259869	-0.270494
N	 0.3217267581	-2.1214388326	 1.4212151964	-0.10384
C	 1.5537478549	-1.3647825795	 1.5309942006	-0.241203
C	 0.2386068645	-0.6596114212	 1.3391876297	-0.114851
H	 0.5537737887	 2.0099389827	 0.5829789576	 0.140284
H	-0.4123045416	 1.9057260396	-0.9063477589	 0.136282
H	-1.174119975	 1.7026702596	 0.6846588693	 0.141161
H	-0.1377652529	-0.2058601774	-2.0704459609	 0.10291
H	-0.9513516582	-3.2821240693	 0.2560060047	 0.136141
H	 0.7403975374	-3.7464791388	 0.1723293993	 0.138106
H	 2.0219063394	-1.374777381	 2.5120519724	 0.124131
H	 2.2407141468	-1.3428374435	 0.6869303421	 0.125642
H	-0.2160706217	-0.1849454675	 2.2068400945	 0.098845
87.7577	144.5023	183.5806	249.5858	297.3803	348.3256	459.438	461.626	497.4378	542.449	615.5788	628.6336	755.1462	836.9804	851.8066	889.5689	905.7405	983.9646	1016.8566	1032.2514	1052.777	1069.0933	1108.1042	1112.8485	1159.4781	1161.3834	1247.4537	1266.008	1316.7653	1327.4892	1346.9434	1406.7828	1417.2673	1458.241	1475.2393	1482.6298	1502.2844	1679.5809	1765.9771	3024.3588	3028.2451	3074.152	3094.1108	3097.7715	3121.1893	3129.0512	3178.7487	3185.2772
CC1=CC(=O)CN2CC12	CC1=CC(=O)CN2C[C@@H]12	
InChI=1S/C7H9NO/c1-5-2-6(9)3-8-4-7(5)8/h2,7H,3-4H2,1H3	InChI=1S/C7H9NO/c1-5-2-6(9)3-8-4-7(5)8/h2,7H,3-4H2,1H3/t7-,8?/m0/s1
