16
gdb 30141	3.85471	1.08173	1.04975	1.2683	70.41	-0.2428	-0.0036	0.2392	1182.1411	0.124777	-437.896591	-437.888846	-437.887902	-437.929554	28.429	
C	 1.0597496342	 0.993941989	-0.7128666057	-0.426299
C	 0.0253484118	 0.1502848442	-0.0202492808	 0.093683
O	 0.4479183088	-1.1018556629	 0.5315351206	-0.256524
C	-0.0111637622	-0.0978948733	 1.4397040194	-0.079271
C	 0.9859020279	 0.4267455341	 2.3909943463	 0.248123
C	 2.3036017059	 0.1290883325	 2.514908516	-0.108202
O	 2.8020205493	 0.8484607954	 3.5663246448	-0.138417
C	 1.7403644634	 1.545810345	 4.0263344494	 0.07576
N	 0.6386092953	 1.342601239	 3.3834663098	-0.312775
H	 1.9594539989	 1.1033939389	-0.1035851506	 0.12828
H	 1.3402754441	 0.5396320444	-1.6687411614	 0.130853
H	 0.6546273989	 1.9901037366	-0.9199407353	 0.127106
H	-0.9369758868	 0.0887892946	-0.5326907165	 0.09511
H	-0.9873341485	-0.2891700226	 1.8870118784	 0.105747
H	 2.9823806485	-0.5284920788	 2.0027715203	 0.163183
H	 1.9131497905	 2.1921137738	 4.8725097553	 0.153643
61.5385	123.4551	162.5275	208.8479	286.4768	387.9727	435.0982	521.342	641.802	677.599	745.161	787.7871	802.2907	850.2195	865.1509	934.7633	976.8183	996.383	1041.4447	1089.6721	1094.8188	1133.8637	1159.5065	1168.8451	1237.2051	1245.3903	1282.2274	1341.5424	1393.7455	1420.9353	1459.4177	1489.1055	1499.3034	1557.4265	1630.6983	3040.6928	3086.742	3103.6402	3107.3849	3133.7447	3277.2916	3310.7818
CC1OC1C1=COC=N1	C[C@H]1O[C@H]1c1cocn1	
InChI=1S/C6H7NO2/c1-4-6(9-4)5-2-8-3-7-5/h2-4,6H,1H3	InChI=1S/C6H7NO2/c1-4-6(9-4)5-2-8-3-7-5/h2-4,6H,1H3/t4-,6-/m1/s1
