17
gdb 97865	4.18351	0.68524	0.66434	1.725	73.5	-0.259	0.0213	0.2802	1700.9869	0.135508	-458.913635	-458.904397	-458.903453	-458.950292	31.499	
O	 0.3755589366	 0.7018418431	-0.8977420902	-0.399128
C	-0.0098114871	 0.0750021602	 0.3169461957	-0.19505
C	-1.3323485451	-0.5469577978	 0.2656557314	 0.02489
C	-2.4345827098	-1.0306505454	 0.2051421844	 0.1042
C	-3.7661300064	-1.621733107	 0.1332341371	-0.086061
C	-4.6708991588	-0.9543555158	-0.9528983613	-0.121922
O	-5.2880883514	-2.0531502927	-1.5959943149	-0.227426
C	-4.3228098266	-3.0725177622	-1.5404563697	 0.019587
O	-3.7411599233	-3.0023048477	-0.2560456196	-0.242713
H	-0.3231218206	 1.3185486498	-1.1396921544	 0.287069
H	 0.751381812	-0.6883345938	 0.5126178443	 0.147198
H	 0.025094161	 0.7799606965	 1.1630174563	 0.120871
H	-4.24221752	-1.5771428042	 1.1194405793	 0.116829
H	-5.4455606412	-0.3136022886	-0.5284764944	 0.126874
H	-4.0561187797	-0.3732696687	-1.6536819286	 0.107562
H	-4.8139632142	-4.0413900373	-1.6603795911	 0.125383
H	-3.5552144653	-2.9276205184	-2.321883324	 0.091839
22.7506	39.5459	85.0694	122.2747	217.0105	279.9816	292.2051	344.5161	392.3498	524.394	596.8937	672.1468	738.8913	789.6654	912.4513	959.601	979.6103	985.4739	1041.7041	1051.3649	1090.4294	1107.5645	1161.8809	1182.749	1214.757	1216.2967	1264.8891	1301.3937	1348.0288	1360.2165	1370.9424	1416.4073	1426.1526	1487.378	1511.8446	1540.7684	2354.7118	2943.6364	2977.6802	3013.3774	3039.1441	3065.5402	3101.2428	3118.7386	3817.4045
OCC#CC1COCO1	OCC#C[C@H]1COCO1	
InChI=1S/C6H8O3/c7-3-1-2-6-4-8-5-9-6/h6-7H,3-5H2	InChI=1S/C6H8O3/c7-3-1-2-6-4-8-5-9-6/h6-7H,3-5H2/t6-/m0/s1
