17
gdb 73341	2.35226	2.07934	1.6119	2.7242	72.78	-0.2453	0.0084	0.2537	910.441	0.136728	-417.968799	-417.961423	-417.960479	-418.000306	29.068	
C	-0.1196579119	 1.5008909626	 0.0048386781	-0.485533
C	 0.0060700059	 0.002858902	 0.0280644767	 0.331494
O	-1.2792149758	-0.6109938121	-0.0724551085	-0.289005
C	-1.0887337609	-2.0069723953	 0.1585378139	-0.107198
C	 0.2595812911	-2.1193004984	 0.8577625458	-0.065332
C	 0.7525004061	-0.7764396711	 1.1496246533	-0.092801
N	 1.4771536687	-1.6403444908	 0.103185076	-0.20637
C	 0.991336037	-0.7092892397	-0.9057851021	 0.356585
N	 1.3822734816	-0.485206606	-2.076557169	-0.551786
H	 0.8591496035	 1.9701921186	 0.1311005787	 0.131204
H	-0.5326177057	 1.8216979549	-0.9544888033	 0.152053
H	-0.7858523816	 1.8375249562	 0.804337986	 0.12828
H	-1.9004130138	-2.3750123265	 0.7952581663	 0.118561
H	-1.1034849266	-2.5641432334	-0.7879598346	 0.11803
H	 0.4762202614	-2.9687222331	 1.4947655536	 0.118231
H	 1.2574524313	-0.4098819737	 2.0327303703	 0.116657
H	 2.1123256798	-1.152180414	-2.3433452711	 0.226927
135.8421	186.0575	212.2918	275.4487	302.7891	369.2193	470.4793	594.5938	642.697	677.6724	719.5615	761.339	824.6721	835.0373	852.5261	893.8218	903.4925	936.1679	962.7152	1005.8824	1023.7459	1068.0598	1095.1903	1146.1741	1158.6331	1193.4542	1222.1883	1230.0599	1275.8293	1337.4855	1364.5409	1392.2134	1417.466	1478.3558	1489.7357	1510.6054	1809.3961	3015.0917	3051.2315	3070.6994	3126.8859	3134.4235	3190.407	3217.0639	3435.3525
CC12OCC3C1N3C2=N	C[C@]12OC[C@@H]3[C@H]1N3[C]2[NH]	
InChI=1S/C6H8N2O/c1-6-4-3(2-9-6)8(4)5(6)7/h3-4,7H,2H2,1H3	InChI=1S/C6H8N2O/c1-6-4-3(2-9-6)8(4)5(6)7/h3-4,7H,2H2,1H3/t3-,4-,6+,8?/m1/s1
