23
gdb 104394	2.18774	1.39923	1.09397	1.0675	80.33	-0.2516	0.0599	0.3115	1237.6415	0.205534	-425.429965	-425.42006	-425.419116	-425.464546	37.587	
C	 0.0343325329	 1.6319919448	-0.1481231413	-0.415005
C	 0.0511626242	 0.1143477992	 0.0507454412	-0.046632
C	 0.7754297559	-0.6145211576	-1.1144833899	-0.086132
O	 1.5685561348	-1.6415552536	-0.5378764031	-0.249427
C	 2.0238734432	-1.1123387423	 0.6937593996	-0.121235
C	 0.7954376545	-0.4255149217	 1.325347202	 0.273714
C	 1.1894823723	 0.6199298792	 2.3706932649	-0.454434
C	-0.1118293502	-1.4956524311	 1.9755919049	-0.101928
O	 0.4586482168	-2.1219915113	 3.1152803627	-0.427412
H	 1.04712882	 2.0444647128	-0.2053817859	 0.117577
H	-0.4746153707	 1.8846221689	-1.0849035969	 0.1149
H	-0.4934380976	 2.145180586	 0.66070204	 0.118821
H	-0.9903670452	-0.227014487	 0.0922966334	 0.073402
H	 0.0963745135	-1.0781686169	-1.8350946325	 0.106661
H	 1.4174196955	 0.0982736313	-1.6591489933	 0.084975
H	 2.429436298	-1.9349951278	 1.2912266925	 0.087597
H	 2.8361068951	-0.3825151073	 0.533988994	 0.082154
H	 1.8860927829	 1.361062331	 1.9687186083	 0.108461
H	 0.3129455893	 1.1532210856	 2.753409843	 0.113527
H	 1.6650634077	 0.1260241897	 3.2222528979	 0.129576
H	-1.0320037911	-1.0137076068	 2.3266974672	 0.103866
H	-0.3940732862	-2.2384210502	 1.2165790157	 0.099769
H	 1.0536548043	-2.813250035	 2.8120595959	 0.287206
46.5062	128.7478	197.0542	217.2798	238.7456	272.1323	274.7133	297.6375	320.5809	352.83	358.726	446.7869	517.6797	605.2587	650.0042	761.8935	845.8516	908.1777	914.4389	949.2657	952.7432	975.4267	1022.1307	1037.3866	1069.7761	1095.5474	1113.1542	1152.4605	1164.3879	1183.5023	1208.3539	1250.7863	1273.6325	1283.7287	1322.6184	1360.3988	1375.071	1394.0252	1399.5993	1406.7381	1412.6057	1427.7731	1482.5577	1494.2071	1495.527	1504.3529	1509.2794	1513.4975	1525.153	2955.1663	2962.6417	3005.7016	3022.5349	3031.86	3039.3928	3063.7907	3072.3977	3087.0444	3094.6741	3101.9956	3112.1997	3119.089	3839.7304
CC1COCC1(C)CO	C[C@H]1COC[C@]1(C)CO	
InChI=1S/C7H14O2/c1-6-3-9-5-7(6,2)4-8/h6,8H,3-5H2,1-2H3	InChI=1S/C7H14O2/c1-6-3-9-5-7(6,2)4-8/h6,8H,3-5H2,1-2H3/t6-,7-/m0/s1
