19
gdb 7789	3.36329	1.71325	1.20524	3.2208	73.25	-0.2536	0.0247	0.2783	1021.4106	0.167201	-365.093081	-365.085306	-365.084362	-365.125107	29.698	
C	-0.0236512462	 1.5684463551	 0.0197659827	-0.406013
C	 0.0166009061	 0.0403731714	-0.0364344782	 0.019456
C	 0.7822908326	-0.4871558205	-1.2545200872	-0.207327
C	 0.7785866585	-2.0094943233	-1.2543394151	-0.081289
O	 1.2718388294	-2.5815036002	-0.0334319393	-0.252836
C	 0.8594974278	-2.0544963687	 1.1606668268	 0.365897
N	 0.7473396092	-2.7753312531	 2.195630481	-0.501459
C	 0.6639089602	-0.5570315001	 1.2227073905	-0.256571
H	 0.9888611581	 1.9853870056	 0.07447076	 0.116151
H	-0.508718572	 1.9844805454	-0.8694611751	 0.113443
H	-0.5749686414	 1.9184845443	 0.8986086544	 0.118868
H	-1.0167966869	-0.3310417635	-0.1010929616	 0.079468
H	 0.3327776568	-0.1331058021	-2.1895949283	 0.101185
H	 1.8158994545	-0.117552315	-1.2302371237	 0.104911
H	-0.241776501	-2.3826519091	-1.4252750551	 0.105534
H	 1.4199890548	-2.4169211389	-2.0397821915	 0.116871
H	 0.9541968179	-3.7490364089	 1.9602495724	 0.21562
H	 1.6592397621	-0.105566816	 1.3474222733	 0.11989
H	 0.0955516196	-0.3310189223	 2.126849674	 0.128202
101.7065	131.6058	230.1731	245.1401	282.2327	397.4427	417.1147	456.4079	483.655	566.4004	654.4336	797.5571	833.1993	883.5983	902.9955	931.2329	966.2618	981.2855	999.261	1041.8383	1101.6879	1124.6177	1135.389	1184.8217	1199.8638	1278.2945	1283.8649	1300.9403	1323.0612	1345.2761	1371.2887	1397.1975	1413.8687	1432.1644	1465.8526	1483.6263	1497.6661	1499.0954	1511.751	1747.1275	2993.2982	3000.9216	3012.5615	3023.1658	3028.649	3071.1948	3094.0197	3096.6506	3101.4747	3115.7477	3454.1619
CC1CCOC(=N)C1	C[C@H]1CCO[C]([NH])C1	
InChI=1S/C6H11NO/c1-5-2-3-8-6(7)4-5/h5,7H,2-4H2,1H3	InChI=1S/C6H11NO/c1-5-2-3-8-6(7)4-5/h5,7H,2-4H2,1H3/t5-/m0/s1
