18
gdb 50685	2.00198	1.6202	0.9479	4.095	79.3	-0.2405	0.0263	0.2668	1220.8248	0.147985	-401.950716	-401.941986	-401.941042	-401.984795	32.012	
O	 0.0087614807	-0.0297135726	-0.0737618596	-0.342375
C	 0.0684803012	 1.1821796529	-0.1407645631	 0.138208
N	 1.219057465	 1.8944634295	-0.0381090985	-0.046162
C	 2.5113661686	 1.2475916633	 0.2042410153	-0.146997
C	 3.4216720576	 2.4111882986	 0.6202733073	-0.241648
C	 2.8339875098	 3.6085038522	-0.1404879556	-0.217444
C	 1.3075105921	 3.366402246	-0.0559010682	-0.159279
C	 0.5544359791	 3.986815974	-1.141282139	 0.322774
C	-0.0584312019	 4.5227362585	-2.0249911675	-0.436522
H	-0.8160165894	 1.8279427668	-0.2972486064	 0.083782
H	 2.4047394261	 0.4728121593	 0.967199512	 0.134239
H	 2.8685189559	 0.7581185805	-0.7106024179	 0.120648
H	 3.3523025949	 2.5778671634	 1.7007200624	 0.113842
H	 4.4706734574	 2.228752307	 0.3781947196	 0.113408
H	 3.1103070543	 4.5796863624	 0.274115611	 0.118366
H	 3.1396949838	 3.5864197303	-1.1906569099	 0.124802
H	 0.9360013499	 3.7722326484	 0.8973674289	 0.115329
H	-0.6035590952	 4.9865458295	-2.809921181	 0.205031
48.9113	99.8815	144.6283	211.3774	236.9346	271.7988	331.226	436.3667	499.4834	532.4786	588.8551	632.691	665.37	714.6628	818.1746	877.4802	902.4804	931.6005	946.988	1018.2556	1035.9237	1052.3659	1116.9991	1174.7527	1189.724	1218.1693	1257.4248	1305.5376	1334.4759	1335.2519	1351.9874	1367.4599	1402.3898	1445.1568	1490.2256	1498.7282	1526.1094	1785.5183	2239.7337	2958.947	2978.8827	3027.1776	3050.3812	3066.9346	3097.6937	3113.1767	3125.6206	3501.5009
O=CN1CCCC1C#C	O=CN1CCC[C@H]1C#C	
InChI=1S/C7H9NO/c1-2-7-4-3-5-8(7)6-9/h1,6-7H,3-5H2	InChI=1S/C7H9NO/c1-2-7-4-3-5-8(7)6-9/h1,6-7H,3-5H2/t7-/m1/s1
