19
gdb 68530	2.60931	1.95941	1.67653	1.6697	77.56	-0.2365	0.0175	0.254	915.3	0.16073	-385.865653	-385.858702	-385.857758	-385.896341	29.636	
C	-0.0492944758	 1.5084972843	 0.0196545975	-0.503634
C	 0.0342197427	-0.0082057742	 0.0234649026	 0.238618
C	 0.7296619063	-0.7121428095	-1.1866100548	-0.228299
C	 0.5308530122	-2.136702232	-0.5952517674	-0.135418
C	 1.1046706247	-1.9173616986	 0.795162863	-0.068348
C	 0.8057733649	-0.668890126	 1.1603114591	-0.090319
C	-1.0352036113	-2.1152621615	-0.4837395431	 0.031933
O	-1.5835338474	-1.8417711916	 0.8091267527	-0.237124
C	-1.355061509	-0.7467310493	-0.0824491643	 0.010927
H	 0.9475956401	 1.9580969842	-0.030951547	 0.119044
H	-0.6227507975	 1.8727517098	-0.8401311754	 0.113171
H	-0.5380472722	 1.8816213685	 0.9263636378	 0.121588
H	 0.1929831994	-0.5591112527	-2.1305977437	 0.085932
H	 1.7797122884	-0.4289528111	-1.3057154051	 0.094481
H	 0.9233919456	-2.9793604343	-1.1639298283	 0.060677
H	 1.5645571907	-2.6868772343	 1.4012545757	 0.099198
H	 0.97341479	-0.2067321295	 2.1252782006	 0.095328
H	-1.6429860065	-2.7334388133	-1.1372552356	 0.098437
H	-2.2368402153	-0.1916634789	-0.3913340444	 0.093808
210.234	255.5674	275.7633	332.3839	349.4383	481.8734	521.8545	559.9835	594.6896	689.2727	761.5611	763.5945	804.6096	811.389	870.7709	895.8162	903.5269	909.6376	930.9842	953.2579	966.6867	1003.9747	1028.4139	1081.8249	1095.8492	1110.6064	1147.1589	1195.916	1218.1604	1228.572	1258.7208	1265.5328	1277.3234	1283.6211	1370.1578	1399.8844	1414.7274	1492.7108	1494.3217	1498.0769	1648.4621	3026.8525	3033.9019	3091.1737	3095.8416	3099.4534	3116.4408	3144.9953	3163.5844	3198.1624	3225.1975
CC12CC(C=C1)C1OC21	C[C@@]12C[C@@H](C=C1)[C@H]1O[C@@H]21	
InChI=1S/C8H10O/c1-8-3-2-5(4-8)6-7(8)9-6/h2-3,5-7H,4H2,1H3	InChI=1S/C8H10O/c1-8-3-2-5(4-8)6-7(8)9-6/h2-3,5-7H,4H2,1H3/t5-,6-,7-,8+/m1/s1
