14
gdb 25740	2.89933	1.57253	1.02171	6.5213	67.73	-0.2173	-0.0274	0.1899	1066.7915	0.103368	-470.084944	-470.077309	-470.076364	-470.117125	28.847	
N	 0.0574006381	 1.3510796686	 0.0661475054	-0.559165
C	 0.0261562727	-0.0256221877	 0.10481139	 0.358741
O	 1.0663477624	-0.6880229124	 0.1931108248	-0.418956
C	-1.2467412222	-0.7004421772	 0.0805018489	 0.073894
C	-1.4001007422	-2.0830613995	 0.0220211277	 0.358099
O	-0.4208033285	-2.9782241283	 0.0128450651	-0.402041
N	-2.7108218864	-2.438368847	-0.0339591369	-0.306511
C	-3.3698746149	-1.294517535	 0.0026938918	 0.023059
N	-2.5554181361	-0.21377339	 0.0542105766	-0.368464
H	 0.9795810656	 1.7367491255	-0.0782820529	 0.264377
H	-0.6854015045	 1.8408535956	-0.4077300296	 0.248873
H	 0.4040476627	-2.4498294829	 0.0951315805	 0.316727
H	-4.4458245827	-1.1998915254	-0.0049092281	 0.143559
H	-2.8504235941	 0.7345524359	 0.2135915067	 0.267807
101.37	160.9285	184.3065	319.6418	348.2148	404.1656	429.6566	471.0467	533.6256	549.5555	645.3272	680.0648	729.25	743.4116	753.6835	795.5709	843.2899	950.7477	1071.9182	1119.2019	1143.5919	1222.7393	1293.9349	1332.0845	1433.7656	1461.3118	1498.4255	1542.9107	1611.9365	1626.2071	1716.982	3251.9911	3474.3094	3571.2489	3667.4887	3689.2795
NC(=O)C1=C(O)N=CN1	NC(=O)c1c(O)nc[nH]1	
InChI=1S/C4H5N3O2/c5-3(8)2-4(9)7-1-6-2/h1,9H,(H2,5,8)(H,6,7)	InChI=1S/C4H5N3O2/c5-3(8)2-4(9)7-1-6-2/h1,9H,(H2,5,8)(H,6,7)
