16
gdb 11257	5.41296	1.28478	1.13722	1.1849	72.05	-0.2509	0.0013	0.2522	1034.1281	0.130162	-346.574733	-346.566996	-346.566052	-346.606863	29.306	
O	-0.4281790461	 1.5585755495	-0.5811322912	-0.437585
C	 0.0694708971	 0.3402070633	-0.0253876116	 0.098461
C	-1.0324663133	-0.6774493857	 0.3628880171	-0.250405
C	-1.0641122653	-1.7350765117	-0.783973237	-0.205535
C	 0.2847585303	-1.5225384371	-1.4603501927	-0.062218
C	 0.9039501519	-0.4279338882	-1.0250019761	-0.117271
C	-1.2789879231	-3.1014010333	-0.3208421794	 0.316995
C	-1.4493754347	-4.2281650613	 0.0621356887	-0.46807
H	-0.7650415654	 1.3578644289	-1.4614271818	 0.275787
H	 0.6381306124	 0.6618853308	 0.8524464989	 0.091687
H	-0.7609846902	-1.1793048941	 1.2947762761	 0.120619
H	-1.9929782704	-0.180601742	 0.5133664072	 0.113893
H	-1.8637178811	-1.4995282399	-1.5023775836	 0.110827
H	 0.6496196336	-2.2077049412	-2.216916757	 0.112179
H	 1.8565291366	-0.0560295259	-1.3851604702	 0.104541
H	-1.602331752	-5.222831302	 0.4008049927	 0.196095
67.6027	136.9438	184.9788	287.8562	326.846	377.8142	470.166	512.4442	531.7974	621.9374	635.9925	688.4501	755.6491	802.7513	847.0098	863.4078	941.6245	978.685	1002.4801	1044.8254	1060.1221	1069.987	1136.1136	1177.6461	1255.8276	1271.5892	1277.019	1319.7924	1328.7138	1370.3035	1430.9035	1479.464	1679.3766	2235.8651	2986.8351	3061.9694	3077.0573	3126.4682	3190.2112	3215.1815	3504.247	3800.4802
OC1CC(C=C1)C#C	O[C@H]1C[C@@H](C=C1)C#C	
InChI=1S/C7H8O/c1-2-6-3-4-7(8)5-6/h1,3-4,6-8H,5H2	InChI=1S/C7H8O/c1-2-6-3-4-7(8)5-6/h1,3-4,6-8H,5H2/t6-,7-/m1/s1
