18
gdb 94342	2.84421	1.27993	1.07252	2.8834	79.21	-0.2426	0.0278	0.2704	1171.928	0.146456	-401.87199	-401.863288	-401.862344	-401.905369	33.438	
O	 0.4730697425	 0.8081980713	-0.6168299018	-0.440179
C	 0.1935361971	-0.2910217123	 0.1937365671	 0.108113
C	-0.0542942988	-0.0774532562	 1.7244490145	-0.251779
C	-1.2919099582	-1.0225432177	 1.6351968858	-0.324247
C	-1.234267766	-0.8529705823	 0.1160814779	 0.315665
N	-2.1877237384	-0.094565033	-0.6853385323	-0.378321
C	-1.9467534856	-1.5351586729	-0.9973147179	-0.346218
C	-1.299884676	-1.8505933446	-2.2398003954	 0.375448
C	-0.7501439912	-2.1480536278	-3.266574882	-0.426679
H	-0.3833056515	 1.1047098713	-0.9604039955	 0.291801
H	 0.9496344631	-1.0654229534	 0.0178129678	 0.08843
H	 0.7481445483	-0.3656640203	 2.40566658	 0.103623
H	-0.3423752098	 0.9580827032	 1.9202756297	 0.110813
H	-1.0719390427	-2.0465906919	 1.9497076805	 0.117076
H	-2.2102623692	-0.6950584525	 2.1304837966	 0.104564
H	-3.0782621739	 0.0073674472	-0.2035179431	 0.23851
H	-2.7345449894	-2.2268030362	-0.7033779327	 0.112546
H	-0.2602677203	-2.3960351817	-4.1754626291	 0.200834
81.6078	92.7262	160.2136	231.7095	268.1825	342.0183	397.3975	431.4803	442.6508	541.7021	583.9625	606.0427	641.9343	664.6413	720.1829	772.4194	831.5651	892.2771	912.8567	928.6837	952.802	1003.8955	1048.7454	1075.9771	1104.2082	1154.7544	1181.4846	1191.1126	1217.9461	1240.4747	1260.4738	1280.2818	1340.4092	1358.637	1441.1	1448.6422	1474.0242	1495.5401	2241.8162	3038.2935	3055.1753	3072.766	3102.9152	3120.5251	3134.2825	3493.4664	3503.7015	3708.9383
OC1CCC11NC1C#C	O[C@H]1CC[C@]21N[C@H]2C#C	
InChI=1S/C7H9NO/c1-2-5-7(8-5)4-3-6(7)9/h1,5-6,8-9H,3-4H2	InChI=1S/C7H9NO/c1-2-5-7(8-5)4-3-6(7)9/h1,5-6,8-9H,3-4H2/t5-,6-,7-/m0/s1
