21
gdb 96483	2.52355	1.46652	1.04505	2.1213	80.54	-0.2463	0.0033	0.2496	1200.0436	0.183578	-424.221905	-424.213278	-424.212334	-424.254805	33.58	
C	-0.1013356617	 1.5723292606	 0.1052187777	-0.392652
C	-0.0602777353	 0.0523997547	-0.0164833081	 0.130616
C	 0.4659117291	-0.3924614864	-1.4032872801	-0.253475
C	 0.3282034959	-1.8715649679	-1.6716793988	-0.057256
C	 1.0656799831	-2.8344814782	-1.1136010224	-0.078315
C	 2.1442843626	-2.5746112654	-0.0982634017	-0.112791
O	 1.6666977196	-2.5700667669	 1.2533750418	-0.244576
C	 0.5759444822	-1.7281410982	 1.5082014554	 0.031025
O	 0.7682500397	-0.4128262078	 1.0481590002	-0.257317
H	 0.8999993525	 1.9934601073	-0.0295148674	 0.125482
H	-0.7637262198	 2.0055754732	-0.6500371166	 0.112474
H	-0.4612595342	 1.861986072	 1.0955990426	 0.12305
H	-1.0758270636	-0.3494707492	 0.1189575964	 0.075046
H	-0.0829135156	 0.1667397953	-2.1683174845	 0.099373
H	 1.5126482956	-0.0729180607	-1.4696609088	 0.119218
H	-0.4683409602	-2.1608348169	-2.3545219068	 0.091167
H	 0.845516727	-3.8735365257	-1.3460299968	 0.09047
H	 2.9009145761	-3.3630184052	-0.1168847033	 0.107699
H	 2.6423714491	-1.6198374887	-0.3047177888	 0.10464
H	-0.3550785876	-2.1329197255	 1.083240077	 0.080467
H	 0.5042055554	-1.7059837802	 2.601286533	 0.105655
109.3771	152.7874	213.0313	240.6467	253.5839	286.0466	332.8125	366.3993	441.8697	483.9625	532.3261	581.3292	643.01	740.3149	838.916	892.0314	912.7884	921.1634	953.7179	1002.5095	1007.1007	1047.0017	1063.1094	1088.9668	1127.9537	1129.8264	1152.5848	1179.0935	1241.3667	1263.3761	1293.2657	1305.7997	1323.8434	1365.4039	1379.7676	1386.8424	1408.6181	1426.0102	1459.08	1472.7802	1484.7531	1497.5279	1501.6459	1508.9574	1711.7343	2978.0397	2989.7466	3030.781	3034.6669	3043.3058	3063.8057	3078.3481	3095.8196	3114.9116	3124.6142	3137.9799	3164.5117
CC1CC=CCOCO1	C[C@H]1CC=CCOCO1	
InChI=1S/C7H12O2/c1-7-4-2-3-5-8-6-9-7/h2-3,7H,4-6H2,1H3/b3-2-	InChI=1S/C7H12O2/c1-7-4-2-3-5-8-6-9-7/h2-3,7H,4-6H2,1H3/b3-2-/t7-/m0/s1
