23
gdb 118461	1.73942	1.04717	0.76631	1.3549	78.47	-0.2536	0.0741	0.3277	1585.8094	0.202803	-462.548067	-462.536315	-462.53537	-462.585705	41.536	
C	 0.1110890244	 1.8365133412	 0.5231044751	-0.418737
C	 0.0194144984	 0.3471335464	 0.1879214726	 0.120109
O	 0.4037829189	 0.0919870033	-1.1633119097	-0.439092
C	 0.7791296939	-0.5691081038	 1.1796070133	 0.007274
C	 0.2963268894	-2.0080221531	 0.979715162	-0.088893
O	 0.8830863825	-2.8523859632	 1.9633168163	-0.42231
C	 2.3094547037	-0.432535438	 1.0401210534	-0.189402
C	 3.1050508776	-0.7956571159	 2.2905474131	-0.088873
O	 4.4678849362	-0.4790948625	 2.0254516931	-0.427346
H	 1.1453026074	 2.1975456776	 0.5020933129	 0.118039
H	-0.4605993354	 2.4140821861	-0.2084327733	 0.124379
H	-0.2930388258	 2.0409599504	 1.5198657691	 0.116682
H	-1.0399962435	 0.0626658044	 0.2182523626	 0.083094
H	 1.3049501031	 0.4136086329	-1.2757793411	 0.282997
H	 0.4862627794	-0.2618997898	 2.193680351	 0.075422
H	-0.8024519907	-2.0327778813	 1.0592328509	 0.08186
H	 0.5599180591	-2.3324921938	-0.0372138314	 0.103066
H	 0.6595008996	-3.7622802377	 1.7480397818	 0.28643
H	 2.6663482371	-1.051326305	 0.2083354396	 0.10541
H	 2.5785563912	 0.6027279913	 0.7955444576	 0.096248
H	 2.7254541557	-0.2132318641	 3.1470636021	 0.076787
H	 2.9724687162	-1.8568428816	 2.5263278557	 0.113514
H	 4.9958373616	-0.8042618138	 2.7600258033	 0.283342
46.7997	72.6366	93.7922	106.2267	164.2157	208.6093	229.2147	245.0338	254.0703	293.034	306.5991	322.6061	342.6636	414.6791	488.7425	498.9576	636.1559	792.2256	855.9621	898.2905	946.5713	973.5208	1000.4049	1041.1875	1049.1203	1067.9058	1088.3723	1101.4559	1140.4681	1170.342	1218.2052	1226.9661	1252.5018	1282.2094	1288.6076	1316.6745	1319.2225	1332.6558	1368.9209	1396.8117	1407.2635	1427.1085	1452.0556	1460.0838	1490.4284	1491.3061	1503.851	1525.6561	1534.1617	2959.8018	2967.6608	3005.4709	3021.8139	3026.744	3031.0583	3035.1596	3058.9509	3078.8336	3101.9665	3117.2976	3806.2676	3831.3255	3833.384
CC(O)C(CO)CCO	C[C@@H](O)[C@@H](CO)CCO	
InChI=1S/C6H14O3/c1-5(9)6(4-8)2-3-7/h5-9H,2-4H2,1H3	InChI=1S/C6H14O3/c1-5(9)6(4-8)2-3-7/h5-9H,2-4H2,1H3/t5-,6-/m1/s1
