18
gdb 104350	3.27588	1.26409	1.12268	4.1378	68.05	-0.2438	0.0306	0.2744	1116.0564	0.148094	-476.222753	-476.214124	-476.21318	-476.255816	32.505	
O	-0.0901368143	 1.4461746153	 0.0923810307	-0.436453
C	-0.00281687	 0.0272269076	-0.0142559158	-0.135173
C	-1.4379122719	-0.5005173413	 0.0074987165	 0.308996
O	-2.0939133648	-0.0295807901	 1.1762037502	-0.472988
C	-2.2023589145	-0.0453621879	-1.2441957104	-0.092961
O	-3.5225713803	-0.5930158436	-1.2740508845	-0.220639
C	-3.6351942432	-1.8704768925	-0.8405354829	 0.137888
N	-2.7786951549	-2.6053495887	-0.2731296365	-0.277887
C	-1.4783503886	-2.0314171197	 0.052849456	-0.170877
H	 0.7725777231	 1.7958245224	 0.3307195777	 0.299043
H	 0.5090304783	-0.270877834	-0.9415035188	 0.094996
H	 0.5431312521	-0.4025017693	 0.8371967844	 0.105107
H	-1.8785106745	 0.9100534563	 1.2386789723	 0.28599
H	-2.3178647306	 1.0395754898	-1.2618554454	 0.125939
H	-1.6676755774	-0.3562356143	-2.1523194652	 0.102304
H	-4.6376946663	-2.2414946961	-1.0451979181	 0.121742
H	-0.7239500918	-2.4513415384	-0.6261951745	 0.10294
H	-1.2103966606	-2.3530162855	 1.0648740743	 0.122033
108.8061	129.1257	174.7917	213.7725	245.5213	334.7064	353.4461	392.9321	429.3926	461.5461	496.5183	549.57	635.0795	757.8415	882.2297	906.9997	943.3637	963.5822	972.3381	981.0471	1014.6309	1065.4107	1114.438	1147.9666	1173.2712	1185.9073	1245.4873	1249.045	1276.8192	1332.5308	1352.2509	1388.5187	1410.2116	1433.8359	1447.5152	1467.4791	1502.2974	1507.9804	1742.9078	2985.7831	3011.3779	3020.6491	3031.8262	3068.5523	3118.4621	3160.534	3771.712	3845.84
OCC1(O)COC=NC1	OC[C@@]1(O)COC=NC1	
InChI=1S/C5H9NO3/c7-2-5(8)1-6-4-9-3-5/h4,7-8H,1-3H2	InChI=1S/C5H9NO3/c7-2-5(8)1-6-4-9-3-5/h4,7-8H,1-3H2/t5-/m1/s1
