19
gdb 68196	3.80757	1.18457	1.12182	1.289	81.05	-0.2418	0.0499	0.2918	1158.6286	0.158847	-385.84701	-385.838813	-385.837869	-385.879382	32.678	
C	 0.0704602192	 1.5262776976	 0.1242247524	-0.496604
C	 0.0115743388	 0.0330977144	-0.0266104572	 0.417498
C	 0.6557176297	-0.7528602686	-1.198602989	-0.275306
C	 0.7117417001	-1.7965847769	-0.0714967375	 0.066126
O	 0.8932790793	-0.7195067291	 0.8853965367	-0.325485
C	-0.7844310098	-2.1724192634	 0.1697081834	-0.167987
C	-1.3339825326	-0.6991103218	 0.1910322522	-0.272498
C	-1.3630395707	-3.0447705211	-0.836143548	 0.316129
C	-1.8248296118	-3.7649218736	-1.6818736187	-0.47205
H	 1.0926454948	 1.8909560409	-0.007785642	 0.128653
H	-0.5705185546	 2.0081464878	-0.6212891149	 0.124467
H	-0.2780092993	 1.8267101114	 1.1178556888	 0.129604
H	 0.0668339654	-0.96529214	-2.0935604856	 0.107914
H	 1.6458440093	-0.3675644684	-1.4445597865	 0.108264
H	 1.4518966431	-2.5931162073	-0.0095931699	 0.087127
H	-0.8768944014	-2.6325986345	 1.1576856842	 0.109302
H	-1.7773754328	-0.4406938692	 1.1549466504	 0.108836
H	-2.0617839239	-0.5085340506	-0.6004596763	 0.111617
H	-2.2367683831	-4.4057129275	-2.4214686126	 0.194394
106.025	142.0218	197.1976	269.847	295.6031	353.0517	421.7342	479.5644	523.3794	556.8887	621.8009	630.0788	635.5961	705.9914	801.8928	830.2525	835.5423	876.514	918.75	965.1883	983.7767	997.5161	1019.9218	1045.8227	1078.054	1117.7986	1156.6864	1205.3461	1220.599	1232.4085	1245.6507	1272.9793	1303.9825	1337.3557	1351.6325	1415.8887	1477.7005	1481.3654	1493.3533	1498.5258	2232.2964	3038.0005	3064.5685	3072.6613	3076.459	3106.6137	3118.8778	3127.6847	3134.4164	3147.0831	3503.9568
CC12CC(O1)C(C2)C#C	C[C@@]12C[C@@H](O1)[C@@H](C2)C#C	
InChI=1S/C8H10O/c1-3-6-4-8(2)5-7(6)9-8/h1,6-7H,4-5H2,2H3	InChI=1S/C8H10O/c1-3-6-4-8(2)5-7(6)9-8/h1,6-7H,4-5H2,2H3/t6-,7-,8-/m1/s1
