17
gdb 110080	2.04299	1.3134	0.99643	4.9941	75.07	-0.2525	-0.0386	0.2139	1243.0506	0.134811	-418.001645	-417.992291	-417.991347	-418.036451	32.826	
C	 0.195807302	 1.2433403292	-0.2135740878	-0.325631
N	-0.3414913737	-0.0088602951	 0.3155536039	-0.280582
C	 0.435795309	-0.5742987306	 1.369402876	-0.008085
C	 0.28578935	-2.0557214032	 1.6511792248	-0.169307
C	-0.6742077901	-2.8838721756	 0.8622611137	 0.156121
O	-1.3651163131	-3.7293122844	 1.3741205847	-0.260764
C	 1.5630312077	-1.5128186372	 0.9919694992	-0.200147
C	 1.8476582075	-1.7824972952	-0.3905772865	 0.316342
N	 2.1226215634	-1.9900968148	-1.4947768183	-0.342736
H	 1.1557059373	 1.0490588078	-0.7004273443	 0.148575
H	-0.4894567673	 1.6345016159	-0.9693238798	 0.133367
H	 0.3489393503	 2.019603638	 0.5547564856	 0.103184
H	-1.3010124855	 0.1146211013	 0.6191818025	 0.23638
H	 0.6520023555	 0.0448990529	 2.2461556123	 0.099187
H	 0.386990703	-2.3754665111	 2.6821490965	 0.126048
H	-0.7138905907	-2.6677737665	-0.2218896146	 0.120801
H	 2.4434805248	-1.5079931311	 1.6255978321	 0.147248
66.7194	90.0875	125.6765	147.8702	185.7521	224.6638	283.8289	326.0047	398.6254	446.8346	500.1588	609.9054	639.926	771.5289	789.644	821.3202	901.33	970.9008	981.8388	1051.3668	1068.0146	1124.6911	1136.3103	1140.328	1177.1754	1198.3052	1255.5844	1328.3218	1367.8032	1407.842	1436.5514	1466.4696	1478.1427	1493.6437	1516.2708	1815.353	2355.9177	2963.2627	2967.5452	3041.3129	3083.5145	3126.9645	3172.3324	3187.5168	3532.0327
CNC1C(C=O)C1C#N	CN[C@H]1[C@@H](C=O)[C@H]1C#N	
InChI=1S/C6H8N2O/c1-8-6-4(2-7)5(6)3-9/h3-6,8H,1H3	InChI=1S/C6H8N2O/c1-8-6-4(2-7)5(6)3-9/h3-6,8H,1H3/t4-,5+,6-/m1/s1
