13
gdb 21257	7.36943	1.31774	1.12584	1.5576	57.39	-0.229	0.019	0.248	987.1196	0.09533	-435.724761	-435.717545	-435.7166	-435.756504	25.868	
C	 0.058091643	 1.4243768184	-0.0560897438	-0.251276
O	 0.0481826855	-0.0078055304	 0.0104709124	-0.264762
C	 0.5772922678	-0.6677600304	-1.0086737906	 0.581307
C	 0.7020544647	-2.0118831458	-1.2056588292	-0.516522
C	 1.3430485938	-2.0623810751	-2.468317596	 0.501229
O	 1.688517407	-3.1892466788	-3.1086284833	-0.417366
N	 1.5873223107	-0.8822478484	-2.9933504012	-0.282546
O	 1.0829437497	 0.0313367939	-2.0317356582	-0.230675
H	 1.0818916864	 1.8040307968	-0.114803309	 0.147956
H	-0.5077057927	 1.7775483348	-0.9226092721	 0.148015
H	-0.4159284419	 1.7601093753	 0.8656995267	 0.145326
H	 0.3932676026	-2.8186169571	-0.5668187814	 0.128761
H	 2.1062828333	-2.9321273533	-3.9420345842	 0.310553
74.9076	150.9688	217.566	224.7345	379.0649	401.4345	457.9481	527.0444	630.0429	672.7654	720.6419	760.4878	763.8735	936.5735	980.94	1035.1681	1057.9869	1176.0126	1191.9491	1207.2967	1256.504	1343.1609	1468.706	1485.5576	1499.4005	1559.9886	1576.7011	1678.3286	3046.4768	3120.5874	3162.578	3304.5251	3775.121
COC1=CC(O)=NO1	COc1cc(O)no1	
InChI=1S/C4H5NO3/c1-7-4-2-3(6)5-8-4/h2H,1H3,(H,5,6)	InChI=1S/C4H5NO3/c1-7-4-2-3(6)5-8-4/h2H,1H3,(H,5,6)
