17
gdb 35511	3.25774	1.47596	1.38758	2.4966	72.58	-0.2526	0.0309	0.2836	983.8883	0.137445	-421.793804	-421.786695	-421.785751	-421.825287	28.571	
C	-0.1358583243	-1.22653904	-0.1255620384	-0.440661
C	-0.0629070008	-0.0314734945	-0.0234690394	 0.334153
C	 0.0184909224	 1.4216573785	 0.0512018461	-0.05984
O	-0.5585890573	 1.9239675979	 1.285864387	-0.277339
C	 0.4567900842	 2.729737036	 1.8749697921	 0.213521
C	 1.1245301801	 3.4014963144	 0.6730365109	-0.262558
C	 1.4541336062	 2.0162548008	 0.0802082387	-0.104174
C	 2.19204961	 1.3907743208	 1.2766710598	-0.080409
O	 1.4755982979	 1.9150364601	 2.4187981835	-0.265281
H	-0.2074493799	-2.2834300113	-0.2037240186	 0.200906
H	-0.5454655698	 1.8477889651	-0.790579132	 0.106763
H	 0.0117238603	 3.326463198	 2.6687142776	 0.096233
H	 0.4358374205	 3.9948848312	 0.0687177937	 0.111384
H	 2.0057500894	 3.9872828919	 0.9409796274	 0.112045
H	 1.9790163655	 1.9696311731	-0.8725553045	 0.089526
H	 2.1446624684	 0.2982130272	 1.2826802126	 0.125241
H	 3.2413056373	 1.7068230607	 1.3243926534	 0.100489
106.3685	153.8984	249.087	355.2337	457.1253	479.2644	526.4556	546.7252	600.8593	631.6762	666.3427	795.7664	826.2618	853.4588	894.8393	907.9059	927.4125	948.8068	955.4393	975.1624	1041.797	1052.8876	1082.0904	1092.9217	1140.3055	1184.3291	1218.6894	1266.9329	1286.598	1307.3246	1319.4285	1344.6257	1365.8826	1388.2907	1490.3942	1525.8627	2238.5376	2999.6764	3027.5979	3077.5436	3090.1765	3136.4195	3138.0912	3154.3619	3502.3957
C#CC1OC2CC1CO2	C#C[C@H]1O[C@@H]2C[C@H]1CO2	
InChI=1S/C7H8O2/c1-2-6-5-3-7(9-6)8-4-5/h1,5-7H,3-4H2	InChI=1S/C7H8O2/c1-2-6-5-3-7(9-6)8-4-5/h1,5-7H,3-4H2/t5-,6+,7+/m0/s1
