19
gdb 102220	2.50075	0.85384	0.66533	2.995	81.71	-0.2391	-0.0322	0.2069	1686.7436	0.154449	-422.998609	-422.987404	-422.98646	-423.037507	36.941	
C	-0.0394969454	 0.7893739134	 0.9581899777	-0.239848
O	-0.5935060705	 0.0100758854	-0.0862214584	-0.254792
C	 0.3119994845	-0.4221280654	-1.0731760695	 0.021505
C	 1.1243736552	-1.6838728544	-0.7048415978	-0.357926
C	 2.2688309053	-1.4437235412	 0.1652435939	 0.018652
C	 3.2291009927	-1.2447343096	 0.8649050335	 0.100193
C	 4.3913984028	-1.0139622397	 1.7114913779	-0.498467
C	-0.5332157846	-0.6658236859	-2.3238358862	 0.151248
O	-0.217631149	-1.3918449003	-3.2289055867	-0.245507
H	 0.6402037646	 0.2079396143	 1.5907258855	 0.132487
H	 0.5097899588	 1.6558004869	 0.5597971516	 0.107379
H	-0.8779764044	 1.147736869	 1.5603272992	 0.127836
H	 1.0160978241	 0.390022967	-1.3323243284	 0.10303
H	 0.4319945378	-2.3999741281	-0.2452005978	 0.136601
H	 1.4543051028	-2.1304819637	-1.650594507	 0.154333
H	 4.4046035738	-1.7011950129	 2.5646765472	 0.14924
H	 5.3245012064	-1.1588136359	 1.1558718916	 0.14945
H	 4.3995990976	 0.00673698	 2.1100877795	 0.14561
H	-1.4806289424	-0.085373279	-2.3236799158	 0.098976
22.0882	42.7651	71.9082	85.3687	114.1851	187.4124	207.6683	225.5531	246.8107	308.5594	384.5216	399.7733	445.2806	497.2629	610.0672	771.3209	825.3571	872.8523	1016.3162	1050.9119	1054.5378	1066.0749	1082.996	1159.2622	1171.554	1183.833	1212.7528	1246.5241	1273.1137	1347.2908	1359.4023	1395.9515	1415.836	1462.48	1478.3235	1479.2434	1479.5637	1490.4839	1511.5023	1837.5262	2370.125	2912.1692	2942.0407	2991.1922	3025.7123	3028.9978	3069.2352	3069.8761	3085.1156	3087.2305	3119.3473
COC(CC#CC)C=O	CO[C@@H](CC#CC)C=O	
InChI=1S/C7H10O2/c1-3-4-5-7(6-8)9-2/h6-7H,5H2,1-2H3	InChI=1S/C7H10O2/c1-3-4-5-7(6-8)9-2/h6-7H,5H2,1-2H3/t7-/m0/s1
