18
gdb 44770	2.44713	2.14585	1.59067	2.6843	77.47	-0.2465	0.0231	0.2696	906.4472	0.150076	-401.869359	-401.862758	-401.861814	-401.899947	28.023	
N	-0.1205921229	 1.1593041811	 0.2018288801	-0.581249
C	-0.0589288739	-0.0915397429	 0.0726597995	 0.430852
O	 1.0783356552	-0.8718696944	 0.0772825293	-0.249784
C	 0.5073315959	-2.1840355124	-0.1098928154	 0.029791
C	-0.6827693321	-2.171754933	 0.9439242042	-0.32693
C	-1.1943382636	-1.086670795	-0.1011438381	 0.161934
C	-2.2603434304	-0.5861189171	-1.1141388235	-0.310343
C	-1.1972376605	-0.981344694	-2.2383557947	-0.292905
C	-0.6226585195	-1.9878192286	-1.181681816	 0.015175
H	 0.8108658864	 1.5592196242	 0.3288347939	 0.223994
H	 1.3003478678	-2.9298587956	-0.1323279831	 0.094083
H	-1.2805686935	-3.0829852313	 0.951240115	 0.117091
H	-0.4199051518	-1.8569949332	 1.9569969682	 0.117837
H	-3.1447808442	-1.2247814356	-1.1635990594	 0.109326
H	-2.549941466	 0.4626653556	-1.037843395	 0.132856
H	-1.5792470664	-1.4106045856	-3.1664866004	 0.101735
H	-0.5395113195	-0.1414625543	-2.4653616319	 0.138189
H	-1.2032769112	-2.912577028	-1.2366759629	 0.088349
170.1143	247.8215	287.9226	392.7312	466.9491	499.7503	589.1365	640.873	664.4053	724.433	761.8478	776.8676	814.1394	845.1646	875.1885	893.2684	909.8563	947.4204	988.8776	997.2101	1023.0162	1037.7903	1076.2809	1104.5437	1113.552	1155.4009	1178.2252	1195.5144	1199.4128	1211.3123	1223.8522	1242.545	1284.405	1356.6884	1386.0474	1473.8527	1485.8841	1490.2781	1797.464	3064.3393	3071.6529	3076.6865	3081.6781	3137.9908	3138.7795	3150.4414	3153.0321	3470.9466
N=C1OC2CC11CCC21	[NH][C]1O[C@H]2C[C@]31CC[C@@H]23	
InChI=1S/C7H9NO/c8-6-7-2-1-4(7)5(3-7)9-6/h4-5,8H,1-3H2	InChI=1S/C7H9NO/c8-6-7-2-1-4(7)5(3-7)9-6/h4-5,8H,1-3H2/t4-,5-,7+/m0/s1
