17
gdb 32941	6.23123	0.81326	0.72589	1.3438	71.81	-0.1814	0.0645	0.2458	1529.3411	0.13583	-455.177358	-455.168234	-455.16729	-455.211755	32.762	
C	-0.1091542837	 1.5061412038	-0.0506229451	-0.39199
C	-0.010383701	-0.0064815018	-0.0136415988	-0.036707
O	-1.3483565324	-0.5270163874	 0.0300684857	-0.2841
C	-1.4307445279	-1.8636373826	 0.0665158971	 0.487923
N	-0.4705254468	-2.7391223197	 0.067488047	-0.358616
C	-1.112218455	-3.9815525078	 0.1142148003	-0.246528
C	-2.461213724	-3.8012219723	 0.1399853841	 0.364279
O	-3.5502777117	-4.6086735052	 0.1855825321	-0.437945
N	-2.6746215166	-2.4358851308	 0.1094688937	-0.392186
H	 0.8935913458	 1.9421126768	-0.0845701069	 0.121925
H	-0.6606594257	 1.8398870333	-0.9342537902	 0.127209
H	-0.620624891	 1.8858435598	 0.8385178114	 0.12721
H	 0.4989734218	-0.4062492231	-0.8974752921	 0.120679
H	 0.538796674	-0.3605390988	 0.8658275136	 0.120676
H	-0.5553448974	-4.9049816007	 0.1254777167	 0.096933
H	-3.2475292018	-5.5217187114	 0.2028559064	 0.309325
H	-3.5634175166	-1.9656117621	 0.1171367151	 0.271914
56.0347	80.7154	142.6766	206.3405	226.2126	255.8242	343.6874	350.7378	378.1056	421.438	509.5974	647.3085	685.5371	719.6993	746.3531	765.1583	810.0872	909.2045	1003.998	1054.5979	1078.7308	1125.8571	1152.8124	1182.3779	1185.6276	1259.5838	1279.6121	1290.4015	1390.2695	1416.8926	1477.7621	1484.6951	1497.9168	1504.709	1526.1362	1630.7803	1648.5479	3039.2287	3045.0916	3075.5242	3120.4441	3122.5879	3252.3668	3676.3998	3844.9798
CCOC1=NC=C(O)N1	CCOc1ncc(O)[nH]1	
InChI=1S/C5H8N2O2/c1-2-9-5-6-3-4(8)7-5/h3,8H,2H2,1H3,(H,6,7)	InChI=1S/C5H8N2O2/c1-2-9-5-6-3-4(8)7-5/h3,8H,2H2,1H3,(H,6,7)
