13
gdb 129081	3.20339	1.52626	1.1249	3.1022	73.62	-0.2725	-0.1096	0.1629	1013.9472	0.089546	-448.866572	-448.85929	-448.858346	-448.899116	26.722	
N	-0.0369189189	 1.1185784778	 0.8710361602	-0.456117
C	 0.0140932623	 0.0813314928	 0.1211312387	 0.244232
C	 1.2881800934	-0.5401766542	-0.2957191912	-0.016579
N	 1.5787670584	-1.6356869651	-0.8914208813	-0.070224
O	 0.5939271693	-2.4376741163	-1.4485316138	-0.260955
C	-0.5746478945	-1.8701680691	-2.0104961143	 0.402812
N	-0.7942220298	-1.9836641251	-3.244515571	-0.447209
N	-1.5402271658	-1.3619636356	-1.1515719143	-0.199553
C	-1.2903159801	-0.5320580851	-0.2249650217	 0.021685
H	 0.897471513	 1.4935685756	 1.0573016572	 0.239479
H	 2.1812145069	-0.0260476512	 0.0604248124	 0.137654
H	 0.0241265081	-2.3737157517	-3.7124796241	 0.249269
H	-2.1192469224	-0.1726756327	 0.3849444632	 0.155506
51.778	96.8983	257.5418	337.9285	365.4738	418.2301	467.4722	502.9997	612.7724	691.43	720.4959	784.4384	824.0177	875.957	895.9654	934.3971	941.8786	962.2045	990.7166	1019.1316	1135.1706	1250.4506	1362.3158	1388.866	1402.7882	1643.693	1664.3592	1733.1196	1756.9479	3134.6004	3142.4659	3436.1924	3503.6479
N=C1C=NOC(=N)N=C1	[NH][C]1C=NO[C]([NH])N=C1	
InChI=1S/C4H4N4O/c5-3-1-7-4(6)9-8-2-3/h1-2,5-6H	InChI=1S/C4H4N4O/c5-3-1-7-4(6)9-8-2-3/h1-2,5-6H
