21
gdb 84440	3.27213	1.37419	1.21374	1.7223	83.1	-0.2403	0.0082	0.2485	1114.1188	0.183767	-387.090385	-387.082232	-387.081287	-387.122324	33.493	
C	-0.0563560552	 1.5393691105	-0.0058585816	-0.497743
C	 0.0178287678	 0.02372738	 0.0056341564	 0.307599
C	 1.090170257	-0.7097041032	-0.8709802996	-0.257992
C	 1.0706553709	-1.8231343451	 0.2140851788	-0.053702
C	 0.6658200161	-0.7117865086	 1.2240379357	-0.257952
C	-0.1046888907	-2.7846568777	-0.0388026981	 0.11195
O	-0.276593071	-3.7226294224	 1.0233493088	-0.442563
C	-1.3666683165	-1.9907488509	-0.2967529536	-0.140673
C	-1.3129664295	-0.6584781806	-0.2646404839	-0.084772
H	 0.9256511648	 1.9832567184	 0.1866642337	 0.111139
H	-0.4085570615	 1.9115327167	-0.9751661959	 0.116473
H	-0.7476009714	 1.9084130023	 0.7610066164	 0.115718
H	 0.8066919709	-0.9747770491	-1.8931998741	 0.094139
H	 2.0440613998	-0.1728915055	-0.8793693189	 0.092218
H	 1.9855422246	-2.3871491094	 0.4054863751	 0.067539
H	 1.544613187	-0.1769460334	 1.596597398	 0.094173
H	 0.0138140608	-0.9656868966	 2.0658196286	 0.077775
H	 0.1302705053	-3.410760731	-0.9097634681	 0.090055
H	-0.5989524684	-3.232095952	 1.7875187172	 0.276033
H	-2.2853595891	-2.5406510323	-0.4779187703	 0.093278
H	-2.1916971216	-0.0414254703	-0.4347672047	 0.087309
137.7788	216.8081	239.0649	281.6391	295.4195	327.1042	394.7062	426.1842	443.4196	478.9513	619.9572	632.8332	698.5228	748.4951	818.4592	843.9501	890.0217	900.0291	917.9746	959.6452	980.6179	992.6028	1020.7153	1032.5514	1060.7794	1077.5046	1122.0954	1133.7906	1167.9328	1207.5186	1225.6116	1246.6013	1261.0977	1272.4672	1282.0665	1326.5888	1356.1285	1396.1749	1412.019	1422.9079	1478.7952	1492.2239	1493.1098	1509.1783	1691.6136	3021.1626	3022.0138	3038.1874	3045.888	3084.2291	3088.6527	3094.3744	3097.2084	3103.8142	3151.8762	3181.0833	3802.2194
CC12CC(C1)C(O)C=C2	C[C@@]12C[C@@H](C1)[C@@H](O)C=C2	
InChI=1S/C8H12O/c1-8-3-2-7(9)6(4-8)5-8/h2-3,6-7,9H,4-5H2,1H3	InChI=1S/C8H12O/c1-8-3-2-7(9)6(4-8)5-8/h2-3,6-7,9H,4-5H2,1H3/t6-,7-,8+/m0/s1
