17
gdb 9181	5.32861	0.9032	0.8512	3.135	72.23	-0.2473	0.0244	0.2718	1376.7504	0.139829	-363.864647	-363.855116	-363.854172	-363.900667	32.856	
C	 0.0683517897	 1.298132197	 0.5805522768	-0.367548
C	-0.1203654369	 0.0824164808	-0.3275236807	-0.299229
C	-1.5490690052	-0.4547040223	-0.2769948492	 0.432171
O	-2.5125479546	 0.2542462049	-0.0453100163	-0.374209
N	-1.6691211025	-1.789645223	-0.5484380526	-0.322225
C	-2.9592063311	-2.4642256444	-0.5292093968	-0.287976
C	-2.9357098379	-3.6834923346	 0.2730024286	 0.283489
C	-2.8977775601	-4.6998043709	 0.9127129983	-0.444265
H	 1.0601692098	 1.736483527	 0.4401346059	 0.109094
H	-0.6890607644	 2.0521271521	 0.3580072219	 0.146095
H	-0.0378863307	 1.0231466578	 1.6340827824	 0.123994
H	 0.0794673114	 0.359960532	-1.3710675425	 0.130799
H	 0.5933299519	-0.7120005449	-0.0793012766	 0.100919
H	-0.8426223781	-2.3501892536	-0.6741201347	 0.24997
H	-3.6715419747	-1.7374887011	-0.1253865375	 0.177799
H	-3.2898776873	-2.7030110277	-1.5496641283	 0.137677
H	-2.8794829893	-5.5913438391	 1.4894384414	 0.203446
24.7976	39.5209	84.406	180.35	202.5496	246.5055	308.1034	328.2889	387.8418	436.4755	556.7085	599.7517	617.9697	668.2574	688.8245	809.3327	876.3628	954.9043	996.1349	1046.4844	1057.021	1097.7374	1119.8431	1218.8466	1256.7751	1286.7663	1362.5066	1387.3128	1408.5531	1465.0793	1486.1661	1493.1002	1504.7571	1525.5749	1775.6898	2241.8833	3007.0997	3024.0354	3049.351	3060.7546	3083.7852	3115.9956	3139.9021	3505.4087	3650.4825	24.795	39.5192	84.4051	180.3496	202.5489	246.5049	308.1028	328.2872	387.8416	436.4748	556.7081	599.7514	617.9684	668.256	688.8245	809.3326	876.3628	954.9042	996.1349	1046.4845	1057.021	1097.7375	1119.8432	1218.8464	1256.775	1286.7667	1362.5067	1387.3127	1408.5531	1465.0796	1486.1663	1493.1003	1504.7573	1525.5745	1775.6886	2241.8834	3007.0997	3024.0353	3049.3509	3060.7546	3083.7852	3115.9956	3139.9021	3505.4082	3650.4825
CCC(=O)NCC#C	CCC(=O)NCC#C	
InChI=1S/C6H9NO/c1-3-5-7-6(8)4-2/h1H,4-5H2,2H3,(H,7,8)	InChI=1S/C6H9NO/c1-3-5-7-6(8)4-2/h1H,4-5H2,2H3,(H,7,8)
