22
gdb 8950	3.77989	1.06744	0.88401	2.4049	74.44	-0.255	0.0634	0.3184	1354.5622	0.198409	-387.343033	-387.332847	-387.331903	-387.378008	37.227	
C	-0.2289557883	 1.477843107	 0.0646116635	-0.393134
C	 0.0601639119	-0.025478366	 0.0135128757	-0.169317
C	 0.8163516098	-0.4906191256	-1.247778598	 0.011577
C	 2.2720223076	 0.0022026726	-1.2583826116	-0.408535
C	 0.7353637191	-2.0204013978	-1.389652633	 0.097148
O	-0.6262827424	-2.4792081711	-1.437764628	-0.441571
C	 1.4661772383	-2.5959263833	-2.6092925499	-0.071383
O	 1.2325535826	-3.9821712573	-2.7236160071	-0.425524
H	 0.6862751986	 2.0778803635	 0.080762316	 0.11741
H	-0.818277654	 1.7970443045	-0.8027881261	 0.110722
H	-0.800151083	 1.7325746775	 0.9627587197	 0.11551
H	 0.6401168623	-0.3201924918	 0.8989867709	 0.093177
H	-0.8833249618	-0.5769162999	 0.0709840808	 0.109432
H	 0.3064115713	-0.0603050989	-2.126550272	 0.057634
H	 2.770590887	-0.2022942285	-2.2095954288	 0.122322
H	 2.3219539331	 1.081630276	-1.0929849535	 0.119521
H	 2.8522706216	-0.480903828	-0.4632511468	 0.119473
H	 1.1438571649	-2.4951888977	-0.4883899468	 0.095234
H	-1.0720112197	-1.9864466369	-2.1378961204	 0.280355
H	 1.1338727855	-2.0530599714	-3.5153319267	 0.068275
H	 2.5473458464	-2.4539918562	-2.5223209224	 0.10848
H	 0.3081135992	-4.1025357807	-2.4677720155	 0.283194
67.8025	79.8894	129.7837	160.9834	216.1543	228.8813	287.9107	311.8194	338.5238	355.5376	380.1527	433.0993	506.8928	536.2674	582.2405	775.7837	839.478	856.3119	931.1837	982.2052	990.586	1037.712	1061.1118	1067.6944	1102.5078	1125.7766	1158.721	1185.4611	1215.4309	1247.9792	1286.7554	1308.6135	1343.3504	1364.8162	1377.9399	1387.9573	1407.9569	1413.8261	1420.0052	1449.8945	1488.2984	1495.0496	1500.454	1508.4502	1509.6942	1514.0813	2918.0204	2959.6144	3017.3414	3031.5953	3034.9665	3040.9494	3075.4357	3082.8928	3097.5723	3102.6553	3107.08	3117.7059	3754.0206	3780.7907
CCC(C)C(O)CO	CC[C@@H](C)[C@@H](O)CO	
InChI=1S/C6H14O2/c1-3-5(2)6(8)4-7/h5-8H,3-4H2,1-2H3	InChI=1S/C6H14O2/c1-3-5(2)6(8)4-7/h5-8H,3-4H2,1-2H3/t5-,6+/m1/s1
