19
gdb 89788	1.87077	1.7018	1.00264	4.2241	77.58	-0.225	-0.0239	0.2011	1215.2571	0.157762	-419.153935	-419.144848	-419.143904	-419.188269	33.033	
C	-0.2275580038	 1.5128333273	-0.0644569889	-0.328757
N	-0.171968375	 0.0706417895	 0.0420897203	-0.086331
C	-1.3508334948	-0.645748472	 0.5728158512	-0.248642
C	-0.393077299	-1.5413340187	 1.3590935408	 0.315361
C	-0.6204643618	-2.4124072827	 2.5230452073	-0.302616
N	-0.2158888743	-2.9807970995	 1.2187707679	-0.349489
C	 0.7284139748	-0.5299477096	 1.0487220321	-0.126774
C	 2.0109707286	-1.1124559722	 0.4890555401	 0.177291
O	 3.046103697	-1.1727142739	 1.0996413085	-0.249488
H	 0.7460404263	 1.8984245284	-0.3830491371	 0.130103
H	-0.9648154388	 1.7988886967	-0.8217176199	 0.125605
H	-0.5001757579	 2.0093663447	 0.8855048185	 0.09718
H	-1.9901460434	-0.0267921507	 1.2236030064	 0.095242
H	-1.9788319521	-1.1220860124	-0.1907288979	 0.106384
H	 0.1299556804	-2.4894093948	 3.3051307502	 0.133192
H	-1.6454901326	-2.5501075969	 2.859748033	 0.116785
H	-1.0165500779	-3.3923730762	 0.7447083106	 0.234652
H	 0.9631594751	 0.11784422	 1.9070573361	 0.07847
H	 1.9057904492	-1.4954478969	-0.5490388191	 0.081831
63.6679	75.2085	175.273	198.51	214.8729	242.7696	299.7081	344.8993	419.3227	470.7651	505.4516	526.5878	738.7742	835.7905	860.0214	925.1472	953.2856	976.5689	982.262	1013.8868	1051.0766	1065.9651	1106.2055	1124.8269	1149.264	1166.2839	1194.4305	1216.4811	1251.092	1262.7244	1286.2225	1297.9832	1334.5005	1404.6326	1428.9078	1454.2731	1486.4885	1498.3879	1510.1328	1517.2509	1831.674	2903.8261	2933.7795	2965.5699	2994.8896	3034.9931	3062.2994	3103.5159	3104.6775	3189.5804	3494.9484
CN1CC2(CN2)C1C=O	CN1C[C@]2(CN2)[C@H]1C=O	
InChI=1S/C6H10N2O/c1-8-4-6(3-7-6)5(8)2-9/h2,5,7H,3-4H2,1H3	InChI=1S/C6H10N2O/c1-8-4-6(3-7-6)5(8)2-9/h2,5,7H,3-4H2,1H3/t5-,6-/m1/s1
