18
gdb 43166	2.12686	1.93095	1.78275	3.5562	75.57	-0.223	-0.013	0.21	922.4193	0.151202	-401.969536	-401.962422	-401.961478	-402.000983	28.431	
O	 0.0078090444	 0.0412040032	-0.0148738212	-0.333771
C	-0.0112341495	 1.2405812143	 0.0202416226	 0.445527
C	-1.2156908947	 2.1785038723	 0.0528992795	-0.12905
C	-0.7229947252	 3.3074262173	 0.9868045696	-0.169881
N	 0.7512002381	 3.1178796062	 1.0960485011	-0.309214
C	 1.1579622463	 2.2264034231	-0.0039089743	-0.1381
C	 1.1137014456	 2.8819944641	-1.3825851513	-0.085311
C	-0.0531005406	 3.1054387321	-1.9932832101	-0.050499
C	-1.379932618	 2.6794524083	-1.4089456738	-0.271301
H	-2.1224923529	 1.6827412124	 0.4005378805	 0.091882
H	-0.9909331102	 4.291850911	 0.5819238273	 0.095124
H	-1.1751467781	 3.2255801816	 1.9812131869	 0.113016
H	 1.2358617104	 4.0068210856	 1.0515859705	 0.220155
H	 2.1178985361	 1.7513078246	 0.2021189394	 0.090207
H	 2.0518762582	 3.1826779238	-1.8410577346	 0.096676
H	-0.0785149086	 3.5986742101	-2.9619559796	 0.097302
H	-1.814686967	 1.8784264267	-2.0233983046	 0.126811
H	-2.098330194	 3.5093176635	-1.4413548579	 0.110428
112.045	148.3199	262.5151	307.9345	433.0534	453.326	480.6757	557.5457	663.3401	699.3838	761.9791	765.3453	810.6123	832.5018	903.1115	909.7828	950.4266	976.9413	993.3356	1016.6185	1029.8741	1056.9017	1105.2949	1134.9724	1187.3617	1193.9892	1201.5052	1240.4396	1273.2447	1288.1058	1313.5982	1354.263	1375.2201	1395.2762	1431.0579	1477.9141	1519.8522	1693.4718	1874.8604	3007.0535	3010.4175	3035.3722	3053.6297	3105.7752	3111.7361	3149.5506	3173.2059	3537.4516
O=C1C2CNC1C=CC2	O=C1[C@H]2CN[C@@H]1C=CC2	
InChI=1S/C7H9NO/c9-7-5-2-1-3-6(7)8-4-5/h1,3,5-6,8H,2,4H2	InChI=1S/C7H9NO/c9-7-5-2-1-3-6(7)8-4-5/h1,3,5-6,8H,2,4H2/t5-,6-/m1/s1
