16
gdb 42898	2.81069	1.62425	1.27904	3.4888	69.27	-0.2273	-0.028	0.1993	1001.0849	0.124067	-437.822976	-437.815346	-437.814402	-437.855655	28.419	
O	-0.2226829868	-0.005203156	-0.1036722547	-0.304933
C	-0.1646498569	 1.1800041662	 0.0277089805	 0.400487
C	-1.15646356	 2.3190592476	-0.0804300443	-0.197894
N	-0.8418962713	 3.1990223182	 1.0966545597	-0.339399
C	-0.0101833196	 3.2977002973	-0.1094802456	-0.149827
C	 1.0427289312	 2.1944641389	 0.0661749379	 0.383334
C	 2.1622896086	 2.190700299	 1.1150394861	-0.35057
C	 3.083915428	 1.9125455322	-0.0897353842	-0.077269
O	 1.9667664349	 2.0083163675	-1.0099991072	-0.324131
H	-2.127618492	 2.3514931628	-0.5570405877	 0.118612
H	-1.5260534347	 3.955235424	 1.0690712489	 0.24556
H	 0.0844539026	 4.2009572473	-0.6972969985	 0.11778
H	 2.3130809262	 3.1484238943	 1.6148168253	 0.12175
H	 2.0975836367	 1.3970631838	 1.8597801242	 0.130031
H	 3.8480548104	 2.666319202	-0.3084345857	 0.107959
H	 3.5384013926	 0.9166108549	-0.1145514847	 0.118511
69.9255	105.7097	185.2784	220.013	269.617	403.5436	500.618	589.7999	640.2752	727.7916	788.6034	823.459	826.0897	854.1879	881.1217	898.248	956.936	972.448	1011.6771	1036.1223	1054.482	1092.3351	1114.2486	1138.7708	1166.557	1208.0613	1213.9716	1253.7107	1276.1592	1326.506	1346.4001	1358.5591	1481.6403	1526.7945	1899.6356	3034.0204	3080.2119	3089.1181	3145.6508	3203.3923	3216.4961	3470.8857
O=C1C2NC2C11CCO1	O=C1[C@H]2N[C@H]2[C@]21CCO2	
InChI=1S/C6H7NO2/c8-5-3-4(7-3)6(5)1-2-9-6/h3-4,7H,1-2H2	InChI=1S/C6H7NO2/c8-5-3-4(7-3)6(5)1-2-9-6/h3-4,7H,1-2H2/t3-,4+,6-/m0/s1
