13
gdb 129706	2.4484	1.92244	1.0779	2.5332	70.	-0.2184	-0.0771	0.1413	1009.9117	0.088836	-486.031894	-486.024142	-486.023198	-486.063919	29.434	
N	 0.0196823107	 1.3973980826	 0.0906512434	-0.571965
C	-0.0362638414	 0.0213438617	-0.0049225805	 0.292834
C	-1.1624334529	-0.7284552626	 0.0912857583	 0.243175
O	-2.3864204624	-0.2006571305	 0.2242376004	-0.427114
C	-1.0695346772	-2.1716613196	 0.0435627522	 0.380721
N	-2.1493395018	-2.8477408984	 0.1325425022	-0.594068
O	 0.1696166776	-2.7024092638	-0.0952041634	-0.285597
N	 1.3586235589	-1.8315572999	-0.216318039	 0.010647
N	 1.1832055712	-0.6170999795	-0.1628304176	-0.141118
H	 0.8261670231	 1.8098288883	-0.3556610556	 0.26631
H	-0.8482520904	 1.8691040597	-0.1175906314	 0.272475
H	-2.9833215801	-0.9758756052	 0.2578787266	 0.316685
H	-1.9933547053	-3.8518341327	 0.0869037343	 0.237016
127.6725	157.1438	265.2106	278.1034	304.4674	331.2225	445.7595	505.8114	529.5702	550.8343	588.2963	634.8781	644.7144	668.324	757.0382	757.7098	799.925	894.4339	1014.5766	1070.7249	1152.5892	1294.5066	1367.8576	1384.3864	1456.2267	1591.0213	1632.1734	1696.8869	1749.0256	3530.8435	3565.455	3568.0884	3678.8682
NC1=C(O)C(=N)ON=N1	NC1=N[N]OC(=C1O)[NH]	
InChI=1S/C3H4N4O2/c4-2-1(8)3(5)9-7-6-2/h5,8H,4H2	InChI=1S/C3H4N4O2/c4-2-1(8)3(5)9-7-6-2/h5,8H,4H2
