15
gdb 9184	7.41061	0.88501	0.8023	2.987	63.43	-0.2929	-0.0063	0.2866	1360.7308	0.116748	-399.846708	-399.83778	-399.836836	-399.882284	29.508	
C	-0.0700774926	 1.4536830159	 0.1288750045	-0.374263
C	 0.0471618146	-0.0549814348	-0.0745284237	-0.305113
C	 0.7718335134	-0.4171239695	-1.3502457848	 0.461021
O	 1.2275520507	 0.3462855815	-2.1608737	-0.34157
O	 0.855623348	-1.7686542026	-1.4871771113	-0.24012
C	 1.5295280506	-2.1951521567	-2.6744321162	-0.20131
C	 1.5379344893	-3.656531813	-2.6893617436	 0.267853
N	 1.5634494627	-4.8096762422	-2.7343440353	-0.28867
H	 0.9166579337	 1.9209717904	 0.1752014523	 0.136143
H	-0.6154658332	 1.9192640777	-0.6956878638	 0.13626
H	-0.5996481458	 1.6701164326	 1.0602015222	 0.119825
H	 0.5785166681	-0.5358816377	 0.7551723982	 0.142588
H	-0.9369786963	-0.5372680769	-0.1057756764	 0.142666
H	 1.0206161603	-1.8111220462	-3.5644563303	 0.17242
H	 2.5547387765	-1.8114048484	-2.6935226718	 0.172271
22.3921	43.2686	113.3685	149.6454	218.4288	228.2069	307.5426	376.7912	398.5705	562.3194	577.2421	667.8067	808.3695	880.0432	978.2492	1001.0287	1016.5376	1046.2535	1104.7233	1109.5266	1193.0444	1247.2088	1277.8993	1367.809	1400.292	1419.0994	1456.5783	1483.4846	1495.2334	1500.9987	1828.176	2376.8504	3045.3196	3055.454	3057.1291	3074.9484	3095.8702	3128.9587	3131.742
CCC(=O)OCC#N	CCC(=O)OCC#N	
InChI=1S/C5H7NO2/c1-2-5(7)8-4-3-6/h2,4H2,1H3	InChI=1S/C5H7NO2/c1-2-5(7)8-4-3-6/h2,4H2,1H3
