16
gdb 104943	2.85183	0.86237	0.71552	4.6071	85.99	-0.2712	-0.045	0.2262	1536.5395	0.123395	-400.719763	-400.71056	-400.709615	-400.754562	32.798	
O	 0.1718914046	 1.2916245405	-0.4684629404	-0.407281
C	-0.000079223	 0.0350185727	 0.14895933	-0.132347
C	-1.4309307669	-0.4938536074	 0.0469295193	 0.100829
C	-1.8623487354	-1.1459613018	-1.2613883761	-0.278639
C	-1.6388243391	-2.002648217	-0.0551861252	-0.293089
C	-2.3990127609	 0.2762188969	 0.7632158954	 0.050488
C	-3.1798406774	 0.9662180637	 1.3809171934	 0.038835
C	-4.0714513961	 1.7303944204	 2.0743676687	 0.193654
N	-4.8292329232	 2.3839636385	 2.6658487016	-0.338257
H	-0.3420059629	 1.9404610939	 0.0246527309	 0.293997
H	 0.6643286249	-0.6573603631	-0.3777531985	 0.114084
H	 0.3058022634	 0.0539571193	 1.2053424979	 0.106307
H	-2.8805108768	-0.9795463743	-1.5912916762	 0.139486
H	-1.1217709987	-1.1504623205	-2.0531993854	 0.140106
H	-0.7432333488	-2.6126725205	-0.0065902258	 0.132656
H	-2.5010522935	-2.4219825117	 0.4487313804	 0.139172
59.1859	90.2821	103.9672	192.7937	241.8034	249.1838	288.4257	341.8792	428.9701	508.4416	530.8048	573.7682	591.6518	633.5936	784.0009	824.6801	900.8039	927.7448	957.4018	1025.3414	1062.3209	1072.5577	1090.7645	1094.305	1192.1359	1203.6782	1277.1619	1366.4182	1384.1098	1418.8569	1466.4821	1490.1167	1502.5335	2256.1285	2385.7605	2997.9459	3080.4282	3141.911	3146.8946	3228.6557	3242.729	3807.5427
OCC1(CC1)C#CC#N	OCC1(CC1)C#CC#N	
InChI=1S/C7H7NO/c8-5-1-2-7(6-9)3-4-7/h9H,3-4,6H2	InChI=1S/C7H7NO/c8-5-1-2-7(6-9)3-4-7/h9H,3-4,6H2
