19
gdb 116981	6.98968	0.39637	0.38639	2.0041	83.15	-0.2466	-0.0269	0.2197	2697.8341	0.155778	-423.003971	-422.992918	-422.991974	-423.043819	36.424	
O	-0.1445385331	 1.4047864533	 0.2493234652	-0.41477
C	-0.1408611502	-0.0068557886	 0.3720197398	-0.063117
C	-1.2097342446	-0.5399124722	-0.5887482998	-0.324902
C	-1.3115829859	-1.9933769851	-0.5638447859	 0.090757
C	-1.3701582771	-3.195916687	-0.5333152871	 0.040394
C	-1.4735629624	-4.6488173179	-0.482909505	-0.365152
C	-2.5427401649	-5.1374145367	 0.5232124108	-0.25954
C	-2.7152172062	-6.6386150134	 0.4721112774	 0.155535
O	-2.6744829368	-7.3719459143	 1.4251203125	-0.232251
H	 0.5198692989	 1.7622475405	 0.8451934356	 0.289768
H	 0.836090735	-0.4376793219	 0.1065837685	 0.098206
H	-0.3781481628	-0.3286002115	 1.3970431406	 0.098042
H	-2.1709380049	-0.0831070334	-0.3231567134	 0.13713
H	-0.9705928988	-0.1892530714	-1.6001666145	 0.137723
H	-1.71262679	-5.0378039356	-1.4820524966	 0.133485
H	-0.5012526587	-5.0817017276	-0.2146936234	 0.140883
H	-2.2958015886	-4.8382426929	 1.544366203	 0.132951
H	-3.5058746561	-4.6812808104	 0.2571945195	 0.133689
H	-2.8938024928	-7.0429778938	-0.5534137072	 0.071171
9.5175	51.0878	59.6814	77.5938	110.7982	120.8989	236.3722	270.0919	281.9248	304.9202	387.1545	457.3743	505.8664	547.7113	756.0458	793.9675	803.1311	851.4478	987.6002	1003.461	1075.6129	1081.7263	1086.3118	1095.5748	1167.3611	1198.6774	1222.2101	1238.4017	1263.5917	1303.9698	1304.4569	1332.9512	1364.2716	1430.651	1454.6811	1462.076	1477.9547	1480.8974	1527.9924	1838.9462	2371.6421	2843.9664	2983.4736	3013.2371	3014.0754	3029.7628	3030.5454	3046.8937	3067.6591	3117.5249	3834.9666
OCCC#CCCC=O	OCCC#CCCC=O	
InChI=1S/C7H10O2/c8-6-4-2-1-3-5-7-9/h6,9H,2,4-5,7H2	InChI=1S/C7H10O2/c8-6-4-2-1-3-5-7-9/h6,9H,2,4-5,7H2
