29
gdb 122958	5.0111	0.45602	0.43536	0.0448	101.26	-0.2916	0.0855	0.3771	2701.026	0.273149	-354.781619	-354.769076	-354.768131	-354.820877	44.716	
C	-0.0303933465	 1.6616125702	-0.1139594292	-0.378919
C	 0.0063953713	 0.1345363864	-0.0091536544	-0.16384
C	-1.3867645858	-0.5036450693	 0.0094188073	-0.155706
C	-1.3598679863	-2.033471878	 0.1051540163	-0.192472
C	-2.7608138766	-2.6573849984	 0.1275121878	-0.178971
C	-2.8019937738	-4.1974517409	 0.0957661563	 0.044903
C	-2.1657748185	-4.81435128	 1.3503274697	-0.389426
C	-4.2508199203	-4.6821759825	-0.108986254	-0.164652
C	-4.4030071847	-6.1835788662	-0.3740043429	-0.391364
H	 0.9778841142	 2.0876533623	-0.1233534412	 0.109305
H	-0.535880475	 1.9832551174	-1.0314907482	 0.112282
H	-0.5705400462	 2.1036455705	 0.7308727227	 0.112266
H	 0.5811121917	-0.2767507833	-0.8497815408	 0.092582
H	 0.5501964985	-0.1576826434	 0.8991324452	 0.092635
H	-1.9604433803	-0.0961209357	 0.8539139065	 0.089815
H	-1.9339071473	-0.2057398147	-0.8962305418	 0.08934
H	-0.7957998537	-2.4389516412	-0.7469660132	 0.089077
H	-0.8010843309	-2.3227767495	 1.0039608298	 0.094876
H	-3.3022946741	-2.3029208891	 1.0169867215	 0.087217
H	-3.3231224865	-2.2773452254	-0.7365245583	 0.085706
H	-2.217390755	-4.5266950029	-0.7774453118	 0.064225
H	-2.1687456251	-5.9073090822	 1.3107088705	 0.112078
H	-1.1259274201	-4.4990755471	 1.473993897	 0.113757
H	-2.7145731865	-4.5125493183	 2.251304502	 0.108115
H	-4.8477599581	-4.4029593883	 0.7707445681	 0.089716
H	-4.6841385354	-4.130926939	-0.9535315259	 0.088879
H	-5.4466871028	-6.438470625	-0.5841344025	 0.11013
H	-3.8059873478	-6.494265899	-1.2391748521	 0.111422
H	-4.0864659486	-6.7886227273	 0.4809897756	 0.117025
39.9453	47.8125	77.525	94.042	120.9232	133.9704	201.8746	212.1621	244.5244	253.1447	259.3162	314.905	372.7939	415.822	477.3583	502.2597	730.2868	752.5566	774.6643	816.0899	846.2907	893.6054	921.9789	945.4385	974.7716	1004.1099	1012.6046	1033.7332	1053.5132	1064.494	1070.8563	1108.8122	1163.8553	1177.3947	1202.3952	1235.8938	1258.4428	1289.2762	1303.0895	1314.0726	1328.5509	1330.6774	1350.5247	1379.4339	1381.9724	1392.0333	1399.1624	1411.8013	1414.3989	1416.8911	1475.2657	1482.9672	1485.6564	1490.9245	1497.0678	1499.0467	1499.2208	1503.5211	1508.4077	1513.8534	1515.2892	2980.9618	2995.4897	2999.8378	3006.5848	3010.3525	3015.8033	3023.9263	3027.5082	3027.9897	3028.6968	3032.0433	3042.8089	3046.8849	3064.3528	3094.0084	3095.6256	3096.0021	3099.4886	3104.5851	3112.2691
CCCCCC(C)CC	CCCCC[C@@H](C)CC	
InChI=1S/C9H20/c1-4-6-7-8-9(3)5-2/h9H,4-8H2,1-3H3	InChI=1S/C9H20/c1-4-6-7-8-9(3)5-2/h9H,4-8H2,1-3H3/t9-/m0/s1
