20
gdb 75409	2.52933	1.54132	1.08714	2.0938	82.17	-0.2306	0.0046	0.2353	1161.1677	0.171817	-403.146372	-403.1378	-403.136855	-403.17951	32.688	
C	 0.2021363195	 1.5521616588	 0.0485516097	-0.471103
C	 0.041353335	 0.050042239	 0.0382530655	 0.301441
C	 0.1154511421	-0.6198599089	-1.117167023	-0.103909
C	-0.0003001362	-2.0815603498	-1.4909261791	-0.21204
N	 0.0515021172	-3.1229925405	-0.4610635805	-0.209319
C	-0.8211651178	-3.1165803984	 0.4435643912	 0.082694
O	-1.8316272426	-2.1994251082	 0.5439365402	-0.218259
C	-1.5944691488	-1.212278213	 1.5538717637	-0.073418
C	-0.2114553543	-0.5623524083	 1.4050292775	-0.329514
H	 1.0547858677	 1.8545808787	 0.6709320557	 0.122183
H	 0.3555583377	 1.9558369319	-0.9554284204	 0.119047
H	-0.6822938895	 2.0406404683	 0.4795637123	 0.118481
H	 0.2966744817	-0.0166810147	-2.0079043132	 0.078534
H	-0.9273655498	-2.2032288678	-2.0722691548	 0.127303
H	 0.8148003867	-2.2976565341	-2.1921610327	 0.11158
H	-0.8146153329	-3.8828587681	 1.2241914957	 0.107549
H	-2.3944983598	-0.4788372233	 1.4266001717	 0.120835
H	-1.6926509327	-1.6616667596	 2.5538304786	 0.098447
H	 0.5571585612	-1.3054761132	 1.6414399695	 0.130262
H	-0.1315756446	 0.2113430812	 2.1768466522	 0.099208
64.9147	197.7168	201.1554	218.3602	256.9651	278.4508	289.6532	363.2027	443.3579	508.6307	606.471	647.3585	733.9789	775.2301	835.0406	854.7304	881.8891	962.2272	995.3242	1003.3402	1013.3425	1028.3599	1052.867	1088.0533	1108.2155	1125.1171	1176.9309	1264.1954	1271.213	1280.281	1348.9923	1375.5399	1378.6525	1400.4234	1411.9545	1418.615	1477.7246	1479.7995	1483.837	1494.8711	1501.7035	1739.4561	1756.8206	2989.5331	2992.7234	3008.209	3038.5633	3044.8578	3052.1724	3076.9693	3093.2899	3103.0837	3108.7055	3115.9692
CC1=CCN=COCC1	CC1=CCN=COCC1	
InChI=1S/C7H11NO/c1-7-2-4-8-6-9-5-3-7/h2,6H,3-5H2,1H3/b7-2-,8-6-	InChI=1S/C7H11NO/c1-7-2-4-8-6-9-5-3-7/h2,6H,3-5H2,1H3/b7-2-,8-6-
