21
gdb 92705	2.07533	1.76047	1.18578	1.6084	85.04	-0.2211	0.0267	0.2478	1137.0885	0.182488	-387.096034	-387.087093	-387.086149	-387.129388	34.949	
C	-0.0727458088	 1.4853962783	 0.0312935719	-0.509026
C	 0.0032571601	-0.0090393911	-0.0108099208	 0.265594
C	 0.0222156955	-0.7781487693	-1.1058476661	-0.194179
C	 0.0641039741	-2.2501101898	-0.7787733579	-0.290599
C	 0.4113459601	-2.2763675263	 0.7334095418	 0.032904
O	 1.7783679395	-2.6026859209	 0.9623894572	-0.427066
C	 0.0582417482	-0.8597380161	 1.2194556107	 0.261612
C	 0.5704332323	-0.3757319898	 2.5559777843	-0.317064
C	-0.8960460581	-0.6549257343	 2.38283245	-0.319744
H	 0.8078741987	 1.9205574683	 0.5198558784	 0.127093
H	-0.1405751875	 1.9049905905	-0.975715211	 0.125952
H	-0.9472844917	 1.8301488527	 0.5973572777	 0.127201
H	-0.0255554045	-0.4000336291	-2.1216617745	 0.083911
H	-0.9047844573	-2.7289702993	-0.9777330274	 0.105878
H	 0.8141530817	-2.8148346658	-1.3435014411	 0.105929
H	-0.1456231954	-3.0473521399	 1.2719454794	 0.081305
H	 2.3091038629	-1.8988393446	 0.5722194295	 0.278791
H	 1.1689700088	-1.0767923509	 3.1268196369	 0.127431
H	 0.8847583316	 0.6589526866	 2.6437523055	 0.108634
H	-1.5793205743	 0.1871251354	 2.3439656793	 0.110154
H	-1.3112912359	-1.5424159246	 2.8491952362	 0.115289
60.3065	164.5086	218.824	233.3821	246.5853	258.8843	321.2392	333.3567	449.2843	473.0967	534.7219	599.9968	654.2144	761.1926	784.4748	805.0969	860.5365	891.3393	930.6002	939.8291	956.5992	979.3678	1017.9765	1035.6445	1054.5253	1066.1082	1073.6861	1077.8383	1132.7241	1172.4131	1193.5313	1241.6558	1273.3989	1288.0137	1307.9769	1321.7054	1392.1327	1415.1335	1433.2307	1465.2167	1479.2708	1484.0535	1490.6882	1502.0939	1703.9519	3010.3989	3020.2037	3062.7326	3065.7812	3080.6374	3112.9449	3126.0058	3133.3776	3185.215	3205.7733	3223.1295	3796.4168
CC1=CCC(O)C11CC1	CC1=CC[C@@H](O)C21CC2	
InChI=1S/C8H12O/c1-6-2-3-7(9)8(6)4-5-8/h2,7,9H,3-5H2,1H3	InChI=1S/C8H12O/c1-6-2-3-7(9)8(6)4-5-8/h2,7,9H,3-5H2,1H3/t7-/m1/s1
