18
gdb 106357	3.10901	1.36953	1.16021	2.0723	73.33	-0.2619	0.0264	0.2883	1093.4586	0.149067	-439.075976	-439.068273	-439.067329	-439.108185	30.447	
O	-0.0226569466	 1.3967895843	-0.090801755	-0.415476
C	 0.0113339014	-0.0056436387	 0.090919084	-0.17512
C	-1.3565679044	-0.6151641102	-0.0477085092	 0.413526
C	-2.2617242896	-0.5322909416	-1.3006161769	-0.265541
C	-3.0973613962	-1.5606262378	-0.459463288	-0.137198
C	-1.7139886996	-2.1190233892	 0.0318766149	-0.287442
C	-3.4378171977	-0.6839596298	 0.7189238299	 0.455869
N	-4.5264733775	-0.5422046728	 1.3328842766	-0.574672
O	-2.2388307968	-0.048183784	 0.98783164	-0.31512
H	-0.6670532052	 1.7408684831	 0.5384277604	 0.295462
H	 0.6704885106	-0.4111439664	-0.6832516165	 0.115786
H	 0.4331248328	-0.2828563262	 1.0702331609	 0.100765
H	-2.7098328403	 0.4348061101	-1.5328968099	 0.120873
H	-1.8083059977	-0.9821194785	-2.1853948368	 0.112293
H	-3.8914992848	-2.1794383364	-0.8656414755	 0.101654
H	-1.2128062725	-2.721517105	-0.727586695	 0.113592
H	-1.6666158199	-2.5961430361	 1.0128167537	 0.117867
H	-4.4288886658	 0.1324938154	 2.0940322825	 0.222883
98.372	141.0425	196.4633	279.5984	370.9921	414.5557	455.2016	495.8791	508.9185	597.9172	699.7673	719.2854	803.4107	835.9186	864.3039	887.8677	893.6375	936.3096	953.9585	991.8381	1019.7202	1035.1466	1073.4742	1088.7783	1098.6983	1143.2861	1153.1872	1205.1455	1228.1914	1239.8095	1265.5319	1327.639	1333.2453	1382.9989	1440.2777	1476.4255	1493.4162	1511.8307	1811.3435	2983.0727	3073.8161	3081.2046	3083.2796	3142.3491	3149.7995	3174.302	3468.4106	3803.2767
OCC12CC(C1)C(=N)O2	OC[C@@]12C[C@@H](C1)[C]([NH])O2	
InChI=1S/C6H9NO2/c7-5-4-1-6(2-4,3-8)9-5/h4,7-8H,1-3H2	InChI=1S/C6H9NO2/c7-5-4-1-6(2-4,3-8)9-5/h4,7-8H,1-3H2/t4-,6+
