17
gdb 109339	1.937	1.75823	0.93769	2.3537	72.82	-0.2405	-0.0157	0.2248	1200.2431	0.13625	-455.172203	-455.16329	-455.162345	-455.20665	31.135	
O	-0.0226897551	 1.4551920362	 0.0079066985	-0.397491
C	-0.012031094	 0.0483051277	 0.0021898898	-0.17243
C	-1.4311932904	-0.4479165403	 0.012461842	 0.383125
N	-2.4636874574	 0.2921600436	 0.0234632919	-0.265492
C	-3.6528245802	-0.5656999865	 0.0308827056	-0.176342
C	-3.1491015411	-2.0357773616	 0.0235067847	-0.205167
N	-1.6892385142	-1.8440317368	 0.0106823497	-0.126564
C	-0.7900030004	-2.8733410412	-0.0022332135	 0.14305
O	 0.4177843649	-2.7633439858	-0.0147477355	-0.322387
H	 0.8936745627	 1.7465523657	-0.004966741	 0.292237
H	 0.4938217552	-0.3731493643	-0.8793168724	 0.126892
H	 0.5088018885	-0.3799948232	 0.8716506653	 0.126744
H	-4.2578722152	-0.3432617996	 0.9158292867	 0.124422
H	-4.2717673767	-0.3391178725	-0.8433667582	 0.124401
H	-3.4582290771	-2.59353318	 0.9123593032	 0.128214
H	-3.4743229165	-2.590330358	-0.8615745952	 0.12822
H	-1.300591043	-3.8557619535	-0.0017613015	 0.088568
46.6341	114.8352	146.0755	197.3243	225.8047	241.4473	259.2073	260.1853	419.8147	510.8446	597.1973	695.5857	778.1299	827.8311	834.9406	960.1841	1018.9727	1020.4172	1033.436	1070.5233	1109.5943	1140.7156	1216.4419	1238.7139	1253.4423	1257.4112	1262.5086	1313.4343	1339.1906	1401.6771	1443.4433	1477.8007	1484.0398	1500.9155	1526.5553	1734.4402	1791.2774	2946.6785	2996.001	3017.0598	3043.1252	3051.596	3070.3253	3095.0836	3836.1685
OCC1=NCCN1C=O	OCC1=NCCN1C=O	
InChI=1S/C5H8N2O2/c8-3-5-6-1-2-7(5)4-9/h4,8H,1-3H2	InChI=1S/C5H8N2O2/c8-3-5-6-1-2-7(5)4-9/h4,8H,1-3H2
