20
gdb 12376	2.86462	1.98627	1.28715	2.8632	74.66	-0.2332	-0.0091	0.2242	994.0905	0.178537	-349.05524	-349.047299	-349.046355	-349.087361	30.524	
C	-0.0929556234	 1.5498054024	 0.0133990381	-0.398467
C	 0.0612912798	 0.0303564016	 0.0224971652	-0.070593
C	 0.7534526621	-0.5122476014	-1.2511892607	-0.193486
C	 0.92540758	-2.0357674773	-1.2208050439	-0.201325
C	 1.7104587665	-2.4796993159	 0.0192837468	-0.197998
C	 1.0440315777	-1.9712284598	 1.3134023374	-0.288819
C	 0.8063019987	-0.4674889727	 1.2628359621	 0.386554
O	 1.1886942776	 0.2773059416	 2.1364821449	-0.310701
H	 0.8848262496	 2.0391858905	-0.02735103	 0.124637
H	-0.6759252461	 1.8728447233	-0.8547698142	 0.104245
H	-0.5920889207	 1.9002832424	 0.9196823424	 0.127008
H	-0.9360745187	-0.4362817961	 0.0665529237	 0.088291
H	 0.1742470556	-0.2071915416	-2.1300380978	 0.098994
H	 1.7383138743	-0.0345490539	-1.3483474303	 0.103118
H	-0.0631461842	-2.515442194	-1.2189169058	 0.095218
H	 1.4339942873	-2.3740538528	-2.1303220523	 0.097586
H	 1.7998653829	-3.5706572854	 0.0530728211	 0.100635
H	 2.7328567823	-2.0837116908	-0.0364587739	 0.107521
H	 0.06772992	-2.4632121272	 1.4289381577	 0.111775
H	 1.6405419385	-2.1978481831	 2.2002469594	 0.115807
89.2009	156.3889	185.1989	277.2723	307.9756	322.5905	391.9283	426.5788	499.0386	572.2541	664.6684	725.6143	825.4146	842.7675	870.3679	900.6561	946.4638	974.0881	1000.2882	1062.5125	1079.0359	1094.1666	1132.6509	1143.0756	1165.8043	1235.6723	1261.6234	1277.6168	1316.192	1341.396	1343.0559	1370.9702	1380.0503	1386.7113	1411.8776	1470.2078	1486.33	1490.1803	1490.7144	1495.2693	1504.3117	1809.911	2980.5243	3012.1226	3015.2091	3017.233	3026.243	3043.172	3062.9413	3067.2725	3073.7355	3105.7598	3110.8371	3125.7224
CC1CCCCC1=O	C[C@H]1CCCCC1=O	
InChI=1S/C7H12O/c1-6-4-2-3-5-7(6)8/h6H,2-5H2,1H3	InChI=1S/C7H12O/c1-6-4-2-3-5-7(6)8/h6H,2-5H2,1H3/t6-/m0/s1
