16
gdb 49509	3.71614	1.24676	1.12861	1.7487	68.87	-0.2318	-0.045	0.1868	1074.8471	0.124618	-437.862612	-437.855254	-437.85431	-437.894959	27.801	
O	-0.797772006	 0.8755628871	 0.5527310445	-0.233861
C	 0.1825520399	 0.909098706	-0.1438832001	 0.133288
C	 1.3351127585	 1.8753864392	 0.0302150103	-0.064431
C	 1.5293596333	 2.5495509604	 1.4151441483	-0.144183
C	 2.2115175692	 1.1922293244	 1.768670179	-0.206438
N	 2.6444799468	 1.1431789368	 0.3092872161	-0.143701
C	 3.5899617119	 2.2970259383	 0.2849315012	-0.288409
C	 2.7893618956	 3.3521275012	 1.0960160874	 0.417544
O	 3.0856799707	 4.4778169763	 1.3820952866	-0.321255
H	 0.3167856926	 0.2181139615	-1.005318038	 0.09943
H	 1.3754453196	 2.5077378679	-0.8677940428	 0.106561
H	 0.7406011831	 3.0281233705	 1.9888368626	 0.106852
H	 3.032628149	 1.1850815661	 2.4895250873	 0.12081
H	 1.5036207545	 0.3943883419	 1.992237704	 0.143399
H	 4.5388976838	 2.0364810616	 0.7612586793	 0.138156
H	 3.7908048675	 2.6274050908	-0.7378169257	 0.136237
69.5746	140.654	164.1529	275.1337	381.1468	442.7673	489.0955	601.2902	609.9726	687.9141	762.6669	785.6663	830.5588	850.888	876.3779	961.8479	978.5827	1001.8441	1018.8214	1056.5408	1063.3334	1140.2165	1156.6759	1181.895	1193.6306	1221.8018	1236.1346	1260.8972	1290.2145	1369.3915	1409.7109	1468.4709	1525.4644	1829.7815	1880.4812	2895.5902	3017.8594	3066.0035	3076.0106	3118.277	3147.0641	3166.3638
O=CC1C2CN1CC2=O	O=C[C@H]1[C@H]2CN1CC2=O	
InChI=1S/C6H7NO2/c8-3-5-4-1-7(5)2-6(4)9/h3-5H,1-2H2	InChI=1S/C6H7NO2/c8-3-5-4-1-7(5)2-6(4)9/h3-5H,1-2H2/t4-,5+/m1/s1
