23
gdb 74005	2.40986	1.54253	1.15925	0.2621	93.69	-0.2106	0.0284	0.2389	1196.911	0.205992	-351.156631	-351.147581	-351.146637	-351.189735	35.719	
C	-0.0724662276	 1.5051931135	 0.130864385	-0.493068
C	-0.0380768385	 0.0256561535	-0.0827923997	 0.142978
C	-1.0490870541	-0.83644646	-0.1699818791	 0.197445
C	-2.4429616489	-1.1191338338	 0.3459310017	-0.327588
C	-1.8471213948	-2.4933605777	 0.8351767545	-0.27958
C	-0.6368079698	-2.2883852787	-0.1546977448	 0.322902
C	-0.8271944878	-3.0584589394	-1.4652091453	-0.454454
C	 0.8423087723	-2.2095919674	 0.2937379994	-0.294002
C	 1.2716585737	-0.7700326869	-0.1326416193	-0.290435
H	 0.4922074939	 1.7940602815	 1.0272516508	 0.118627
H	 0.3876899254	 2.0418563103	-0.7095103901	 0.124237
H	-1.0971241249	 1.8726041643	 0.2377873209	 0.11975
H	-2.8516872815	-0.4399082385	 1.0983467791	 0.104327
H	-3.1943006706	-1.2622363053	-0.4377855208	 0.107999
H	-1.5368037897	-2.4442661064	 1.8819257112	 0.100421
H	-2.4684828036	-3.3804092641	 0.6800348602	 0.091844
H	-1.8407512587	-2.9391824566	-1.8628758392	 0.109511
H	-0.1264473635	-2.7112978065	-2.2322748709	 0.113795
H	-0.6542625558	-4.1303186046	-1.3123975969	 0.110286
H	 0.9124393169	-2.2953553014	 1.3838598065	 0.094335
H	 1.4770640571	-2.9898533375	-0.139232357	 0.086349
H	 1.7287057915	-0.7585825391	-1.132761744	 0.099322
H	 2.0215686489	-0.3469376289	 0.5466739379	 0.094998
107.9282	156.421	178.7532	221.3558	252.2893	263.4863	306.6439	337.7243	390.2779	481.0765	549.9174	576.6031	681.8275	687.7566	754.4215	812.3132	875.0854	892.0697	917.4559	930.144	953.8538	964.6653	973.8744	1019.1967	1040.8638	1094.9212	1107.8377	1127.9025	1160.0331	1191.4587	1203.5813	1216.509	1228.4967	1244.8547	1275.6816	1296.5768	1306.9634	1331.9021	1406.9689	1412.5889	1468.6304	1478.2868	1479.7375	1484.03	1489.2912	1493.2596	1496.5585	1497.7963	1766.5061	2999.8921	3010.2557	3020.8133	3033.2646	3042.6853	3048.5917	3050.7445	3052.574	3081.1808	3086.3453	3093.7951	3094.5323	3104.1124	3115.0522
CC1=C2CCC2(C)CC1	C[C]1[C]2CC[C@]2(C)CC1	
InChI=1S/C9H14/c1-7-3-5-9(2)6-4-8(7)9/h3-6H2,1-2H3	InChI=1S/C9H14/c1-7-3-5-9(2)6-4-8(7)9/h3-6H2,1-2H3/t9-/m0/s1
