20
gdb 58831	3.27033	1.31926	1.11649	1.8716	78.14	-0.2081	0.0664	0.2744	1153.1219	0.170313	-403.058816	-403.050332	-403.049388	-403.091679	33.85	
C	 0.6509148387	 0.6430619895	-0.8977202459	-0.425486
C	-0.0014220238	-0.0095930889	 0.3232455917	 0.00743
O	 0.1492229005	 0.8068150986	 1.4864690888	-0.423085
C	-1.4518346626	-0.361212037	 0.1345742235	 0.331859
N	-2.0587842653	-0.8104245681	-1.1403245271	-0.389959
C	-2.5923281885	 0.3913592589	-0.4425568642	-0.132797
C	-3.5222595117	-0.0693298148	 0.7156840083	-0.057909
C	-3.5968048175	-1.5695169017	 0.8317078753	-0.2915
C	-2.3608668371	-0.8554923844	 1.3079227589	-0.107186
H	 1.6607513997	 0.964322121	-0.6316881955	 0.132285
H	 0.7269578913	-0.0497942895	-1.7419531104	 0.1223
H	 0.0891816211	 1.5273307665	-1.2227760482	 0.111131
H	 0.5510626934	-0.9257579493	 0.5708295478	 0.097036
H	-0.4175713928	 1.577635058	 1.3666179564	 0.276716
H	-1.4699691078	-0.4708996837	-1.899444237	 0.226995
H	-2.6300756159	 1.3482847615	-0.948575625	 0.09042
H	-4.2068553118	 0.5987157887	 1.2216005949	 0.086704
H	-4.2427574654	-1.9223869433	 1.6300544645	 0.105771
H	-3.5712523195	-2.1926775691	-0.0526908795	 0.140162
H	-2.0148280452	-0.8677446428	 2.3322395828	 0.099112
68.9364	154.134	186.1256	259.7385	310.3349	337.3665	392.5264	414.4328	458.7908	505.4895	589.2561	621.7437	723.6602	760.0093	820.4332	849.6077	877.9011	895.5005	919.9098	920.7758	962.6781	970.4381	1021.3264	1029.4036	1039.4489	1061.224	1095.4131	1102.5773	1104.3609	1144.4678	1180.3143	1208.6779	1273.9141	1285.7388	1293.584	1330.0049	1365.3586	1398.7664	1418.6486	1435.174	1462.1396	1496.3425	1497.4704	3022.7458	3029.4773	3097.249	3123.5873	3137.6572	3183.3584	3197.0362	3211.3944	3232.2682	3487.4892	3792.2108
CC(O)C12NC1C1CC21	C[C@@H](O)[C@]12N[C@H]1[C@H]1C[C@@H]21	
InChI=1S/C7H11NO/c1-3(9)7-5-2-4(5)6(7)8-7/h3-6,8-9H,2H2,1H3	InChI=1S/C7H11NO/c1-3(9)7-5-2-4(5)6(7)8-7/h3-6,8-9H,2H2,1H3/t3-,4+,5-,6+,7-/m1/s1
