15
gdb 23258	2.961	1.52807	1.09248	3.6443	71.5	-0.2388	-0.0432	0.1956	1058.5405	0.113673	-453.921169	-453.913682	-453.912738	-453.953157	28.983	
O	-0.0261645953	 1.3163495175	-0.0812894291	-0.350568
N	 0.0374817472	-0.0638354341	-0.0276208154	-0.230581
C	-1.10348953	-0.6328250767	 0.045128614	 0.303574
C	-1.2339414117	-2.110265409	 0.0513926624	-0.123588
C	-1.9872921427	-2.7640475941	 1.2095182907	-0.30764
C	-2.715094636	-2.3887224822	-0.0529703427	-0.004
N	-3.3551710396	-1.1048627718	-0.0761344803	-0.324276
C	-2.4987822725	-0.0299911492	 0.0837917002	 0.332636
O	-2.8317493747	 1.1195229165	 0.2482918877	-0.35165
H	 0.9047761197	 1.5597383111	-0.1405189496	 0.313076
H	-0.5022947209	-2.7009615141	-0.4828949062	 0.117038
H	-1.7700141279	-3.8130647017	 1.3790618894	 0.126697
H	-2.1815262776	-2.1823127026	 2.1040463956	 0.130942
H	-3.1123183285	-3.1433442616	-0.7219994388	 0.113089
H	-4.3308884193	-0.982008378	 0.1485396822	 0.255251
93.8265	173.4278	215.1148	305.6987	384.7023	434.5974	474.1191	487.4651	507.2532	543.8423	672.3446	710.834	739.5509	798.3975	822.7657	837.7924	947.135	1000.385	1023.5334	1036.3825	1055.573	1087.198	1131.3172	1181.2152	1200.6036	1279.4497	1325.897	1377.7083	1411.467	1434.6075	1475.3431	1725.5627	1826.8057	3133.9616	3175.1018	3207.2785	3228.5145	3626.2072	3803.6859
ON=C1C2CC2NC1=O	ON=C1[C@H]2C[C@H]2NC1=O	
InChI=1S/C5H6N2O2/c8-5-4(7-9)2-1-3(2)6-5/h2-3,9H,1H2,(H,6,8)	InChI=1S/C5H6N2O2/c8-5-4(7-9)2-1-3(2)6-5/h2-3,9H,1H2,(H,6,8)/t2-,3+/m0/s1
