15
gdb 67009	2.70449	2.00495	1.39682	2.4205	64.51	-0.2326	-0.0269	0.2057	897.0796	0.112278	-457.738377	-457.731413	-457.730469	-457.769565	27.752	
O	 0.1150046542	 1.3234129545	-0.1559534616	-0.483512
C	 0.0301394689	-0.0453850424	-0.0389039769	 0.3056
C	-0.4361582462	-0.8595832942	-1.2622862363	 0.039622
O	-0.134370554	-2.24197185	-1.1487543432	-0.299463
C	-0.7427341792	-2.2293166062	 0.1880575223	 0.068024
C	 0.3903759575	-2.1165892376	 1.2059346653	-0.337144
C	 0.9352149599	-0.7138619612	 0.9350492631	 0.356197
O	 1.8696653254	-0.1507330885	 1.4580231088	-0.351947
C	-1.3033574579	-0.7967744905	-0.0563076128	-0.237212
H	 0.8985797663	 1.567645266	 0.3611841866	 0.300776
H	-0.4952188106	-0.3969510086	-2.2400603145	 0.131726
H	-1.4401984119	-3.0552416444	 0.3243702859	 0.101509
H	 0.0138076187	-2.1628196133	 2.2347698633	 0.137579
H	 1.1577944177	-2.8844949988	 1.0829981124	 0.146044
H	-2.2816895587	-0.3813734147	 0.1400369077	 0.122201
107.6189	263.0536	284.0186	345.9416	363.2494	398.2747	467.6215	590.5172	623.0103	663.6741	710.5416	735.3617	826.9175	853.2865	881.43	943.2427	952.0874	980.2064	992.1151	1006.6475	1050.8141	1091.9384	1145.8497	1152.1096	1204.3376	1227.0444	1274.088	1314.671	1332.2181	1391.647	1433.9178	1445.5551	1817.9471	3050.8059	3116.9779	3121.2932	3196.2238	3218.9511	3709.1048
OC12C3OC(CC1=O)C23	O[C@@]12[C@H]3O[C@@H](CC1=O)[C@@H]23	
InChI=1S/C6H6O3/c7-3-1-2-4-5(9-2)6(3,4)8/h2,4-5,8H,1H2	InChI=1S/C6H6O3/c7-3-1-2-4-5(9-2)6(3,4)8/h2,4-5,8H,1H2/t2-,4+,5-,6-/m0/s1
