21
gdb 57887	2.55063	1.28144	1.09634	2.5202	80.49	-0.2322	0.0204	0.2526	1235.3932	0.181269	-420.406878	-420.396493	-420.395549	-420.442255	37.205	
C	-0.0196278707	 1.4215078497	 0.0690502387	-0.345361
N	-0.0212744688	-0.0295949567	-0.0205066551	-0.08583
C	 1.2850656277	-0.6485048613	-0.1527122468	-0.352597
C	-1.2200841005	-0.696286462	 0.0292012266	 0.331408
O	-2.2899707053	-0.1108960297	 0.0945932971	-0.381661
C	-1.1643488935	-2.2202839994	 0.0215777712	 0.223396
C	-0.7188073977	-2.8656923107	 1.3198624047	-0.456095
C	-2.1754812116	-2.8959153742	-0.8185102106	-0.271931
N	-0.751269949	-2.9116278187	-1.2242479947	-0.359614
H	 0.4156273087	 1.864610316	-0.8356204217	 0.120288
H	-1.0481097688	 1.7596015641	 0.1814129157	 0.170365
H	 0.5748822438	 1.7523181596	 0.9300749945	 0.121228
H	 1.8833622439	-0.5095108113	 0.7583032747	 0.124371
H	 1.2002912756	-1.71335757	-0.3592118782	 0.172605
H	 1.8339130198	-0.183965473	-0.9819975907	 0.123217
H	-1.414505067	-2.6095185762	 2.1255509495	 0.134232
H	-0.7032286975	-3.9523600624	 1.2027635967	 0.131773
H	 0.2821234825	-2.5452557333	 1.6238301357	 0.11849
H	-2.5683640285	-3.8600823004	-0.5087602406	 0.11518
H	-2.8697941831	-2.2688692896	-1.3676179037	 0.133166
H	-0.6154086001	-2.2296192305	-1.968015973	 0.233372
59.2183	101.2897	127.8586	164.7538	170.0513	205.3155	255.6473	275.7269	308.2317	331.5352	374.2177	401.4122	515.5755	546.5945	689.2326	760.6805	819.7151	850.9316	920.378	969.2453	989.5354	1029.0956	1079.0486	1082.79	1115.1309	1122.8011	1133.445	1156.0441	1181.4246	1271.9301	1280.0986	1324.2906	1364.2412	1412.3431	1425.4828	1436.9325	1472.9485	1484.0791	1491.5878	1498.4913	1503.6087	1507.2037	1515.1435	1543.0921	1743.0039	3004.3456	3015.6182	3040.9402	3048.1727	3061.115	3107.7405	3119.6606	3123.063	3168.3493	3172.1559	3212.6627	3482.4891
CN(C)C(=O)C1(C)CN1	CN(C)C(=O)[C@@]1(C)CN1	
InChI=1S/C6H12N2O/c1-6(4-7-6)5(9)8(2)3/h7H,4H2,1-3H3	InChI=1S/C6H12N2O/c1-6(4-7-6)5(9)8(2)3/h7H,4H2,1-3H3/t6-/m1/s1
