16
gdb 126742	4.28683	1.00059	0.85474	3.5219	81.38	-0.2403	-0.0147	0.2256	1341.1122	0.124799	-396.926961	-396.918549	-396.917605	-396.960608	30.503	
C	-0.1741295312	 1.5076623987	 0.0997914229	-0.375895
C	 0.1245925005	 0.0144855667	-0.0249896356	-0.14771
N	 0.7466853483	-0.5278530287	 1.1744643663	 0.056832
C	 0.2545766862	-1.3995040195	 2.0810377798	-0.01957
N	 1.1285768282	-1.6193381556	 3.0411375066	-0.30982
C	 2.182947441	-0.8289660263	 2.6680796786	 0.185712
N	 1.9889495624	-0.1481007128	 1.5368250032	-0.300398
C	 3.3879868792	-0.7350230231	 3.4111632889	 0.288121
C	 4.4051597196	-0.6611318393	 4.0474933207	-0.3972
H	 0.7464881413	 2.0612147098	 0.2966490588	 0.15712
H	-0.6138250072	 1.8776799044	-0.8307860985	 0.12608
H	-0.8765569202	 1.6999117116	 0.9158781	 0.130203
H	-0.7905651717	-0.5603561229	-0.1929900202	 0.126182
H	 0.799068904	-0.1754519473	-0.8649670539	 0.141875
H	-0.7274530162	-1.8406866872	 1.9951260356	 0.143721
H	 5.3038569258	-0.5966932786	 4.6094569968	 0.194747
58.4166	103.6076	144.5933	193.1667	223.8846	337.2449	399.0646	477.0393	548.5152	576.7682	604.1066	664.3311	667.9816	713.0833	775.6594	798.9124	854.9058	973.6255	1023.1352	1057.5031	1097.3317	1122.238	1223.2375	1263.1627	1319.406	1353.3693	1389.6632	1410.9955	1447.8047	1463.0813	1482.005	1489.0462	1508.5173	1525.305	2249.308	3049.6631	3061.3072	3104.0734	3124.2609	3141.8489	3254.5293	3504.5241
CCN1C=NC(=N1)C#C	CCn1cnc(n1)C#C	
InChI=1S/C6H7N3/c1-3-6-7-5-9(4-2)8-6/h1,5H,4H2,2H3	InChI=1S/C6H7N3/c1-3-6-7-5-9(4-2)8-6/h1,5H,4H2,2H3
