18
gdb 37096	2.15952	2.0487	1.31882	0.3157	76.22	-0.2301	0.0468	0.2769	1002.4772	0.148801	-398.010382	-398.002845	-398.001901	-398.042236	30.13	
C	-0.0344160437	 1.5067554623	 0.0633839349	-0.296958
N	 1.2207278283	 0.7203510638	-0.0045997946	-0.372287
C	-0.0638004136	 0.0341531669	 0.0077396765	 0.322091
C	-0.4272823744	-1.0021785823	 1.0582741826	-0.15655
N	-1.8895517737	-1.2296592352	 0.9154435516	-0.351397
C	-0.942257809	-1.9235900129	 0.003663185	-0.156535
C	-0.595142158	-0.9154656889	-1.0792933563	 0.322125
C	-1.2281959483	-0.6267421713	-2.3786948854	-0.296967
N	 0.0961318411	-1.2894795504	-2.3053638861	-0.372307
H	-0.1986005476	 2.0245758237	 1.004066958	 0.125173
H	-0.3536650746	 2.0569337186	-0.8187168773	 0.111244
H	 1.6105454254	 0.7488736891	-0.9453625337	 0.221951
H	 0.1062528432	-1.2129086438	 1.9757147445	 0.105088
H	-2.1537448358	-1.9045653426	 1.6339083923	 0.231874
H	-0.8935635017	-3.0018669296	-0.0719165737	 0.105091
H	-2.0332939431	-1.2547173822	-2.7494275133	 0.125182
H	-1.2753622404	 0.4099406338	-2.7039452922	 0.111252
H	 0.8400152058	-0.6278842892	-2.5215393629	 0.221929
100.5532	201.1552	205.6364	264.0955	314.6955	363.5697	523.2255	533.7811	597.1451	599.8793	820.6573	831.502	841.9023	865.0579	876.2744	889.6522	917.4467	942.0368	943.4676	963.6816	985.5165	1009.5059	1044.2615	1051.6433	1091.0391	1101.018	1122.9883	1133.7749	1201.3134	1228.7823	1243.5408	1249.0629	1294.027	1312.2518	1341.0939	1420.076	1451.8882	1508.8734	1522.1843	3103.3355	3104.7216	3189.5268	3191.2429	3201.4032	3213.3884	3464.6189	3464.9792	3474.7335
C1NC11C2NC2C11CN1	C1N[C@]21[C@H]1N[C@H]1[C@]12CN1	
InChI=1S/C6H9N3/c1-5(7-1)3-4(9-3)6(5)2-8-6/h3-4,7-9H,1-2H2	InChI=1S/C6H9N3/c1-5(7-1)3-4(9-3)6(5)2-8-6/h3-4,7-9H,1-2H2/t3-,4+,5+,6-
