15
gdb 129682	3.05531	1.34914	0.94054	4.3747	71.54	-0.217	-0.0098	0.2072	1164.6594	0.115686	-450.165412	-450.157423	-450.156479	-450.198195	29.333	
N	-0.1506291263	 1.4732792302	 0.0097560086	-0.631419
C	 0.0059990962	 0.0571548679	-0.0143517488	-0.006094
C	-1.0676510761	-0.8175953337	 0.0032366319	 0.512441
N	-2.4167137103	-0.4960018421	 0.0451949537	-0.400192
C	-3.4381340879	-1.3961180441	 0.0601700818	 0.146301
O	-3.2921759402	-2.603516046	 0.03950687	-0.329831
N	-0.5695850718	-2.0711741589	-0.028036819	-0.266037
N	 0.7836750334	-2.0836919953	-0.0654167786	-0.233597
C	 1.1310174473	-0.800874432	-0.0574947269	-0.051827
H	 0.3057865502	 1.8853108207	 0.8178384455	 0.244648
H	 0.2601489755	 1.9079858939	-0.8108402066	 0.244645
H	-2.6065594341	 0.4971591763	 0.0644075066	 0.27114
H	-4.4260948086	-0.9045189834	 0.0948511156	 0.097743
H	-1.1196861429	-2.9158556532	-0.0251764627	 0.294888
H	 2.1768554959	-0.5285784703	-0.0826648112	 0.107193
86.9612	169.1977	170.1932	233.7399	249.8292	284.4466	395.6935	453.061	587.3651	632.269	641.4676	711.1786	714.3303	721.7163	850.1525	879.9368	890.1002	963.2628	1013.2603	1102.3631	1141.7979	1192.3929	1217.2537	1231.0166	1322.3359	1381.7794	1417.2643	1432.5075	1506.6981	1563.9926	1641.2196	1681.5416	1779.9472	2984.8945	3236.4805	3492.879	3556.3349	3596.3521	3653.1076
NC1=C(NC=O)NN=C1	Nc1c(NC=O)[nH]nc1	
InChI=1S/C4H6N4O/c5-3-1-7-8-4(3)6-2-9/h1-2H,5H2,(H2,6,7,8,9)	InChI=1S/C4H6N4O/c5-3-1-7-8-4(3)6-2-9/h1-2H,5H2,(H2,6,7,8,9)
