23
gdb 115343	3.26384	1.08387	0.91158	1.642	82.13	-0.2377	0.0654	0.3032	1390.4687	0.205137	-425.440126	-425.430002	-425.429058	-425.475154	37.491	
C	-0.1901557657	 1.7110860443	 0.2099121077	-0.383987
C	 0.0024122955	 0.197874059	 0.0735652983	-0.214231
C	-1.3193312666	-0.5570147739	-0.0372244369	 0.150374
O	-2.0308326194	-0.1128226483	-1.1984130891	-0.285586
C	-2.5803929838	-1.2295956781	-1.8942339197	-0.069192
C	-2.4997335945	-2.422546669	-0.9305027882	-0.002949
C	-2.5465822492	-3.7947174669	-1.5961064415	-0.415117
C	-1.2084937558	-2.0898007479	-0.1669235374	 0.059561
O	-0.1100840382	-2.510751332	-0.9648317186	-0.430766
H	 0.7725020899	 2.2287451911	 0.2600312934	 0.107675
H	-0.7472285104	 2.0999729909	-0.6459180642	 0.140495
H	-0.7514602792	 1.9582552129	 1.1178550781	 0.110995
H	 0.5995743779	-0.0200064503	-0.8189284965	 0.106092
H	 0.5546878867	-0.1857425169	 0.9436875136	 0.08297
H	-1.9293136556	-0.3355044997	 0.8562257679	 0.060276
H	-3.6082566951	-0.9914533207	-2.1903442364	 0.096519
H	-1.9966718753	-1.4289198312	-2.8045318914	 0.098636
H	-3.3235306568	-2.3367234863	-0.2105442435	 0.078064
H	-1.7025682184	-3.9243823847	-2.2769225947	 0.139037
H	-2.5057772392	-4.5963931178	-0.8518442063	 0.11305
H	-3.4740128473	-3.9173458244	-2.1654207465	 0.110918
H	-1.1745718282	-2.5687927626	 0.8223561159	 0.059451
H	 0.7022403985	-2.2547741774	-0.518463444	 0.287715
65.3585	99.2779	132.1685	170.1678	202.1472	227.4595	267.1601	295.5405	312.503	327.5538	408.7767	467.2024	555.9073	633.8783	753.3568	808.5088	839.9474	855.4506	923.8803	936.9415	954.923	974.827	1020.4122	1043.7957	1071.1402	1099.4157	1138.1615	1149.4177	1160.0558	1186.644	1205.4913	1251.8535	1294.1673	1299.3432	1321.7898	1333.7817	1361.8155	1364.9074	1394.9084	1407.1488	1408.7653	1413.698	1428.347	1482.453	1494.427	1497.2447	1503.1888	1509.135	1522.8538	2942.8955	2994.869	2999.655	3006.2094	3027.6596	3036.9516	3039.956	3059.1233	3065.158	3099.3287	3102.0829	3126.9325	3132.436	3834.1295
CCC1OCC(C)C1O	CC[C@H]1OC[C@@H](C)[C@H]1O	
InChI=1S/C7H14O2/c1-3-6-7(8)5(2)4-9-6/h5-8H,3-4H2,1-2H3	InChI=1S/C7H14O2/c1-3-6-7(8)5(2)4-9-6/h5-8H,3-4H2,1-2H3/t5-,6-,7-/m1/s1
