17
gdb 99363	6.75588	0.57304	0.53558	4.8607	73.	-0.249	-0.015	0.234	1964.5412	0.130451	-458.904571	-458.89396	-458.893016	-458.941936	35.585	
O	 0.1572038019	 1.3232803312	-0.1669921636	-0.39278
C	-0.029621033	-0.0325261277	 0.1348914408	-0.175898
C	-1.4915978144	-0.4107970221	-0.0974668528	 0.35768
O	-2.3621179858	 0.3976552721	-0.263842996	-0.251741
C	-1.7395906982	-1.9199104781	-0.1030356229	-0.156786
O	-3.1065886708	-2.1792673724	 0.0200096797	-0.222308
C	-3.4006953942	-3.5627130316	-0.0545100202	-0.204767
C	-4.8339444414	-3.7744585799	 0.0889781747	 0.282078
C	-6.0106476427	-3.9814082254	 0.2050108114	-0.406069
H	 1.0621296581	 1.5584091305	 0.0574033892	 0.294717
H	 0.6061467922	-0.6998760154	-0.474085753	 0.102747
H	 0.195305758	-0.2693634784	 1.1905458281	 0.114743
H	-1.3309653489	-2.3207028515	-1.0503635191	 0.113326
H	-1.1551403861	-2.3935877265	 0.7074144027	 0.101466
H	-3.0570717822	-3.9767233408	-1.0181987212	 0.121069
H	-2.8630814162	-4.1150774065	 0.7356269686	 0.118894
H	-7.0537167065	-4.1528428276	 0.3073106537	 0.20363
34.7123	64.5614	77.6785	100.7001	114.3527	193.4607	228.9517	280.456	306.8232	333.4116	389.0607	470.894	561.3508	612.7723	679.6298	686.3235	824.4357	895.2764	984.4639	993.1892	1030.7878	1072.1549	1086.7889	1152.6384	1184.0982	1229.4005	1243.4243	1255.9092	1276.0506	1376.8323	1430.3182	1445.8743	1483.7224	1495.1316	1509.1411	1856.3136	2250.6463	2926.1973	2943.7025	2948.4946	2952.2297	2965.9294	2969.9311	3506.4394	3836.8501
OCC(=O)COCC#C	OCC(=O)COCC#C	
InChI=1S/C6H8O3/c1-2-3-9-5-6(8)4-7/h1,7H,3-5H2	InChI=1S/C6H8O3/c1-2-3-9-5-6(8)4-7/h1,7H,3-5H2
