20
gdb 101201	3.43641	1.00076	0.93989	1.481	74.53	-0.2379	0.0591	0.297	1322.2081	0.171201	-440.22153	-440.212567	-440.211623	-440.25559	33.798	
O	-1.3490230779	 1.618750628	 1.2967544389	-0.424623
C	-1.3618227441	 0.216826368	 1.4369783305	-0.065051
C	-1.4684950983	-0.4633616231	 0.0670607433	 0.075394
O	-0.4449806008	 0.0672313823	-0.7896825089	-0.445671
C	-1.3839461286	-1.9682129329	 0.1812280862	-0.041352
C	-2.5008548321	-2.9237566861	 0.0079694991	-0.037301
C	-3.5134893345	-2.4760260777	-1.0438145089	-0.2569
C	-2.3091221511	-2.3449812692	-2.0098748367	-0.157479
N	-1.3434549631	-2.8872709257	-0.9804317438	-0.162486
H	-0.7474813346	 1.7929246828	 0.5606501554	 0.287012
H	-0.4526397081	-0.1476554541	 1.9491818088	 0.07477
H	-2.2216665317	-0.0482285315	 2.0622047522	 0.110474
H	-2.4069891043	-0.1416925049	-0.3926488639	 0.097172
H	 0.3485534705	-0.4673095135	-0.6722682738	 0.292445
H	-0.6427372392	-2.2924152757	 0.9133164273	 0.093397
H	-2.6404181826	-3.7567227603	 0.6907571132	 0.096039
H	-4.1933463564	-3.2794167322	-1.3323919021	 0.114896
H	-4.1067781312	-1.5847025691	-0.8195469445	 0.110268
H	-2.3514703236	-3.0333472723	-2.8553626631	 0.111301
H	-2.0466569784	-1.3487562528	-2.372685369	 0.127693
55.8255	112.8511	145.1017	201.3018	239.1692	278.2298	314.7065	396.4422	443.0006	516.2102	516.6399	613.175	757.0526	776.1898	790.4141	800.5032	871.1744	937.5037	967.9559	1000.9618	1008.5137	1053.3677	1071.1606	1076.5216	1096.5371	1107.7475	1144.6016	1171.7307	1214.3285	1220.3433	1249.1573	1260.0565	1274.0526	1295.6784	1310.3318	1363.9505	1390.7048	1416.4096	1437.851	1456.5257	1493.3045	1503.448	1515.9055	2939.1794	3057.6567	3065.5502	3074.4736	3082.047	3097.9945	3112.1902	3132.3287	3154.4123	3763.1135	3803.0665
OCC(O)C1C2CCN12	OC[C@@H](O)[C@H]1[C@H]2CCN12	
InChI=1S/C6H11NO2/c8-3-5(9)6-4-1-2-7(4)6/h4-6,8-9H,1-3H2	InChI=1S/C6H11NO2/c8-3-5(9)6-4-1-2-7(4)6/h4-6,8-9H,1-3H2/t4-,5-,6-,7?/m1/s1
