18
gdb 80592	2.95502	1.41799	1.14198	5.0496	71.91	-0.2332	0.0104	0.2436	1092.7571	0.148554	-439.088285	-439.079974	-439.07903	-439.121588	31.983	
N	 0.0153317617	 1.2575934058	 0.5095558043	-0.514558
C	 0.1545573812	-0.0090022614	 0.0378355244	 0.417735
O	 1.2584403546	-0.4560234466	-0.2526529172	-0.383758
C	-1.1390395676	-0.7934800532	-0.10350212	-0.118481
C	-1.7959170914	-0.9297305832	-1.5295076379	-0.257776
C	-1.8691966874	-2.4476161073	-1.3277165454	-0.097211
C	-0.4788545722	-2.9893012557	-1.1851056299	 0.132692
O	 0.5919604293	-2.4953157553	-1.9126567756	-0.442555
C	-1.0961007248	-2.3218676675	 0.0115410653	-0.137673
H	 0.8321185666	 1.8449164454	 0.5587086421	 0.265763
H	-0.8814852513	 1.655385619	 0.7241108612	 0.264832
H	-1.8845662055	-0.3882738845	 0.5873208771	 0.076686
H	-2.7617110206	-0.4267442764	-1.5896291194	 0.101343
H	-1.165478231	-0.6229522209	-2.3676181104	 0.1242
H	-2.7249597322	-3.0661763847	-1.5692377841	 0.085831
H	-0.4571442901	-4.0743355762	-1.0740186736	 0.088273
H	 1.0655936195	-1.8596499512	-1.3429459853	 0.308911
H	-1.2391401288	-2.8499833261	 0.9476926646	 0.085747
38.5529	164.6589	213.2533	233.0892	255.4706	289.6259	393.088	463.2883	572.8217	592.3515	647.4331	663.9007	728.6354	749.407	756.4833	806.7832	819.8264	938.6757	956.2793	990.2593	1015.059	1026.4744	1057.6343	1067.5552	1091.0586	1109.7857	1153.195	1218.9076	1243.6301	1258.5295	1287.7042	1298.1367	1343.7234	1408.2677	1443.3156	1453.7495	1482.5786	1620.2851	1755.8553	3052.4224	3071.5903	3097.3028	3130.6814	3166.7976	3186.237	3548.5874	3603.4871	3741.1573
NC(=O)C1CC2C(O)C12	NC(=O)[C@H]1C[C@H]2[C@@H](O)[C@@H]12	
InChI=1S/C6H9NO2/c7-6(9)3-1-2-4(3)5(2)8/h2-5,8H,1H2,(H2,7,9)	InChI=1S/C6H9NO2/c7-6(9)3-1-2-4(3)5(2)8/h2-5,8H,1H2,(H2,7,9)/t2-,3+,4-,5-/m1/s1
