12
gdb 49120	3.64224	1.18754	0.89555	3.9249	67.2	-0.2576	-0.1338	0.1238	1161.2	0.076959	-472.681802	-472.674264	-472.67332	-472.714302	27.017	
O	 0.054708724	-0.035402241	-0.0021313421	-0.25765
C	 0.0117348642	 1.1721464755	 0.0086999039	 0.105402
C	 1.2343379551	 1.9997163515	 0.0019782294	 0.282873
C	 1.3197613192	 3.3529813241	 0.0128352214	-0.333416
C	 2.7499100065	 3.6947654034	-0.0003313877	 0.303607
O	 3.3035047151	 4.7635303328	 0.0028696189	-0.279617
C	 3.4979573782	 2.3041088103	-0.0208607713	 0.341215
O	 4.6793184694	 2.0970220273	-0.0356420809	-0.304985
N	 2.4719126989	 1.3703520491	-0.0175542823	-0.405661
H	-0.938571396	 1.7384784421	 0.0243768653	 0.114263
H	 0.4962261538	 4.0499089094	 0.0282377841	 0.146212
H	 2.5751247815	 0.3673731556	-0.0269822888	 0.287759
94.5139	137.116	171.5938	234.1262	308.5538	435.1387	440.224	501.1313	567.1861	618.308	632.0899	732.7859	749.0783	750.3879	851.0112	983.7229	1024.9505	1038.969	1151.861	1238.3899	1286.0101	1398.6627	1456.8574	1634.0582	1787.6605	1824.0906	1865.0022	2962.8756	3260.2873	3644.5947
O=CC1=CC(=O)C(=O)N1	O=CC1=CC(=O)C(=O)N1	
InChI=1S/C5H3NO3/c7-2-3-1-4(8)5(9)6-3/h1-2H,(H,6,8,9)	InChI=1S/C5H3NO3/c7-2-3-1-4(8)5(9)6-3/h1-2H,(H,6,8,9)
