17
gdb 115185	2.52711	1.36723	1.0721	1.8987	64.01	-0.2636	-0.0474	0.2162	1131.5308	0.13491	-496.104344	-496.095673	-496.094728	-496.137954	31.98	
O	 0.0177124477	 1.2213514852	-0.5424568078	-0.424678
C	-0.0309666359	-0.1811044489	-0.3931539028	-0.053911
C	-1.3031155903	-0.5942182521	 0.3433372279	 0.027661
O	-2.4687856343	-0.0683226675	-0.3420616374	-0.285591
C	-2.8993327797	-0.9882764928	-1.3380587643	-0.185302
C	-2.2530469955	-2.3147654586	-0.970321596	 0.335435
O	-2.1946802811	-3.3302104473	-1.6139695877	-0.314383
C	-1.5501809146	-2.1072671279	 0.3695448365	 0.028683
O	-0.4073246221	-2.9042722082	 0.4960438441	-0.432103
H	-0.8630177997	 1.4909237194	-0.8314188426	 0.2884
H	 0.0237852165	-0.6970622212	-1.3677560618	 0.08421
H	 0.8462210078	-0.490135343	 0.1809474045	 0.131884
H	-1.3168536284	-0.1339828948	 1.3337491931	 0.105273
H	-3.993411944	-1.0508669082	-1.3289548536	 0.146834
H	-2.5845543019	-0.6942629978	-2.3490652957	 0.139041
H	-2.2892779689	-2.3268035364	 1.1606931125	 0.110302
H	-0.5268697856	-3.6454566398	-0.116780609	 0.298247
77.3055	114.886	154.0425	183.2594	254.6508	296.4405	389.696	433.9729	453.8947	464.5221	525.2251	597.373	663.8265	716.2189	760.7082	818.5404	963.2552	996.9353	1028.9684	1066.3115	1089.9798	1110.0248	1124.3029	1185.1039	1193.6269	1222.5015	1231.6056	1311.5793	1323.2808	1338.827	1372.4219	1390.8745	1409.4856	1437.6979	1479.7783	1502.23	1856.2314	2949.5106	2954.9151	3013.97	3067.1428	3091.6598	3103.9572	3718.5948	3779.252
OCC1OCC(=O)C1O	OC[C@H]1OCC(=O)[C@H]1O	
InChI=1S/C5H8O4/c6-1-4-5(8)3(7)2-9-4/h4-6,8H,1-2H2	InChI=1S/C5H8O4/c6-1-4-5(8)3(7)2-9-4/h4-6,8H,1-2H2/t4-,5-/m1/s1
