15
gdb 84180	3.6782	1.20597	1.00617	2.349	68.64	-0.2602	-0.0773	0.1829	1133.9068	0.112243	-457.750967	-457.743347	-457.742402	-457.783421	28.445	
O	 0.0768743616	 1.3843189276	-0.1373776938	-0.427621
C	 0.0531918334	-0.0273277198	-0.0491616461	 0.087469
C	 0.6909699053	-0.5416759018	 1.2359314209	-0.212685
C	-0.1603117889	-1.2709156473	 1.9739859148	 0.245003
C	 0.1338480821	-1.9015791941	 3.26484839	 0.076443
O	-0.6605090585	-2.5756884015	 3.8810966924	-0.265787
C	-1.4982248912	-1.3336445731	 1.2961290378	-0.076205
O	-2.0880469984	-0.0183483681	 1.1329349193	-0.263325
C	-1.3698002381	-0.5968930836	 0.0356104062	-0.010822
H	-0.5476628902	 1.6980511593	 0.531092425	 0.295241
H	 0.5834373405	-0.39959755	-0.933241471	 0.106322
H	 1.7009997285	-0.2663421908	 1.5208524205	 0.128796
H	 1.1637103822	-1.7246840268	 3.6446914344	 0.078237
H	-2.1965262468	-2.1412303444	 1.4794752469	 0.126848
H	-1.9499247815	-0.8010940654	-0.8587465073	 0.112086
85.5264	157.5714	177.1841	218.5478	296.0446	430.6043	471.2339	504.0823	565.4459	593.538	698.7304	773.4171	813.714	855.125	879.6566	899.8695	931.8437	999.5598	1042.3258	1064.3394	1074.1165	1108.5309	1183.7886	1245.1415	1262.8413	1271.4462	1305.3767	1363.9976	1414.8377	1419.7862	1430.0753	1669.1363	1786.9941	2895.2879	3052.3856	3167.7582	3197.4915	3202.5011	3759.2115
OC1C=C(C=O)C2OC12	O[C@H]1C=C(C=O)[C@H]2O[C@@H]12	
InChI=1S/C6H6O3/c7-2-3-1-4(8)6-5(3)9-6/h1-2,4-6,8H	InChI=1S/C6H6O3/c7-2-3-1-4(8)6-5(3)9-6/h1-2,4-6,8H/t4-,5+,6-/m0/s1
