19
gdb 87814	2.7235	1.46799	1.23095	2.6646	75.29	-0.2308	0.0638	0.2946	1076.3024	0.158482	-422.963612	-422.955131	-422.954187	-422.996468	33.268	
O	-0.134502502	 1.3324592766	-0.3311338786	-0.426802
C	-0.0545494893	-0.0489952246	-0.1166347591	 0.020536
C	-0.4963045743	-0.648159357	 1.1993576645	-0.417936
C	-1.36727281	-0.7642055526	-0.0223542129	 0.347025
C	-2.7665638075	-0.1378594037	-0.1855472661	-0.317686
C	-3.1869902024	-1.3695589392	-1.0038876283	-0.108059
C	-2.2483302805	-1.5906191166	-2.1524424269	 0.141194
O	-1.6676065633	-0.584279838	-2.9282440087	-0.441446
C	-1.7829121871	-2.0058540627	-0.7861691316	-0.207667
H	 0.6168903441	 1.7543707967	 0.0989343403	 0.291505
H	 0.7553544801	-0.5510808527	-0.6470455838	 0.092744
H	 0.0248409304	-1.5284632843	 1.5635177999	 0.113813
H	-0.8288755808	 0.0398253306	 1.9708625589	 0.115902
H	-3.2947332942	-0.0661589908	 0.7679931128	 0.10836
H	-2.8225948474	 0.8302895974	-0.6927452295	 0.111573
H	-4.1627713464	-1.8384666475	-0.9533030129	 0.085146
H	-2.5279812125	-2.4173437802	-2.7988431279	 0.102807
H	-1.2905414752	 0.086034652	-2.347269371	 0.305077
H	-1.5090627614	-3.0232804734	-0.5292185091	 0.083915
79.6701	138.6392	208.5503	245.0353	289.9207	305.728	350.2947	417.3709	466.8657	524.5844	570.8054	643.9917	725.9934	784.7901	813.6785	836.0267	900.1089	910.5847	951.076	966.707	999.7468	1014.1368	1024.5385	1042.3151	1068.8068	1096.5666	1105.2795	1146.9615	1163.6078	1182.3441	1212.8569	1244.1455	1259.0674	1299.5224	1312.7555	1334.303	1366.076	1427.199	1457.6174	1490.1841	1496.1258	3053.0821	3094.3446	3104.9954	3118.1486	3159.428	3166.2737	3181.0544	3207.8029	3801.3925	3804.6498
OC1CC11CC2C(O)C12	O[C@H]1C[C@]21C[C@H]1[C@@H](O)[C@@H]21	
InChI=1S/C7H10O2/c8-4-2-7(4)1-3-5(7)6(3)9/h3-6,8-9H,1-2H2	InChI=1S/C7H10O2/c8-4-2-7(4)1-3-5(7)6(3)9/h3-6,8-9H,1-2H2/t3-,4+,5+,6-,7+/m1/s1
