17
gdb 82253	2.44022	2.1275	1.49177	3.4699	65.85	-0.2445	0.0534	0.2979	903.5855	0.137793	-458.924459	-458.917539	-458.916595	-458.955708	27.662	
O	-0.0905920511	 1.4266953084	-0.1580952916	-0.43206
C	-0.020286495	 0.0329024	 0.0105871183	 0.103105
C	-1.3802414261	-0.6613159885	 0.0564170251	 0.005424
O	-2.1249148494	-0.4997777027	-1.1568063877	-0.249457
C	-1.4393443568	-1.7406637002	-0.9441629256	 0.016188
C	-0.1274837299	-1.8214976287	-1.7093498143	-0.118097
C	-0.0840749255	-1.0356342657	-3.0398776066	-0.077123
O	 0.5881693013	 0.0812338265	-2.4052182302	-0.30167
C	 0.7299652044	-0.6525891662	-1.1669591148	 0.072874
H	-0.2403459572	 1.55940012	-1.1054267571	 0.296468
H	 0.5075762166	-0.1536260898	 0.9536296108	 0.083372
H	-1.9727748181	-0.6556360566	 0.9682457919	 0.102164
H	-2.0795012207	-2.6127824579	-0.837075914	 0.098983
H	 0.3017088033	-2.8237456446	-1.7116532788	 0.084107
H	 0.5472429494	-1.4852662761	-3.8141796393	 0.105062
H	-1.0496203817	-0.7443334641	-3.4606667026	 0.125308
H	 1.7838274166	-0.8450951839	-0.9418060734	 0.085351
120.8708	189.9351	263.4953	281.5997	438.7154	483.9772	519.9178	545.7607	649.8173	719.8077	816.9211	826.4888	852.5532	880.2428	898.6096	912.3525	974.0754	998.4899	1025.7009	1060.4275	1075.9359	1097.0827	1111.6223	1123.1361	1171.2303	1207.4311	1249.5102	1256.1146	1271.8215	1311.2297	1320.7365	1340.8594	1358.8366	1362.9645	1427.1548	1450.1181	1510.3704	3036.5412	3038.7161	3057.1117	3102.5896	3111.8318	3140.2179	3152.723	3738.6751
OC1C2OC2C2COC12	O[C@H]1[C@H]2O[C@H]2[C@H]2CO[C@@H]12	
InChI=1S/C6H8O3/c7-3-4-2(1-8-4)5-6(3)9-5/h2-7H,1H2	InChI=1S/C6H8O3/c7-3-4-2(1-8-4)5-6(3)9-5/h2-7H,1H2/t2-,3+,4+,5-,6+/m0/s1
