18
gdb 46305	3.12494	1.30834	1.21035	3.5169	78.67	-0.2317	0.0132	0.2448	1099.1083	0.149375	-401.984153	-401.976188	-401.975243	-402.017098	30.065	
O	-0.0401265417	 0.0272071748	 0.1287603111	-0.366887
C	-0.0641526422	 1.2247808164	 0.029656725	 0.385329
N	-1.0818459109	 2.139825142	-0.066438879	-0.332937
C	-0.2269253011	 3.3288123871	-0.0460414217	-0.218842
C	 1.0087698653	 2.3571186377	-0.0022087966	 0.1625
C	 1.9737502857	 2.3939591365	 1.2075939359	-0.297747
C	 3.3469971465	 2.852589663	 0.6511524677	-0.264622
C	 3.1912165494	 2.669573469	-0.8375904994	-0.075187
C	 1.9340040185	 2.402146286	-1.1867725741	-0.11402
H	-2.0833747712	 2.028016879	-0.0147490747	 0.249711
H	-0.3019669414	 3.9514597921	-0.9432293302	 0.110927
H	-0.3438927924	 3.9527927574	 0.8466401177	 0.11027
H	 1.6060689001	 3.0291486203	 2.0173901215	 0.10067
H	 2.0569361721	 1.3766173283	 1.6022022419	 0.13226
H	 3.5660200322	 3.9017672775	 0.893105087	 0.1076
H	 4.1751820892	 2.2658742908	 1.0640873057	 0.111875
H	 4.0186894106	 2.775506681	-1.5307058452	 0.098547
H	 1.5758025813	 2.2548082411	-2.1997636829	 0.100554
74.9313	96.4979	161.5493	222.7526	283.9803	374.3983	449.9446	476.4744	610.0073	682.7806	720.5238	760.9523	788.7359	806.5825	849.5914	911.0202	922.724	953.8735	978.4232	988.4427	1005.3487	1065.3975	1111.2868	1151.2735	1160.6609	1169.5988	1195.6591	1214.7452	1258.7662	1288.9205	1313.9227	1320.3706	1382.7052	1392.0852	1479.1068	1496.8235	1525.8497	1681.7359	1889.9264	3013.683	3032.8701	3052.2388	3062.573	3081.9702	3104.6482	3182.2531	3207.0142	3612.6213
O=C1NCC11CCC=C1	O=C1NC[C@]21CCC=C2	
InChI=1S/C7H9NO/c9-6-7(5-8-6)3-1-2-4-7/h1,3H,2,4-5H2,(H,8,9)	InChI=1S/C7H9NO/c9-6-7(5-8-6)3-1-2-4-7/h1,3H,2,4-5H2,(H,8,9)/t7-/m1/s1
