18
gdb 110044	2.02103	1.78263	1.08151	0.7828	69.58	-0.2624	0.0054	0.2678	1127.8065	0.147945	-476.22362	-476.214844	-476.213899	-476.257256	32.257	
C	 0.0854711946	 1.005899152	-0.4415446106	-0.246679
O	 0.0618170316	-0.3530380177	-0.0275129565	-0.275456
C	 0.6276712598	-0.5838889134	 1.2554298745	-0.020387
C	 0.2816619059	-2.0408100959	 1.6101753337	 0.106182
O	-0.9965969835	-2.4445141009	 1.209191526	-0.441552
C	 1.439772646	-2.7938539285	 0.9214327762	-0.117306
O	 2.5669252258	-1.9028063804	 1.0016555867	-0.244125
C	 2.1449836432	-0.6180232769	 1.1799541818	 0.419767
N	 2.8991721636	 0.3933496664	 1.250130308	-0.541366
H	 1.1091926912	 1.3928669735	-0.4776156516	 0.150028
H	-0.3594187815	 1.0369285014	-1.4383087688	 0.12968
H	-0.5066824747	 1.6328735057	 0.2401903093	 0.11565
H	 0.2728500949	 0.1588718448	 1.977880892	 0.096621
H	 0.3536951195	-2.1744116373	 2.6948031214	 0.105762
H	-1.1879473531	-1.9387052346	 0.4065674696	 0.29405
H	 1.7134484693	-3.7300343548	 1.4109379882	 0.123882
H	 1.1940804536	-2.9887864779	-0.1283788935	 0.120727
H	 3.8774894438	 0.1205636346	 1.1291291836	 0.224522
79.152	122.2156	173.3255	181.9459	222.4114	259.4206	327.0696	394.1012	452.309	471.5263	537.7792	655.9049	664.5504	702.4085	890.255	894.7834	908.3292	946.0125	1014.6219	1063.1162	1083.9957	1110.1538	1130.4093	1148.027	1187.6074	1206.6191	1215.1928	1263.9545	1285.6326	1304.0154	1362.7823	1367.9482	1395.6569	1449.446	1480.7028	1483.7082	1512.7845	1514.6014	1771.5421	3003.4485	3046.5869	3053.8891	3064.419	3081.933	3123.1056	3131.6383	3456.4058	3742.7513
COC1C(O)COC1=N	CO[C@H]1[C@@H](O)CO[C]1[NH]	
InChI=1S/C5H9NO3/c1-8-4-3(7)2-9-5(4)6/h3-4,6-7H,2H2,1H3	InChI=1S/C5H9NO3/c1-8-4-3(7)2-9-5(4)6/h3-4,6-7H,2H2,1H3/t3-,4-/m0/s1
