12
gdb 14813	2.61849	2.19767	1.3356	5.3571	58.52	-0.3068	-0.0259	0.2809	861.9007	0.084142	-377.511548	-377.504351	-377.503407	-377.543843	24.569	
N	-0.3119752456	-1.1585517582	-0.3118749561	-0.303719
C	-0.1974210914	-0.0201792235	-0.1513517301	 0.298178
C	-0.073627667	 1.4076126791	 0.0657185991	-0.223155
C	 0.0842009138	 1.9237324639	 1.5217509463	-0.07844
O	 1.2455190472	 2.6998713464	 1.1541850707	-0.257807
C	 1.3113914607	 2.1090689036	-0.1514953673	-0.021463
C	 2.472461454	 1.2317535255	-0.3236803483	 0.304047
N	 3.3958842802	 0.5527845535	-0.4662774761	-0.303027
H	-0.8595184063	 1.9317874518	-0.4808839114	 0.154261
H	-0.7277828546	 2.5517290836	 1.8959657616	 0.138022
H	 0.3252271591	 1.1421282862	 2.2488912809	 0.145841
H	 1.3157131401	 2.8656356482	-0.9427987194	 0.147261
61.3508	103.8419	201.5288	216.8186	276.7148	453.169	513.8503	553.2274	610.5475	730.1395	822.3113	907.6419	975.04	1018.9226	1043.4212	1063.9613	1113.6973	1162.9639	1209.1738	1253.5476	1336.6979	1348.3637	1369.9081	1522.6914	2362.467	2366.1774	3053.1984	3063.165	3101.2499	3118.29
N#CC1COC1C#N	N#C[C@H]1CO[C@H]1C#N	
InChI=1S/C5H4N2O/c6-1-4-3-8-5(4)2-7/h4-5H,3H2	InChI=1S/C5H4N2O/c6-1-4-3-8-5(4)2-7/h4-5H,3H2/t4-,5-/m0/s1
