16
gdb 123572	3.92643	1.6458	1.2676	3.399	74.06	-0.2183	0.0207	0.239	955.835	0.128858	-396.918842	-396.912507	-396.911562	-396.949317	25.945	
C	 0.0145410064	 1.4489773239	 0.0242995379	-0.246368
C	 1.2649441776	 0.6526006111	 0.0266100778	-0.015426
C	 2.002979857	 0.3938663113	 1.3617982101	-0.397112
C	 0.9432513877	-0.3437356882	 2.1284746336	 0.220715
C	 0.6035085234	-0.9354809336	 3.321084694	-0.212294
N	-0.6511778907	-1.4414809705	 3.131605478	-0.187922
N	-1.1580671552	-1.2221768285	 1.8885785783	-0.3389
C	-0.1786721622	-0.5574361484	 1.3045716233	 0.365444
N	-0.0674845951	-0.0336690012	-0.0099603377	-0.178513
H	-0.2858311445	 1.9390459761	 0.9470774612	 0.122299
H	-0.3130712144	 1.9403373003	-0.8868955898	 0.121942
H	 1.8418655385	 0.5843385233	-0.8897932298	 0.099146
H	 2.8981832573	-0.2137146691	 1.1849731308	 0.120059
H	 2.3363965523	 1.3251855249	 1.8334004597	 0.119331
H	 1.1145437903	-1.0527177087	 4.2639058521	 0.133853
H	-1.2038536584	-1.9632028727	 3.7893791104	 0.273744
171.9926	230.7348	344.3157	427.5104	448.5835	461.9235	622.1198	647.065	692.8696	744.9054	769.525	782.1568	789.3076	836.916	915.173	967.5249	969.1043	1053.9008	1062.0209	1088.0907	1105.3651	1115.2942	1164.3692	1177.9264	1196.1934	1253.1714	1277.8145	1323.1784	1370.4279	1436.7017	1466.9987	1489.2086	1497.7984	1517.7116	1636.5591	3031.3029	3061.1809	3109.4096	3164.1549	3200.6363	3256.0454	3684.7706
C1C2CC3=CNN=C3N12	C1[C@H]2Cc3c[nH]nc3N12	
InChI=1S/C6H7N3/c1-4-2-7-8-6(4)9-3-5(1)9/h2,5H,1,3H2,(H,7,8)	InChI=1S/C6H7N3/c1-4-2-7-8-6(4)9-3-5(1)9/h2,5H,1,3H2,(H,7,8)/t5-,9?/m1/s1
