21
gdb 36844	4.31866	0.98433	0.94482	2.5207	83.19	-0.2226	0.0818	0.3043	1330.4085	0.184052	-383.152028	-383.143966	-383.143022	-383.185448	31.276	
C	-0.0592571455	 1.5278494378	-0.2165780698	-0.313258
N	-0.1316835887	 0.0700186443	-0.2328721487	-0.064558
C	-0.3325160194	-0.5838508281	 1.0571741502	-0.215233
C	-1.4339630443	-0.5169311086	 0.0578534145	-0.218808
C	 1.3671645326	 1.9938948024	-0.0480439431	 0.339247
C	 2.6018613981	 1.6990203744	-0.9312580056	-0.190113
N	 3.2045914337	 2.6070127943	 0.1576364331	-0.147791
C	 1.9211946851	 3.4373473516	-0.0260904346	-0.217042
C	 2.3526908235	 1.7686911003	 1.1265228067	-0.201201
H	-0.449499671	 1.8956510249	-1.1743177417	 0.104984
H	-0.689307642	 1.970307424	 0.5789639305	 0.078798
H	 0.2185996468	-1.5066939663	 1.2133062791	 0.117758
H	-0.4264588908	 0.0459062041	 1.941012382	 0.109807
H	-2.2608503816	 0.1575853574	 0.2757943198	 0.10883
H	-1.7015769977	-1.3897984128	-0.5307229312	 0.118026
H	 3.0045420256	 0.683477905	-0.9277974748	 0.105478
H	 2.6357730713	 2.1392196562	-1.9322092092	 0.09537
H	 1.903181683	 4.0116497582	-0.957328123	 0.097515
H	 1.684375075	 4.069860051	 0.834830651	 0.095973
H	 2.1496065699	 2.2741673577	 2.0757574618	 0.09359
H	 2.7426790466	 0.760128012	 1.2868416031	 0.102628
59.2032	79.3199	124.6444	277.2336	319.835	355.812	419.0057	585.506	588.6331	687.1332	765.2547	775.6076	797.6517	838.9435	897.2802	898.2506	916.5265	941.9443	976.1448	1001.5556	1024.9513	1028.9767	1033.5026	1054.1431	1113.3266	1119.3358	1143.9577	1156.3691	1167.1662	1170.1601	1180.7836	1197.8087	1202.2256	1206.2249	1268.8949	1293.5771	1322.4986	1331.7523	1393.7403	1482.2173	1491.663	1511.7096	1512.6286	1520.7251	1567.2217	2917.3272	3038.3003	3039.7043	3044.63	3055.1179	3091.517	3096.2162	3105.4776	3112.9497	3121.6754	3175.7305	3189.9633
C(N1CC1)C12CN(C1)C2	C(N1CC1)[C@@]12CN(C1)C2	
InChI=1S/C7H12N2/c1-2-8(1)3-7-4-9(5-7)6-7/h1-6H2	InChI=1S/C7H12N2/c1-2-8(1)3-7-4-9(5-7)6-7/h1-6H2
