18
gdb 54221	2.19794	1.41969	1.33697	4.0354	73.26	-0.2349	-0.0424	0.1924	1097.9037	0.144342	-439.099849	-439.090162	-439.089218	-439.135065	34.552	
C	 0.2578328307	 1.2901977943	-0.5033173713	-0.472494
C	-0.1359814498	 0.2243101253	 0.4949630077	 0.368655
O	 0.4683142212	 0.0408170155	 1.5258182576	-0.299251
C	-1.3319981801	-0.6743624426	 0.1354561879	 0.063721
C	-2.0490805946	-1.1697493655	 1.3932232778	-0.44407
N	-2.2024217894	-0.1539745007	-0.9610681423	-0.355676
C	-2.0305502181	-1.3640795498	-1.8079056782	-0.286475
C	-0.9581573397	-1.8481614344	-0.8242581163	 0.362294
O	-0.1706911744	-2.7403644529	-0.7884238814	-0.271454
H	 1.1484153275	 1.8066504659	-0.1441972789	 0.137833
H	 0.4524714221	 0.8444609226	-1.4849475566	 0.139476
H	-0.5649677204	 1.995217406	-0.6515485261	 0.150785
H	-2.5539341376	-0.335056972	 1.8916007815	 0.127555
H	-2.7949445592	-1.9328897849	 1.150801634	 0.114166
H	-1.3203727541	-1.5873451529	 2.0889830235	 0.167128
H	-3.1591299198	 0.0028734858	-0.6649371693	 0.226475
H	-2.8908374561	-2.0445926508	-1.8584851248	 0.132467
H	-1.6864271579	-1.1626950488	-2.8283556946	 0.138864
36.4955	93.5287	126.2903	142.2619	199.0126	218.6717	259.6495	338.0929	423.8952	455.4148	467.18	536.6038	603.6752	635.1264	697.2488	760.9448	862.0888	910.6518	952.7186	976.5742	1009.4086	1029.4869	1042.2816	1110.2025	1119.166	1170.7247	1183.6667	1234.1706	1291.1332	1370.8354	1384.2472	1397.2975	1449.6408	1464.8518	1474.3293	1483.5508	1491.8615	1800.0211	1916.5341	3019.9435	3037.9235	3046.7393	3070.5891	3103.4698	3109.8174	3151.1157	3158.9251	3540.7005
CC(=O)C1(C)NCC1=O	CC(=O)[C@@]1(C)NCC1=O	
InChI=1S/C6H9NO2/c1-4(8)6(2)5(9)3-7-6/h7H,3H2,1-2H3	InChI=1S/C6H9NO2/c1-4(8)6(2)5(9)3-7-6/h7H,3H2,1-2H3/t6-/m1/s1
