16
gdb 43871	4.9376	1.12083	1.07161	2.3164	70.19	-0.2591	0.0234	0.2826	1122.4748	0.123977	-437.840709	-437.833447	-437.832503	-437.872687	28.249	
N	 0.039724775	 1.1468968868	 0.7095055273	-0.538977
C	-0.032244196	 0.0565714963	 0.0985768997	 0.423841
C	-1.1495623472	-0.8679005081	-0.3332525345	-0.435759
C	-0.0076690333	-1.7159907731	-0.9136301391	 0.437828
C	 0.3235167335	-3.1982938236	-0.5566264068	-0.332839
C	 0.4043613768	-3.4819225607	-2.0632809046	 0.039176
O	-0.8612794384	-3.1008079452	-2.6200455777	-0.241489
C	 0.1163020793	-2.0780528361	-2.398549275	-0.063731
O	 0.9694184068	-0.7443109194	-0.43038351	-0.288898
H	 1.0081654307	 1.4560622674	 0.8084485988	 0.229251
H	-1.7088572854	-1.3220007706	 0.4862974208	 0.142642
H	-1.8467234487	-0.4496209895	-1.0610660611	 0.146182
H	 1.2895198528	-3.2521147184	-0.0490238486	 0.131855
H	-0.4292902397	-3.7655706361	-0.0049922938	 0.118252
H	 0.9790241217	-4.2290702609	-2.5962877345	 0.115561
H	 0.408966032	-1.4508605887	-3.2324159811	 0.117106
85.1474	115.128	253.7119	367.269	380.5741	418.6299	474.2911	495.2588	573.1103	768.4818	792.4205	840.3881	855.9204	865.7395	870.9502	898.6521	952.3384	961.0845	982.2121	1011.647	1036.9794	1065.6107	1087.8474	1128.7029	1173.321	1188.9502	1225.9343	1228.2242	1264.9637	1292.0583	1317.4817	1381.0488	1460.2767	1462.4202	1832.7462	3070.7117	3089.3936	3133.7413	3142.8178	3189.7249	3206.1976	3477.5788
N=C1CC2(CC3OC23)O1	[NH][C]1C[C@]2(C[C@H]3O[C@@H]23)O1	
InChI=1S/C6H7NO2/c7-4-2-6(9-4)1-3-5(6)8-3/h3,5,7H,1-2H2	InChI=1S/C6H7NO2/c7-4-2-6(9-4)1-3-5(6)8-3/h3,5,7H,1-2H2/t3-,5-,6+/m1/s1
