22
gdb 120558	4.31248	0.75592	0.69511	2.2788	80.75	-0.2132	0.0667	0.2798	1686.658	0.192729	-441.435315	-441.425127	-441.424182	-441.471497	36.377	
C	 0.0336538131	 1.3356232076	-0.2817274533	-0.237657
O	-0.1018706426	 0.1020555358	 0.3865936556	-0.243096
C	-1.3557931949	-0.4988618802	 0.191410941	 0.130614
C	-1.528679244	-1.2858077918	-1.1392208088	-0.200463
N	-1.22746985	-2.5383876484	-0.4175553396	-0.081409
C	-2.0099344786	-3.7165836628	-0.738414564	-0.143653
C	-1.4061301503	-4.98885652	-0.1466036765	-0.066386
O	-1.3395832688	-4.9619176106	 1.2726254234	-0.417065
C	-1.4243142178	-1.8693614734	 0.8892855835	-0.202525
H	 1.0265384562	 1.7252393582	-0.0452402195	 0.129413
H	-0.051574981	 1.2289152834	-1.3736342492	 0.107252
H	-0.7237764498	 2.0625549293	 0.0523828127	 0.104184
H	-2.1610612152	 0.2099758347	 0.4267589736	 0.068145
H	-2.5600551288	-1.2318451289	-1.5228593176	 0.084131
H	-0.8324496128	-1.0485713397	-1.9517839364	 0.103906
H	-3.059409717	-3.6191666396	-0.3968264334	 0.078156
H	-2.0310641872	-3.822834438	-1.8308371244	 0.097434
H	-2.0376040897	-5.8455900648	-0.4071806676	 0.103155
H	-0.4120011018	-5.1555423483	-0.5854953397	 0.094042
H	-0.6128347724	-4.3800212519	 1.5139183562	 0.292132
H	-0.6369090543	-2.0423675196	 1.6308555038	 0.102583
H	-2.4037161924	-2.074109231	 1.3457172999	 0.097106
42.3392	67.5999	100.7488	127.0992	189.9153	236.0596	247.997	314.5222	330.5571	352.1493	411.8053	470.9861	511.7656	685.0036	826.6447	850.1602	898.487	903.6102	945.4819	1005.0528	1029.8391	1056.3047	1073.3758	1102.5144	1130.8456	1139.5971	1155.763	1184.0831	1187.2945	1206.1645	1240.2104	1255.843	1262.6208	1280.4424	1315.126	1338.3018	1393.3602	1399.0918	1402.8028	1416.8278	1471.9501	1481.9443	1483.7309	1489.5326	1492.6401	1510.1916	1511.4653	2910.6214	2971.4456	2973.3203	2993.9631	3002.4989	3013.8414	3020.9939	3044.9624	3054.2045	3061.1777	3071.7559	3116.7748	3833.0252
COC1CN(CCO)C1	COC1CN(CCO)C1	
InChI=1S/C6H13NO2/c1-9-6-4-7(5-6)2-3-8/h6,8H,2-5H2,1H3	InChI=1S/C6H13NO2/c1-9-6-4-7(5-6)2-3-8/h6,8H,2-5H2,1H3
