17
gdb 35402	2.99027	1.66377	1.3517	3.7188	75.18	-0.2361	0.0093	0.2454	966.1625	0.137768	-380.806111	-380.799062	-380.798118	-380.837491	28.125	
N	-0.351762998	-1.1867888283	-0.3713268543	-0.333982
C	-0.2103701671	-0.0528930043	-0.1928778042	 0.290565
C	-0.0438827058	 1.3780602176	 0.0173973539	-0.110896
C	-0.2877522892	 1.9602818224	 1.4514536898	-0.29744
C	 1.1499175621	 2.5430515258	 1.3671712832	 0.040692
C	 2.3572932351	 1.7759547063	 1.9218728252	-0.08487
C	 2.1866849964	 0.294997058	 1.7465728957	-0.295714
C	 2.4799566673	 1.134254055	 0.5324991378	-0.007539
N	 1.3610528047	 1.9449399828	 0.0026850969	-0.138346
H	-0.637055225	 1.8921396343	-0.7454301817	 0.135105
H	-1.0872020853	 2.7013466991	 1.4907145606	 0.121753
H	-0.4524951697	 1.2171778046	 2.2326784105	 0.132205
H	 1.2367611762	 3.6309402578	 1.4204636403	 0.088502
H	 3.1256854477	 2.2078984606	 2.5496207841	 0.098856
H	 3.0377965024	-0.294308972	 2.0738178913	 0.124794
H	 1.2364507345	-0.203947986	 1.8986195335	 0.130664
H	 3.3461928237	 0.9564811665	-0.0935790325	 0.10565
127.2109	143.2958	263.1967	299.3882	378.8147	484.2011	531.9169	583.3804	677.4536	716.0926	750.7657	763.6527	844.5662	877.095	900.9654	939.041	968.4416	998.9895	1007.3327	1034.0012	1051.6158	1065.8609	1080.5269	1090.5152	1130.6533	1135.7477	1190.4148	1207.2365	1245.4415	1254.0755	1289.0111	1323.6491	1341.2042	1365.0698	1478.7772	1498.7972	2348.4074	3056.5241	3074.7169	3085.3827	3135.204	3143.1055	3179.1174	3197.7985	3214.495
N#CC1CC2C3CC3N12	N#C[C@H]1C[C@H]2[C@H]3C[C@H]3N12	
InChI=1S/C7H8N2/c8-3-4-1-6-5-2-7(5)9(4)6/h4-7H,1-2H2	InChI=1S/C7H8N2/c8-3-4-1-6-5-2-7(5)9(4)6/h4-7H,1-2H2/t4-,5-,6+,7-/m1/s1
