20
gdb 92577	2.89932	1.54404	1.24531	1.9829	79.32	-0.2397	0.0259	0.2656	1073.9477	0.173427	-403.156703	-403.148854	-403.147909	-403.189001	30.743	
C	-0.0255972053	 1.6017566291	-0.0268607169	-0.401907
C	 0.0688233055	 0.087034885	 0.0271701179	 0.049534
C	 1.0261398411	-0.6592453714	-0.9433754648	-0.261107
C	 1.374428657	-1.6424028042	 0.207931429	-0.027266
C	 2.8177875619	-2.0197652257	 0.4668100657	-0.103909
O	 3.6268686269	-0.8802844061	 0.8033280974	-0.223903
C	 3.0329719001	 0.0720291821	 1.5632607824	 0.11916
N	 1.809811933	 0.2514456958	 1.8311785847	-0.256785
C	 0.81011205	-0.6084951597	 1.2257647142	-0.015556
H	 0.9571652779	 2.0615932926	 0.1069337834	 0.123289
H	-0.4305290871	 1.9271426055	-0.9917629784	 0.106512
H	-0.6805664759	 1.9886910513	 0.7607752479	 0.116584
H	-0.9320748847	-0.3535196646	-0.047253022	 0.071078
H	 0.594355546	-1.0867562534	-1.8513577615	 0.095201
H	 1.8861076606	-0.0423078306	-1.2229668873	 0.109085
H	 0.7642898802	-2.5493357246	 0.1620828359	 0.075633
H	 2.8774344452	-2.731001115	 1.3017811183	 0.111623
H	 3.2976838884	-2.4730281211	-0.4053157438	 0.117731
H	 3.7901501401	 0.7495160788	 1.9559756367	 0.121419
H	 0.1590538391	-0.9883117139	 2.0186030011	 0.073585
89.1127	162.1623	206.8177	232.1638	307.6343	343.9051	439.7308	473.4448	556.9128	606.5636	660.6832	767.6842	835.6796	845.4193	879.264	901.1157	926.3508	953.985	964.8666	979.3674	1022.4028	1076.5084	1120.1193	1134.1924	1143.2713	1157.5776	1185.3279	1236.5866	1238.0391	1264.4132	1280.5375	1306.0743	1344.3919	1349.5043	1381.4732	1403.583	1411.0657	1421.6674	1489.3188	1490.8539	1497.6046	1500.2308	1724.0653	3015.5967	3031.1024	3036.0546	3052.7539	3054.4327	3067.3811	3086.0107	3095.2477	3108.7108	3118.1892	3148.3906
CC1CC2COC=NC12	C[C@H]1C[C@H]2COC=N[C@@H]12	
InChI=1S/C7H11NO/c1-5-2-6-3-9-4-8-7(5)6/h4-7H,2-3H2,1H3	InChI=1S/C7H11NO/c1-5-2-6-3-9-4-8-7(5)6/h4-7H,2-3H2,1H3/t5-,6-,7-/m0/s1
