21
gdb 93699	3.28741	1.20706	1.10587	1.9182	74.72	-0.2444	0.0814	0.3258	1209.434	0.181484	-461.379872	-461.370608	-461.369664	-461.413141	35.886	
C	 0.0748082545	 1.4893197872	 0.0370657526	-0.410489
C	 0.0832514283	-0.0227131836	 0.0133541811	 0.215058
O	 0.760094959	-0.4498305108	-1.1489485099	-0.263257
C	 0.7954371727	-1.8707189834	-1.2449232766	-0.114984
C	 1.4943292587	-2.4614980276	-0.0078688708	 0.346382
C	 1.5064381716	-3.9825555408	-0.0316789709	-0.426369
O	 2.8493349686	-2.0296272114	 0.0154774368	-0.473967
C	 0.7652151985	-1.9097221481	 1.2297655347	-0.114964
O	 0.7316550895	-0.4865051614	 1.1778091675	-0.263257
H	 1.1021333582	 1.8617055091	 0.0546029449	 0.132794
H	-0.4269233996	 1.8731299658	-0.853806333	 0.128886
H	-0.4471923164	 1.8450089197	 0.9279600318	 0.128906
H	-0.9449308134	-0.4354013192	-0.0057286043	 0.057587
H	-0.2268964049	-2.2707945987	-1.3440003119	 0.08447
H	 1.3605308832	-2.1101328834	-2.1490339297	 0.116015
H	 2.042547065	-4.3405304219	-0.9154519704	 0.128824
H	 2.021891243	-4.3682790847	 0.8527035494	 0.128846
H	 0.4908846404	-4.3893328126	-0.0499431298	 0.113736
H	 2.8213630467	-1.0649098503	 0.030161685	 0.285308
H	-0.2590799635	-2.3123329765	 1.291171174	 0.084462
H	 1.3081423898	-2.1777372671	 2.1394154496	 0.116014
110.7203	176.7432	194.1796	214.0492	251.3678	258.0003	328.0867	329.3719	367.3483	412.2542	453.7635	493.4476	538.5775	582.3207	666.06	821.1421	841.0208	877.6706	889.9289	933.2268	989.2118	1020.334	1056.1921	1058.4099	1106.96	1125.6273	1141.4814	1175.7905	1227.2035	1232.8955	1293.9991	1315.868	1355.3116	1363.2136	1390.2741	1401.1951	1411.1648	1432.0516	1437.4035	1475.8234	1481.5958	1483.9525	1490.1894	1490.4113	1499.3748	2908.4024	2970.6049	2981.282	3041.9587	3058.7228	3100.4924	3102.2886	3116.6198	3117.8028	3138.8749	3143.6322	3786.3427
CC1OCC(C)(O)CO1	C[C@H]1OC[C@@](C)(O)CO1	
InChI=1S/C6H12O3/c1-5-8-3-6(2,7)4-9-5/h5,7H,3-4H2,1-2H3	InChI=1S/C6H12O3/c1-5-8-3-6(2,7)4-9-5/h5,7H,3-4H2,1-2H3/t5-,6+
