19
gdb 55286	2.4261	1.40414	1.16581	4.4229	71.	-0.2465	0.0146	0.2611	1129.3516	0.159827	-456.357482	-456.348365	-456.347421	-456.3915	34.092	
C	-0.2692302855	 1.4688716955	 0.0422126531	-0.459387
C	-0.0443905791	-0.0386555084	-0.0807253931	 0.280508
N	-1.2321046204	-0.7997388297	-0.4590042403	-0.553417
C	 1.2199696563	-0.4253662685	-0.9042455388	-0.182824
N	 1.9486413532	-0.7421068749	 0.3561021018	-0.346256
H	 2.4283587882	-1.6353668453	 0.3605148705	 0.23649
H	 2.4938977234	 0.4707633047	 1.7602983216	 0.300893
C	 0.6902772919	-0.6999722063	 1.1395849156	-0.152541
C	 0.7941221903	 0.1266527544	 2.4147055472	 0.434552
O	 1.9795609108	 0.7376015969	 2.5552356065	-0.374416
O	-0.1134551587	 0.247131539	 3.1955097579	-0.352062
H	 0.6475202374	 1.9986643888	 0.320733492	 0.127183
H	-0.6152368602	 1.8744899946	-0.9152591181	 0.108151
H	-1.0248967168	 1.6848575166	 0.8037122165	 0.139841
H	-1.6507213546	-0.3856888263	-1.2899336533	 0.225634
H	-1.9306625218	-0.7044789339	 0.2760175847	 0.238565
H	 1.0302177785	-1.2974004049	-1.5367183665	 0.113601
H	 1.6918850003	 0.3661470106	-1.4946341772	 0.107977
H	 0.245203597	-1.6706997329	 1.3738352098	 0.107507
59.8226	105.2193	153.3951	201.17	264.9278	269.5997	326.4764	359.1715	396.5308	453.0421	480.5457	624.2904	639.1476	719.9401	771.4736	858.4309	889.3997	910.0723	916.358	935.6821	964.8886	985.4576	1022.7289	1038.0875	1086.0727	1148.3444	1177.461	1228.2595	1249.0861	1268.6327	1309.3944	1318.0985	1351.3797	1374.736	1412.2049	1428.9161	1487.1933	1497.9966	1510.6074	1650.7654	1863.5677	3028.0921	3041.7256	3078.0445	3096.7878	3098.1766	3111.677	3460.2664	3460.8019	3535.1652	3536.5213
CC1(N)C[NH2+]C1C([O-])=O	C[C@@]1(N)CN[C@H]1C(=O)O	
InChI=1S/C5H10N2O2/c1-5(6)2-7-3(5)4(8)9/h3,7H,2,6H2,1H3,(H,8,9)	InChI=1S/C5H10N2O2/c1-5(6)2-7-3(5)4(8)9/h3,7H,2,6H2,1H3,(H,8,9)/t3-,5+/m0/s1
