16
gdb 32501	2.11387	1.60292	0.91945	1.5717	80.99	-0.196	-0.0033	0.1927	1223.0993	0.12386	-400.735463	-400.726827	-400.725882	-400.768783	32.211	
C	 0.0266062522	 1.3527367303	-0.0813505247	-0.330602
N	-0.156831072	-0.0723247498	 0.1109509292	-0.405224
C	 0.575854925	-0.702251476	 1.0978321428	 0.164455
C	 1.2393142008	-0.1710458323	 2.1649976775	-0.094055
O	 1.7847403158	-1.1772331099	 2.9305687945	-0.146156
C	 1.4783509335	-2.342236501	 2.3397716525	-0.112347
C	 0.738701196	-2.1405955742	 1.2066114926	 0.067912
C	 0.2328611648	-3.0962216666	 0.300468577	 0.221741
C	-0.2126216654	-3.8694976779	-0.5098723052	-0.447906
H	 1.0758238662	 1.6373230549	-0.2621976893	 0.113406
H	-0.5784815964	 1.6836118218	-0.9281375803	 0.127279
H	-0.3195623115	 1.8941124256	 0.8067643874	 0.132655
H	-0.2207138137	-0.6132728282	-0.7393214499	 0.242695
H	 1.4035750396	 0.8300703608	 2.5202947263	 0.131039
H	 1.8421196897	-3.2385206633	 2.8141539532	 0.146128
H	-0.6053815847	-4.5677398242	-1.2064297236	 0.188979
95.9373	119.0826	163.5866	189.5256	222.6772	329.7581	392.5087	485.8657	506.1935	541.6506	564.3625	601.0961	607.3484	638.3849	665.8072	721.371	747.1972	780.1559	894.7268	1068.3809	1073.7746	1143.1319	1163.1376	1206.6923	1221.047	1255.3956	1338.9662	1356.5288	1460.2593	1481.0066	1505.4977	1526.5484	1580.4865	1662.6074	2227.658	2973.9081	3056.5497	3122.3426	3278.632	3300.5712	3503.0985	3594.5824
CNC1=COC=C1C#C	CNc1cocc1C#C	
InChI=1S/C7H7NO/c1-3-6-4-9-5-7(6)8-2/h1,4-5,8H,2H3	InChI=1S/C7H7NO/c1-3-6-4-9-5-7(6)8-2/h1,4-5,8H,2H3
