19
gdb 36032	3.90482	1.01135	0.90267	1.5425	80.49	-0.2618	0.0491	0.311	1312.1768	0.157115	-385.818294	-385.809189	-385.808245	-385.852383	34.232	
C	-0.0316314402	-1.3531481122	-0.1742907204	-0.437383
C	-0.0507292828	-0.1513557616	-0.1952341958	 0.292257
C	-0.0696227354	 1.3055924406	-0.2159662117	-0.427621
C	 1.2861016731	 1.9777254981	 0.0291057397	 0.307585
C	 2.271271266	 1.3817251715	 0.9976899298	-0.30658
C	 2.5530123453	 1.3403253951	-0.4858288542	-0.300848
C	 1.1825087447	 3.4745577461	-0.0536173905	 0.008627
C	 0.9991544785	 4.3259804936	 1.1311700646	-0.180582
O	 2.2648027612	 4.2405044121	 0.467428982	-0.23801
H	-0.0242777455	-2.4149018776	-0.1592162727	 0.197558
H	-0.4630659133	 1.6412012031	-1.186320247	 0.131786
H	-0.7850964914	 1.6637825029	 0.5374177775	 0.133374
H	 2.857131934	 2.0706467671	 1.5947135855	 0.126749
H	 1.9969826615	 0.4528410716	 1.4843445632	 0.121302
H	 2.4699845939	 0.3849047844	-0.9911756454	 0.124153
H	 3.3228740787	 2.0017964536	-0.8672972438	 0.122327
H	 0.7971303532	 3.8515882297	-1.0046361057	 0.090514
H	 0.4921098503	 5.2852267726	 1.0412367586	 0.117252
H	 0.9627605281	 3.8639738794	 2.1162697063	 0.117541
62.3645	86.8896	135.7335	211.7213	242.2788	296.4607	328.4323	344.0164	421.7409	487.5321	586.4202	617.0686	645.8699	692.8003	794.9587	833.5012	859.2234	881.8674	922.6739	938.5917	986.244	1005.2004	1020.9185	1062.4678	1070.942	1098.2756	1102.7365	1152.8542	1173.5796	1197.5047	1235.8988	1252.8005	1285.6497	1325.5511	1378.1445	1434.8351	1448.3622	1472.0872	1495.8485	1524.0283	2238.1246	3000.9249	3028.4191	3072.3399	3087.7516	3137.72	3142.2385	3177.1197	3224.0639	3237.3516	3505.167
C#CCC1(CC1)C1CO1	C#CCC1(CC1)[C@H]1CO1	
InChI=1S/C8H10O/c1-2-3-8(4-5-8)7-6-9-7/h1,7H,3-6H2	InChI=1S/C8H10O/c1-2-3-8(4-5-8)7-6-9-7/h1,7H,3-6H2/t7-/m1/s1
