17
gdb 26425	3.27142	1.07583	0.97571	2.6097	76.7	-0.222	-0.0278	0.1941	1251.9094	0.13506	-421.866752	-421.858101	-421.857156	-421.901311	30.908	
C	-0.1106145999	 1.5599170217	-0.0590521415	-0.409049
C	 0.0505175415	 0.0258730852	-0.0057398265	-0.176447
C	-1.3340663278	-0.6214940276	 0.0457523797	 0.163675
O	-1.7907177948	-1.1755567179	 1.0099117475	-0.245891
C	 0.8160582342	-0.5150419565	-1.1693942697	 0.359089
C	 1.8419008015	-1.4032341231	-1.2829398802	-0.285307
C	 2.1166774306	-1.5342954487	-2.6835335861	-0.16675
C	 1.2335119382	-0.7217714498	-3.3167360946	-0.019823
O	 0.4325457593	-0.0939372288	-2.4126241089	-0.18482
H	 0.8705076235	 2.0415712434	-0.0843563629	 0.133043
H	-0.6579119672	 1.8631785228	-0.9556920974	 0.138264
H	-0.6538200767	 1.9182872536	 0.8197190827	 0.130782
H	 0.5685111001	-0.2666535444	 0.9117500128	 0.109354
H	-1.9103710342	-0.5301536812	-0.9028203501	 0.086507
H	 2.3425515348	-1.9020977888	-0.4678916272	 0.115884
H	 2.8706822087	-2.1496840183	-3.1483178177	 0.115723
H	 1.0489420682	-0.4803261216	-4.3503149398	 0.135764
42.884	61.0799	136.853	187.3597	211.9889	291.8212	358.0514	428.9226	461.4102	614.3029	696.8535	728.0178	749.2775	809.8534	854.7556	884.6999	902.1423	930.9613	953.2315	1024.7933	1052.9355	1085.0633	1108.2299	1143.5648	1183.7186	1229.8094	1252.1021	1277.7859	1328.3379	1399.0149	1412.5295	1424.7201	1493.6254	1498.3741	1537.1638	1630.9599	1835.0132	2878.5629	3045.9258	3083.0444	3122.9092	3126.4099	3253.1629	3264.2878	3287.853
CC(C=O)C1=CC=CO1	C[C@@H](C=O)c1ccco1	
InChI=1S/C7H8O2/c1-6(5-8)7-3-2-4-9-7/h2-6H,1H3	InChI=1S/C7H8O2/c1-6(5-8)7-3-2-4-9-7/h2-6H,1H3/t6-/m0/s1
