19
gdb 101071	2.21598	1.24215	1.08506	1.5877	78.09	-0.2561	0.0245	0.2805	1252.2797	0.154847	-422.955135	-422.944918	-422.943974	-422.99062	36.664	
C	 0.1607735938	 1.2592377041	 0.342068192	-0.232123
O	 0.0114384129	-0.1187874898	 0.0877803974	-0.24895
C	 0.5647516653	-0.5607653965	-1.1387633582	 0.06395
C	 2.094163725	-0.5715524499	-1.1495099982	-0.424363
C	-0.0077369872	-1.9552650192	-1.3810299123	 0.196129
C	-1.2535166354	-2.0914200569	-2.1585336756	-0.216473
O	 0.0106591443	-2.3518071403	-2.7650306635	-0.275511
C	 0.3480776362	-2.9798560926	-0.4283631549	 0.330122
C	 0.6548749899	-3.8257435196	 0.368070626	-0.441353
H	 1.207031909	 1.5486523243	 0.513602269	 0.111437
H	-0.2352651271	 1.8699946789	-0.4849080871	 0.102619
H	-0.4115233762	 1.4794142934	 1.2464689696	 0.13041
H	 0.2018653798	 0.0734754784	-1.9642503499	 0.070504
H	 2.4746705994	-1.1804692367	-0.325047913	 0.137258
H	 2.4513159635	-0.9933008589	-2.0935839484	 0.13671
H	 2.500206618	 0.4390986338	-1.0579329787	 0.116092
H	-1.8846265624	-2.9630744349	-2.0001831968	 0.126597
H	-1.7629244689	-1.1893459897	-2.4946690199	 0.117809
H	 0.9225800501	-4.575046528	 1.0715743427	 0.199138
54.0673	73.3016	129.9156	163.0188	200.866	227.9022	238.2773	280.9652	308.8653	385.4532	433.414	485.886	571.3676	590.9457	624.5525	662.0581	716.227	849.8633	874.3455	904.8176	960.2989	1028.5806	1070.9507	1118.373	1132.7192	1154.7848	1162.5736	1181.9	1224.0273	1274.3211	1316.6981	1364.6583	1399.1259	1407.8016	1477.0479	1484.463	1491.9639	1503.7155	1511.8363	1519.6388	2240.3754	2969.7953	2977.5583	3031.1764	3049.1078	3089.1043	3114.0112	3121.539	3129.9913	3184.3248	3501.3648
COC(C)C1(CO1)C#C	CO[C@@H](C)[C@]1(CO1)C#C	
InChI=1S/C7H10O2/c1-4-7(5-9-7)6(2)8-3/h1,6H,5H2,2-3H3	InChI=1S/C7H10O2/c1-4-7(5-9-7)6(2)8-3/h1,6H,5H2,2-3H3/t6-,7+/m0/s1
