17
gdb 50908	2.30582	1.14578	0.80459	3.6771	76.1	-0.2828	-0.001	0.2818	1396.951	0.134727	-417.99371	-417.984395	-417.983451	-418.029302	32.326	
N	 0.007087622	 1.1729252216	-0.1822997203	-0.428044
C	-0.0200923057	-0.0600750571	 0.0666789982	 0.130188
O	-1.1351154451	-0.7736614877	-0.2349192873	-0.186135
C	-1.1008428091	-2.1712711882	 0.051036284	-0.056224
C	-1.1109106893	-2.4055600819	 1.5116145372	 0.281597
N	-1.1092576308	-2.5922642947	 2.6516070687	-0.312221
C	-2.2908993706	-2.8158735773	-0.6153680374	 0.017465
C	-2.1957122164	-3.2039162782	-2.0665116088	-0.275342
C	-2.2210259752	-4.2708298099	-1.0035821801	-0.267446
H	 0.9042110642	 1.5676845968	 0.0922848812	 0.237953
H	 0.7813990538	-0.6606152485	 0.5162056075	 0.103582
H	-0.1765921427	-2.6131091757	-0.3485582197	 0.124664
H	-3.2418111864	-2.4370275479	-0.2571373131	 0.11992
H	-3.076078231	-3.0595631347	-2.6813274551	 0.131083
H	-1.2595370488	-3.0176001541	-2.5819311986	 0.123888
H	-1.3020910532	-4.8110002514	-0.8007295509	 0.124045
H	-3.1180641557	-4.8656670611	-0.8800986154	 0.131028
52.8903	67.9777	83.8717	139.7857	149.5125	230.5569	325.704	336.7686	431.7134	515.531	531.5418	687.7306	770.1719	821.2373	838.0167	880.1031	911.2621	944.5505	998.882	1028.6295	1038.9027	1066.101	1087.5005	1113.5005	1134.5646	1192.6961	1195.5402	1227.9121	1275.9397	1297.9203	1344.8847	1417.9107	1428.4853	1474.6063	1508.7817	1752.9644	2358.5765	3005.3836	3036.6231	3139.0084	3143.435	3175.8499	3219.2747	3233.4633	3522.1385
N=COC(C#N)C1CC1	[NH][CH]O[C@@H](C#N)C1CC1	
InChI=1S/C6H8N2O/c7-3-6(9-4-8)5-1-2-5/h4-6,8H,1-2H2	InChI=1S/C6H8N2O/c7-3-6(9-4-8)5-1-2-5/h4-6,8H,1-2H2/t6-/m0/s1
