20
gdb 8941	3.46305	1.25528	0.98644	3.0266	72.64	-0.2486	-0.0221	0.2266	1211.918	0.17299	-386.145238	-386.134975	-386.13403	-386.181148	35.225	
C	-0.0046474442	 1.4047353515	-0.0704209693	-0.239895
O	-0.0330740283	 0.008173137	 0.1173598754	-0.246772
C	-1.3192148335	-0.5842440175	 0.0131344092	 0.132966
C	-1.7589166467	-0.7250782388	-1.4468720921	-0.411117
C	-1.2363960927	-1.9495522705	 0.7288996725	-0.067345
C	-0.7350446931	-1.80564239	 2.1772392055	-0.418633
C	-2.6009954873	-2.6087528969	 0.756866926	 0.159768
O	-2.8655040818	-3.6920127258	 0.3038346612	-0.252775
H	 1.0182950673	 1.7329773285	 0.1297108559	 0.130507
H	-0.2693083996	 1.7007332123	-1.0955099153	 0.110444
H	-0.6850799205	 1.9212490333	 0.6245215622	 0.105453
H	-2.0483354497	 0.0471646236	 0.5528756806	 0.063392
H	-1.0455038111	-1.3462328567	-1.9968295972	 0.132487
H	-2.7455105353	-1.1939005365	-1.5166028117	 0.129593
H	-1.8209072393	 0.2487970709	-1.939859659	 0.118192
H	-0.564681225	-2.6032626728	 0.1627111577	 0.100307
H	 0.2196366762	-1.2782519133	 2.1834345238	 0.145814
H	-1.4443345343	-1.2322025534	 2.7858611562	 0.114171
H	-0.6045403622	-2.7858927693	 2.644199156	 0.126
H	-3.3822811889	-2.0019059755	 1.2775988723	 0.067443
51.764	60.3006	71.6061	178.4784	196.1559	208.9274	218.9305	276.9784	307.9655	350.7923	385.2657	429.3922	497.7022	577.9053	830.1353	880.5774	912.8422	958.6544	987.8674	1027.5208	1104.2276	1126.1172	1142.4258	1156.4554	1180.0201	1191.4374	1221.2129	1276.2552	1321.8877	1369.6803	1386.6955	1397.0433	1409.1761	1430.9694	1476.6954	1479.6815	1490.0815	1493.7413	1501.6545	1504.4703	1512.3049	1834.4705	2829.3013	2937.5481	2979.1446	3030.2929	3035.5805	3043.2198	3065.0924	3105.0007	3112.9055	3113.8754	3120.4381	3145.1705
COC(C)C(C)C=O	CO[C@@H](C)[C@@H](C)C=O	
InChI=1S/C6H12O2/c1-5(4-7)6(2)8-3/h4-6H,1-3H3	InChI=1S/C6H12O2/c1-5(4-7)6(2)8-3/h4-6H,1-3H3/t5-,6-/m0/s1
