17
gdb 11702	5.53724	1.3405	1.22291	4.4868	74.14	-0.268	0.021	0.289	1010.4648	0.142928	-326.722119	-326.714598	-326.713654	-326.753705	28.586	
C	-0.1259199992	 1.5695445626	 0.0553320042	-0.408103
C	 0.0764037954	 0.0603171502	 0.0253016732	 0.033089
C	 1.1625502937	-0.5474847678	-0.929915837	-0.31605
C	 1.7998769344	-1.2672621909	 0.2731560389	 0.229884
C	 2.2138862045	-0.2534716468	 1.3164018346	-0.318125
C	 0.7659870762	-0.6173160014	 1.2217732803	-0.105822
C	 2.2937492068	-2.6036489219	 0.2655249654	 0.178968
N	 2.6872332663	-3.6927333141	 0.2444292071	-0.353076
H	 0.8100083795	 2.1014731094	 0.2541656066	 0.117778
H	-0.5137359678	 1.9283275286	-0.9040151823	 0.122339
H	-0.8431971372	 1.8539950601	 0.832599231	 0.122224
H	-0.8805733869	-0.432883233	-0.1674736527	 0.090021
H	 0.744899088	-1.2309674206	-1.6699590242	 0.127035
H	 1.8223469663	 0.164251131	-1.435541393	 0.108308
H	 2.7396932682	-0.6626589077	 2.1719579961	 0.139359
H	 2.5785755275	 0.7154269285	 0.98584511	 0.122008
H	 0.2556634142	-1.0936149662	 2.0500786117	 0.110162
113.752	148.7445	213.6804	236.5204	294.7461	394.3494	456.1315	544.0865	563.151	585.2663	687.8661	799.929	842.4705	862.0677	901.3126	966.8162	975.2638	989.9422	1032.1745	1087.97	1092.4871	1102.2049	1130.5112	1187.7908	1210.6637	1246.5709	1276.9774	1301.0446	1368.7506	1384.6929	1414.0665	1480.4662	1492.938	1495.7982	1501.4123	2342.5584	3032.4348	3057.5938	3061.8424	3099.2725	3104.4645	3120.2171	3130.1175	3190.2572	3216.8714
CC1CC2(CC12)C#N	C[C@H]1C[C@]2(C[C@@H]12)C#N	
InChI=1S/C7H9N/c1-5-2-7(4-8)3-6(5)7/h5-6H,2-3H2,1H3	InChI=1S/C7H9N/c1-5-2-7(4-8)3-6(5)7/h5-6H,2-3H2,1H3/t5-,6-,7-/m0/s1
