21
gdb 103491	2.49881	1.46709	1.21028	1.0858	78.03	-0.2428	0.0904	0.3332	1146.5776	0.181937	-424.207925	-424.198882	-424.197938	-424.241583	34.143	
C	-0.5122378747	 1.2944048947	 0.0758193567	-0.383151
C	 0.2864028389	-0.0014661046	-0.1114981112	-0.246072
C	 0.8720876766	-0.5470158718	 1.1798137979	 0.262566
C	 2.0981314258	 0.1721429577	 1.7137203833	-0.46467
C	-0.0428515364	-1.1254663016	 2.2490348082	 0.003783
O	-1.366235236	-1.4314256249	 1.860323865	-0.253175
C	-1.2956817561	-2.7243385649	 1.2867474444	 0.01787
O	-0.0243620238	-2.8321053688	 0.6700606214	-0.253832
C	 0.8407785673	-2.0455873392	 1.4604994887	-0.012431
H	 0.0965081913	 2.0904306249	 0.5175902374	 0.109537
H	-0.8853743605	 1.662320831	-0.8852143083	 0.10869
H	-1.3713789308	 1.1218858281	 0.7303294832	 0.13319
H	-0.3505759178	-0.762135434	-0.5687886699	 0.114784
H	 1.1122982558	 0.1667022523	-0.8148729733	 0.091295
H	 1.8822956317	 1.2265297032	 1.9160939052	 0.125888
H	 2.4549824728	-0.2737596558	 2.6484085921	 0.112972
H	 2.919810523	 0.1276904553	 0.9901004818	 0.12272
H	 0.0837549633	-0.8920823529	 3.3018317441	 0.097215
H	-1.4094291473	-3.4973312473	 2.0662884829	 0.092127
H	-2.0748342739	-2.8247149803	 0.5262854382	 0.121458
H	 1.7048998707	-2.5705944612	 1.8560986023	 0.099237
69.4757	152.8123	169.8474	198.725	225.6455	255.5869	291.264	314.2383	352.8356	506.0346	557.5005	696.1139	740.0854	752.8722	784.2686	830.8378	861.8935	950.4185	958.039	1001.5128	1026.8978	1046.3109	1060.9701	1079.192	1083.6925	1091.9691	1128.8354	1137.4664	1186.3993	1221.0121	1225.4833	1292.1093	1302.9102	1306.5913	1371.5643	1405.8785	1408.0418	1420.1507	1422.3586	1485.1788	1494.7639	1500.8103	1503.4155	1509.7224	1536.4086	2954.8274	3024.8726	3027.4659	3036.5301	3088.9133	3092.123	3095.9418	3096.0629	3106.4765	3117.9982	3145.8722	3155.6968
CCC1(C)C2OCOC12	CC[C@@]1(C)[C@H]2OCO[C@@H]12	
InChI=1S/C7H12O2/c1-3-7(2)5-6(7)9-4-8-5/h5-6H,3-4H2,1-2H3	InChI=1S/C7H12O2/c1-3-7(2)5-6(7)9-4-8-5/h5-6H,3-4H2,1-2H3/t5-,6+,7-
