16
gdb 127859	3.86918	1.13217	0.88071	2.993	80.7	-0.1964	-0.0326	0.1638	1265.674	0.125041	-434.069223	-434.060829	-434.059885	-434.102294	31.133	
C	 0.0376207018	 1.4128835402	 0.0339125682	-0.321894
N	 0.0293865377	-0.0392515762	 0.0522162655	-0.328815
C	-1.1012300106	-0.656519954	 0.0271243	 0.307268
C	-2.4399598036	-0.0367883944	-0.0200983168	-0.064105
N	-3.5692566775	-0.6684037882	-0.0446955607	-0.190881
N	-3.5208953744	-2.0146755549	-0.0253572439	-0.275025
C	-2.3574254333	-2.7312376267	 0.0174094232	 0.511107
O	-2.5912284908	-4.0623690483	 0.0277451016	-0.423808
C	-1.1584174409	-2.1055635028	 0.0440268146	-0.36475
H	 1.0741358783	 1.7609267279	 0.0620724562	 0.115234
H	-0.4220755025	 1.8364609486	-0.8731774444	 0.10602
H	-0.4780288758	 1.8594881764	 0.8988972714	 0.105951
H	-2.5325143178	 1.042648689	-0.0371337556	 0.125472
H	-4.4085541697	-2.4892117708	-0.0456401141	 0.280266
H	-1.746927604	-4.5255303062	 0.0582920126	 0.315664
H	-0.231846217	-2.6660163897	 0.0780525623	 0.102297
88.3587	121.8245	170.7208	223.4855	290.4311	357.8756	372.756	390.5339	471.2691	501.4552	542.4666	588.1388	660.0629	734.2107	735.7081	837.3044	930.2844	942.6325	1013.9706	1054.8127	1097.8405	1122.9218	1155.5081	1203.7719	1255.1848	1324.6503	1377.4403	1410.5689	1435.4139	1487.2436	1506.8104	1536.2055	1628.995	1671.6468	1697.8497	2961.8742	3007.0756	3086.1953	3202.039	3203.6754	3658.3205	3827.1427
CN=C1C=NNC(O)=C1	CN=c1cn[nH]c(O)c1	
InChI=1S/C5H7N3O/c1-6-4-2-5(9)8-7-3-4/h2-3H,1H3,(H2,6,8,9)	InChI=1S/C5H7N3O/c1-6-4-2-5(9)8-7-3-4/h2-3H,1H3,(H2,6,8,9)
