18
gdb 77177	3.40994	1.02426	0.83404	0.9204	73.5	-0.2442	-0.0315	0.2128	1345.3591	0.146479	-439.053183	-439.044237	-439.043292	-439.087527	32.541	
O	 0.5446277174	 0.7145479005	 0.774537104	-0.432908
C	 0.2335402801	-0.3566261244	-0.0590031698	 0.05492
C	-1.2415531029	-0.9001346368	-0.1962825352	-0.048357
C	-0.995481368	-1.097156685	-1.7322142045	-0.365582
C	 0.1651252034	-0.1116571672	-1.5657944913	 0.333745
O	 0.6268382205	 0.7700749755	-2.2356384099	-0.305551
C	-1.6197513518	-2.0937151846	 0.6327671015	 0.00982
C	-2.3093146987	-1.9217078422	 1.9352019315	-0.243963
N	-3.0269221401	-2.4985095887	 0.7833276145	-0.324898
H	 0.6345052946	 1.4947899012	 0.212708184	 0.297504
H	 0.8922720204	-1.2083639582	 0.1671938153	 0.108698
H	-1.9400525319	-0.0727347903	-0.030212927	 0.083073
H	-0.6527007388	-2.110280877	-1.9660902279	 0.136134
H	-1.7808427663	-0.8116360627	-2.4332545181	 0.136269
H	-0.9442759598	-2.9421257	 0.5211872102	 0.090095
H	-2.1195376041	-2.6142371467	 2.7499258652	 0.12385
H	-2.5490353616	-0.9090255004	 2.2492744921	 0.118072
H	-3.6341334825	-1.7941921429	 0.3694589254	 0.229079
65.1483	82.5182	140.5985	169.6755	221.0441	264.2227	318.6946	371.5402	409.571	500.4267	627.9513	681.3102	764.3993	787.6389	840.1237	884.5255	900.9714	956.3307	964.7281	992.036	1050.4278	1069.049	1110.1678	1129.5422	1155.1385	1157.8949	1178.2432	1208.7701	1213.6316	1251.9557	1263.9375	1287.5902	1313.5737	1354.925	1405.939	1438.007	1450.1062	1513.3722	1875.5702	3002.394	3052.8662	3063.792	3103.7697	3110.4899	3134.6043	3195.7604	3489.4404	3772.3566
OC1C(CC1=O)C1CN1	O[C@H]1[C@@H](CC1=O)[C@H]1CN1	
InChI=1S/C6H9NO2/c8-5-1-3(6(5)9)4-2-7-4/h3-4,6-7,9H,1-2H2	InChI=1S/C6H9NO2/c8-5-1-3(6(5)9)4-2-7-4/h3-4,6-7,9H,1-2H2/t3-,4+,6-/m0/s1
