20
gdb 96070	2.57495	1.52973	1.10754	1.0071	74.5	-0.2453	0.0673	0.3125	1136.498	0.171782	-440.259671	-440.251053	-440.250109	-440.292542	33.391	
C	 0.0277563233	 1.4816553164	-0.0246258414	-0.459293
C	 0.0187705042	-0.0303421948	 0.0361166951	 0.299019
C	-1.1987835551	-0.7025028582	-0.6063487944	-0.157056
O	-1.7999539665	-1.7118108176	 0.1844123871	-0.235194
C	-0.8687379969	-2.6743095633	 0.62338133	-0.110119
C	 0.0997157525	-2.0720212289	 1.6477906215	 0.081073
O	 1.1102531467	-3.053262988	 1.8526804161	-0.429967
C	 0.6633020917	-0.7468374417	 1.1751017707	-0.082904
N	 1.3466425383	-0.6553172266	-0.1241834531	-0.365933
H	 0.9538069576	 1.8740543971	 0.4021948244	 0.128892
H	-0.035816489	 1.8302639217	-1.0621245213	 0.121226
H	-0.821758638	 1.9014862197	 0.5251027243	 0.11922
H	-1.9819506958	 0.0411728567	-0.7771584595	 0.113357
H	-0.9137713671	-1.115832142	-1.5903425036	 0.093614
H	-1.4339062333	-3.489993218	 1.0800326579	 0.120551
H	-0.2955287757	-3.0973356372	-0.2193423997	 0.093719
H	-0.4581158523	-1.8879234762	 2.5794682946	 0.075552
H	 1.7721023673	-2.6868550243	 2.4479260004	 0.28797
H	 1.1333805222	-0.1501984208	 1.9582570806	 0.079867
H	 1.275956386	-1.5472113138	-0.6112738099	 0.226406
99.9163	156.3824	220.3962	234.0514	265.8829	301.0237	359.4185	381.3002	400.4183	448.8033	483.7382	600.7072	648.233	744.196	827.7677	870.3816	921.2415	962.802	979.83	1023.1785	1032.047	1038.8089	1076.8118	1113.4363	1118.8362	1149.0626	1154.8807	1195.3227	1236.8905	1268.419	1288.5337	1327.4631	1341.6912	1353.0478	1380.7151	1397.5268	1416.8535	1431.3309	1460.0943	1489.1972	1491.5694	1496.6881	1503.6512	2945.0959	2962.7405	2980.6593	3028.9199	3086.0131	3090.3866	3092.0031	3103.4875	3123.5659	3480.7032	3817.6572
CC12COCC(O)C1N2	C[C@]12COC[C@@H](O)[C@H]1N2	
InChI=1S/C6H11NO2/c1-6-3-9-2-4(8)5(6)7-6/h4-5,7-8H,2-3H2,1H3	InChI=1S/C6H11NO2/c1-6-3-9-2-4(8)5(6)7-6/h4-5,7-8H,2-3H2,1H3/t4-,5-,6+/m1/s1
