19
gdb 62119	3.11499	0.82806	0.70326	2.9025	72.95	-0.2597	-0.0309	0.2288	1587.1992	0.155036	-460.131576	-460.12142	-460.120476	-460.168692	34.546	
C	-0.1833577442	 1.417670875	-0.1407499022	-0.408681
C	-0.02717386	-0.1008951225	-0.0077557198	 0.105172
O	-1.2809669718	-0.7623991254	 0.0703340853	-0.259984
C	-1.9570584211	-0.6348611542	 1.2935867498	-0.151396
C	-3.1676939501	-1.5537324636	 1.2606935551	 0.138848
O	-3.9404404814	-1.6660568722	 2.1739944441	-0.236405
C	 0.7336729815	-0.659501733	-1.1955859453	 0.079138
C	 0.3691802459	-1.9045921283	-1.8769001886	-0.174012
O	 0.0738876641	-0.6286279749	-2.4577766023	-0.235649
H	 0.7989661833	 1.8950319111	-0.212387238	 0.121582
H	-0.7500861298	 1.6481829353	-1.0465292666	 0.147835
H	-0.6981948945	 1.8496842782	 0.7215374612	 0.119387
H	 0.5610235529	-0.3323219234	 0.8976475354	 0.071914
H	-1.3216175268	-0.9228737474	 2.1485233167	 0.12164
H	-2.3091332637	 0.3907827717	 1.4847483198	 0.128811
H	-3.2746646221	-2.117532695	 0.3079738006	 0.09877
H	 1.7763797827	-0.3364099516	-1.2261464045	 0.093975
H	 1.1389487712	-2.4819439301	-2.3871084252	 0.112344
H	-0.4952900064	-2.4614882898	-1.5280674656	 0.126711
41.8987	52.8817	74.4366	95.403	125.247	218.0244	241.2663	262.4703	333.3014	439.8949	467.7568	521.1805	670.6564	739.0187	766.9709	861.9133	895.6535	957.3413	993.0575	1020.6663	1070.5208	1090.1226	1112.63	1127.0268	1138.7696	1159.2901	1173.0327	1192.362	1240.1469	1296.2499	1340.0317	1347.485	1388.6214	1400.5051	1414.7329	1437.8169	1481.2	1492.3613	1500.3474	1522.1156	1845.4035	2900.5102	2953.1768	2966.6667	3005.6589	3045.601	3088.1033	3098.698	3113.8296	3132.2931	3198.5628
CC(OCC=O)C1CO1	C[C@@H](OCC=O)[C@H]1CO1	
InChI=1S/C6H10O3/c1-5(6-4-9-6)8-3-2-7/h2,5-6H,3-4H2,1H3	InChI=1S/C6H10O3/c1-5(6-4-9-6)8-3-2-7/h2,5-6H,3-4H2,1H3/t5-,6-/m1/s1
