15
gdb 17597	4.36415	1.38553	1.14532	1.6006	63.84	-0.2488	-0.0913	0.1575	1031.2248	0.117206	-399.803402	-399.795075	-399.794131	-399.837189	28.627	
C	 0.4373231378	 1.4446153474	-0.1056188378	-0.475072
C	 0.4567372434	-0.0560084894	 0.0318209442	 0.30951
O	 0.8239147903	-0.6472945244	 1.0203105177	-0.271435
C	-0.0340093827	-0.8538967743	-1.197860176	 0.27198
O	-0.3662286694	-0.2714532807	-2.2113683928	-0.319089
C	-0.0725562903	-2.3326311018	-1.067245987	-0.104594
C	-1.3497399704	-2.9951439286	-1.5080567284	-0.215219
N	-0.148204492	-3.1116141269	-2.3148181933	-0.302426
H	 1.0495950936	 1.7491982755	-0.9602713276	 0.159862
H	-0.5793124874	 1.7873234926	-0.3240282868	 0.157043
H	 0.8052928629	 1.9035040315	 0.8119901227	 0.143835
H	 0.4964476596	-2.7651135306	-0.2546967711	 0.129062
H	-1.6608200856	-3.8974555474	-0.9901669131	 0.135374
H	-2.1499651437	-2.3446846079	-1.8504361344	 0.132642
H	-0.2058550262	-2.440452165	-3.0821413063	 0.248528
47.9584	80.2242	111.2687	182.5943	244.2407	304.5216	336.4954	428.7902	517.2393	590.1888	731.8296	773.0633	840.5864	867.9174	923.5337	975.1489	1002.8688	1038.605	1075.0627	1118.527	1134.4868	1178.2196	1248.6623	1289.0138	1316.8923	1382.6655	1404.768	1452.2362	1459.7788	1496.029	1771.23	1806.968	3049.8777	3111.0922	3113.6649	3163.6237	3204.1274	3212.9601	3460.3749
CC(=O)C(=O)C1CN1	CC(=O)C(=O)[C@H]1CN1	
InChI=1S/C5H7NO2/c1-3(7)5(8)4-2-6-4/h4,6H,2H2,1H3	InChI=1S/C5H7NO2/c1-3(7)5(8)4-2-6-4/h4,6H,2H2,1H3/t4-/m1/s1
