17
gdb 49711	3.16403	1.48799	1.45968	2.3806	67.33	-0.2525	-0.0337	0.2188	957.5767	0.137197	-458.962741	-458.955497	-458.954553	-458.994803	27.623	
O	-0.8123449744	 1.0223047525	-0.3749599551	-0.242689
C	 0.1682904247	 1.0117063162	 0.3257706902	 0.138351
C	 1.3342713707	 1.9552780747	 0.2057109245	-0.120709
C	 1.3214226719	 3.0194894237	-0.908343213	 0.070406
C	 0.1407513751	 3.9018684486	-0.4823110678	-0.095213
O	 0.2099443553	 3.8546445771	 0.9659054149	-0.281168
C	 1.3709573566	 3.0855971229	 1.2712159442	 0.055022
C	 2.6062120517	 3.862589562	 0.7925411265	-0.087422
O	 2.5298609337	 3.7460855792	-0.6447104498	-0.284006
H	 0.2794178736	 0.2559192675	 1.136732738	 0.084277
H	 2.2647266544	 1.3770409447	 0.2055651943	 0.105221
H	 1.3211516526	 2.684389289	-1.9435743512	 0.098983
H	 0.2819974506	 4.9297499739	-0.8314001916	 0.110985
H	-0.8263077334	 3.5143374032	-0.8108211112	 0.133593
H	 1.3547124671	 2.8110207259	 2.325711188	 0.093346
H	 2.5425107692	 4.9133791542	 1.0948704439	 0.117247
H	 3.5534074906	 3.4387004949	 1.148821025	 0.103777
67.5172	178.4526	210.4696	238.6123	352.1915	424.7705	450.59	629.1009	677.8207	740.8269	842.7672	860.0268	866.8744	904.6618	925.0863	939.9457	994.4459	1004.1488	1012.7576	1056.6239	1060.7294	1094.2663	1104.9247	1176.9002	1198.7728	1219.6259	1243.0486	1276.3796	1298.4313	1309.1612	1357.5702	1374.3722	1383.692	1429.2677	1505.5551	1513.9319	1822.3123	2870.2183	3021.952	3050.9049	3062.66	3074.8313	3114.1508	3130.5421	3150.6073
O=CC1C2COC1CO2	O=C[C@H]1[C@H]2CO[C@@H]1CO2	
InChI=1S/C6H8O3/c7-1-4-5-2-8-6(4)3-9-5/h1,4-6H,2-3H2	InChI=1S/C6H8O3/c7-1-4-5-2-8-6(4)3-9-5/h1,4-6H,2-3H2/t5-,6-/m1/s1
