19
gdb 29691	2.43492	1.52776	0.9547	0.6351	80.61	-0.1708	0.055	0.2258	1228.8104	0.158477	-419.237694	-419.227452	-419.226508	-419.272835	36.612	
C	 0.0194739482	 1.4448366456	-0.0317740196	-0.345604
N	 0.0300772142	-0.0012674682	-0.0194904056	-0.065035
C	 0.0418523909	-0.8161737488	-1.1213081033	 0.310981
C	 0.0452332505	-0.2780061898	-2.5138012022	-0.500884
C	 0.0496903097	-2.1285583026	-0.6831168387	-0.388919
C	 0.0431817605	-2.0969017447	 0.7339988813	 0.273263
O	 0.0469295743	-3.1447364438	 1.6179718177	-0.459522
C	 0.031038959	-0.7805221791	 1.1376679277	 0.141907
N	 0.0180990292	-0.1816987467	 2.4163692544	-0.613354
H	 0.9120993733	 1.8467488664	-0.5243693628	 0.125182
H	-0.864662152	 1.8323888204	-0.5501836726	 0.125417
H	 0.0018783014	 1.7831177764	 1.004636459	 0.160289
H	 0.9234664086	 0.3472593262	-2.721260024	 0.123774
H	 0.055677229	-1.1060912413	-3.2264612732	 0.129575
H	-0.8403946753	 0.333343769	-2.7310729138	 0.123796
H	 0.0594340845	-3.0033286071	-1.3176512269	 0.080408
H	 0.0527335287	-3.9620551171	 1.112635151	 0.292496
H	 0.8386355767	-0.4378771392	 2.9569603694	 0.242926
H	-0.7906701214	-0.4743786357	 2.9559427423	 0.243304
53.645	114.7743	148.1412	177.2166	188.1716	213.4772	267.9659	271.3776	273.3548	320.2736	330.3459	565.0502	589.4868	599.4866	632.9009	671.6274	722.5231	750.841	794.1779	893.615	1010.7936	1057.5873	1082.0949	1153.6302	1153.8493	1187.1184	1207.3761	1213.0208	1309.3117	1385.4324	1418.6929	1430.1413	1465.6365	1475.1808	1478.0802	1501.3915	1514.6939	1515.1637	1552.6303	1654.6922	1678.6981	3009.8941	3024.9393	3050.1064	3075.2274	3118.261	3149.4239	3226.7601	3489.8182	3546.1267	3849.1251
CN1C(C)=CC(O)=C1N	Cn1c(C)cc(O)c1N	
InChI=1S/C6H10N2O/c1-4-3-5(9)6(7)8(4)2/h3,9H,7H2,1-2H3	InChI=1S/C6H10N2O/c1-4-3-5(9)6(7)8(4)2/h3,9H,7H2,1-2H3
