19
gdb 86578	2.88003	1.15902	0.92389	4.6909	72.08	-0.2405	0.0163	0.2568	1283.5268	0.160304	-456.358448	-456.349335	-456.34839	-456.39258	33.878	
C	-0.2864116532	 1.4978408507	-0.0502416082	-0.414086
C	 0.0370456491	 0.0095079847	-0.0082349669	 0.049988
N	 1.2261300244	-0.4001156417	-0.8169088472	-0.354766
H	 1.9448128196	-2.2110277616	-0.9976378261	 0.301481
H	 1.5102775032	 0.2649547422	-1.5294873697	 0.227782
C	 2.0905999811	-0.4571816586	 0.3856110261	-0.153699
C	 0.7842403704	-0.4818367311	 1.2692630211	 0.024075
N	 0.6485076716	 0.2849769657	 2.4765111761	-0.51561
C	 2.9640257818	-1.6977357922	 0.4671255321	 0.41775
O	 2.6522925314	-2.6226942859	-0.4548972742	-0.373049
O	 3.8074174944	-1.8602234933	 1.3096990551	-0.350899
H	 0.5953969233	 2.1155217782	 0.1558778729	 0.112079
H	-0.6661384695	 1.7788191988	-1.0382932233	 0.123164
H	-1.0530970498	 1.7428876562	 0.6902977123	 0.143174
H	-0.8590533668	-0.5656438752	-0.2646754261	 0.086057
H	 2.6996943171	 0.4311721967	 0.5828902164	 0.090704
H	 0.5108455056	-1.5165528833	 1.4910711432	 0.107063
H	 1.1096412082	-0.1804614384	 3.2508720371	 0.247316
H	 1.070393918	 1.203303028	 2.3879021592	 0.231476
66.1112	104.7406	148.4862	221.1623	239.8098	249.7012	284.5933	342.9225	393.7752	486.1814	542.4042	640.922	697.2317	720.4396	799.6882	813.1598	839.3569	873.2035	923.4217	939.7127	984.9578	1026.6738	1041.0907	1078.157	1103.9961	1168.7746	1183.8926	1231.2606	1264.772	1268.4729	1294.1638	1328.7589	1346.0566	1398.0663	1406.4068	1423.1468	1439.6208	1495.0927	1496.6139	1666.9239	1864.0835	3029.5699	3041.6454	3055.8674	3082.3434	3096.0655	3116.2501	3488.9888	3510.1001	3518.0477	3588.272
CC1[NH2+]C(C1N)C([O-])=O	C[C@H]1N[C@@H]([C@H]1N)C(=O)O	
InChI=1S/C5H10N2O2/c1-2-3(6)4(7-2)5(8)9/h2-4,7H,6H2,1H3,(H,8,9)	InChI=1S/C5H10N2O2/c1-2-3(6)4(7-2)5(8)9/h2-4,7H,6H2,1H3,(H,8,9)/t2-,3+,4+/m1/s1
