16
gdb 102429	3.91987	0.65659	0.57613	5.1356	80.63	-0.2707	-0.0436	0.2271	1795.4614	0.123232	-437.861623	-437.85194	-437.850996	-437.896929	33.834	
O	 0.1305937953	 1.4095108262	 0.2114069792	-0.415687
C	 0.0774900984	 0.0270654696	-0.0221912824	-0.053756
C	-1.3834164245	-0.5157141202	-0.0158542379	-0.233766
C	-2.1611853474	-0.0990670456	-1.2802878897	-0.084095
O	-2.1530084047	 1.3231889452	-1.3466039188	-0.42114
C	-1.4003555039	-1.9626239161	 0.111097996	 0.062792
C	-1.3814163204	-3.1681195564	 0.1990586501	 0.084924
C	-1.3702296191	-4.5294137735	 0.3005343693	 0.201637
N	-1.3620931668	-5.6882203213	 0.3837700142	-0.334728
H	-0.4707134477	 1.8207490766	-0.4238901451	 0.294498
H	 0.5493660606	-0.2604414695	-0.9765824855	 0.096251
H	 0.6413303211	-0.4563313994	 0.7805938965	 0.125198
H	-1.8829929396	-0.0730593956	 0.8563566538	 0.141619
H	-1.6737226481	-0.5411966207	-2.1609319917	 0.11451
H	-3.1879838703	-0.4848266325	-1.2289523002	 0.118589
H	-2.5346908028	 1.5969270932	-2.1858037777	 0.303152
68.6732	78.1069	111.4002	177.9398	215.4956	225.9417	255.0635	321.3308	377.1145	402.5321	478.025	500.5846	557.1522	580.4418	589.6788	810.5536	851.3489	918.404	1048.0536	1064.8703	1101.5031	1108.884	1177.6383	1213.3385	1238.271	1284.21	1295.5537	1329.8242	1383.7274	1455.2172	1462.0588	1506.334	1522.8299	2263.4127	2398.4026	2967.752	2998.5477	3027.4722	3045.7903	3088.0631	3754.3339	3836.8265
OCC(CO)C#CC#N	OCC(CO)C#CC#N	
InChI=1S/C6H7NO2/c7-3-1-2-6(4-8)5-9/h6,8-9H,4-5H2	InChI=1S/C6H7NO2/c7-3-1-2-6(4-8)5-9/h6,8-9H,4-5H2
