20
gdb 79997	2.72006	1.77386	1.55506	1.2858	83.28	-0.2085	0.0068	0.2153	976.4275	0.172054	-365.914187	-365.90692	-365.905975	-365.945181	30.895	
C	-0.1168518329	 1.6495911383	 0.0367193571	-0.442639
C	 0.0643245642	 0.1413659605	 0.0713302584	 0.033165
C	 1.2351161232	-0.5901730313	-0.6515507396	-0.095875
C	 2.4479059124	 0.0830104046	 0.0494615503	-0.052591
C	 2.1192420605	 0.0763176282	 1.3487711768	-0.176869
C	 0.7681468807	-0.6328303516	 1.2778523247	 0.279044
C	-0.1365543824	-1.5748359398	 2.0808354794	-0.338626
C	-0.168566496	-2.4360079445	 0.7679842434	-0.193225
N	 1.1092449686	-1.7574590594	 0.3256681857	-0.123128
H	 0.8042841842	 2.1827314805	 0.2819306586	 0.118864
H	-0.4418861865	 1.9728608532	-0.9592143133	 0.112686
H	-0.8921815083	 1.9611675871	 0.7462506632	 0.111501
H	-0.8936828475	-0.3264365588	-0.1693367571	 0.069342
H	 1.2888480692	-0.7627942902	-1.7282762667	 0.059985
H	 3.3315293473	 0.4641566096	-0.4412907736	 0.103265
H	 2.6576611815	 0.43899994	 2.211572383	 0.107462
H	 0.3847507707	-2.0847372468	 2.8944116284	 0.117278
H	-1.0836986821	-1.171351936	 2.444736784	 0.101578
H	-0.0162044316	-3.511099376	 0.8854143531	 0.105307
H	-1.0676635051	-2.2769975276	 0.1634557642	 0.103476
196.9883	219.6254	262.3529	304.7361	342.7899	418.5146	532.4534	553.1913	592.3851	653.1805	700.9984	730.5305	754.9984	792.0898	830.1771	859.6545	886.7643	891.5218	909.7765	937.9815	992.8029	1001.0582	1038.0646	1062.6778	1076.7627	1115.6656	1145.8562	1157.0945	1191.9436	1200.3629	1215.7332	1234.4148	1242.6067	1263.8869	1283.592	1330.9276	1399.2416	1410.9087	1477.7672	1490.9771	1502.1115	1516.4132	1587.4531	3027.3581	3037.0081	3067.5563	3074.1806	3082.8209	3095.6646	3097.1721	3123.368	3127.3618	3227.7124	3253.915
CC1C2C=CC11CCN21	C[C@H]1[C@H]2C=C[C@]31CCN23	
InChI=1S/C8H11N/c1-6-7-2-3-8(6)4-5-9(7)8/h2-3,6-7H,4-5H2,1H3	InChI=1S/C8H11N/c1-6-7-2-3-8(6)4-5-9(7)8/h2-3,6-7H,4-5H2,1H3/t6-,7+,8+/m0/s1
