19
gdb 35544	2.51645	1.56544	1.42165	1.5188	78.99	-0.2484	0.0375	0.2859	1028.0581	0.160018	-385.849674	-385.841731	-385.840787	-385.882262	31.215	
C	 0.6357005681	-0.9845561312	 0.3105536312	-0.494274
C	 0.2863870806	 0.1602085912	 0.1933698024	 0.365942
C	-0.1717397153	 1.5458923194	 0.0232447127	-0.088111
C	-0.8372518599	 2.1349892561	 1.2955118116	-0.252723
C	 0.3139973999	 2.854032091	 2.0047470974	-0.027077
C	 1.3315949448	 1.9861011838	 2.8069604177	-0.237723
C	 2.4153510438	 2.2463646523	 1.7197991201	-0.237592
C	 1.3818915732	 3.0576250134	 0.8870961394	 0.115771
O	 0.8953510671	 2.4408310572	-0.2972474858	-0.252005
H	 0.9510427048	-1.9937041671	 0.411928246	 0.199929
H	-0.8590186856	 1.5711959181	-0.8297272504	 0.112308
H	-1.6022301479	 2.8546323975	 0.989623825	 0.1076
H	-1.3137189133	 1.3647768195	 1.9056470051	 0.116742
H	-0.0209488792	 3.7542184146	 2.5222684853	 0.070938
H	 1.5716572508	 2.3795789779	 3.7971603565	 0.09808
H	 1.0389723386	 0.9393095873	 2.9135901539	 0.110601
H	 3.2617186285	 2.8463614736	 2.0639034508	 0.096897
H	 2.7957113322	 1.3624031217	 1.2057475938	 0.118761
H	 1.6766298589	 4.0745348837	 0.6170878574	 0.075938
82.6587	102.7122	175.886	246.1627	340.8779	395.2974	460.3076	544.7828	620.8032	622.4557	662.563	731.2016	739.3861	753.742	808.2699	844.8453	882.3638	913.1148	948.5695	960.671	978.3311	1004.1473	1048.3561	1072.7705	1116.8171	1132.1281	1198.1981	1211.1745	1222.4216	1252.1961	1263.3772	1276.7053	1286.2369	1323.6146	1337.116	1362.0319	1373.7342	1465.0974	1482.7216	1490.4208	2226.988	3043.1314	3061.1525	3063.6111	3068.2425	3077.2487	3095.5802	3114.7713	3118.705	3134.5406	3501.7415
C#CC1CC2CCC2O1	C#C[C@H]1C[C@H]2CC[C@H]2O1	
InChI=1S/C8H10O/c1-2-7-5-6-3-4-8(6)9-7/h1,6-8H,3-5H2	InChI=1S/C8H10O/c1-2-7-5-6-3-4-8(6)9-7/h1,6-8H,3-5H2/t6-,7+,8-/m1/s1
