16
gdb 129599	3.11809	1.34391	1.01338	3.4435	73.19	-0.2056	0.0109	0.2164	1146.4448	0.125289	-434.021068	-434.013183	-434.012239	-434.054038	29.682	
N	-0.0134537309	 1.3616062479	 0.0652216052	-0.594186
C	-0.0157454747	-0.0073707525	 0.0294380954	 0.4212
C	-1.0487090399	-0.9061069516	 0.1245374421	 0.07536
C	-0.3758384014	-2.1583918543	 0.0980836426	-0.021403
N	 0.9249309903	-2.040861011	-0.010764982	-0.167935
O	 1.1555936552	-0.6415462904	-0.0482831733	-0.213253
N	-2.4058305888	-0.5217556226	 0.2021530084	-0.197987
C	-3.433830392	-1.459221134	-0.254652094	-0.226225
C	-3.2699894371	-1.1753319624	 1.1954453563	-0.223636
H	 0.7322993817	 1.8026820402	-0.4540878151	 0.265503
H	-0.9269368468	 1.7510728674	-0.1250964418	 0.26902
H	-0.7943267467	-3.1550392	 0.1453104979	 0.122081
H	-4.2531379208	-1.0137520968	-0.811995193	 0.122268
H	-3.1114053846	-2.4307289648	-0.6210508801	 0.122636
H	-2.8234711633	-1.9490732124	 1.8149348958	 0.123517
H	-3.9674240602	-0.5199659527	 1.7091631155	 0.12304
48.2965	157.3309	178.0217	267.7436	281.1577	338.0732	464.7086	503.7768	560.3849	608.5688	647.0582	734.1152	751.9885	814.5845	857.4508	879.4631	909.7688	912.397	953.1217	1035.016	1069.8494	1109.7322	1122.0676	1160.9397	1178.5227	1202.4348	1213.2755	1293.7965	1377.6109	1442.2889	1494.2124	1518.1514	1541.1572	1620.5297	1694.4153	3105.6674	3109.829	3186.6717	3202.8785	3228.2775	3555.9746	3664.2838
NC1=C(C=NO1)N1CC1	Nc1c(cno1)N1CC1	
InChI=1S/C5H7N3O/c6-5-4(3-7-9-5)8-1-2-8/h3H,1-2,6H2	InChI=1S/C5H7N3O/c6-5-4(3-7-9-5)8-1-2-8/h3H,1-2,6H2
