16
gdb 10622	2.49895	1.82257	1.2708	4.2482	66.28	-0.2722	0.0125	0.2848	988.6027	0.130009	-379.905132	-379.896561	-379.895617	-379.938517	30.492	
C	-0.0123926752	 1.4966707146	-0.1235084193	-0.40798
C	 0.0994352585	 0.0036022519	 0.0651945995	-0.029371
N	 1.4381727023	-0.5927092965	 0.0929475368	-0.365402
C	 0.6026871487	-0.6599791537	 1.3191779184	 0.114424
C	 1.1938263535	 0.0866336834	 2.5080358079	-0.11894
O	 2.3756119913	-0.5369823618	 2.9575649813	-0.408939
C	 0.0137795258	-1.9426751814	 1.638814114	 0.254675
N	-0.4590204698	-2.9693549208	 1.8850003281	-0.336235
H	 0.8235454432	 2.0284357196	 0.333387304	 0.137287
H	-0.0092914279	 1.7304579312	-1.1931286438	 0.134523
H	-0.9484194415	 1.8734026418	 0.3006481912	 0.133465
H	-0.6706804824	-0.5675643199	-0.4507619285	 0.112792
H	 1.4515099527	-1.4925820221	-0.3802457493	 0.254769
H	 1.367503821	 1.1322311622	 2.2247976122	 0.10064
H	 0.4919364845	 0.0739045123	 3.3467922012	 0.129552
H	 2.9790231953	-0.5555435208	 2.2048536262	 0.294741
56.8711	144.5506	148.6547	171.4033	215.9083	275.6275	376.3047	402.7634	442.4551	506.5294	576.8431	597.0128	705.9492	812.1243	875.8282	936.8564	977.0926	1031.3364	1056.9923	1086.784	1108.2547	1127.9742	1206.2374	1245.2481	1301.8071	1331.3916	1382.7036	1408.4906	1426.5296	1453.3535	1488.2455	1492.0734	1502.8932	2348.7199	3026.9546	3045.74	3096.475	3107.0884	3121.6123	3145.1333	3512.3203	3790.034
CC1NC1(CO)C#N	C[C@H]1N[C@]1(CO)C#N	
InChI=1S/C5H8N2O/c1-4-5(2-6,3-8)7-4/h4,7-8H,3H2,1H3	InChI=1S/C5H8N2O/c1-4-5(2-6,3-8)7-4/h4,7-8H,3H2,1H3/t4-,5+/m1/s1
