17
gdb 66274	2.06369	1.64727	1.43263	2.2561	74.74	-0.248	0.0091	0.2571	1028.2724	0.136232	-417.981854	-417.973147	-417.972202	-418.014951	32.914	
N	 0.193929785	 1.5876939939	 0.2831038876	-0.551826
C	-0.0024069672	 0.1745552059	-0.0274340643	 0.005128
C	-1.4827364673	-0.1777431595	-0.3080830101	-0.245861
C	-1.3534441168	-1.4243108956	-1.1822664312	-0.096938
O	-0.1443676623	-1.2268077708	-1.9475071335	-0.240111
C	 0.6492379644	-0.3031872158	-1.3443546835	 0.379064
N	 1.7399797248	 0.143491035	-1.7903650506	-0.543245
C	 0.5211857657	-0.6503684656	 1.0665264865	 0.387107
C	 0.9388726473	-1.3490125293	 1.9501627731	-0.500407
H	 1.1921578836	 1.7438194249	 0.4044714365	 0.249389
H	-0.0608552091	 2.1312108077	-0.5390859646	 0.230468
H	-2.0594591465	-0.3413363478	 0.6018149333	 0.13119
H	-1.9376450521	 0.6433569071	-0.8721706663	 0.113371
H	-1.2445858983	-2.3332892042	-0.5806316991	 0.12823
H	-2.1735262059	-1.5593640903	-1.8899845349	 0.123799
H	 1.9820554156	-0.2934034005	-2.6809259646	 0.225996
H	 1.321830759	-1.9547816351	 2.7341947558	 0.204647
96.971	136.9805	163.8167	205.8549	232.4334	278.7714	345.5638	416.2448	478.174	547.5596	625.4906	631.1101	660.8453	665.8074	680.8612	725.5011	837.0483	885.1432	919.235	950.9955	979.3629	999.1959	1042.2432	1085.7876	1121.4533	1192.396	1232.3021	1244.634	1275.2307	1330.4799	1351.5412	1409.282	1483.0912	1520.3109	1661.5581	1776.7715	2237.1945	3049.0804	3057.6803	3115.605	3143.3902	3475.997	3478.4798	3500.8299	3550.5922
NC1(CCOC1=N)C#C	N[C@]1(CCO[C]1[NH])C#C	
InChI=1S/C6H8N2O/c1-2-6(8)3-4-9-5(6)7/h1,7H,3-4,8H2	InChI=1S/C6H8N2O/c1-2-6(8)3-4-9-5(6)7/h1,7H,3-4,8H2/t6-/m0/s1
