17
gdb 34101	3.39487	1.52564	1.30776	4.9917	75.22	-0.2415	0.0187	0.2602	986.9325	0.13913	-380.850412	-380.84353	-380.842586	-380.88155	27.804	
N	 0.0437968408	-1.1256803412	 0.0429301184	-0.341603
C	 0.015026602	 0.0291875085	 0.0184754065	 0.225302
C	-0.060194247	 1.4837949723	-0.008299471	 0.191404
C	-1.0135198064	 2.1038456951	 1.0315080007	-0.255514
C	-1.0852547756	 3.5955388566	 0.6030736328	-0.25813
C	-0.5759477634	 3.5985220646	-0.8380810699	-0.060822
C	 0.820191945	 3.0413013419	-1.0920754505	-0.015564
N	 1.2791115418	 2.1647592741	-0.0104704418	-0.343111
C	-0.3926540942	 2.193741029	-1.3553498203	-0.138208
H	-1.9940137145	 1.6215684155	 0.9640993823	 0.124286
H	-0.6428896699	 1.9604265666	 2.0511098213	 0.116994
H	-2.1083854834	 3.9754520273	 0.661734216	 0.115265
H	-0.4721477361	 4.2323902424	 1.2496792903	 0.107181
H	-0.9200510148	 4.3569640266	-1.5326494862	 0.096593
H	 1.5241405115	 3.4874143612	-1.7846920578	 0.10515
H	 1.4879661065	 2.6374905265	 0.8689016762	 0.216983
H	-0.7856215824	 1.7465307728	-2.2558887868	 0.113795
151.7753	153.7989	234.6204	373.5433	448.7783	493.5288	532.2836	568.8955	658.5229	718.0387	749.1843	793.3412	815.9671	853.9722	884.4532	928.5208	970.6914	991.7488	1013.6741	1031.9408	1039.9902	1052.8991	1103.0012	1106.8053	1133.5081	1174.7155	1216.4663	1222.1507	1258.2164	1299.7554	1308.6121	1345.8912	1370.8754	1391.2622	1483.9883	1506.1653	2360.8847	3045.6638	3052.6392	3088.2798	3104.1546	3175.3362	3183.8455	3232.9976	3445.4191
N#CC12CCC3C(N1)C23	N#C[C@@]12CC[C@H]3[C@@H](N1)[C@@H]23	
InChI=1S/C7H8N2/c8-3-7-2-1-4-5(7)6(4)9-7/h4-6,9H,1-2H2	InChI=1S/C7H8N2/c8-3-7-2-1-4-5(7)6(4)9-7/h4-6,9H,1-2H2/t4-,5+,6-,7-/m1/s1
