18
gdb 7659	3.13617	2.14919	1.51103	1.6731	68.26	-0.2417	0.0602	0.3019	877.0129	0.151896	-384.864244	-384.856206	-384.855262	-384.895942	31.13	
C	-0.111588906	 1.5096341456	 0.0493329995	-0.454492
C	-0.0463710556	-0.017177824	-0.0017049656	 0.352272
C	-1.4119082353	-0.5817705338	-0.3908990854	-0.488159
C	 1.2752125155	-0.6031400954	-0.6116287762	-0.057786
O	 2.0218485203	-0.0481960196	 0.5388931111	-0.305993
C	 0.8174990005	-0.6765436414	 1.1338330543	-0.032859
C	 1.1680681408	-1.9042589932	 0.2587708965	 0.128887
O	 0.234944927	-2.9294484493	 0.0636822863	-0.421972
H	 0.8478211876	 1.9441031723	 0.3285879329	 0.135656
H	-0.4085229663	 1.9095230101	-0.9269739622	 0.109044
H	-0.8692136425	 1.8328993973	 0.7724266791	 0.109757
H	-1.718266724	-0.1632887135	-1.3568881449	 0.109787
H	-1.4301825308	-1.66591631	-0.4601748381	 0.148266
H	-2.1635824066	-0.2674812589	 0.3425600232	 0.112593
H	 1.7096631522	-0.4548873887	-1.602689647	 0.083424
H	 0.7062744587	-0.61259594	 2.217952383	 0.08812
H	 2.1625498549	-2.2916312511	 0.5015048247	 0.091685
H	 0.6610393294	-3.6266921566	-0.4436783112	 0.291768
157.5474	172.2872	211.6866	226.2603	271.9697	358.0993	372.0244	394.9581	401.5981	585.8484	643.2917	666.8676	731.9728	806.8921	867.1563	885.4732	899.0984	952.8616	967.8952	1010.5459	1075.9583	1101.6338	1136.0499	1149.6349	1179.6044	1190.6866	1220.0561	1229.8567	1265.8884	1295.4515	1330.984	1394.857	1416.4606	1440.795	1483.2618	1497.3046	1504.2825	1521.2693	3028.7351	3034.8363	3061.5517	3079.1323	3086.432	3094.4665	3105.2294	3150.8529	3186.3457	3828.8274
CC1(C)C2OC1C2O	CC1(C)[C@H]2O[C@@H]1[C@H]2O	
InChI=1S/C6H10O2/c1-6(2)4-3(7)5(6)8-4/h3-5,7H,1-2H3	InChI=1S/C6H10O2/c1-6(2)4-3(7)5(6)8-4/h3-5,7H,1-2H3/t3-,4-,5+
