20
gdb 84138	2.92571	1.16735	0.92146	4.2472	85.83	-0.2472	0.0118	0.259	1312.8675	0.171123	-366.056671	-366.04747	-366.046526	-366.090559	34.326	
C	 0.420933493	 1.5997866437	-0.1806897701	-0.393947
C	 0.051416453	 0.1184856316	 0.0003494112	-0.042703
C	 0.4873579528	-0.7267048655	-1.1746633068	-0.16905
C	 1.5414703928	-1.5026364322	-0.9162694748	 0.321325
C	 2.2712349743	-2.4002615085	-1.8640848641	-0.493881
C	 1.9927900411	-1.3457745557	 0.5214915222	-0.311219
C	 0.7917677366	-0.6081495413	 1.1796169082	-0.160696
C	 1.1637533813	 0.2514991354	 2.2976980953	 0.272411
N	 1.4603324983	 0.9329343078	 3.1835815303	-0.339588
H	 1.4995686774	 1.7251736384	-0.3188290981	 0.123519
H	-0.0779595404	 2.0054592344	-1.0663531977	 0.115456
H	 0.1170529793	 2.1950321507	 0.6849852605	 0.137621
H	-1.0307564233	 0.0569035177	 0.1654492853	 0.087659
H	 0.0094728625	-0.638563364	-2.1451334664	 0.092051
H	 1.8266020587	-2.3788256649	-2.862409599	 0.127783
H	 3.3249064205	-2.1064794823	-1.9536106874	 0.130939
H	 2.2681600421	-3.4387493801	-1.5096366552	 0.128469
H	 2.1991387788	-2.300188115	 1.0176973182	 0.11695
H	 2.9174884826	-0.7573898872	 0.5833433072	 0.127625
H	 0.1092285185	-1.3700242031	 1.5711564611	 0.129274
76.8546	137.8689	144.1165	188.8821	215.7906	246.7127	311.2635	359.4145	394.4329	468.1046	493.3061	565.0448	605.7011	687.588	761.4665	850.3501	876.0665	911.7279	972.2926	979.7782	1009.6481	1040.5828	1050.2292	1073.1822	1099.4861	1117.3799	1176.9892	1202.8497	1279.9398	1285.3965	1305.8076	1335.3618	1351.912	1357.4866	1411.0501	1415.861	1478.755	1487.5918	1491.307	1494.3926	1498.5886	1725.4633	2353.4374	3018.4113	3026.027	3029.4163	3038.4647	3050.9559	3064.8952	3071.6616	3108.5744	3114.66	3117.8016	3184.0734
CC1C=C(C)CC1C#N	C[C@H]1C=C(C)C[C@H]1C#N	
InChI=1S/C8H11N/c1-6-3-7(2)8(4-6)5-9/h3,7-8H,4H2,1-2H3	InChI=1S/C8H11N/c1-6-3-7(2)8(4-6)5-9/h3,7-8H,4H2,1-2H3/t7-,8-/m0/s1
