12
gdb 5163	7.99309	1.25911	1.11803	2.665	59.08	-0.2431	-0.0102	0.2329	982.6319	0.084608	-414.672367	-414.665657	-414.664713	-414.704451	23.172	
N	 0.0585123853	 1.2165031293	 0.3206419284	-0.412988
C	-0.0519229309	 0.0193994941	-0.0365401709	 0.113349
O	-1.0557222097	-0.7381300074	 0.519375805	-0.210984
C	-1.0949965498	-2.0462545425	 0.2216416497	 0.393829
C	-2.0995209267	-2.8765761721	-0.1397637522	-0.205573
N	-1.5898760667	-4.1694022142	-0.2226288838	-0.246848
C	-0.3423023711	-4.04956965	 0.0786188477	 0.082785
O	 0.0487922074	-2.7776975399	 0.3735550351	-0.179615
H	 0.8257938155	 1.66405032	-0.1766694003	 0.244819
H	 0.5527280598	-0.5379783481	-0.7574285991	 0.122165
H	-3.1311916427	-2.6417035716	-0.3388282783	 0.140681
H	 0.4222972998	-4.8084638576	 0.1204340887	 0.158381
48.5688	91.6678	156.037	357.5615	453.0582	481.7103	665.4211	678.9928	796.549	812.9034	828.8562	842.4373	931.0906	972.0669	1036.7433	1041.3845	1112.282	1119.0727	1239.413	1257.6351	1286.5428	1359.5697	1411.5656	1558.4546	1656.2171	1761.8971	3088.9877	3281.5762	3285.2947	3524.9981
N=COC1=CN=CO1	[NH][CH]Oc1cnco1	
InChI=1S/C4H4N2O2/c5-2-7-4-1-6-3-8-4/h1-3,5H	InChI=1S/C4H4N2O2/c5-2-7-4-1-6-3-8-4/h1-3,5H
