17
gdb 51419	4.82309	0.96406	0.94992	3.7618	75.26	-0.2455	-0.004	0.2415	1256.4807	0.136526	-421.81102	-421.80355	-421.802605	-421.84401	28.43	
O	-0.1249909237	 0.0219535152	-0.0520388355	-0.274429
C	-0.0711739041	 1.2143499038	-0.054166022	 0.158603
O	 1.0712760499	 1.8924819823	 0.1706019046	-0.208008
C	 1.0348836281	 3.3130812328	 0.1475143885	 0.181374
C	 1.8003493201	 3.9901814191	 1.3432729802	-0.107467
C	 3.1106030711	 3.6231211742	 0.5650876591	-0.218906
C	 2.2086010425	 3.9680007817	-0.669624017	-0.107473
C	 1.876936732	 5.4333747712	-0.3883348264	-0.089623
C	 1.6107507887	 5.4478370051	 0.9240505305	-0.089627
H	-0.9361747802	 1.880710945	-0.2372603588	 0.080613
H	 0.0214383662	 3.6703214399	-0.0619779119	 0.085328
H	 1.6217505759	 3.6988890988	 2.3770527771	 0.075374
H	 3.9803858159	 4.2604310982	 0.7344727616	 0.09909
H	 3.368879608	 2.5644213336	 0.6291384751	 0.124021
H	 2.4456017296	 3.6541431222	-1.6848953587	 0.07537
H	 1.8355988128	 6.2315117277	-1.1155088811	 0.10788
H	 1.2928162772	 6.2610049291	 1.5605945547	 0.107881
35.0444	141.3598	155.2803	344.0864	355.7893	392.4366	495.0975	540.356	693.145	717.5838	734.5315	839.7507	846.2308	910.3057	920.1717	922.9441	946.6168	954.9368	1003.8098	1044.1314	1054.3772	1069.6285	1084.2979	1116.3787	1141.8163	1189.4413	1206.8116	1227.2245	1232.3822	1249.8189	1263.496	1330.5906	1373.1915	1439.0048	1497.7489	1617.7348	1865.4948	2952.3974	3059.9476	3075.3477	3133.8151	3135.593	3145.1497	3223.5596	3249.3127
O=COC1C2CC1C=C2	O=CO[C@H]1[C@H]2C[C@@H]1C=C2	
InChI=1S/C7H8O2/c8-4-9-7-5-1-2-6(7)3-5/h1-2,4-7H,3H2	InChI=1S/C7H8O2/c8-4-9-7-5-1-2-6(7)3-5/h1-2,4-7H,3H2/t5-,6+,7+
