17
gdb 34365	2.73336	1.63216	1.30407	2.4763	78.84	-0.2196	0.0217	0.2413	1009.6082	0.136788	-380.834334	-380.826505	-380.825561	-380.866648	30.598	
C	 0.0911297036	-1.1867817578	-0.3444168953	-0.418319
C	 0.0375276524	-0.0073375409	-0.1151630871	 0.249823
C	-0.0119517715	 1.4210421075	 0.118140119	 0.128027
C	-0.4639761137	 2.2934693376	-1.1071343382	-0.270961
C	 0.9424058838	 2.961928699	-1.1663791419	-0.209055
C	 1.3450655637	 2.2522026035	 0.1492418645	-0.028341
N	 1.2685286709	 3.1064531613	 1.3372342114	-0.254739
C	 0.176970372	 2.8099528196	 1.931456626	 0.056582
N	-0.5834551242	 1.7725692142	 1.4207520415	-0.346523
H	 0.1404852462	-2.2305147643	-0.5337172569	 0.193451
H	-0.7529067857	 1.7185034297	-1.9882252053	 0.114406
H	-1.2779256424	 2.9757594818	-0.8493620806	 0.101646
H	 1.5343114482	 2.6453210738	-2.0285586143	 0.108102
H	 0.9592709046	 4.0515057114	-1.1047036864	 0.112748
H	 2.2781616564	 1.6849337582	 0.1359691479	 0.091615
H	-0.156555176	 3.2984753408	 2.8432492163	 0.126454
H	-1.5823731785	 1.7476536848	 1.5599400495	 0.245085
74.6441	146.187	176.2472	289.2697	367.6913	410.4595	482.7024	502.4265	546.825	606.3743	612.4559	648.3517	673.8116	740.5327	818.7083	858.7136	881.9955	948.957	957.2607	980.3357	1009.2847	1039.5101	1102.4692	1116.2706	1129.6389	1196.2958	1216.1846	1254.0668	1273.9479	1284.467	1311.7867	1346.3166	1399.9816	1469.1422	1484.1919	1677.8613	2232.8786	3065.5827	3069.0139	3086.3889	3118.6032	3135.6662	3179.3088	3501.6566	3618.6964
C#CC12CCC1N=CN2	C#C[C@]12CC[C@H]1N=CN2	
InChI=1S/C7H8N2/c1-2-7-4-3-6(7)8-5-9-7/h1,5-6H,3-4H2,(H,8,9)	InChI=1S/C7H8N2/c1-2-7-4-3-6(7)8-5-9-7/h1,5-6H,3-4H2,(H,8,9)/t6-,7+/m1/s1
