17
gdb 87336	1.88412	1.36899	0.90153	3.6108	76.17	-0.2493	-0.0254	0.2238	1306.1879	0.131034	-421.779997	-421.770147	-421.769202	-421.815554	34.78	
C	 0.0858654264	 1.5500241949	-0.0580627021	-0.430888
C	 0.065607534	 0.0512782775	 0.0886347611	 0.040323
O	 1.3096297098	-0.6458884555	 0.0300439908	-0.277177
C	 0.5682510936	-0.7035781965	 1.2666407418	 0.147239
C	 1.2276225265	-0.0276864246	 2.4582253781	-0.376798
C	 2.4680379765	-0.7706158703	 2.9337955104	 0.173688
O	 3.4485484569	-0.2200862498	 3.359552	-0.238157
C	-0.0346868253	-1.986682673	 1.5587788924	 0.302599
C	-0.5394854382	-3.0430803397	 1.8320678993	-0.427101
H	 0.9150605001	 2.0076093885	 0.483504926	 0.137542
H	 0.1924965874	 1.8109019909	-1.1160342422	 0.139443
H	-0.8551091163	 1.9809830877	 0.2994920363	 0.131473
H	-0.7320287836	-0.4452739658	-0.4670147834	 0.102728
H	 1.511934887	 1.0028632107	 2.2444271947	 0.132969
H	 0.5132496898	-0.0173242712	 3.2930935098	 0.14026
H	 2.4004510321	-1.8787394886	 2.8797823327	 0.096383
H	-0.9840138566	-3.9803387654	 2.0614862843	 0.205474
51.0449	73.7527	133.8588	137.6274	162.4613	184.7709	274.7188	349.8405	389.0694	461.682	490.8617	543.0375	577.0976	630.2409	668.2877	694.4112	774.2767	802.2592	910.8268	969.9682	998.0748	1056.4924	1058.7771	1123.6154	1162.6398	1209.7733	1249.8836	1288.8646	1344.5165	1408.337	1427.169	1440.6482	1449.4525	1485.2622	1502.6187	1837.9403	2234.7425	2904.265	3029.9933	3044.3414	3094.5789	3105.7202	3133.7359	3146.802	3499.1067
CC1OC1(CC=O)C#C	C[C@H]1O[C@]1(CC=O)C#C	
InChI=1S/C7H8O2/c1-3-7(4-5-8)6(2)9-7/h1,5-6H,4H2,2H3	InChI=1S/C7H8O2/c1-3-7(4-5-8)6(2)9-7/h1,5-6H,4H2,2H3/t6-,7+/m1/s1
