25
gdb 101252	3.09211	0.86948	0.80711	1.3801	90.02	-0.2523	0.075	0.3273	1612.7556	0.226086	-389.491381	-389.480062	-389.479117	-389.527597	42.033	
C	 0.053270843	 1.5571866151	 0.0854662785	-0.384446
C	-0.0355674811	 0.0319199422	 0.1641571414	-0.179087
C	-1.4447877052	-0.5081440468	-0.1218190048	 0.115878
O	-1.9109267768	-0.0910716438	-1.4092301049	-0.436195
C	-1.5081698503	-2.0133101548	 0.0323609284	-0.049703
C	-1.8705518724	-2.6589878269	 1.3537958021	-0.338278
C	-2.8053047907	-2.7817529898	 0.1717308888	 0.335797
C	-4.1290216048	-2.0393669125	 0.2024364932	-0.447953
C	-2.8801642204	-4.1284707223	-0.5252375407	-0.450245
H	 1.0794547709	 1.9045795641	 0.2391204989	 0.106344
H	-0.2906049664	 1.9114852658	-0.8897636448	 0.127666
H	-0.5760787606	 2.0275526652	 0.8494138786	 0.111664
H	 0.6627200535	-0.4217045784	-0.5548203115	 0.081354
H	 0.2775453286	-0.3198953493	 1.15492719	 0.099612
H	-2.1433381439	-0.0360032824	 0.578842721	 0.079717
H	-1.3831017889	-0.5536514609	-2.069734423	 0.273082
H	-0.732172417	-2.527393387	-0.5362267275	 0.065784
H	-1.3110410498	-3.5313366572	 1.6757953896	 0.104171
H	-2.1658941398	-2.0003588852	 2.1655346036	 0.105014
H	-4.073383276	-1.1131539794	 0.7791888438	 0.113969
H	-4.4559680217	-1.7779549486	-0.8095487507	 0.123948
H	-4.9054809446	-2.6644934686	 0.6587917859	 0.106776
H	-3.5969555041	-4.7912861566	-0.0257696065	 0.113129
H	-3.2051675154	-4.0155724067	-1.5664984508	 0.113566
H	-1.9087527063	-4.6333095051	-0.5308421585	 0.108433
59.4132	91.396	107.6635	165.016	198.8883	215.2445	232.5978	257.6118	273.32	296.9363	353.5735	366.5978	385.4115	460.4972	507.8862	534.3757	710.7747	775.4746	836.1013	865.2387	901.9249	921.7304	968.1336	972.1556	981.9727	1026.0148	1053.5542	1059.0999	1079.3125	1102.0769	1103.4129	1132.2028	1156.209	1179.3923	1244.7267	1266.5519	1305.4197	1325.5904	1342.7372	1379.0912	1402.8872	1409.9129	1414.904	1423.6061	1435.6877	1479.71	1481.8227	1490.6106	1492.4438	1495.6234	1501.0808	1509.4117	1513.1207	3000.9085	3017.9706	3029.6903	3035.6194	3041.2972	3055.9669	3077.897	3089.8486	3092.3262	3096.9476	3099.5876	3115.6071	3119.6878	3121.3513	3201.7707	3797.6938
CCC(O)C1CC1(C)C	CC[C@@H](O)[C@H]1CC1(C)C	
InChI=1S/C8H16O/c1-4-7(9)6-5-8(6,2)3/h6-7,9H,4-5H2,1-3H3	InChI=1S/C8H16O/c1-4-7(9)6-5-8(6,2)3/h6-7,9H,4-5H2,1-3H3/t6-,7-/m1/s1
