17
gdb 85492	2.31406	1.4249	1.09537	2.2404	73.51	-0.2421	-0.0223	0.2198	1134.4055	0.134154	-421.818128	-421.809376	-421.808432	-421.851649	33.037	
O	 0.0498324309	 1.367803901	-0.1984716409	-0.424221
C	 0.0162521522	-0.0177594952	 0.0486809091	 0.122657
C	 0.5718956235	-0.471325701	 1.4064797005	-0.363379
C	-0.1372510062	-1.8009889663	 1.6802599594	 0.414611
O	 0.1751511929	-2.6185653521	 2.5040347673	-0.308241
C	-1.3127951451	-1.9268835969	 0.7000462101	-0.331944
C	-1.4551480994	-0.5234980233	 0.0623401362	-0.219725
C	-2.3267153617	 0.3363779179	 0.8570893328	 0.364533
C	-3.0597630587	 1.0063744077	 1.533849675	-0.483711
H	 0.969414367	 1.650863965	-0.211962884	 0.28866
H	 0.5343129535	-0.5682301935	-0.7540077403	 0.07613
H	 1.6578376539	-0.5800202566	 1.4555683222	 0.12083
H	 0.2631033858	 0.2465051891	 2.1769214387	 0.152221
H	-1.0322759834	-2.66871613	-0.0583041097	 0.132588
H	-2.2141785168	-2.2869019417	 1.1975298531	 0.145431
H	-1.8412003984	-0.5765349987	-0.9601534457	 0.113467
H	-3.70463443	 1.6151104447	 2.1180046762	 0.200093
65.3484	124.8182	148.5008	229.6113	253.8423	313.1488	386.6191	444.3716	473.3946	498.3485	518.7527	623.9528	632.0842	643.111	680.9791	753.3025	806.9466	849.9933	932.5758	955.3076	1014.2903	1082.0596	1116.818	1134.1221	1164.8674	1190.1685	1220.9507	1242.8634	1253.6845	1300.4801	1353.5004	1380.6318	1425.0217	1444.7945	1452.1777	1853.2287	2236.9059	2963.094	3041.578	3045.5701	3063.6549	3112.34	3130.6507	3503.9998	3824.4812
OC1CC(=O)CC1C#C	O[C@H]1CC(=O)C[C@H]1C#C	
InChI=1S/C7H8O2/c1-2-5-3-6(8)4-7(5)9/h1,5,7,9H,3-4H2	InChI=1S/C7H8O2/c1-2-5-3-6(8)4-7(5)9/h1,5,7,9H,3-4H2/t5-,7+/m1/s1
