17
gdb 32677	3.36208	1.33243	1.01781	3.0624	74.74	-0.2209	0.0351	0.256	1139.6838	0.13828	-418.001445	-417.993677	-417.992733	-418.034407	28.877	
O	 0.1963954652	 1.4109280918	-0.0458403976	-0.413827
C	 0.0553671333	 0.0488933795	-0.3999607111	-0.076543
C	-1.3212932023	-0.4921407936	-0.0448724839	 0.024642
C	-1.4942442368	-2.0598889184	-0.050364869	-0.420468
C	-1.7110273231	-1.9195476335	 1.4507239594	 0.296142
C	-1.9703651474	-2.2552887527	 2.7559602648	-0.222237
N	-1.9893827524	-1.0945889324	 3.5052039863	-0.26149
C	-1.7555409301	-0.0841290831	 2.6857115701	-0.04522
N	-1.5757182586	-0.5615972389	 1.4225405131	-0.011113
H	 0.2702038963	 1.4572514819	 0.9132625229	 0.292662
H	 0.1920529384	-0.0092551071	-1.4853872865	 0.122421
H	 0.8271372829	-0.5782251228	 0.0708759729	 0.103338
H	-2.101570682	 0.0647498742	-0.570094027	 0.113444
H	-2.3509232248	-2.4180574399	-0.6254532771	 0.131904
H	-0.6010231099	-2.60944782	-0.3602475522	 0.125962
H	-2.1434184617	-3.2171469566	 3.211281506	 0.109484
H	-1.7235593971	 0.9589406114	 2.9590956791	 0.130899
63.8894	104.5896	148.0927	251.9149	328.2432	380.4468	408.8069	528.1077	660.8969	666.8171	691.1812	777.0876	780.6864	828.2166	867.9424	950.0754	965.3887	1006.0991	1066.0159	1076.1224	1104.2106	1120.3242	1144.1969	1199.2419	1221.1787	1235.3255	1244.9052	1276.6328	1338.2342	1374.8346	1389.4245	1399.7426	1415.5575	1464.8556	1490.7565	1493.8863	1563.774	2997.1162	3064.1215	3072.2476	3088.909	3114.1439	3258.0782	3262.5939	3812.9583
OCC1CC2=CN=CN12	OC[C@H]1Cc2cncn12	
InChI=1S/C6H8N2O/c9-3-6-1-5-2-7-4-8(5)6/h2,4,6,9H,1,3H2	InChI=1S/C6H8N2O/c9-3-6-1-5-2-7-4-8(5)6/h2,4,6,9H,1,3H2/t6-/m1/s1
