18
gdb 71695	3.65835	1.51623	1.38158	2.7341	73.97	-0.2168	0.0645	0.2813	985.9142	0.14801	-401.890486	-401.883119	-401.882175	-401.921652	30.294	
C	-0.1470621101	 1.489420593	 0.0740445444	-0.508262
C	 0.1357908274	 0.0227261486	-0.004994235	 0.352693
C	 0.2088692237	-0.8088051919	-1.2408935148	-0.095489
C	 1.2297224042	-1.9114187035	-1.1210266534	-0.309972
C	 1.0974702273	-2.153264979	 0.3729018375	 0.374877
O	 1.7635854805	-3.1749240363	 1.0309307559	-0.47228
C	-0.3157780473	-1.8662614949	 0.7904904096	-0.049471
C	 0.7574772475	-0.8501239616	 1.1006616041	-0.254166
N	-0.9344936343	-0.9990518364	-0.2750734276	-0.203472
H	 0.7795215641	 2.0729547595	 0.0192026502	 0.118266
H	-0.7946701392	 1.7958423107	-0.7528170394	 0.130142
H	-0.6529381598	 1.7432922394	 1.0119006092	 0.126367
H	-0.0822862173	-0.3996259424	-2.2018315689	 0.094945
H	 0.9676378411	-2.803258975	-1.6993837483	 0.115572
H	 2.2324006418	-1.5792482227	-1.4152167484	 0.09787
H	 2.6886203899	-2.9221381655	 1.1240947592	 0.286953
H	-0.9210648449	-2.5033015503	 1.4210103981	 0.103486
H	 1.1877524153	-0.5437410418	 2.0441650474	 0.09194
196.4327	211.637	237.4522	314.3297	314.9478	379.8134	439.7404	531.4993	564.5119	623.9942	695.7097	754.1524	770.0298	807.6773	852.0606	870.7199	918.3414	922.6889	958.84	989.7563	1001.6046	1030.5593	1051.2389	1088.675	1096.2562	1131.2893	1151.1794	1184.6255	1232.4204	1257.9621	1276.9136	1308.2801	1326.9003	1403.883	1430.2414	1437.4696	1480.8432	1488.3155	1493.4406	3026.5245	3037.4591	3087.5454	3088.8849	3109.662	3180.4875	3202.5903	3213.933	3795.552
CC12C3CC4(O)C(C14)N23	C[C@@]12[C@H]3C[C@]4(O)[C@@H]([C@H]14)N23	
InChI=1S/C7H9NO/c1-6-3-2-7(9)4(6)5(7)8(3)6/h3-5,9H,2H2,1H3	InChI=1S/C7H9NO/c1-6-3-2-7(9)4(6)5(7)8(3)6/h3-5,9H,2H2,1H3/t3-,4-,5-,6-,7-,8?/m1/s1
