21
gdb 75508	2.23193	1.77719	1.08386	1.7535	84.03	-0.2333	0.0229	0.2562	1157.679	0.184364	-387.095184	-387.086975	-387.086031	-387.1279	32.032	
C	 0.045791712	 1.5349813233	 0.0224707999	-0.480907
C	 0.0186507667	 0.0322221101	-0.0440552919	 0.307144
C	-0.0679652979	-0.6460782888	-1.1924813416	-0.150584
C	-0.0649041721	-2.1535753125	-1.2733998994	-0.265704
C	 0.7322710506	-2.7681512869	-0.1110217406	-0.225305
C	 0.2386406613	-2.2312964764	 1.2313745195	 0.122456
O	 1.2877876279	-2.1480272915	 2.228938594	-0.294188
C	 1.3046291979	-0.707276979	 2.1604973432	-0.090991
C	 0.036499327	-0.6987312644	 1.2666949873	-0.138907
H	 0.9529012141	 1.8948783512	 0.525577424	 0.124435
H	 0.0126378129	 1.9834411161	-0.9740602569	 0.121475
H	-0.8031058007	 1.9230815201	 0.6006740774	 0.121327
H	-0.1338484493	-0.0966891807	-2.1293639082	 0.078125
H	-1.0958157766	-2.538884329	-1.2768452264	 0.108216
H	 0.369127547	-2.4734876757	-2.2271722506	 0.104384
H	 0.6846848622	-3.8618495215	-0.1310337408	 0.096231
H	 1.7853375007	-2.4870487775	-0.2193315145	 0.109025
H	-0.6077980615	-2.8205835702	 1.6043192575	 0.072863
H	 1.2151569503	-0.2486230989	 3.151625532	 0.101236
H	 2.2124265687	-0.3289363592	 1.6706007869	 0.095127
H	-0.844126821	-0.4184587386	 1.8561250691	 0.084544
89.5635	147.1493	195.8072	217.6765	275.3448	327.1225	395.6046	438.5441	497.5199	541.8966	629.8445	720.7868	793.1301	843.046	873.5935	897.7536	914.881	961.176	999.6519	1018.5918	1031.6829	1043.9669	1064.0967	1086.6989	1095.2981	1125.5548	1162.3595	1176.91	1184.8953	1217.1134	1266.9197	1287.558	1320.5102	1330.9457	1356.8358	1370.8917	1384.9786	1398.1694	1412.4787	1478.539	1483.9941	1491.3671	1494.4979	1523.2314	1730.0862	2995.3479	3002.043	3012.2231	3020.9514	3035.4347	3041.2315	3057.0885	3058.8952	3061.2353	3088.8469	3109.7588	3145.2309
CC1=CCCC2OCC12	CC1=CCC[C@H]2OC[C@@H]12	
InChI=1S/C8H12O/c1-6-3-2-4-8-7(6)5-9-8/h3,7-8H,2,4-5H2,1H3	InChI=1S/C8H12O/c1-6-3-2-4-8-7(6)5-9-8/h3,7-8H,2,4-5H2,1H3/t7-,8+/m0/s1
