20
gdb 115682	2.388	1.21236	0.98881	4.3162	75.55	-0.2436	0.0175	0.2612	1293.5952	0.17007	-440.305952	-440.29591	-440.294966	-440.342071	35.393	
C	-0.6251277795	 1.4671192318	-0.2204667147	-0.390736
C	-0.4019464302	-0.0416788639	-0.0823494304	-0.194471
C	 0.2638552456	-0.6243106768	-1.3178294755	 0.15451
O	 1.5847801038	-0.0850827466	-1.5444454035	-0.289412
C	 2.1921203383	-1.390064479	-1.4596847253	-0.07835
C	 0.8316688901	-2.0837791176	-1.2654376229	-0.196022
C	 0.6584448868	-2.83989434	 0.0406407796	 0.410302
N	-0.3316959736	-3.7788122382	 0.0332115972	-0.529295
O	 1.328987201	-2.6109919156	 1.0306525002	-0.360447
H	 0.3263247977	 1.9757249692	-0.3986614167	 0.140065
H	-1.2926573095	 1.6980235034	-1.0585408046	 0.108343
H	-1.0711445715	 1.8832603897	 0.6874286485	 0.112196
H	 0.2233551375	-0.2566111098	 0.7896558469	 0.130849
H	-1.3593424428	-0.5578419265	 0.0721321125	 0.08828
H	-0.372397277	-0.4576386707	-2.1996557987	 0.070828
H	 2.7309638889	-1.6526111371	-2.3771728517	 0.09659
H	 2.8534402064	-1.4815914075	-0.5925353803	 0.129552
H	 0.5094222412	-2.6889845225	-2.115773329	 0.075257
H	-0.8757700396	-3.9857610418	-0.785190468	 0.259208
H	-0.5139205837	-4.2897080806	 0.8815845466	 0.262753
39.6192	73.1681	110.4104	121.8025	134.2563	217.4451	242.1541	276.6055	395.5273	415.6801	454.428	587.453	614.4411	706.97	759.6976	797.1615	833.6912	888.5819	942.5869	970.7108	1011.4724	1026.6125	1063.6019	1084.0874	1110.9312	1120.3389	1156.3504	1180.5389	1220.8914	1272.1238	1276.6313	1299.2467	1335.0307	1368.1271	1401.3096	1408.1525	1421.5717	1482.84	1499.2572	1510.3428	1516.5795	1617.5182	1787.6291	2987.1113	3021.7963	3028.9551	3035.2122	3075.7916	3084.9346	3092.3751	3105.5691	3121.3601	3603.561	3741.9523
CCC1OCC1C(N)=O	CC[C@H]1OC[C@H]1C(=O)N	
InChI=1S/C6H11NO2/c1-2-5-4(3-9-5)6(7)8/h4-5H,2-3H2,1H3,(H2,7,8)	InChI=1S/C6H11NO2/c1-2-5-4(3-9-5)6(7)8/h4-5H,2-3H2,1H3,(H2,7,8)/t4-,5-/m1/s1
