23
gdb 59867	3.00795	0.92013	0.78793	3.4871	85.19	-0.2255	0.0657	0.2912	1584.9212	0.203682	-421.651807	-421.640234	-421.63929	-421.688993	40.631	
C	 0.0362617484	 1.498432292	 0.0021121255	-0.385872
C	-0.0303715102	-0.0347026125	 0.0238686636	 0.083627
C	-1.469821323	-0.5523718878	 0.0394818931	-0.401891
N	 0.6797043646	-0.635486622	-1.1072248112	-0.384358
C	 2.0627630143	-0.6780018932	-1.0978001148	 0.510712
O	 2.7144570297	-0.3431023672	-0.1171501058	-0.433724
N	 2.6488457334	-1.1646572067	-2.2513125848	-0.124116
C	 4.0904457421	-1.0774505001	-2.389096104	-0.341181
C	 1.8973209204	-1.6591131512	-3.3853494255	-0.349237
H	 1.0783032993	 1.8251761	 0.010114206	 0.141908
H	-0.4545502757	 1.9000357903	-0.892889008	 0.097563
H	-0.4657965061	 1.921707484	 0.8784713147	 0.110704
H	 0.4930794477	-0.3856527606	 0.916813518	 0.115726
H	-2.014105594	-0.2345535799	-0.8590782101	 0.105215
H	-1.4940447732	-1.6448396753	 0.0831340837	 0.120596
H	-2.0102646573	-0.1577616443	 0.9047727639	 0.120042
H	 0.2189498227	-0.5471598749	-1.999546869	 0.231914
H	 4.5213868205	-2.0641271748	-2.6011197264	 0.115189
H	 4.3750152431	-0.3981412572	-3.2046707507	 0.111581
H	 4.4964174199	-0.7030911139	-1.4508563945	 0.170408
H	 1.5867034617	-0.864463879	-4.0828821383	 0.115074
H	 2.5200178079	-2.3614207086	-3.9474191325	 0.132136
H	 1.0087748639	-2.2031924173	-3.0539047829	 0.137984
51.4401	74.4596	107.8323	126.2491	134.4678	182.059	192.836	231.8875	265.9993	276.0065	333.2615	393.7821	416.6503	461.8068	480.8736	526.4243	625.7909	765.4741	841.9368	883.2784	928.7274	948.7045	968.0271	1059.2296	1088.8613	1135.0135	1148.851	1164.2901	1177.8524	1195.2342	1226.1497	1300.2915	1331.9382	1368.3978	1394.2748	1404.8165	1416.1096	1432.2533	1470.0367	1484.0487	1488.9994	1493.5016	1497.8254	1500.0225	1508.9542	1511.8894	1524.2641	1545.8974	1750.605	2973.3317	3001.92	3023.5732	3027.8505	3048.1565	3070.3679	3078.52	3089.6248	3105.8811	3111.7544	3118.7426	3131.7081	3168.5565	3618.5678
CC(C)NC(=O)N(C)C	CC(C)NC(=O)N(C)C	
InChI=1S/C6H14N2O/c1-5(2)7-6(9)8(3)4/h5H,1-4H3,(H,7,9)	InChI=1S/C6H14N2O/c1-5(2)7-6(9)8(3)4/h5H,1-4H3,(H,7,9)
