20
gdb 14524	3.97827	1.39095	1.35588	1.8517	74.21	-0.2418	0.0789	0.3207	1022.1831	0.177011	-348.969178	-348.960852	-348.959908	-349.003235	30.798	
C	 0.0162295497	 1.5338575067	 0.1676577877	-0.473628
C	 0.02096155	 0.0198488788	 0.0456151813	 0.37089
C	 1.088749638	-0.6001770186	-0.8295345093	-0.305757
C	 1.1823808233	-0.7209965622	 0.6724031878	-0.305747
C	-1.321399875	-0.6831753142	 0.0727607832	-0.095224
C	-2.3221659653	-0.3406830811	 1.2054985806	-0.088488
O	-3.2959793361	 0.1508542962	 0.2634897119	-0.273739
C	-2.4511242894	-0.1740907805	-0.8580889874	-0.088515
H	 1.0381319875	 1.9233606445	 0.1353034222	 0.113668
H	-0.5399124169	 2.0078985549	-0.6480901023	 0.122201
H	-0.4302596735	 1.8664785984	 1.1107718241	 0.122204
H	 0.8378673242	-1.4895963071	-1.3981707208	 0.109122
H	 1.7830597698	 0.0638743348	-1.3333737112	 0.110438
H	 1.9401319087	-0.1387298407	 1.1858845944	 0.11044
H	 0.9947182407	-1.692052382	 1.1187079164	 0.109126
H	-1.1561993695	-1.7594966369	-0.02444151	 0.071609
H	-2.6989442389	-1.2005378979	 1.7741255947	 0.095866
H	-2.0057591939	 0.4350438555	 1.9135295476	 0.099833
H	-2.2169745709	 0.7079398935	-1.4666948596	 0.099833
H	-2.9039221326	-0.9356948822	-1.5058502414	 0.095868
22.5294	60.7281	205.6355	227.5944	273.2775	315.9383	348.8935	421.5747	487.8411	659.5554	782.7951	822.6698	861.4834	875.5837	896.2079	923.9131	953.1484	973.0298	1025.2134	1039.6584	1051.8442	1053.1775	1077.3377	1082.3486	1110.4289	1123.5873	1160.2039	1161.7662	1188.0267	1259.3605	1280.8395	1309.9224	1334.6374	1373.3189	1405.5218	1426.1147	1468.5013	1488.6913	1497.9745	1507.6282	1521.1785	1542.2335	3004.6364	3015.2739	3033.4597	3046.5459	3049.1467	3070.6245	3096.7755	3102.2684	3126.1499	3130.6855	3203.5772	3217.6124
CC1(CC1)C1COC1	CC1(CC1)C1COC1	
InChI=1S/C7H12O/c1-7(2-3-7)6-4-8-5-6/h6H,2-5H2,1H3	InChI=1S/C7H12O/c1-7(2-3-7)6-4-8-5-6/h6H,2-5H2,1H3
