23
gdb 118259	4.21523	0.54474	0.50002	1.9669	89.13	-0.2572	0.0586	0.3158	2182.773	0.202467	-388.257962	-388.246417	-388.245473	-388.295842	40.902	
C	 0.0058644445	 1.6597339108	 0.1103253085	-0.394853
C	-0.0074212229	 0.1258143862	 0.0125652218	 0.020282
C	-1.437728142	-0.4421001265	 0.0435354889	-0.17245
C	-2.2078487823	-0.1783771147	 1.3329554541	-0.086562
O	-3.4332433958	-0.8929034981	 1.2494720962	-0.420409
C	 0.7158419135	-0.3775334908	-1.2508947618	-0.174278
C	 2.2305779715	-0.0818872926	-1.2782610127	-0.37224
C	 2.8902777408	-0.6412399726	-2.4519543132	 0.295451
C	 3.4092791321	-1.1112269142	-3.4291501106	-0.436362
H	 1.0233947768	 2.0611366331	 0.0985185462	 0.115347
H	-0.5383572848	 2.1058658286	-0.7308522573	 0.116236
H	-0.4634467127	 2.0112422862	 1.0335527165	 0.115802
H	 0.5313424718	-0.2757135959	 0.8849133277	 0.069048
H	-2.0165028024	-0.0421896248	-0.7992734618	 0.101927
H	-1.4005702571	-1.5291539301	-0.0952303161	 0.105057
H	-1.6095719445	-0.5144924165	 2.1969050557	 0.081865
H	-2.3917891294	 0.8985793253	 1.4631789547	 0.086627
H	-3.9490278722	-0.697687344	 2.0370929981	 0.284702
H	 0.5790505373	-1.4613160156	-1.3357659202	 0.107656
H	 0.2509106256	 0.0612272037	-2.1427035397	 0.106665
H	 2.408474613	 0.9996590748	-1.2516374759	 0.131501
H	 2.696178817	-0.4885408166	-0.3702144317	 0.127033
H	 3.8785644122	-1.5220675656	-4.2881641775	 0.191956
46.6103	69.8412	74.683	92.4364	116.8591	184.9185	232.3592	266.4805	274.1406	314.6416	345.9078	363.5813	418.4274	510.2606	549.2698	614.8405	633.9828	759.7809	793.252	859.6959	934.6398	948.481	958.0182	993.0127	1019.5113	1047.0767	1065.343	1118.3445	1138.2271	1171.3878	1209.4297	1241.1356	1245.622	1282.5011	1311.2477	1319.8094	1324.7148	1369.9257	1377.5182	1387.5383	1412.8146	1460.4351	1471.4965	1485.5775	1495.4639	1499.1469	1508.6339	1528.1229	2238.4105	2956.5198	2983.6636	2996.0788	3015.7273	3023.8871	3030.9951	3035.3114	3050.752	3067.6446	3079.8181	3099.7554	3109.2444	3507.7005	3830.3019
CC(CCO)CCC#C	C[C@@H](CCO)CCC#C	
InChI=1S/C8H14O/c1-3-4-5-8(2)6-7-9/h1,8-9H,4-7H2,2H3	InChI=1S/C8H14O/c1-3-4-5-8(2)6-7-9/h1,8-9H,4-7H2,2H3/t8-/m1/s1
