23
gdb 93891	2.74623	1.39355	1.12132	1.682	84.69	-0.2567	0.0826	0.3393	1209.0233	0.207085	-388.302332	-388.293469	-388.292525	-388.33543	34.966	
C	-0.3223306111	 1.5089293126	 0.0521375863	-0.384711
C	 0.0073301732	 0.0087434772	-0.0026929368	-0.004728
C	 0.7121399277	-0.4024570545	-1.3156162206	-0.227472
C	 2.2333698019	-0.213323768	-1.2737185487	-0.205936
C	 2.8809929575	-1.1074724748	-0.2035354395	 0.006645
C	 4.385954995	-0.843387727	-0.0628471865	-0.405256
C	 2.1806136642	-0.93726065	 1.1301757148	 0.062188
O	 1.954066369	 0.4128532804	 1.5516053461	-0.262577
C	 0.8136600553	-0.3992409287	 1.2251716931	 0.031583
H	 0.5897683995	 2.1105875364	 0.0158154338	 0.134007
H	-0.9626944021	 1.7947269438	-0.7883116498	 0.107421
H	-0.8466627854	 1.7644530996	 0.978982435	 0.112564
H	-0.9408109881	-0.541487432	 0.0527484938	 0.070705
H	 0.5014655063	-1.4612307707	-1.5163038239	 0.089948
H	 0.2810864426	 0.1609131847	-2.1510537153	 0.090201
H	 2.667145109	-0.451963711	-2.2512362692	 0.089641
H	 2.4818664374	 0.833511059	-1.065655805	 0.111036
H	 2.7381351652	-2.1576223951	-0.501329139	 0.071218
H	 4.563778192	 0.1807428289	 0.2808925793	 0.130318
H	 4.8464696982	-1.5252083376	 0.6601647897	 0.109358
H	 4.8986070194	-0.9747293379	-1.0212877063	 0.110371
H	 2.5328090481	-1.5938931262	 1.9289996253	 0.079061
H	 0.2216246152	-0.6662662991	 2.1023518533	 0.084416
80.0401	186.9033	212.0614	222.8288	242.3004	271.8104	321.1942	359.8325	399.6627	466.1267	547.1792	609.2444	682.5681	736.9532	773.5563	843.6347	854.2174	925.3017	942.2913	957.9318	971.6958	991.2112	1037.7788	1043.3937	1073.795	1082.9292	1121.2114	1149.0821	1175.1568	1190.5694	1215.1193	1250.1445	1293.2449	1324.9013	1342.1476	1350.1306	1358.5126	1378.1205	1386.7015	1395.3188	1406.8492	1415.9951	1467.8806	1483.2055	1492.5012	1496.5445	1498.1894	1503.1184	1505.01	2990.3076	3008.936	3024.56	3030.2967	3035.6662	3037.3833	3060.6667	3077.6344	3078.114	3093.3472	3098.2113	3100.7281	3107.3266	3120.6572
CC1CCC(C)C2OC12	C[C@H]1CC[C@@H](C)[C@H]2O[C@@H]12	
InChI=1S/C8H14O/c1-5-3-4-6(2)8-7(5)9-8/h5-8H,3-4H2,1-2H3	InChI=1S/C8H14O/c1-5-3-4-6(2)8-7(5)9-8/h5-8H,3-4H2,1-2H3/t5-,6+,7-,8+
