20
gdb 27873	1.89045	1.71509	0.9145	1.801	91.18	-0.2382	-0.0132	0.225	1321.0868	0.170208	-366.100676	-366.090884	-366.08994	-366.137374	34.518	
C	-0.1462107044	 1.5401641318	 0.01011591	-0.492475
C	-0.0719816708	 0.0349493519	 0.002117002	 0.332576
C	-0.0313945617	-0.6843674663	-1.1914230456	-0.258891
C	 0.0648923902	-2.0762231495	-1.1598975962	 0.326663
C	 0.1105830498	-2.8903149226	-2.4280612157	-0.466393
N	 0.1186430226	-2.7645151186	-0.0130553385	-0.383501
C	 0.0774394593	-2.08783913	 1.141199126	 0.326669
C	 0.1368044844	-2.91472243	 2.4004879001	-0.466392
C	-0.0184034521	-0.6963797542	 1.1878218304	-0.258904
H	 0.8586438332	 1.9798845319	 0.0061382868	 0.139741
H	-0.6700768859	 1.9190517192	-0.8719802547	 0.128892
H	-0.6591912019	 1.9101571041	 0.9023230571	 0.128875
H	-0.0765149428	-0.1662449717	-2.1443455763	 0.0842
H	 1.0304025329	-3.4827090752	-2.4668189533	 0.136988
H	-0.7240454318	-3.598194726	-2.4564831027	 0.136947
H	 0.0637723459	-2.2587584608	-3.3186721836	 0.113433
H	 1.0563962837	-3.5083032967	 2.4227366236	 0.136993
H	 0.1007620466	-2.2921422225	 3.2978930014	 0.113432
H	-0.6981607189	-3.6221176004	 2.4313398671	 0.136944
H	-0.0530907084	-0.1879007242	 2.1463578619	 0.084203
23.2736	49.4845	51.479	176.9589	201.2674	228.5756	272.5664	278.6882	467.7145	519.9967	545.0989	548.105	571.9858	592.5066	756.9083	868.2943	903.1493	939.7566	945.5166	1007.448	1031.0216	1031.449	1051.7844	1056.8302	1061.162	1062.1632	1182.2159	1245.4913	1292.4827	1343.4409	1405.7858	1408.4163	1414.1071	1436.7957	1449.5116	1475.8352	1476.0658	1486.6137	1487.8846	1498.3146	1506.5058	1607.4484	1643.2147	3030.934	3039.4804	3040.0509	3090.3686	3099.8193	3099.9696	3117.6596	3122.7149	3123.1484	3171.8429	3173.1555
CC1=CC(C)=NC(C)=C1	Cc1cc(C)nc(C)c1	
InChI=1S/C8H11N/c1-6-4-7(2)9-8(3)5-6/h4-5H,1-3H3	InChI=1S/C8H11N/c1-6-4-7(2)9-8(3)5-6/h4-5H,1-3H3
