20
gdb 113409	4.22147	1.01739	0.95023	2.4059	80.07	-0.2425	0.0743	0.3169	1295.2642	0.172274	-403.059173	-403.051116	-403.050172	-403.092049	31.723	
O	 0.052632776	 1.2506740008	-0.6685694815	-0.421391
C	 0.0461197867	 0.1603884666	 0.2360415261	-0.059258
C	-1.3261557584	-0.4645093936	 0.3301768203	-0.189199
N	-1.7469515337	-1.1496071844	-0.9408294617	-0.444792
C	-1.5567419113	-1.9130375217	 0.2774293914	 0.478283
C	-0.7017451013	-3.1774014197	 0.4869521861	-0.122477
C	-1.2752866009	-3.1965284275	 1.9377631077	-0.214387
C	-2.4980131197	-2.8723258276	 1.0248241908	-0.148488
C	-1.9692399187	-3.9823962119	 0.059832782	-0.223026
H	-0.3013910753	 0.9002600046	-1.4952217398	 0.290045
H	 0.7761246355	-0.6088764889	-0.0583956913	 0.087423
H	 0.3539445905	 0.5594680508	 1.2085437911	 0.105845
H	-2.0811758566	 0.1516410449	 0.8163994092	 0.090664
H	-2.7360927452	-0.9846064898	-1.1139715922	 0.231416
H	 0.3281462086	-3.3486347252	 0.1755787564	 0.080953
H	-1.294810797	-4.1721585696	 2.4294165317	 0.094181
H	-0.940913429	-2.4067259487	 2.6147959311	 0.095706
H	-3.5287240642	-2.6902270265	 1.3333366943	 0.07331
H	-2.2646599754	-3.908069958	-0.9887776243	 0.102986
H	-2.0334600203	-5.0090575947	 0.4296413528	 0.092206
71.0577	121.7078	176.7114	224.6506	333.0493	381.1356	450.6511	469.0366	519.5221	610.7309	682.3637	784.5071	794.8889	829.4923	891.3168	901.1645	904.3991	942.0558	988.943	991.5356	1018.0062	1032.4116	1043.3045	1068.3644	1068.5516	1089.6308	1107.0185	1120.667	1169.5368	1184.2798	1194.2635	1212.6197	1235.4854	1241.3627	1259.2682	1271.0648	1338.3875	1384.4736	1430.0747	1493.4001	1496.66	1501.7091	1541.4905	2989.6065	3056.7712	3058.7546	3071.3932	3102.1504	3121.444	3122.5564	3124.8574	3128.8852	3488.9458	3783.3806
OCC1NC11C2CC1C2	OC[C@H]1N[C@]21[C@H]1C[C@@H]2C1	
InChI=1S/C7H11NO/c9-3-6-7(8-6)4-1-5(7)2-4/h4-6,8-9H,1-3H2	InChI=1S/C7H11NO/c9-3-6-7(8-6)4-1-5(7)2-4/h4-6,8-9H,1-3H2/t4-,5+,6-,7-/m1/s1
