21
gdb 59792	3.13145	1.11628	0.99865	1.5888	74.93	-0.2371	0.0799	0.317	1282.4468	0.18298	-461.361005	-461.352029	-461.351085	-461.394551	34.39	
C	 0.080257866	 1.531906786	 0.1679895663	-0.404112
C	-0.054665794	 0.0176884429	-0.0078458549	 0.122116
O	-1.418006526	-0.3824225553	-0.0633205112	-0.440011
C	 0.6888044497	-0.4874461243	-1.2523578326	 0.095881
C	 0.7463410055	-2.0135125856	-1.3325303146	-0.100558
O	 1.2933627555	-2.4435460464	-2.5711466321	-0.252571
C	 0.5409314073	-1.9400778607	-3.6602593955	-0.078313
C	 0.5000502154	-0.4176017941	-3.6150949833	-0.07879
O	-0.030750273	 0.029937078	-2.3756924919	-0.286049
H	 1.1235074832	 1.8173248138	 0.3418278519	 0.108753
H	-0.2710578985	 2.0513958327	-0.7283369578	 0.126532
H	-0.5180893373	 1.8599243011	 1.0215087596	 0.122263
H	 0.3660024891	-0.4884300886	 0.8701118788	 0.085444
H	-1.7259116846	-0.1290148166	-0.9428645542	 0.285097
H	 1.7172091532	-0.0906629359	-1.2668658743	 0.070416
H	 1.3972603393	-2.4133967158	-0.5492162101	 0.108741
H	-0.267044434	-2.4177558932	-1.1918013083	 0.105774
H	 1.0281370452	-2.2901234121	-4.5755530273	 0.109149
H	-0.4874731966	-2.3375379296	-3.6336674113	 0.093144
H	 1.516962536	-0.0175663931	-3.7538673207	 0.098534
H	-0.1465463714	-0.0137662133	-4.4004090064	 0.108561
86.621	110.8371	192.0841	244.5615	255.9786	280.1797	319.5845	384.4486	418.1553	452.9465	480.604	503.7362	593.3193	654.8519	839.1165	872.6134	892.5311	922.5411	961.6687	991.4751	1002.0501	1068.1326	1089.6425	1113.9104	1131.1096	1141.8865	1150.2097	1163.3105	1250.1623	1271.1579	1302.2505	1314.9876	1323.7292	1361.8224	1374.2493	1392.9425	1399.4342	1408.8281	1423.3138	1434.1859	1482.8969	1487.4225	1491.6522	1496.6175	1499.956	2969.6066	2974.2193	2987.6921	3004.5161	3035.3606	3038.8632	3084.6065	3084.9766	3089.6802	3110.1387	3128.0096	3777.5034
CC(O)C1COCCO1	C[C@@H](O)[C@H]1COCCO1	
InChI=1S/C6H12O3/c1-5(7)6-4-8-2-3-9-6/h5-7H,2-4H2,1H3	InChI=1S/C6H12O3/c1-5(7)6-4-8-2-3-9-6/h5-7H,2-4H2,1H3/t5-,6-/m1/s1
