20
gdb 107358	3.40762	1.15852	0.97932	3.1096	80.04	-0.2451	0.0264	0.2715	1265.8896	0.171462	-403.162852	-403.154338	-403.153394	-403.196154	32.839	
C	-0.4222147301	 1.5652518899	-0.1986549316	-0.375668
C	-0.073847186	 0.0861934612	 0.0106921258	-0.281837
C	 0.837455555	-0.4722401561	-1.0606227864	 0.329104
C	 0.2510471857	-0.9789128903	-2.3719768113	-0.359936
C	 0.8943878597	-1.9337884563	-1.4057695187	 0.038741
O	 2.2257922243	-2.3153517571	-1.6933356717	-0.237532
C	 3.0567432521	-1.2239092185	-1.6299934628	 0.400469
N	 4.2789786187	-1.2396062189	-1.9395100213	-0.534687
C	 2.2855109977	-0.0098387747	-1.133680901	-0.382927
H	 0.4756397132	 2.1917853666	-0.1833018819	 0.122761
H	-0.9183381426	 1.7197611913	-1.1624523769	 0.120709
H	-1.0921202147	 1.9256016265	 0.5877189228	 0.115524
H	 0.4022336954	-0.0445311154	 0.9917377719	 0.101529
H	-0.9979017144	-0.5046916846	 0.0381831963	 0.097059
H	-0.83089977	-1.0005806039	-2.4519958508	 0.117984
H	 0.7728070815	-0.7786790829	-3.302788539	 0.124723
H	 0.3410221406	-2.7115209019	-0.8937796543	 0.109427
H	 4.5600546877	-2.1726638528	-2.2451134356	 0.223125
H	 2.45965469	 0.8413993687	-1.796475097	 0.138725
H	 2.6574969161	 0.2714529193	-0.1419339065	 0.132706
85.7104	92.1022	157.6917	223.372	286.3231	341.8184	375.0931	447.2425	453.2403	530.1659	604.4566	684.1176	738.8707	791.6714	832.9472	871.6321	893.3778	906.4233	921.928	970.1106	1002.5835	1021.969	1035.2106	1046.0085	1062.8163	1094.9902	1123.0244	1151.6056	1183.9494	1241.1827	1253.0045	1278.5925	1325.1647	1350.219	1373.0783	1408.4203	1413.1625	1467.2514	1478.5068	1490.3441	1499.4661	1507.5269	1777.859	3015.0359	3035.8748	3049.5483	3051.0607	3100.2359	3105.3276	3108.7957	3124.0597	3188.4966	3214.661	3475.5908
CCC12CC1OC(=N)C2	CC[C@]12C[C@H]1O[C]([NH])C2	
InChI=1S/C7H11NO/c1-2-7-3-5(7)9-6(8)4-7/h5,8H,2-4H2,1H3	InChI=1S/C7H11NO/c1-2-7-3-5(7)9-6(8)4-7/h5,8H,2-4H2,1H3/t5-,7-/m1/s1
