18
gdb 50108	3.81689	0.70089	0.62142	2.5151	81.35	-0.2461	-0.0341	0.212	1735.8099	0.144673	-401.886999	-401.877427	-401.876483	-401.92247	34.137	
O	 0.1068799869	-0.0204985656	-0.7923808138	-0.261315
C	 0.0818384959	 1.0291300737	-0.1983118614	 0.157416
C	 1.3001283906	 1.830930247	 0.0903577734	-0.096089
C	 1.1883431636	 3.3324835698	 0.0229192015	-0.255451
N	 1.4246345337	 2.6790459357	 1.284940208	-0.069724
C	 0.3721347041	 2.7076769085	 2.2997620934	-0.148986
C	 0.6994370506	 3.8166380178	 3.3174465744	-0.348148
C	-0.2941412058	 3.8997200504	 4.3794377782	 0.291024
C	-1.1304885311	 3.9425484696	 5.2414290833	-0.437457
H	-0.8763535553	 1.4660995477	 0.1583896616	 0.077619
H	 2.2231590622	 1.3508767724	-0.223994839	 0.117549
H	 2.0116567335	 3.8985140611	-0.4037825867	 0.135671
H	 0.1964861449	 3.7455961758	-0.1659297636	 0.121934
H	-0.6325346741	 2.8869628844	 1.8903809223	 0.108581
H	 0.3545866586	 1.7393341279	 2.8093291515	 0.129619
H	 1.6942204496	 3.6257800898	 3.7356818452	 0.145368
H	 0.7649640801	 4.7776296948	 2.7916548415	 0.134123
H	-1.8603652681	 3.9910126291	 6.0110622802	 0.198265
61.6018	71.9973	87.5981	130.9674	213.0314	261.8881	301.2158	348.6362	398.7866	422.551	506.1527	553.8683	624.1287	649.3918	774.0132	791.5521	867.2527	911.6677	973.8151	1003.4175	1028.5014	1049.1923	1066.5981	1093.8749	1114.3965	1142.6424	1181.4978	1237.8882	1299.4555	1307.7073	1319.2651	1342.7248	1393.5904	1446.1212	1473.0307	1493.0006	1510.4804	1814.3606	2241.2613	2890.98	2997.4799	3029.6322	3065.7974	3082.0704	3088.571	3152.101	3181.263	3506.9161
O=CC1CN1CCC#C	O=C[C@H]1CN1CCC#C	
InChI=1S/C7H9NO/c1-2-3-4-8-5-7(8)6-9/h1,6-7H,3-5H2	InChI=1S/C7H9NO/c1-2-3-4-8-5-7(8)6-9/h1,6-7H,3-5H2/t7-,8?/m1/s1
