14
gdb 5406	5.45812	1.65514	1.28024	1.9388	66.16	-0.2554	-0.0266	0.2288	902.3564	0.109762	-378.778181	-378.771516	-378.770572	-378.809179	24.179	
C	-0.0203777271	 1.4086206087	 0.0192739089	-0.235762
O	 0.0139652188	-0.0213029304	-0.0210229745	-0.259038
C	 0.6142612182	-0.5923330855	-1.0709633224	 0.468441
N	 1.1486476265	 0.1633049977	-2.0232381467	-0.34669
C	 1.7286418767	-0.4906750322	-3.0364417175	 0.07121
N	 1.8307674664	-1.8032823529	-3.1980236657	-0.265594
C	 1.2806231613	-2.542887356	-2.2182148129	 0.029319
C	 0.6529345832	-1.9939388041	-1.1196990082	-0.231635
H	 0.9905093376	 1.8241111951	 0.0314195492	 0.141086
H	-0.5534924275	 1.8117582674	-0.8455523713	 0.141107
H	-0.5461477988	 1.657689748	 0.9414830939	 0.133213
H	 2.1651429529	 0.1325464611	-3.8140145946	 0.11937
H	 1.3529220608	-3.6220223173	-2.330628545	 0.119052
H	 0.211523301	-2.5924775097	-0.3335131032	 0.115922
117.8611	159.156	235.2956	246.9175	394.933	459.1968	570.0258	611.7022	683.4803	804.9433	852.9669	864.7688	988.228	1002.782	1022.3833	1052.9496	1080.8311	1176.8086	1189.3944	1209.2152	1276.6971	1344.7408	1350.9497	1420.3563	1465.5818	1480.1351	1496.143	1524.5849	1601.9323	1627.0961	3049.3636	3123.98	3154.6739	3158.5289	3162.4821	3218.9448
COC1=NC=NC=C1	COc1ncncc1	
InChI=1S/C5H6N2O/c1-8-5-2-3-6-4-7-5/h2-4H,1H3	InChI=1S/C5H6N2O/c1-8-5-2-3-6-4-7-5/h2-4H,1H3
