18
gdb 118634	2.24524	1.15382	0.95335	3.5851	71.65	-0.2561	-0.0374	0.2187	1310.3328	0.14406	-476.203581	-476.193377	-476.192433	-476.240046	34.361	
C	 0.4310089854	 0.6532115914	 0.5267536669	-0.245279
O	-0.2691890145	 0.2465360692	-0.6423344244	-0.236444
C	 0.4682654114	-0.5461544728	-1.5382858995	-0.105477
C	 0.5275877483	-2.0267267175	-1.1354171962	-0.006679
O	 1.4743190232	-2.1795852356	-0.0960655448	-0.189013
C	 1.8140515091	-3.442395464	 0.2618290814	 0.149221
N	 2.6081269999	-3.6172614891	 1.2232515221	-0.444781
C	-0.8645185838	-2.5116688244	-0.7343791199	 0.16732
O	-1.0998472717	-3.1284934823	 0.2682357807	-0.235595
H	 0.6673001875	-0.1908124887	 1.1819390422	 0.147882
H	 1.3666749736	 1.1677663515	 0.2642953351	 0.110832
H	-0.2245684891	 1.3523653274	 1.0504465835	 0.129412
H	-0.0430173396	-0.474964302	-2.5049475282	 0.116764
H	 1.4966517592	-0.177709796	-1.6644181851	 0.116433
H	 0.8297109746	-2.6084838141	-2.0251076156	 0.104735
H	 1.3599680402	-4.2154604439	-0.369231616	 0.093145
H	 2.7827693957	-4.6111402414	 1.3549223652	 0.232647
H	-1.6551715792	-2.2635247175	-1.4758796877	 0.094875
44.5318	80.8609	94.322	113.4947	155.4408	177.9614	226.6681	254.7885	271.0371	355.4645	420.8561	568.4449	640.01	691.4252	813.5174	839.8599	879.3443	931.7158	1012.2897	1035.2383	1039.1066	1088.8711	1154.8622	1176.0426	1184.2965	1228.895	1265.196	1288.8342	1328.5496	1360.3634	1397.0068	1416.0582	1426.2662	1469.442	1484.9782	1494.1493	1510.4525	1749.3005	1845.7246	2896.059	2952.6027	3001.3911	3007.9048	3049.3484	3072.947	3085.9775	3129.9524	3523.0528
COCC(OC=N)C=O	COC[C@@H](O[CH][NH])C=O	
InChI=1S/C5H9NO3/c1-8-3-5(2-7)9-4-6/h2,4-6H,3H2,1H3	InChI=1S/C5H9NO3/c1-8-3-5(2-7)9-4-6/h2,4-6H,3H2,1H3/t5-/m0/s1
