20
gdb 102713	3.17864	0.88442	0.7603	2.2543	78.24	-0.2449	0.0173	0.2621	1556.7946	0.167815	-440.247986	-440.237495	-440.23655	-440.285037	35.818	
C	 0.2982306331	 0.9264882117	 0.7749638646	-0.246071
O	-0.1207669845	 0.0057722035	-0.2308809813	-0.258779
C	-1.4132878255	-0.4642750458	-0.2131841505	 0.396107
C	-1.4053460234	-1.9570495042	-0.4558271724	-0.320498
C	-2.7722288373	-2.5920761853	-0.4655886558	 0.122329
C	-2.9419840261	-4.0268214718	-0.2076245907	-0.189973
O	-3.2678611538	-3.0592638047	 0.7906574973	-0.232842
N	-2.490189732	 0.1797015914	-0.085779869	-0.273189
C	-2.5377091615	 1.6286246263	-0.0151384778	-0.331154
H	 1.3713738263	 0.7690142538	 0.9073542117	 0.134266
H	 0.12545635	 1.9668881994	 0.4846320077	 0.125317
H	-0.2113716907	 0.7307822333	 1.7241597745	 0.132331
H	-0.8977835382	-2.1295715807	-1.4152424768	 0.127231
H	-0.7826129496	-2.4388258641	 0.3064742421	 0.124259
H	-3.5169317143	-2.0802057432	-1.0715884702	 0.104104
H	-3.787178961	-4.559754315	-0.6414992705	 0.111375
H	-2.0692064681	-4.6442020888	 0.0054432872	 0.106533
H	-2.4226788032	 1.9866371328	 1.0151899199	 0.124905
H	-1.7783165926	 2.1199565732	-0.6365865449	 0.11748
H	-3.5227072977	 1.9578973082	-0.3585539951	 0.126268
41.957	58.23	73.0654	115.6763	151.6045	188.1659	230.8588	270.2427	303.4199	334.4646	357.2498	462.2775	611.5588	685.1532	800.9173	810.4454	866.6064	950.5232	960.7331	1018.384	1072.3877	1095.3193	1109.3316	1130.6308	1156.1252	1163.2085	1164.9615	1172.7162	1196.5398	1218.3233	1240.8247	1295.9748	1337.6803	1436.8116	1443.7864	1453.9333	1476.7312	1486.3648	1494.5203	1509.2001	1517.6668	1533.3355	1772.503	3006.4048	3023.0518	3030.9799	3068.9599	3070.8669	3076.7038	3090.6542	3103.5521	3120.564	3138.4003	3161.8608
COC(CC1CO1)=NC	COC(=NC)C[C@H]1CO1	
InChI=1S/C6H11NO2/c1-7-6(8-2)3-5-4-9-5/h5H,3-4H2,1-2H3	InChI=1S/C6H11NO2/c1-7-6(8-2)3-5-4-9-5/h5H,3-4H2,1-2H3/t5-/m0/s1
