17
gdb 27208	3.3653	1.60595	1.10206	3.4524	84.06	-0.1959	-0.0172	0.1787	1073.5112	0.138815	-380.925773	-380.91838	-380.917436	-380.957788	28.222	
C	 0.0037276731	 1.5187885695	 0.0864330174	-0.489822
C	 0.0443083932	 0.0301342468	-0.0272766983	 0.141262
C	-0.0049220068	-0.7625264208	-1.1535411359	 0.288707
C	-0.0992448065	-0.8158394625	-2.5987138241	-0.215908
C	-0.0842112309	-2.1006856706	-2.997256686	-0.104014
C	 0.0253206457	-3.0292339558	-1.8006303709	-0.244659
N	 0.0672999639	-2.0709807833	-0.703049209	-0.034452
C	 0.1557159913	-2.0246463253	 0.6499137807	-0.021235
N	 0.1445351253	-0.7796274688	 1.0870724508	-0.328448
H	 0.9066558337	 1.9022473915	 0.57433249	 0.13363
H	-0.0766340444	 1.9889024736	-0.8976822232	 0.111594
H	-0.8498330804	 1.8454782383	 0.6906433871	 0.133626
H	-0.1699071078	 0.0511565687	-3.2403872965	 0.116144
H	-0.1396998544	-2.4696683074	-4.0116604005	 0.110716
H	-0.8349571982	-3.7046872641	-1.7123827063	 0.13797
H	 0.9313355768	-3.6476114701	-1.8297693278	 0.13797
H	 0.2253095763	-2.9074840298	 1.2677781326	 0.126918
85.3658	156.9291	200.5635	247.8073	306.779	451.1761	497.3485	609.9851	645.9917	672.1167	687.7869	755.6472	807.1183	807.8577	872.5902	942.69	942.8348	982.5864	993.3682	1057.0447	1059.544	1146.3964	1182.0341	1188.0551	1248.0853	1267.7544	1314.0975	1362.1684	1384.6601	1411.0014	1422.284	1474.6917	1476.6802	1490.9039	1512.3047	1604.5689	1644.906	3021.817	3030.6253	3051.0293	3083.6525	3111.4894	3225.8134	3246.7424	3247.9402
CC1=C2C=CCN2C=N1	Cc1c2C=CCn2cn1	
InChI=1S/C7H8N2/c1-6-7-3-2-4-9(7)5-8-6/h2-3,5H,4H2,1H3	InChI=1S/C7H8N2/c1-6-7-3-2-4-9(7)5-8-6/h2-3,5H,4H2,1H3
