16
gdb 98751	3.8091	0.94758	0.82744	3.835	68.78	-0.2628	-0.0556	0.2073	1350.9923	0.121923	-475.021043	-475.012007	-475.011063	-475.055791	31.564	
O	-0.1563639299	 1.4035545344	 0.0589769923	-0.416406
C	-0.1267486174	 0.0384515984	-0.2136160216	-0.129116
C	-1.3475785514	-0.6713854798	 0.3449157834	 0.357812
O	-2.2229884408	-0.0325170412	 0.8920250115	-0.332931
C	-1.4025859323	-2.1598351781	 0.1955682064	-0.140792
C	-1.7430895758	-2.9611179072	 1.4444625038	-0.224043
N	-2.6603435393	-2.8599349283	 0.3533788345	-0.063596
C	-3.9289693426	-2.2776820725	 0.444307482	 0.164648
O	-4.6972596648	-2.4941745879	 1.3425068441	-0.278362
H	-1.0020764067	 1.5617968777	 0.5074504659	 0.2994
H	-0.0956880391	-0.1609262828	-1.2998932887	 0.123442
H	 0.7755542982	-0.4366376279	 0.2073332203	 0.125435
H	-0.7087095105	-2.5906063831	-0.5228177669	 0.117164
H	-1.2587343218	-3.922040949	 1.5911250853	 0.141081
H	-1.9765548494	-2.393669607	 2.341680317	 0.159693
H	-4.1744723164	-1.6860169557	-0.4544452195	 0.096572
46.202	91.2285	115.6816	190.4769	223.9177	240.5293	309.882	355.4823	392.8993	424.3542	561.7438	614.1142	713.6103	812.6357	853.4729	966.6492	980.2188	1025.91	1031.5825	1052.7345	1084.7596	1099.5554	1132.4998	1153.7792	1167.2458	1242.995	1309.8569	1361.1442	1416.7524	1418.4443	1450.4291	1487.4927	1499.2676	1785.1712	1818.4978	2956.6005	2980.9514	2988.2296	3114.4035	3138.2179	3212.1442	3696.1202
OCC(=O)C1CN1C=O	OCC(=O)[C@H]1CN1C=O	
InChI=1S/C5H7NO3/c7-2-5(9)4-1-6(4)3-8/h3-4,7H,1-2H2	InChI=1S/C5H7NO3/c7-2-5(9)4-1-6(4)3-8/h3-4,7H,1-2H2/t4-,6?/m1/s1
