20
gdb 14308	3.48132	1.5957	1.56481	1.3177	73.8	-0.2467	0.0723	0.319	952.033	0.178447	-349.003454	-348.99568	-348.994736	-349.035333	30.652	
C	 0.0370457104	 1.5674631927	-0.0002964034	-0.406293
C	 0.064577461	 0.0405500057	 0.0004956182	 0.072854
C	 0.8089674713	-0.5890463073	-1.2049920456	-0.237386
C	 1.2703518869	-1.9655356178	-0.7256139612	-0.080789
C	 2.5428171003	-2.0272190503	 0.0668212893	 0.093062
O	 3.3925830941	-0.9174583222	 0.0198369383	-0.411153
C	 1.2218486655	-1.9666912959	 0.8007580574	-0.10477
C	 0.7348770536	-0.589532889	 1.2485798539	-0.232919
H	 1.0550138988	 1.9734025252	 0.0267980349	 0.116705
H	-0.4533051715	 1.9581081956	-0.8985736166	 0.109645
H	-0.5032303252	 1.9596671611	 0.8683847671	 0.107322
H	-0.9696196198	-0.3293655094	-0.0283598083	 0.067462
H	 0.1611796028	-0.6705464054	-2.0825070085	 0.090153
H	 1.6673094686	 0.0296924807	-1.4877884513	 0.114278
H	 0.9901257837	-2.8424776789	-1.2984255716	 0.081528
H	 3.0622006352	-2.9859398144	 0.0778333895	 0.078229
H	 3.8037811268	-0.8195506523	 0.8851689508	 0.288037
H	 0.9072770405	-2.8441267992	 1.3555106107	 0.078297
H	 1.5728844113	 0.0373821654	 1.5792519884	 0.083382
H	 0.0400160956	-0.6649883641	 2.0899304379	 0.092355
69.7851	215.4131	252.3038	261.8263	289.7273	302.7891	413.0203	503.3793	537.4672	600.9297	695.5984	768.2991	780.6619	825.2054	880.2137	909.6348	929.3756	934.8359	1015.5707	1025.5945	1048.0518	1052.1945	1098.2183	1114.6973	1138.0619	1162.0301	1197.0852	1226.6565	1259.8356	1287.3735	1295.9058	1306.0078	1332.2043	1356.5741	1358.9756	1377.9106	1409.1073	1445.7618	1483.8013	1494.2245	1498.0761	1502.9861	3001.8921	3021.6423	3025.0144	3047.1035	3080.3357	3087.2537	3090.8072	3091.6182	3093.9664	3158.3486	3169.816	3803.9697
CC1CC2C(O)C2C1	C[C@H]1C[C@H]2[C@@H](O)[C@H]2C1	
InChI=1S/C7H12O/c1-4-2-5-6(3-4)7(5)8/h4-8H,2-3H2,1H3	InChI=1S/C7H12O/c1-4-2-5-6(3-4)7(5)8/h4-8H,2-3H2,1H3/t4-,5+,6-,7+
