21
gdb 26165	2.50178	1.32941	1.05619	1.6217	87.01	-0.1926	0.0489	0.2414	1252.3717	0.182436	-383.296674	-383.286895	-383.285951	-383.331736	36.146	
C	 0.025158506	 1.473006752	-0.0343403465	-0.319563
N	-0.0121786473	 0.0185180919	 0.0623069549	-0.157325
C	 0.8325706232	-0.4792565615	 1.1416113572	-0.319562
C	-1.3322272215	-0.5182395951	 0.077552378	 0.193112
C	-1.8430134327	-1.3289813616	-0.9179231852	 0.243928
C	-1.2026717453	-1.8189408074	-2.1711979372	-0.508695
N	-3.131140178	-1.6438392382	-0.5562654677	-0.298764
C	-3.4508071286	-1.0534818076	 0.6436383478	-0.089329
C	-2.3548807975	-0.3453558209	 1.0668659013	-0.219451
H	 1.0573139325	 1.8028418397	-0.1995240666	 0.107873
H	-0.5818459965	 1.7992623156	-0.8826290266	 0.118716
H	-0.350228947	 1.9841207633	 0.8714339145	 0.090936
H	 0.522340499	-0.1255715768	 2.142233863	 0.090936
H	 0.812373068	-1.571977529	 1.1480796869	 0.118717
H	 1.8660598044	-0.1526693319	 0.9783308431	 0.107874
H	-1.1448523704	-2.9141489651	-2.2115589437	 0.118945
H	-1.7352097652	-1.4864148833	-3.0713538305	 0.118952
H	-0.1857272807	-1.4226534638	-2.2113982201	 0.14756
H	-3.7493484564	-2.2243733789	-1.0952357674	 0.254864
H	-4.4245687221	-1.1896197429	 1.0862079752	 0.111728
H	-2.2869724742	 0.2308239514	 1.9769286595	 0.088548
26.2462	153.1127	160.5464	162.7296	229.0828	239.9417	239.9958	287.2018	372.4528	441.7198	461.3767	483.1755	596.8362	641.7174	691.2536	700.8874	744.6808	828.8637	904.5007	954.9001	975.3538	1059.5403	1066.2303	1082.7655	1107.8496	1119.5182	1164.6947	1183.5094	1217.6374	1233.4427	1277.3697	1349.8035	1398.1354	1428.1007	1438.7464	1459.1591	1478.6729	1478.9021	1490.2207	1493.2966	1495.936	1498.6835	1511.2648	1528.5319	1635.7421	2932.9082	2939.7931	3013.1329	3049.6525	3052.4834	3056.1409	3109.6443	3112.3379	3128.9108	3243.5196	3266.8163	3680.5765
CN(C)C1=C(C)NC=C1	CN(C)c1c(C)[nH]cc1	
InChI=1S/C7H12N2/c1-6-7(9(2)3)4-5-8-6/h4-5,8H,1-3H3	InChI=1S/C7H12N2/c1-6-7(9(2)3)4-5-8-6/h4-5,8H,1-3H3
