21
gdb 39610	3.61511	1.2567	1.22935	0.1328	87.15	-0.2322	0.0284	0.2606	1125.0581	0.184913	-349.979732	-349.972131	-349.971187	-350.011768	31.053	
C	-0.0342239603	 1.5343890814	 0.0307462723	-0.299112
C	 1.4236630603	 1.9241548895	 0.0623244397	-0.062359
C	 2.2128988663	 0.9102849298	-0.2888698331	-0.059225
C	 1.4147366356	-0.3297761556	-0.6114197916	-0.329006
C	 0.0070615122	-0.0254476508	-0.030296709	 0.356736
C	-0.1856672011	-0.5890589106	 1.4131415388	-0.299124
C	-1.657224403	-0.9207156683	 1.4678936189	-0.062385
C	-2.2029947668	-0.9436698834	 0.2530729472	-0.059219
C	-1.1877575113	-0.6277831254	-0.8185693618	-0.328936
H	-0.6053311345	 1.8980107795	 0.8924946701	 0.102336
H	-0.5211605566	 1.9584271885	-0.8598671214	 0.097909
H	 1.7584590255	 2.9276787221	 0.3018933167	 0.086948
H	 3.2924381661	 0.9555211132	-0.382782163	 0.087798
H	 1.3725175272	-0.4836410154	-1.7004107826	 0.099981
H	 1.8448346944	-1.2470407701	-0.1920688907	 0.096343
H	 0.4141029265	-1.4972714682	 1.5729956156	 0.097907
H	 0.132945335	 0.125546194	 2.1804836032	 0.102334
H	-2.1733013064	-1.1522015919	 2.3934266767	 0.086954
H	-3.2334315228	-1.198097624	 0.0300574425	 0.087801
H	-1.5631572865	 0.0583649408	-1.5869866781	 0.096342
H	-0.89402501	-1.5467351651	-1.3483147503	 0.099978
93.4	107.3295	266.9949	354.5726	370.9664	398.1997	425.0349	470.7275	660.1228	685.6227	737.0854	774.3095	779.8545	801.579	893.5326	925.4983	936.9752	964.9263	966.0993	973.4225	974.4948	980.2996	984.599	990.636	1078.074	1102.3518	1106.0962	1130.2015	1135.9092	1162.5708	1172.2488	1246.7721	1258.1542	1292.7529	1293.1826	1325.6087	1345.4827	1366.8574	1368.4584	1479.0915	1483.8925	1487.1343	1500.5754	1684.5529	1688.2657	2988.3194	2995.0627	2995.9492	2998.271	3045.3144	3046.1398	3051.8654	3057.8684	3178.0884	3178.1145	3203.6659	3204.2523
C1C=CCC11CC=CC1	C1C=CCC21CC=CC2	
InChI=1S/C9H12/c1-2-6-9(5-1)7-3-4-8-9/h1-4H,5-8H2	InChI=1S/C9H12/c1-2-6-9(5-1)7-3-4-8-9/h1-4H,5-8H2
