23
gdb 60148	4.25428	0.73764	0.65934	3.0164	86.91	-0.2384	-0.0158	0.2227	1740.9081	0.203318	-388.311231	-388.301025	-388.300081	-388.347199	37.837	
C	-0.1323629407	 1.5927754929	 0.0531700451	-0.388784
C	 0.0211340646	 0.0652943956	 0.0675454855	 0.037646
C	 0.8659175199	-0.3770191649	 1.2705827518	-0.378861
C	-1.363214102	-0.6091754021	 0.0163253061	-0.193398
C	-1.3693791098	-2.1256744404	-0.1670843355	 0.018688
C	-1.1334282876	-3.0542863376	 1.0725493929	-0.353872
C	-2.3772302579	-3.8502533926	 0.6506695913	 0.397717
O	-2.8226286069	-4.9182096739	 0.955545134	-0.291569
C	-2.7679002241	-2.7899789531	-0.3887310264	-0.363527
H	 0.8437251256	 2.088439987	 0.0345513541	 0.110837
H	-0.6982031006	 1.9310373139	-0.82127978	 0.109765
H	-0.6627492503	 1.9411126205	 0.9477619561	 0.112379
H	 0.5599372169	-0.2254663537	-0.8464429022	 0.071912
H	 1.0696949045	-1.451038978	 1.2602428888	 0.117963
H	 1.8304252795	 0.1414150933	 1.2780276256	 0.110483
H	 0.358360535	-0.1412946623	 2.2139472831	 0.109768
H	-1.9279311623	-0.3529718136	 0.9256608906	 0.087571
H	-1.9239439466	-0.1670453056	-0.8184719413	 0.096009
H	-0.690371741	-2.4034254564	-0.9802820739	 0.079448
H	-0.200812003	-3.6206081964	 1.1348497194	 0.127553
H	-1.2918485668	-2.5431830176	 2.0290422198	 0.12887
H	-3.5945389657	-2.1660814357	-0.027535377	 0.127085
H	-3.0213269403	-3.1548868894	-1.387449168	 0.126315
42.2419	60.1279	96.79	161.9125	226.6561	255.7001	271.4012	291.9794	393.835	410.6163	426.7358	435.3228	492.1867	655.9879	676.6637	767.0163	819.5155	854.2205	916.8089	926.4822	936.0461	959.5962	967.3851	996.7509	1019.8296	1090.7504	1103.5748	1136.3702	1149.0104	1191.7803	1196.8399	1213.8419	1238.529	1254.4899	1277.5556	1321.6346	1363.7742	1371.4263	1389.0388	1400.2625	1421.8709	1424.7138	1445.5033	1477.9405	1487.8796	1495.3441	1505.3867	1510.0616	1892.9555	2988.8915	2997.4007	3022.9473	3029.1774	3032.2031	3041.0505	3049.3114	3053.026	3087.2756	3092.7856	3099.1619	3107.5194	3110.4066	3112.8213
CC(C)CC1CC(=O)C1	CC(C)CC1CC(=O)C1	
InChI=1S/C8H14O/c1-6(2)3-7-4-8(9)5-7/h6-7H,3-5H2,1-2H3	InChI=1S/C8H14O/c1-6(2)3-7-4-8(9)5-7/h6-7H,3-5H2,1-2H3
