19
gdb 31815	4.60687	0.9892	0.87157	0.0867	86.9	-0.2385	-0.0432	0.1953	1392.1403	0.160085	-382.138621	-382.12973	-382.128786	-382.173229	32.147	
C	 0.0439657387	 1.5089447085	-0.331163091	-0.370358
C	-0.0140256572	 0.0479442312	 0.1434565626	-0.271757
C	-1.4117113759	-0.5152142774	 0.0980547877	 0.312627
N	-2.313653337	-0.0105895998	 0.9491142191	-0.292099
C	-3.5477094803	-0.5051072477	 0.888846617	-0.066254
C	-3.9228938855	-1.5078663762	-0.0107212603	 0.313848
C	-5.3224819855	-2.055413207	-0.0638988538	-0.471928
N	-3.0215446232	-2.0139560755	-0.8614387562	-0.293865
C	-1.7875685774	-1.5189224529	-0.80017093	-0.072905
H	 1.0586976706	 1.907491477	-0.2401746815	 0.113935
H	-0.2626958608	 1.5960472204	-1.3785970215	 0.116651
H	-0.6267599063	 2.1279874759	 0.270610799	 0.138431
H	 0.6498232611	-0.5737985238	-0.4669514409	 0.102338
H	 0.3488431958	-0.008972285	 1.1760554632	 0.119709
H	-4.2742015029	-0.0918998227	 1.5855430416	 0.106402
H	-5.9709333204	-1.5704881946	 0.6700491787	 0.123133
H	-5.753089261	-1.9105792313	-1.059820663	 0.142667
H	-5.3204355728	-3.1327073337	 0.1304123363	 0.14276
H	-1.0596296199	-1.9364429254	-1.4929364071	 0.106664
42.2753	70.9851	97.4759	207.2897	224.1073	306.038	379.8834	397.1521	426.4863	495.6993	573.7	658.9599	727.8552	785.9913	807.4418	867.494	921.4083	972.984	981.652	1004.6464	1053.1273	1062.3762	1077.3321	1086.268	1230.3437	1249.1476	1276.9708	1281.3374	1340.1097	1346.3523	1383.0315	1403.3849	1413.0734	1476.5308	1480.1279	1488.8851	1496.0191	1507.5804	1520.645	1573.2429	1620.3774	3037.4905	3039.7163	3041.8149	3077.0863	3102.3625	3109.4034	3124.4683	3125.3148	3145.7199	3150.1656
CCC1=NC=C(C)N=C1	CCc1ncc(C)nc1	
InChI=1S/C7H10N2/c1-3-7-5-8-6(2)4-9-7/h4-5H,3H2,1-2H3	InChI=1S/C7H10N2/c1-3-7-5-8-6(2)4-9-7/h4-5H,3H2,1-2H3
