18
gdb 29694	2.44297	1.5922	0.98077	1.6588	76.19	-0.1822	0.0485	0.2307	1192.9397	0.147808	-435.307004	-435.297273	-435.296328	-435.341734	34.733	
C	 0.0744998399	 1.4666185411	-0.0069718927	-0.349411
N	 0.0476066657	 0.0181542912	-0.0010983016	-0.094898
C	-0.0193994913	-0.8388202965	-1.0866092186	 0.309918
C	-0.0764982185	-0.3476966724	-2.492631408	-0.501128
N	-0.0248008724	-2.0955388306	-0.7063069353	-0.340177
C	 0.0405392568	-2.0792239994	 0.67366862	 0.075536
N	 0.0608263954	-3.1978237287	 1.5457476414	-0.619528
C	 0.0851205776	-0.7862560376	 1.1104538088	 0.340216
O	 0.1533233762	-0.2555704373	 2.351304272	-0.448716
H	 0.9480859645	 1.8423928039	-0.5493046931	 0.138876
H	-0.8284305929	 1.8755317865	-0.4716567936	 0.138901
H	 0.1261457595	 1.8154403193	 1.0248883344	 0.16382
H	 0.8056650416	 0.2463393705	-2.7634570758	 0.124755
H	-0.1231751739	-1.2130444162	-3.1551877115	 0.15212
H	-0.9582153672	 0.2781054729	-2.6807540278	 0.124773
H	 0.8532805306	-3.8015386787	 1.3423821767	 0.238764
H	-0.769094043	-3.7713587838	 1.4188536223	 0.238764
H	 0.1672834617	-1.0164961743	 2.9488438825	 0.307416
47.945	131.3505	142.0574	179.4533	213.8746	249.4561	261.2182	289.5397	295.4442	348.2415	464.7231	581.9701	595.0081	618.9109	679.5253	691.724	752.9535	883.4406	892.7574	1016.5509	1058.2836	1064.3186	1152.6751	1188.6973	1219.3825	1223.4654	1299.1972	1343.4235	1399.4473	1420.8529	1462.4515	1477.8824	1483.3055	1494.4376	1510.1765	1548.9287	1580.0537	1645.5374	1700.4755	3014.9075	3037.0374	3057.6993	3093.3073	3143.4777	3151.2149	3476.7567	3534.4745	3762.0364
CN1C(C)=NC(N)=C1O	Cn1c(C)nc(N)c1O	
InChI=1S/C5H9N3O/c1-3-7-4(6)5(9)8(3)2/h9H,6H2,1-2H3	InChI=1S/C5H9N3O/c1-3-7-4(6)5(9)8(3)2/h9H,6H2,1-2H3
