19
gdb 57618	4.15777	0.842	0.83336	2.9516	79.59	-0.3297	0.0006	0.3303	1410.1788	0.157434	-382.114361	-382.104302	-382.103357	-382.149315	36.308	
C	 0.0093323685	 1.5825780652	 0.058835834	-0.425531
C	 0.0376187152	 0.0460902613	 0.0636148853	 0.229159
C	 0.7779022662	-0.4781298939	 1.3041014173	-0.425536
C	-1.4131763418	-0.5156134766	 0.0294752081	-0.364802
C	-2.2147988298	-0.1167073792	 1.1839487006	 0.273843
N	-2.8391297159	 0.2055180038	 2.1014516244	-0.311499
C	 0.7231324208	-0.4802151595	-1.2304314931	-0.364802
C	 2.111064705	-0.044968292	-1.3673163735	 0.273842
N	 3.2078143711	 0.3058209892	-1.4648715843	-0.311499
H	 1.0251745879	 1.9867977633	 0.0499452288	 0.147314
H	-0.5161168964	 1.9692968688	-0.8213958053	 0.117491
H	-0.4997536359	 1.9615153806	 0.9491427552	 0.147314
H	 0.2841857165	-0.1400398376	 2.219166814	 0.147307
H	 0.8050173532	-1.5733406066	 1.3194476651	 0.117488
H	 1.8090237445	-0.1148836629	 1.3198154088	 0.147307
H	-1.9273109171	-0.1749343358	-0.8773621526	 0.150657
H	-1.3916048705	-1.6114230086	-0.0089591931	 0.150645
H	 0.7060616274	-1.5766669571	-1.246014785	 0.150646
H	 0.169909501	-0.1402341324	-2.1142346547	 0.150656
67.8158	95.2317	106.7274	175.3212	231.6789	267.5111	279.2286	319.3628	383.6008	388.9399	395.7586	395.9187	404.4585	485.293	642.5862	759.2089	867.8268	896.1572	901.6682	953.4619	958.9215	985.7988	1003.4864	1054.856	1153.7661	1196.9963	1229.1765	1232.7287	1332.1975	1334.5296	1350.8561	1411.6149	1433.5006	1458.0076	1468.7977	1484.7598	1493.2342	1509.7977	1510.9956	2361.3472	2361.6116	3031.8341	3034.6449	3036.4567	3041.9966	3071.5475	3075.8458	3107.3462	3109.7838	3123.7879	3127.7319
CC(C)(CC#N)CC#N	CC(C)(CC#N)CC#N	
InChI=1S/C7H10N2/c1-7(2,3-5-8)4-6-9/h3-4H2,1-2H3	InChI=1S/C7H10N2/c1-7(2,3-5-8)4-6-9/h3-4H2,1-2H3
