16
gdb 44457	4.3534	1.47257	1.35202	4.1467	70.2	-0.2587	0.0413	0.3	952.834	0.1264	-437.818105	-437.811846	-437.810901	-437.848623	26.128	
N	-0.1318083204	 1.287120776	-0.0922136702	-0.557053
C	-0.0134093417	 0.044571301	 0.0088478109	 0.446836
O	 1.1793182364	-0.6780960854	-0.0554806181	-0.287836
C	 0.7881278762	-2.050243131	-0.1879214972	 0.091075
C	 0.8426527311	-3.2227157036	 0.8517342355	-0.123743
C	 0.2029764713	-2.2762883993	 1.8899080485	-0.283488
C	-0.5224283112	-2.0119986865	 0.5341965402	 0.401705
C	-0.6367624408	-3.541427747	 0.3317055508	-0.305151
O	-1.1092694625	-0.7750578652	 0.2191765986	-0.284827
H	 0.7720927821	 1.7126607421	-0.2850971564	 0.237323
H	 0.8141658711	-2.3381476426	-1.2417940525	 0.094421
H	 1.6273738424	-3.9585571999	 1.0079195835	 0.101677
H	-0.3923055371	-2.7429838913	 2.6757468598	 0.104785
H	 0.8308085804	-1.4710379909	 2.2693340899	 0.125383
H	-0.7340659599	-3.9029901324	-0.6936220524	 0.118527
H	-1.2609358775	-4.0990812738	 1.0308433792	 0.120364
122.9261	316.0639	339.8376	437.3186	490.8981	534.5266	563.1581	721.3072	731.2436	761.8295	774.3437	816.9235	844.8247	869.6914	902.3957	928.8395	947.6322	961.9576	994.6753	1021.9277	1053.2662	1072.7707	1087.2328	1126.8767	1163.8713	1174.7893	1200.2235	1228.6869	1247.7679	1263.5204	1299.4883	1396.2378	1494.7131	1535.7692	1805.5671	3076.2402	3082.3217	3087.7276	3152.8542	3153.2965	3161.8078	3535.8445
N=C1OC2C3CC2(C3)O1	[NH][C]1O[C@H]2[C@H]3C[C@@]2(C3)O1	
InChI=1S/C6H7NO2/c7-5-8-4-3-1-6(4,2-3)9-5/h3-4,7H,1-2H2	InChI=1S/C6H7NO2/c7-5-8-4-3-1-6(4,2-3)9-5/h3-4,7H,1-2H2/t3-,4-,6-/m0/s1
