19
gdb 94597	3.16906	1.06962	0.87413	2.2215	72.24	-0.2517	0.0076	0.2593	1354.2465	0.15667	-460.184832	-460.174977	-460.174033	-460.22144	33.882	
C	-0.2891113606	 1.5313957325	 0.063629847	-0.392421
C	 0.0800275964	 0.0643762298	-0.0240625424	 0.114429
O	 1.3556831986	-0.1553839597	-0.6785418836	-0.294007
C	 1.8984890667	-0.8305197563	 0.4755661987	-0.088821
C	 0.5826049456	-0.6562315372	 1.2475182428	 0.072042
O	 0.6291945601	 0.1992561839	 2.3894394348	-0.24593
C	 1.1684583778	-0.3512252463	 3.5031574582	 0.427361
C	 1.1297622876	 0.6227599233	 4.6541815501	-0.479838
O	 1.6101955868	-1.4714810263	 3.5378220707	-0.350154
H	 0.4690807364	 2.0962963945	 0.6098647331	 0.126774
H	-0.3752172021	 1.9433325509	-0.946271389	 0.127702
H	-1.2508932944	 1.657679537	 0.5712256866	 0.118662
H	-0.7121057944	-0.497169793	-0.5377087136	 0.080105
H	 2.1845290922	-1.8658312182	 0.2610299138	 0.113983
H	 2.7542695753	-0.2981727632	 0.9063209224	 0.108641
H	 0.0709702702	-1.5818081005	 1.5128250322	 0.106217
H	 0.0939277081	 0.8892853462	 4.883304164	 0.152205
H	 1.5986053603	 0.1710939385	 5.5273325693	 0.151132
H	 1.6499774195	 1.5457573242	 4.3836034951	 0.15192
38.7042	56.6504	62.1961	119.5815	134.6073	211.5199	248.0352	345.8151	386.9946	435.7946	526.1483	609.5591	630.2784	760.7788	847.3486	882.0521	892.4373	939.1136	1002.9341	1020.992	1033.3139	1064.5945	1069.5081	1099.9213	1145.1171	1162.3418	1174.9979	1252.8713	1266.0665	1292.9949	1352.8952	1381.0326	1390.1905	1402.1088	1411.4859	1468.9277	1475.6682	1484.4638	1490.144	1513.0803	1822.7451	3008.0524	3029.6688	3043.9567	3057.32	3076.3343	3108.7588	3112.9286	3122.0503	3135.0672	3170.2523
CC1OCC1OC(C)=O	C[C@H]1OC[C@H]1OC(=O)C	
InChI=1S/C6H10O3/c1-4-6(3-8-4)9-5(2)7/h4,6H,3H2,1-2H3	InChI=1S/C6H10O3/c1-4-6(3-8-4)9-5(2)7/h4,6H,3H2,1-2H3/t4-,6-/m1/s1
