17
gdb 41133	2.87392	2.28458	1.7275	1.631	75.89	-0.2148	-0.0059	0.2089	830.7403	0.137017	-384.544523	-384.538403	-384.537458	-384.574417	26.813	
C	 0.0527975354	 1.5560080922	 0.1726023788	-0.189237
O	 1.4626265158	 1.5374171317	-0.3084785692	-0.34471
C	 1.159002228	 0.2532764033	-0.858301044	 0.400973
C	 0.3583320982	 0.0901997839	-2.1706928762	-0.301291
C	-0.1516527185	-0.9892803979	-1.2083121287	-0.107122
C	 1.3595196096	-1.3244580499	-0.7539855566	-0.146645
C	 1.3093833144	-1.67378235	 0.7161615697	-0.092009
C	 0.4226824395	-0.8147753767	 1.2239576187	-0.14411
C	-0.0489875862	 0.0107530634	 0.0454371131	 0.120943
H	 0.0055351741	 1.9309835553	 1.1977540636	 0.12218
H	-0.5702541447	 2.16682743	-0.4863094137	 0.118835
H	-0.3418820651	 0.8873933218	-2.4274061949	 0.100077
H	 0.9108145872	-0.2521445849	-3.0476801162	 0.098217
H	-0.9268504275	-1.7371488247	-1.3948946727	 0.084809
H	 2.0037798023	-1.8757136075	-1.4416776355	 0.072802
H	 1.8725802722	-2.457359876	 1.202129453	 0.105702
H	 0.0722269855	-0.710673964	 2.2419152008	 0.100586
264.665	311.4704	359.8124	451.7166	460.6597	535.5394	605.2642	674.397	692.8834	722.7611	804.0423	820.7379	843.1585	872.4857	882.5637	907.2457	926.7408	949.0227	965.0663	987.8655	1031.4412	1070.2177	1081.9896	1098.1977	1124.152	1145.4068	1163.2504	1175.6117	1195.9657	1202.3217	1230.979	1283.2992	1310.6092	1334.3952	1491.6824	1519.4916	1627.1456	3053.7834	3067.9614	3081.6951	3104.1999	3116.8038	3131.9604	3216.7274	3246.0064
C1OC23CC4C2C=CC134	C1O[C@@]23C[C@H]4[C@@H]2C=C[C@@]134	
InChI=1S/C8H8O/c1-2-7-4-9-8(7)3-6(7)5(1)8/h1-2,5-6H,3-4H2	InChI=1S/C8H8O/c1-2-7-4-9-8(7)3-6(7)5(1)8/h1-2,5-6H,3-4H2/t5-,6-,7-,8-/m0/s1
