15
gdb 85106	2.05275	1.6217	1.24995	3.6102	67.56	-0.2918	-0.0246	0.2672	1058.2414	0.110862	-453.948189	-453.939278	-453.938333	-453.981885	31.928	
C	 0.2581826981	 1.5150699168	-0.1300401864	-0.405809
C	-0.0417183604	 0.0562672942	 0.1041583863	 0.107316
O	 0.6872875054	-0.8290190446	-0.825422826	-0.261934
C	 1.3458467195	-1.4595480727	 0.1925909677	 0.39938
N	 2.2377759654	-2.3344917642	 0.2264978049	-0.540479
C	 0.6711763083	-0.6505964073	 1.3033561851	 0.107815
O	 1.5292121028	 0.1858590496	 2.0290199238	-0.440179
C	-0.2212808761	-1.4207057656	 2.1803008421	 0.250715
N	-0.9273782534	-2.0177757782	 2.8728486061	-0.325465
H	 1.326233211	 1.7156808389	-0.0343765696	 0.145986
H	-0.0761613016	 1.8008499141	-1.1311933028	 0.139792
H	-0.2773770763	 2.1264021802	 0.6022360462	 0.144136
H	-1.1088012053	-0.1683980253	 0.046582793	 0.123065
H	 2.5263922373	-2.6382395818	-0.7044218561	 0.243557
H	 2.2593076953	-0.3567070641	 2.3537233456	 0.312104
83.2194	117.6589	158.9926	190.1797	215.0105	260.6078	312.3086	329.8409	415.3532	488.682	546.9209	604.2427	637.2708	693.5253	766.7931	864.2271	867.1465	921.0443	1022.6438	1029.7619	1069.0737	1119.0257	1165.5764	1184.8402	1241.2719	1340.1008	1355.2138	1382.6015	1413.9106	1483.6969	1486.8364	1833.412	2357.7666	3054.0832	3096.5294	3124.8776	3151.7412	3488.8445	3787.8295
CC1OC(=N)C1(O)C#N	C[C@H]1O[C]([NH])[C@]1(O)C#N	
InChI=1S/C5H6N2O2/c1-3-5(8,2-6)4(7)9-3/h3,7-8H,1H3	InChI=1S/C5H6N2O2/c1-3-5(8,2-6)4(7)9-3/h3,7-8H,1H3/t3-,5+/m1/s1
