14
gdb 129040	3.06642	1.54127	1.02572	4.4944	84.08	-0.2085	-0.0477	0.1608	1079.7385	0.102358	-395.69935	-395.691794	-395.69085	-395.731403	28.999	
N	-0.0942304496	 1.3552540062	 0.0109659496	-0.53875
C	 0.0264131272	 0.0748465165	 0.0031889336	 0.229201
C	 1.2524081127	-0.7075514697	-0.0084353662	-0.205734
C	 1.1978681117	-2.0563470995	-0.0156272742	 0.032177
N	-0.0061808382	-2.698105655	-0.0120786408	-0.244733
N	-1.1961822952	-2.0778322684	-0.0014925086	-0.25355
C	-1.1973035544	-0.770815967	 0.0058552336	 0.094754
C	-2.4738560873	-0.1394250213	 0.0167998683	 0.343893
C	-3.5508539284	 0.3958467567	 0.0260219365	-0.384483
H	 0.8290856397	 1.794485524	 0.0078750524	 0.2029
H	 2.2100843301	-0.2006421916	-0.0113010083	 0.109648
H	 2.0692019718	-2.7007472515	-0.0244023813	 0.136503
H	-0.0685354943	-3.7021116156	-0.0172677496	 0.28073
H	-4.4965357359	 0.8786528463	 0.0340692149	 0.197444
86.9567	150.0845	202.7512	374.4043	387.9667	415.1357	467.7332	521.3486	564.1792	578.945	591.709	627.1787	651.7765	712.8444	763.9083	825.0432	882.2396	894.9738	948.1458	1042.1821	1079.6451	1167.1754	1221.9192	1285.419	1389.3733	1426.1227	1506.3236	1593.2585	1636.6403	1687.7925	2233.9923	3194.4905	3212.5812	3439.1261	3504.6666	3662.0277
N=C1C=CNN=C1C#C	[NH]C1=CCNN=C1C#C	
InChI=1S/C6H5N3/c1-2-6-5(7)3-4-8-9-6/h1,3-4H,(H2,7,8)	InChI=1S/C6H6N3/c1-2-6-5(7)3-4-8-9-6/h1,3,7-8H,4H2
