18
gdb 10684	2.74993	1.83258	1.33665	5.0145	71.95	-0.2705	0.0235	0.294	979.1211	0.153223	-343.975819	-343.967155	-343.966211	-344.008876	31.919	
C	-0.1259758687	 1.5571275476	 0.4976552509	-0.39431
C	-0.0506703106	 0.0994635136	 0.0126898065	-0.051061
C	 0.9844177186	-0.6979829926	 0.8154769429	-0.423895
C	-1.4564313568	-0.524743024	 0.0104144909	 0.149163
C	-1.7230755294	-1.954468673	 0.3591492725	-0.273569
N	-2.1466255614	-0.8860230872	 1.2688118795	-0.325575
C	-2.3398089218	 0.0842013282	-0.9700420936	 0.29749
N	-3.005253308	 0.569164634	-1.781546047	-0.347305
H	 0.8507349971	 2.0413028159	 0.40794463	 0.11988
H	-0.8463932813	 2.1349954204	-0.0876110388	 0.146542
H	-0.4301451094	 1.6067129882	 1.5491621211	 0.118587
H	 0.2772039308	 0.1087810813	-1.0344748674	 0.103095
H	 0.6937930486	-0.8175642763	 1.8662628109	 0.115287
H	 1.1620358284	-1.6903511904	 0.3930778722	 0.127249
H	 1.9382430169	-0.1630298467	 0.8113706544	 0.129717
H	-2.53402363	-2.4775997151	-0.1378017782	 0.142501
H	-0.8743677528	-2.5734856757	 0.6296483641	 0.126242
H	-1.4892794502	-0.8011575882	 2.0412326791	 0.239964
56.4036	151.4883	206.0089	217.753	244.8989	268.7493	299.2137	371.0248	414.8864	483.4732	570.2588	598.8629	643.8628	844.389	853.8688	904.1723	932.4542	946.5803	968.7906	987.2019	1041.4286	1109.2343	1133.477	1156.9407	1188.5703	1250.5516	1276.7433	1329.2925	1344.2027	1384.0282	1407.6268	1427.6061	1485.1324	1493.3806	1502.7687	1504.799	1519.7258	2355.8204	3026.2184	3031.1382	3038.2228	3097.1113	3106.3221	3117.8489	3121.2762	3128.8143	3217.9627	3496.5398
CC(C)C1(CN1)C#N	CC(C)[C@]1(CN1)C#N	
InChI=1S/C6H10N2/c1-5(2)6(3-7)4-8-6/h5,8H,4H2,1-2H3	InChI=1S/C6H10N2/c1-5(2)6(3-7)4-8-6/h5,8H,4H2,1-2H3/t6-/m1/s1
