18
gdb 65466	3.27278	0.85651	0.75162	3.1588	75.97	-0.2499	-0.0477	0.2022	1498.5165	0.144516	-439.082975	-439.073159	-439.072215	-439.118891	33.936	
C	 0.4071897619	 1.5543092056	-0.4486418897	-0.477617
C	-0.0466008294	 0.1944435996	 0.0296737837	 0.208349
N	 0.9326474781	-0.9036735807	 0.0620713546	-0.35731
C	 0.3938368025	-0.4338340565	 1.3337095143	-0.047222
C	 1.3523714794	 0.2274051222	 2.3022617272	-0.296496
C	 2.2065613858	-0.8139975217	 3.0054942252	 0.160842
O	 2.3316445221	-0.899569298	 4.1990236049	-0.234016
C	-1.4328164547	-0.2081652527	-0.3691173542	 0.104822
O	-1.8100007274	-1.3562600752	-0.39607904	-0.269443
H	 1.4112291628	 1.7892693127	-0.0938855855	 0.139339
H	 0.4325423526	 1.5865943902	-1.5430299598	 0.135879
H	-0.2744880909	 2.3387129581	-0.102167698	 0.127572
H	 0.4456685343	-1.7574178324	-0.2143824943	 0.249981
H	-0.3593815455	-1.0644631763	 1.8035135753	 0.117165
H	 2.0363797441	 0.8868919357	 1.7558555163	 0.127919
H	 0.8215752301	 0.814663105	 3.0567439314	 0.12638
H	 2.7256732461	-1.513626593	 2.3139684453	 0.095333
H	-2.1095738218	 0.6274246276	-0.6480751067	 0.088521
51.2693	63.4615	110.9455	131.0067	157.4836	221.662	251.0082	295.2645	364.5643	421.1646	468.9175	511.2494	642.1161	753.4972	793.3927	832.6332	881.5019	954.4061	1000.7444	1018.9951	1055.1601	1087.8754	1098.4681	1117.8472	1142.3002	1205.3372	1268.0115	1286.4444	1294.7242	1344.0569	1418.5695	1418.9633	1423.7863	1449.2497	1452.5186	1485.4964	1497.8771	1801.0504	1835.1334	2895.8062	2908.1629	3039.6761	3047.0316	3099.2616	3108.1437	3128.2966	3142.7154	3457.8904
CC1(NC1CC=O)C=O	C[C@]1(N[C@H]1CC=O)C=O	
InChI=1S/C6H9NO2/c1-6(4-9)5(7-6)2-3-8/h3-5,7H,2H2,1H3	InChI=1S/C6H9NO2/c1-6(4-9)5(7-6)2-3-8/h3-5,7H,2H2,1H3/t5-,6-/m0/s1
