17
gdb 71374	2.65437	1.77526	1.27226	3.7247	72.74	-0.2293	0.0066	0.2359	1001.7501	0.134598	-421.79482	-421.786678	-421.785734	-421.827054	31.442	
C	-0.0015819973	 1.4652592336	 0.0500801224	-0.514101
C	-0.0377272327	-0.0331102362	-0.0007776292	 0.257911
C	-1.2516547126	-0.9410091185	-0.239168283	-0.29035
C	-0.3429789126	-2.1055086755	 0.2454029708	-0.193417
C	 0.5994692196	-1.0354606814	 0.9179184772	-0.166417
C	 1.2137339006	-0.8218974187	-0.485378566	 0.217455
O	 2.4090155946	-0.2033057245	-0.7477137837	-0.450656
C	 0.7448787045	-2.1992844983	-0.8536428487	 0.37674
O	 1.1720621806	-3.0858760107	-1.5370253417	-0.343707
H	 1.0048771072	 1.8237876872	 0.284365788	 0.136382
H	-0.3020888854	 1.9004336553	-0.9104256932	 0.122403
H	-0.6861714323	 1.8461662109	 0.8151612423	 0.128699
H	-2.0555589748	-0.7206246203	 0.4702860138	 0.106398
H	-1.6622431479	-1.0135236608	-1.2533901514	 0.099986
H	-0.7352876167	-3.0060329015	 0.7080066665	 0.096373
H	 1.1114868043	-0.9876412457	 1.8669053991	 0.117994
H	 2.3330702411	 0.2861099354	-1.5747569032	 0.298307
123.7542	177.3236	224.3521	235.8643	265.0731	280.239	347.172	438.9073	493.8826	537.1857	637.4932	701.9887	728.3976	787.7094	823.7686	857.7799	892.4407	920.5484	935.2295	975.9491	998.1443	1038.2726	1074.0426	1114.2479	1151.23	1167.2056	1208.1051	1234.0485	1269.233	1292.478	1379.5521	1417.8253	1434.1231	1490.1961	1496.2781	1503.1434	1879.8756	3026.8789	3029.8543	3086.0601	3088.6812	3113.1697	3170.798	3239.8833	3793.2535
CC12CC3C1C2(O)C3=O	C[C@]12C[C@@H]3[C@H]1[C@@]2(O)C3=O	
InChI=1S/C7H8O2/c1-6-2-3-4(6)7(6,9)5(3)8/h3-4,9H,2H2,1H3	InChI=1S/C7H8O2/c1-6-2-3-4(6)7(6,9)5(3)8/h3-4,9H,2H2,1H3/t3-,4-,6+,7-/m1/s1
