16
gdb 46807	2.65706	1.64467	1.19105	3.3448	76.96	-0.2485	0.0176	0.2661	1037.8338	0.124683	-400.720436	-400.712687	-400.711743	-400.752566	30.078	
N	-0.0294657173	 1.2369584763	 0.3161388466	-0.537582
C	-0.0105990549	 0.0119093367	 0.0237319034	 0.347991
O	 1.1220148854	-0.7110261941	-0.2561070165	-0.251782
C	 0.8001345609	-1.9632225115	-0.8848432322	-0.10705
C	-0.6644079932	-2.2157497448	-0.5935132546	-0.118051
C	-1.0729827374	-2.1322634804	 0.8385933448	-0.312858
C	-1.2044753161	-0.8920669098	-0.0531884892	 0.105458
C	-2.4940066225	-0.3658630384	-0.3721453496	 0.194429
C	-3.5883993545	 0.0504525708	-0.6421286973	-0.378355
H	 0.9120126696	 1.6296425886	 0.2689230079	 0.225504
H	 0.9843070358	-1.8819588693	-1.9627674155	 0.121709
H	 1.4682524869	-2.723695062	-0.46852762	 0.124132
H	-1.2482902702	-2.7991588976	-1.2933055687	 0.119691
H	-2.0086087659	-2.5977306827	 1.1223016547	 0.139881
H	-0.3079860184	-2.1163988119	 1.6081772451	 0.136121
H	-4.5489393883	 0.43724275	-0.8765148489	 0.190763
115.8305	139.7036	180.088	245.1259	364.4912	389.6793	478.5127	521.6983	564.5406	596.7263	654.0794	662.0327	699.5108	741.3189	831.8083	876.9441	896.2066	911.8021	953.4005	978.3049	1030.7584	1067.3891	1071.7248	1095.6266	1127.3586	1205.8886	1228.5026	1260.9447	1330.7667	1380.0285	1414.7352	1485.2	1519.8005	1779.8477	2248.6081	3032.7321	3082.2032	3138.5767	3204.8239	3237.8667	3479.6898	3504.532
N=C1OCC2CC12C#C	[NH][C]1OC[C@H]2C[C@@]12C#C	
InChI=1S/C7H7NO/c1-2-7-3-5(7)4-9-6(7)8/h1,5,8H,3-4H2	InChI=1S/C7H7NO/c1-2-7-3-5(7)4-9-6(7)8/h1,5,8H,3-4H2/t5-,7-/m1/s1
