18
gdb 63566	2.70423	1.44233	1.1085	2.8377	74.31	-0.2679	0.0034	0.2713	1135.888	0.145429	-439.071626	-439.062684	-439.06174	-439.104985	33.302	
C	-0.0659447078	 1.5194690146	-0.0423284588	-0.455109
C	-0.0771166824	 0.0097160033	 0.0363431908	 0.283718
C	-1.1972765994	-0.7016119867	-0.6860559107	-0.464561
O	 1.2242266155	-0.6097709837	-0.1011286537	-0.304475
C	 0.6038357614	-0.6579136007	 1.1583475654	 0.238736
C	 1.185721925	-0.1437169759	 2.4760100502	-0.167646
O	 0.7268330406	-1.3750125199	 3.1221514292	-0.263353
C	 0.2556993795	-1.9014578539	 1.9307612178	 0.385628
N	-0.2643388714	-3.0097346255	 1.6661297535	-0.553788
H	 0.8048698115	 1.9364629002	 0.4693164443	 0.127167
H	-0.0335221466	 1.8420361484	-1.0883719064	 0.1347
H	-0.9728418285	 1.9362978211	 0.4080796963	 0.128048
H	-1.1420390048	-0.4908917673	-1.7594830919	 0.125633
H	-1.1363009041	-1.7796413224	-0.5284181949	 0.169086
H	-2.168701498	-0.3488376127	-0.3240529643	 0.121993
H	 2.2752263612	-0.0642693847	 2.502247702	 0.134629
H	 0.7170103263	 0.7354452917	 2.9246698037	 0.125898
H	-0.3318246579	-3.605734296	 2.4925133675	 0.233695
119.7708	140.0795	156.428	183.5899	211.7251	258.6578	312.6215	350.4733	415.4556	467.687	517.4455	602.1205	666.7748	730.8869	775.1666	856.8726	883.6972	945.0024	955.5225	964.5412	984.066	1005.9154	1077.9711	1095.3488	1138.6852	1150.4015	1191.3403	1235.4156	1259.3494	1335.8784	1410.1521	1421.1525	1469.4823	1476.0242	1483.6726	1499.1319	1507.2751	1533.5027	1825.3662	3035.9372	3040.6442	3062.9556	3099.5187	3104.6652	3123.9454	3125.4073	3145.6187	3482.5011
CC1(C)OC11COC1=N	CC1(C)O[C@]21CO[C]2[NH]	
InChI=1S/C6H9NO2/c1-5(2)6(9-5)3-8-4(6)7/h7H,3H2,1-2H3	InChI=1S/C6H9NO2/c1-5(2)6(9-5)3-8-4(6)7/h7H,3H2,1-2H3/t6-/m1/s1
