22
gdb 123184	5.01537	0.56908	0.54797	2.5509	80.4	-0.2392	0.0775	0.3167	2059.9368	0.193176	-441.430602	-441.420386	-441.419442	-441.467595	36.212	
O	 0.3931299289	 0.8811280446	-0.0460631618	-0.42192
C	-0.2996241916	-0.2764060659	 0.3756468461	-0.053979
C	-1.8063235174	-0.0294917565	 0.3828328826	-0.083307
O	-2.2497826613	 0.4374938749	-0.885029357	-0.259194
C	-2.5102529434	-0.581460607	-1.8351519348	-0.065929
C	-3.017631173	 0.089481206	-3.1061006114	-0.155629
N	-3.2876127661	-0.9157812365	-4.1243588333	-0.067118
C	-4.6471883816	-1.4505756003	-4.161118533	-0.220534
C	-4.1702926085	-0.5094821217	-5.2108713001	-0.218019
H	-0.1142184937	 1.2271717162	-0.7910570007	 0.285902
H	-0.0591947756	-1.1428082672	-0.2628515684	 0.087838
H	 0.0398629484	-0.5166408646	 1.3895934891	 0.106276
H	-2.3560340093	-0.9342428735	 0.6835607186	 0.089664
H	-2.0375558261	 0.772182584	 1.0920553649	 0.114099
H	-1.6116285782	-1.1703652719	-2.0660785091	 0.108131
H	-3.2691377872	-1.2778564019	-1.4436234197	 0.09342
H	-3.903279288	 0.7020386279	-2.8613082639	 0.090179
H	-2.2461275859	 0.769433818	-3.4849255387	 0.109952
H	-4.7338710923	-2.5132223167	-4.3679011619	 0.118585
H	-5.3661472088	-1.064798275	-3.4394047423	 0.110906
H	-4.5728938547	 0.5020625616	-5.1892127807	 0.111571
H	-3.9012900646	-0.8717956345	-6.1988767547	 0.119104
36.5116	50.9431	94.2575	107.5494	135.434	193.3935	274.6936	325.9134	361.1517	421.8291	458.9084	490.4599	547.4863	772.4775	816.342	845.2752	864.9432	889.3102	905.1998	1015.9028	1021.4814	1042.7567	1080.5475	1086.3053	1114.2933	1119.4561	1131.8494	1142.4848	1157.8596	1178.6573	1199.6259	1224.1332	1251.8613	1293.8063	1307.4129	1326.9297	1353.0968	1375.7214	1398.1783	1434.6396	1440.7041	1484.5637	1490.1517	1499.4416	1509.6796	1524.8551	1529.4168	2951.3605	2966.4139	2976.793	2997.0016	3026.3265	3063.7632	3064.2829	3081.2283	3094.1023	3098.8503	3178.1955	3192.4311	3775.8137
OCCOCCN1CC1	OCCOCCN1CC1	
InChI=1S/C6H13NO2/c8-4-6-9-5-3-7-1-2-7/h8H,1-6H2	InChI=1S/C6H13NO2/c8-4-6-9-5-3-7-1-2-7/h8H,1-6H2
