18
gdb 49442	3.0524	1.63859	1.41726	4.0013	75.54	-0.2277	0.0245	0.2522	964.4654	0.150167	-401.94581	-401.938799	-401.937855	-401.977318	27.885	
O	 0.1194478127	 0.0663430086	 0.4372183332	-0.335177
C	 0.137016329	 1.2617378053	 0.2201509377	 0.12934
N	 1.2165637707	 1.9539150717	-0.2259845722	-0.039657
C	 1.5358680718	 3.3699208968	-0.1328707716	-0.036738
C	 2.5209662866	 3.6019883187	 1.0116533468	-0.058286
C	 2.6279672859	 2.5184462074	 2.0866675763	-0.245469
C	 3.0206395655	 1.2317268122	 1.3034621474	-0.211903
C	 2.6568820178	 1.5758399919	-0.1440475926	-0.019428
C	 3.0035641295	 3.0827094114	-0.3200134634	-0.112566
H	-0.7587219414	 1.9118700457	 0.3110510094	 0.068063
H	 0.9017635104	 4.1350941405	-0.5640528652	 0.110308
H	 2.7065439296	 4.640521862	 1.263554811	 0.093041
H	 3.3838177252	 2.7852971988	 2.8301986795	 0.106609
H	 1.6827305003	 2.3883295058	 2.6236363444	 0.113862
H	 4.0978662413	 1.0437840577	 1.3695471032	 0.101519
H	 2.4924483076	 0.3414417991	 1.6494359202	 0.138813
H	 2.9713951929	 0.8649667762	-0.9076844009	 0.09635
H	 3.7294218344	 3.5264460702	-0.9850230333	 0.10132
92.2934	180.2193	231.01	282.4319	403.1853	480.3009	537.4136	677.2042	738.0075	753.1798	774.2549	815.941	825.1138	855.9005	893.7147	902.4952	953.9676	990.1374	1021.1171	1031.0646	1048.0524	1066.9027	1076.9697	1101.8494	1143.0194	1184.7711	1219.6163	1232.1825	1263.814	1272.4132	1292.0862	1320.6552	1337.1923	1380.4932	1399.4434	1433.8746	1479.029	1500.0847	1781.7116	2911.2613	3049.236	3052.9385	3092.4645	3121.7045	3126.2315	3175.5298	3187.2199	3225.8946
O=CN1C2C3CCC1C23	O=CN1[C@H]2[C@H]3CC[C@@H]1[C@@H]23	
InChI=1S/C7H9NO/c9-3-8-5-2-1-4-6(5)7(4)8/h3-7H,1-2H2	InChI=1S/C7H9NO/c9-3-8-5-2-1-4-6(5)7(4)8/h3-7H,1-2H2/t4-,5+,6-,7-/m0/s1
