16
gdb 84235	2.98937	1.58954	1.36079	2.7936	70.31	-0.2154	-0.0595	0.1558	979.8724	0.121616	-437.738921	-437.731173	-437.730229	-437.770701	30.557	
C	-0.0536714718	 1.5285303187	-0.0333193735	-0.369722
C	 0.008962897	 0.0071604759	-0.0264836189	 0.027802
N	 0.9144812977	-0.395122775	-1.1827931469	-0.227699
C	 1.6315805366	-1.2802310749	-0.6372593837	 0.165865
O	 2.9688877405	-1.0425764665	-0.2617896127	-0.265182
C	 2.3490862893	-1.0612354914	 1.0957847686	-0.025985
C	 0.749031159	-0.6143629819	 1.1915709629	-0.1475
C	 1.2315161086	-1.9326073102	 0.7557658886	 0.292751
O	 0.7808688817	-3.1773284172	 1.0992698589	-0.456462
H	 0.9537498599	 1.95196227	-0.0105095333	 0.132649
H	-0.5588802169	 1.8891954036	-0.9324716154	 0.131091
H	-0.6063867006	 1.8785653897	 0.846379223	 0.10998
H	-1.0075143856	-0.4090016327	-0.0933040982	 0.095767
H	 3.0387062772	-0.9607515443	 1.9251758061	 0.136374
H	 0.4152192272	-0.4395251856	 2.2130849888	 0.101415
H	 1.4555813003	-3.8272987181	 0.8686477059	 0.298856
119.8108	207.976	247.5841	255.7352	323.5684	358.1301	420.2418	471.0065	526.2005	561.2847	581.2236	660.1561	728.0785	748.7676	818.0003	883.5709	901.3887	946.7899	952.8732	1002.6645	1020.175	1070.4387	1084.3002	1103.7424	1126.0025	1183.5216	1246.0499	1256.9585	1340.0745	1347.6823	1400.857	1476.9824	1493.6415	1495.7117	1626.8206	2989.1143	3035.2369	3110.5246	3131.6475	3140.2763	3201.2224	3787.1167
CC1N=C2OC3C1C23O	C[C@H]1[N][C]2O[C@H]3[C@@H]1[C@@]23O	
InChI=1S/C6H7NO2/c1-2-3-4-6(3,8)5(7-2)9-4/h2-4,8H,1H3	InChI=1S/C6H7NO2/c1-2-3-4-6(3,8)5(7-2)9-4/h2-4,8H,1H3/t2-,3-,4+,6+/m1/s1
