22
gdb 7393	4.19791	0.94011	0.89492	2.267	75.12	-0.2561	0.0626	0.3187	1423.7731	0.197928	-387.350508	-387.340163	-387.339219	-387.385616	37.569	
C	 0.0604148031	 1.6080093433	-0.0779170544	-0.38145
C	 0.0490563791	 0.0786963435	-0.0145566363	-0.165105
C	-1.3640287613	-0.5112894535	-0.0291645776	-0.182963
C	-1.3793033809	-2.0415880645	 0.0876067476	 0.139141
O	-0.7179435784	-2.4892934378	 1.2646661035	-0.442695
C	-2.8083061721	-2.6129217039	 0.0543369383	 0.117208
C	-2.824306848	-4.1346245283	-0.058359098	-0.418034
O	-3.4090694838	-2.1749369377	 1.279535654	-0.452265
H	 1.0821420337	 2.0006946737	-0.0636861954	 0.108974
H	-0.423533968	 1.9739747477	-0.9908107794	 0.108585
H	-0.474833363	 2.043043438	 0.7737065094	 0.11191
H	 0.619708365	-0.3280041836	-0.8607623779	 0.087081
H	 0.5614938479	-0.2653293181	 0.889871253	 0.111822
H	-1.9558741876	-0.092467094	 0.7946536624	 0.103708
H	-1.8786087734	-0.2238946428	-0.9569533458	 0.082974
H	-0.8177968502	-2.4707589295	-0.7523251848	 0.075412
H	-1.3505273026	-2.3387425966	 1.9798209562	 0.284066
H	-3.3461259818	-2.1733476214	-0.8004772331	 0.066138
H	-2.2163972079	-4.5766200893	 0.7351296868	 0.137191
H	-3.8470332797	-4.5233406421	 0.0164422207	 0.100961
H	-2.4211885765	-4.4553340171	-1.0243040202	 0.120256
H	-4.2028718336	-2.6956161959	 1.4317991111	 0.287083
76.3807	85.9004	117.6112	138.8783	232.9063	252.0668	253.4065	288.9194	299.9363	305.6096	357.5157	449.0047	484.2067	547.5231	678.8702	751.0499	825.2869	860.4935	903.9611	925.9247	993.8787	1014.4897	1045.1928	1067.0842	1094.8491	1118.3193	1138.4367	1167.4488	1214.0397	1249.3128	1279.8711	1309.6896	1341.6196	1360.3339	1373.3247	1395.0151	1402.2027	1412.4996	1416.422	1438.9962	1482.5429	1488.22	1495.783	1500.4006	1501.2674	1512.5502	2976.3128	3010.8622	3016.1162	3026.4345	3026.7046	3030.3379	3057.3022	3073.403	3094.3545	3096.6387	3098.9147	3126.862	3763.1545	3833.8858
CCCC(O)C(C)O	CCC[C@@H](O)[C@@H](C)O	
InChI=1S/C6H14O2/c1-3-4-6(8)5(2)7/h5-8H,3-4H2,1-2H3	InChI=1S/C6H14O2/c1-3-4-6(8)5(2)7/h5-8H,3-4H2,1-2H3/t5-,6-/m1/s1
