19
gdb 8579	3.90375	1.93447	1.67806	0.3499	70.7	-0.2083	0.0829	0.2912	855.1841	0.167719	-365.025238	-365.018367	-365.017423	-365.055961	27.783	
C	 0.2071142447	 1.5497225554	 0.0770226289	-0.405676
C	 0.0227875535	 0.0429848711	-0.0047729231	 0.147158
C	 0.6366006735	-0.5783175007	-1.293603709	-0.196249
N	 1.1274356291	-1.9573988643	-1.0993721442	-0.123543
C	 0.2405101389	-2.617105063	-0.0660746539	-0.208203
C	 1.0416392464	-1.8650546779	 1.0216771567	 0.122601
C	 2.1812775066	-1.8934418184	-0.0154991488	-0.182663
O	 0.58527254	-0.5310829877	 1.1858107622	-0.289801
H	 1.271503252	 1.804920314	 0.080065408	 0.119837
H	-0.2666388033	 2.0403356774	-0.7797044166	 0.114509
H	-0.2432270585	 1.9432846686	 0.9926033017	 0.125554
H	-1.0555353144	-0.1760334632	-0.0009391422	 0.074057
H	-0.122886493	-0.5759849689	-2.0844297556	 0.102983
H	 1.4794135663	 0.0242503224	-1.6515907346	 0.104482
H	-0.8322095276	-2.4360299382	-0.164576954	 0.108334
H	 0.4273400898	-3.6943056811	-0.0556291108	 0.108286
H	 1.1732493366	-2.284017201	 2.0231312837	 0.073845
H	 2.7678658147	-2.8173890323	-0.0123783201	 0.10265
H	 2.8434284747	-1.0244363823	-0.0536941283	 0.101838
112.753	234.565	293.3728	345.8591	421.2649	445.2192	464.113	488.0424	603.5604	783.8895	802.3219	823.4215	887.8715	895.3241	924.0329	938.3743	956.5111	995.1436	1006.9625	1049.8575	1086.6839	1129.2532	1151.3399	1161.6084	1184.5509	1240.4683	1251.3368	1256.9309	1288.0124	1298.9195	1340.6124	1364.9286	1384.5823	1392.7757	1407.8258	1481.2189	1483.6369	1492.7653	1499.1976	1513.5538	2974.3071	3025.2002	3037.0538	3044.168	3058.8827	3069.9244	3074.1805	3108.8912	3110.4	3116.578	3117.8443
CC1CN2CC(C2)O1	C[C@H]1CN2C[C@@H](C2)O1	
InChI=1S/C6H11NO/c1-5-2-7-3-6(4-7)8-5/h5-6H,2-4H2,1H3	InChI=1S/C6H11NO/c1-5-2-7-3-6(4-7)8-5/h5-6H,2-4H2,1H3/t5-/m0/s1
