16
gdb 22584	4.0427	1.07702	0.89619	1.5654	70.68	-0.2266	-0.004	0.2226	1246.978	0.125192	-471.177686	-471.169231	-471.168286	-471.211158	31.401	
N	 0.0268627355	 1.3680997989	 0.21871255	-0.551202
C	-0.0653277679	-0.0027511328	 0.0947224436	 0.460491
N	-1.1847875122	-0.5951129552	 0.003099905	-0.349511
C	-1.219361031	-2.0440118592	-0.0866927826	-0.229971
C	 0.1261202214	-2.6678023312	-0.3491832681	 0.324678
C	 1.2904927834	-1.9590285173	 0.285477223	-0.163734
O	 1.1878621255	-0.5390366455	 0.1195146787	-0.262482
N	 0.1927524223	-3.7177328506	-1.0681799369	-0.189163
O	 1.5040577693	-4.2118032072	-1.1808169373	-0.397166
H	 0.903024992	 1.7634887421	-0.0860002139	 0.256489
H	-0.7946474003	 1.853895115	-0.1061089615	 0.261915
H	-1.624506406	-2.4501553091	 0.8542985381	 0.119462
H	-1.9188329292	-2.3500090869	-0.8712821117	 0.129094
H	 1.3319196742	-2.1865325343	 1.3600814008	 0.129263
H	 2.2332154491	-2.2571797529	-0.1703413472	 0.151981
H	 1.3895370538	-4.948008214	-1.7907977302	 0.309858
58.7986	90.1049	223.8687	242.45	299.9322	354.0307	363.1256	412.3457	425.5739	507.9889	566.5652	573.4472	619.9271	728.0245	769.4868	816.6785	908.9266	918.5731	962.365	1001.9989	1054.9339	1128.1905	1223.1376	1230.5191	1265.7864	1276.2209	1319.0316	1367.0726	1396.7346	1421.3648	1479.2661	1500.4504	1618.0037	1745.8292	1770.3347	2973.7393	3011.4531	3066.5746	3148.043	3586.4849	3702.6027	3823.0985
NC1=NCC(CO1)=NO	NC1=NCC(=NO)CO1	
InChI=1S/C4H7N3O2/c5-4-6-1-3(7-8)2-9-4/h8H,1-2H2,(H2,5,6)	InChI=1S/C4H7N3O2/c5-4-6-1-3(7-8)2-9-4/h8H,1-2H2,(H2,5,6)
