19
gdb 107682	3.15923	1.27464	1.07271	1.0575	70.65	-0.2516	0.0675	0.3191	1151.6233	0.160318	-460.136015	-460.127807	-460.126863	-460.16883	31.557	
O	 0.1423772872	 1.3471157719	 0.2632039691	-0.415043
C	 0.007166823	 0.0023778517	-0.1749439537	-0.14065
C	-1.4155264127	-0.4981337699	-0.0651980224	 0.226377
C	-1.8683672294	-1.0868917849	 1.2598219369	-0.353294
C	-1.6535662355	-1.9844125511	 0.0676232126	 0.060814
O	-2.7804476258	-2.5657392996	-0.5298408159	-0.248078
C	-3.3608442089	-1.7621534299	-1.5291356352	 0.013086
O	-3.6344515554	-0.4657960165	-1.0775411924	-0.23326
C	-2.4282142826	 0.2683068581	-0.9028002141	-0.148349
H	-0.1533563939	 1.3823973704	 1.1794693977	 0.285502
H	 0.3312498693	 0.0049098411	-1.222228612	 0.112994
H	 0.6837926762	-0.6706852445	 0.3753616156	 0.087672
H	-1.1573762609	-1.1335365494	 2.0792475768	 0.107007
H	-2.9020860545	-0.93332336	 1.5484632553	 0.133273
H	-0.7973899512	-2.6548242432	 0.0673356623	 0.097352
H	-2.7006158164	-1.7171373826	-2.4149064609	 0.078479
H	-4.3118692521	-2.2315385169	-1.7870681581	 0.120122
H	-2.7036894104	 1.2169590581	-0.4364567033	 0.120768
H	-1.983627426	 0.4908678472	-1.8873195382	 0.095229
89.2941	140.4534	163.1894	263.4569	311.1012	371.6582	387.1413	404.6328	426.6278	513.4339	577.6008	678.6205	754.7342	832.0033	892.2709	927.8043	959.222	985.7521	997.4279	1025.0626	1056.0811	1058.3988	1070.1858	1095.2803	1116.3502	1183.6592	1204.3041	1207.1617	1258.9903	1282.4521	1321.052	1331.4162	1371.2023	1393.3664	1419.1561	1421.4225	1447.7387	1474.5565	1495.5623	1507.1189	1515.6787	2933.4667	2968.7679	2976.6061	3060.534	3098.2895	3117.1614	3125.0742	3132.5482	3222.7454	3803.8469
OCC12CC1OCOC2	OC[C@]12C[C@H]1OCOC2	
InChI=1S/C6H10O3/c7-2-6-1-5(6)9-4-8-3-6/h5,7H,1-4H2	InChI=1S/C6H10O3/c7-2-6-1-5(6)9-4-8-3-6/h5,7H,1-4H2/t5-,6+/m1/s1
