18
gdb 49228	4.03057	1.03362	0.88877	5.4205	85.15	-0.2019	-0.0276	0.1743	1304.1982	0.148025	-401.960133	-401.951935	-401.950991	-401.993224	31.287	
O	-0.1166835748	-0.0279754826	-0.142494597	-0.314123
C	-0.0229438676	 1.1871669243	-0.1127032289	 0.058526
C	 1.2118906534	 1.9146418279	-0.0031764273	 0.163604
C	 1.3357931448	 3.2648091301	 0.0325890181	-0.073532
N	 2.6263664722	 3.6779582123	 0.2060717905	-0.339592
C	 3.5159685117	 2.527321633	 0.0682274793	 0.384183
C	 4.7146051488	 2.6162853521	-0.838182992	-0.316645
C	 4.8884086593	 2.5647837495	 0.668346864	-0.313569
C	 2.5921016946	 1.2974023414	 0.1233820132	-0.39982
H	-0.9307840236	 1.8320726482	-0.1798019878	 0.042709
H	 0.5411837955	 3.9990897242	-0.0256384491	 0.133276
H	 2.9234637727	 4.5839230416	-0.1229775588	 0.248094
H	 4.9736451755	 1.7395630319	-1.4230466577	 0.126157
H	 4.915416863	 3.559682016	-1.3376225564	 0.109345
H	 5.1994265323	 3.4739700261	 1.1725653792	 0.115065
H	 5.2703063991	 1.6530315348	 1.1159845649	 0.125761
H	 2.6995578942	 0.7578777403	 1.0725412658	 0.123926
H	 2.803734069	 0.5783155789	-0.6741878099	 0.126635
60.4631	139.4317	151.9718	286.9325	320.0974	340.8553	384.0429	448.9723	461.0326	538.966	574.5821	744.0302	769.6471	816.7711	863.4562	890.3752	909.8705	930.3889	936.797	981.7198	1015.4651	1039.8392	1054.7355	1075.5725	1148.1703	1178.2632	1186.8522	1241.1557	1260.3089	1314.926	1330.0211	1376.2668	1427.4478	1459.7253	1463.4417	1492.5203	1504.5326	1657.6972	1755.7717	2845.3818	3027.9939	3070.3723	3119.3517	3127.9821	3201.7538	3212.664	3218.6374	3618.0863
O=CC1=CNC2(CC2)C1	O=CC1=CNC2(CC2)C1	
InChI=1S/C7H9NO/c9-5-6-3-7(1-2-7)8-4-6/h4-5,8H,1-3H2	InChI=1S/C7H9NO/c9-5-6-3-7(1-2-7)8-4-6/h4-5,8H,1-3H2
