21
gdb 15838	4.29235	1.07291	0.9145	0.8461	76.47	-0.2326	0.0917	0.3243	1322.4001	0.186932	-366.220871	-366.21138	-366.210435	-366.255356	33.864	
C	 1.0268466161	 1.4142816643	-0.1805690566	-0.224747
O	 1.1000125247	 0.0158906626	-0.0511049445	-0.234758
C	 0.0342182758	-0.6523896949	-0.6899307713	-0.0495
C	 0.193089531	-2.1557300656	-0.458542705	 0.03416
C	 0.0760338702	-2.5139347178	 1.0217698628	-0.39104
N	-0.8504198385	-2.8401352241	-1.2229754386	-0.066487
C	-0.5459414154	-3.1494640602	-2.6168018266	-0.224547
C	-0.5819863579	-4.2253852281	-1.5890251737	-0.222361
H	 1.0604036124	 1.7299595087	-1.2357594478	 0.102228
H	 0.104955003	 1.8191431318	 0.2665824961	 0.104201
H	 1.8882381894	 1.8384812605	 0.3414538116	 0.125215
H	-0.9379168852	-0.3178729777	-0.2909258944	 0.092688
H	 0.036062999	-0.4362007483	-1.7715454614	 0.082947
H	 1.2006939364	-2.4391864613	-0.8164744917	 0.061788
H	 0.2565993429	-3.5811017387	 1.1823171186	 0.108974
H	 0.8043498693	-1.944117524	 1.6027340765	 0.131311
H	-0.928945764	-2.2803476763	 1.3880674387	 0.11925
H	-1.3639584792	-3.0268971589	-3.320904797	 0.1149
H	 0.433198328	-2.8664877301	-3.0012329025	 0.110205
H	 0.3736022327	-4.6557717552	-1.2923328424	 0.110127
H	-1.4259805005	-4.9064186269	-1.5267705409	 0.115447
73.1132	95.0003	118.1002	146.5382	222.9684	232.3212	243.9198	307.1289	345.8405	400.9785	486.4365	522.0874	757.729	835.1208	897.6029	905.7193	937.376	989.7337	1001.0932	1028.0929	1081.5756	1113.3587	1118.8184	1143.3007	1160.3072	1169.4391	1182.544	1193.501	1203.6641	1233.2968	1262.5949	1317.5261	1339.5529	1376.8647	1400.3314	1423.3214	1480.7132	1485.2624	1490.892	1491.8754	1497.8727	1504.7278	1518.4266	1527.3008	2922.8337	2954.2337	2970.0903	2991.0023	3010.6021	3041.27	3090.2193	3094.8347	3108.1286	3110.7672	3134.1229	3173.5705	3187.9351
COCC(C)N1CC1	COC[C@@H](C)N1CC1	
InChI=1S/C6H13NO/c1-6(5-8-2)7-3-4-7/h6H,3-5H2,1-2H3	InChI=1S/C6H13NO/c1-6(5-8-2)7-3-4-7/h6H,3-5H2,1-2H3/t6-/m1/s1
