18
gdb 110279	2.07233	1.72501	1.27914	3.0348	72.89	-0.232	0.0147	0.2467	1069.0248	0.146683	-439.071108	-439.062151	-439.061207	-439.105442	32.661	
C	-0.2576221806	 1.5458770611	-0.4240230665	-0.375795
C	 0.1861206467	 0.1267773497	-0.0635638133	-0.163428
N	 0.6772964788	-0.6615806619	-1.1813576831	-0.074599
C	 0.1859221853	-0.7893073513	-2.5521744748	-0.058024
C	 0.9465317681	 0.0714438616	-3.5160915117	 0.097162
O	 1.3830132695	 1.3415882167	-3.1535565569	-0.409025
C	 1.5924712803	-1.2039517704	-2.9947597097	-0.31544
C	 1.9814288407	-0.9753147886	-1.52636926	 0.415208
O	 2.9985106746	-1.0100989875	-0.8873635632	-0.37173
H	 0.560364183	 2.1129771787	-0.8701989231	 0.144898
H	-1.0837793004	 1.5313312993	-1.1423533012	 0.11778
H	-0.6065180795	 2.062161518	 0.4758356234	 0.112892
H	 1.010339542	 0.1491375907	 0.6566386059	 0.13795
H	-0.6413901495	-0.4123473599	 0.4155113723	 0.10658
H	-0.7598022383	-1.2703229437	-2.7680506998	 0.115262
H	 0.6032512228	-0.0115170673	-4.5502981605	 0.103183
H	 2.3122626611	 1.4231776528	-3.3936428287	 0.299169
H	 1.9053582453	-2.0196455681	-3.6309730491	 0.117956
34.8793	129.147	138.4978	187.7187	226.4939	253.5201	268.4871	403.0086	431.8742	496.4597	656.8592	680.2127	727.7873	754.2501	795.8861	821.0614	864.276	918.7222	962.3765	983.6599	1024.3036	1054.2704	1064.7285	1089.1195	1124.0659	1206.2903	1220.3085	1236.6394	1265.9747	1314.6703	1334.9548	1385.4817	1403.7689	1414.462	1434.9215	1486.693	1490.817	1504.8939	1880.3887	3020.333	3044.0302	3078.5801	3083.4629	3108.1866	3150.1803	3195.383	3223.8518	3810.3669
CCN1C2C(O)C2C1=O	CCN1[C@H]2[C@@H](O)[C@H]2C1=O	
InChI=1S/C6H9NO2/c1-2-7-4-3(5(4)8)6(7)9/h3-5,8H,2H2,1H3	InChI=1S/C6H9NO2/c1-2-7-4-3(5(4)8)6(7)9/h3-5,8H,2H2,1H3/t3-,4+,5-/m0/s1
