19
gdb 68283	2.37499	1.50102	1.38776	1.8689	76.38	-0.2397	-0.0324	0.2074	1061.4998	0.156093	-422.973456	-422.964467	-422.963522	-423.006814	33.98	
C	 0.0522090366	 1.4817625219	 0.0923207894	-0.517103
C	 0.0289534636	-0.0065741878	-0.0598640088	 0.358513
C	 0.7292085273	-0.9270086644	-1.0903401824	-0.276218
C	 0.1079723152	-1.8048507626	 0.0174208034	 0.01584
O	 0.6276788842	-0.8325889438	 1.0147201135	-0.344148
C	-1.2201861091	-1.0013435401	-0.0410161477	 0.214785
C	-2.0945398899	-0.9602958521	 1.2090878993	-0.488494
C	-2.0868393163	-1.0825812093	-1.2712316671	 0.081831
O	-1.9779853119	-1.8864380433	-2.1646362818	-0.258456
H	 1.0836664227	 1.8312787956	 0.1989642245	 0.141825
H	-0.386206522	 1.9623586663	-0.787719497	 0.131554
H	-0.5114233177	 1.7921109244	 0.9773177534	 0.136419
H	 0.3313331077	-1.0028286441	-2.1011370454	 0.124357
H	 1.8175932765	-0.8737438644	-1.055792031	 0.106541
H	 0.2535098221	-2.8634845501	 0.2280399554	 0.100994
H	-1.4669397908	-0.8363731043	 2.0921084354	 0.15155
H	-2.810059468	-0.1315505273	 1.1625047527	 0.118894
H	-2.6709598012	-1.8857620297	 1.3147944219	 0.127398
H	-2.9005720192	-0.3189294648	-1.2928204578	 0.073917
81.2347	153.0584	191.8562	195.4056	217.8069	263.0581	323.3648	346.2077	376.9709	473.8244	552.2265	618.0067	662.024	699.2791	732.9569	791.7573	875.6116	913.0888	930.5714	950.2096	998.3039	1020.9644	1038.967	1097.4769	1130.5232	1144.042	1178.6102	1193.0695	1221.7301	1243.6802	1277.1977	1332.7982	1392.2692	1410.4079	1428.7565	1475.6602	1484.8396	1490.7616	1499.7184	1507.1366	1813.0761	2846.3253	3034.9287	3040.1642	3091.5943	3092.5428	3115.6342	3116.0545	3132.7216	3146.8108	3171.4309
CC12CC(O1)C2(C)C=O	C[C@@]12C[C@@H](O1)[C@]2(C)C=O	
InChI=1S/C7H10O2/c1-6(4-8)5-3-7(6,2)9-5/h4-5H,3H2,1-2H3	InChI=1S/C7H10O2/c1-6(4-8)5-3-7(6,2)9-5/h4-5H,3H2,1-2H3/t5-,6+,7+/m1/s1
