21
gdb 56882	2.3174	1.31443	1.05222	1.4025	83.93	-0.2436	0.052	0.2957	1264.5151	0.180131	-387.050986	-387.04109	-387.040146	-387.085778	36.878	
C	 0.2597273645	 1.5456034738	-0.0378152148	-0.388869
C	 0.0648381333	 0.0151269804	-0.0405019482	-0.180762
C	 0.682150341	-0.5926240411	-1.2182839003	 0.348373
C	 1.1760370891	-1.0801082392	-2.2006120132	-0.489778
C	 0.580066682	-0.5823421529	 1.2798228568	 0.167922
C	 0.7773130605	-2.1043418089	 1.4204433391	-0.340832
C	 2.2266489094	-1.7357509945	 1.8129528792	 0.18157
C	 3.3728398959	-2.3215789107	 1.0162523055	-0.404876
O	 1.9841082271	-0.3383388986	 1.4949858804	-0.311108
H	 1.3207819757	 1.7837722991	 0.0646326937	 0.149135
H	-0.1113320169	 1.9873964949	-0.9654428254	 0.123145
H	-0.2800802553	 1.9939470823	 0.8023229212	 0.112611
H	-1.013542193	-0.200421009	-0.0753858342	 0.104351
H	 1.6092796158	-1.5054452051	-3.0718513437	 0.196324
H	-0.017444826	-0.1439314667	 2.0935391161	 0.069353
H	 0.174559231	-2.603053532	 2.1805837057	 0.102984
H	 0.7051950717	-2.6458030276	 0.4752080773	 0.119845
H	 2.4156583099	-1.8443748492	 2.890412206	 0.071222
H	 3.1840259529	-2.2181578884	-0.055588437	 0.134295
H	 4.3078978584	-1.8052764413	 1.2564610899	 0.123484
H	 3.4983344429	-3.3834927754	 1.2559092759	 0.111612
71.2583	71.5421	149.8735	187.8673	215.3553	234.7674	248.4428	329.6205	358.1565	397.8287	433.8493	550.5502	615.3445	634.6227	653.9301	668.2673	774.0984	856.5259	894.8331	919.6515	929.9239	970.7817	1018.8935	1029.3539	1073.4562	1099.0146	1116.5475	1145.6285	1166.4975	1206.3006	1255.0368	1276.4029	1296.2446	1321.0044	1345.9254	1377.2479	1396.1794	1404.8237	1416.3822	1481.5175	1489.0559	1491.7535	1499.5381	1501.6944	2230.4935	2980.7749	2997.8673	3001.5127	3034.3967	3045.432	3078.5112	3102.9356	3118.5232	3124.0357	3137.3253	3138.2449	3502.5845
CC(C#C)C1CC(C)O1	C[C@@H](C#C)[C@H]1C[C@@H](C)O1	
InChI=1S/C8H12O/c1-4-6(2)8-5-7(3)9-8/h1,6-8H,5H2,2-3H3	InChI=1S/C8H12O/c1-4-6(2)8-5-7(3)9-8/h1,6-8H,5H2,2-3H3/t6-,7+,8+/m0/s1
