18
gdb 16383	2.96053	2.3324	1.70107	2.9826	71.17	-0.2298	-0.004	0.2258	833.8491	0.155647	-347.818214	-347.81132	-347.810376	-347.849029	27.358	
C	-0.1413366653	 1.5358164679	 0.0259416108	-0.420606
C	 0.0602840474	 0.0232370749	-0.0539765671	-0.077741
C	 0.9933265361	-0.5271380216	-1.1581738705	-0.028586
C	 1.1811608328	-2.0029707164	-0.7028513496	-0.241241
C	 1.9571510396	-1.3410622005	 0.4854617424	-0.123504
C	 2.4144738551	-0.2771221065	-0.5710565417	-0.237873
C	 0.8319167892	-0.5666821672	 1.1541070196	 0.437993
O	 0.5999812556	-0.4125144971	 2.3238444899	-0.348271
H	 0.8101568053	 2.0764042899	 0.0056856782	 0.119111
H	-0.7505941276	 1.8961923762	-0.8087357481	 0.115245
H	-0.6494527129	 1.7943456729	 0.9594346381	 0.13904
H	-0.922187392	-0.4641335481	-0.1048254987	 0.093801
H	 0.7482785315	-0.273537412	-2.1895434698	 0.068178
H	 0.2894161648	-2.5935772682	-0.4731080807	 0.101918
H	 1.8515137749	-2.5673929162	-1.3547582678	 0.107152
H	 2.6461583895	-1.8795542472	 1.13256332	 0.080614
H	 3.2078855754	-0.6662669873	-1.2128577657	 0.10851
H	 2.6769107106	 0.7237113265	-0.2191358193	 0.106261
136.9227	196.4955	227.4149	263.1412	444.9467	467.9355	508.1734	586.5395	692.1503	768.9997	793.4915	836.7715	860.8223	870.4315	890.6551	971.0297	997.0675	1019.2796	1028.061	1050.982	1085.7963	1095.6036	1110.7457	1137.3348	1169.7206	1226.1057	1235.87	1242.3875	1256.3404	1294.9516	1316.5508	1354.4895	1407.7238	1486.162	1498.502	1500.4444	1523.156	1864.2173	3023.8731	3038.7666	3054.2084	3064.6232	3106.2769	3112.4533	3115.3752	3118.4155	3123.2844	3146.4631
CC1C2CC(C2)C1=O	C[C@H]1[C@@H]2C[C@@H](C2)C1=O	
InChI=1S/C7H10O/c1-4-5-2-6(3-5)7(4)8/h4-6H,2-3H2,1H3	InChI=1S/C7H10O/c1-4-5-2-6(3-5)7(4)8/h4-6H,2-3H2,1H3/t4-,5-,6+/m0/s1
