18
gdb 36453	3.69913	0.9907	0.86328	3.2218	76.42	-0.242	0.0277	0.2697	1334.2696	0.147017	-401.927016	-401.918348	-401.917404	-401.961426	31.632	
N	-0.0523749546	-1.1298233041	-0.3402092569	-0.301526
C	-0.0122776389	-0.0142249719	-0.0415718904	 0.259586
C	 0.0701204877	 1.3992933713	 0.3228709771	-0.360373
C	 1.4642800138	 1.9844164308	 0.0595960543	-0.138163
C	 1.8426921454	 2.1998938809	-1.4236930686	-0.085806
O	 1.8331481884	 3.6371183511	-1.2614884811	-0.302244
C	 1.5662165872	 3.5081016218	 0.1346927356	 0.45284
C	 0.7436369911	 4.5108024594	 0.8750583315	-0.341156
C	 2.2377520523	 4.3755689262	 1.1455356857	-0.33219
H	-0.6828173882	 1.955810792	-0.2465617311	 0.161135
H	-0.1930818991	 1.5025070959	 1.381879209	 0.153595
H	 2.2135358255	 1.4475992896	 0.6448820889	 0.104736
H	 2.8312238947	 1.8279757217	-1.7128817132	 0.11715
H	 1.1006434978	 1.8652318283	-2.1574575351	 0.115968
H	 0.4140999488	 5.3786267119	 0.3139226614	 0.132599
H	 0.0455405438	 4.1704627237	 1.6335394855	 0.115363
H	 2.5569181805	 3.9334702264	 2.0841530551	 0.11777
H	 2.8862187135	 5.1573409948	 0.7653394124	 0.130719
50.698	64.3486	112.3158	198.2786	250.9168	343.556	360.2469	397.4165	489.0914	532.7337	574.4992	756.9068	823.2739	864.8493	876.7365	885.3625	910.0165	930.2586	976.3034	1011.5683	1016.6666	1048.3265	1069.1503	1088.3902	1114.0281	1160.6506	1187.1896	1220.4085	1231.8876	1242.2242	1320.6082	1354.1723	1355.0736	1399.4726	1448.0709	1463.9071	1494.2159	1528.6309	2362.1408	3031.0168	3043.2597	3075.0135	3079.8558	3097.7305	3126.7965	3129.3321	3210.6812	3224.8102
N#CCC1COC11CC1	N#CC[C@H]1COC21CC2	
InChI=1S/C7H9NO/c8-4-1-6-5-9-7(6)2-3-7/h6H,1-3,5H2	InChI=1S/C7H9NO/c8-4-1-6-5-9-7(6)2-3-7/h6H,1-3,5H2/t6-/m0/s1
