21
gdb 39688	4.07565	0.9989	0.86693	2.8786	78.1	-0.2402	0.075	0.3152	1369.2048	0.184113	-424.208696	-424.200044	-424.1991	-424.244481	31.205	
C	-0.0274596857	 1.4543446329	-0.1960752543	-0.09117
O	 1.3400495586	 1.5117311782	 0.2524199364	-0.274342
C	 1.4203067121	 0.0711917089	 0.3356086445	-0.084275
C	-0.0736247775	-0.0806040558	-0.0234568464	-0.034267
C	-0.9656410171	-0.5989813198	 1.0933353455	 0.127524
C	-2.4756906899	-0.6428326386	 0.739810603	-0.263843
C	-2.7599197864	-2.1459587902	 0.5662254695	-0.212951
C	-1.7326250498	-2.7592933517	 1.5185963504	-0.065184
O	-0.5749296323	-1.9479044608	 1.3815963248	-0.272679
H	-0.698940234	 2.0331384406	 0.4525241857	 0.096899
H	-0.1389090182	 1.8144505627	-1.2271224773	 0.096308
H	 2.1241413048	-0.3415496479	-0.397661386	 0.097334
H	 1.7052338361	-0.2720803078	 1.3366170814	 0.112373
H	-0.2675523484	-0.6442366373	-0.9396788294	 0.073735
H	-0.8003771391	 0.0170002484	 1.9908038461	 0.073393
H	-3.0716924269	-0.2331358991	 1.5604545201	 0.107004
H	-2.7074451237	-0.0603623153	-0.155877043	 0.106584
H	-3.7901900279	-2.4194965925	 0.8065094478	 0.102445
H	-2.553204974	-2.4655712491	-0.460223753	 0.108973
H	-2.1031784719	-2.7424007268	 2.5571247577	 0.087785
H	-1.4534596989	-3.788033309	 1.2733399365	 0.108355
18.8649	51.402	73.7884	159.3107	255.2308	316.097	343.4938	444.5346	595.6137	707.8365	780.302	836.9428	879.0995	888.2755	897.5188	930.9807	934.0643	958.857	983.8163	1027.4611	1042.9855	1045.8809	1073.4022	1104.546	1107.5285	1153.7874	1162.5788	1183.5201	1197.7683	1234.3003	1249.5429	1267.3201	1308.6429	1309.5803	1318.3575	1323.7758	1344.983	1379.9378	1391.6433	1420.6078	1485.7736	1499.7008	1513.5417	1524.19	1538.8915	2965.5129	2976.8927	3000.2957	3019.6933	3038.7976	3052.7931	3057.7437	3063.316	3079.5713	3085.2005	3097.1701	3113.0324
C1OCC1C1CCCO1	C1OCC1[C@H]1CCCO1	
InChI=1S/C7H12O2/c1-2-7(9-3-1)6-4-8-5-6/h6-7H,1-5H2	InChI=1S/C7H12O2/c1-2-7(9-3-1)6-4-8-5-6/h6-7H,1-5H2/t7-/m1/s1
