19
gdb 14985	4.5164	1.39221	1.13422	2.0282	72.78	-0.2449	0.0257	0.2705	1081.7036	0.167236	-365.086036	-365.078184	-365.07724	-365.11835	29.348	
C	-0.0159399445	 1.5668752294	 0.0526730448	-0.383452
C	 0.0230118194	 0.0383402341	 0.0107811629	-0.17044
C	 0.6759973863	-0.5172812723	-1.2626397295	 0.063798
C	 0.8412692473	-2.0420335187	-1.216760493	-0.242462
C	 1.2621665681	-2.5421865971	-2.5917376968	-0.079015
O	 0.3449180414	-2.1051145822	-3.6075952568	-0.225887
C	-0.2113101961	-0.8854570547	-3.4119149915	 0.129842
N	-0.1063632552	-0.0968830531	-2.4301785097	-0.27568
H	 0.9961600928	 1.9878284274	 0.0547365771	 0.10583
H	-0.5397254016	 1.9579744472	-0.8227799883	 0.14077
H	-0.5263133078	 1.9238696011	 0.9524442348	 0.105467
H	 0.5703917344	-0.3493089181	 0.8798099886	 0.085916
H	-0.9965245047	-0.3625617054	 0.076188849	 0.097073
H	 1.6722233195	-0.0571727883	-1.354958918	 0.080551
H	 1.5839893509	-2.341399798	-0.4697246569	 0.103676
H	-0.1123680069	-2.5059807583	-0.9365151684	 0.111371
H	 2.2624769319	-2.17165321	-2.8514033494	 0.112197
H	 1.2750859332	-3.6330478123	-2.653510531	 0.118101
H	-0.8262414286	-0.6251240906	-4.2722920376	 0.122342
93.5462	114.5064	193.2495	226.7135	274.3189	366.8813	373.5744	493.8894	525.8916	583.339	764.8809	788.7952	841.878	871.899	925.5875	955.2526	967.9015	1013.6253	1025.5317	1049.0953	1108.9371	1130.9428	1168.0517	1183.3516	1236.0097	1269.9197	1288.5957	1315.1247	1356.9828	1369.9392	1385.676	1401.3495	1408.5524	1418.0918	1475.1867	1483.7795	1496.2387	1511.2992	1511.5465	1731.1201	2979.4673	3018.2292	3022.6841	3034.218	3035.6344	3055.9636	3083.6562	3097.7662	3099.675	3128.5514	3151.0885
CCC1CCOC=N1	CC[C@H]1CCOC=N1	
InChI=1S/C6H11NO/c1-2-6-3-4-8-5-7-6/h5-6H,2-4H2,1H3	InChI=1S/C6H11NO/c1-2-6-3-4-8-5-7-6/h5-6H,2-4H2,1H3/t6-/m0/s1
