12
gdb 14601	8.36805	0.69912	0.69026	4.2518	70.6	-0.2762	-0.0554	0.2208	1513.3029	0.083509	-377.527818	-377.519716	-377.518772	-377.561815	26.877	
O	 0.2157612824	 0.4034968047	-1.2024412609	-0.307902
C	 0.1087701752	 1.3259384573	-0.4261882971	 0.16583
N	 1.0959393168	 1.7520396528	 0.4153289448	-0.272922
C	 2.4165512108	 1.1439682343	 0.3997755669	-0.310958
C	 3.4748281878	 2.1018678954	 0.1016602158	 0.113377
C	 4.3483677499	 2.9053335432	-0.1212170771	 0.009329
C	 5.335232411	 3.8142883441	-0.3754590541	 0.218839
N	 6.1735412918	 4.5895143318	-0.5882357797	-0.330289
H	-0.8154644598	 1.9216635609	-0.3080572168	 0.095718
H	 0.9337818742	 2.5565541192	 0.9998215295	 0.263254
H	 2.6344651742	 0.6505456535	 1.3562044708	 0.159356
H	 2.3785537258	 0.3638135729	-0.369013212	 0.196367
31.3928	86.2417	141.3193	204.0039	266.1243	289.6307	349.9729	492.331	515.323	573.4515	581.7503	704.3526	795.0638	964.5127	1032.0646	1039.0334	1167.7033	1197.9595	1260.9006	1368.5966	1423.6853	1466.0021	1517.3769	1807.8792	2268.6977	2404.8096	2964.6674	3020.6771	3078.9014	3641.6007
O=CNCC#CC#N	O=CNCC#CC#N	
InChI=1S/C5H4N2O/c6-3-1-2-4-7-5-8/h5H,4H2,(H,7,8)	InChI=1S/C5H4N2O/c6-3-1-2-4-7-5-8/h5H,4H2,(H,7,8)
