16
gdb 46581	2.79267	1.8654	1.47486	4.0011	69.34	-0.2487	0.0088	0.2574	912.5779	0.125922	-437.832061	-437.825197	-437.824253	-437.863238	27.203	
N	-0.0887307839	 1.2621386038	 0.2071198626	-0.533723
C	-0.0265195209	 0.0223313124	-0.0067811815	 0.341501
O	 1.1394439363	-0.6912055707	-0.2165700647	-0.257048
C	 0.8756461399	-1.9883066901	-0.8258802614	-0.156818
C	-0.6016446102	-2.2356499802	-0.6462473878	 0.095814
C	-1.1701035681	-2.1790695712	 0.7526396485	-0.367306
C	-1.1537707978	-0.9413285777	-0.0847799092	 0.32786
O	-2.2441011155	-0.8715529666	-1.0031489891	-0.311304
C	-1.7204762903	-2.0526421689	-1.6829383246	-0.134357
H	 0.8382226813	 1.6857114615	 0.1366934098	 0.228666
H	 1.1501074194	-1.9421867684	-1.8859969053	 0.12103
H	 1.5262908796	-2.709122475	-0.3238540681	 0.127017
H	-2.13430824	-2.6338073179	 0.9526958912	 0.137269
H	-0.4491450953	-2.2319972573	 1.5610773078	 0.142728
H	-1.3440836891	-1.7929750922	-2.678868362	 0.119783
H	-2.4721155855	-2.8450316614	-1.759975636	 0.118889
126.373	173.5452	289.3963	326.1696	367.9595	446.9198	578.2384	605.0186	657.4488	695.7089	760.8413	803.8628	867.2924	902.7563	930.7152	939.2941	950.6622	962.6514	988.2237	1001.1074	1024.6545	1071.6185	1146.5677	1161.9408	1198.6517	1222.7604	1286.7723	1296.1944	1350.5543	1370.4223	1397.2362	1466.6245	1507.7972	1518.41	1783.3051	3030.0771	3041.1241	3086.2731	3096.081	3135.7484	3231.5846	3474.6355
N=C1OCC23CC12OC3	[NH][C]1OC[C@@]23C[C@@]12OC3	
InChI=1S/C6H7NO2/c7-4-6-1-5(6,2-8-4)3-9-6/h7H,1-3H2	InChI=1S/C6H7NO2/c7-4-6-1-5(6,2-8-4)3-9-6/h7H,1-3H2/t5-,6-/m1/s1
