24
gdb 60526	2.46965	1.15242	0.9897	1.5349	84.79	-0.2457	0.0688	0.3145	1354.1742	0.215208	-405.524965	-405.514109	-405.513165	-405.560478	40.971	
C	-0.0345412909	 1.5185185243	-0.0935993756	-0.411753
C	 0.0509889471	-0.0131569555	 0.0419726573	 0.254773
C	 0.3870926022	-0.368030134	 1.5028056581	-0.428915
C	-1.3003179631	-0.6368268638	-0.3493102878	-0.410119
C	 1.1598578636	-0.5187850088	-0.9274654755	 0.09924
O	 2.4332883659	 0.0593001981	-0.6232715908	-0.443767
C	 1.2754015875	-2.0282454434	-1.0314170918	-0.025814
C	 0.7966710319	-2.7454676815	-2.2409215518	-0.238942
N	 2.2369475366	-2.5947789549	-1.9907338902	-0.320121
H	 0.9355330812	 1.9793522444	 0.1069151025	 0.129211
H	-0.3419846889	 1.8068352681	-1.1052984011	 0.104626
H	-0.7682569398	 1.9299640513	 0.6075838235	 0.103489
H	-0.3761151735	 0.0374431529	 2.174931516	 0.11575
H	 0.4252279317	-1.4490628552	 1.6717380396	 0.113118
H	 1.3471170457	 0.062515413	 1.8053222093	 0.110519
H	-1.545456687	-0.4262525257	-1.3964726873	 0.108463
H	-1.3043180443	-1.7227435518	-0.2167409405	 0.115511
H	-2.1047619539	-0.2220946255	 0.2674264546	 0.110555
H	 0.9236256024	-0.1285012444	-1.9270317746	 0.072617
H	 2.8209179942	-0.4396731614	 0.1034614657	 0.28517
H	 1.2593282413	-2.5651929508	-0.0840936289	 0.089806
H	 0.4190814531	-3.7609837394	-2.1592609646	 0.11794
H	 0.3360889565	-2.1562683572	-3.0301051304	 0.111519
H	 2.6188205003	-1.8402915488	-2.5577946957	 0.237122
54.804	77.3884	170.5035	208.1716	228.7208	248.1001	261.5939	282.262	304.4963	315.2374	343.6472	348.6353	405.9004	453.5234	522.2761	563.928	765.5102	817.2056	869.4466	893.2999	935.5798	938.8382	948.9408	959.2471	969.8825	1028.2376	1037.4051	1051.7283	1072.6232	1126.4114	1157.3313	1178.7062	1214.0713	1246.0824	1251.1878	1270.3111	1283.2625	1307.693	1339.9031	1395.206	1400.0494	1409.8753	1431.9541	1435.2392	1480.5868	1486.1102	1490.988	1505.1917	1509.4142	1511.9524	1521.7721	3010.8506	3027.1402	3029.9002	3036.4771	3089.9517	3093.5217	3098.9383	3101.6671	3104.943	3106.4622	3116.4327	3124.9761	3189.1224	3490.3132	3814.3614
CC(C)(C)C(O)C1CN1	CC(C)(C)[C@@H](O)[C@H]1CN1	
InChI=1S/C7H15NO/c1-7(2,3)6(9)5-4-8-5/h5-6,8-9H,4H2,1-3H3	InChI=1S/C7H15NO/c1-7(2,3)6(9)5-4-8-5/h5-6,8-9H,4H2,1-3H3/t5-,6+/m1/s1
