22
gdb 58446	2.53359	1.28887	1.08119	2.9927	83.28	-0.2564	0.0312	0.2876	1249.2186	0.192444	-404.367419	-404.357534	-404.356589	-404.402161	37.582	
C	-0.0583013532	 1.6539060111	 0.0325236843	-0.400282
C	 0.0772166124	 0.1266783705	-0.1008243966	-0.012876
C	 1.1451086894	-0.3791563499	 0.8822117639	-0.411815
C	-1.2808548147	-0.5820669997	 0.0575171409	 0.420394
C	-2.3687632017	-0.0514012201	-0.8650065132	-0.448341
C	-1.2718122566	-2.1311503138	 0.1813995249	-0.428045
C	-1.7629512358	-1.8751245317	 1.5873485611	 0.440435
N	-2.0848576076	-2.604877329	 2.5560738752	-0.548289
O	-1.7534329503	-0.5034366597	 1.4664413255	-0.290791
H	 0.9277807984	 2.1252339321	-0.0148430067	 0.113751
H	-0.6693425286	 2.092214666	-0.7601189784	 0.115425
H	-0.5088607477	 1.9156034219	 0.9957364992	 0.133837
H	 0.4137793019	-0.1027991971	-1.1223784277	 0.079246
H	 0.8411044523	-0.1895306358	 1.9155620326	 0.135995
H	 1.3474572311	-1.448297902	 0.7796109639	 0.11713
H	 2.0881716805	 0.1470782764	 0.7076482487	 0.114693
H	-2.0510295439	-0.1218793293	-1.910909483	 0.121601
H	-3.2858456642	-0.6347441957	-0.7450517916	 0.124827
H	-2.6039665188	 0.9919099984	-0.6452993588	 0.135357
H	-1.9854744396	-2.6499494245	-0.4610395268	 0.130013
H	-0.3047564667	-2.6284219396	 0.1165431952	 0.13384
H	-2.3769929966	-2.0422476182	 3.3574475074	 0.223897
46.9517	79.0091	195.8806	217.1946	224.5276	253.0091	293.2638	342.4711	375.6611	384.0004	418.771	480.2408	509.0558	557.6989	611.2777	778.0344	841.6968	861.318	870.1834	919.357	926.9599	949.7157	967.868	975.9273	1021.8644	1047.6772	1087.3649	1105.5361	1153.2477	1187.1983	1203.2179	1250.4503	1262.7496	1299.3089	1339.0127	1364.8087	1398.1568	1410.7595	1420.1181	1464.1109	1483.725	1489.4618	1494.3991	1502.056	1511.1213	1520.3992	1820.403	3002.8233	3040.5065	3043.1275	3048.5334	3092.599	3106.8655	3111.8493	3114.1332	3117.9388	3123.8586	3133.38	3149.7855	3470.6008
CC(C)C1(C)CC(=N)O1	CC(C)[C@@]1(C)C[C]([NH])O1	
InChI=1S/C7H13NO/c1-5(2)7(3)4-6(8)9-7/h5,8H,4H2,1-3H3	InChI=1S/C7H13NO/c1-5(2)7(3)4-6(8)9-7/h5,8H,4H2,1-3H3/t7-/m1/s1
