16
gdb 44879	3.00308	1.56243	1.38993	2.934	68.99	-0.2322	-0.0208	0.2114	962.7783	0.125479	-437.843085	-437.836178	-437.835233	-437.874414	27.397	
O	 0.0420290298	 0.0740629526	 0.0268916676	-0.323862
C	 0.0309601068	 1.2727939636	 0.0456252997	 0.438677
C	-1.1797548759	 2.2421186118	 0.0995403652	-0.349911
C	-0.371493671	 3.5552289684	 0.0087950828	-0.117754
N	 0.6853064246	 3.2724202911	-1.0269082045	-0.324627
C	 1.2039808671	 2.2640666998	-0.0303599937	-0.232049
C	 0.7529991878	 3.2965190872	 1.0191017019	 0.541096
C	 1.5044784956	 4.1674165986	 1.9035589314	-0.291806
O	 0.6342852477	 3.1190974575	 2.4007582329	-0.283528
H	-1.8623081895	 2.0993887391	-0.7434723616	 0.126329
H	-1.7409679153	 2.1117983173	 1.0298032075	 0.144059
H	-0.905667087	 4.5021553188	-0.059141427	 0.090519
H	 0.3049679659	 2.828872378	-1.8647087246	 0.225137
H	 2.2151299982	 1.877451129	-0.1339497332	 0.09724
H	 2.5671060077	 3.9968963601	 2.0628125792	 0.131325
H	 1.1562793574	 5.181282257	 2.0910098764	 0.129157
110.9583	185.259	257.9323	339.7508	416.8579	449.9392	536.7714	573.5563	649.1066	664.0371	795.8931	810.3793	832.7614	891.8898	906.9391	947.2371	956.1145	972.5677	1020.7453	1073.6775	1103.0462	1112.2606	1128.518	1146.6239	1166.9685	1181.3085	1201.24	1231.2007	1264.8828	1291.0498	1331.9959	1455.7982	1468.248	1557.1249	1874.3762	3059.2833	3095.5339	3108.3882	3125.8497	3157.1927	3186.2321	3439.4952
O=C1CC2NC1C21CO1	O=C1C[C@@H]2N[C@H]1[C@]12CO1	
InChI=1S/C6H7NO2/c8-3-1-4-6(2-9-6)5(3)7-4/h4-5,7H,1-2H2	InChI=1S/C6H7NO2/c8-3-1-4-6(2-9-6)5(3)7-4/h4-5,7H,1-2H2/t4-,5+,6+/m0/s1
