18
gdb 66873	2.98506	2.03086	1.77773	1.6009	82.17	-0.1909	-0.014	0.1769	860.7161	0.14872	-364.700562	-364.693697	-364.692753	-364.731264	28.493	
C	-0.0329009077	 1.5147740926	 0.055728655	-0.494922
C	-0.0854815033	 0.0219011429	 0.095895239	 0.345396
C	-0.3425761653	-0.8284989085	-1.3364488351	-0.116023
C	 0.7370792085	-1.7786812574	-1.4282596763	-0.099955
C	 0.909390647	-2.3789275362	-0.2070263694	-0.055555
C	 1.8922000608	-1.58317441	 0.6729753289	-0.203621
N	 0.6415453115	-0.7821489427	 1.0720693026	-0.144319
C	-0.2546275318	-1.9408432001	 0.7109838536	-0.011747
C	-1.1670676712	-1.0096485627	-0.0909851947	-0.18035
H	 0.9830184928	 1.8678650978	-0.1569083242	 0.126416
H	-0.6908314941	 1.9014174115	-0.7280934877	 0.125175
H	-0.3472044602	 1.9535710423	 1.0092442008	 0.131947
H	-0.7189384623	-0.2137337027	-2.1465125796	 0.089227
H	 1.5643308873	-1.6121417964	-2.1123594848	 0.090165
H	 2.2705346453	-2.0621964415	 1.5803628164	 0.114122
H	 2.6878575362	-1.0261986108	 0.1724353403	 0.112342
H	-0.6151920079	-2.5711654764	 1.5228260135	 0.07745
H	-2.2450859154	-0.9254990115	-0.0404504483	 0.094252
170.3062	188.1248	273.4893	356.0004	385.3289	495.6443	545.3367	601.4271	651.8811	711.4088	748.0178	794.8722	838.4544	858.1645	871.9456	895.0452	943.1144	954.4018	967.1901	1010.2376	1015.7258	1030.3819	1057.5477	1082.6865	1100.1037	1156.1034	1168.2774	1196.207	1221.8558	1246.0823	1265.9929	1300.5554	1335.7871	1396.9209	1420.4154	1474.2895	1496.7649	1500.0935	1515.8593	3024.4311	3052.9647	3081.3951	3107.4441	3115.1071	3117.9505	3161.8069	3182.2607	3195.1239
CC12C3C=C4CN1C4C23	C[C@@]12[C@H]3[CH][C]4CN1[C@H]4[C@@H]23	
InChI=1S/C8H9N/c1-8-5-2-4-3-9(8)7(4)6(5)8/h2,5-7H,3H2,1H3	InChI=1S/C8H9N/c1-8-5-2-4-3-9(8)7(4)6(5)8/h2,5-7H,3H2,1H3/t5-,6-,7+,8-/m0/s1
