16
gdb 96777	1.98469	1.84923	1.09231	2.0236	76.47	-0.258	-0.0138	0.2441	1103.1359	0.124083	-396.891054	-396.882756	-396.881812	-396.92425	30.137	
C	-0.0766598704	 1.372043453	 0.0665741807	-0.342616
N	-0.1166419472	-0.0692103557	-0.0946903885	-0.272581
C	 0.5268987861	-0.6145684639	-1.0113367204	 0.392274
C	 1.4036885232	-0.1838496877	-2.2325914542	-0.288848
C	 2.6223659107	 0.5795809592	-2.0208701789	 0.288908
N	 3.5958998081	 1.1731985083	-1.8274918773	-0.329148
C	 1.5210439338	-1.6934417586	-2.4815325649	-0.037617
C	 2.00071	-2.4061766101	-1.2902637282	-0.244618
N	 0.5589651372	-2.021468665	-1.343907789	-0.154345
H	 0.5402384744	 1.898055272	-0.6745407881	 0.121521
H	-1.098846815	 1.761639836	 0.0172462772	 0.140441
H	 0.3067074512	 1.6061838828	 1.0649689489	 0.146371
H	 0.779576044	 0.3099396345	-2.9831915166	 0.155248
H	 1.4080452637	-2.1543032712	-3.4545921429	 0.127104
H	 2.1415951242	-3.4785453419	-1.3683383956	 0.14689
H	 2.648783376	-1.9061547816	-0.5757875923	 0.151014
94.7349	118.2016	145.5809	177.1877	236.1144	290.1952	390.8603	438.4242	527.552	580.7695	616.098	680.648	759.4357	810.272	847.5543	948.6851	1004.1829	1026.8585	1050.8465	1061.3362	1074.317	1115.2638	1129.2463	1144.064	1164.6894	1178.8535	1245.1415	1318.377	1357.3626	1443.2653	1481.6936	1500.119	1503.1853	1839.2106	2351.0333	3006.7804	3079.3919	3083.3322	3096.4737	3125.9546	3200.1633	3222.7654
CN=C1C(C#N)C2CN12	CN=C1[C@@H](C#N)[C@H]2CN12	
InChI=1S/C6H7N3/c1-8-6-4(2-7)5-3-9(5)6/h4-5H,3H2,1H3	InChI=1S/C6H7N3/c1-8-6-4(2-7)5-3-9(5)6/h4-5H,3H2,1H3/t4-,5+,9?/m0/s1
