16
gdb 45352	2.41974	1.78634	1.20651	5.5032	69.49	-0.2466	-0.0312	0.2155	1011.7067	0.125597	-437.939567	-437.932115	-437.931171	-437.971902	28.363	
O	 0.0776213951	-0.0068567968	-0.1171661869	-0.34168
C	 0.0290128099	 1.1852345045	-0.0211938883	 0.421191
N	-0.9986500668	 2.0824717483	 0.1206605662	-0.325811
C	-0.1664293789	 3.2949650145	 0.0790148121	 0.023867
C	-0.0645129782	 4.0730217175	 1.4034377397	-0.234961
C	 0.86047699	 3.2315391172	 2.3005592433	-0.328293
C	 1.7938205219	 2.4922714237	 1.3320826707	 0.415025
O	 2.9034610211	 2.0993000724	 1.5740142137	-0.307328
C	 1.0731529426	 2.3578078789	-0.0070039004	-0.298701
H	-1.9986487039	 1.9453022084	 0.1544467018	 0.254614
H	-0.3659122343	 3.926933894	-0.789678602	 0.095185
H	 0.3923218294	 5.0481695396	 1.2014917473	 0.117305
H	-1.0471503153	 4.2602713443	 1.8455952604	 0.11033
H	 1.4354891213	 3.8077793246	 3.027012811	 0.1341
H	 0.2973851714	 2.4737862987	 2.8593850796	 0.143288
H	 1.7389440046	 2.3931104801	-0.8671626082	 0.121869
77.5433	119.4007	173.8397	341.5439	372.9779	440.1856	470.274	503.0246	595.4821	640.8017	705.1554	753.7023	799.2656	825.56	865.7818	911.8214	962.3762	969.2843	1036.2767	1050.7482	1111.7989	1147.016	1156.2959	1173.8531	1192.9372	1231.3905	1282.1283	1296.6864	1329.0023	1366.1489	1386.6629	1456.4252	1488.3721	1843.1083	1909.5168	3044.8765	3047.7223	3080.7011	3095.219	3125.4313	3147.2045	3603.2814
O=C1NC2CCC(=O)C12	O=C1N[C@H]2CCC(=O)[C@@H]12	
InChI=1S/C6H7NO2/c8-4-2-1-3-5(4)6(9)7-3/h3,5H,1-2H2,(H,7,9)	InChI=1S/C6H7NO2/c8-4-2-1-3-5(4)6(9)7-3/h3,5H,1-2H2,(H,7,9)/t3-,5-/m0/s1
