23
gdb 63168	2.25707	1.61072	1.26403	1.4728	85.4	-0.2269	0.0826	0.3095	1149.3192	0.205067	-388.289026	-388.279426	-388.278482	-388.322655	36.939	
C	-0.0236802815	 1.5372431964	 0.0112731797	-0.458813
C	 0.0142424518	 0.020559166	 0.0240148973	 0.244776
C	-1.2149783201	-0.6134810954	-0.6075234555	-0.462466
C	 1.3343868845	-0.6951000308	-0.1938322427	 0.009911
O	 2.5055413425	 0.07937605	-0.1616646118	-0.261871
C	 2.9296281903	 0.1909813211	 1.2004583204	-0.063506
C	 1.6562441664	 0.0784759813	 2.0629485088	-0.314304
C	 0.7019514574	-0.737771095	 1.1740270699	 0.260871
C	 0.1073448655	-1.9811761918	 1.8014143389	-0.486749
H	 0.9525473951	 1.9775519862	 0.2188480252	 0.127831
H	-0.3323915914	 1.894607449	-0.9774987204	 0.112696
H	-0.744541297	 1.9262946192	 0.7401978357	 0.10884
H	-1.3981682722	-0.1735685484	-1.5942468625	 0.116967
H	-1.1068316979	-1.6919434546	-0.7484064999	 0.114341
H	-2.1119269651	-0.4463332653	 0.0006643298	 0.115368
H	 1.3872840149	-1.5602105539	-0.851555677	 0.082594
H	 3.6324219984	-0.6218244084	 1.4403816831	 0.092295
H	 3.4574518243	 1.1431165148	 1.3092483283	 0.105357
H	 1.855205037	-0.448512881	 3.0005116585	 0.099532
H	 1.2541725255	 1.0621422886	 2.3213991833	 0.107028
H	-0.5855265204	-1.7227466943	 2.6112799169	 0.117313
H	-0.4419713911	-2.5957109704	 1.0854210992	 0.117585
H	 0.8967537434	-2.6076437933	 2.2335402447	 0.114404
128.1744	152.6499	171.0872	175.2246	188.416	237.1414	290.5447	311.9084	367.1401	372.2736	447.7213	519.604	598.6983	659.2401	702.9877	745.7424	854.4304	890.8169	919.5132	964.492	970.1079	975.924	1004.8308	1019.8963	1023.9418	1068.0619	1111.7072	1136.544	1154.9526	1187.6885	1197.8381	1226.223	1251.1634	1273.0653	1309.813	1317.5156	1380.1725	1405.1218	1414.3504	1420.4817	1434.3425	1479.3326	1486.8112	1492.1092	1496.9717	1501.5358	1511.7135	1516.1611	1522.828	2983.1141	3022.4088	3025.4509	3030.0478	3056.0791	3075.4085	3078.9028	3080.677	3084.5375	3098.245	3105.751	3123.1571	3127.6543	3133.4951
CC1(C)C2OCCC12C	CC1(C)[C@H]2OCC[C@@]12C	
InChI=1S/C8H14O/c1-7(2)6-8(7,3)4-5-9-6/h6H,4-5H2,1-3H3	InChI=1S/C8H14O/c1-7(2)6-8(7,3)4-5-9-6/h6H,4-5H2,1-3H3/t6-,8-/m1/s1
