17
gdb 47814	2.13574	1.97827	1.17986	4.1806	68.16	-0.2396	-0.0394	0.2002	1031.7165	0.136244	-458.943096	-458.935381	-458.934437	-458.975704	29.143	
O	-0.0074205226	-0.0547589325	-0.2460724467	-0.279959
C	-0.0215726709	 1.1360113406	-0.0643740626	 0.34758
C	-1.3222499227	 1.9423426126	 0.0549513679	-0.165065
O	-1.6221717435	 2.2097555198	 1.415114118	-0.240385
C	-0.856255036	 3.2121605344	 2.0635718915	-0.073861
C	 0.5547878429	 2.7452796533	 2.4556783255	-0.252683
C	 1.5244411039	 2.7400234765	 1.2884349073	 0.052557
O	 2.2313568108	 1.5218817136	 1.0048071553	-0.237298
C	 1.2499802833	 1.9564437492	 0.0766631989	-0.057601
H	-1.2484926423	 2.8794105946	-0.5224167845	 0.095777
H	-2.1446367156	 1.3363052955	-0.3316909642	 0.132611
H	-0.8072074539	 4.1204747688	 1.4404927366	 0.092204
H	-1.4235208282	 3.4569583583	 2.966417313	 0.119642
H	 0.941064729	 3.3904191668	 3.252393365	 0.109073
H	 0.4811566367	 1.7318471814	 2.8633478868	 0.139933
H	 2.1347659736	 3.6360079392	 1.1723120237	 0.099487
H	 1.6364815156	 2.3144133579	-0.8819164516	 0.117988
59.1366	158.4534	201.6564	274.5285	326.2261	377.0404	401.1717	467.9152	546.0655	580.0517	638.7004	774.4571	816.0458	869.5968	934.1287	949.3594	963.3478	975.3439	1042.0697	1083.6086	1095.432	1129.6648	1152.7133	1174.7928	1222.3643	1277.1866	1285.1389	1320.2548	1357.8748	1370.8694	1384.1422	1407.9958	1465.8965	1471.9789	1472.7402	1491.9595	1828.2015	2965.8833	2974.1736	3045.3367	3068.5442	3085.4148	3092.8751	3111.3608	3112.3718
O=C1COCCC2OC12	O=C1COCC[C@H]2O[C@@H]12	
InChI=1S/C6H8O3/c7-4-3-8-2-1-5-6(4)9-5/h5-6H,1-3H2	InChI=1S/C6H8O3/c7-4-3-8-2-1-5-6(4)9-5/h5-6H,1-3H2/t5-,6+/m1/s1
