21
gdb 113877	5.42905	0.5731	0.56268	1.5509	89.21	-0.2431	0.0587	0.3018	2080.564	0.179457	-387.053837	-387.042886	-387.041942	-387.092766	37.451	
C	-0.1303814835	 1.2713728967	-0.8214828257	-0.377922
C	 0.0078766032	 0.1734963679	 0.2409894956	-0.210626
C	-1.3086359707	-0.5205036432	 0.500297083	 0.073257
O	-1.7887205472	-1.4261532785	-0.5050477407	-0.25754
C	-1.485263385	-1.9532249384	 0.7868176777	 0.066204
C	-0.3454155507	-2.9555070065	 0.8889301656	-0.387587
C	-0.7752415626	-4.3181825117	 0.5874520402	 0.045917
C	-1.1541325798	-5.4338737161	 0.3415938943	 0.091952
C	-1.6041421048	-6.7844535617	 0.0363574496	-0.496658
H	 0.826509946	 1.7705192813	-0.9995393593	 0.113606
H	-0.4766698344	 0.8461250988	-1.7680092953	 0.136278
H	-0.8537547567	 2.0334647802	-0.5116584397	 0.115752
H	 0.7610753623	-0.552880736	-0.077554458	 0.104045
H	 0.3620658809	 0.6081293745	 1.1850438974	 0.100976
H	-2.08738972	 0.1460708525	 0.8819472851	 0.083882
H	-2.3666067315	-2.2428526381	 1.3621124406	 0.094589
H	 0.462402473	-2.6605801071	 0.2117569227	 0.134605
H	 0.0647606645	-2.9128160245	 1.9078449723	 0.127919
H	-0.9190664834	-7.2848439943	-0.657032123	 0.147287
H	-1.6675870224	-7.3999284211	 0.9406551004	 0.144889
H	-2.5961166272	-6.7762386048	-0.4287620629	 0.149177
14.4576	32.239	72.2136	78.2155	157.3111	204.3866	213.0803	256.435	276.3405	371.7336	382.3166	454.3252	495.2572	545.3701	744.5369	780.1467	812.8814	822.2947	910.884	957.3336	1009.6373	1033.3839	1052.8989	1054.8908	1100.0275	1110.4634	1164.8969	1167.2168	1185.478	1239.1009	1292.6999	1301.8015	1320.5327	1346.729	1406.1654	1412.5087	1415.6042	1453.7174	1474.433	1478.8484	1479.21	1493.2569	1498.5054	1509.4362	2376.5688	3011.7327	3025.766	3026.9775	3036.4248	3060.8777	3071.8056	3084.6188	3085.5194	3086.7752	3096.5285	3108.2113	3117.556
CCC1OC1CC#CC	CC[C@H]1O[C@H]1CC#CC	
InChI=1S/C8H12O/c1-3-5-6-8-7(4-2)9-8/h7-8H,4,6H2,1-2H3	InChI=1S/C8H12O/c1-3-5-6-8-7(4-2)9-8/h7-8H,4,6H2,1-2H3/t7-,8+/m1/s1
