14
gdb 26912	3.08243	1.49593	1.00848	3.316	74.9	-0.1857	-0.0583	0.1274	1088.758	0.10099	-470.021675	-470.013556	-470.012612	-470.054207	30.375	
N	 0.0776516262	 1.4266642153	 0.2345834023	-0.581822
C	 0.0241222531	 0.0273209511	 0.0991881824	 0.175798
C	-1.1333629576	-0.6707128759	 0.0084319636	 0.397075
O	-2.3504624971	-0.1010888205	-0.0425333587	-0.413081
O	-1.162006997	-2.0211616959	-0.0460185661	-0.261206
C	 0.0236130875	-2.7643023962	-0.0066604752	 0.346798
N	 0.017307433	-4.0327488562	-0.0466836877	-0.529266
C	 1.2215289762	-1.9437354305	 0.0744960106	-0.052848
N	 1.2144787626	-0.6533339207	 0.1233144975	-0.256833
H	 0.9619837343	 1.7766136579	-0.1131082087	 0.250505
H	-0.6941628487	 1.8960134051	-0.2219730677	 0.250332
H	-3.011099047	-0.8004107755	-0.1247710467	 0.311619
H	-0.9307973084	-4.4030033988	-0.1053395156	 0.222821
H	 2.1676784628	-2.4750369491	 0.08979365	 0.140107
99.0645	162.5773	204.0782	264.4471	283.6313	335.6612	340.3344	440.1234	485.332	513.2935	589.1847	631.2315	718.5831	721.1199	759.7849	818.2054	826.8997	908.8678	914.3323	1029.6542	1103.4511	1139.3398	1252.7133	1317.1721	1337.3186	1378.8641	1430.6072	1581.6067	1630.0327	1700.3808	1758.2277	3187.3709	3500.2478	3532.3348	3633.0235	3800.5824
NC1=C(O)OC(=N)C=N1	NC1=C(O)OC(=C[N]1)[NH]	
InChI=1S/C4H5N3O2/c5-2-1-7-3(6)4(8)9-2/h1,5,8H,6H2	InChI=1S/C4H5N3O2/c5-2-1-7-3(6)4(8)9-2/h1,5,8H,6H2
