18
gdb 36582	2.95402	0.91058	0.76269	3.8903	82.8	-0.2675	0.0278	0.2954	1490.2277	0.146086	-364.785474	-364.776059	-364.775115	-364.820275	34.432	
C	 0.0529551657	-1.2393056674	 0.0074750102	-0.430355
C	 0.0236401617	-0.0434758421	 0.1235478197	 0.290586
C	 0.0256314655	 1.4075998268	 0.2525341295	-0.360304
C	 1.3508013772	 2.0379171941	-0.226188812	-0.274135
C	 1.3775523899	 3.5530030364	-0.0660871021	 0.189773
C	 1.763919651	 4.150460793	 1.2814920285	-0.285837
C	 2.7136453226	 4.2550688115	 0.1267605593	-0.308746
C	 0.3783306696	 4.2640137145	-0.8261102105	 0.243853
N	-0.4316933268	 4.8169185452	-1.4405861537	-0.351096
H	 0.0606246711	-2.296353127	-0.092455228	 0.197481
H	-0.806483693	 1.8322525417	-0.3226902464	 0.156776
H	-0.1527947847	 1.686643363	 1.298872728	 0.133864
H	 2.1818133785	 1.6137644895	 0.3463393196	 0.116256
H	 1.5196694246	 1.7726314006	-1.2749030761	 0.131509
H	 1.2467072848	 5.045446264	 1.6049834515	 0.143265
H	 1.9859967365	 3.4425132911	 2.0725272023	 0.131357
H	 3.5935792538	 3.6216334671	 0.1177201607	 0.132305
H	 2.8448119519	 5.2218860481	-0.3437626506	 0.14345
60.3093	88.2149	113.4916	159.7658	220.1412	253.5438	316.336	356.2824	393.6125	486.9645	571.4517	591.0287	621.9341	647.4639	703.1682	770.621	790.7297	878.8691	929.037	951.4941	963.2608	987.2217	1041.0616	1054.9411	1072.6616	1095.382	1184.2973	1194.7097	1277.3035	1290.44	1308.528	1351.0022	1383.1133	1466.748	1474.7239	1489.0811	1500.5938	2241.2233	2346.8488	3024.3706	3050.3863	3056.9009	3096.8193	3142.8529	3146.8376	3228.9195	3242.553	3506.884
C#CCCC1(CC1)C#N	C#CCCC1(CC1)C#N	
InChI=1S/C8H9N/c1-2-3-4-8(7-9)5-6-8/h1H,3-6H2	InChI=1S/C8H9N/c1-2-3-4-8(7-9)5-6-8/h1H,3-6H2
