21
gdb 94041	3.12969	0.98423	0.79403	1.8529	84.86	-0.2483	0.0561	0.3044	1481.8269	0.181489	-387.074475	-387.064871	-387.063927	-387.10983	35.556	
C	 0.0402503876	 1.5535149877	 0.2398735421	-0.409347
C	 0.1103280691	 0.0480114116	 0.0594836521	 0.162155
C	 0.8524670196	-0.4399356744	-1.2066575287	-0.236333
C	 1.5690643097	-1.7306460284	-0.7394494644	-0.251984
C	 1.1919165732	-1.8345697955	 0.7576871806	 0.152813
C	 2.3238754059	-2.3358965454	 1.6604041964	-0.38544
C	 1.9270258976	-2.5278494884	 3.0496297329	 0.310854
C	 1.5925196133	-2.7015941941	 4.1905307162	-0.442197
O	 0.8369522585	-0.5181506738	 1.1454758905	-0.264346
H	 1.0475677946	 1.9814654035	 0.2552288365	 0.120825
H	-0.5205859445	 2.0108231706	-0.5811889358	 0.11464
H	-0.4566141416	 1.8077140188	 1.1801252367	 0.12735
H	-0.9119358599	-0.369629617	 0.0591355239	 0.06184
H	 0.164445026	-0.6122174363	-2.0381292493	 0.101716
H	 1.5769580356	 0.3132491699	-1.5303499405	 0.103388
H	 1.2551196144	-2.6184870104	-1.2940317217	 0.103911
H	 2.6536649295	-1.6399212079	-0.8536805626	 0.10362
H	 0.3205832591	-2.5000330566	 0.8752706833	 0.071686
H	 2.6984762714	-3.2828714492	 1.2512309782	 0.128762
H	 3.1492394633	-1.6153961862	 1.6000911777	 0.133553
H	 1.2992488974	-2.8446695884	 5.2006548359	 0.192534
37.828	73.7579	116.8854	139.2079	228.3782	267.1801	345.3348	346.5181	406.128	457.0375	496.5366	603.4869	612.7723	635.5533	662.0778	819.6574	830.56	870.9563	915.3697	942.4759	951.8369	989.1189	1006.637	1066.5816	1101.5201	1116.8728	1135.2324	1164.7639	1200.5576	1251.5615	1268.1688	1276.2996	1302.4362	1325.6149	1349.0107	1382.3478	1385.0603	1404.0365	1424.4805	1456.2565	1483.3019	1487.4892	1499.4167	1508.5785	2241.9619	2941.2464	2961.6527	3022.4804	3039.4422	3048.935	3060.5508	3060.9433	3091.0895	3110.0335	3113.5921	3119.164	3508.4665
CC1CCC(CC#C)O1	C[C@H]1CC[C@@H](CC#C)O1	
InChI=1S/C8H12O/c1-3-4-8-6-5-7(2)9-8/h1,7-8H,4-6H2,2H3	InChI=1S/C8H12O/c1-3-4-8-6-5-7(2)9-8/h1,7-8H,4-6H2,2H3/t7-,8+/m0/s1
