22
gdb 100156	3.58808	0.78753	0.76264	3.599	80.28	-0.2471	0.0344	0.2815	1601.3146	0.19192	-441.521715	-441.510853	-441.509909	-441.558004	39.503	
C	-0.0722079288	 1.5915408029	 0.0093181135	-0.39321
C	 0.0448713279	 0.0647404571	-0.0039338577	-0.209018
C	 0.7209659908	-0.5247567945	-1.2565556324	 0.325483
C	-0.0062169415	-0.1472598285	-2.5477460321	-0.398716
O	 2.0551987304	-0.000774336	-1.401166839	-0.466582
C	 0.8180935232	-2.058484834	-1.1014001308	-0.176606
N	 1.6370342825	-2.6391825778	-2.1458897985	-0.271051
C	 1.3083389917	-3.7731990535	-2.8149055235	 0.151269
O	 0.3298099984	-4.4578667829	-2.5979282785	-0.327948
H	 0.8979258905	 2.0573114034	-0.1857345477	 0.124656
H	-0.7738396376	 1.9516332882	-0.7483647232	 0.123783
H	-0.4302969115	 1.9409989742	 0.9820247421	 0.114674
H	 0.6211824472	-0.2622173542	 0.8740214252	 0.085992
H	-0.9467410631	-0.3913760454	 0.1055622206	 0.10709
H	 0.0435937414	 0.9304223431	-2.7146414933	 0.127394
H	 0.4543590403	-0.6450342664	-3.4040403304	 0.123028
H	-1.0562717262	-0.4494804983	-2.4996439906	 0.120915
H	 2.4997537335	-0.0891936679	-0.5499753912	 0.279184
H	 1.2411847347	-2.2887074141	-0.1116224088	 0.093631
H	-0.1651743224	-2.5322564085	-1.1513865303	 0.143504
H	 2.452475841	-2.1124482358	-2.4202848585	 0.250727
H	 2.0522849974	-4.014462871	-3.6004575548	 0.071803
39.126	85.8156	110.2676	160.4594	204.0289	230.589	245.08	271.8685	312.5055	344.3332	378.2352	383.3972	410.6735	449.6011	591.1641	614.5139	737.2083	786.81	801.2558	905.0536	928.9895	945.7085	1005.0962	1014.2556	1033.7912	1070.7639	1073.9037	1142.0016	1186.9082	1205.9709	1217.6967	1255.0739	1292.9695	1367.6408	1373.9647	1390.2173	1410.5369	1428.1719	1430.1339	1478.7379	1486.0065	1497.4481	1500.1464	1507.8408	1513.8485	1521.5623	1802.519	2932.5201	2984.4644	3004.2986	3046.0157	3052.0382	3055.8147	3110.1235	3112.8552	3119.9968	3128.162	3138.2791	3623.7702	3790.8526
CCC(C)(O)CNC=O	CC[C@@](C)(O)CNC=O	
InChI=1S/C6H13NO2/c1-3-6(2,9)4-7-5-8/h5,9H,3-4H2,1-2H3,(H,7,8)	InChI=1S/C6H13NO2/c1-3-6(2,9)4-7-5-8/h5,9H,3-4H2,1-2H3,(H,7,8)/t6-/m1/s1
