16
gdb 32024	2.98109	1.351	0.93519	8.4733	77.54	-0.2093	-0.0242	0.1851	1197.8804	0.126037	-434.135724	-434.127221	-434.126277	-434.170419	30.439	
C	 0.0172315526	 1.4868049052	 0.0100357218	-0.350592
N	-0.0092964217	 0.0387473951	 0.0014325378	-0.365706
C	-1.1322025334	-0.7216355948	 0.0096360476	 0.524401
C	-1.1317609537	-2.1097571258	 0.0073103878	-0.285674
C	-2.3850767191	-2.737487164	 0.0157865844	 0.04087
N	-3.5652701864	-2.1524959122	 0.0256831484	-0.352669
C	-3.6085244869	-0.7828947115	 0.0283143107	 0.434532
O	-4.602608096	-0.0880974718	 0.036927732	-0.396253
N	-2.338277045	-0.1083266722	 0.0200069505	-0.417708
H	 1.0573108632	 1.8147164667	 0.0008708277	 0.149472
H	-0.4753942843	 1.9108176528	-0.8742105251	 0.148439
H	-0.4571840843	 1.9009417666	 0.9089073849	 0.148203
H	 0.86499133	-0.4562450499	-0.0009840683	 0.264092
H	-0.2075514552	-2.6704471575	-0.000790584	 0.087808
H	-2.4050967451	-3.8281075007	 0.0141060024	 0.111303
H	-2.4186303749	 0.8977566641	 0.0223870014	 0.259483
16.5587	130.5805	143.0644	194.344	205.8819	315.7828	425.568	445.0484	514.6107	567.514	598.472	622.6459	714.1803	743.5889	782.4976	804.6174	926.2611	1010.007	1028.6078	1063.8236	1099.1831	1138.5056	1156.0501	1187.2556	1316.0618	1355.3089	1393.0812	1468.1368	1487.5851	1490.1373	1511.4711	1527.6329	1620.464	1658.7491	1808.3214	3011.6577	3060.8802	3119.8082	3141.3109	3222.5116	3621.8637	3674.3115
CNC1=CC=NC(=O)N1	CNc1ccnc(=O)[nH]1	
InChI=1S/C5H7N3O/c1-6-4-2-3-7-5(9)8-4/h2-3H,1H3,(H2,6,7,8,9)	InChI=1S/C5H7N3O/c1-6-4-2-3-7-5(9)8-4/h2-3H,1H3,(H2,6,7,8,9)
