23
gdb 101245	3.17832	0.86982	0.80606	2.6034	82.65	-0.2507	0.0638	0.3145	1546.7057	0.203402	-425.41522	-425.404488	-425.403544	-425.450859	40.074	
C	 0.0634662635	 1.552921113	-0.1358882383	-0.447933
C	 0.014612544	 0.0419938931	 0.0012484543	 0.334793
C	-1.262547802	-0.5781274169	-0.5367514765	-0.450546
C	 1.292389523	-0.7467689241	-0.1545351408	-0.33689
C	 0.6400281786	-0.6292981149	 1.2090872661	-0.061897
C	 1.3008763234	 0.1348358348	 2.3286071953	 0.077842
O	 0.3501918202	 0.8286789196	 3.1564592107	-0.447271
C	 2.1615120086	-0.7614401174	 3.2256829827	-0.058723
O	 2.6956713746	-0.0285307004	 4.3055503385	-0.426865
H	 1.0191988058	 1.9700453766	 0.1897412449	 0.117152
H	-0.0828349129	 1.843951162	-1.182472732	 0.110784
H	-0.7238314314	 2.0276293933	 0.4593785776	 0.123072
H	-1.3855890048	-0.3591959275	-1.6039829575	 0.116682
H	-1.2627785972	-1.6663613858	-0.4183810954	 0.11077
H	-2.1428361812	-0.1834741355	-0.0153961038	 0.114183
H	 1.2603406482	-1.707170579	-0.6583132599	 0.108976
H	 2.2134181556	-0.1942569362	-0.3147726756	 0.111414
H	 0.1222711006	-1.5252201371	 1.5531478123	 0.071518
H	 1.9412191523	 0.9296403254	 1.9332758565	 0.092523
H	-0.3587331888	 0.2089804634	 3.364671441	 0.279875
H	 1.5458247452	-1.6106138402	 3.5779926021	 0.067395
H	 2.9984690845	-1.1796270886	 2.6562385641	 0.109597
H	 1.9757206003	 0.5479600224	 4.5951084637	 0.283547
56.5052	103.6635	115.5721	183.1856	193.6128	230.1125	256.6544	298.4205	316.238	353.4853	367.4195	387.0007	458.5603	511.9987	524.9192	571.817	710.0357	837.8307	863.3091	888.942	919.1622	967.525	972.4623	1019.9017	1050.0954	1067.9506	1071.9872	1077.849	1102.5748	1125.5048	1151.1475	1168.1152	1211.4661	1242.5336	1295.1294	1303.3494	1340.4749	1380.7231	1408.1954	1411.2135	1424.3875	1434.415	1446.3096	1481.3109	1490.0195	1492.8997	1500.3519	1505.4433	1513.1651	2926.9723	3019.7835	3031.2568	3062.6054	3074.194	3080.1959	3090.6666	3095.4277	3100.6511	3116.9951	3123.2061	3206.3392	3756.45	3793.5207
CC1(C)CC1C(O)CO	CC1(C)C[C@H]1[C@@H](O)CO	
InChI=1S/C7H14O2/c1-7(2)3-5(7)6(9)4-8/h5-6,8-9H,3-4H2,1-2H3	InChI=1S/C7H14O2/c1-7(2)3-5(7)6(9)4-8/h5-6,8-9H,3-4H2,1-2H3/t5-,6-/m0/s1
