20
gdb 76522	2.49362	1.18769	1.18315	3.6755	81.07	-0.2412	0.0377	0.2789	1216.8251	0.16999	-403.164593	-403.154837	-403.153893	-403.200287	34.978	
C	-0.1331733055	 0.8722595008	-2.0037337168	-0.413385
C	 0.0192327693	-0.2797821673	-1.0343133959	-0.081822
C	 1.3309110855	-0.6435222099	-0.3752201097	-0.081952
C	 2.6218679207	 0.1066855286	-0.6221239626	-0.413396
C	 0.216158312	-0.0412309529	 0.4414388742	 0.155322
C	 0.1665147713	 1.2644784286	 1.258209351	-0.244047
N	-0.5721262148	 0.4911258046	 2.2664927973	-0.350281
C	-0.5376951565	-0.7055185925	 1.5800419859	 0.395802
O	-0.9496826446	-1.8095158122	 1.8229510105	-0.379914
H	 0.4924642994	 1.7280693333	-1.7361976306	 0.116796
H	 0.1401257948	 0.567195354	-3.0197253721	 0.12372
H	-1.1713239352	 1.2204437793	-2.0311220185	 0.123854
H	-0.624805604	-1.1288444034	-1.2527127479	 0.104724
H	 1.4656711095	-1.7087725649	-0.200701702	 0.105028
H	 2.4617832816	 1.1795720077	-0.759278419	 0.116789
H	 3.3100804319	-0.0176325441	 0.2209142138	 0.123561
H	 3.1261848135	-0.2695581186	-1.5188408834	 0.123849
H	 1.1347034027	 1.6419685606	 1.6048652919	 0.112538
H	-0.4097464255	 2.0826393612	 0.8131816192	 0.112733
H	-0.9218266161	 0.7355290271	 3.1797616648	 0.250081
19.8791	126.81	141.7832	156.3112	171.1641	195.461	243.7372	314.2228	323.7686	466.08	526.7337	556.181	621.3522	698.9975	776.9804	798.3948	832.2542	912.6123	983.8283	1000.0423	1018.1167	1030.435	1085.473	1086.2301	1139.1714	1140.4136	1155.5074	1159.5654	1178.7812	1196.5221	1287.9446	1318.5383	1369.2378	1386.3191	1415.6582	1423.6834	1469.4111	1487.8733	1495.3504	1500.6962	1517.5758	1526.395	1887.7362	3030.7938	3032.0773	3036.4395	3075.0358	3091.5587	3092.9186	3103.0842	3113.2295	3130.3039	3140.4162	3627.6881
CC1C(C)C11CNC1=O	C[C@H]1[C@@H](C)[C@]21CNC2=O	
InChI=1S/C7H11NO/c1-4-5(2)7(4)3-8-6(7)9/h4-5H,3H2,1-2H3,(H,8,9)	InChI=1S/C7H11NO/c1-4-5(2)7(4)3-8-6(7)9/h4-5H,3H2,1-2H3,(H,8,9)/t4-,5+,7+
