17
gdb 50828	4.45089	0.89762	0.8137	1.202	72.01	-0.2385	-0.0288	0.2097	1407.4821	0.136128	-455.148516	-455.139702	-455.138758	-455.183408	30.679	
N	-0.1146244974	 1.2007458637	-0.1479974474	-0.416358
C	-0.0015431451	-0.0506051323	-0.1162872436	 0.1164
O	-1.149997328	-0.79544056	 0.0116553609	-0.205702
C	-1.0396865692	-2.1623842077	 0.0235489668	 0.454854
O	-0.0004993818	-2.7590875532	-0.0737433627	-0.347844
C	-2.407735862	-2.7888157348	 0.1755876861	-0.094572
C	-3.2110151585	-2.837099309	-1.1616917873	-0.23884
C	-2.8056071508	-4.3310583345	-1.2182416383	-0.151508
N	-2.3994122467	-4.257891918	 0.2108427866	-0.306937
H	 0.8058536242	 1.6281863905	-0.2411507279	 0.241572
H	 0.897173047	-0.6647126418	-0.175086377	 0.144578
H	-2.9106456531	-2.3028446457	 1.0194621651	 0.10989
H	-4.2775189895	-2.677842073	-1.0010915055	 0.126149
H	-2.8673926943	-2.1881534644	-1.9673590419	 0.121082
H	-3.6020562949	-5.0542587253	-1.4173281248	 0.109155
H	-1.9766714349	-4.5173355492	-1.9122872038	 0.107426
H	-1.480149325	-4.6424443653	 0.4073527845	 0.230656
46.1583	93.9275	109.7869	118.0576	166.1033	256.9543	317.5332	389.8595	529.116	673.2177	687.7015	746.6147	782.4148	854.6592	895.7975	913.7223	943.6308	993.1342	1005.1545	1033.9163	1071.5197	1092.0605	1106.2227	1165.7715	1184.1219	1208.6988	1228.408	1260.9645	1267.7035	1324.7541	1340.9076	1388.8419	1420.7642	1487.2215	1521.4463	1746.9254	1827.736	3022.9718	3043.2136	3076.2021	3093.0819	3139.866	3149.2057	3506.8671	3520.4053
N=COC(=O)C1CCN1	[NH][CH]OC(=O)[C@H]1CCN1	
InChI=1S/C5H8N2O2/c6-3-9-5(8)4-1-2-7-4/h3-4,6-7H,1-2H2	InChI=1S/C5H8N2O2/c6-3-9-5(8)4-1-2-7-4/h3-4,6-7H,1-2H2/t4-/m1/s1
