20
gdb 85607	1.99798	1.85185	1.13189	3.5361	80.54	-0.2362	0.0099	0.2461	1130.2877	0.17274	-403.193878	-403.185147	-403.184203	-403.227497	33.223	
C	-0.8113015433	 1.2399590126	-0.3440622941	-0.387113
C	 0.0237093512	-0.0028358713	 0.0223414691	-0.032771
C	 0.9248778209	-0.4616358308	-1.1445959827	-0.332399
C	 1.9141740024	 0.6046550758	-1.5944078342	 0.387523
O	 1.796030297	 1.2192368352	-2.6396888775	-0.377048
N	 2.9406186716	 0.8528885846	-0.7278378372	-0.28527
C	 3.1883226679	 0.2007400296	 0.5493368172	-0.229267
C	 2.06187892	 0.2750798735	 1.5586940928	-0.065841
C	 0.7518107257	 0.1988857625	 1.3288384971	-0.038249
H	-0.1683658949	 2.0960882098	-0.5668855708	 0.13777
H	-1.4289731076	 1.0453104743	-1.2261778182	 0.121343
H	-1.4733673945	 1.5191751101	 0.4816713971	 0.110285
H	-0.6878028249	-0.8230656111	 0.1977423477	 0.086791
H	 1.4573313775	-1.3748655689	-0.8536423166	 0.10996
H	 0.3082792786	-0.6943186074	-2.0148941035	 0.121996
H	 3.5688237147	 1.5838266166	-1.0252046009	 0.245705
H	 3.4814915885	-0.8502983899	 0.3952188664	 0.12532
H	 4.068866035	 0.6862311266	 0.9786653852	 0.119106
H	 2.3931355065	 0.385185644	 2.588860843	 0.092573
H	 0.0906760477	 0.2928830742	 2.1896601602	 0.089585
49.3143	120.4974	189.5283	209.7213	246.3316	326.7144	360.3416	410.3062	473.9642	493.4354	528.8924	610.1807	693.3829	726.9026	784.3592	822.5653	857.0462	880.7216	943.471	963.8558	1009.5122	1012.4624	1029.8489	1093.7978	1131.9438	1148.4776	1216.4601	1248.9823	1288.4386	1311.9355	1327.068	1344.2036	1390.1294	1403.612	1413.0447	1428.6705	1466.7422	1481.4922	1493.3635	1497.4053	1501.3183	1733.3521	1786.5663	2971.5621	2992.082	3037.829	3041.7684	3082.9189	3106.9543	3116.0726	3118.8714	3126.3077	3155.9666	3623.3083
CC1CC(=O)NCC=C1	C[C@H]1CC(=O)NCC=C1	
InChI=1S/C7H11NO/c1-6-3-2-4-8-7(9)5-6/h2-3,6H,4-5H2,1H3,(H,8,9)	InChI=1S/C7H11NO/c1-6-3-2-4-8-7(9)5-6/h2-3,6H,4-5H2,1H3,(H,8,9)/t6-/m1/s1
