21
gdb 101732	3.99884	0.72697	0.67077	3.8038	75.28	-0.2522	0.072	0.3242	1688.8819	0.180855	-461.333782	-461.32355	-461.322605	-461.369369	37.784	
O	 0.0327045341	 1.4209140164	-0.3402671905	-0.430262
C	 0.0539135437	 0.0768546281	 0.0930237257	-0.047026
C	-1.3429452319	-0.5378262401	 0.0679315342	 0.091149
O	-1.7864868987	-0.3788197156	-1.2828091513	-0.450589
C	-1.3537084457	-2.0042850373	 0.5090868662	-0.213835
C	-2.7435362496	-2.6093658946	 0.5178947078	-0.042777
C	-3.3633097695	-3.1498154906	-0.7675723442	-0.34387
C	-2.9418871431	-4.0853470616	 0.3382592887	 0.087148
O	-1.7900552596	-4.862016299	 0.1846717112	-0.415063
H	-0.4983275303	 1.4191237704	-1.1461739847	 0.288968
H	 0.7213979449	-0.5394042562	-0.5325782357	 0.086735
H	 0.4477881323	 0.0689685004	 1.1145368257	 0.103222
H	-1.986274734	 0.0559140304	 0.7383711557	 0.067909
H	-2.7038049747	-0.6636070356	-1.3299166705	 0.294017
H	-0.7033158358	-2.5879529546	-0.1490180559	 0.11666
H	-0.9257345303	-2.0701682196	 1.5181649759	 0.101536
H	-3.4354063636	-2.1346722843	 1.2102322516	 0.088921
H	-4.4220643654	-3.0037273244	-0.9554938442	 0.111898
H	-2.7333506529	-3.1384226636	-1.6509894263	 0.126527
H	-3.7309455314	-4.5554937168	 0.9251143971	 0.088485
H	-1.9799636784	-5.552190862	-0.4589531464	 0.290248
61.7595	75.9151	115.7868	148.3733	212.6988	258.7458	270.1535	302.5713	346.4379	381.2359	455.0241	469.7387	470.7862	506.2552	617.8491	765.701	833.0792	856.6593	888.3927	894.0339	976.1771	992.7354	1030.8315	1047.2519	1080.3931	1084.3627	1115.7452	1137.9681	1157.9906	1180.5793	1201.5947	1239.0535	1249.0038	1281.8804	1302.5383	1309.3727	1362.5898	1382.0767	1405.3065	1425.6171	1430.833	1451.2341	1476.7681	1492.228	1501.2483	2960.5515	2974.7245	3026.8589	3078.0906	3093.248	3096.5234	3126.2853	3132.8027	3218.0224	3785.9444	3811.1124	3835.5548
OCC(O)CC1CC1O	OC[C@@H](O)C[C@H]1C[C@H]1O	
InChI=1S/C6H12O3/c7-3-5(8)1-4-2-6(4)9/h4-9H,1-3H2	InChI=1S/C6H12O3/c7-3-5(8)1-4-2-6(4)9/h4-9H,1-3H2/t4-,5-,6+/m0/s1
