16
gdb 45335	2.4518	1.80409	1.22751	4.0067	69.86	-0.2523	-0.036	0.2162	1004.3435	0.125562	-437.91656	-437.909319	-437.908375	-437.948596	27.822	
N	-0.2036105427	 1.2238295049	-0.5058164159	-0.531254
C	-0.0897859909	 0.0690766848	-0.0385346145	 0.427415
O	 0.9433260938	-0.5365995769	 0.6480951339	-0.271488
C	 0.2312406406	-1.824164283	 0.6662937241	 0.109721
C	-0.1717755147	-2.2434806392	 2.080206478	-0.24143
C	-1.3956337977	-1.3768556268	 2.4280268304	-0.332917
C	-2.0667834428	-1.0782650878	 1.0820874863	 0.418716
O	-3.2296484821	-0.8519692929	 0.8945337543	-0.300612
C	-0.9869463102	-1.1595754161	-0.0112582829	-0.275518
H	 0.6349345998	 1.782209691	-0.3372068316	 0.233522
H	 0.7968144218	-2.56970777	 0.1062710063	 0.10371
H	-0.4486016764	-3.3037275642	 2.0626201814	 0.119523
H	 0.6608889168	-2.1300244694	 2.7785408205	 0.128265
H	-2.10184709	-1.840340834	 3.1181814099	 0.135687
H	-1.0916995959	-0.4175111045	 2.8647495912	 0.150642
H	-1.3744625294	-1.503591086	-0.9677337015	 0.126017
92.6122	130.9084	169.6653	330.7655	432.9611	448.7797	470.6482	587.0441	612.6006	693.5601	751.4942	798.5102	823.6673	861.1818	871.4691	897.573	959.3844	975.7105	1005.9849	1040.4064	1050.1228	1132.6899	1149.5632	1187.4619	1197.5461	1220.2037	1228.7766	1287.9901	1322.9572	1340.5021	1355.8435	1455.6312	1478.8425	1816.3683	1862.761	3046.3359	3050.8745	3108.282	3109.4935	3128.8865	3149.9969	3479.4227
N=C1OC2CCC(=O)C12	[NH][C]1O[C@H]2CCC(=O)[C@@H]12	
InChI=1S/C6H7NO2/c7-6-5-3(8)1-2-4(5)9-6/h4-5,7H,1-2H2	InChI=1S/C6H7NO2/c7-6-5-3(8)1-2-4(5)9-6/h4-5,7H,1-2H2/t4-,5+/m0/s1
