18
gdb 128421	3.52569	1.09678	0.86372	1.2007	75.7	-0.1993	0.0277	0.2269	1326.7859	0.150143	-435.274119	-435.265596	-435.264652	-435.307437	31.894	
C	-0.184699957	 1.469541906	-0.2353704718	-0.313903
N	-0.1738640311	 0.0107034537	-0.3101226698	-0.301801
H	-0.2303597733	-0.3763305631	 0.6278106417	 0.232897
H	-1.460102246	-1.2206779193	-1.2247717855	 0.286965
C	 1.0285916219	-0.5334782827	-0.9656664095	-0.261373
C	 0.8806290284	-2.0139134273	-1.1245051627	 0.214219
N	 1.9017993809	-2.866592503	-1.0374647905	-0.29699
N	 1.3570136547	-4.0674423394	-1.2796894368	-0.188658
C	 0.011144461	-4.0235681965	-1.503206482	-0.131924
C	-0.3330118517	-2.6909382842	-1.4104584302	 0.214855
O	-1.560030736	-2.1365484258	-1.5556109487	-0.451847
H	 0.7070477285	 1.8914930024	 0.256312175	 0.106832
H	-0.2360190558	 1.8844956913	-1.2473048478	 0.132002
H	-1.0711895358	 1.8024452005	 0.3111675238	 0.125579
H	 1.0980161678	-0.0471120104	-1.9489818735	 0.12047
H	 1.9622179561	-0.2983254129	-0.4309518861	 0.110796
H	 1.946092033	-4.8811111559	-1.2622008083	 0.272147
H	-0.5742815459	-4.9055881334	-1.7016004074	 0.129734
79.5808	128.3122	159.4398	247.1732	266.6227	310.3149	341.5453	382.9287	444.4839	473.3647	654.8785	682.7295	696.8728	721.4815	757.8451	783.4607	873.8357	944.5882	970.6953	997.5591	1065.9706	1121.8175	1152.1466	1167.93	1185.5992	1223.2337	1275.7225	1310.7	1367.1488	1372.9795	1458.0419	1470.4025	1476.5705	1480.813	1491.8535	1505.0863	1515.5689	1543.5255	1657.5696	2973.9132	2983.2148	3020.6515	3070.031	3113.983	3275.0362	3503.9359	3516.8959	3686.9894
C[NH2+]CC1=NNC=C1[O-]	CNCc1n[nH]cc1O	
InChI=1S/C5H9N3O/c1-6-2-4-5(9)3-7-8-4/h3,6,9H,2H2,1H3,(H,7,8)	InChI=1S/C5H9N3O/c1-6-2-4-5(9)3-7-8-4/h3,6,9H,2H2,1H3,(H,7,8)
