14
gdb 24705	3.88104	1.67667	1.1798	2.1662	70.99	-0.2154	-0.0179	0.1975	961.1496	0.104377	-436.745278	-436.738896	-436.737951	-436.776746	24.22	
C	 0.0346938523	 1.378237548	-0.1340166776	 0.011987
O	 1.3519972287	 1.8579504564	 0.1775457906	-0.277499
C	 2.0287520274	 0.7856033886	 0.6772950463	 0.300163
C	 3.3190598698	 0.6828300863	 1.129830103	-0.250054
C	 3.6995608563	-0.5972830289	 1.5853316385	-0.098637
C	 2.7953569964	-1.6449070187	 1.5567311803	-0.038033
N	 1.5203259048	-1.5329835936	 1.106884044	-0.34414
C	 1.2014338984	-0.3406491087	 0.694331168	 0.358543
O	-0.0286102361	-0.0058249667	 0.2019137432	-0.258838
H	-0.7027017705	 1.935223578	 0.4561874851	 0.130568
H	-0.1532953513	 1.5065034098	-1.2066530705	 0.130552
H	 3.9983011231	 1.5262545238	 1.1367786474	 0.120011
H	 4.7030559714	-0.7619786255	 1.9591091319	 0.103669
H	 3.0833435894	-2.6311719589	 1.9059740798	 0.111709
48.9901	212.3198	297.0964	437.8148	448.8013	555.7058	590.4292	641.6827	733.0358	783.9396	807.4724	818.2357	875.1422	927.8377	959.0617	967.6476	1048.0638	1081.7573	1130.5925	1141.186	1181.7654	1201.2449	1266.0146	1297.1312	1410.9954	1444.0994	1468.8954	1495.6833	1551.3848	1642.9663	1665.173	3020.538	3066.7663	3178.76	3202.2109	3215.8094
C1OC2=CC=CN=C2O1	C1Oc2cccnc2O1	
InChI=1S/C6H5NO2/c1-2-5-6(7-3-1)9-4-8-5/h1-3H,4H2	InChI=1S/C6H5NO2/c1-2-5-6(7-3-1)9-4-8-5/h1-3H,4H2
