25
gdb 101167	2.33687	1.04618	0.85988	1.4589	89.34	-0.2519	0.0729	0.3248	1518.3647	0.22666	-389.486221	-389.474782	-389.473838	-389.522889	41.705	
C	-2.5925280519	 0.7561565467	-2.3188480234	-0.384356
C	-1.9825109263	-0.5897957981	-1.9224324033	-0.179726
C	-0.5321135665	-0.7597189438	-2.3985833804	 0.127997
O	 0.302589421	 0.29365633	-1.9037343017	-0.438
C	 0.0236428495	-2.1191884996	-2.0258441646	-0.052968
C	-0.0414489527	-3.3325348383	-2.9385342451	-0.027632
C	-0.6959767392	-3.3162800067	-4.3049981678	-0.408855
C	 1.2908307194	-2.6740166596	-2.643603356	-0.039971
C	 2.0931931789	-1.911101801	-3.6775202855	-0.398373
H	-1.9781106293	 1.5790884705	-1.9448748288	 0.128443
H	-2.6515407846	 0.8554366104	-3.4086638665	 0.111006
H	-3.6048231393	 0.8682511962	-1.9187964854	 0.10574
H	-2.005133164	-0.7043209314	-0.8286927653	 0.081554
H	-2.5810114291	-1.4156723958	-2.3268697114	 0.098819
H	-0.5091784176	-0.6224275939	-3.4844801595	 0.077007
H	 0.4267631913	 0.1420365512	-0.9601699961	 0.273171
H	-0.1127999309	-2.3376366903	-0.9660245459	 0.066491
H	-0.2064417312	-4.2712335573	-2.4142862689	 0.079314
H	-0.5083080534	-2.3945029185	-4.8598758866	 0.119617
H	-0.3232413445	-4.1443391278	-4.91823308	 0.116384
H	-1.7824720392	-3.4329102997	-4.2213320932	 0.11678
H	 1.921582693	-3.2268056523	-1.9508011429	 0.076959
H	 1.4648172772	-1.391008824	-4.4037502412	 0.11602
H	 2.7184948705	-1.1528601369	-3.1961471809	 0.125992
H	 2.7487321986	-2.5885438501	-4.2359253594	 0.108585
51.8595	92.7252	106.9714	154.5197	166.2227	184.7756	219.3395	235.1288	252.9392	267.0168	305.7039	408.7017	435.8107	469.12	547.0425	581.0548	761.3185	772.2867	781.4786	864.2367	912.76	951.5702	955.3358	980.9718	1026.6552	1047.9512	1058.4123	1100.0533	1107.3319	1117.9994	1136.8394	1160.1912	1172.9113	1190.9154	1251.1708	1271.5911	1288.3273	1330.2807	1376.5066	1380.5171	1400.8499	1406.6883	1418.1075	1421.9583	1431.3779	1454.6208	1478.9496	1488.695	1492.334	1495.7237	1502.3109	1509.5547	1512.6877	3002.891	3031.2768	3035.502	3037.9223	3048.1719	3063.9538	3084.6688	3090.3498	3097.0968	3099.2407	3107.7548	3119.4141	3122.7703	3125.1993	3137.8134	3797.8716
CCC(O)C1C(C)C1C	CC[C@@H](O)[C@H]1[C@@H](C)[C@H]1C	
InChI=1S/C8H16O/c1-4-7(9)8-5(2)6(8)3/h5-9H,4H2,1-3H3	InChI=1S/C8H16O/c1-4-7(9)8-5(2)6(8)3/h5-9H,4H2,1-3H3/t5-,6+,7-,8-/m1/s1
