18
gdb 63572	2.55172	1.4779	1.15403	3.3374	74.61	-0.2314	-0.0201	0.2113	1113.4179	0.145056	-439.058725	-439.049511	-439.048566	-439.092557	34.253	
C	-0.0578888066	 1.5269699586	-0.0410268922	-0.432194
C	 0.0179998338	 0.0180369335	-0.0306746733	 0.347074
O	-1.1084176692	-0.6361936827	-0.5399606163	-0.449309
C	 1.3516732599	-0.6731053453	-0.1660526728	-0.425833
C	 0.6359622555	-0.6640598823	 1.1687260262	 0.187107
N	 1.0344136211	 0.0160287115	 2.4167133812	-0.384535
C	 0.4985051822	-1.1180197466	 3.24157316	-0.284938
C	 0.089424637	-1.8380212759	 1.9384920498	 0.33614
O	-0.3991987259	-2.893629308	 1.6678078968	-0.298096
H	 0.7772632276	 1.9715796824	 0.5049241856	 0.126979
H	-0.0448228752	 1.9073532012	-1.0691915292	 0.110107
H	-0.9870431168	 1.8535178688	 0.434495083	 0.134925
H	-1.0714859214	-0.593650604	-1.5020430274	 0.2854
H	 1.3779829013	-1.6297280268	-0.6785085825	 0.135584
H	 2.2452440857	-0.0629694899	-0.2601184743	 0.119946
H	 2.0449846839	 0.0732852553	 2.4986747165	 0.224429
H	 1.2393172151	-1.6620240555	 3.837352794	 0.128111
H	-0.3333312781	-0.8224724244	 3.8886568751	 0.139104
90.7709	106.	143.0378	183.6511	230.3679	243.3045	317.014	389.9497	393.3747	451.5598	501.8046	551.5157	635.338	699.9581	723.3439	821.413	856.74	886.2761	909.2151	966.0393	988.0116	1025.2894	1041.6934	1056.2092	1070.75	1124.8395	1173.5452	1206.807	1256.4934	1290.4603	1318.5212	1360.1449	1390.148	1415.6046	1454.8328	1471.8301	1476.7826	1500.9639	1903.9896	3033.4362	3043.058	3094.2078	3103.1201	3118.5392	3131.3705	3214.7617	3511.0373	3794.8859
CC1(O)CC11NCC1=O	C[C@@]1(O)C[C@]21NCC2=O	
InChI=1S/C6H9NO2/c1-5(9)3-6(5)4(8)2-7-6/h7,9H,2-3H2,1H3	InChI=1S/C6H9NO2/c1-5(9)3-6(5)4(8)2-7-6/h7,9H,2-3H2,1H3/t5-,6+/m1/s1
