15
gdb 96657	4.01442	0.85205	0.81895	5.1138	71.13	-0.2823	-0.0725	0.2098	1427.3066	0.108949	-453.974342	-453.964452	-453.963508	-454.010562	32.846	
C	-0.1092861829	 1.70589923	-0.6504653058	-0.332476
N	-0.0301296797	 0.2674688948	-0.7754527759	-0.197861
C	-0.8622812457	-0.5018002244	-0.255517943	 0.378017
C	-2.0977102032	-0.2962690695	 0.5666454794	-0.48922
O	-0.6595108727	-1.8891536207	-0.5547573027	-0.238628
C	-0.1082848643	-2.6400167768	 0.4024432648	 0.366005
O	 0.224652313	-2.2894435402	 1.4998998523	-0.33136
C	 0.0418270264	-4.021182988	-0.0734343919	 0.256378
N	 0.1775479186	-5.1227814849	-0.3918432307	-0.30334
H	 0.8069738047	 2.0604554649	-0.1674302761	 0.150995
H	-0.1275353104	 2.1405035542	-1.6550829984	 0.147706
H	-0.9703497771	 2.0863714981	-0.0870128973	 0.114929
H	-2.3176218354	 0.7614536375	 0.7087118879	 0.1469
H	-2.9510299786	-0.7753487611	 0.0768285203	 0.158755
H	-1.9652691227	-0.7641284837	 1.5465859572	 0.173199
41.2942	61.6839	102.3848	119.7077	142.0415	200.3491	286.8412	294.3926	317.8684	411.7839	471.0629	509.1817	611.1598	635.5128	768.7999	797.5836	901.0101	962.5298	1064.5712	1104.2809	1127.9788	1134.7369	1185.5983	1257.7938	1396.6757	1441.0717	1469.918	1479.8882	1483.4282	1503.3138	1805.8134	1836.9143	2361.9011	3015.5859	3054.4608	3088.0531	3099.9556	3118.3758	3157.3914
CN=C(C)OC(=O)C#N	CN=C(C)OC(=O)C#N	
InChI=1S/C5H6N2O2/c1-4(7-2)9-5(8)3-6/h1-2H3	InChI=1S/C5H6N2O2/c1-4(7-2)9-5(8)3-6/h1-2H3
