15
gdb 19421	4.24946	2.03574	1.64922	0.9147	66.2	-0.2448	-0.0075	0.2374	786.8191	0.120244	-362.613404	-362.607228	-362.606283	-362.643497	24.703	
C	-0.0038978754	 1.5140108206	-0.0441801219	-0.279058
N	 1.2437364213	 0.7461580229	 0.0513602179	-0.36286
C	-0.0480679042	 0.0274340252	 0.0104968153	 0.32307
C	-0.46013998	-0.7811593902	 1.1951372648	-0.129973
C	-0.9876371868	-1.9538370818	 0.8263010905	-0.104315
C	-1.0357614001	-2.0511519448	-0.6655380747	-0.009458
O	-1.8642138372	-1.0337086185	-1.2838019641	-0.254671
C	-0.4584049706	-0.8003172436	-1.1852848618	-0.077036
H	-0.2532830809	 2.0918996192	 0.8414397639	 0.124994
H	-0.2689259261	 1.9888813335	-0.9853481014	 0.121376
H	 1.6947908752	 0.6906587195	-0.860274837	 0.232698
H	-0.347562808	-0.414698096	 2.2082526743	 0.112389
H	-1.3651400533	-2.7218323839	 1.4889909145	 0.10811
H	-1.0072880636	-3.0001159556	-1.1914949046	 0.100894
H	 0.0801596599	-0.7151718164	-2.1276171957	 0.093841
147.4084	242.9561	318.1583	398.5499	445.8726	529.3841	621.6976	751.2121	760.0302	829.0002	847.2468	866.0635	881.689	925.0366	937.3996	951.7728	981.296	983.8212	1023.5087	1070.2228	1097.5084	1112.6258	1137.1585	1243.6894	1257.3752	1280.8731	1321.0314	1342.1321	1382.465	1430.5649	1510.1187	1647.5788	3107.475	3126.0758	3168.5371	3193.7993	3203.3907	3227.0355	3479.2482
C1NC11C=CC2OC12	C1N[C@]21C=C[C@H]1O[C@@H]21	
InChI=1S/C6H7NO/c1-2-6(3-7-6)5-4(1)8-5/h1-2,4-5,7H,3H2	InChI=1S/C6H7NO/c1-2-6(3-7-6)5-4(1)8-5/h1-2,4-5,7H,3H2/t4-,5-,6+/m1/s1
