17
gdb 32021	2.78848	1.43681	0.95595	5.069	85.59	-0.1812	-0.0206	0.1606	1200.2546	0.136882	-418.043925	-418.035401	-418.034457	-418.077409	31.586	
C	-0.1242065531	 1.486083031	 0.0810588314	-0.324367
N	-0.0648078062	 0.0524919867	-0.1504505515	-0.357434
C	-1.1518612183	-0.7654561537	-0.0490977125	 0.487523
C	-1.1220925097	-2.1297612928	 0.0157666906	-0.319214
C	-2.3688637549	-2.8120655157	 0.060948881	-0.041414
C	-3.5511869698	-2.1443756749	 0.046406537	-0.194651
C	-3.5805448962	-0.7080412796	-0.0123039596	 0.37998
N	-4.6212923156	 0.0208208229	-0.0263877676	-0.546269
O	-2.3083268992	-0.0792923499	-0.052629703	-0.272932
H	 0.8499045611	 1.9130480736	-0.165265809	 0.131259
H	-0.8743494374	 1.9404353182	-0.5683703504	 0.155115
H	-0.3693855202	 1.7433349221	 1.1204401319	 0.131322
H	 0.8178024258	-0.3992867987	 0.0229841172	 0.255797
H	-0.1773690179	-2.6555198208	 0.0230887249	 0.086964
H	-2.3654494614	-3.8965599028	 0.1097128335	 0.104735
H	-4.5099078283	-2.6423855954	 0.0815947041	 0.111797
H	-4.3746583288	 1.0087927	-0.0705834882	 0.21179
76.7952	115.8258	138.5242	188.758	199.8205	381.1555	415.804	451.1157	486.0854	525.718	598.2211	669.2953	714.7414	733.2869	744.59	799.3092	829.1857	898.507	980.0868	989.6094	1032.7874	1072.3441	1111.8315	1149.3309	1168.7199	1174.6053	1249.0084	1319.9805	1417.0517	1420.7303	1472.3966	1486.9721	1497.5625	1523.9074	1600.3296	1662.6141	1746.1317	3012.8378	3102.8134	3143.4701	3179.2183	3219.9002	3235.3461	3498.8866	3649.2525
CNC1=CC=CC(=N)O1	CNC1=CCC=C([NH])O1	
InChI=1S/C6H8N2O/c1-8-6-4-2-3-5(7)9-6/h2-4,7-8H,1H3	InChI=1S/C6H9N2O/c1-8-6-4-2-3-5(7)9-6/h3-4,7-8H,2H2,1H3
