16
gdb 125635	3.20928	1.36799	0.96564	4.5119	78.48	-0.2039	-0.0217	0.1822	1164.9099	0.124963	-434.082164	-434.073771	-434.072826	-434.114855	31.752	
C	-0.0290844696	 1.4468132276	-0.004668845	-0.44909
C	-0.0118362658	-0.0502199785	 0.0140142395	 0.330245
N	-0.0482420535	-0.6594530975	-1.1276395293	-0.27284
N	-0.011386315	-2.0225680581	-1.1190619777	-0.335317
C	 0.0050318747	-2.7756354902	 0.021613497	 0.480095
O	-0.0285762298	-4.1212762006	-0.1317946342	-0.421916
C	 0.0476297423	-2.1838018097	 1.2370258843	-0.320481
C	 0.035881009	-0.7394609117	 1.3273164778	 0.251096
N	 0.0725296976	-0.0082820319	 2.3908777618	-0.555455
H	 0.8623840274	 1.8385378974	 0.4949345381	 0.145817
H	-0.0764878946	 1.8128985686	-1.0311271608	 0.122107
H	-0.8820370914	 1.8192325391	 0.5707562158	 0.146159
H	-0.2594394581	-2.4364937155	-2.0034425766	 0.265293
H	 0.3840615392	-4.3715505695	-0.9667891515	 0.304013
H	 0.1106775199	-2.8001905585	 2.1247019011	 0.108605
H	 0.0989467576	-0.5998205811	 3.2242522898	 0.201669
103.1758	169.6675	187.3544	233.9552	309.3544	341.4634	351.47	379.2943	463.747	469.6439	516.8903	570.6037	659.3493	726.8623	752.9294	774.423	817.1416	882.6648	975.2246	1049.2311	1057.6895	1110.8916	1172.7176	1202.201	1235.6581	1273.9208	1383.6877	1407.0185	1425.3615	1463.242	1466.9434	1515.1607	1637.5315	1663.9792	1709.0987	3049.5677	3105.868	3149.963	3213.4679	3439.4537	3636.2687	3798.3934
CC1=NNC(O)=CC1=N	CC1=NN[C@H](O)C=C1[NH]	
InChI=1S/C5H7N3O/c1-3-4(6)2-5(9)8-7-3/h2H,1H3,(H3,6,8,9)	InChI=1S/C5H8N3O/c1-3-4(6)2-5(9)8-7-3/h2,5-6,8-9H,1H3/t5-/m1/s1
