20
gdb 58050	1.95316	1.53231	0.90679	4.292	80.22	-0.2442	0.0306	0.2748	1300.0386	0.170106	-399.29993	-399.289982	-399.289038	-399.334985	36.228	
C	 0.1411536082	 1.4221280947	-0.2443935586	-0.415449
C	-0.0123651903	-0.0624689643	 0.1109474004	 0.02608
N	 0.4609358936	-0.3965781072	 1.4602648939	-0.510963
C	-1.4807079478	-0.558945243	-0.0099948289	-0.113264
C	-2.1123088631	-0.0875955923	-1.2539571132	 0.311379
N	-2.6187939877	 0.2851691249	-2.223063724	-0.33702
N	-1.5330755615	-2.0188641442	-0.0039131417	-0.058804
C	-1.6868161049	-2.6638015578	 1.2961994484	-0.196801
C	-2.8231942144	-2.6225923947	 0.3389678709	-0.229462
H	 1.1860648574	 1.7232633728	-0.1218671442	 0.113284
H	-0.1583095005	 1.6361761254	-1.2736893675	 0.14925
H	-0.4668628818	 2.0480754	 0.4208484182	 0.113835
H	 0.5649316628	-0.6695347014	-0.594035835	 0.110761
H	 1.4756494851	-0.409807463	 1.4717795373	 0.234523
H	 0.1833417186	 0.3362434766	 2.1093024691	 0.223044
H	-2.0556188127	-0.1162018262	 0.8268153211	 0.095291
H	-1.1060285591	-3.5707433291	 1.4319957502	 0.122353
H	-1.7391683105	-2.0273595599	 2.1746433407	 0.117523
H	-3.6515875562	-1.9562321116	 0.5730464847	 0.118221
H	-3.0960062251	-3.4948197794	-0.246611482	 0.126218
57.4175	94.1979	153.034	167.06	185.0331	211.0487	254.9753	337.7696	343.5577	387.6117	445.1089	471.3828	532.0832	558.9793	765.2308	855.0593	858.0118	873.4082	906.2697	955.8347	977.1649	1022.151	1034.1484	1064.9258	1103.3467	1115.355	1117.8735	1165.2606	1176.6868	1188.3672	1221.4361	1310.4637	1315.7117	1335.7692	1351.6043	1408.6535	1417.2152	1493.1862	1497.3744	1499.2654	1523.1772	1658.8281	2360.6694	2911.7676	3027.0248	3063.815	3097.9047	3103.3989	3122.0837	3122.684	3190.8885	3208.5132	3481.0244	3567.1253
CC(N)C(C#N)N1CC1	C[C@@H](N)[C@@H](C#N)N1CC1	
InChI=1S/C6H11N3/c1-5(8)6(4-7)9-2-3-9/h5-6H,2-3,8H2,1H3	InChI=1S/C6H11N3/c1-5(8)6(4-7)9-2-3-9/h5-6H,2-3,8H2,1H3/t5-,6-/m1/s1
