15
gdb 27293	3.34661	1.6084	1.10712	4.1312	67.86	-0.1801	0.031	0.211	1026.0052	0.115494	-453.963543	-453.956397	-453.955453	-453.995151	27.134	
O	-0.0024680135	 1.3839821637	-0.0243920949	-0.442251
C	 0.043889034	 0.0299090769	-0.0704121028	 0.198244
C	 0.0407536441	-0.7872289388	-1.1656455698	 0.302433
O	-0.0610208628	-0.746913842	-2.5250206279	-0.28075
C	 0.2979771258	-2.0683419143	-2.9712733649	-0.102135
C	 0.0045014352	-3.0247949672	-1.780595568	-0.203619
N	 0.1110301502	-2.0745447436	-0.6886430619	-0.04759
C	 0.1351534948	-2.002580896	 0.6715119039	-0.031956
N	 0.1056726438	-0.7411220824	 1.0628888359	-0.348842
H	 0.0180896285	 1.6153266627	 0.9117657779	 0.298685
H	-0.2844946127	-2.2975587175	-3.8645946641	 0.131559
H	 1.3669042289	-2.086316769	-3.2172520864	 0.124472
H	-1.0004466442	-3.4592353022	-1.831262683	 0.13401
H	 0.7381891403	-3.8309600309	-1.7107051028	 0.135713
H	 0.1987591073	-2.8661551395	 1.3133314388	 0.132028
123.9553	171.6132	258.5034	284.2464	302.5579	366.0432	526.7498	623.4165	628.3195	642.1493	677.5978	725.4037	758.889	838.27	882.6232	941.285	1015.9448	1085.7384	1115.4087	1134.5298	1206.9832	1244.1295	1250.0776	1300.0632	1302.7948	1370.1223	1386.6226	1408.3093	1475.9648	1499.5909	1512.4061	1527.2111	1732.5676	3029.4868	3039.0589	3104.399	3127.9943	3266.9311	3808.157
OC1=C2OCCN2C=N1	Oc1c2OCCn2cn1	
InChI=1S/C5H6N2O2/c8-4-5-7(3-6-4)1-2-9-5/h3,8H,1-2H2	InChI=1S/C5H6N2O2/c8-4-5-7(3-6-4)1-2-9-5/h3,8H,1-2H2
