16
gdb 66899	2.56072	1.98992	1.54742	2.5165	74.06	-0.2451	-0.0296	0.2155	908.2576	0.125542	-396.89008	-396.883012	-396.882068	-396.921323	27.979	
C	-0.025294972	 1.5594411121	-0.054915728	-0.509745
C	 0.0249654461	 0.0683027913	-0.0551757856	 0.33862
C	 0.0742182556	-0.941972406	-1.1340085687	-0.067157
N	 1.2377243451	-1.7966161081	-0.9669306916	-0.184041
C	 1.5884776051	-1.6225635102	 0.2434100315	-0.001016
N	 0.7717579562	-0.7081267696	 1.0242384262	-0.254891
C	-0.505305134	-1.4828406653	 1.2101985178	 0.412432
N	-0.932003521	-2.1523273873	 2.1816148957	-0.550718
C	-1.0673877184	-1.0105651397	-0.0613245737	-0.200117
H	 0.9675926856	 1.981885194	-0.2403011343	 0.140896
H	-0.7004810776	 1.9152949388	-0.8386993866	 0.133585
H	-0.3837057393	 1.9373207993	 0.907275428	 0.14303
H	-0.2528517354	-0.7295353534	-2.1442320184	 0.115937
H	 2.3982726139	-2.1536224508	 0.7304213365	 0.135199
H	-0.241549706	-2.1852429377	 2.9339746144	 0.230488
H	-2.1063813339	-0.9638629074	-0.3572884433	 0.117499
130.6346	189.4237	235.1021	282.0152	371.2589	443.0297	519.4134	598.9676	654.0392	720.0562	733.097	796.5429	830.5821	846.0485	891.855	908.8459	919.1776	947.7159	970.4401	995.9708	1026.2967	1043.2856	1072.7524	1122.3596	1164.2192	1190.7306	1239.4024	1302.0692	1307.4649	1405.1802	1449.2213	1476.5015	1493.3201	1651.8006	1810.2898	3038.6609	3107.4452	3117.2413	3202.6799	3212.8043	3219.8992	3468.7001
CC12C3N=CN1C(=N)C23	C[C@@]12[C@H]3[N][CH]N1[C]([NH])[C@@H]23	
InChI=1S/C6H7N3/c1-6-3-4(6)8-2-9(6)5(3)7/h2-4,7H,1H3	InChI=1S/C6H7N3/c1-6-3-4(6)8-2-9(6)5(3)7/h2-4,7H,1H3/t3-,4-,6+/m0/s1
