18
gdb 102747	2.44777	1.17435	0.91728	4.149	72.64	-0.2755	0.0159	0.2914	1309.9368	0.14593	-439.060832	-439.051367	-439.050422	-439.096096	33.783	
O	 0.0949196325	 1.3075062914	 0.2596477548	-0.40753
C	 0.0231878978	-0.0102586191	-0.2202582847	-0.070983
C	-1.3800174256	-0.6073145519	-0.0308515602	-0.055172
O	-1.6370653886	-0.5480900753	 1.3598457875	-0.260759
C	-2.7641571939	-1.2647805459	 1.7949552479	 0.133501
C	-3.3328789593	-0.8523732088	 3.1122913007	-0.292741
C	-4.1090406376	-0.5908948833	 1.83746544	-0.277711
C	-2.3902002273	 0.1336149716	-0.8172775745	 0.295434
N	-3.1753978848	 0.6975470605	-1.4496549785	-0.327162
H	-0.2188188121	 1.2879328268	 1.1714581901	 0.297376
H	 0.2743435664	 0.0130188292	-1.2842994708	 0.131129
H	 0.7296501779	-0.6808716121	 0.2919682601	 0.105859
H	-1.3815803156	-1.6509720569	-0.3821697289	 0.115872
H	-2.7189078118	-2.325883789	 1.5517402271	 0.094573
H	-3.6698319826	-1.6272805825	 3.7909400476	 0.122288
H	-2.8698733765	 0.0025873888	 3.5916439719	 0.128328
H	-4.158071296	 0.4327830415	 1.4878311657	 0.144089
H	-4.988287383	-1.1875677451	 1.6227935542	 0.12361
45.1753	92.1229	99.3492	131.6811	202.3866	248.4898	292.9029	381.3091	404.154	430.0976	460.8518	616.968	675.9587	756.0883	820.6789	823.3316	865.5038	907.3207	982.4566	988.3343	1043.82	1060.9404	1076.1418	1087.0696	1118.6738	1129.3362	1191.6247	1194.5994	1242.8548	1244.6798	1297.6145	1344.387	1394.1588	1407.3361	1431.6458	1456.0401	1492.7191	1497.5501	2357.1058	2988.6817	3000.6487	3099.3318	3107.7244	3143.2432	3150.1035	3228.1334	3244.3957	3800.3186
OCC(OC1CC1)C#N	OC[C@@H](OC1CC1)C#N	
InChI=1S/C6H9NO2/c7-3-6(4-8)9-5-1-2-5/h5-6,8H,1-2,4H2	InChI=1S/C6H9NO2/c7-3-6(4-8)9-5-1-2-5/h5-6,8H,1-2,4H2/t6-/m0/s1
