19
gdb 85951	2.51578	1.45918	1.09543	3.6626	71.63	-0.2472	-0.0321	0.2151	1146.1211	0.156551	-460.170065	-460.160661	-460.159717	-460.204285	35.52	
C	-0.2288478963	 1.1071568321	 0.3375329561	-0.480202
C	 0.1638625493	-0.2881443797	-0.0879317269	 0.345317
O	 0.5385466168	-1.1171026291	 0.7205282789	-0.326793
C	 0.0545861955	-0.6436158928	-1.5741156602	 0.266913
O	-0.3394907543	 0.4556557369	-2.3684455495	-0.473901
C	 1.2626514184	-1.4989623892	-2.080421946	-0.310999
C	 0.4086084222	-2.7924149961	-1.9048852166	 0.150822
O	 0.7106739568	-3.5567241677	-0.7717142999	-0.438775
C	-0.8592389011	-1.891786551	-1.7906015547	-0.276855
H	 0.457006972	 1.843817267	-0.0971042527	 0.134297
H	-1.2234078402	 1.3551330858	-0.0440244252	 0.159363
H	-0.1970430455	 1.1789069386	 1.4249195911	 0.143137
H	 0.4245884438	 1.024817872	-2.5095316771	 0.281455
H	 1.4662266968	-1.2643753247	-3.1285974903	 0.105173
H	 2.1851167491	-1.4592746328	-1.4973054709	 0.11121
H	 0.4183063753	-3.4799294273	-2.7531930741	 0.086812
H	 0.7426615818	-2.9423967068	-0.0202783032	 0.293781
H	-1.5567515422	-2.1502213322	-0.9915561961	 0.112871
H	-1.3959591383	-1.7793987631	-2.7350693827	 0.116375
43.6769	145.7535	152.4154	204.4654	249.8208	266.8708	326.7672	345.7708	374.4086	438.9401	464.6626	547.813	594.9354	630.9249	637.9886	761.9289	802.8888	840.0094	921.7661	935.2085	961.8313	965.8588	996.7837	1063.6267	1084.4961	1135.6937	1164.6686	1198.7001	1214.1764	1259.4504	1262.617	1300.4391	1329.5059	1352.9459	1381.5695	1445.6106	1450.8694	1463.6098	1466.8451	1485.1401	1774.4507	3041.5203	3060.3971	3071.5294	3089.0269	3105.5586	3129.596	3137.9902	3160.2478	3668.4097	3807.7296
CC(=O)C1(O)CC(O)C1	CC(=O)[C@@]1(O)C[C@@H](O)C1	
InChI=1S/C6H10O3/c1-4(7)6(9)2-5(8)3-6/h5,8-9H,2-3H2,1H3	InChI=1S/C6H10O3/c1-4(7)6(9)2-5(8)3-6/h5,8-9H,2-3H2,1H3/t5-,6-
