17
gdb 52857	1.84929	1.25925	0.83349	2.1895	82.91	-0.2483	0.0283	0.2766	1417.3085	0.131748	-384.606916	-384.596801	-384.595857	-384.644113	35.179	
C	-0.0971119218	 1.5550849481	 0.2773046293	-0.503956
C	-0.0307349806	 0.1044151962	 0.1936540308	 0.129421
C	 0.0133815144	-1.0961726047	 0.1150525225	 0.038702
C	 0.1050686571	-2.5321056602	 0.0151801055	 0.19531
C	 1.4060216113	-3.0872286905	-0.5685932773	-0.438137
C	 1.6753536555	-2.6303389668	-1.926577059	 0.32608
C	 1.8984413097	-2.2566468295	-3.0459350237	-0.448196
C	-0.6750811037	-3.3818580795	 0.938584658	-0.217791
O	-1.0832381865	-3.2176052442	-0.4155395625	-0.253239
H	 0.6962125152	 2.0211716275	-0.3168759285	 0.154843
H	-1.0566018263	 1.9249302811	-0.1002551347	 0.156299
H	 0.0102386323	 1.9019610126	 1.3108995279	 0.150095
H	 2.2341470927	-2.798496636	 0.0909695807	 0.138744
H	 1.3448382299	-4.1811957075	-0.5501701133	 0.138024
H	 2.090153497	-1.9275025982	-4.0369146925	 0.197471
H	-0.2960985122	-4.3694125946	 1.2018295985	 0.113436
H	-1.3103211341	-2.907770464	 1.6841208683	 0.122893
15.6726	51.2148	89.7312	120.7777	159.8591	296.536	311.0771	325.9375	343.6862	357.9193	460.3446	529.5373	558.696	620.0359	643.2483	672.0005	792.6874	891.8906	941.4711	958.8036	994.2776	1046.7411	1050.9105	1054.2753	1131.9438	1165.7281	1217.833	1279.5561	1324.9211	1392.222	1412.8131	1451.6071	1475.3452	1476.693	1521.1899	2244.8726	2372.7329	3028.3022	3029.4628	3070.8975	3080.5057	3090.9876	3093.865	3174.2002	3507.5474
CC#CC1(CC#C)CO1	CC#C[C@@]1(CC#C)CO1	
InChI=1S/C8H8O/c1-3-5-8(6-4-2)7-9-8/h1H,5,7H2,2H3	InChI=1S/C8H8O/c1-3-5-8(6-4-2)7-9-8/h1H,5,7H2,2H3/t8-/m0/s1
