14
gdb 48748	2.81554	1.66351	1.17539	3.5091	68.64	-0.2515	-0.0777	0.1738	992.8479	0.101179	-436.689879	-436.682578	-436.681634	-436.721776	27.168	
O	-0.9467194523	 1.2995542975	-0.1841183731	-0.279666
C	 0.168408211	 0.8901103137	 0.0461856554	 0.078579
C	 1.3713273818	 1.7510321455	-0.0559593161	 0.102651
N	 1.1661499381	 3.2293581424	-0.0653795624	-0.345518
C	 1.6369228289	 2.5691633184	-1.2850891202	-0.129057
C	 3.1287902175	 2.6241842081	-1.4239673427	-0.036231
C	 3.7410681404	 1.9680200593	-0.4296715493	-0.195274
C	 2.7368140048	 1.3211968725	 0.4622057753	 0.355749
O	 2.9357813261	 0.5557646257	 1.3743404155	-0.31866
H	 0.359640894	-0.1555563746	 0.3536848888	 0.113641
H	 0.1500418633	 3.3483402537	-0.1363956512	 0.257054
H	 0.9823970924	 2.5088330724	-2.1476514282	 0.128383
H	 3.6160847691	 3.1738424327	-2.2204675438	 0.134697
H	 4.8055404649	 1.8893576229	-0.2532281579	 0.133651
118.9916	154.2409	188.2475	270.7356	316.0766	359.9033	466.2406	563.872	628.3048	711.2939	740.3813	773.2617	845.1614	862.6922	914.458	926.5357	985.382	1003.2851	1032.1025	1067.5753	1115.3078	1147.0549	1194.0186	1283.4572	1328.1377	1355.9945	1397.1646	1423.8993	1634.0455	1790.5793	1820.0668	2958.7766	3182.0168	3206.2336	3236.0112	3411.0609
O=CC12NC1C=CC2=O	O=C[C@]12N[C@H]1C=CC2=O	
InChI=1S/C6H5NO2/c8-3-6-4(7-6)1-2-5(6)9/h1-4,7H	InChI=1S/C6H5NO2/c8-3-6-4(7-6)1-2-5(6)9/h1-4,7H/t4-,6-/m0/s1
