21
gdb 83442	2.72486	1.16084	1.02126	0.6609	88.11	-0.2457	0.053	0.2987	1286.1803	0.181347	-349.896955	-349.887654	-349.88671	-349.931104	35.628	
C	-0.0260402659	 1.565293076	 0.1406467879	-0.420802
C	 0.080722221	 0.0550824213	 0.1777919484	-0.032493
C	 1.2885607377	-0.7536615504	-0.2355465827	-0.143223
C	 2.5949671483	-0.0707167201	 0.1882218987	-0.225135
C	 2.0965466959	-0.0654010995	 1.6689191995	-0.286793
C	 0.7988176478	-0.7574136725	 1.2221680787	 0.3648
C	 0.1182804519	-1.8561908667	 2.0089048853	-0.47215
C	-0.5650346058	-1.357650592	 3.2014885497	 0.319057
C	-1.1127448842	-0.9231061687	 4.1793644153	-0.463667
H	 0.9058013051	 2.0595878535	 0.426250745	 0.119639
H	-0.2848446578	 1.9100590666	-0.8666056068	 0.114746
H	-0.8068347464	 1.9152215414	 0.8244481322	 0.122114
H	-0.8415098547	-0.4371171248	-0.1301536892	 0.080442
H	 1.2117954497	-1.5383240668	-0.980662019	 0.078484
H	 3.4689765653	-0.7110424238	 0.0515337811	 0.101632
H	 2.807298702	 0.9003549852	-0.2701906388	 0.096911
H	 2.7069415755	-0.7078657408	 2.3087422689	 0.101245
H	 1.988753352	 0.9043518331	 2.1636535448	 0.099955
H	-0.6042339587	-2.3739101548	 1.3642760423	 0.126602
H	 0.8568014552	-2.6131856192	 2.3079670206	 0.125039
H	-1.601898604	-0.5479016772	 5.0436380182	 0.193598
53.5668	94.4488	170.4147	225.4425	246.3537	262.5187	302.7787	352.2735	421.309	435.0644	536.4291	616.669	633.7344	692.1618	722.1503	766.7158	799.1906	897.555	913.456	923.1537	945.7491	957.7538	989.3618	1004.0484	1053.9378	1078.2164	1111.1099	1126.8926	1150.1235	1194.6317	1217.3296	1237.0306	1251.8771	1270.2674	1316.8224	1331.0181	1347.2681	1415.9116	1459.8323	1465.5185	1478.0867	1501.1028	1506.245	1511.5277	2236.0196	3005.038	3034.2701	3039.3553	3048.0424	3055.5975	3091.6389	3092.8628	3105.5201	3111.5695	3122.9552	3165.2575	3506.7489
CC1C2CCC12CC#C	C[C@H]1[C@H]2CC[C@@]12CC#C	
InChI=1S/C9H12/c1-3-5-9-6-4-8(9)7(9)2/h1,7-8H,4-6H2,2H3	InChI=1S/C9H12/c1-3-5-9-6-4-8(9)7(9)2/h1,7-8H,4-6H2,2H3/t7-,8+,9-/m0/s1
