14
gdb 60702	3.92847	0.6668	0.60917	1.8062	70.14	-0.2655	-0.0581	0.2074	1736.0621	0.097704	-473.821186	-473.811264	-473.81032	-473.858133	33.128	
N	 0.7063540122	 0.0916546953	-0.8157957122	-0.520475
C	-0.1148755975	 0.3219744263	 0.2464042511	 0.271323
O	 0.1541592539	 1.0740109035	 1.162432874	-0.331711
C	-1.3661290599	-0.4253383739	 0.1942349624	 0.016799
C	-2.416733882	-1.0161259216	 0.1943820877	 0.084375
C	-3.6932140938	-1.7336842356	 0.2367982175	-0.120347
O	-3.8499811746	-2.6593899263	-0.8004888468	-0.408888
C	-3.805150021	-2.4334407017	 1.6011712758	 0.142721
O	-3.9896434649	-3.6203750068	 1.6658458894	-0.24413
H	 1.5862305112	 0.5795013562	-0.854927735	 0.270218
H	 0.4445251242	-0.5267042355	-1.563580616	 0.273043
H	-4.5057516148	-0.9852272114	 0.2060251154	 0.136138
H	-3.9197539544	-3.5240172312	-0.3624882993	 0.300741
H	-3.7007814188	-1.7884973774	 2.4926337859	 0.130193
25.5122	61.12	78.6599	134.1044	153.4859	195.7273	271.5481	315.2756	381.9835	432.0052	485.2153	563.2689	569.877	602.2328	701.3877	766.8781	771.1052	841.6765	1012.9259	1060.7633	1090.3184	1146.9299	1232.8986	1323.5865	1349.3236	1386.0841	1431.2822	1609.7119	1776.6948	1823.7876	2341.0835	2949.3428	2979.9529	3602.3277	3675.021	3743.8427
NC(=O)C#CC(O)C=O	NC(=O)C#C[C@@H](O)C=O	
InChI=1S/C5H5NO3/c6-5(9)2-1-4(8)3-7/h3-4,8H,(H2,6,9)	InChI=1S/C5H5NO3/c6-5(9)2-1-4(8)3-7/h3-4,8H,(H2,6,9)/t4-/m1/s1
