18
gdb 106934	4.0552	1.154	1.03329	3.8036	74.27	-0.254	0.0242	0.2782	1187.6985	0.147801	-439.076918	-439.068578	-439.067633	-439.11004	31.201	
C	-0.3132111079	 1.2623852283	-0.0374125327	-0.258426
O	 0.2535519326	-0.0323918423	 0.0975494336	-0.285518
C	 0.8064606374	-0.5269821988	-1.0697073486	 0.419522
C	-0.0544317345	-1.0479464954	-2.1800462134	-0.34835
C	 0.8055003086	-2.0039621546	-1.35399124	-0.216001
C	 2.1394409597	-2.3181889044	-1.9228833587	 0.436228
N	 2.5962655559	-3.4674545545	-2.1727701882	-0.550127
O	 2.8220590651	-1.1433779819	-2.1498068451	-0.252876
C	 2.1957905806	-0.0427197039	-1.4746494068	-0.157697
H	 0.4459682648	 2.0199073738	-0.2773346464	 0.114665
H	-1.0874572064	 1.2822629991	-0.8160739241	 0.116323
H	-0.7641346072	 1.510055173	 0.9254913271	 0.135973
H	-1.1182382994	-1.10715794	-1.9801421458	 0.129411
H	 0.2158285257	-0.8555921701	-3.2135238322	 0.128863
H	 0.3217874946	-2.7272825385	-0.7135939249	 0.127703
H	 3.5537594252	-3.4011551302	-2.5225182436	 0.222196
H	 2.1961173401	 0.8114022876	-2.1589447141	 0.116072
H	 2.7687840649	 0.2151599527	-0.5753837162	 0.12204
82.7745	120.4632	166.2681	180.037	266.1628	338.5814	364.2619	419.7876	459.827	604.6963	651.8564	697.9453	751.9332	815.0482	886.9387	919.4597	932.949	957.8461	991.887	1014.1108	1041.6846	1067.1748	1094.896	1107.2889	1111.1309	1180.6438	1216.3235	1219.6083	1250.2526	1260.7037	1317.7541	1371.305	1406.7596	1470.3952	1488.4567	1494.184	1505.7553	1518.3162	1782.7724	2995.9822	3029.467	3052.0694	3081.9843	3129.0739	3130.5669	3223.9358	3232.5585	3473.3758
COC12CC1C(=N)OC2	CO[C@]12C[C@H]1[C]([NH])OC2	
InChI=1S/C6H9NO2/c1-8-6-2-4(6)5(7)9-3-6/h4,7H,2-3H2,1H3	InChI=1S/C6H9NO2/c1-8-6-2-4(6)5(7)9-3-6/h4,7H,2-3H2,1H3/t4-,6-/m0/s1
