17
gdb 64523	3.69766	1.42254	1.28535	2.6435	72.5	-0.2563	-0.0328	0.2236	1000.9199	0.136092	-421.786242	-421.779029	-421.778085	-421.817695	29.079	
O	-0.0076312055	 1.4228830838	-0.0629676869	-0.493705
C	-0.041489327	 0.0357465573	-0.0532206215	 0.372004
C	 0.8103090681	-0.501390433	 1.0673923331	 0.107269
O	 1.4360920411	 0.2318662098	 1.7980325198	-0.28852
C	-1.3919865656	-0.6817096303	-0.1185194654	-0.134585
C	-1.7864150183	-0.7832740283	-1.5955556336	-0.081915
C	-0.684005009	-0.1095691903	-2.4095614779	-0.234813
C	 0.2986419923	-0.7391115336	-1.3877831598	-0.138763
C	-0.8229713621	-1.7776643906	-1.001095734	-0.087159
H	 0.6142955054	 1.6779508379	 0.6384834756	 0.289183
H	 0.842619368	-1.6025821506	 1.1766787066	 0.100676
H	-2.1262462923	-0.7711731141	 0.6716948783	 0.09551
H	-2.8220604178	-0.9447646267	-1.8643746802	 0.094626
H	-0.5744729765	-0.5781942347	-3.3912196899	 0.10109
H	-0.6776958878	 0.9798765786	-2.4991333637	 0.119401
H	 1.3325698451	-0.9539683357	-1.6494257559	 0.081213
H	-0.840405138	-2.8518001993	-0.9012376445	 0.098486
108.7348	185.1325	268.0423	325.351	371.5696	427.4166	468.2446	533.6728	567.8816	755.597	767.3044	796.1151	813.8274	823.6097	857.3353	895.4666	925.7957	975.1569	992.0278	1000.9322	1021.2302	1037.6461	1052.2829	1094.9565	1099.2635	1133.8392	1162.6997	1185.0094	1210.0105	1243.5674	1267.5922	1326.7014	1348.843	1380.2554	1440.064	1492.7299	1801.3476	2951.9853	3058.8721	3117.3924	3138.9588	3196.8479	3205.7742	3239.0966	3671.1487
OC1(C=O)C2C3CC1C23	O[C@@]1(C=O)[C@H]2[C@H]3C[C@@H]1[C@@H]23	
InChI=1S/C7H8O2/c8-2-7(9)4-1-3-5(4)6(3)7/h2-6,9H,1H2	InChI=1S/C7H8O2/c8-2-7(9)4-1-3-5(4)6(3)7/h2-6,9H,1H2/t3-,4+,5-,6-,7+/m0/s1
