19
gdb 71203	2.61805	1.99009	1.4426	1.046	79.24	-0.2281	0.0206	0.2487	948.9768	0.161129	-385.874974	-385.867855	-385.866911	-385.905808	30.294	
O	-0.07152006	 1.3553621672	 0.0518515374	-0.495614
C	 0.0068791324	-0.0542922945	 0.0150546825	 0.409276
C	 0.2130213439	-0.6504205988	-1.4283504325	-0.294609
C	-1.163075797	-1.3089345186	-1.3249208182	-0.069089
C	-1.2696641502	-2.1447728218	-0.0496022809	-0.076115
C	-0.113573098	-2.8073296058	 0.6057094464	-0.053712
C	 0.8955217922	-2.1172025312	 1.1411951905	-0.083981
C	 0.9521461047	-0.6104743297	 1.0828334031	-0.321819
C	-1.4130478131	-0.6496159644	 0.0211066732	-0.114756
H	 0.8211402121	 1.7041178087	-0.0520303262	 0.271254
H	 0.2189893689	 0.1644338908	-2.1556793584	 0.103308
H	 1.0743401632	-1.3058629208	-1.5913246422	 0.090052
H	-1.8561875533	-1.462097469	-2.1436456229	 0.08402
H	-2.2094675384	-2.6868573379	 0.0081326596	 0.088122
H	-0.115153593	-3.8933798815	 0.6458211918	 0.084369
H	 1.7192383272	-2.6344696939	 1.6253767826	 0.086094
H	 1.9794734501	-0.2869993362	 0.8548020035	 0.090644
H	 0.7050468836	-0.1669732861	 2.0580248204	 0.113786
H	-2.2875030454	-0.1424680665	 0.4084945703	 0.08877
202.4208	271.6191	281.1	314.8505	384.4204	414.0787	485.2505	509.0104	540.0328	628.3959	707.0027	770.4035	774.6417	818.1957	860.1228	887.547	926.5068	946.504	971.5156	978.6352	983.2568	1006.0925	1024.009	1059.1585	1072.5667	1105.2209	1142.9704	1152.9244	1190.9779	1218.3896	1226.304	1245.8666	1269.7358	1325.5036	1338.8929	1390.2098	1410.852	1428.0149	1468.2925	1474.8856	1707.3952	2989.7717	3022.0785	3047.8706	3114.4507	3145.1449	3153.7953	3174.0325	3176.6324	3196.7305	3793.267
OC12CC3C(C=CC1)C23	O[C@@]12C[C@H]3[C@@H](C=CC1)[C@@H]23	
InChI=1S/C8H10O/c9-8-3-1-2-5-6(4-8)7(5)8/h1-2,5-7,9H,3-4H2	InChI=1S/C8H10O/c9-8-3-1-2-5-6(4-8)7(5)8/h1-2,5-7,9H,3-4H2/t5-,6+,7-,8-/m1/s1
