17
gdb 88219	3.80965	0.69131	0.66166	3.655	81.97	-0.2513	-0.0221	0.2291	1722.4956	0.13484	-417.985769	-417.975899	-417.974955	-418.022254	34.49	
C	 1.0826053355	 1.2458126886	-0.5499342829	-0.396499
C	 0.1954598519	 0.1094763098	-0.1115322579	 0.020503
N	 0.8527446379	-1.1122608346	 0.3537976307	-0.321188
C	 0.06487298	-0.3101271952	 1.3258555542	-0.263444
C	 0.7799621601	 0.3395240612	 2.3854409215	 0.114797
C	 1.3491992716	 0.9001351264	 3.2895737804	 0.078592
C	 1.98628359	 1.5781174353	 4.4079761295	 0.255216
N	 3.3511268071	 1.5992269491	 4.331842945	-0.520786
O	 1.3581866413	 2.0913648662	 5.3139912352	-0.334245
H	 1.958010416	 1.3228695084	 0.098068047	 0.135622
H	 1.4269906819	 1.0853252879	-1.5767811223	 0.123835
H	 0.5393511554	 2.1956281482	-0.5159982866	 0.125765
H	-0.7184768309	-0.0107855922	-0.6924592114	 0.094063
H	 0.3164946885	-1.9357054298	 0.092154347	 0.238645
H	-0.9084699182	-0.6984758232	 1.6181922574	 0.117063
H	 3.8405624011	 1.0526996727	 3.6444381956	 0.267365
H	 3.8587320509	 1.9676253811	 5.1199187774	 0.264696
23.6243	69.2889	84.4002	180.8831	181.8098	216.0187	236.0717	347.626	381.603	404.5161	547.0637	560.2475	577.8968	611.8614	721.6369	771.3769	773.2396	842.6252	906.772	976.2004	1003.5912	1048.8968	1091.438	1097.9149	1147.5473	1200.8756	1242.1164	1257.2724	1349.4787	1393.3917	1420.7941	1453.4565	1486.6528	1496.2768	1607.8643	1772.5091	2341.8064	3041.7732	3105.5227	3108.4632	3128.9717	3138.7761	3503.2676	3597.1686	3737.4437
CC1NC1C#CC(N)=O	C[C@H]1N[C@H]1C#CC(=O)N	
InChI=1S/C6H8N2O/c1-4-5(8-4)2-3-6(7)9/h4-5,8H,1H3,(H2,7,9)	InChI=1S/C6H8N2O/c1-4-5(8-4)2-3-6(7)9/h4-5,8H,1H3,(H2,7,9)/t4-,5+/m1/s1
