17
gdb 112420	2.07665	1.5821	1.00042	4.2854	64.22	-0.2802	0.0337	0.3139	1172.9007	0.135933	-496.151693	-496.14317	-496.142226	-496.185282	31.131	
C	-0.2822340739	 1.5481597593	-0.1654152411	-0.418198
C	 0.0666690922	 0.0780420364	-0.0253137731	 0.092458
O	 1.0948580474	-0.275515514	-0.9727331624	-0.25509
C	 1.9073745703	-1.2188404697	-0.4399583177	 0.492008
O	 2.7605344576	-1.8013656003	-1.0275903638	-0.369387
O	 1.6083126051	-1.4069076965	 0.8766775779	-0.267292
C	 0.6731593528	-0.3969018613	 1.3101097947	 0.054882
C	 1.4452582203	 0.6313075483	 2.1350541532	-0.073668
O	 2.0506913223	 0.0207619366	 3.2522502058	-0.418752
H	 0.58504313	 2.1884444506	 0.011382457	 0.141588
H	-0.6516268261	 1.7442852701	-1.1748235974	 0.145716
H	-1.0713851619	 1.8177669565	 0.5430977026	 0.133346
H	-0.8134597322	-0.5335335171	-0.2600281115	 0.10721
H	-0.0645892751	-0.8903238483	 1.9473374196	 0.113123
H	 2.1847857065	 1.1395686854	 1.495953713	 0.104587
H	 0.7581629262	 1.3906181597	 2.5218009392	 0.119069
H	 2.6066982285	-0.6921462958	 2.9158761337	 0.2984
76.7852	124.9931	152.9514	192.7356	237.2103	280.4644	359.1136	430.0233	466.331	494.2901	563.3288	686.4506	719.8465	779.6076	841.1334	907.7857	939.6229	993.5495	1009.7332	1068.2741	1100.6401	1109.1502	1134.32	1156.3848	1189.6222	1235.0561	1310.422	1359.0833	1377.0894	1396.5204	1403.6893	1420.8922	1437.9974	1485.7869	1497.0166	1507.2916	1927.2604	2981.3053	3027.1538	3052.262	3080.335	3095.1381	3124.9753	3136.9427	3797.0512
CC1OC(=O)OC1CO	C[C@H]1OC(=O)O[C@H]1CO	
InChI=1S/C5H8O4/c1-3-4(2-6)9-5(7)8-3/h3-4,6H,2H2,1H3	InChI=1S/C5H8O4/c1-3-4(2-6)9-5(7)8-3/h3-4,6H,2H2,1H3/t3-,4+/m1/s1
