17
gdb 50554	2.95169	1.33126	1.24475	3.8117	68.14	-0.2446	-0.0271	0.2175	1067.4905	0.134764	-458.945249	-458.937141	-458.936196	-458.97878	29.741	
O	 0.787885489	-0.0893032654	 0.7090141341	-0.232688
C	 0.3425108957	 1.0103512987	 0.5219254554	 0.16021
C	 1.1144753801	 2.157039248	-0.1233049249	-0.003893
C	 1.458471546	 3.247474113	 0.9159661123	-0.330433
C	 2.7889664278	 2.7322770832	 1.4510883032	 0.397742
C	 3.6030194362	 3.4233382836	 2.4514439835	-0.252322
O	 2.8277637805	 2.2714902857	 2.8027028261	-0.262869
C	 3.3394083181	 1.79065574	 0.3768617891	-0.142927
O	 2.3555572081	 1.7481616518	-0.6560250513	-0.249275
H	-0.6968724528	 1.2840554787	 0.8245243514	 0.074383
H	 0.5018548945	 2.5480780347	-0.9454197331	 0.104086
H	 1.5826876578	 4.2090024698	 0.4097099286	 0.123867
H	 0.7247931596	 3.362119143	 1.7170263034	 0.128747
H	 4.6832752067	 3.2806606685	 2.4622850864	 0.11929
H	 3.2595629472	 4.3679136333	 2.8729104841	 0.116565
H	 4.2738003278	 2.1452845026	-0.0694018814	 0.112364
H	 3.4978957377	 0.7982078909	 0.8138889329	 0.137153
41.8362	113.1859	133.2322	265.95	293.4812	340.2996	380.1168	398.347	515.9183	648.5512	762.0781	778.674	809.1654	833.3014	894.226	917.0525	959.3389	979.2224	993.8402	1026.8303	1104.1594	1119.4361	1126.3586	1167.8184	1195.0746	1217.4601	1236.6521	1252.1335	1301.6904	1340.7953	1371.3851	1411.1282	1437.4567	1473.5857	1507.9612	1535.0456	1844.1711	2846.4647	3035.8711	3039.5892	3063.9887	3075.8383	3085.4689	3119.5687	3160.6513
O=CC1CC2(CO2)CO1	O=C[C@H]1C[C@]2(CO2)CO1	
InChI=1S/C6H8O3/c7-2-5-1-6(3-8-5)4-9-6/h2,5H,1,3-4H2	InChI=1S/C6H8O3/c7-2-5-1-6(3-8-5)4-9-6/h2,5H,1,3-4H2/t5-,6-/m1/s1
