16
gdb 61212	4.53029	0.80351	0.76435	4.351	66.38	-0.2909	-0.0585	0.2324	1440.3678	0.12187	-475.039132	-475.029727	-475.028783	-475.074084	33.114	
O	-0.0101227064	 1.4902690857	-0.0637583214	-0.423433
C	 0.0262661345	 0.0843711721	-0.0265550465	 0.117308
C	 0.64782855	-0.5122027917	-1.3114699881	-0.368365
C	-0.0667628884	-0.0985620647	-2.515138414	 0.269869
N	-0.6403120058	 0.2129050059	-3.4681549676	-0.299418
C	 0.8198292561	-0.3776865313	 1.2107481707	 0.007489
O	 2.1123546831	 0.1705937475	 1.1522702041	-0.442124
C	 0.1286282504	 0.0776519404	 2.4858196207	 0.146461
O	 0.7184955677	 0.7241002416	 3.3150613856	-0.253449
H	 0.8985283261	 1.7863001391	 0.0867844509	 0.292273
H	-1.0125655134	-0.2548131836	 0.0572717942	 0.112754
H	 1.6940706905	-0.1955330822	-1.3808775266	 0.169721
H	 0.6448293144	-1.607186251	-1.25830849	 0.149847
H	 0.8522775004	-1.4821260407	 1.2354229397	 0.102738
H	 2.2575299944	 0.5847702727	 2.0200699854	 0.304575
H	-0.9282573035	-0.2264973598	 2.6161687129	 0.113754
59.3219	87.9361	94.969	158.9453	235.4087	274.7362	286.0031	343.4166	395.5352	410.6188	460.8455	556.6445	575.2287	708.0494	744.9227	845.3497	869.2331	932.765	955.5403	1001.0773	1058.2458	1105.4206	1158.7293	1197.1739	1248.5382	1265.6981	1323.1593	1346.9938	1371.7546	1395.8858	1429.7925	1433.9974	1463.207	1818.9274	2367.8066	2944.7842	2958.6469	3045.7268	3055.0712	3093.1617	3659.9255	3755.3993
OC(CC#N)C(O)C=O	O[C@@H](CC#N)[C@@H](O)C=O	
InChI=1S/C5H7NO3/c6-2-1-4(8)5(9)3-7/h3-5,8-9H,1H2	InChI=1S/C5H7NO3/c6-2-1-4(8)5(9)3-7/h3-5,8-9H,1H2/t4-,5-/m0/s1
