18
gdb 33003	5.1339	0.91641	0.78528	3.3838	82.54	-0.2427	-0.0056	0.2372	1443.7337	0.149491	-402.009222	-402.001111	-402.000167	-402.042414	30.214	
C	 0.0402530678	 1.5643871887	-0.094698035	-0.392021
C	-0.006694646	 0.0514546281	 0.0161841288	-0.053352
O	 0.6477379623	-0.485840206	-1.1327303854	-0.27078
C	 0.7352923637	-1.8265607592	-1.2636404907	 0.427631
C	 0.2323580452	-2.7619893261	-0.3560331788	-0.270971
C	 0.4082757405	-4.1148074925	-0.643210697	 0.012562
N	 1.0239216838	-4.5901219972	-1.7250089986	-0.281053
C	 1.4985643427	-3.6753281488	-2.5821186592	 0.018317
C	 1.3855080933	-2.3062636851	-2.4065655302	-0.22319
H	 1.074674218	 1.9164845675	-0.1297170308	 0.134649
H	-0.4698834178	 1.90063165	-1.0012947951	 0.134641
H	-0.4524903937	 2.0177389792	 0.7702758789	 0.123084
H	 0.5023331208	-0.2924527878	 0.9267885635	 0.112448
H	-1.0438058864	-0.3085200632	 0.0535773161	 0.112451
H	-0.2817263016	-2.4683518919	 0.5491984238	 0.099445
H	 0.0224185685	-4.856361682	 0.0535455527	 0.105406
H	 2.0011045999	-4.0635507125	-3.4651621944	 0.107135
H	 1.786225679	-1.6050739512	-3.1288978886	 0.103598
64.5026	116.2664	163.6385	233.749	261.9552	339.3304	403.4368	432.3746	552.2181	597.0219	674.7073	761.7838	821.3864	821.82	849.7169	868.2987	943.142	978.6526	999.6785	1006.89	1070.1844	1077.3876	1113.128	1138.1364	1183.2794	1243.5285	1288.7694	1298.5398	1324.9202	1362.3653	1401.222	1424.2013	1449.0433	1484.8383	1499.5374	1518.0649	1535.9994	1607.1322	1634.1946	3002.244	3041.707	3049.4428	3124.8392	3129.1889	3146.9448	3154.3299	3205.7457	3219.5985
CCOC1=CC=NC=C1	CCOc1ccncc1	
InChI=1S/C7H9NO/c1-2-9-7-3-5-8-6-4-7/h3-6H,2H2,1H3	InChI=1S/C7H9NO/c1-2-9-7-3-5-8-6-4-7/h3-6H,2H2,1H3
