15
gdb 33447	2.48579	1.61059	1.13997	4.6155	76.68	-0.2406	0.0088	0.2494	1057.3175	0.112094	-379.589159	-379.581152	-379.580208	-379.621594	30.394	
C	 0.0566390287	-1.1848009501	-0.0039442894	-0.412812
C	 0.0499873989	 0.0161477373	 0.0129557614	 0.263312
C	 0.0269094059	 1.4524302188	 0.0448685728	 0.008714
C	-1.0545611669	 2.0782002563	-0.6808941956	 0.222576
N	-1.9087622034	 2.6020929175	-1.2583583469	-0.336505
C	 0.4484648589	 2.2620694818	 1.2938110217	-0.124803
C	 1.6174169942	 1.5580723051	 1.988446469	-0.202781
N	 2.3752758421	 1.5141072423	 0.688008001	-0.324666
C	 1.3128303098	 2.3034812892	 0.0657816771	-0.039383
H	 0.0676749308	-2.2464262406	-0.0327183389	 0.201669
H	-0.2415192347	 2.9735520386	 1.7266671636	 0.12792
H	 2.085101343	 2.209874984	 2.7312472329	 0.12107
H	 1.4276598609	 0.5728274709	 2.4226098872	 0.131401
H	 3.2409174604	 2.0387640863	 0.7435482295	 0.235969
H	 1.4819511516	 3.0598651526	-0.6907252354	 0.12832
126.071	145.8026	158.5751	178.7477	320.4231	355.0488	484.2651	498.9298	575.0808	579.3503	604.1754	608.7325	675.6452	747.3748	758.9514	838.4077	901.9332	960.4027	974.8275	1004.7	1020.7693	1042.9398	1089.5693	1117.5834	1171.6282	1249.0999	1272.6014	1282.1084	1348.9298	1396.5529	1498.3765	2244.5544	2353.225	3057.0042	3111.4788	3193.4849	3209.7577	3502.0211	3544.5336
C#CC1(C#N)C2CNC12	C#C[C@@]1(C#N)[C@H]2CN[C@@H]12	
InChI=1S/C7H6N2/c1-2-7(4-8)5-3-9-6(5)7/h1,5-6,9H,3H2	InChI=1S/C7H6N2/c1-2-7(4-8)5-3-9-6(5)7/h1,5-6,9H,3H2/t5-,6+,7+/m0/s1
