18
gdb 17400	4.13989	1.55992	1.50524	1.7587	71.89	-0.246	0.0921	0.3381	930.6232	0.153188	-347.748872	-347.741456	-347.740512	-347.780332	28.825	
C	-0.1139408806	 1.4985015642	-0.0055611242	-0.404327
C	-0.0000839701	-0.0090488039	 0.039720484	-0.051242
C	 1.3373702679	-0.6857447016	-0.1823845935	-0.36446
C	 0.6984981658	-0.6917737124	 1.1776086819	 0.363878
C	 1.3001713136	-0.101988234	 2.4827487312	-0.345727
C	 0.8208029605	-1.3824981363	 3.1933141872	 0.038104
O	-0.5964054273	-1.4708957196	 3.0150996579	-0.247479
C	 0.2541274973	-1.9214841495	 1.9466461373	-0.068754
H	 0.7784298571	 1.9755544867	 0.4130819007	 0.114504
H	-0.2282513646	 1.8561921428	-1.034788243	 0.116838
H	-0.9779875287	 1.8486324805	 0.5695628687	 0.123361
H	-0.8637884044	-0.5372464694	-0.3581378714	 0.085683
H	 1.3650506742	-1.6145278658	-0.744192488	 0.10989
H	 2.2080110665	-0.0527726516	-0.3292163979	 0.108757
H	 2.3891593907	-0.0105867427	 2.4448479788	 0.106861
H	 0.8628410255	 0.8247732594	 2.8631423971	 0.111026
H	 1.2487693507	-1.8849423614	 4.052715654	 0.10315
H	 0.1226647259	-2.9406954854	 1.6004736092	 0.099938
112.7484	169.0239	202.9282	231.0002	357.5649	398.1084	448.6144	506.0943	579.5239	784.7215	792.7562	842.1169	857.3328	876.7968	887.2034	905.5908	950.2093	970.012	1011.0297	1022.8588	1053.682	1071.3195	1104.3705	1125.3655	1159.2504	1183.0013	1194.1359	1223.6632	1234.6129	1269.989	1326.3186	1380.7934	1411.8862	1431.8211	1472.1616	1490.8435	1493.1593	1507.3623	3027.5296	3057.7582	3090.8707	3095.435	3113.8235	3115.7707	3132.1247	3176.2125	3193.0953	3199.2443
CC1CC11CC2OC12	C[C@H]1C[C@]21C[C@H]1O[C@@H]21	
InChI=1S/C7H10O/c1-4-2-7(4)3-5-6(7)8-5/h4-6H,2-3H2,1H3	InChI=1S/C7H10O/c1-4-2-7(4)3-5-6(7)8-5/h4-6H,2-3H2,1H3/t4-,5+,6+,7+/m0/s1
