15
gdb 131872	5.65942	0.7968	0.73069	2.3996	64.36	-0.2498	-0.0457	0.2041	1471.7804	0.111638	-491.035368	-491.027077	-491.026133	-491.069865	29.118	
O	-0.0310563322	 1.4218680286	-0.0031522136	-0.415951
C	-0.0150331595	 0.0096209779	 0.016118737	-0.069264
C	-1.4130758492	-0.5798714477	 0.039224618	-0.085553
O	-2.0365240339	-0.1723843019	-1.1956762467	-0.292918
C	-3.3163464097	-0.5172348858	-1.3666176448	 0.347428
C	-4.1451031951	-0.2175193348	-2.4051940516	-0.070315
O	-5.330772258	-0.7830772514	-2.1491276681	-0.151202
N	-5.2182218703	-1.4459589593	-0.9161705998	-0.004409
N	-4.0385037338	-1.2772667528	-0.4832383683	-0.201182
H	-0.5496485652	 1.6829677889	-0.7719100376	 0.291397
H	 0.5378940562	-0.4041003888	-0.8417580163	 0.100776
H	 0.5093423414	-0.2917543831	 0.9285009493	 0.121269
H	-1.3903588878	-1.6737228876	 0.1007102088	 0.12396
H	-1.9901605342	-0.188896392	 0.8835934906	 0.134128
H	-4.0353746384	 0.3408678595	-3.317658407	 0.171836
45.7218	50.8129	131.6303	175.1103	286.4972	342.6312	385.6301	468.3271	488.9174	643.5	714.4621	729.3661	735.603	786.5133	891.3969	905.1647	989.1254	1030.523	1068.4324	1097.241	1126.373	1131.7773	1231.5574	1265.3839	1307.0579	1339.3335	1388.1108	1396.3659	1434.5863	1435.4574	1494.0401	1498.3992	1659.8243	2988.8637	3040.111	3086.3306	3096.6941	3304.3029	3812.1947
OCCOC1=CON=N1	OCCOc1conn1	
InChI=1S/C4H6N2O3/c7-1-2-8-4-3-9-6-5-4/h3,7H,1-2H2	InChI=1S/C4H6N2O3/c7-1-2-8-4-3-9-6-5-4/h3,7H,1-2H2
