19
gdb 48033	5.90928	0.56587	0.53223	4.1175	88.09	-0.2622	-0.057	0.2052	2024.6191	0.157923	-385.860841	-385.851231	-385.850287	-385.897944	33.214	
O	-0.1348462173	-0.0172319966	 0.0855564784	-0.23088
C	-0.0329934454	 1.1887052248	 0.0929036651	 0.017891
C	 1.2070467621	 1.9077213255	-0.0302024771	 0.036429
C	 2.2340254452	 2.5370325636	-0.1309322367	 0.094335
C	 3.4640198371	 3.3065246493	-0.2475540712	-0.390532
C	 3.2628141421	 4.8162257748	-0.0736915985	 0.061383
C	 2.8648095059	 5.371114337	 1.3219640095	-0.21648
C	 3.8285372441	 6.5637091307	 1.0747281863	-0.209996
C	 4.5235746401	 5.7231294881	-0.0309507304	-0.238348
H	-0.9247351469	 1.8403816671	 0.1995370135	 0.095173
H	 4.1827224118	 2.9416880585	 0.4994223404	 0.137655
H	 3.9186301009	 3.1000872426	-1.2265462511	 0.142803
H	 2.5621062067	 5.1752014324	-0.8344624526	 0.085003
H	 1.8097927878	 5.5881840247	 1.501300808	 0.103546
H	 3.2261530355	 4.7202940377	 2.1251918866	 0.102446
H	 3.3052806502	 7.428281019	 0.6569656393	 0.106511
H	 4.4413797381	 6.9019783236	 1.9127883646	 0.101462
H	 5.389792536	 5.1800128277	 0.3621442714	 0.100489
H	 4.8202346559	 6.2266858494	-0.9540624556	 0.10111
18.374	48.2081	69.3812	139.891	163.9291	192.0521	287.4034	378.2561	406.3809	461.4208	597.6909	642.0889	758.2363	788.1342	833.1467	863.8386	901.4707	933.5679	962.964	971.9998	1022.4756	1049.9146	1104.4526	1129.7185	1157.3504	1199.4879	1215.7216	1258.5047	1258.8449	1267.47	1274.3286	1297.596	1328.8998	1378.6278	1423.3121	1453.937	1479.0201	1486.6862	1511.2283	1766.5914	2327.3009	2912.1595	3009.3844	3037.0234	3046.7584	3050.514	3060.4633	3062.331	3101.5456	3107.7123	3122.482
O=CC#CCC1CCC1	O=CC#CCC1CCC1	
InChI=1S/C8H10O/c9-7-2-1-4-8-5-3-6-8/h7-8H,3-6H2	InChI=1S/C8H10O/c9-7-2-1-4-8-5-3-6-8/h7-8H,3-6H2
