18
gdb 99618	2.24166	1.30965	1.05834	4.1238	72.59	-0.2835	0.009	0.2924	1220.4236	0.144535	-439.062766	-439.052877	-439.051933	-439.097965	34.673	
C	 0.4583861199	 1.576381504	 0.5597318914	-0.248025
O	 0.8512410001	 0.2516611287	 0.2357637161	-0.236334
C	 0.6549142111	-0.680760755	 1.2706944368	-0.07044
C	-0.7870243984	-0.8630404207	 1.57047002	 0.279418
N	-1.9151562781	-0.9830161577	 1.7891773033	-0.32944
C	 1.2936757082	-2.0012532646	 0.8392663573	 0.400068
C	 0.7240370116	-2.6457144556	-0.399589667	-0.476983
C	 2.6783777084	-2.2372303484	 1.2658613872	-0.228663
O	 1.5804273566	-2.8607369777	 1.9422877132	-0.271748
H	 1.0115423648	 1.9526648971	 1.4324696925	 0.115734
H	 0.6957440346	 2.1925577624	-0.30900091	 0.14123
H	-0.6177055852	 1.6402461257	 0.7663175268	 0.139941
H	 1.139889073	-0.3528105348	 2.2030930106	 0.117723
H	 0.7997103579	-1.9608615763	-1.248283471	 0.144957
H	 1.2664279965	-3.5650224465	-0.6302055838	 0.130494
H	-0.3316303868	-2.8941791079	-0.2521928415	 0.150178
H	 3.3055035492	-2.9060755359	 0.6794379297	 0.123944
H	 3.2129414267	-1.4797734969	 1.8373643785	 0.117948
54.1094	99.2563	134.8906	168.7293	177.7625	188.5369	248.328	322.2605	348.2031	365.125	403.4778	479.5305	544.2259	611.8545	781.8264	860.6305	892.0234	926.7317	975.0534	997.1259	1044.299	1114.9601	1133.9743	1141.476	1165.5774	1183.8519	1216.1811	1279.4917	1300.8201	1346.3225	1404.0716	1430.2496	1478.7114	1482.626	1487.8179	1499.0995	1508.0116	1533.9622	2353.6863	2992.0132	2996.9818	3050.0467	3059.7832	3087.9665	3120.9963	3136.3729	3137.8214	3176.7533
COC(C#N)C1(C)CO1	CO[C@@H](C#N)[C@@]1(C)CO1	
InChI=1S/C6H9NO2/c1-6(4-9-6)5(3-7)8-2/h5H,4H2,1-2H3	InChI=1S/C6H9NO2/c1-6(4-9-6)5(3-7)8-2/h5H,4H2,1-2H3/t5-,6+/m0/s1
