21
gdb 120564	3.7314	0.72963	0.69018	1.5371	86.82	-0.2377	0.0559	0.2936	1694.0192	0.179507	-387.042263	-387.031648	-387.030703	-387.078137	38.768	
C	 0.0298872786	 1.5307955513	-0.1518074755	-0.459476
C	-0.0008555791	 0.0173579698	 0.0148306732	 0.118363
C	 1.3093552743	-0.7613120927	-0.0362770714	-0.317302
C	 0.5671372441	-0.6511413761	 1.2682598625	-0.030041
C	 1.1171152512	 0.1325215604	 2.4400066208	-0.212488
C	 2.043263774	-0.7164456662	 3.3067146981	-0.065681
O	 2.5058753672	 0.0998433986	 4.3715836795	-0.421396
C	-1.157603786	-0.6136227547	-0.567715798	 0.278698
C	-2.1329680637	-1.1221831522	-1.0559593696	-0.463536
H	 0.9450225136	 1.9618632224	 0.2599988622	 0.118006
H	-0.0181237709	 1.7938686333	-1.2128383423	 0.128034
H	-0.8242072989	 1.9980840513	 0.3482842326	 0.128234
H	 1.3187884145	-1.7097888815	-0.5600037427	 0.121142
H	 2.2119557357	-0.1691374302	-0.1544948877	 0.113023
H	 0.0211638701	-1.5453598603	 1.5580066904	 0.095499
H	 1.6800934067	 1.0083777472	 2.1027051552	 0.107309
H	 0.3002360709	 0.5057465581	 3.0694834042	 0.111869
H	 1.4957641163	-1.5952967938	 3.685019566	 0.085387
H	 2.8791486705	-1.0925271419	 2.6953077734	 0.089133
H	 3.0854925973	-0.4293100468	 4.9270018205	 0.285849
H	-2.9915197065	-1.5751266563	-1.4856137212	 0.189374
63.0011	86.7229	103.7039	152.4556	178.653	203.7848	258.2876	261.3213	312.3242	362.7082	395.4867	474.6345	542.5725	562.8304	586.9686	640.4094	675.886	797.0227	837.8269	877.7535	925.0013	945.5688	985.0597	1014.007	1063.0142	1075.4563	1101.5901	1111.2848	1122.8508	1180.7849	1230.3984	1240.8101	1280.8425	1295.7675	1314.3975	1331.7615	1415.9983	1421.7628	1460.8934	1482.3472	1487.025	1495.2602	1503.1591	1527.5729	2231.1132	2962.683	2990.2682	3036.8956	3043.0061	3085.1595	3105.9072	3125.2876	3129.7035	3140.9257	3221.8349	3504.0291	3830.7709
CC1(CC1CCO)C#C	C[C@]1(C[C@H]1CCO)C#C	
InChI=1S/C8H12O/c1-3-8(2)6-7(8)4-5-9/h1,7,9H,4-6H2,2H3	InChI=1S/C8H12O/c1-3-8(2)6-7(8)4-5-9/h1,7,9H,4-6H2,2H3/t7-,8-/m1/s1
