19
gdb 103047	2.4685	1.46846	1.10799	5.1906	80.02	-0.2533	0.0228	0.2761	1155.5372	0.159476	-382.037647	-382.028962	-382.028018	-382.07104	32.688	
C	 1.0158641764	 0.345409254	 1.1320139114	-0.394235
C	 0.0295412112	 0.1346786856	-0.0240021005	-0.276461
C	 0.6833069094	-0.5170837154	-1.2371072111	 0.163201
C	 1.7723573977	 0.2796160494	-1.7770981494	 0.27895
N	 2.6468469745	 0.9300375755	-2.1625926984	-0.348713
C	 0.8522781093	-1.9866916663	-1.4374631863	-0.048005
C	-0.3114015491	-2.7872560184	-0.8591099897	-0.274183
C	-1.2249511241	-1.9171469542	-1.7603568221	-0.162014
N	-0.0473625112	-1.1853964009	-2.3570850818	-0.174065
H	 1.4259654337	-0.6085359339	 1.4789896431	 0.122825
H	 1.8526607029	 0.9813623402	 0.8301930137	 0.150077
H	 0.5144125128	 0.8250421033	 1.977187653	 0.122007
H	-0.8062334361	-0.476184592	 0.3221256153	 0.112725
H	-0.3936669852	 1.0962408077	-0.336779385	 0.12542
H	 1.7948848918	-2.3990212153	-1.7825594029	 0.116896
H	-0.2901203388	-3.8335475496	-1.1672248885	 0.12536
H	-0.4517912328	-2.7455167263	 0.2242822741	 0.11577
H	-1.7126844702	-2.4817535497	-2.5563138647	 0.126842
H	-1.9675132823	-1.2737468937	-1.2823129002	 0.117603
68.7978	149.1838	160.7581	204.6127	225.1505	283.1976	319.9851	415.6945	450.2637	544.4968	559.4879	651.9776	764.8686	779.6923	792.9019	846.9182	856.454	948.5099	966.381	976.1387	1001.2654	1034.5459	1063.1153	1100.0207	1111.7959	1149.4489	1211.8355	1219.8062	1261.2267	1282.2916	1289.8336	1312.3058	1359.6001	1392.3639	1415.6636	1475.4263	1494.9714	1499.0376	1507.523	1509.8375	2356.6292	3042.1251	3047.8262	3065.2625	3072.0586	3102.1314	3114.164	3116.4503	3126.1325	3133.7042	3168.0725
CCC1(C#N)C2CCN12	CC[C@@]1(C#N)[C@H]2CCN12	
InChI=1S/C7H10N2/c1-2-7(5-8)6-3-4-9(6)7/h6H,2-4H2,1H3	InChI=1S/C7H10N2/c1-2-7(5-8)6-3-4-9(6)7/h6H,2-4H2,1H3/t6-,7-,9?/m1/s1
