15
gdb 69190	1.99247	1.76983	1.15497	6.5277	71.55	-0.259	-0.0429	0.2161	1071.5055	0.111658	-416.791274	-416.783079	-416.782134	-416.824251	30.051	
C	-0.02596589	 1.5253867852	 0.0281736159	-0.508853
C	 0.0910616381	 0.0344061237	 0.015666439	 0.328834
N	-0.7999178514	-0.8626888616	 0.7433938105	-0.342508
C	 0.6779989812	-0.9125037413	 1.0369994346	-0.251486
C	 1.2563364476	-1.7681600622	-0.0533557497	 0.46766
O	 2.03580144	-2.664048467	-0.1129405981	-0.283005
C	 0.6300498606	-0.816982185	-1.1619101184	-0.336401
C	-0.3130084939	-1.3412463238	-2.1285057165	 0.300263
N	-1.0629684503	-1.7537096213	-2.9055261868	-0.326932
H	 0.8933628506	 1.9967965629	-0.3326048731	 0.140164
H	-0.8491735145	 1.8532330475	-0.6155293264	 0.155439
H	-0.2221756684	 1.8914648265	 1.0410187409	 0.132315
H	-1.2202355989	-0.3389854357	 1.5124193141	 0.24565
H	 1.0510351541	-0.7389159517	 2.0380491298	 0.129744
H	 1.4660051152	-0.326271116	-1.6722072559	 0.149117
94.1414	117.566	157.3853	209.5433	263.7808	354.5948	390.8405	406.933	531.0959	567.2433	582.1891	644.8279	723.0197	811.1237	831.8515	911.2034	950.3928	992.7761	1007.7419	1042.3651	1067.1505	1101.0309	1125.5895	1135.7702	1281.3385	1288.1843	1332.7047	1408.1757	1439.9151	1479.6567	1496.0785	1916.6989	2357.5982	3034.9945	3068.2092	3103.3954	3109.9995	3209.8077	3465.4029
CC12NC1C(=O)C2C#N	C[C@]12N[C@H]1C(=O)[C@H]2C#N	
InChI=1S/C6H6N2O/c1-6-3(2-7)4(9)5(6)8-6/h3,5,8H,1H3	InChI=1S/C6H6N2O/c1-6-3(2-7)4(9)5(6)8-6/h3,5,8H,1H3/t3-,5+,6-/m1/s1
