17
gdb 127517	2.49206	1.31894	0.87253	3.809	72.32	-0.2075	0.0297	0.2372	1276.8532	0.135648	-455.157168	-455.147802	-455.146858	-455.19239	32.911	
C	-0.0201926081	 1.3515269628	-0.0337118934	-0.326868
N	 0.0704662602	-0.0867275904	 0.0463509072	-0.04068
N	 0.0439426386	-0.8185983827	-1.1056043466	-0.384426
C	 0.0329785066	-2.0757047698	-0.6896878485	 0.438539
O	 0.0278393728	-3.1077283252	-1.5607844275	-0.432026
C	 0.0365790293	-2.1884165416	 0.7153900008	-0.405887
C	 0.0541784022	-0.8780370244	 1.1498028895	 0.398604
C	 0.0456452779	-0.3305589904	 2.5430090626	-0.190678
O	 0.2077287129	-1.4139335818	 3.4371076504	-0.406039
H	 0.5672120543	 1.8130279104	 0.7648866678	 0.133531
H	 0.3856359857	 1.6604744962	-0.997437478	 0.15791
H	-1.0568643395	 1.7033999579	 0.0413503418	 0.134235
H	 0.0321210692	-2.7254742621	-2.44717764	 0.299865
H	 0.0433695354	-3.0769241482	 1.3210483531	 0.121949
H	 0.8543038634	 0.4117329039	 2.6603485721	 0.102759
H	-0.901249013	 0.2049993505	 2.7299270486	 0.105585
H	 0.1070945823	-1.0796253053	 4.3327350602	 0.293629
35.3134	76.6815	154.1177	174.9394	184.346	226.8889	287.1103	362.4231	395.6059	413.1655	537.5763	618.0043	636.4987	658.9386	717.0514	789.6824	840.6323	1016.6125	1040.7412	1068.8626	1093.2231	1144.277	1152.9365	1174.402	1226.0667	1245.8146	1262.8452	1329.6305	1428.4992	1459.5254	1465.8517	1488.9126	1502.1766	1513.806	1549.5378	1559.6773	1608.8966	2943.4495	2958.5459	3021.84	3093.0297	3150.8772	3297.3195	3796.1005	3840.0669
CN1N=C(O)C=C1CO	Cn1nc(O)cc1CO	
InChI=1S/C5H8N2O2/c1-7-4(3-8)2-5(9)6-7/h2,8H,3H2,1H3,(H,6,9)	InChI=1S/C5H8N2O2/c1-7-4(3-8)2-5(9)6-7/h2,8H,3H2,1H3,(H,6,9)
