15
gdb 33561	2.20208	1.5819	1.20271	5.1296	74.98	-0.2904	-0.0285	0.2618	1063.0813	0.113583	-379.701669	-379.693647	-379.692703	-379.734599	29.298	
N	-0.0988229636	-1.1429219343	-0.1062895474	-0.325311
C	-0.0843659292	 0.011771898	-0.0930839735	 0.27398
C	-0.037097829	 1.4809356789	-0.0346367402	-0.052429
C	-0.6503976105	 2.0299909175	 1.3078036117	-0.25672
C	 0.2569316592	 3.2141210905	 1.7110363417	-0.268784
C	 1.5331693038	 2.9478889793	 0.9559740658	-0.055558
C	 1.3991305184	 2.0162455596	 0.0185390697	-0.088682
C	-0.7344147967	 2.0354694863	-1.2113768442	 0.281728
N	-1.2688652899	 2.5113835644	-2.1181662947	-0.32351
H	-1.7010541437	 2.2945530559	 1.1874052036	 0.142582
H	-0.5828050736	 1.2331584759	 2.0509003856	 0.14545
H	-0.1706121029	 4.1797745295	 1.4126096736	 0.137644
H	 0.4056351812	 3.2598282073	 2.7943825649	 0.128237
H	 2.4498113615	 3.494575464	 1.1454388078	 0.124032
H	 2.145730005	 1.6704702572	-0.6835521344	 0.137339
78.9432	132.6362	157.2207	181.7813	241.9758	383.9867	475.2431	506.8898	532.2852	574.0081	594.8569	687.7843	769.357	780.8631	851.2774	930.5431	968.0356	983.4638	988.038	1059.7709	1076.0092	1106.0503	1153.2412	1212.8567	1250.9478	1315.1501	1323.4947	1368.6083	1479.937	1495.0506	1687.6279	2357.6707	2365.6775	3033.4537	3076.3275	3090.3218	3144.9868	3203.0452	3237.8366
N#CC1(CCC=C1)C#N	N#CC1(CCC=C1)C#N	
InChI=1S/C7H6N2/c8-5-7(6-9)3-1-2-4-7/h1,3H,2,4H2	InChI=1S/C7H6N2/c8-5-7(6-9)3-1-2-4-7/h1,3H,2,4H2
