19
gdb 74315	3.13472	1.18258	0.95574	3.4022	82.89	-0.2332	-0.0205	0.2128	1258.8333	0.158964	-385.903054	-385.894602	-385.893657	-385.93648	31.977	
C	-0.0212165338	 1.4803764168	 0.0151764321	-0.496496
C	 0.0074176401	-0.0153099533	 0.0018827236	 0.330191
C	 0.0664230421	-0.8154341192	-1.0706507517	-0.216706
C	 0.0210511164	-2.291552583	-0.7099749889	-0.115792
C	 1.1634105148	-3.0760289524	-1.3357497173	 0.159488
O	 1.0322238426	-3.9023947357	-2.2016943681	-0.254949
C	 0.0748634009	-2.2681678915	 0.8229638708	-0.070207
C	 1.253514373	-1.6220417263	 1.512600938	-0.286335
C	-0.0053833395	-0.8165407945	 1.2645788816	-0.128788
H	 0.8356595815	 1.8866856975	 0.5668480353	 0.132195
H	-0.0073552858	 1.8941652736	-0.996257178	 0.127663
H	-0.9212417193	 1.8502008018	 0.5222022744	 0.130001
H	 0.140995214	-0.4783915167	-2.0985701729	 0.100774
H	-0.9039486178	-2.7579957651	-1.0708533432	 0.097195
H	 2.1689291206	-2.8212671541	-0.9319459716	 0.07229
H	-0.4519267989	-3.0456954033	 1.3622722075	 0.097826
H	 1.4514152487	-1.9496791499	 2.5279206045	 0.115288
H	 2.1377273058	-1.3556098526	 0.9444209417	 0.11776
H	-0.6044075153	-0.4936673321	 2.109474822	 0.088603
57.3117	127.4729	190.5357	196.0997	233.8831	325.6864	383.3193	427.3208	447.0943	577.9437	602.6763	730.6738	788.802	818.9121	840.5593	860.2427	915.4	953.5752	988.7915	1019.003	1024.7459	1054.4444	1069.1451	1075.7835	1097.4305	1100.4186	1109.3696	1183.1684	1197.2381	1259.5784	1270.9428	1295.4872	1364.0957	1376.8546	1414.2699	1426.3778	1476.0837	1478.7724	1487.8547	1692.9932	1824.7672	2879.3349	3021.1177	3033.1662	3068.2111	3116.3875	3130.0399	3164.3248	3185.4549	3195.3145	3218.5494
CC1=CC(C=O)C2CC12	CC1=C[C@@H](C=O)[C@H]2C[C@@H]12	
InChI=1S/C8H10O/c1-5-2-6(4-9)8-3-7(5)8/h2,4,6-8H,3H2,1H3	InChI=1S/C8H10O/c1-5-2-6(4-9)8-3-7(5)8/h2,4,6-8H,3H2,1H3/t6-,7-,8+/m0/s1
