18
gdb 5330	4.38451	1.406	1.38787	4.1238	72.69	-0.2176	0.0368	0.2544	992.412	0.155169	-344.028616	-344.020655	-344.019711	-344.062091	29.246	
C	-0.0033141913	 1.5488376892	-0.0120750015	-0.381057
C	-0.0095360048	 0.0167108115	 0.0460505068	 0.028466
C	 0.772362789	-0.5247106806	 1.2486552413	-0.38114
N	-1.379530887	-0.5069153843	 0.0278254111	 0.022682
C	-1.9358268528	-1.3045684806	-0.9496184586	-0.127646
C	-3.2239374254	-1.5449636966	-0.5498579093	-0.097895
N	-3.4811439814	-0.9188307997	 0.6459384146	-0.275642
C	-2.3584370985	-0.3093575859	 0.9597879452	 0.001214
H	 1.0236819095	 1.9191816661	-0.0843703421	 0.12176
H	-0.5640056852	 1.9075327167	-0.8792081727	 0.132353
H	-0.4534488038	 1.9797808794	 0.8876381515	 0.126974
H	 0.455672753	-0.3654042761	-0.8682535126	 0.098593
H	 0.3463925375	-0.1652648641	 2.1904777292	 0.126999
H	 0.7572290956	-1.617650391	 1.2627469679	 0.132343
H	 1.8135597037	-0.1918015744	 1.2021504488	 0.121771
H	-1.3678124796	-1.6133445715	-1.8120311915	 0.122282
H	-3.9775307013	-2.131130604	-1.0536480207	 0.105101
H	-2.1964040472	 0.286029046	 1.8456894825	 0.122842
18.2546	125.3918	214.4389	223.7578	263.4913	321.3086	408.8548	486.5474	639.7245	649.047	684.3942	726.4056	816.7224	849.4986	885.7127	918.0953	930.8073	949.949	1027.8121	1091.979	1118.8342	1142.9764	1146.696	1186.3401	1260.0436	1280.3653	1324.4838	1347.1474	1384.1148	1401.7195	1421.2687	1439.1598	1483.1089	1487.1662	1497.5632	1507.5338	1525.8849	1540.4469	3040.2924	3044.3627	3056.3648	3109.9985	3118.2647	3122.6595	3124.9583	3245.1504	3249.7725	3272.5664
CC(C)N1C=CN=C1	CC(C)n1ccnc1	
InChI=1S/C6H10N2/c1-6(2)8-4-3-7-5-8/h3-6H,1-2H3	InChI=1S/C6H10N2/c1-6(2)8-4-3-7-5-8/h3-6H,1-2H3
