18
gdb 96917	4.84721	1.14171	1.10543	1.9887	81.02	-0.2541	0.0115	0.2656	1163.7169	0.147283	-401.815282	-401.807593	-401.806649	-401.847625	29.886	
C	 0.2108140027	 1.5373348891	-0.0186719463	-0.341083
N	 0.1958422127	 0.0845326615	-0.1203938923	-0.325508
C	 0.4443999466	-0.609429011	 0.8829555576	 0.380268
O	 0.7708849859	-0.1813168708	 2.2230170079	-0.339675
C	 0.5320227201	-1.5608631328	 2.6173962437	 0.392454
C	 1.0028749633	-2.9294207031	 3.190679394	-0.299896
C	-0.1061830379	-3.183797401	 2.0505916069	-0.089488
C	-0.9350303132	-2.0559161879	 2.6924413355	-0.263907
C	 0.6741772963	-2.0924175173	 1.2136304204	-0.149373
H	 1.0103863946	 1.9284833168	-0.6573014336	 0.13266
H	-0.7329487033	 1.9273320759	-0.4136798412	 0.130818
H	 0.355830356	 1.9097603349	 1.0011371817	 0.132942
H	 2.0214699463	-3.239512401	 2.9530229693	 0.115817
H	 0.7108310812	-3.1985344922	 4.209058914	 0.10899
H	-0.455151514	-4.165280568	 1.729640317	 0.096999
H	-1.3470062054	-2.24463914	 3.6851834748	 0.099261
H	-1.6446794494	-1.5467341521	 2.0379268924	 0.115354
H	 1.6839299376	-2.3847892309	 0.9161395982	 0.103367
93.05	98.8181	192.8029	265.5427	333.0181	419.6209	466.9704	546.9631	580.6162	664.7184	696.3387	729.3372	818.4235	836.7212	849.3122	919.7946	952.6932	966.981	1011.0763	1017.758	1027.0493	1068.6862	1087.4228	1106.6039	1131.0055	1142.9807	1164.6397	1170.6611	1183.0322	1197.8171	1226.6715	1232.996	1334.0467	1436.7887	1491.9769	1492.9613	1496.2498	1531.1526	1838.352	3023.277	3062.936	3072.4471	3079.5554	3089.2288	3098.7841	3114.6366	3142.1339	3145.1694
CN=C1OC23CC(C2)C13	CN=C1O[C@@]23C[C@@H](C2)[C@@H]13	
InChI=1S/C7H9NO/c1-8-6-5-4-2-7(5,3-4)9-6/h4-5H,2-3H2,1H3	InChI=1S/C7H9NO/c1-8-6-5-4-2-7(5,3-4)9-6/h4-5H,2-3H2,1H3/t4-,5-,7-/m0/s1
