21
gdb 60966	4.19091	0.83273	0.7411	2.4594	80.18	-0.2675	-0.0358	0.2317	1559.1227	0.180616	-424.227807	-424.218133	-424.217189	-424.262855	35.624	
C	-0.8189343658	 1.0646167455	-0.0910426175	-0.410025
C	 0.2507845639	-0.0041048321	 0.0701751811	 0.066338
C	 1.511835401	 0.0588596474	-0.8397694333	-0.243949
C	 2.399084387	-0.2779048641	 0.3915804639	-0.010424
C	 1.1880680594	 0.0629746567	 1.3112105764	-0.260814
C	 2.8396165879	-1.7520580178	 0.4257642854	 0.044001
O	 3.6052681747	-2.0783636185	-0.702298401	-0.437765
C	 3.626682304	-2.0368058951	 1.6878122597	 0.133546
O	 4.7544010809	-2.4696173802	 1.6492672267	-0.264709
H	-0.3838707929	 2.068666898	-0.0249186465	 0.111337
H	-1.3188517518	 0.9821112279	-1.0626008699	 0.117306
H	-1.5870275667	 0.982258775	 0.6862858581	 0.114157
H	-0.2118033356	-0.9949945226	 0.0034199146	 0.073243
H	 1.5707996498	-0.6290736957	-1.6854012745	 0.118381
H	 1.6993361106	 1.0737963618	-1.2030418755	 0.097346
H	 3.2861025867	 0.3510596099	 0.5120557143	 0.075666
H	 1.2607152592	 1.0774101595	 1.7143650812	 0.102693
H	 0.9691230726	-0.6168527853	 2.1407417081	 0.091938
H	 1.9327905932	-2.3849527986	 0.4679224011	 0.087807
H	 4.4528675488	-2.4021219245	-0.3577678803	 0.293229
H	 3.1228143831	-1.8172090973	 2.6499489378	 0.100696
61.5799	73.3532	114.2805	164.1918	233.2028	257.1618	298.8254	328.4445	366.8177	418.3132	430.1218	482.0508	663.6084	740.1705	806.6138	816.4069	862.6029	898.7937	910.4282	948.8323	960.1094	971.5119	1019.0652	1063.083	1121.0382	1138.7378	1160.3972	1170.4812	1223.4141	1230.6671	1263.0055	1267.9845	1281.2531	1292.2426	1308.0799	1367.0143	1378.8927	1394.3776	1408.9944	1438.4791	1477.3877	1492.611	1495.6332	1500.0207	1807.8053	2926.6158	2944.7201	3021.3893	3036.8051	3043.5401	3053.1796	3064.3181	3088.3511	3091.1293	3097.3237	3119.1369	3686.8296
CC1CC(C1)C(O)C=O	C[C@H]1C[C@@H](C1)[C@@H](O)C=O	
InChI=1S/C7H12O2/c1-5-2-6(3-5)7(9)4-8/h4-7,9H,2-3H2,1H3	InChI=1S/C7H12O2/c1-5-2-6(3-5)7(9)4-8/h4-7,9H,2-3H2,1H3/t5-,6-,7-/m0/s1
