16
gdb 14715	10.04727	0.62175	0.59203	1.5472	84.58	-0.2437	-0.0222	0.2216	1828.0324	0.12712	-346.538665	-346.529315	-346.528371	-346.573424	32.165	
C	-0.0154577303	 1.515302518	 0.0172372829	-0.387285
C	 0.0155251779	-0.0027180022	 0.0249372139	-0.017588
O	 0.7074633422	-0.4283381335	 1.1858061331	-0.24177
C	 0.7870944754	-1.834802021	 1.2789430985	-0.234603
C	 1.5048322683	-2.2188626686	 2.4848465876	 0.313009
C	 2.0966947212	-2.5734357563	 3.4779178874	-0.16246
C	 2.7637938505	-2.9645695046	 4.5973431198	 0.290141
C	 3.3555535334	-3.3135561384	 5.5902342783	-0.554938
H	 1.000679693	 1.918876641	 0.0071472589	 0.131621
H	-0.5443812156	 1.8795883812	-0.8684612429	 0.116833
H	-0.5257822114	 1.8922217533	 0.9077520816	 0.131629
H	-1.0084256721	-0.4136783245	 0.0222605478	 0.088842
H	 0.5190340471	-0.3871072388	-0.8784393167	 0.08884
H	-0.2226684536	-2.2825897504	 1.2946392229	 0.122548
H	 1.300928038	-2.2558131425	 0.3962633195	 0.122554
H	 3.8761283061	-3.6177676828	 6.4640377175	 0.192626
62.4558	64.319	110.0007	153.6162	190.0066	245.3025	292.0258	350.1382	387.7147	491.1197	533.0107	550.0397	588.1226	609.8714	759.8544	823.9509	907.3932	1022.5495	1032.5405	1129.6834	1149.4342	1186.6869	1187.7784	1247.8465	1296.821	1376.7607	1406.9139	1447.1278	1483.5989	1492.1986	1500.3608	1530.4003	2185.0888	2369.9573	2939.666	2956.4574	2957.2001	2980.0435	3047.4187	3121.7208	3126.307	3505.627
CCOCC#CC#C	CCOCC#CC#C	
InChI=1S/C7H8O/c1-3-5-6-7-8-4-2/h1H,4,7H2,2H3	InChI=1S/C7H8O/c1-3-5-6-7-8-4-2/h1H,4,7H2,2H3
