16
gdb 96658	2.50531	1.23665	0.88974	4.8934	77.29	-0.2447	-0.0474	0.1973	1287.2706	0.124097	-430.263795	-430.25408	-430.253136	-430.299209	34.087	
C	-1.1095038822	 0.7817702676	 0.7987296537	-0.340156
N	-0.3689252505	-0.3395127626	 0.2630896682	-0.260106
C	 0.754977047	-0.654033555	 0.7602049737	 0.422056
N	 1.5287799745	 0.0423630438	 1.6793381123	-0.571342
N	 1.4023640623	-1.826725196	 0.3377690613	-0.381763
C	 0.8226201409	-2.8390307504	-0.3984985031	 0.309198
N	 1.5565626285	-3.6013437874	-1.1143007962	-0.50155
C	-0.6045517209	-3.0600067868	-0.2432568318	 0.269804
N	-1.7009628115	-3.4228310404	-0.1787139687	-0.344858
H	-0.795855496	 1.7258664876	 0.3315577642	 0.125096
H	-2.1709557333	 0.6474459377	 0.5741085908	 0.141666
H	-1.0167510944	 0.9007652591	 1.8914234248	 0.095589
H	 1.0819428279	 0.8477794612	 2.0895980958	 0.263209
H	 2.0226065142	-0.5227295896	 2.3553822474	 0.259001
H	 2.4076733722	-1.7904037666	 0.2349580957	 0.266743
H	 1.0075686414	-4.350254962	-1.530599058	 0.247414
45.0885	89.9977	92.5842	128.2802	213.1538	263.3227	309.3719	322.4632	395.0514	427.7458	433.2486	549.6809	593.09	613.5741	695.6392	729.2509	738.5764	793.9023	860.6392	921.4302	1075.1781	1118.756	1130.9829	1170.576	1202.0779	1316.3786	1413.5203	1443.9905	1483.9805	1491.7403	1510.1247	1635.6762	1684.4467	1770.9999	2346.3048	2958.9161	3029.2898	3097.7806	3524.834	3571.2319	3598.784	3680.437
CN=C(N)NC(=N)C#N	CN=C(N)NC(=N)C#N	
InChI=1S/C4H7N5/c1-8-4(7)9-3(6)2-5/h1H3,(H4,6,7,8,9)	InChI=1S/C4H7N5/c1-8-4(7)9-3(6)2-5/h1H3,(H4,6,7,8,9)
