15
gdb 62415	2.53021	1.52519	1.37513	3.6693	71.9	-0.2459	-0.0245	0.2214	1000.1999	0.111337	-416.734713	-416.72634	-416.725396	-416.767473	31.398	
N	-0.1291559835	 1.4979749892	-0.0843626906	-0.555111
C	-0.0541051005	 0.0417255612	-0.000515087	-0.04307
C	 0.8580417173	-0.4764467101	 1.0112051019	 0.279918
C	 1.6158446541	-0.874375119	 1.8561168718	-0.441473
C	-1.396859586	-0.7224671608	-0.0491045366	-0.025975
C	-2.1553234945	-0.3791932871	-1.2509137697	-0.252594
N	-1.0496618839	-1.388935123	-1.3911470881	-0.180128
C	 0.1693752225	-0.6203046277	-1.4043264533	 0.395382
O	 1.0518482778	-0.5879325283	-2.1992055969	-0.295372
H	-0.1767637171	 1.8960696069	 0.8499707605	 0.239502
H	 0.735872992	 1.8372503584	-0.4981090315	 0.251841
H	 2.2924393503	-1.2300188861	 2.5939519753	 0.205412
H	-1.7764353161	-1.3287378987	 0.7629583374	 0.12316
H	-3.1294506798	-0.833582212	-1.3941834494	 0.142732
H	-2.0219188926	 0.6010239969	-1.6967962337	 0.155778
110.1076	125.9318	177.9584	207.0702	245.2015	292.0259	391.1184	467.2189	498.9053	576.0326	636.8483	653.1402	657.5559	685.2697	763.2275	775.6776	834.9442	889.4724	904.776	997.7965	1030.4225	1051.685	1112.4067	1131.6051	1152.7782	1198.9469	1252.3084	1290.6973	1349.88	1499.555	1649.8312	1921.2959	2225.7963	3134.1988	3208.7926	3229.9976	3482.075	3498.4226	3560.289
NC1(C#C)C2CN2C1=O	N[C@@]1(C#C)[C@H]2CN2C1=O	
InChI=1S/C6H6N2O/c1-2-6(7)4-3-8(4)5(6)9/h1,4H,3,7H2	InChI=1S/C6H6N2O/c1-2-6(7)4-3-8(4)5(6)9/h1,4H,3,7H2/t4-,6+,8?/m1/s1
