20
gdb 69989	2.97525	1.6961	1.58818	2.9782	77.21	-0.2274	0.0737	0.3011	956.3116	0.173849	-403.122837	-403.115781	-403.114837	-403.153753	29.829	
C	-0.0094185406	 1.5129995655	 0.0078362765	-0.50102
C	 0.0353176953	 0.008996093	 0.0304382738	 0.342725
N	-0.8143007789	-0.7589704248	 0.9697496305	-0.360893
C	 0.6584472321	-0.8193576178	 1.0984160937	-0.091772
C	 1.3237663163	-1.986166042	 0.3247789165	 0.08822
C	 1.8252394453	-1.2375918746	-0.9268759726	-0.229193
C	 0.3833466711	-0.7693828829	-1.2699223629	-0.111897
C	-0.3246953023	-2.1341385943	-1.2648414981	-0.069168
O	 0.3339474737	-2.8632295097	-0.2077990794	-0.264591
H	 0.866526479	 1.9283804802	-0.5030912112	 0.124375
H	-0.9003193404	 1.8789205295	-0.5163642686	 0.125304
H	-0.0267405785	 1.9213862136	 1.0243519492	 0.113794
H	-1.1747703536	-0.1220754207	 1.6789326112	 0.22286
H	 1.1370163799	-0.3958134575	 1.9766144788	 0.080663
H	 2.0413401421	-2.5759647067	 0.8956655909	 0.072148
H	 2.5003937903	-0.4086659202	-0.6981708712	 0.094506
H	 2.2787614667	-1.8959836757	-1.6732121741	 0.099097
H	 0.2523072779	-0.1972853117	-2.1892599908	 0.063317
H	-1.3912565754	-2.0602915471	-1.0426515993	 0.116928
H	-0.17851051	-2.662914706	-2.2159999827	 0.084598
188.4461	215.0727	275.8235	321.5043	378.9916	441.228	484.5071	534.3156	618.4646	684.6313	772.7776	795.8148	835.1645	870.6699	881.5315	912.0618	924.6961	936.1776	949.5082	971.0225	999.6343	1018.2922	1027.5092	1075.981	1086.2046	1116.4215	1131.6018	1142.7417	1182.164	1218.4141	1257.1863	1261.819	1279.2365	1296.4342	1334.9756	1343.0222	1386.0898	1414.0696	1430.6774	1483.7216	1486.2067	1499.2468	1510.0444	3013.228	3020.0905	3058.2432	3081.8057	3091.798	3102.399	3109.4363	3115.2624	3117.742	3151.8437	3474.7322
CC12NC1C1CC2CO1	C[C@]12N[C@H]1[C@@H]1C[C@H]2CO1	
InChI=1S/C7H11NO/c1-7-4-2-5(9-3-4)6(7)8-7/h4-6,8H,2-3H2,1H3	InChI=1S/C7H11NO/c1-7-4-2-5(9-3-4)6(7)8-7/h4-6,8H,2-3H2,1H3/t4-,5-,6-,7+/m0/s1
