25
gdb 58564	2.15722	1.35668	1.13003	1.3695	87.9	-0.252	0.0681	0.3201	1276.8497	0.227037	-389.489227	-389.478528	-389.477584	-389.524043	41.103	
C	-0.228264395	 1.5544669538	 0.0094720963	-0.421996
C	 0.0090434345	 0.0424331275	-0.0300118263	 0.079073
O	 0.6389901663	-0.3476743341	-1.2523276957	-0.44213
C	 0.7583632155	-0.5071717396	 1.1958183829	 0.350473
C	 2.1760278483	 0.0633245637	 1.3114982637	-0.473066
C	-0.0139139079	-0.4203879554	 2.5491984425	-0.267927
C	 0.3864107514	-1.8865308692	 2.8565993432	-0.230532
C	 0.7896924831	-2.076669156	 1.3632739119	-0.006492
C	-0.2073725028	-2.8955568162	 0.5474517364	-0.418405
H	 0.7147178466	 2.111668289	-0.0284270724	 0.108835
H	-0.8309201898	 1.8574428683	-0.8511242116	 0.122326
H	-0.7542758326	 1.852336811	 0.9221020134	 0.120747
H	-0.9696180123	-0.4476718111	-0.070726788	 0.081989
H	 1.4510549993	 0.161812245	-1.3413590264	 0.277409
H	 2.1756540331	 1.1502606691	 1.4446947787	 0.112247
H	 2.6983790766	-0.3689044154	 2.1707924642	 0.117929
H	 2.773317798	-0.1764999054	 0.4236414088	 0.105358
H	 0.314517219	 0.349380798	 3.2532691807	 0.090734
H	-1.0927968992	-0.3082115582	 2.4013600267	 0.094429
H	 1.2327183763	-1.9591387483	 3.5444992766	 0.097186
H	-0.4067234264	-2.5429537371	 3.2247796525	 0.09266
H	 1.7907411247	-2.4950829505	 1.2151099881	 0.060138
H	-1.2420143093	-2.5815787383	 0.7270203327	 0.107792
H	-0.0085838707	-2.8086609248	-0.5241451855	 0.136781
H	-0.1404412268	-3.9525126258	 0.8282684966	 0.104445
89.276	95.6417	166.476	225.7389	234.9854	248.4691	264.9975	273.4014	292.3851	310.0553	351.74	353.6273	421.9881	490.2235	519.6303	660.3499	720.4621	779.7144	867.3905	884.6359	904.0273	910.5131	933.0222	966.6051	977.3734	1032.9502	1038.1278	1074.7757	1095.2156	1111.173	1160.3	1169.8424	1188.5228	1227.347	1237.8415	1274.2528	1285.3166	1296.1185	1304.2833	1363.4425	1373.3293	1398.864	1404.4564	1407.5171	1421.1968	1477.9606	1489.2076	1491.3179	1496.4292	1497.8262	1500.968	1504.7545	1507.3904	3022.3693	3026.4866	3031.498	3038.6219	3043.5998	3052.3613	3058.4306	3085.6572	3086.9584	3088.2705	3095.5674	3102.0074	3109.2325	3116.2883	3116.8312	3810.1882
CC(O)C1(C)CCC1C	C[C@@H](O)[C@@]1(C)CC[C@H]1C	
InChI=1S/C8H16O/c1-6-4-5-8(6,3)7(2)9/h6-7,9H,4-5H2,1-3H3	InChI=1S/C8H16O/c1-6-4-5-8(6,3)7(2)9/h6-7,9H,4-5H2,1-3H3/t6-,7-,8+/m1/s1
