14
gdb 64836	3.00609	1.2746	1.21672	4.8447	68.53	-0.2926	-0.0706	0.2219	1059.1464	0.100323	-436.74268	-436.734824	-436.73388	-436.775161	28.966	
C	-0.0186616856	 1.5523741755	-0.0242251467	-0.414427
C	 0.0130036464	 0.0182505016	 0.0190972614	 0.161623
O	 0.7557115684	-0.4768906656	-1.1002265634	-0.239707
C	 1.8297587668	-1.2343050741	-0.6649953071	 0.415196
O	 2.6023126994	-1.7381723022	-1.4218760894	-0.320734
C	 1.7889773409	-1.245194319	 0.8190967628	-0.220814
C	 0.7436568343	-0.5364590105	 1.2294058272	-0.093296
C	-1.35929458	-0.5263682178	-0.0429779187	 0.273527
N	-2.441414947	-0.9294672157	-0.0572764864	-0.319109
H	 1.0045580766	 1.9315240105	 0.0234968582	 0.145322
H	-0.4845678313	 1.886398151	-0.9533185287	 0.161887
H	-0.5904048113	 1.9451738924	 0.8203957767	 0.144761
H	 2.5299808152	-1.7654026206	 1.4074667565	 0.153059
H	 0.4087829172	-0.3394385956	 2.2387116577	 0.152711
94.3559	152.4902	196.9351	237.901	247.244	344.6104	450.4024	473.0645	517.1518	570.0434	619.419	703.3796	732.6842	830.0079	842.4311	896.2289	940.811	973.2902	979.3389	1068.7607	1113.2153	1140.5613	1199.7432	1235.875	1340.8485	1404.9411	1480.4971	1487.2607	1669.2792	1891.229	2362.5163	3055.9606	3139.5518	3148.3284	3233.1257	3263.0934
CC1(OC(=O)C=C1)C#N	C[C@]1(OC(=O)C=C1)C#N	
InChI=1S/C6H5NO2/c1-6(4-7)3-2-5(8)9-6/h2-3H,1H3	InChI=1S/C6H5NO2/c1-6(4-7)3-2-5(8)9-6/h2-3H,1H3/t6-/m1/s1
