12
gdb 130182	2.07743	2.01225	1.024	3.7009	70.53	-0.2128	-0.0834	0.1295	1039.2254	0.078388	-464.985937	-464.978035	-464.977091	-465.018602	28.298	
N	 0.2182285847	 1.242881165	 0.1901807309	-0.589969
C	 0.0872022348	-0.1270829313	 0.0428459389	 0.328907
N	-1.0552555826	-0.7437339179	 0.0196508214	-0.27441
N	-0.7697103403	-2.1036319707	-0.0106136173	-0.308814
C	 0.5640335288	-2.439155239	-0.0610493001	 0.403372
C	 1.1786681869	-1.0788371974	-0.0053544105	 0.139266
N	 2.4532393065	-0.8471672998	 0.0538354531	 0.095125
N	 3.5708812097	-0.680236376	 0.1020475096	-0.205994
O	 1.0700772263	-3.5381460134	-0.126378798	-0.387744
H	 0.9044952286	 1.6685496398	-0.4197667054	 0.257076
H	-0.6766988306	 1.7112432341	 0.1150931905	 0.26566
H	-1.5278613328	-2.7592361433	-0.0879407731	 0.277525
101.2524	127.9536	168.4171	250.2704	288.4914	321.4795	442.9858	446.6851	543.7403	551.7704	617.5252	626.6538	701.7955	712.7551	756.585	794.2133	1034.3256	1085.4283	1173.8565	1218.3325	1354.6045	1404.1682	1500.0993	1618.615	1667.39	1816.7151	2230.3506	3534.2454	3631.6683	3685.9551
NC1=NNC2=C1N=NO2	Nc1n[nH]c(=O)c1[N][N]	
InChI=1S/C3H3N5O/c4-2-1-3(7-6-2)9-8-5-1/h(H3,4,6,7)	InChI=1S/C3H6N5O/c4-2-1(6-5)3(9)8-7-2/h1-2,7H,4H2,(H,8,9)
