12
gdb 81730	3.33277	1.31705	1.0445	4.4092	61.94	-0.2666	-0.0673	0.1994	1063.1488	0.075136	-472.583444	-472.575444	-472.5745	-472.616387	28.126	
O	-0.1459617512	 1.4893292031	 0.1435381747	-0.41327
C	-0.010098099	 0.1135510718	-0.0058363716	 0.000888
C	-1.3223513803	-0.6724931136	-0.0017547567	-0.058989
O	-2.0309511592	-0.3285402435	-1.1798176297	-0.244512
C	-1.0178059247	-1.3544120665	-1.2969078663	 0.209395
C	-1.3685898961	-2.6478981006	-1.781427915	 0.193184
N	-1.5911145819	-3.7064064194	-2.1898517737	-0.32537
C	 0.2811843947	-0.5304595138	-1.4126453393	 0.334502
O	 1.1749800145	-0.4688670039	-2.192274832	-0.269007
H	 0.7076323677	 1.9030736803	-0.0257887572	 0.307719
H	 0.7102892658	-0.3334056469	 0.7013543604	 0.114604
H	-1.8815159504	-1.074179457	 0.8340060766	 0.150857
92.7861	128.7313	155.691	202.3522	256.5357	261.7956	402.5003	475.7762	545.9807	606.1291	612.481	694.6251	800.3462	823.7747	858.9649	944.3709	969.0891	1010.4574	1133.6249	1171.2271	1190.2348	1260.3742	1281.9754	1393.9654	1432.7036	1921.7205	2359.1693	2966.0562	3213.1705	3814.3355
OC1C2OC2(C#N)C1=O	O[C@H]1[C@H]2O[C@@]2(C#N)C1=O	
InChI=1S/C5H3NO3/c6-1-5-3(8)2(7)4(5)9-5/h2,4,7H	InChI=1S/C5H3NO3/c6-1-5-3(8)2(7)4(5)9-5/h2,4,7H/t2-,4-,5+/m1/s1
