17
gdb 89933	3.1532	1.34948	1.10637	2.4792	73.73	-0.2526	-0.0014	0.2512	1111.0069	0.136358	-417.972186	-417.964077	-417.963132	-418.004872	30.521	
C	 0.2824348933	 1.6236466183	 0.0008298392	-0.395357
C	 0.0467065668	 0.1278984266	 0.0575175443	 0.033409
N	 0.8811720053	-0.6835602151	-0.8910471665	-0.377372
C	 1.2672033241	-1.633718875	 0.1847312761	 0.187902
C	 2.6090670182	-1.2303806418	 0.8351095807	-0.09742
O	 1.9414964895	-0.2499403738	 1.6663587508	-0.284923
C	 0.6386601458	-0.6743114921	 1.2425622105	 0.035255
C	 0.9345725826	-3.0253347926	-0.0002454067	 0.181526
N	 0.6602600962	-4.1370685936	-0.1650791943	-0.335624
H	 1.3325912261	 1.8468208505	 0.2011470092	 0.139321
H	 0.0235530785	 2.0143718185	-0.9880566824	 0.122237
H	-0.33480331	 2.1407426401	 0.7432184091	 0.119737
H	-1.0234487698	-0.1053596613	-0.0328040686	 0.08414
H	 0.3615427265	-1.112807482	-1.6481294819	 0.236993
H	 3.0756700521	-2.014141758	 1.4425755226	 0.121183
H	 3.3302158194	-0.7832018019	 0.1460067043	 0.126772
H	-0.0091539147	-0.962393927	 2.0720185636	 0.102219
94.35	149.5811	182.6583	216.3978	231.6852	351.8057	398.6829	453.698	540.6652	562.0091	604.2939	637.5288	744.608	814.565	899.1653	911.0285	952.4314	976.0842	1017.5278	1038.1962	1063.8901	1105.4532	1114.7816	1153.4055	1177.1123	1189.7123	1221.4095	1291.5126	1319.0969	1348.6708	1368.5387	1395.6989	1415.2614	1486.3088	1494.2114	1501.2528	2347.4186	3005.062	3034.5159	3041.5176	3102.5224	3107.5337	3108.4823	3135.7897	3547.9573
CC1NC2(COC12)C#N	C[C@H]1N[C@]2(CO[C@@H]12)C#N	
InChI=1S/C6H8N2O/c1-4-5-6(2-7,8-4)3-9-5/h4-5,8H,3H2,1H3	InChI=1S/C6H8N2O/c1-4-5-6(2-7,8-4)3-9-5/h4-5,8H,3H2,1H3/t4-,5+,6+/m1/s1
