18
gdb 45359	2.86046	1.66785	1.48146	2.7308	71.18	-0.259	0.0194	0.2784	957.948	0.151336	-439.120222	-439.113249	-439.112305	-439.15185	27.878	
N	-0.0840290379	 1.3161192762	-0.3480928481	-0.512867
C	-0.0285424186	 0.0911706734	-0.0378433093	 0.381803
C	-1.2837657875	-0.7546545677	 0.0698878762	-0.276239
C	-1.0630625555	-1.9583228411	 0.9903634222	 0.061032
C	-0.7040727204	-1.5571154424	 2.4403271911	-0.239534
C	 0.8453166142	-1.462694459	 2.3957158352	-0.245333
C	 1.1479879449	-1.7725699405	 0.9201619935	 0.183397
O	 0.1213100893	-2.6226426003	 0.5079967729	-0.238359
O	 1.1646413327	-0.5574031576	 0.1428349747	-0.265211
H	 0.8602619228	 1.7041264964	-0.4065777962	 0.218165
H	-2.1092277747	-0.117975774	 0.3944471882	 0.131496
H	-1.5233034052	-1.1249267391	-0.9333308605	 0.137175
H	-1.8892711304	-2.667781431	 0.9256331307	 0.089748
H	-1.1765576448	-0.6155010561	 2.7286119499	 0.119958
H	-1.0321263353	-2.3239828653	 3.1446768985	 0.114501
H	 1.2373803253	-0.4870396746	 2.6865010807	 0.123755
H	 1.308316909	-2.2207718638	 3.0314760126	 0.11582
H	 2.108734622	-2.2466614335	 0.7216913078	 0.100692
87.7239	118.9222	334.1342	393.7085	413.197	450.804	501.2083	578.5654	644.5648	755.9742	798.1988	818.8286	838.5671	857.8116	896.8523	915.3807	927.167	973.8714	995.564	1005.3633	1055.6604	1063.1457	1077.1504	1141.4643	1175.3644	1205.4845	1244.4674	1265.2244	1295.6766	1303.5305	1321.5224	1335.5137	1364.8788	1388.0622	1414.6372	1461.2555	1482.962	1506.0804	1752.9451	3051.6842	3071.6414	3080.1957	3102.7827	3115.8224	3120.1369	3129.8818	3136.0098	3459.0704
N=C1CC2CCC(O2)O1	[NH][C]1C[C@@H]2CC[C@@H](O2)O1	
InChI=1S/C6H9NO2/c7-5-3-4-1-2-6(8-4)9-5/h4,6-7H,1-3H2	InChI=1S/C6H9NO2/c7-5-3-4-1-2-6(8-4)9-5/h4,6-7H,1-3H2/t4-,6-/m0/s1
