17
gdb 15059	2.36644	1.98802	1.13941	4.0738	69.15	-0.251	0.028	0.279	1029.9248	0.142626	-360.009732	-360.001238	-360.000294	-360.042961	30.47	
N	-0.0564158773	 1.4826089406	 0.1931027428	-0.520003
C	 0.1052141249	 0.0467695111	-0.0248744196	-0.16569
C	 0.88775367	-0.5764088273	 1.1477125192	-0.103353
C	 0.9633577476	-2.0359274612	 0.9791432658	 0.30126
N	 1.0003373147	-3.1831642436	 0.8494756334	-0.324177
N	 2.2442389427	-0.0253921694	 1.2060330824	-0.081457
C	 2.4316981307	 1.1032608814	 2.1246204755	-0.222978
C	 2.9663170676	-0.2404367962	 2.461119565	-0.219661
H	 0.8083942156	 1.9620983523	-0.0356651946	 0.241582
H	-0.7615186004	 1.846980127	-0.4386716943	 0.236405
H	-0.886051885	-0.4162457468	-0.0538328324	 0.121745
H	 0.6237515821	-0.220367377	-0.9575418751	 0.1138
H	 0.3238435724	-0.3784041464	 2.0762273066	 0.112327
H	 3.0954011658	 1.8845324697	 1.765953451	 0.122346
H	 1.5628463209	 1.4577212624	 2.6728240824	 0.133798
H	 2.4623533746	-0.7975363957	 3.2483637063	 0.124966
H	 4.023557373	-0.4610470608	 2.3545930454	 0.129089
79.4212	112.5905	149.6976	171.6059	243.2422	278.0647	351.9405	372.7981	477.5807	528.9964	558.0862	741.2969	822.39	861.1251	895.1007	922.6039	979.4118	1028.5282	1047.456	1064.991	1115.3051	1121.9638	1125.7189	1159.8941	1178.5605	1225.6357	1275.7529	1309.212	1348.6315	1362.9297	1423.8511	1493.1602	1494.812	1520.7952	1656.7655	2363.019	2950.6926	2996.7274	3083.4276	3107.9558	3114.0356	3192.1059	3205.851	3507.6531	3584.1741
NCC(C#N)N1CC1	NC[C@@H](C#N)N1CC1	
InChI=1S/C5H9N3/c6-3-5(4-7)8-1-2-8/h5H,1-3,6H2	InChI=1S/C5H9N3/c6-3-5(4-7)8-1-2-8/h5H,1-3,6H2/t5-/m0/s1
