20
gdb 56346	2.94109	0.98552	0.88616	4.9869	84.55	-0.2563	-0.0362	0.2201	1402.9671	0.168091	-399.348288	-399.337581	-399.336636	-399.383501	39.497	
C	-0.1018801333	 1.5292159493	 0.1589812955	-0.406463
C	 0.0022532504	-0.0091024803	 0.0814735241	 0.240948
C	 0.7053041437	-0.5879707639	 1.3271270405	-0.404011
C	-1.4219727974	-0.5889584475	 0.0050229958	-0.382399
N	 0.6651060619	-0.4397418081	-1.1600360218	-0.282127
C	 1.8716453253	-0.1819976854	-1.4649007962	 0.245985
N	 2.8733573256	 0.4813754586	-0.7766438359	-0.555371
C	 2.3411923085	-0.7076217496	-2.7419358089	 0.28332
N	 2.73586768	-1.1029514318	-3.7538352452	-0.323185
H	 0.8650375059	 2.0253032154	 0.2914816907	 0.093952
H	-0.5563619059	 1.9245519811	-0.753844431	 0.131896
H	-0.7301152694	 1.818823314	 1.0069310901	 0.122984
H	 0.1302181484	-0.3467086101	 2.2266243204	 0.117777
H	 0.7738205032	-1.6767844639	 1.248936469	 0.130238
H	 1.7185276918	-0.2016483144	 1.4640049748	 0.106039
H	-1.9403981182	-0.2053170291	-0.8779823518	 0.119524
H	-1.3814647692	-1.6782950461	-0.0788454415	 0.120916
H	-2.0031170794	-0.3269911543	 0.8951130889	 0.102544
H	 2.6030128746	 1.0995518414	-0.0310254978	 0.26506
H	 3.6756674336	 0.7791849948	-1.3093439498	 0.272373
62.8077	118.3828	134.6505	184.933	221.467	234.1296	270.7015	296.0305	313.2829	361.0267	381.1877	397.0572	407.0741	428.9022	527.3566	541.8798	605.8995	723.1103	751.0793	833.05	908.504	919.3627	921.4589	960.9918	1044.1897	1050.0705	1119.4637	1228.0681	1237.7472	1254.3844	1316.2238	1398.2898	1400.8777	1431.131	1471.569	1479.6246	1484.669	1499.7564	1500.8363	1515.3895	1639.4427	1728.2692	2355.6957	3036.5038	3039.202	3046.6972	3100.3074	3110.0455	3113.657	3119.5843	3120.9485	3123.2456	3596.106	3717.3055
CC(C)(C)N=C(N)C#N	CC(C)(C)N=C(N)C#N	
InChI=1S/C6H11N3/c1-6(2,3)9-5(8)4-7/h1-3H3,(H2,8,9)	InChI=1S/C6H11N3/c1-6(2,3)9-5(8)4-7/h1-3H3,(H2,8,9)
