20
gdb 56547	1.9499	1.38419	0.98043	4.3614	79.26	-0.2549	-0.025	0.2299	1297.6963	0.167729	-403.194825	-403.184056	-403.183112	-403.23168	37.676	
C	-0.0579222711	 1.5365797822	 0.1091210717	-0.416097
C	-0.0383352246	 0.005911331	-0.0570868254	-0.11713
C	-1.410457459	-0.4973105735	-0.2037894567	 0.268958
N	-2.4882442042	-0.8877620996	-0.3538693659	-0.332737
C	 0.8126223827	-0.500464349	-1.2552199329	-0.080675
C	 2.2557005014	 0.0321807345	-1.2224783659	-0.416732
C	 0.8749090939	-2.0387976178	-1.2114812496	 0.409311
C	 0.5438730902	-2.7774589449	-2.4875583821	-0.491163
O	 1.1900182968	-2.6032011533	-0.1891576476	-0.318079
H	 0.9399843589	 1.9088654538	 0.3490173223	 0.132372
H	-0.4046825291	 2.0279885363	-0.8048748762	 0.134679
H	-0.7302584266	 1.8215773465	 0.9220245568	 0.142439
H	 0.3793485796	-0.4568730638	 0.8446152649	 0.148546
H	 0.3314921671	-0.1817489713	-2.186592385	 0.091779
H	 2.7418758739	-0.2417655319	-0.2815490904	 0.142914
H	 2.8420440366	-0.3999844938	-2.0396130981	 0.126222
H	 2.2864161822	 1.1181572963	-1.335965045	 0.127934
H	 1.1118971135	-2.371857904	-3.3322966775	 0.13689
H	 0.7455023372	-3.842921157	-2.3730070229	 0.146293
H	-0.5181992395	-2.6269640309	-2.7172242244	 0.164277
24.501	60.6965	120.0499	161.4425	201.6489	207.0921	220.6064	236.062	294.7685	304.6208	331.5529	427.6522	536.8724	561.8164	599.1852	616.9045	780.1021	810.5173	894.5877	957.6791	973.3136	1003.8809	1036.9436	1097.6421	1111.2536	1124.8277	1154.8885	1182.4684	1278.3753	1331.0587	1346.672	1368.1142	1381.8568	1404.0406	1414.9957	1460.2197	1472.6762	1490.7373	1493.5819	1499.0952	1509.3068	1811.335	2353.0655	3031.9251	3042.5395	3044.8864	3050.4967	3060.0084	3092.9798	3109.6851	3123.9618	3127.0232	3137.6456	3154.7105
CC(C#N)C(C)C(C)=O	C[C@@H](C#N)[C@@H](C)C(=O)C	
InChI=1S/C7H11NO/c1-5(4-8)6(2)7(3)9/h5-6H,1-3H3	InChI=1S/C7H11NO/c1-5(4-8)6(2)7(3)9/h5-6H,1-3H3/t5-,6+/m0/s1
