21
gdb 42027	3.09585	1.45922	1.06215	0.663	78.15	-0.2399	0.0871	0.3269	1156.9482	0.186235	-424.239333	-424.231769	-424.230825	-424.271386	30.281	
C	 0.002609878	 1.431101857	-0.0048238564	-0.074952
C	 1.4804766159	 1.9211778962	 0.0132750473	-0.315785
C	 2.2014598775	 0.665654736	 0.490867598	 0.153238
O	 3.5511780736	 0.5328209541	 0.1133589404	-0.262663
C	 4.0539857208	-0.7101538406	 0.6031635667	-0.072712
C	 3.2419370851	-1.9276679335	 0.1273062968	-0.210565
C	 1.7312377726	-1.7830670696	 0.4243534591	-0.262295
C	 1.3285736645	-0.427997262	-0.1230411608	 0.157308
O	 0.0144188447	 0.0012305843	 0.172253934	-0.283494
H	-0.5906032978	 1.8577448013	 0.8097301902	 0.109386
H	-0.489652305	 1.6856553366	-0.9524350604	 0.100654
H	 1.8289294443	 2.1805565908	-0.9909355222	 0.117165
H	 1.6279894279	 2.7879353423	 0.6603364411	 0.108518
H	 2.113345418	 0.5847522825	 1.5893433025	 0.063923
H	 5.0882054465	-0.776474774	 0.2547578135	 0.107529
H	 4.069656104	-0.6867874876	 1.7063405851	 0.088665
H	 3.3871397263	-2.0469129619	-0.9531249366	 0.109114
H	 3.6444273284	-2.8274366252	 0.6053379526	 0.100695
H	 1.1637010965	-2.6005803275	-0.0311815846	 0.102688
H	 1.5425856292	-1.811824975	 1.5047934171	 0.102798
H	 1.500874559	-0.421899294	-1.2156401232	 0.060785
95.6944	169.6715	212.1863	326.1727	348.1566	378.0859	433.7479	500.0226	535.2964	613.4356	682.662	814.6539	843.5473	869.4949	889.0111	914.8657	939.2131	959.9534	999.0814	1028.8284	1059.2772	1105.7293	1113.6832	1147.3259	1164.5394	1166.6524	1194.7767	1222.5945	1230.9497	1249.3128	1284.426	1304.6052	1308.8865	1335.976	1367.9394	1375.1017	1378.5687	1398.3974	1423.1371	1429.5218	1479.7673	1494.8922	1500.7077	1503.3956	1525.9291	2924.7243	2944.2039	2962.5529	3015.8969	3033.6739	3034.4353	3065.0102	3072.7671	3077.4075	3085.6483	3092.4117	3119.2711
C1CC2OCCCC2O1	C1C[C@@H]2OCCC[C@H]2O1	
InChI=1S/C7H12O2/c1-2-6-7(8-4-1)3-5-9-6/h6-7H,1-5H2	InChI=1S/C7H12O2/c1-2-6-7(8-4-1)3-5-9-6/h6-7H,1-5H2/t6-,7+/m1/s1
