17
gdb 7424	3.30257	1.51544	1.19178	1.126	65.19	-0.2382	-0.0623	0.1759	1044.5689	0.140188	-401.060419	-401.051109	-401.050164	-401.094578	33.016	
C	-0.0745346721	 1.5011813619	-0.126697666	-0.402019
C	-0.0114019602	-0.0339858475	 0.0542592719	-0.05773
C	 0.7384072398	-0.4339972717	 1.3258101256	-0.394757
C	-1.4240431332	-0.5795486225	 0.0512499991	 0.297015
O	-2.0206452026	-0.9424418196	 1.0412699312	-0.320592
C	-2.127173997	-0.6537397448	-1.3311990152	 0.329518
N	-3.3994878518	-1.0941889347	-1.2285632755	-0.515569
O	-1.5592014989	-0.3459453413	-2.3628758357	-0.354255
H	 0.9406092785	 1.9072315145	-0.1605204854	 0.124154
H	-0.5806455139	 1.7670129815	-1.0569319541	 0.145901
H	-0.5992359882	 1.9714698943	 0.7117441682	 0.123167
H	 0.4828130743	-0.439943534	-0.835403667	 0.114799
H	 0.2286940385	-0.0516892495	 2.2145133669	 0.130419
H	 0.803595875	-1.521252593	 1.4258675678	 0.119909
H	 1.7547910636	-0.0299693074	 1.3085337383	 0.112338
H	-3.7531843674	-1.3417548823	-0.318475496	 0.279098
H	-3.9617469544	-1.208183214	-2.054463114	 0.268605
61.0028	67.0256	184.4545	197.3498	211.8201	254.8455	303.745	328.0137	352.7903	406.8281	488.6784	526.3394	612.2289	668.8073	717.3983	822.6575	880.5075	932.1669	972.6923	1045.5907	1094.4945	1106.9545	1129.9887	1196.8369	1311.6488	1343.3959	1380.2837	1397.3999	1416.9537	1486.7229	1488.3335	1499.997	1513.9321	1584.9485	1790.6254	1803.7728	3039.2179	3044.4283	3055.9797	3109.0591	3114.4159	3121.4125	3135.9841	3595.8434	3737.9391
CC(C)C(=O)C(N)=O	CC(C)C(=O)C(=O)N	
InChI=1S/C5H9NO2/c1-3(2)4(7)5(6)8/h3H,1-2H3,(H2,6,8)	InChI=1S/C5H9NO2/c1-3(2)4(7)5(6)8/h3H,1-2H3,(H2,6,8)
