19
gdb 99910	2.14011	1.37957	1.1766	2.0391	77.39	-0.2559	0.0323	0.2882	1178.9283	0.155124	-422.951383	-422.941317	-422.940373	-422.98625	36.624	
C	 0.1539712942	-1.4317688382	 1.0666367957	-0.248488
O	-0.3081877714	-0.8758186527	-0.1488597642	-0.262428
C	 0.6820501308	-0.4620864064	-1.0818135269	 0.14539
C	 1.5643800696	 0.6714479566	-0.5215594786	-0.429874
C	 1.5115730155	-1.6003984432	-1.5184311285	 0.340915
C	 2.1863711765	-2.5247586344	-1.8864660479	-0.503821
C	-0.0715879925	 0.0696487148	-2.3079815667	 0.073181
C	-1.4923850694	-0.1905498079	-2.5424438667	-0.173876
O	-1.0341574437	 1.0856272052	-2.0707810789	-0.247994
H	 0.8496533279	-2.2633630083	 0.8945525038	 0.120066
H	 0.6420127974	-0.685964795	 1.7078214312	 0.112365
H	-0.7305602495	-1.8089655237	 1.5847924162	 0.130315
H	 2.174395224	 0.3273957397	 0.3160650328	 0.124513
H	 2.2400332177	 1.0399275079	-1.2980497084	 0.127165
H	 0.917065298	 1.4889078557	-0.1949966841	 0.144654
H	 2.7801460729	-3.3437885848	-2.2109278726	 0.201806
H	 0.5835426037	 0.2487302045	-3.1609909788	 0.100665
H	-1.8722731541	-0.1988793402	-3.56283292	 0.111317
H	-2.0454457177	-0.7755218596	-1.8146995475	 0.13413
74.243	94.3063	140.6589	161.4985	204.2228	211.6517	242.7503	290.7949	343.5149	400.9027	433.6594	486.9787	579.7751	583.9174	633.3796	677.0397	699.6472	852.55	882.8958	915.2574	959.775	999.893	1089.7234	1105.2094	1125.1386	1157.9625	1171.4084	1181.6664	1184.8289	1209.7716	1238.8241	1299.6677	1394.2069	1426.2457	1473.4267	1485.1727	1487.0923	1505.7166	1512.1751	1519.5229	2227.1521	3004.1025	3053.22	3062.1008	3098.406	3109.8286	3120.2655	3129.715	3142.9956	3207.7325	3498.9746
COC(C)(C#C)C1CO1	CO[C@@](C)(C#C)[C@H]1CO1	
InChI=1S/C7H10O2/c1-4-7(2,8-3)6-5-9-6/h1,6H,5H2,2-3H3	InChI=1S/C7H10O2/c1-4-7(2,8-3)6-5-9-6/h1,6H,5H2,2-3H3/t6-,7+/m1/s1
