20
gdb 85143	2.15102	1.74506	1.1673	2.5931	80.17	-0.2214	-0.0207	0.2007	1125.2176	0.170036	-403.130711	-403.121908	-403.120964	-403.164178	33.167	
C	-0.4462905802	 1.4737979593	-0.1979900267	-0.335201
N	-0.1454694137	 0.0753559155	 0.0148636792	-0.146178
C	-1.219904111	-0.8169544946	 0.4969509172	-0.297241
C	-0.170881112	-1.4604909162	 1.4170712512	 0.347695
O	-0.1241099966	-2.4296125837	 2.1153834788	-0.301616
C	 0.8043278053	-0.3330804431	 1.0673896033	 0.251687
C	 2.2920606004	-0.6567190492	 0.80253631	-0.272834
C	 2.5989711378	-0.2179125084	 2.2594881673	-0.207935
C	 1.2514223162	 0.5506106129	 2.2807128004	-0.285118
H	 0.4664201812	 2.0151849021	-0.4667306207	 0.124466
H	-1.1465724733	 1.5748232018	-1.0334859995	 0.125897
H	-0.8944702816	 1.9710402987	 0.6817024252	 0.098056
H	-2.0144327073	-0.3164472523	 1.0763521179	 0.113057
H	-1.6849255602	-1.4527435229	-0.2643417512	 0.128195
H	 2.5308928671	-1.6802599312	 0.5049502579	 0.109793
H	 2.7081966451	 0.0376837795	 0.0661059731	 0.106291
H	 2.5829140261	-1.0688264796	 2.9439088631	 0.125321
H	 3.5076976499	 0.3616429878	 2.4312299905	 0.100468
H	 1.3749696039	 1.5936768527	 1.9743182331	 0.106944
H	 0.6462854827	 0.516121411	 3.18979207	 0.108253
89.3145	113.7826	156.8483	198.2404	227.0248	265.9135	284.5821	406.2686	513.7056	532.6945	563.4091	630.4131	692.268	778.0293	791.783	890.3171	908.0927	934.2331	951.7245	964.9011	1033.9549	1046.021	1063.2194	1114.3526	1132.0302	1161.69	1182.9767	1200.914	1216.1522	1237.0531	1246.8109	1272.7191	1277.1027	1298.1758	1317.2196	1450.2176	1466.2548	1476.6037	1481.372	1493.6325	1498.9417	1504.6029	1907.4177	2938.5357	2966.6215	3052.9276	3057.002	3060.805	3061.7086	3074.2014	3100.5461	3106.3419	3112.4196	3133.1423
CN1CC(=O)C11CCC1	CN1CC(=O)C21CCC2	
InChI=1S/C7H11NO/c1-8-5-6(9)7(8)3-2-4-7/h2-5H2,1H3	InChI=1S/C7H11NO/c1-8-5-6(9)7(8)3-2-4-7/h2-5H2,1H3
