21
gdb 95340	3.00541	1.36131	1.09333	1.7464	77.87	-0.241	0.0735	0.3145	1174.872	0.184263	-424.217271	-424.209079	-424.208135	-424.250225	31.767	
C	-0.0401518158	 1.527307028	 0.0503702205	-0.400073
C	-0.0002532461	 0.0070795183	 0.0016052809	 0.129733
C	 0.6599122893	-0.5244445456	-1.2786402749	-0.218617
C	 0.9376497056	-2.0398393255	-1.2330554581	 0.095073
O	 2.3243565387	-2.3392953984	-1.5360210498	-0.288741
C	 2.6016034547	-2.6388736494	-0.1512881382	-0.092586
C	 1.0990118537	-2.6479421441	 0.1881166746	-0.048865
C	 0.5775259554	-1.8264310664	 1.3579782321	-0.114161
O	 0.7232106069	-0.4358642868	 1.1473268946	-0.253834
H	 0.9761819867	 1.9323982671	 0.025643451	 0.126101
H	-0.5927600342	 1.9260371211	-0.805690797	 0.114559
H	-0.5237163509	 1.8689248224	 0.9693426944	 0.121491
H	-1.0318653381	-0.3835655857	 0.0693411923	 0.059629
H	 0.0429992128	-0.2677847489	-2.1466427821	 0.095836
H	 1.6241916752	-0.0212486115	-1.4057814249	 0.11716
H	 0.2689663785	-2.5875485909	-1.9054631307	 0.076229
H	 3.1477503628	-3.5810898699	-0.0344725415	 0.101722
H	 3.1633957886	-1.8310269681	 0.3378438735	 0.10407
H	 0.7042749057	-3.6659325242	 0.2403652951	 0.081373
H	-0.4849662797	-2.0671879018	 1.5353423107	 0.086783
H	 1.1260381599	-2.0622954197	 2.2766957474	 0.107118
76.5271	105.7117	210.4802	233.7156	303.926	334.9195	398.6724	458.5868	489.604	493.6761	695.655	710.7212	790.9879	840.9616	877.5118	901.9966	924.384	953.06	995.5349	1013.1248	1025.8967	1092.9554	1103.6388	1129.8096	1131.7604	1156.4441	1159.3651	1171.8978	1232.0347	1248.6574	1268.4517	1309.7148	1325.0927	1339.8307	1357.3941	1378.0685	1387.231	1388.5457	1411.9286	1424.382	1476.5997	1485.8051	1491.2691	1501.0812	1521.5152	2935.5252	2956.3274	3006.1217	3035.0507	3041.8019	3046.1285	3059.9191	3063.3438	3079.7706	3090.3225	3116.4642	3122.0076
CC1CC2OCC2CO1	C[C@H]1C[C@H]2OC[C@H]2CO1	
InChI=1S/C7H12O2/c1-5-2-7-6(3-8-5)4-9-7/h5-7H,2-4H2,1H3	InChI=1S/C7H12O2/c1-5-2-7-6(3-8-5)4-9-7/h5-7H,2-4H2,1H3/t5-,6+,7+/m0/s1
