19
gdb 95924	2.22082	1.56806	1.30698	1.1542	76.67	-0.2514	0.0348	0.2862	1090.5476	0.156982	-422.995774	-422.986425	-422.985481	-423.030083	34.949	
C	 0.2105637842	 1.5951175175	-0.2901686861	-0.415394
C	-0.0455563023	 0.1335632707	 0.054512723	 0.1167
O	 0.4023307021	-0.6868283328	-1.0286334302	-0.278155
C	 1.4248865585	-1.5407611519	-0.5566783863	 0.015136
O	 1.9037286919	-0.9881539799	 0.6428910342	-0.253837
C	 0.7493831199	-0.430625911	 1.2841198369	 0.112038
C	 1.2275450669	 0.5894717312	 2.3151381157	-0.447103
C	-0.0355775918	-1.4899511184	 1.9421650825	 0.370699
C	-0.675910036	-2.3525511734	 2.4813918921	-0.500886
H	 1.2802254027	 1.7907843236	-0.4051746837	 0.128627
H	-0.2789615639	 1.8244944183	-1.2405184812	 0.129522
H	-0.1958293585	 2.2647609799	 0.4740035287	 0.115368
H	-1.1178614925	-0.0352880533	 0.2019536224	 0.093745
H	 1.0220387767	-2.5530199647	-0.3883273489	 0.09626
H	 2.2487744982	-1.5739992517	-1.2768274742	 0.115012
H	 1.8635847546	 1.3393699275	 1.8420895232	 0.130487
H	 0.3751128133	 1.0832020999	 2.7885343944	 0.130186
H	 1.8030790393	 0.0794133224	 3.0905338129	 0.139937
H	-1.2402938334	-3.1155025839	 2.9588002146	 0.201657
34.4821	144.4191	148.7229	226.0251	243.0721	267.3073	287.4827	349.2923	371.3394	431.3013	518.2953	564.0576	626.1247	635.3634	669.8202	740.4465	758.1425	868.1716	890.8283	909.9233	1005.7562	1055.8488	1068.9267	1110.4513	1133.201	1148.8282	1162.0787	1188.8446	1214.2524	1242.8366	1322.8783	1382.8545	1404.9636	1408.793	1428.3083	1473.4426	1487.3932	1494.3451	1504.5822	1542.3883	2228.9574	2968.7859	3042.5281	3046.2021	3058.9474	3073.6899	3117.436	3124.1706	3134.8051	3147.0166	3499.1852
CC1OCOC1(C)C#C	C[C@H]1OCO[C@]1(C)C#C	
InChI=1S/C7H10O2/c1-4-7(3)6(2)8-5-9-7/h1,6H,5H2,2-3H3	InChI=1S/C7H10O2/c1-4-7(3)6(2)8-5-9-7/h1,6H,5H2,2-3H3/t6-,7-/m1/s1
