18
gdb 12894	3.25316	1.78799	1.4952	1.0253	78.49	-0.2383	0.052	0.2902	929.3135	0.152883	-310.614065	-310.606137	-310.605193	-310.645795	30.801	
C	 0.004772727	 1.5504585445	 0.0208581916	-0.49768
C	-0.0149627474	 0.0498354502	 0.0626907102	 0.339815
C	-1.2825333589	-0.8177297922	-0.0110450039	-0.286419
C	-0.6430036137	-1.8159217728	 1.00938176	-0.230521
C	 0.6083134411	-0.9350857142	 1.0489300363	-0.107142
C	 1.1930511071	-0.7806966005	-0.3478591763	-0.258173
C	 1.1568502327	-1.814256484	-1.3425837837	 0.340999
C	 1.1201218226	-2.6797216497	-2.1785335592	-0.465797
H	 0.993462068	 1.9444486335	 0.2784808611	 0.11838
H	-0.2504177201	 1.9223599905	-0.9787643859	 0.125574
H	-0.7188931871	 1.9742055902	 0.7268208881	 0.117974
H	-2.1564397821	-0.3067157177	 0.4005131599	 0.098958
H	-1.5341081536	-1.2146061007	-0.9983688138	 0.108397
H	-1.1763008205	-1.8343238712	 1.961961261	 0.101331
H	-0.4937795273	-2.8424735593	 0.6639142974	 0.110727
H	 1.2291709533	-0.7418482695	 1.9169501309	 0.085188
H	 2.1102304238	-0.1956069498	-0.3500840443	 0.106581
H	 1.0953805749	-3.4420732772	-2.9169548897	 0.191809
131.7644	147.2465	208.4562	220.493	310.0698	351.9343	362.381	528.605	554.482	579.8643	622.5445	649.7117	757.6882	787.9805	792.8899	872.0737	932.0641	942.5875	965.7464	982.0018	1007.1708	1056.931	1104.4842	1127.0649	1150.8868	1217.9095	1237.5201	1240.9842	1246.0725	1300.1142	1332.5365	1412.2063	1443.2805	1474.5341	1485.4224	1496.1132	1501.8374	2228.3513	3020.3592	3056.1877	3063.7499	3079.9712	3094.6349	3102.6038	3120.8357	3131.3147	3170.1908	3503.9406
CC12CCC1C2C#C	C[C@]12CC[C@H]1[C@H]2C#C	
InChI=1S/C8H10/c1-3-6-7-4-5-8(6,7)2/h1,6-7H,4-5H2,2H3	InChI=1S/C8H10/c1-3-6-7-4-5-8(6,7)2/h1,6-7H,4-5H2,2H3/t6-,7+,8-/m1/s1
