19
gdb 108942	3.27146	1.15275	0.92858	3.5939	78.7	-0.2151	0.0241	0.2392	1283.8887	0.16019	-419.205288	-419.196682	-419.195738	-419.23876	32.617	
O	 0.0161935147	 1.4337187233	-0.0034869886	-0.42094
C	-0.0140382823	 0.0417738288	 0.1568771758	-0.130083
C	-1.4206478857	-0.4855976778	 0.0918102143	 0.327329
N	-2.4232967108	 0.3027039914	-0.0222270137	-0.359875
C	-3.6074901508	-0.5307881401	-0.031030762	 0.375647
C	-4.7886372112	-0.1040610851	 0.8040701268	-0.307239
C	-4.8546606431	-0.0371050499	-0.70498868	-0.318739
C	-3.1312006206	-1.9933472252	-0.1100020468	-0.258531
N	-1.7059691802	-1.8351407271	 0.2203168677	-0.352277
H	-0.9139074664	 1.7058699653	-0.0512796901	 0.295354
H	 0.5921827834	-0.4468678134	-0.6243839053	 0.100502
H	 0.4264247463	-0.2567473249	 1.1225359806	 0.114229
H	-5.3575815468	-0.8768278692	 1.3114011465	 0.110269
H	-4.6925261888	 0.8279147203	 1.3488262616	 0.124636
H	-4.8052411334	 0.939265934	-1.1730683333	 0.124633
H	-5.4711033352	-0.7630976515	-1.2260470381	 0.11021
H	-3.6365694612	-2.6493005069	 0.605667118	 0.116013
H	-3.2657287702	-2.4135134467	-1.117122158	 0.106443
H	-1.0481432377	-2.5047088054	-0.1512346255	 0.242419
82.6193	97.4165	170.4051	177.0231	300.671	338.1585	353.4864	441.8012	458.7178	489.3517	527.7141	628.436	720.2754	774.9617	825.2485	874.6739	929.763	937.7893	982.0728	1028.7959	1033.3364	1039.2455	1054.2797	1068.2925	1087.416	1117.3091	1190.8201	1203.6223	1215.5453	1247.8114	1270.4993	1291.8671	1329.7949	1383.3643	1452.4555	1454.7807	1490.174	1504.6054	1510.9902	1527.2904	1702.0024	2966.4962	2980.2918	2994.6338	3064.9659	3127.5236	3131.3511	3215.1878	3229.6747	3604.2292	3685.8659
OCC1=NC2(CC2)CN1	OC[C]1[N]C2(CC2)CN1	
InChI=1S/C6H10N2O/c9-3-5-7-4-6(8-5)1-2-6/h9H,1-4H2,(H,7,8)	InChI=1S/C6H10N2O/c9-3-5-7-4-6(8-5)1-2-6/h9H,1-4H2,(H,7,8)
