15
gdb 43326	2.7015	1.89859	1.19182	4.7948	75.2	-0.2424	-0.086	0.1564	981.1572	0.114595	-416.80757	-416.800533	-416.799589	-416.839356	27.119	
N	-0.0574494347	 1.0292936323	-0.7783985026	-0.450175
C	 0.033059298	-0.0563118609	-0.1306187845	 0.213863
N	-1.1430388671	-0.7363286252	 0.2671820953	-0.114354
C	-1.6597123325	-1.8131041061	-0.5742285303	-0.242783
C	-1.0520303039	-2.0980101632	 0.7714332408	-0.08
C	 0.2695609606	-2.7304310258	 0.9166192789	-0.045461
C	 1.4087520324	-2.0658792327	 0.6708026002	-0.182181
C	 1.3935196209	-0.6761962974	 0.197702114	 0.341215
O	 2.407738623	-0.0395652458	-0.0105596393	-0.330753
H	 0.8961585953	 1.3584928074	-0.9617247547	 0.24389
H	-2.7387142815	-1.8450277368	-0.692445755	 0.139694
H	-1.0814249984	-2.0865536727	-1.4529661152	 0.136225
H	-1.7481470066	-2.3127343882	 1.5816580765	 0.121331
H	 0.2912127219	-3.7512720854	 1.290821616	 0.124475
H	 2.3859622426	-2.5169978095	 0.80626423	 0.125012
61.3355	189.5975	276.1227	361.3023	386.2537	455.7588	492.9668	517.7416	564.4804	668.7535	747.7246	790.1023	857.4113	867.0263	894.5161	931.6358	966.8482	1022.6297	1036.9239	1065.8377	1097.166	1114.6957	1149.5524	1168.6851	1237.1258	1292.211	1383.8652	1406.9464	1429.8908	1503.5932	1671.6229	1704.3139	1768.0875	3111.3733	3112.5591	3160.1772	3197.6388	3207.6617	3429.0437
N=C1N2CC2C=CC1=O	[NH][C]1N2C[C@H]2C=CC1=O	
InChI=1S/C6H6N2O/c7-6-5(9)2-1-4-3-8(4)6/h1-2,4,7H,3H2	InChI=1S/C6H6N2O/c7-6-5(9)2-1-4-3-8(4)6/h1-2,4,7H,3H2/t4-,8?/m1/s1
