21
gdb 87855	3.02004	1.36751	1.23522	1.247	81.77	-0.2151	0.0922	0.3073	1128.9899	0.182826	-387.068606	-387.060375	-387.05943	-387.10115	32.999	
C	-0.3804109082	 1.3285540973	 0.5298900581	-0.414597
C	-0.0193974093	-0.1284171456	 0.3511782914	-0.045985
C	 1.2295107563	-0.5378500736	-0.4139994085	-0.378792
C	 1.1435290554	-0.7912885214	 1.0561812037	 0.424368
C	 2.0009204758	-0.1154054073	 2.1267580578	-0.312569
C	 1.7543307358	-0.9814393367	 3.3532028168	-0.073635
C	 0.3065922697	-1.2983518144	 3.6935992718	-0.324874
C	 1.1104670408	-2.2310046925	 2.8250990629	 0.110078
O	 0.9649930874	-2.1486185871	 1.4302567335	-0.291597
H	 0.5104997298	 1.9556458384	 0.6382928349	 0.115278
H	-0.9344548742	 1.7013421107	-0.3388098552	 0.118977
H	-1.0068894883	 1.4865495184	 1.4156244856	 0.116378
H	-0.8654649807	-0.796906638	 0.2145477244	 0.093371
H	 1.1727509617	-1.4018819455	-1.0666832841	 0.121332
H	 1.8975944032	 0.2475548095	-0.7553403936	 0.108532
H	 3.0631780607	-0.1531741427	 1.8584576444	 0.107018
H	 1.7298418096	 0.9343167546	 2.2690116643	 0.108573
H	 2.5013161058	-1.0037871868	 4.1375898606	 0.088245
H	 0.099062972	-1.6224747957	 4.7079157636	 0.10972
H	-0.4832538556	-0.7112237499	 3.2374226462	 0.121951
H	 1.3565734024	-3.2348278718	 3.1490943315	 0.098228
86.9582	157.4428	198.5921	219.6605	303.4716	362.6882	409.8614	442.3951	474.2345	544.4303	683.0422	758.6416	766.3933	798.029	813.6182	870.0043	890.286	910.5159	911.1868	951.3865	991.7755	1012.7289	1031.6922	1045.3947	1070.9861	1085.8464	1103.4876	1113.5685	1126.2929	1162.0663	1181.507	1192.1537	1200.3224	1224.9184	1283.3084	1326.1136	1355.714	1387.4525	1403.7475	1421.084	1472.5561	1482.9761	1491.8095	1496.7373	1502.8077	3023.7121	3037.2065	3083.712	3088.1802	3094.7139	3124.0497	3131.2289	3145.8003	3177.7047	3189.6184	3215.7775	3219.6556
CC1CC11CC2CC2O1	C[C@H]1C[C@]21C[C@H]1C[C@H]1O2	
InChI=1S/C8H12O/c1-5-3-8(5)4-6-2-7(6)9-8/h5-7H,2-4H2,1H3	InChI=1S/C8H12O/c1-5-3-8(5)4-6-2-7(6)9-8/h5-7H,2-4H2,1H3/t5-,6+,7+,8+/m0/s1
