13
gdb 124379	5.17507	1.04158	0.87174	3.5825	61.33	-0.2682	-0.0468	0.2214	1230.4508	0.087405	-489.885503	-489.877604	-489.876659	-489.91923	27.301	
C	 0.0183726179	 1.4094197003	 0.2428508558	-0.486785
C	-0.4820793829	 0.0991275549	-0.2965700683	 0.422707
O	-0.9630831595	-0.1027392885	-1.3768718001	-0.319946
O	-0.3126642785	-0.8846610284	 0.6450775849	-0.244675
C	-0.7014823046	-2.1533291485	 0.3598352456	 0.342694
C	-1.2689444948	-2.7621331029	-0.7170985651	-0.061617
O	-1.4198327413	-4.0522199488	-0.4035178944	-0.157541
N	-0.9242826887	-4.2237950814	 0.9107849278	 0.005731
N	-0.5151459876	-3.1043581966	 1.3253182505	-0.189661
H	 1.0757850881	 1.3241893772	 0.5084637502	 0.165525
H	-0.1183219771	 2.1842555329	-0.5097908682	 0.159365
H	-0.5259656261	 1.6696810012	 1.1549348233	 0.165551
H	-1.5883503448	-2.4261690815	-1.6843849719	 0.198651
60.2584	75.4114	101.3187	175.7963	350.4757	364.7142	382.8029	596.8766	597.4665	642.1526	693.9017	722.9494	762.2287	833.1525	925.2042	986.8666	1019.0472	1062.8484	1063.6253	1137.8391	1237.3836	1267.2259	1343.6446	1399.2308	1457.3999	1467.1199	1473.0096	1618.509	1844.0799	3060.5434	3125.8174	3176.383	3341.0153
CC(=O)OC1=CON=N1	CC(=O)Oc1conn1	
InChI=1S/C4H4N2O3/c1-3(7)9-4-2-8-6-5-4/h2H,1H3	InChI=1S/C4H4N2O3/c1-3(7)9-4-2-8-6-5-4/h2H,1H3
