16
gdb 30245	4.63128	1.12991	0.9486	3.0197	74.43	-0.1884	0.0184	0.2068	1197.3461	0.126279	-434.05811	-434.050168	-434.049223	-434.090574	30.098	
N	 0.141922607	 1.3414774627	 0.5385094826	-0.592185
C	-0.0225146065	 0.0360480625	 0.0760624217	 0.28686
C	-1.1991196547	-0.7077178351	 0.007234462	-0.250754
N	-0.7856026576	-1.8955243225	-0.5593211559	 0.024275
C	-0.8646651836	-3.3688682716	-0.6676788548	-0.213639
C	 0.7077946705	-3.3385837594	-0.9144794654	 0.025553
O	 1.2063778973	-3.8321159667	-2.1247927802	-0.420098
C	 0.5548265679	-1.8373907848	-0.7013761965	 0.266284
N	 1.0810645083	-0.6859377891	-0.3361034856	-0.401952
H	 1.0257097415	 1.7256033352	 0.2319103047	 0.251967
H	-0.6202632622	 1.96205325	 0.3041456293	 0.243061
H	-2.2241263898	-0.4551908791	 0.2157319536	 0.120046
H	-1.1728458851	-3.8625549745	 0.2584362114	 0.131226
H	-1.4679867138	-3.7235211067	-1.5076219119	 0.122006
H	 1.2579764016	-3.8543525239	-0.1229936776	 0.120746
H	 0.9251320891	-3.2367512871	-2.8285727275	 0.286603
90.5942	141.8886	226.7158	240.278	290.7743	339.0449	398.6107	447.9502	530.5765	612.0602	647.0725	659.685	723.3893	757.7627	778.8024	853.8306	886.6301	984.9311	1013.6553	1057.4447	1089.6076	1131.3145	1142.5531	1202.8683	1204.7737	1253.047	1291.5454	1328.0483	1412.8038	1435.7271	1445.7288	1499.1403	1545.7666	1587.0675	1641.2156	3052.1604	3085.4245	3112.7827	3281.9999	3552.3255	3649.9775	3802.5697
NC1=CN2CC(O)C2=N1	Nc1cn2C[C@@H](O)c2n1	
InChI=1S/C5H7N3O/c6-4-2-8-1-3(9)5(8)7-4/h2-3,9H,1,6H2	InChI=1S/C5H7N3O/c6-4-2-8-1-3(9)5(8)7-4/h2-3,9H,1,6H2/t3-/m1/s1
