19
gdb 100515	2.79118	1.13548	0.8688	8.9282	75.15	-0.2224	-0.0292	0.1932	1347.6602	0.157844	-456.381732	-456.371714	-456.37077	-456.417073	35.969	
C	 0.0568438847	 1.8183197964	-0.316093352	-0.383874
C	 0.2731809439	 0.3174496088	-0.102284835	-0.18427
N	 0.7147559922	-0.38152959	-1.3182999892	-0.073339
C	 2.1686508905	-0.5237400203	-1.4734342187	-0.374864
C	-0.1520619439	-0.810840272	-2.2198998846	 0.278274
N	-1.455748204	-0.6451161486	-2.0957674085	-0.479922
H	-1.9299822843	-1.0788905731	-2.8994144176	 0.300196
H	-1.9309289278	-0.1622521091	-1.353545404	 0.265009
C	 0.1652991633	-1.6152981167	-3.6102152928	 0.381395
O	 1.3473346516	-1.8200660802	-3.8728470369	-0.42795
O	-0.9009342204	-1.8864969817	-4.1788109688	-0.452327
H	 0.9779265174	 2.298744063	-0.6573486679	 0.142869
H	-0.7185513591	 2.0119737906	-1.0626824132	 0.135331
H	-0.2455931606	 2.2911777127	 0.6227377517	 0.134458
H	 1.0437577999	 0.1520222199	 0.6554768698	 0.133292
H	-0.6356113334	-0.1641624799	 0.2752502963	 0.120826
H	 2.5596825371	-1.1305699546	-0.649975812	 0.130493
H	 2.364888204	-1.0037015332	-2.4313967795	 0.227616
H	 2.6343515991	 0.4664971181	-1.429606387	 0.126789
60.5783	77.8928	102.5594	181.9959	205.5681	218.7728	277.7635	328.706	380.906	389.698	413.2612	451.4273	524.7548	572.8765	647.1935	769.8903	790.1028	805.2102	822.2063	853.169	966.0183	1071.6721	1105.028	1114.5952	1170.0465	1197.8215	1253.0782	1292.2232	1344.8065	1375.6009	1384.7089	1413.5845	1442.6262	1480.9459	1492.3236	1499.7201	1511.7017	1517.2903	1536.4556	1685.967	1853.8336	3025.2696	3044.9247	3047.7065	3091.6106	3092.1969	3122.6162	3125.6432	3150.3481	3318.3058	3682.223
CCN(C)C(=[NH2+])C([O-])=O	CCN(C)C(=[NH2])C(=O)[O]	
InChI=1S/C5H10N2O2/c1-3-7(2)4(6)5(8)9/h6H,3H2,1-2H3,(H,8,9)	InChI=1S/C5H10N2O2/c1-3-7(2)4(6)5(8)9/h3,6H2,1-2H3
