13
gdb 125799	3.55017	1.66826	1.14301	3.6462	65.65	-0.2513	-0.0423	0.209	980.1865	0.091062	-452.738017	-452.731404	-452.73046	-452.769195	24.718	
C	-0.0147076537	 1.5196691911	-0.0607708133	-0.506404
C	-0.0068747038	 0.0344261111	 0.0778483675	 0.23562
N	-0.0417826274	-0.7323675125	-1.0032083419	-0.188128
O	-0.0251750462	-2.0949755436	-0.5955818266	-0.227698
C	 0.019737017	-2.0759836752	 0.7340691022	 0.404364
C	 0.0332265508	-0.8075887542	 1.2120218423	 0.15448
O	 0.0794355708	-0.8841315594	 2.5761081307	-0.198779
C	 0.0898655093	-2.2374547029	 2.7937829942	 0.052215
N	 0.0556347375	-3.0042028354	 1.7403304654	-0.347896
H	 0.8831433076	 1.9566561218	 0.3875014072	 0.147396
H	-0.0508772431	 1.7911337979	-1.1169808794	 0.160721
H	-0.8821980791	 1.9528999997	 0.4469841627	 0.1474
H	 0.1254539603	-2.5460463484	 3.8269561691	 0.16671
137.3737	173.6028	247.5373	277.1706	412.137	532.6277	610.2963	623.5792	634.1361	689.5472	776.9688	798.7998	838.4785	891.7623	937.1295	1025.6377	1065.0241	1081.5956	1135.2458	1221.6132	1321.8437	1405.104	1414.5973	1450.431	1479.9915	1491.7889	1526.2807	1561.1962	1632.1875	3046.5808	3104.8718	3146.7731	3279.8309
CC1=NOC2=C1OC=N2	Cc1noc2c1ocn2	
InChI=1S/C5H4N2O2/c1-3-4-5(9-7-3)6-2-8-4/h2H,1H3	InChI=1S/C5H4N2O2/c1-3-4-5(9-7-3)6-2-8-4/h2H,1H3
