18
gdb 25714	2.54971	1.54427	0.97332	3.9787	83.8	-0.217	-0.0312	0.1858	1195.0199	0.147308	-402.02228	-402.013149	-402.012205	-402.056536	33.148	
C	-0.0726943341	 1.5359192885	 0.0645331583	-0.510753
C	 0.0530334306	 0.0146060666	 0.0427325206	 0.316892
O	 1.1508542034	-0.5200761939	 0.0495502359	-0.341974
C	-1.1750465588	-0.765839839	 0.0138428634	 0.143842
C	-1.3429061864	-2.1532449478	-0.0097691222	 0.20857
C	-0.2548938389	-3.1814830428	-0.0107476888	-0.484263
C	-2.7348906829	-2.3978041414	-0.0325698221	-0.222389
C	-3.384315937	-1.1767493914	-0.0226735681	-0.081266
N	-2.4411306961	-0.200413289	 0.005180001	-0.31802
H	 0.927890886	 1.9683736725	 0.0845161056	 0.146576
H	-0.6020451054	 1.9026159687	-0.8229181915	 0.130225
H	-0.6255451189	 1.8752091318	 0.9485547352	 0.130255
H	 0.3835959987	-3.08737293	 0.8727516225	 0.141597
H	-0.6786025757	-4.189457849	-0.0317151108	 0.107612
H	 0.4069909186	-3.06095614	-0.8735905172	 0.141577
H	-3.2113935923	-3.3664971552	-0.0539917133	 0.100434
H	-4.4361470399	-0.937402227	-0.0334307325	 0.127817
H	-2.6309618309	 0.7862841385	 0.018078564	 0.263268
69.4073	92.373	126.2261	168.2952	177.804	273.7347	298.9453	417.6294	482.9488	487.5739	564.8194	630.6924	643.9511	680.6429	705.1327	755.601	843.2015	906.376	934.5308	995.0925	1034.5563	1061.6096	1062.4657	1094.101	1153.498	1226.4342	1278.1667	1316.5666	1369.2758	1417.9735	1444.3396	1470.5371	1473.3717	1475.947	1481.3711	1482.4815	1512.7634	1589.1197	1743.8036	3026.5129	3041.7697	3087.1607	3100.6995	3116.4846	3152.4267	3241.3277	3264.5086	3686.503
CC(=O)C1=C(C)C=CN1	CC(=O)c1c(C)cc[nH]1	
InChI=1S/C7H9NO/c1-5-3-4-8-7(5)6(2)9/h3-4,8H,1-2H3	InChI=1S/C7H9NO/c1-5-3-4-8-7(5)6(2)9/h3-4,8H,1-2H3
