17
gdb 53271	1.84216	1.02889	0.6937	2.4858	87.05	-0.2361	0.0171	0.2532	1641.141	0.131963	-384.617978	-384.607359	-384.606415	-384.658011	34.92	
C	 0.3277423447	 1.5303079486	 0.1380586365	-0.502785
C	 0.1884936357	 0.0841835327	 0.0726391202	 0.14978
C	 0.0619513517	-1.1125314886	 0.0285532713	 0.072153
C	-0.0425015148	-2.5413772189	-0.0511194515	-0.173851
O	-0.5344223548	-3.2519745188	 1.093076876	-0.232117
C	-1.3526422264	-3.2529597648	-0.0844775102	-0.173852
C	-2.6105041591	-2.5640348328	-0.0394943105	 0.072155
C	-3.6843627678	-2.0193068205	-0.0259815822	 0.149781
C	-4.9750773012	-1.3498600492	 0.0030358245	-0.502787
H	 1.3711329028	 1.8364400011	 0.0055254673	 0.151703
H	-0.2665438226	 2.0223287973	-0.6397625996	 0.151602
H	-0.0111919674	 1.9124972817	 1.1071118302	 0.155791
H	 0.788794388	-3.041729365	-0.5493706683	 0.111665
H	-1.3654856657	-4.211792797	-0.6042214675	 0.111665
H	-5.7940060919	-2.0556918621	-0.1733205278	 0.151705
H	-5.1477367879	-0.8751731875	 0.9750796247	 0.155791
H	-5.0352680232	-0.5694404062	-0.7635100532	 0.151601
11.4982	13.5844	48.1731	106.9352	134.1837	148.2467	248.8846	315.7535	341.0612	344.9152	439.3431	494.6158	538.3635	578.3928	703.3624	829.1019	843.0357	892.7237	1042.5677	1050.1574	1051.9457	1053.3413	1054.3796	1100.4161	1163.1195	1201.4394	1282.0741	1380.3676	1411.9945	1412.7231	1422.9998	1474.9815	1475.5795	1476.3632	1476.9126	2370.9772	2373.7985	3028.0707	3028.3764	3089.6004	3089.6932	3091.8581	3091.9407	3093.3783	3103.7761	11.488	13.5766	48.1733	106.9356	134.1839	148.2468	248.8842	315.7528	341.0604	344.914	439.3422	494.6152	538.3631	578.3923	703.3624	829.102	843.0358	892.7237	1042.5675	1050.1574	1051.9457	1053.3414	1054.3796	1100.4158	1163.1194	1201.4391	1282.0737	1380.3673	1411.9947	1412.7233	1422.9998	1474.9818	1475.5798	1476.3635	1476.9129	2370.9769	2373.7982	3028.0707	3028.3765	3089.6005	3089.6932	3091.8581	3091.9408	3093.3783	3103.7761
CC#CC1OC1C#CC	CC#C[C@H]1O[C@H]1C#CC	
InChI=1S/C8H8O/c1-3-5-7-8(9-7)6-4-2/h7-8H,1-2H3	InChI=1S/C8H8O/c1-3-5-7-8(9-7)6-4-2/h7-8H,1-2H3/t7-,8+
