16
gdb 93197	2.87806	1.45942	1.01369	4.1548	67.84	-0.2587	-0.0733	0.1853	1132.731	0.123474	-475.0442	-475.035945	-475.035001	-475.077645	30.278	
C	-0.1877867119	 1.4538627179	 0.0528493525	-0.409315
C	-0.0049997738	-0.0392732786	-0.0814203201	 0.194996
O	 0.9337731692	-0.3085306688	-1.0751705005	-0.228339
C	 1.0147695064	-1.69687929	-1.3431630693	-0.187158
C	 1.1312669538	-2.5392826053	-0.0762217842	 0.286087
O	 1.3334340097	-3.7232211383	-0.1237130054	-0.262804
C	 0.968263925	-1.7915436909	 1.2454904693	 0.299863
N	 1.3400018716	-2.3373887341	 2.3229482527	-0.469526
O	 0.4526381808	-0.5312687198	 1.191271013	-0.252888
H	 0.7772484737	 1.9214974603	 0.2615985885	 0.145816
H	-0.5899171677	 1.8610335962	-0.8773026817	 0.136155
H	-0.8771332864	 1.6738849812	 0.8704598747	 0.13853
H	-0.957147583	-0.5474304413	-0.3129950915	 0.083068
H	 0.1338691619	-2.0475811769	-1.9050459801	 0.134588
H	 1.8974953581	-1.866129103	-1.964674728	 0.158165
H	 1.1879847825	-1.7019857988	 3.11044271	 0.232762
52.6126	93.2177	211.5198	233.0443	285.6132	348.3823	383.2761	442.473	445.2078	535.9515	585.4593	645.4518	687.9215	741.9372	872.4028	910.0573	915.3628	1007.2306	1061.5394	1070.2098	1122.763	1157.2771	1164.6052	1190.9473	1260.0834	1322.2663	1366.7456	1387.4916	1402.1612	1434.3081	1460.744	1482.5171	1489.2474	1726.5151	1836.6158	2957.2486	2986.0498	3061.9388	3109.2843	3144.9316	3147.376	3459.0291
CC1OCC(=O)C(=N)O1	C[C@H]1OCC(=O)[C]([NH])O1	
InChI=1S/C5H7NO3/c1-3-8-2-4(7)5(6)9-3/h3,6H,2H2,1H3	InChI=1S/C5H7NO3/c1-3-8-2-4(7)5(6)9-3/h3,6H,2H2,1H3/t3-/m0/s1
