19
gdb 83525	2.76797	1.73913	1.59292	1.4033	72.32	-0.2511	0.0716	0.3227	930.5319	0.16235	-423.016191	-423.009247	-423.008303	-423.047024	29.162	
O	-0.0724894229	 1.4202596396	 0.0240274499	-0.454112
C	 0.0114886749	 0.0065898702	 0.0251405079	 0.140611
C	 0.4273455976	-0.616060981	 1.3848754424	-0.121788
C	-0.699755943	-0.0808792159	 2.3112244597	-0.19926
C	-1.9594879801	-0.0817981635	 1.3802236132	-0.20664
C	-1.4012837933	-0.6076829119	 0.0267859964	-0.085632
C	-1.0914347784	-2.082206975	 0.2812182813	 0.045707
O	 0.1761414975	-2.5595083793	-0.1950831661	-0.266117
C	 0.0875169552	-2.087942718	 1.1591130561	 0.049175
H	 0.8232614259	 1.7692882073	-0.0053662225	 0.283316
H	 0.6224679994	-0.3553482266	-0.8040595347	 0.087121
H	 1.443926626	-0.4036552463	 1.7232394308	 0.05609
H	-0.8296269794	-0.7094795441	 3.1970619987	 0.092368
H	-0.4673151035	 0.9302354632	 2.6499510476	 0.105261
H	-2.7618173763	-0.7208420181	 1.7607280373	 0.091708
H	-2.361092229	 0.9256383703	 1.2620532257	 0.115778
H	-2.0168580621	-0.3836201327	-0.8450644347	 0.069347
H	-1.8854969534	-2.8216319567	 0.3323626545	 0.098629
H	 0.2628029446	-2.8335052513	 1.9297321163	 0.098438
233.324	239.7761	268.7487	318.4163	329.4534	382.6215	495.0418	606.275	619.909	759.2314	769.1716	823.5868	832.4497	862.2448	888.0943	892.7802	917.0884	941.5633	985.7216	1001.4747	1016.2672	1023.6181	1038.5998	1121.718	1126.0666	1155.1423	1169.6333	1190.8348	1229.3738	1255.4489	1255.6668	1290.373	1296.3855	1302.2296	1316.5524	1339.2757	1354.685	1414.6044	1436.6078	1480.906	1504.5807	3055.7688	3066.2325	3084.0221	3092.071	3106.4807	3111.0526	3125.6346	3148.0583	3160.9164	3827.578
OC1C2CCC1C1OC21	O[C@H]1[C@H]2CC[C@@H]1[C@H]1O[C@@H]21	
InChI=1S/C7H10O2/c8-5-3-1-2-4(5)7-6(3)9-7/h3-8H,1-2H2	InChI=1S/C7H10O2/c8-5-3-1-2-4(5)7-6(3)9-7/h3-8H,1-2H2/t3-,4+,5+,6+,7-
