23
gdb 115719	2.36751	1.22578	0.89338	2.2082	82.79	-0.2444	0.0714	0.3158	1404.3637	0.203682	-425.403494	-425.393034	-425.39209	-425.43923	37.73	
C	 0.305516463	 1.4706647667	 0.0561710811	-0.23933
O	-0.2465462125	 0.2369062278	-0.3488332429	-0.234624
C	 0.5981915477	-0.4977693939	-1.1937504456	 0.060613
C	 1.726847267	-1.3095292771	-0.5180252696	-0.098419
O	 1.1438632721	-2.5532917887	-0.9484297642	-0.296417
C	 0.0308882624	-1.8824485618	-1.5965221382	 0.109224
C	-1.3274660925	-2.3091432661	-1.0486865695	 0.034176
C	-2.457159634	-1.5674732912	-1.7761304441	-0.400436
C	-1.4773259197	-3.8317311115	-1.1628482796	-0.398555
H	 1.2273950862	 1.3374105398	 0.6418238616	 0.11072
H	 0.5355246607	 2.1129710471	-0.8081141402	 0.108451
H	-0.4383124404	 1.9688796528	 0.6818349798	 0.132421
H	 0.929335014	 0.1241087726	-2.0372798145	 0.07191
H	 2.7380532453	-1.1676136311	-0.9187765556	 0.097881
H	 1.75004169	-1.2170381097	 0.5754323176	 0.102661
H	 0.0636366689	-2.0618603701	-2.6816655272	 0.068611
H	-1.3556376902	-2.0316433199	 0.0111498026	 0.082753
H	-3.4327021816	-1.8731700891	-1.3844788878	 0.110349
H	-2.3634931374	-0.4861423769	-1.649645994	 0.126891
H	-2.4494315623	-1.7928073292	-2.8497994798	 0.105943
H	-0.6513630732	-4.3423288976	-0.6615789287	 0.132969
H	-2.417133048	-4.1630694865	-0.7094960881	 0.106193
H	-1.4844272654	-4.1487740863	-2.2130632629	 0.106015
64.869	85.7494	115.2974	135.1759	202.8384	223.8194	225.8033	248.7451	306.1425	332.9061	381.5255	446.8833	463.2454	554.3356	797.1037	806.6981	879.1791	910.5265	934.3782	956.6849	981.4245	1007.6302	1035.6703	1063.2852	1082.0811	1131.4808	1161.4747	1174.5398	1181.6202	1184.1631	1205.2257	1234.9264	1272.5583	1288.6175	1313.3693	1338.7994	1349.9529	1393.9765	1399.5594	1404.1378	1417.8628	1482.0918	1488.594	1490.2904	1495.796	1502.9228	1508.7692	1513.1805	1517.9324	2976.7355	2985.0038	3002.092	3012.4284	3025.688	3026.6175	3028.5183	3046.9128	3058.531	3088.6512	3095.4766	3120.4714	3122.0386	3122.9181
COC1COC1C(C)C	CO[C@H]1CO[C@H]1C(C)C	
InChI=1S/C7H14O2/c1-5(2)7-6(8-3)4-9-7/h5-7H,4H2,1-3H3	InChI=1S/C7H14O2/c1-5(2)7-6(8-3)4-9-7/h5-7H,4H2,1-3H3/t6-,7-/m0/s1
