16
gdb 42187	3.06805	1.32394	1.08643	3.9421	75.07	-0.2854	-0.088	0.1975	1109.7686	0.124742	-400.716647	-400.708864	-400.70792	-400.74983	28.736	
O	-0.0014909137	-0.0668264927	 0.002598049	-0.267499
C	-0.0841573738	 1.1362497086	 0.0070211185	 0.185725
C	 1.1403830671	 1.9743744809	 0.0018702637	 0.21241
N	 2.0792539712	 2.6494355998	-0.0019709534	-0.316911
C	-1.3540569382	 1.9112914555	 0.0177595637	 0.257386
C	-1.8307140974	 2.9529140427	-1.0517459745	-0.258043
C	-2.9481797207	 2.895589897	 0.0313322959	-0.053302
C	-2.7963388839	 1.3437855791	 0.0251491161	-0.265967
C	-1.8168586746	 2.9456906019	 1.1002932382	-0.258036
H	-1.2546733247	 3.8780176558	-1.1210765926	 0.116727
H	-2.0716782008	 2.5451594193	-2.0362259004	 0.11103
H	-3.878533672	 3.4614679414	 0.0392208255	 0.090052
H	-3.1141100316	 0.8196666553	-0.8785247492	 0.109332
H	-3.1024652182	 0.8136015532	 0.9293038323	 0.109335
H	-2.0451403925	 2.5313200885	 2.0850328824	 0.111033
H	-1.239930926	 3.8703313637	 1.1684100246	 0.116728
45.4134	106.4053	164.7702	226.5311	303.2653	429.7071	452.322	533.7172	554.712	650.7019	710.872	808.8732	816.8176	882.9648	906.4877	952.9169	962.5766	971.2058	1001.9747	1042.3283	1093.2958	1100.2547	1132.6324	1137.6908	1166.4103	1173.5976	1230.1955	1231.8206	1247.6109	1312.3435	1497.1297	1500.081	1552.1844	1786.2355	2336.2124	3061.864	3064.3579	3070.547	3127.5886	3132.9298	3137.6581	3138.1176
O=C(C#N)C12CC(C1)C2	O=C(C#N)[C@@]12C[C@@H](C1)C2	
InChI=1S/C7H7NO/c8-4-6(9)7-1-5(2-7)3-7/h5H,1-3H2	InChI=1S/C7H7NO/c8-4-6(9)7-1-5(2-7)3-7/h5H,1-3H2/t5-,7-
