19
gdb 96520	2.40899	1.61917	1.05632	1.9706	72.15	-0.2398	-0.0215	0.2183	1143.4719	0.159251	-460.180528	-460.171928	-460.170984	-460.213889	32.226	
C	 0.2206741514	 1.5384523087	-0.2249778033	-0.39355
C	 0.1423679044	 0.040293195	 0.0071752412	 0.019209
O	 1.0238327651	-0.6171527188	-0.9125897594	-0.252014
C	 0.5510557551	-1.8279547578	-1.4352695853	-0.006658
O	 0.114734123	-2.7292223035	-0.4527533279	-0.238275
C	 0.9919371992	-2.8355189208	 0.6637106349	-0.097454
C	 0.5935598224	-1.8531206026	 1.7708997465	-0.292117
C	 0.6010304335	-0.3660805453	 1.4244870171	 0.387264
O	 0.9352440204	 0.4630899764	 2.2372746718	-0.301374
H	 1.2471495524	 1.8887370659	-0.0967245821	 0.138436
H	-0.1125043064	 1.7755532461	-1.2384582584	 0.114858
H	-0.4086271606	 2.0687754018	 0.493261799	 0.130173
H	-0.8856310188	-0.3222433509	-0.1418818073	 0.095577
H	-0.3188106813	-1.6790591538	-2.0912171018	 0.104154
H	 1.3960828258	-2.232035653	-2.0112737944	 0.10442
H	 0.8915373813	-3.8587801574	 1.0383535961	 0.11478
H	 2.0353361515	-2.6855258982	 0.3589731014	 0.114304
H	-0.4377571252	-2.0912658091	 2.0694621137	 0.133319
H	 1.2224177769	-1.9885887427	 2.6556057583	 0.124946
64.038	136.4464	200.8535	228.3851	270.5194	313.0558	322.766	359.8529	392.3755	482.3503	555.4878	650.1654	681.7369	771.1365	838.4549	862.8692	896.7323	1001.0622	1005.9647	1050.0093	1092.3459	1103.2978	1127.8793	1152.3006	1158.5931	1198.8044	1251.3708	1279.3464	1300.9529	1349.7194	1356.6638	1363.4284	1402.6292	1410.4901	1443.2	1445.9615	1480.4489	1488.2239	1498.825	1515.995	1811.0113	2990.7601	2999.7658	3016.6118	3027.4457	3036.8469	3057.3483	3085.0214	3098.3103	3134.4049	3140.6481
CC1OCOCCC1=O	C[C@H]1OCOCCC1=O	
InChI=1S/C6H10O3/c1-5-6(7)2-3-8-4-9-5/h5H,2-4H2,1H3	InChI=1S/C6H10O3/c1-5-6(7)2-3-8-4-9-5/h5H,2-4H2,1H3/t5-/m1/s1
