14
gdb 5167	6.09023	1.18139	1.09225	2.5002	65.27	-0.2238	-0.0281	0.1957	1049.5223	0.106848	-382.57717	-382.569956	-382.569011	-382.610145	25.332	
O	-0.5259368347	 0.5496392052	 0.6693174177	-0.230904
C	 0.0933458109	 0.9559300892	-0.276926952	 0.161932
C	 1.3238841622	 1.8546271054	-0.174567136	-0.384732
C	 1.2721096922	 2.9895542787	-1.1382483142	 0.33561
C	 0.9183971867	 4.2995576638	-1.0289884377	-0.264008
C	 1.0380969083	 4.8646725999	-2.3408569257	-0.163991
C	 1.4482388505	 3.8544032314	-3.1485845937	-0.019159
O	 1.5949655176	 2.7045443356	-2.4346198349	-0.176458
H	-0.1959225335	 0.6972959833	-1.3196873127	 0.091234
H	 1.4037060408	 2.2151016718	 0.8531047446	 0.140019
H	 2.2026685508	 1.2305141969	-0.3888171361	 0.142744
H	 0.613322544	 4.802497815	-0.1246489413	 0.116125
H	 0.8467111958	 5.8846604832	-2.6345028582	 0.11525
H	 1.6773793585	 3.7839594407	-4.1988613297	 0.136338
38.8819	63.2021	144.6346	304.338	360.2294	445.096	614.3631	652.7634	704.8998	750.1976	803.5784	810.8199	855.6689	902.5318	944.0591	1007.7514	1040.9124	1047.8538	1108.6124	1176.9448	1188.3824	1233.7741	1272.4462	1299.1145	1413.9663	1421.9953	1441.6247	1537.7143	1636.0222	1837.6489	2889.9388	3023.0767	3121.4371	3253.2367	3264.4981	3288.4353
O=CCC1=CC=CO1	O=CCc1ccco1	
InChI=1S/C6H6O2/c7-4-3-6-2-1-5-8-6/h1-2,4-5H,3H2	InChI=1S/C6H6O2/c7-4-3-6-2-1-5-8-6/h1-2,4-5H,3H2
