21
gdb 90172	3.37937	1.37298	1.30895	1.3839	81.49	-0.2168	0.0792	0.296	1096.2305	0.183423	-387.056838	-387.048908	-387.047964	-387.088984	32.249	
C	 0.2516492369	 1.6063016584	 0.0973774464	-0.399442
C	 0.0709819355	 0.1037377549	-0.0154004961	 0.142217
C	 0.7297183813	-0.5645034195	-1.2696580937	-0.342262
C	 1.1936048606	-1.909388284	-0.742339319	 0.216038
C	 2.4253192112	-1.9766507026	 0.1375725317	-0.370857
C	 1.0772000432	-1.8018332929	 0.7651754305	 0.361916
C	 0.2481384872	-3.093192698	 0.8468368441	-0.290041
C	 0.4128137133	-3.2409099684	-0.7083499674	-0.28225
O	 0.6773820245	-0.5264345197	 1.1435250839	-0.309
H	 1.3155658919	 1.8636953067	 0.0997334612	 0.120198
H	-0.2277999397	 2.1124212124	-0.7466076161	 0.115439
H	-0.1955670859	 1.9823410955	 1.0215802812	 0.127374
H	-1.0039327461	-0.1378962859	-0.0109616099	 0.070752
H	 0.0066108353	-0.6605326335	-2.0848488856	 0.105166
H	 1.5596497492	 0.0488534343	-1.6382350556	 0.103209
H	 2.9655630119	-2.9159114069	 0.234632602	 0.105296
H	 3.0479682973	-1.089343981	 0.1473883984	 0.117273
H	 0.6429742619	-3.8923364813	 1.482247828	 0.09709
H	-0.7867697003	-2.8960441882	 1.1344234209	 0.110206
H	-0.5410492578	-3.1933798357	-1.239304552	 0.102439
H	 0.9613533586	-4.1195670245	-1.062763843	 0.09924
78.7049	195.6519	232.9221	266.2881	310.6321	360.4518	434.1193	467.8205	560.3908	583.9821	638.5627	748.9502	759.5117	797.5013	811.934	846.1281	879.4117	901.4819	932.2301	948.0902	962.1892	995.1619	1019.9736	1072.0034	1081.4544	1100.7976	1139.6706	1172.6523	1196.1285	1222.4471	1238.5224	1239.9145	1279.7753	1294.1411	1313.6842	1357.0815	1365.7142	1388.2508	1410.4499	1470.8783	1474.4911	1482.1049	1485.6931	1496.311	1499.4702	2969.9783	3036.8093	3040.4449	3042.526	3050.5025	3092.2604	3096.6923	3107.2512	3111.4577	3117.7533	3118.8662	3215.0804
CC1CC23CC2(CC3)O1	C[C@H]1C[C@@]23C[C@@]2(CC3)O1	
InChI=1S/C8H12O/c1-6-4-7-2-3-8(7,5-7)9-6/h6H,2-5H2,1H3	InChI=1S/C8H12O/c1-6-4-7-2-3-8(7,5-7)9-6/h6H,2-5H2,1H3/t6-,7-,8+/m0/s1
