20
gdb 29777	2.39705	1.51709	0.94591	0.9837	85.28	-0.1661	0.0588	0.2249	1259.6681	0.170947	-399.358163	-399.347685	-399.346741	-399.39353	37.655	
C	-0.0643473893	 1.4478452002	-0.0129534745	-0.340047
N	-0.0170714371	 0.0040176458	-0.0060147375	-0.004811
C	 0.0064681074	-0.7973575624	-1.1306662382	-0.192392
C	 0.0457356405	-2.1120843738	-0.7211554357	 0.136991
N	-0.000140677	-3.2703648896	-1.5279523868	-0.606911
C	 0.0398414793	-2.1217113697	 0.7053722254	 0.203217
C	 0.0496908014	-3.3340548183	 1.5829484149	-0.519615
C	 0.0025866829	-0.7982621437	 1.1118562896	 0.146223
N	 0.0059560089	-0.2064211355	 2.398163259	-0.612983
H	 0.7112152061	 1.8534038683	-0.6713097375	 0.124919
H	-1.0379351257	 1.8195355428	-0.3560068924	 0.122794
H	 0.1089505722	 1.7977908458	 1.0050870844	 0.155705
H	-0.0174337821	-0.3655018814	-2.1186270556	 0.095272
H	 0.2185407868	-3.0668489913	-2.4956971521	 0.232691
H	 0.6427811556	-3.9834512725	-1.2028822545	 0.235298
H	 1.0048947282	-3.8773724508	 1.5499159293	 0.110525
H	-0.1265441547	-3.0622152691	 2.6288712371	 0.100905
H	-0.7299903059	-4.0480454892	 1.2906707741	 0.12935
H	-0.895435939	-0.2781869163	 2.8608076239	 0.240784
H	 0.6928821819	-0.6403736293	 3.0037710771	 0.242084
60.1904	105.4051	123.8684	168.4753	193.5453	194.1232	234.7277	269.4506	292.8188	320.4701	342.4384	554.037	579.4387	604.5672	610.6706	643.404	682.3485	731.4135	792.9346	801.9882	881.1746	1029.5393	1061.2252	1082.4604	1116.7297	1154.0791	1180.8213	1205.1463	1225.5511	1267.6228	1397.9485	1414.7136	1431.0016	1452.8909	1484.5652	1488.2909	1497.3852	1504.4532	1525.0332	1570.586	1627.6579	1653.5419	1666.5648	2999.5184	3018.9077	3049.3048	3073.0641	3090.2928	3149.2127	3252.3492	3491.983	3513.5421	3571.4269	3602.3498
CN1C=C(N)C(C)=C1N	Cn1cc(N)c(C)c1N	
InChI=1S/C6H11N3/c1-4-5(7)3-9(2)6(4)8/h3H,7-8H2,1-2H3	InChI=1S/C6H11N3/c1-4-5(7)3-9(2)6(4)8/h3H,7-8H2,1-2H3
