21
gdb 73819	2.97577	1.50664	1.14898	0.25	89.69	-0.1995	0.0229	0.2225	1149.7463	0.182996	-349.915832	-349.907695	-349.906751	-349.948086	32.38	
C	-0.0302047006	 1.5175837073	 0.0669901293	-0.510451
C	 0.0108859468	 0.0292027869	-0.0158357047	 0.201987
C	-0.0028900508	-0.8054269482	-1.0658699712	 0.201987
C	-0.0644345273	-0.5496343421	-2.5337284954	-0.510451
C	 0.0619246612	-2.1883052124	-0.4234303035	-0.097706
C	-0.8337877833	-2.1479040555	 0.8689366165	-0.034827
C	 0.1627348149	-3.0798112471	 1.5965875204	-0.255559
C	 1.0460873985	-2.0919831479	 0.7998032683	-0.034851
C	 0.0830482229	-0.909574763	 1.1853178613	-0.097707
H	 0.8579447931	 1.9171840828	 0.5744474035	 0.123454
H	-0.083512139	 1.9798276893	-0.9228972101	 0.121148
H	-0.89726503	 1.8647342702	 0.6445998212	 0.123405
H	-0.1066577414	 0.5196754198	-2.7599628546	 0.121148
H	 0.8096960132	-0.9660507257	-3.0518840938	 0.123447
H	-0.9456459083	-1.0219470107	-2.9879736056	 0.123411
H	 0.0654537236	-3.0825495888	-1.050533348	 0.0521
H	-1.9269117469	-2.1685230029	 0.8996794405	 0.062406
H	 0.2006120741	-3.0045609973	 2.6874296127	 0.086282
H	 0.1820873281	-4.125908155	 1.2766800021	 0.086281
H	 2.1378134737	-2.0476317313	 0.7502147409	 0.062397
H	 0.1081069976	-0.5006021784	 2.1977687906	 0.052099
150.0443	178.2741	180.774	193.8291	249.733	281.4304	447.3602	451.4893	562.4086	580.5634	619.6005	782.5042	795.6722	816.7229	872.8846	874.4845	907.0264	911.391	964.4911	979.9704	1008.8925	1039.7463	1042.7777	1059.982	1079.749	1095.8241	1125.3768	1137.2767	1155.5938	1191.3973	1197.8104	1199.115	1226.1859	1228.1297	1264.7516	1319.7858	1344.033	1409.9718	1420.5824	1477.7233	1478.6435	1488.4824	1491.764	1511.9214	1733.83	3008.4937	3010.1704	3040.0857	3049.4988	3049.666	3069.4987	3072.9395	3091.6576	3098.5675	3099.2513	3101.7093	3104.5698
CC1=C(C)C2C3CC2C13	CC1=C(C)[C@@H]2[C@H]3C[C@@H]2[C@@H]13	
InChI=1S/C9H12/c1-4-5(2)9-6-3-7(9)8(4)6/h6-9H,3H2,1-2H3	InChI=1S/C9H12/c1-4-5(2)9-6-3-7(9)8(4)6/h6-9H,3H2,1-2H3/t6-,7+,8-,9+
