19
gdb 63710	3.47587	1.15415	1.02998	3.6284	82.06	-0.2515	0.0111	0.2626	1216.5619	0.158853	-382.051347	-382.042577	-382.041633	-382.084311	33.838	
C	-0.044212906	 1.5568254188	 0.0982631956	-0.447558
C	 0.0117586057	 0.0351277121	 0.015253696	 0.334579
C	-1.3661546847	-0.5779469868	-0.2315691799	-0.449154
C	 1.1005834591	-0.5726008734	-0.9574224829	-0.335428
C	 1.7273564941	-1.2904534213	 0.2454079322	 0.252646
N	 2.1289415353	-0.2205493976	 1.203483777	-0.363051
C	 0.7322073242	-0.6748629551	 1.1850125479	-0.141337
C	 2.3256142598	-2.5822433622	 0.2824020813	 0.165765
N	 2.8094086374	-3.6343095814	 0.3002343	-0.346661
H	 0.940289963	 1.9687652905	 0.3311985839	 0.13971
H	-0.3822132337	 1.9829026733	-0.8528673896	 0.116062
H	-0.7468291579	 1.8806599319	 0.8744742739	 0.112974
H	-1.7774897226	-0.2312537385	-1.1853770428	 0.122802
H	-1.3209244809	-1.6719165747	-0.2616990214	 0.120399
H	-2.0682889582	-0.2918435818	 0.5596825216	 0.118198
H	 0.6727193054	-1.2544151887	-1.6940047714	 0.122989
H	 1.7700540239	 0.1370915893	-1.4470364165	 0.118554
H	 2.594718529	-0.6694444917	 1.9924718901	 0.248066
H	 0.2747707072	-1.1139152428	 2.0646308248	 0.110446
97.0437	144.7621	225.7537	238.5282	259.2831	276.6755	323.9429	370.111	422.3288	486.1542	539.6068	559.1207	578.7291	672.0452	777.5224	839.7384	869.5716	914.8527	951.2143	962.2936	964.0779	996.748	1041.0788	1057.8559	1097.2511	1134.539	1194.5154	1217.4084	1251.081	1271.5004	1282.0628	1351.603	1388.1957	1400.0111	1421.5571	1475.4284	1485.505	1488.0094	1501.8619	1510.7918	2342.6236	3025.3311	3031.184	3077.1116	3090.1951	3095.1052	3100.8565	3125.6632	3140.1453	3182.8237	3476.9571
CC1(C)CC2(NC12)C#N	CC1(C)C[C@]2(N[C@@H]12)C#N	
InChI=1S/C7H10N2/c1-6(2)3-7(4-8)5(6)9-7/h5,9H,3H2,1-2H3	InChI=1S/C7H10N2/c1-6(2)3-7(4-8)5(6)9-7/h5,9H,3H2,1-2H3/t5-,7-/m0/s1
