17
gdb 47631	2.53435	1.63722	1.05232	4.9265	78.96	-0.2342	-0.0756	0.1586	1111.8946	0.138807	-418.037183	-418.029405	-418.028461	-418.069758	29.757	
N	-0.105592539	 1.0680694353	 0.8763214925	-0.496231
C	-0.0147906416	 0.0274310469	 0.143713905	 0.242788
N	-1.0599081421	-0.8705318198	 0.0789850121	-0.319659
C	-1.3663619727	-1.6250560974	-1.128873381	-0.197426
C	-0.5525648799	-2.9113563902	-1.2337477795	-0.239189
C	 0.9271948781	-2.7169615238	-1.3365401949	-0.039954
C	 1.6631944967	-1.6214823491	-1.104742629	-0.129111
C	 1.2948802156	-0.281179122	-0.597283966	 0.305744
O	 2.1146865084	 0.6157628181	-0.6710036299	-0.324614
H	 0.7847678056	 1.5676689662	 0.8333700978	 0.237049
H	-1.8627545918	-0.5135037229	 0.5786781394	 0.247439
H	-2.4290092323	-1.8787227639	-1.0938525054	 0.118045
H	-1.2144918818	-1.0207015327	-2.0354554092	 0.116684
H	-0.7665751513	-3.5547095629	-0.3678494043	 0.132742
H	-0.8866627379	-3.477081761	-2.1140246137	 0.117049
H	 1.4717298929	-3.5977536649	-1.6740012861	 0.112421
H	 2.7304366032	-1.6694618659	-1.3049161378	 0.116223
72.1294	110.9804	259.7665	284.6161	348.8897	363.457	429.1621	472.1096	542.2928	588.0964	631.8891	659.5669	737.2711	782.13	847.3408	853.9621	915.6765	945.6912	977.4445	1033.8031	1074.4813	1097.6107	1160.9729	1219.1791	1235.3258	1275.9936	1299.3789	1390.49	1394.4851	1426.1688	1443.5388	1447.4163	1461.6949	1500.461	1692.7925	1697.385	1745.4667	2995.5086	3010.224	3042.8317	3093.7249	3137.5527	3171.3073	3468.9742	3589.8172
N=C1NCCC=CC1=O	[NH][C]1NCCC=CC1=O	
InChI=1S/C6H8N2O/c7-6-5(9)3-1-2-4-8-6/h1,3H,2,4H2,(H2,7,8)	InChI=1S/C6H8N2O/c7-6-5(9)3-1-2-4-8-6/h1,3H,2,4H2,(H2,7,8)
