17
gdb 94765	3.98909	1.15006	1.00781	1.6057	74.7	-0.2506	0.0203	0.2708	1176.6847	0.135156	-421.783433	-421.775212	-421.774268	-421.816074	31.904	
O	 0.0299274885	 1.4265184473	-0.0363772677	-0.437097
C	 0.0604107019	 0.0129777563	-0.0432688701	 0.135517
C	 0.7380434259	-0.6161813137	 1.2033387524	-0.267221
C	 0.0705102641	-1.9917626989	 1.4074461031	-0.30781
C	-1.3197835236	-1.8201737476	 0.8017129006	 0.259753
O	-1.957263803	-0.5869071511	 1.214371176	-0.305372
C	-1.3165184701	-0.629477732	-0.0687874254	-0.066483
C	-2.1741580491	-2.9564061641	 0.6107786595	 0.184346
C	-2.8521917261	-3.9390744824	 0.471753647	-0.343765
H	-0.5128993426	 1.6920278213	 0.7156824445	 0.288161
H	 0.5952103276	-0.2611520587	-0.9603224321	 0.095975
H	 1.8216468353	-0.6828735665	 1.0894989085	 0.110037
H	 0.5370836639	 0.0295669991	 2.0622479308	 0.1132
H	 0.5916662276	-2.7824684672	 0.8569092292	 0.118952
H	 0.0240511378	-2.2975074927	 2.4564076725	 0.120581
H	-1.9743319076	-0.5242058326	-0.9271983221	 0.107837
H	-3.4631903904	-4.7983279365	 0.3435875132	 0.193389
96.7487	138.285	154.4748	256.1569	337.5161	384.9621	413.4703	447.2096	523.9572	545.1355	585.6968	624.6357	653.4861	673.2495	692.4432	845.227	855.4197	871.7759	948.9262	975.236	1019.744	1049.0869	1091.3161	1103.9565	1157.5646	1199.58	1217.2531	1269.9806	1284.4926	1319.6487	1325.6018	1344.1214	1426.4224	1433.5181	1481.9652	1493.6558	2243.3527	3047.6454	3052.1676	3070.6286	3097.1896	3122.524	3159.9141	3501.5816	3789.7027
OC1CCC2(OC12)C#C	O[C@H]1CC[C@]2(O[C@@H]12)C#C	
InChI=1S/C7H8O2/c1-2-7-4-3-5(8)6(7)9-7/h1,5-6,8H,3-4H2	InChI=1S/C7H8O2/c1-2-7-4-3-5(8)6(7)9-7/h1,5-6,8H,3-4H2/t5-,6-,7+/m0/s1
