17
gdb 35135	5.48871	0.87764	0.8468	2.7153	73.33	-0.2576	0.0109	0.2686	1345.1537	0.136847	-417.968455	-417.960229	-417.959285	-418.002164	29.91	
N	-0.4738760656	-1.1209202516	-0.0747665782	-0.323353
C	-0.1229454324	-0.0188259268	-0.0653158404	 0.260321
C	 0.3645668265	 1.3629486934	-0.0481619855	-0.100688
C	-0.0639711847	 2.1669529661	 1.216598549	-0.261005
C	 1.3815063629	 1.9315660602	 1.7385134569	 0.006387
N	 1.7799302368	 1.5125183941	 0.3716278257	-0.313211
C	 2.1137313839	 3.1338404377	 2.2845048233	 0.071375
C	 3.3372746184	 3.6549080189	 1.6610871056	-0.169404
O	 2.0802348249	 4.3098910286	 1.4788667295	-0.231879
H	 0.1433987036	 1.8250801718	-1.015369742	 0.129454
H	-0.2469810138	 3.2149139904	 0.9810285504	 0.144157
H	-0.8838511835	 1.7544222215	 1.8015287349	 0.130911
H	 1.4231841965	 1.1212722528	 2.4792049077	 0.082574
H	 2.3397371206	 0.6689940265	 0.3114428174	 0.2363
H	 1.9557772427	 3.3173120327	 3.3491325636	 0.095157
H	 4.0639646966	 4.1937341795	 2.2672053465	 0.115153
H	 3.7218863267	 3.1576398141	 0.7739902755	 0.127752
54.4988	89.0288	144.9881	178.1505	251.3383	293.477	446.0615	505.7115	567.9632	607.9675	688.8907	754.7143	806.2209	842.9294	895.4918	924.9281	971.8503	985.0437	1000.4513	1066.0674	1068.5963	1100.3993	1111.3491	1158.4129	1168.7945	1174.8046	1228.1366	1259.5209	1287.0598	1296.9567	1331.1456	1373.9869	1410.1991	1429.0277	1477.0862	1512.7279	2345.6932	3009.2463	3058.2029	3089.6503	3097.2246	3105.0601	3172.2192	3189.6953	3537.9088
N#CC1CC(N1)C1CO1	N#C[C@H]1C[C@@H](N1)[C@H]1CO1	
InChI=1S/C6H8N2O/c7-2-4-1-5(8-4)6-3-9-6/h4-6,8H,1,3H2	InChI=1S/C6H8N2O/c7-2-4-1-5(8-4)6-3-9-6/h4-6,8H,1,3H2/t4-,5-,6-/m1/s1
