17
gdb 56707	2.03418	1.36927	1.24971	3.5132	78.25	-0.2569	0.0199	0.2769	1138.1373	0.134666	-380.826068	-380.81667	-380.815726	-380.860336	34.643	
N	 0.1639117229	 1.3525242617	 0.2934671958	-0.504897
C	-0.0260673689	-0.0673459232	-0.0017951056	-0.257215
C	-1.4528994532	-0.3941322705	 0.0066724751	 0.372367
C	-2.6217260498	-0.6680888118	-0.0184207477	-0.447702
C	 0.6311487522	-0.5523602371	-1.3155318991	 0.173749
C	 2.0834795989	-1.0065179914	-1.2675773204	-0.31422
C	 0.9931918785	-2.0182041313	-1.4595780198	-0.286266
C	 0.1998738507	 0.1576241973	-2.4928712164	 0.249947
N	-0.1460864904	 0.7537685155	-3.4222272969	-0.346343
H	 1.150253544	 1.5861204174	 0.2176093835	 0.233215
H	-0.3288336889	 1.9129282428	-0.3966156904	 0.25022
H	 0.4614756763	-0.6350954761	 0.8031775969	 0.115682
H	-3.6570747311	-0.9050292092	-0.0337908591	 0.206244
H	 2.7149827651	-0.7621013854	-2.1130940163	 0.144449
H	 2.5764122358	-0.9532554899	-0.3022867636	 0.129612
H	 0.7259342809	-2.6595466049	-0.6267410843	 0.136858
H	 0.875107287	-2.4718238838	-2.4358623216	 0.144301
54.224	114.5064	142.9904	204.4427	225.5024	252.7609	275.3363	325.5804	407.2594	468.1602	550.3843	582.5217	608.9107	643.0694	662.3128	727.8867	780.8982	868.7994	885.6933	914.2028	953.7104	965.6176	984.8221	1069.4041	1093.6277	1125.9323	1192.2628	1203.2046	1259.0109	1263.89	1369.4322	1398.951	1469.5144	1498.057	1655.2354	2245.3855	2348.7725	3008.141	3138.4815	3145.8983	3226.3617	3240.5663	3485.6573	3503.0522	3571.0887
NC(C#C)C1(CC1)C#N	N[C@@H](C#C)C1(CC1)C#N	
InChI=1S/C7H8N2/c1-2-6(9)7(5-8)3-4-7/h1,6H,3-4,9H2	InChI=1S/C7H8N2/c1-2-6(9)7(5-8)3-4-7/h1,6H,3-4,9H2/t6-/m0/s1
