21
gdb 82807	2.80086	1.58607	1.53402	1.3892	80.83	-0.2437	0.0681	0.3119	999.099	0.186111	-387.064305	-387.057018	-387.056074	-387.095506	30.817	
O	 0.0110702491	 1.4107382569	-0.1404471493	-0.407151
C	-0.013353365	 0.0166118791	-0.0309069008	 0.063506
C	-0.41571873	-0.6983057037	 1.2429867218	-0.093955
C	-1.010905693	 0.0331343861	 2.4512977543	-0.228818
C	-2.5050397295	 0.3688065165	 2.2648104052	 0.00013
C	-2.7181831145	 1.1987158333	 0.9712112367	-0.230881
C	-2.7010770729	-0.1620925572	 0.2146309489	-0.030386
C	-3.2531650167	-0.7880472001	 1.5363578919	-0.21648
C	-1.3089667476	-0.7451866991	 0.0068246144	-0.052379
H	 0.7599295902	 1.7307808276	 0.3742860334	 0.287481
H	 0.7816421967	-0.4709178662	-0.5977797868	 0.082043
H	 0.171389013	-1.5793550187	 1.4834883161	 0.078979
H	-0.8958029664	-0.610577419	 3.3305885998	 0.096061
H	-0.4574407786	 0.9566526878	 2.6707362004	 0.084511
H	-2.9313579889	 0.7494954545	 3.1967203563	 0.051496
H	-3.7258938425	 1.624145433	 0.9436784169	 0.084411
H	-1.9861443322	 1.9561561015	 0.7044996598	 0.117508
H	-3.3029109372	-0.2424035683	-0.6935447758	 0.057362
H	-2.9756809499	-1.8210553386	 1.7675200044	 0.083983
H	-4.3370577348	-0.6711324434	 1.6208218878	 0.090785
H	-1.3130852293	-1.6682586719	-0.5678828054	 0.081794
151.8174	217.4223	273.7699	292.8244	374.1821	428.019	475.8154	525.0782	622.879	640.7561	729.8175	767.9929	804.973	820.5002	852.1812	872.6458	912.6532	930.1455	941.2746	997.0893	1001.8373	1031.1792	1075.5329	1081.0418	1113.483	1126.5484	1127.4688	1136.8189	1149.629	1153.5567	1224.3765	1247.5551	1259.7787	1273.6478	1293.6087	1304.192	1316.7515	1341.4673	1364.1428	1378.2053	1388.4684	1458.8075	1478.62	1486.8857	1512.7167	3008.1583	3044.9075	3054.0893	3057.4231	3068.7918	3075.9901	3076.897	3104.2437	3128.4763	3146.4938	3172.168	3797.4348
OC1C2CC3CC(C3)C12	O[C@H]1[C@H]2C[C@H]3C[C@H](C3)[C@@H]12	
InChI=1S/C8H12O/c9-8-6-3-4-1-5(2-4)7(6)8/h4-9H,1-3H2	InChI=1S/C8H12O/c9-8-6-3-4-1-5(2-4)7(6)8/h4-9H,1-3H2/t4-,5+,6-,7+,8-/m0/s1
