17
gdb 44865	3.39638	1.64506	1.51388	4.3444	69.98	-0.2539	0.016	0.2698	913.7106	0.139842	-421.857368	-421.851201	-421.850257	-421.887715	26.102	
O	-0.0119348751	 0.025385346	 0.0416949914	-0.350243
C	 0.0261334676	 1.2192965346	 0.0141724486	 0.452245
O	-1.0994734018	 2.0075329454	 0.0394725455	-0.244466
C	-0.6314130514	 3.3944808149	 0.0420568744	 0.083227
C	 0.5901263128	 3.29318847	-0.8830495742	-0.265559
C	 1.2254953894	 2.1812841144	-0.0241290691	-0.17749
C	 1.2211293944	 2.7806690389	 1.398686691	-0.024527
C	 1.2971020935	 4.274307659	 1.5904882303	-0.329736
C	-0.0504405823	 3.6140626762	 1.4380987256	-0.030443
H	-1.4633946168	 4.0241898397	-0.2680613783	 0.091954
H	 0.307952362	 2.9494380938	-1.8801725755	 0.123567
H	 1.178746934	 4.2045979839	-0.9744794749	 0.115343
H	 2.1475282766	 1.7138008666	-0.3621511714	 0.094305
H	 1.493734451	 2.1277771659	 2.2188731337	 0.111355
H	 1.5441279727	 4.597417805	 2.5963393112	 0.123851
H	 1.6959616404	 4.9258309067	 0.8224862766	 0.119946
H	-0.733560667	 3.5738020191	 2.277617075	 0.10667
155.5762	285.6693	376.9676	460.6385	492.1616	519.6032	576.9028	720.2345	738.9923	765.4703	816.8255	831.2008	878.6967	887.5764	910.4479	937.7058	947.4943	986.7027	995.5766	1031.8313	1048.0562	1077.9076	1086.8009	1104.6135	1120.6287	1161.9539	1195.7346	1211.1383	1255.3843	1286.4549	1299.075	1328.3844	1346.2733	1378.3885	1481.9887	1524.4823	1893.7176	3091.4131	3137.598	3139.6256	3147.9117	3150.6768	3185.1731	3192.985	3220.9488
O=C1OC2CC1C1CC21	O=C1O[C@@H]2C[C@H]1[C@H]1C[C@@H]21	
InChI=1S/C7H8O2/c8-7-5-2-6(9-7)4-1-3(4)5/h3-6H,1-2H2	InChI=1S/C7H8O2/c8-7-5-2-6(9-7)4-1-3(4)5/h3-6H,1-2H2/t3-,4+,5-,6+/m0/s1
