22
gdb 15426	4.36594	0.91519	0.83312	1.0234	79.83	-0.2415	0.091	0.3326	1486.2417	0.198595	-350.185848	-350.176068	-350.175124	-350.220986	34.93	
C	-0.205799489	 1.5381598677	-0.1009042832	-0.37941
C	-0.2543911174	 0.0202375045	-0.2938080431	-0.156218
C	 1.0207591169	-0.5414007763	-0.9357109609	-0.182951
C	 0.9804888895	-2.0450312694	-1.1163303078	-0.042129
C	 0.2815862964	-2.6565518935	-2.3199894432	-0.324419
C	 1.7853173348	-2.7211461004	-2.1836793034	 0.11147
O	 2.5789371453	-1.9120247422	-2.9931006062	-0.234733
C	 2.7892414958	-2.4570279269	-4.2790016547	-0.22908
H	 0.6288622721	 1.8288116491	 0.5469956645	 0.112693
H	-0.072536375	 2.0538833596	-1.0585465021	 0.112904
H	-1.127112246	 1.9145237012	 0.3548665101	 0.108572
H	-0.4187087669	-0.4679967144	 0.6761081007	 0.090051
H	-1.1175982661	-0.2472224841	-0.9164577114	 0.095745
H	 1.1909365001	-0.0662750535	-1.9076780968	 0.104696
H	 1.88742235	-0.2749223832	-0.3152333112	 0.093639
H	 0.8899990156	-2.6047356388	-0.1878588282	 0.081641
H	-0.3031869172	-3.5620575616	-2.1991154263	 0.106793
H	-0.1040886002	-1.9619817141	-3.0599804269	 0.114277
H	 2.2327087725	-3.6907453879	-1.9556961357	 0.079567
H	 3.3042591525	-3.4287009803	-4.2278461161	 0.104211
H	 1.8427838848	-2.5975301685	-4.8208123597	 0.107653
H	 3.4180131214	-1.7530769168	-4.8294569085	 0.125028
62.3886	84.9304	109.3423	118.6371	198.9126	218.7399	242.768	303.8843	306.3088	422.1885	479.3955	595.3718	743.3969	772.4899	825.7064	864.9082	877.3536	911.6321	970.4505	1015.7564	1032.4938	1049.7098	1062.0671	1109.8241	1122.7151	1143.7917	1170.561	1184.8263	1196.9828	1225.8008	1260.8901	1267.3078	1299.9155	1326.2905	1373.5152	1393.8062	1410.0428	1420.0292	1472.0576	1484.2204	1485.7204	1492.109	1495.6559	1499.1894	1509.3815	1511.2576	2980.6759	3012.9804	3018.4532	3027.9502	3031.3061	3045.5681	3075.6909	3076.228	3094.9154	3099.4407	3116.0419	3125.6294	3129.5338	3213.9586
CCCC1CC1OC	CCC[C@H]1C[C@H]1OC	
InChI=1S/C7H14O/c1-3-4-6-5-7(6)8-2/h6-7H,3-5H2,1-2H3	InChI=1S/C7H14O/c1-3-4-6-5-7(6)8-2/h6-7H,3-5H2,1-2H3/t6-,7+/m0/s1
