16
gdb 133697	3.50499	0.99939	0.94994	1.7828	57.53	-0.2682	0.064	0.3322	1219.8211	0.120357	-569.386753	-569.378287	-569.377342	-569.420506	31.246	
O	 0.4178678713	 0.9149864916	-0.6222239117	-0.429499
C	-0.1042637325	-0.1740969086	 0.0986166017	 0.146739
C	 0.0682247354	-0.1861628306	 1.6475575532	-0.279985
C	-1.4483286027	-0.5066666064	 1.7794668232	-0.149911
C	-1.6342416034	-0.0964623088	 0.2903852408	-0.254853
C	-1.7448889201	-1.9597036431	 2.0577300048	 0.276619
F	-1.3747900794	-2.3068706442	 3.3016357364	-0.081147
F	-3.0563617543	-2.2247554767	 1.9403896257	-0.080649
F	-1.098203835	-2.784481779	 1.2095387108	-0.090486
H	 1.3554675904	 0.760626741	-0.7743020276	 0.285028
H	 0.1984095739	-1.1311727321	-0.3427211935	 0.08254
H	 0.7714963726	-0.8976679395	 2.0850772074	 0.113587
H	 0.2894775395	 0.8190153758	 2.0128640228	 0.114755
H	-2.0055310218	 0.0748017843	 2.5158616608	 0.105556
H	-1.9693734322	 0.9395387153	 0.2083193095	 0.122164
H	-2.2627250418	-0.7311916091	-0.3361979444	 0.119544
60.6096	97.8066	176.9701	223.2689	271.9676	325.7478	347.5685	432.6926	458.1565	526.5684	576.1967	608.8864	699.4729	790.5356	815.8942	898.7938	940.7399	984.6746	998.2324	1040.7354	1082.9949	1124.0914	1162.1776	1191.3144	1202.6177	1209.3433	1253.8551	1262.4375	1276.3385	1290.5333	1324.2673	1401.7499	1434.4767	1467.762	1495.1572	3031.0125	3071.7033	3079.6974	3100.8427	3132.813	3139.0996	3820.6481
OC1CC(C1)C(F)(F)F	O[C@H]1C[C@@H](C1)C(F)(F)F	
InChI=1S/C5H7F3O/c6-5(7,8)3-1-4(9)2-3/h3-4,9H,1-2H2	InChI=1S/C5H7F3O/c6-5(7,8)3-1-4(9)2-3/h3-4,9H,1-2H2/t3-,4-
