17
gdb 53135	2.82591	1.08138	0.92927	2.979	82.2	-0.2372	-0.0115	0.2257	1323.0537	0.134367	-384.657555	-384.648709	-384.647764	-384.692894	31.747	
C	 0.00114911	 1.4851741293	 0.0230206031	-0.500048
C	 0.0035007696	 0.0305989499	 0.0737239627	 0.092604
C	-0.0006968737	-1.1737273572	 0.1090679791	 0.075827
C	 0.0089004607	-2.6113337287	 0.1443971124	-0.213552
C	-0.4854497648	-3.4261559715	 1.3026281039	-0.068361
C	-1.6532231953	-2.7094097758	 1.9962175166	-0.365119
C	-2.4188340244	-2.8205243846	 0.6485078502	 0.424319
O	-3.5597298513	-2.6351788514	 0.3387948169	-0.310755
C	-1.2522256239	-3.4755860917	-0.0385593785	-0.196262
H	 0.5996278572	 1.8513557832	-0.8183520291	 0.151354
H	-1.0155002046	 1.8743740027	-0.0993995309	 0.155415
H	 0.4162027766	 1.9191568382	 0.9393975177	 0.148943
H	 0.8557450292	-3.0643508052	-0.3671029298	 0.122483
H	 0.109857727	-4.2183674726	 1.7368127501	 0.10785
H	-2.1535210507	-3.3152330055	 2.7569215283	 0.130488
H	-1.4572341336	-1.7090661363	 2.3880212454	 0.132716
H	-1.2894166282	-4.2297285328	-0.8149892282	 0.112099
22.2221	63.2746	105.0939	161.0267	257.1345	309.2663	387.332	444.4847	467.4203	527.1711	591.703	650.3884	740.5047	792.194	819.8585	847.6489	911.9515	957.4052	990.4961	1021.9657	1051.7915	1052.6819	1056.8628	1072.4798	1103.0508	1139.1103	1206.847	1223.5394	1282.8715	1308.1369	1404.9549	1415.0865	1453.4241	1476.4948	1478.0416	1888.518	2368.4771	3027.4365	3067.8309	3088.0506	3090.6583	3125.4622	3129.1868	3193.6221	3206.9386
CC#CC1C2CC(=O)C12	CC#C[C@H]1[C@H]2CC(=O)[C@@H]12	
InChI=1S/C8H8O/c1-2-3-5-6-4-7(9)8(5)6/h5-6,8H,4H2,1H3	InChI=1S/C8H8O/c1-2-3-5-6-4-7(9)8(5)6/h5-6,8H,4H2,1H3/t5-,6+,8-/m0/s1
