17
gdb 38882	2.82391	2.20208	1.94871	1.9012	64.72	-0.2429	0.0817	0.3246	795.5393	0.140534	-458.953197	-458.947638	-458.946693	-458.982816	24.451	
C	-0.0207298628	 1.5818326586	 0.0262786533	-0.232074
C	 1.5053806923	 1.7388226341	-0.0312061461	 0.030329
O	 1.7543900242	 1.0027337582	-1.2406689796	-0.249828
C	 1.3922707813	-0.2511736551	-0.6888453304	 0.165055
O	 2.3625164628	-0.4314907984	 0.319553285	-0.237677
C	 2.1257791619	 0.7677088259	 1.0772018662	 0.025211
C	 1.0791794289	 0.3359374392	 2.10714237	-0.088542
O	 0.0680939671	-0.3954969882	 1.403286514	-0.259901
C	-0.000434772	 0.035826765	 0.050268635	 0.044025
H	-0.5284658904	 1.9884716219	 0.9021838406	 0.11179
H	-0.4626379067	 2.001891193	-0.8784292368	 0.113487
H	 1.9348500634	 2.7372221862	-0.0875658556	 0.088288
H	 1.4383919552	-1.0507948475	-1.4252072637	 0.098781
H	 3.0583882486	 1.1242151652	 1.5158476424	 0.091755
H	 1.5242028301	-0.3509336045	 2.8324806053	 0.119856
H	 0.6509804031	 1.1878819483	 2.6556029728	 0.091741
H	-0.852061527	-0.4683177519	-0.4047428925	 0.087703
327.0415	332.7091	427.9587	506.7841	542.8508	607.5602	661.9251	704.3934	757.101	796.883	858.4046	877.3331	904.7623	913.9539	929.4639	950.7109	982.3898	987.3324	1040.4898	1055.3964	1058.7401	1087.4415	1100.7759	1171.1016	1196.9791	1230.0553	1244.531	1271.3567	1287.1947	1302.7251	1315.4177	1320.5425	1345.5399	1354.8239	1398.7474	1483.0604	1516.7151	2993.5548	3083.4772	3085.1362	3110.6753	3125.1717	3137.9281	3143.8251	3156.4763
C1C2OC3OC2COC13	C1[C@@H]2O[C@H]3O[C@@H]2CO[C@@H]13	
InChI=1S/C6H8O3/c1-3-5-2-7-4(1)6(8-3)9-5/h3-6H,1-2H2	InChI=1S/C6H8O3/c1-3-5-2-7-4(1)6(8-3)9-5/h3-6H,1-2H2/t3-,4-,5+,6-/m0/s1
