20
gdb 101136	3.52377	1.00145	0.93121	3.5496	74.93	-0.2493	0.0552	0.3045	1326.5483	0.17101	-440.232633	-440.223612	-440.222668	-440.266707	34.191	
O	 0.0099801311	 1.446104373	 0.173830138	-0.426026
C	-0.0016067953	 0.0391913765	 0.2757685229	-0.068206
C	-1.3786842751	-0.5236073278	-0.0922545088	-0.022911
O	-1.773694247	 0.0001784694	-1.3667674194	-0.439394
C	-1.4255887591	-2.0257117598	-0.0489158989	 0.350576
C	-0.8209014244	-3.0066424281	-1.076275136	-0.316522
C	-2.0054262852	-3.9880906004	-0.78501978	-0.23415
C	-2.5565020839	-2.9783192994	 0.2305375411	-0.0919
N	-1.5659419825	-2.665424855	 1.2555651542	-0.357621
H	-0.5199179359	 1.6487938285	-0.6084479276	 0.283524
H	 0.7633775559	-0.4183757767	-0.38030986	 0.067436
H	 0.2466174744	-0.2284658863	 1.3076164305	 0.121608
H	-2.1144878369	-0.1309830463	 0.6163924035	 0.107531
H	-1.1874350631	-0.3770985178	-2.0332932787	 0.281565
H	-0.8483473825	-2.6414363415	-2.1068391286	 0.100157
H	 0.1938637453	-3.3573124311	-0.8608748634	 0.102045
H	-2.6509828801	-4.1245663747	-1.6553570524	 0.114162
H	-1.7493472983	-4.9730163546	-0.3808259924	 0.102202
H	-3.598747099	-2.7800669535	 0.4535006551	 0.101349
H	-0.8985551482	-3.4203920243	 1.406102641	 0.224574
55.0689	119.742	123.2777	218.34	256.7195	305.0004	329.5765	345.9748	463.1029	491.545	515.5223	526.7722	727.6878	765.7793	787.4649	833.6701	879.9314	925.0191	949.9461	957.23	1016.9563	1049.4536	1062.1603	1076.2896	1088.6055	1104.0289	1129.4877	1175.0369	1200.6096	1213.9387	1229.6952	1248.2628	1271.0171	1283.7969	1293.2272	1322.2528	1376.6629	1397.0471	1440.7576	1456.4652	1475.8866	1499.5348	1509.5096	2922.6465	3042.1131	3051.2673	3072.4973	3083.907	3090.6941	3114.1315	3180.2832	3456.6091	3761.8373	3790.5619
OCC(O)C12CCC1N2	OC[C@@H](O)[C@]12CC[C@H]1N2	
InChI=1S/C6H11NO2/c8-3-5(9)6-2-1-4(6)7-6/h4-5,7-9H,1-3H2	InChI=1S/C6H11NO2/c8-3-5(9)6-2-1-4(6)7-6/h4-5,7-9H,1-3H2/t4-,5-,6+/m1/s1
