19
gdb 98905	4.27624	0.85346	0.81377	2.0405	72.3	-0.2611	-0.0331	0.2279	1442.5097	0.159304	-460.178792	-460.169713	-460.168769	-460.214657	32.215	
O	 0.1552438918	 1.3901171552	 0.0738742875	-0.418473
C	 0.0489726323	 0.0116408854	 0.2467783515	-0.137428
C	-1.3264972788	-0.5009113067	-0.1459655024	 0.339436
O	-2.1662064661	 0.2912017228	-0.5250836766	-0.33664
C	-1.5831528155	-1.9893825326	-0.0760568614	-0.086538
C	-2.9401161649	-2.3655685382	 0.5773786651	-0.258112
C	-3.5222762489	-3.4465913083	-0.3715152677	-0.076565
O	-2.4808348233	-3.7942874756	-1.2754502317	-0.235879
C	-1.7313120275	-2.6195952244	-1.4882779904	-0.098478
H	-0.7195805356	 1.6702709768	-0.2412198438	 0.294607
H	 0.8024303318	-0.5308966434	-0.3503835798	 0.1174
H	 0.2279446035	-0.2831137377	 1.2961317275	 0.118065
H	-0.7558132864	-2.482861096	 0.4423071902	 0.086201
H	-2.7935213284	-2.7440194651	 1.5909357495	 0.115444
H	-3.5932960212	-1.4925458521	 0.6274547125	 0.132321
H	-3.8333196658	-4.3592452587	 0.1425631791	 0.113627
H	-4.3866114561	-3.0464929894	-0.9216867631	 0.102657
H	-2.2612346532	-1.9149279279	-2.1487280756	 0.110327
H	-0.7801708077	-2.8981497443	-1.9479766905	 0.118027
22.4005	44.3617	114.7741	183.8758	212.9911	265.8385	318.9002	361.3273	431.2502	559.7464	577.4211	690.4953	737.3875	813.1973	878.1031	919.8815	931.9653	960.5695	972.9367	1013.913	1062.084	1089.577	1110.4837	1137.4621	1156.539	1232.1149	1241.7613	1243.4816	1280.1739	1300.0433	1303.2595	1313.2996	1356.2833	1377.8681	1399.3349	1450.8686	1486.586	1491.0692	1506.5434	1526.3111	1786.4444	2958.5024	2973.0484	2983.782	2997.3462	3062.4699	3077.8581	3095.1287	3104.9322	3131.6708	3678.6601
OCC(=O)C1CCOC1	OCC(=O)[C@H]1CCOC1	
InChI=1S/C6H10O3/c7-3-6(8)5-1-2-9-4-5/h5,7H,1-4H2	InChI=1S/C6H10O3/c7-3-6(8)5-1-2-9-4-5/h5,7H,1-4H2/t5-/m0/s1
