21
gdb 121349	2.7044	1.00983	0.81561	1.3032	75.03	-0.2523	0.0819	0.3342	1452.6095	0.181857	-461.359858	-461.350061	-461.349117	-461.395367	35.075	
C	-0.4509878988	 1.4872074069	-0.134079711	-0.418558
C	 0.1646668152	 0.1025502765	-0.0846176209	 0.093755
O	 1.3923459159	 0.093788754	-0.8125995884	-0.246758
C	 2.0233525782	-1.0907726495	-0.4160680879	 0.022517
O	 1.7196547184	-1.2947996001	 0.9532690563	-0.27856
C	 0.6027997392	-0.4578531839	 1.2924739088	 0.098306
C	 1.0306734312	 0.5813079906	 2.3253056984	-0.183256
C	 1.5867137692	-0.0555866532	 3.5927528621	-0.080682
O	 1.9078803339	 0.993919683	 4.495279579	-0.42447
H	 0.229261634	 2.2371870885	 0.2752365261	 0.136365
H	-0.6774054746	 1.7561728277	-1.1691495504	 0.129132
H	-1.3845626558	 1.5108357764	 0.4362150795	 0.122274
H	-0.5269019202	-0.6246115479	-0.5432004698	 0.070728
H	 1.6570057078	-1.9508461177	-1.0060511793	 0.082204
H	 3.1048309977	-0.9806843393	-0.5486964992	 0.114025
H	-0.1868431112	-1.0956967084	 1.7122894033	 0.075968
H	 1.7925051932	 1.2397640793	 1.8943941695	 0.114195
H	 0.1716437327	 1.2050838924	 2.599398435	 0.103231
H	 0.8345811217	-0.7363742212	 4.0266650262	 0.078845
H	 2.4692681839	-0.6588518998	 3.3408766835	 0.105875
H	 2.3343527684	 0.6056080757	 5.2644756491	 0.284863
46.8993	101.7699	117.2388	135.9758	196.2845	236.2576	260.0142	267.4923	340.0512	376.913	479.3267	522.078	694.8211	743.9327	799.7461	858.3011	887.992	930.3944	989.2776	1018.8432	1046.901	1073.6217	1080.0527	1116.8426	1127.1292	1151.0835	1162.7338	1187.702	1219.7306	1234.6702	1240.3175	1301.0335	1313.3921	1338.8253	1353.3341	1387.0826	1404.895	1421.12	1432.859	1459.607	1481.6575	1485.9695	1505.7302	1530.3281	1545.6529	2932.937	2954.113	2957.4126	3013.7121	3026.3115	3038.9082	3050.9484	3067.2228	3090.3631	3119.8379	3136.2185	3832.0443
CC1OCOC1CCO	C[C@H]1OCO[C@H]1CCO	
InChI=1S/C6H12O3/c1-5-6(2-3-7)9-4-8-5/h5-7H,2-4H2,1H3	InChI=1S/C6H12O3/c1-5-6(2-3-7)9-4-8-5/h5-7H,2-4H2,1H3/t5-,6+/m1/s1
