19
gdb 92386	2.2036	1.63245	1.26064	1.8079	82.85	-0.2209	0.0269	0.2478	1095.2425	0.159051	-381.985508	-381.976869	-381.975925	-382.018401	33.743	
C	-0.7244152811	 1.2991468753	 0.1092108423	-0.393454
C	 0.0179312337	-0.0043600464	-0.1010551324	 0.023494
N	 1.2269757412	 0.0771417217	-0.9777413563	-0.339597
C	 2.0452151664	-0.7054785686	-0.027156481	-0.077682
C	 2.9251113673	 0.1785300839	 0.8790620587	-0.152818
N	 1.7316012552	 0.5108246318	 1.7105358068	-0.358624
C	 0.9176323096	-0.5563485429	 1.0553518134	 0.180778
C	 0.410161438	-1.5994426936	 1.9029353268	 0.19958
C	-0.0163676878	-2.4631055605	 2.6252710634	-0.428218
H	-0.0481221527	 2.0470871192	 0.5281531058	 0.139545
H	-1.1194747139	 1.6711810535	-0.841921096	 0.110273
H	-1.5672386585	 1.1573228301	 0.7947860527	 0.111272
H	-0.6703846129	-0.8002332562	-0.4169531271	 0.068742
H	 1.1079509345	-0.3665028345	-1.880455947	 0.218958
H	 2.437924822	-1.6618554534	-0.3751299391	 0.080849
H	 3.6919162428	-0.3987756209	 1.4113877821	 0.094295
H	 3.3836330871	 1.0462977536	 0.3958335488	 0.108184
H	 1.858056864	 0.3549603893	 2.7034541456	 0.223179
H	-0.393608855	-3.2273661713	 3.2587516126	 0.191243
112.153	125.9163	170.876	206.1062	247.9159	340.5258	374.1523	468.2225	500.4254	522.4639	590.7378	613.8161	619.4704	640.2457	687.3391	752.705	848.4152	874.9006	929.7901	965.2115	980.6351	999.6324	1049.8515	1075.9235	1090.9436	1116.598	1142.0418	1148.8323	1184.6075	1201.1096	1253.1393	1316.0671	1329.9753	1375.7358	1382.7473	1398.0505	1409.6918	1481.0262	1494.8329	1496.924	2224.7525	3004.5324	3015.6083	3035.9972	3085.444	3098.1615	3099.1168	3136.0914	3500.5912	3545.2069	3550.1435
CC1NC2CNC12C#C	C[C@H]1N[C@H]2CN[C@@]12C#C	
InChI=1S/C7H10N2/c1-3-7-5(2)9-6(7)4-8-7/h1,5-6,8-9H,4H2,2H3	InChI=1S/C7H10N2/c1-3-7-5(2)9-6(7)4-8-7/h1,5-6,8-9H,4H2,2H3/t5-,6+,7+/m1/s1
