16
gdb 46527	3.79341	1.27638	1.11884	6.1468	65.65	-0.2749	0.0406	0.3155	1079.9052	0.125698	-475.031109	-475.023474	-475.022529	-475.064054	28.136	
O	-0.0881500769	 0.361460293	 0.9392870091	-0.357565
C	-0.0691606453	 1.2869524575	 0.1868518929	 0.482725
O	-1.2254646037	 1.8686351258	-0.2184262297	-0.253836
C	-1.2212948415	 2.8563696143	-1.2585043472	-0.145021
C	-0.0478530517	 3.7724373275	-1.0783078325	 0.261563
C	-0.0919659231	 5.1754321139	-1.5475932671	-0.292305
N	-0.1129440517	 4.8737939887	-0.106591137	-0.33367
C	 1.2201094253	 2.9680578304	-1.0805647083	-0.103409
O	 1.1000419707	 1.7806185222	-0.2734046083	-0.262641
H	-1.1854366136	 2.353164378	-2.2340384826	 0.124916
H	-2.1777902031	 3.3794239627	-1.1757584026	 0.12224
H	 0.8143501734	 5.6579056142	-1.9033937821	 0.131535
H	-1.0038925752	 5.5200032617	-2.0296300321	 0.122814
H	-1.0552695601	 4.9692820122	 0.2657728222	 0.241323
H	 1.4782064979	 2.6475870836	-2.0972764109	 0.120906
H	 2.0496367688	 3.5428363743	-0.6638328237	 0.140425
62.7531	79.2965	182.8493	269.219	362.72	370.8041	463.2933	479.1596	583.93	679.1147	762.0521	799.6994	804.7124	889.9994	934.2331	950.8966	957.5786	1001.9944	1040.4737	1085.2024	1098.6845	1144.4524	1155.0176	1168.6394	1244.3178	1260.0669	1265.6061	1357.3839	1376.5146	1423.183	1450.6883	1501.7336	1510.3023	1518.3193	1883.4058	3018.6974	3035.6483	3094.9906	3106.5069	3114.5515	3190.8288	3495.387
O=C1OCC2(CN2)CO1	O=C1OCC2(CN2)CO1	
InChI=1S/C5H7NO3/c7-4-8-2-5(1-6-5)3-9-4/h6H,1-3H2	InChI=1S/C5H7NO3/c7-4-8-2-5(1-6-5)3-9-4/h6H,1-3H2
