16
gdb 17986	3.86938	1.83608	1.54289	3.6268	67.95	-0.2327	0.0069	0.2395	848.9663	0.13241	-342.749197	-342.742328	-342.741384	-342.780902	25.752	
N	 0.1301322036	-1.1429160514	 0.3553344972	-0.331336
C	 0.0553480445	-0.0009018297	 0.1877557512	 0.280846
C	-0.0268051712	 1.4411173566	-0.0045837671	-0.09693
C	-0.4639598926	 2.2960979985	 1.2291190712	-0.276966
C	 0.868646719	 3.0595639266	 1.0644732047	 0.051967
C	 2.0767331583	 2.5643932458	 1.8875294017	-0.248436
C	 2.4084166243	 1.635971792	 0.686793312	-0.181106
N	 1.2725930589	 2.1969229482	-0.123335204	-0.145206
H	-0.640337778	 1.6278173133	-0.8916103441	 0.132517
H	-1.3698066416	 2.8803377652	 1.0607936224	 0.122562
H	-0.5678776688	 1.739627101	 2.1626811925	 0.12809
H	 0.790785574	 4.1351421312	 0.8877543997	 0.084698
H	 2.8281615627	 3.3307126106	 2.0870744757	 0.114288
H	 1.8294420803	 2.065274915	 2.8278561585	 0.112336
H	 3.3653104507	 1.8374329327	 0.1988225124	 0.117586
H	 2.3391766159	 0.5613862344	 0.8766659359	 0.13509
43.2989	164.3029	213.1614	335.4224	372.5182	522.045	559.1159	675.8824	712.7165	759.2171	789.463	861.5696	899.0279	923.4172	938.4948	979.4526	1030.7933	1045.8709	1085.5988	1102.0641	1153.1496	1191.3529	1215.6003	1232.1582	1255.0173	1257.3563	1274.8841	1311.803	1338.4329	1359.0069	1478.5964	1489.3731	1511.3618	2347.1087	3054.6126	3058.2627	3065.6464	3072.4853	3078.604	3101.9199	3124.8443	3136.27
N#CC1CC2CCN12	N#C[C@H]1C[C@H]2CCN12	
InChI=1S/C6H8N2/c7-4-6-3-5-1-2-8(5)6/h5-6H,1-3H2	InChI=1S/C6H8N2/c7-4-6-3-5-1-2-8(5)6/h5-6H,1-3H2/t5-,6-/m1/s1
