17
gdb 71761	3.41097	1.86816	1.5682	2.0619	69.58	-0.2397	0.0626	0.3023	864.7699	0.137891	-421.761525	-421.755306	-421.754362	-421.791686	26.718	
O	-0.0901180133	 1.4353711069	 0.0858318018	-0.484253
C	 0.0008970628	 0.0492292663	 0.0774827346	 0.399759
C	 0.4910592307	-0.8050732715	 1.2659968422	-0.316987
C	-0.3190772274	-1.9245122057	 0.5610437658	-0.060325
C	 0.399678149	-2.1888377025	-0.781511586	 0.088825
O	-0.6532888088	-2.4876360138	-1.7334074106	-0.300916
C	-1.0032451611	-1.0985239781	-1.5926072867	 0.089425
C	-1.2742782151	-0.8348734045	-0.0710587138	-0.115002
C	 0.4489565076	-0.6863832443	-1.2300389652	-0.171464
H	 0.7918676083	 1.8011083503	-0.0446941491	 0.280288
H	 1.5668947533	-0.9589571552	 1.4095548555	 0.086693
H	 0.0316814414	-0.483547382	 2.204777425	 0.108699
H	-0.7041386701	-2.788471566	 1.0982880333	 0.078016
H	 1.2401725306	-2.881015083	-0.8196037345	 0.081409
H	-1.6437254073	-0.6993410264	-2.3766963022	 0.086277
H	-2.236755416	-0.613512372	 0.3822129424	 0.077356
H	 1.2026374053	-0.3278593385	-1.9288768325	 0.072198
232.7592	278.1303	321.51	388.424	484.2972	533.4604	582.7727	706.8155	738.8093	799.4556	821.1353	852.7319	867.2166	879.4619	894.4463	923.483	936.8163	953.2812	971.0718	1019.5247	1025.1363	1070.5908	1077.1893	1120.5002	1125.7128	1157.8664	1180.0651	1201.095	1211.8119	1220.3554	1240.2824	1281.5026	1282.8874	1308.4829	1327.9427	1383.2577	1496.0957	3033.6232	3102.7367	3122.967	3132.0189	3140.3608	3142.9213	3159.7413	3796.2067
OC12CC3C4OC(C13)C24	O[C@@]12C[C@@H]3[C@H]4O[C@@H]([C@H]13)[C@@H]24	
InChI=1S/C7H8O2/c8-7-1-2-3(7)6-4(7)5(2)9-6/h2-6,8H,1H2	InChI=1S/C7H8O2/c8-7-1-2-3(7)6-4(7)5(2)9-6/h2-6,8H,1H2/t2-,3+,4-,5+,6-,7-/m0/s1
