19
gdb 105853	2.06121	1.62233	1.27351	2.6988	77.81	-0.2288	0.0166	0.2454	1111.5151	0.158386	-419.160049	-419.150883	-419.149939	-419.193938	33.882	
C	 0.0373110861	 1.3628961284	 0.1879860877	-0.265171
O	 0.0234299758	-0.0193605832	-0.161283992	-0.276909
C	-1.2305875624	-0.5632163512	-0.1402159262	 0.350746
C	-1.8852712442	-1.1109502534	 1.1381767565	-0.079039
C	-3.2527831966	-0.7452042757	 1.6690488734	-0.422785
C	-1.6222505015	-2.0267078653	-0.0337858323	-0.129312
N	-2.5880280773	-1.8375921273	-1.1282402509	-0.343142
C	-2.276784869	-0.4499085001	-1.2229040519	 0.299735
N	-2.6696089844	 0.5103898459	-1.9414766417	-0.553184
H	 1.0753615124	 1.6927907613	 0.1137545032	 0.127577
H	-0.585682269	 1.9476710572	-0.4976716908	 0.150021
H	-0.3177289277	 1.5139372708	 1.216974826	 0.107457
H	-1.1181053225	-1.2238925338	 1.903923813	 0.101647
H	-3.9835419427	-0.6215558736	 0.8650861744	 0.119629
H	-3.6274445856	-1.5176422817	 2.3498772765	 0.120559
H	-3.2164588264	 0.1985244729	 2.2222807376	 0.128701
H	-0.9855902416	-2.901816431	-0.0108717301	 0.116971
H	-3.5542676656	-2.123831943	-1.0019719822	 0.231104
H	-3.4084329179	 0.219066893	-2.5853558902	 0.215394
78.1642	129.4858	160.7728	170.9246	175.3983	254.3836	304.5558	328.9361	416.3366	472.8583	552.1103	632.098	671.6715	716.0797	782.3561	797.6848	866.1577	914.7041	932.0765	988.2322	994.5657	1054.3355	1057.1915	1096.7314	1108.8403	1130.6615	1182.1495	1196.7368	1228.9955	1271.3653	1288.6902	1328.4481	1358.1607	1418.0027	1438.8822	1486.1275	1490.1695	1495.1368	1503.8518	1509.2116	1795.3853	3003.568	3034.8364	3078.5362	3096.2469	3108.5383	3127.3633	3132.136	3199.6447	3450.3668	3513.6902
COC12C(C)C1NC2=N	CO[C@]12[C@@H](C)[C@H]1N[C]2[NH]	
InChI=1S/C6H10N2O/c1-3-4-6(3,9-2)5(7)8-4/h3-4H,1-2H3,(H2,7,8)	InChI=1S/C6H10N2O/c1-3-4-6(3,9-2)5(7)8-4/h3-4H,1-2H3,(H2,7,8)/t3-,4+,6+/m0/s1
