15
gdb 76542	2.81346	1.27473	1.19867	1.8598	64.39	-0.2422	-0.0389	0.2033	1075.5278	0.110194	-494.855392	-494.847074	-494.84613	-494.888539	30.624	
O	 0.0553418532	 1.2808472497	 0.146270658	-0.427634
C	 0.1268241602	-0.1135389949	 0.1333148348	-0.048185
C	-0.4768034314	-0.7760224825	 1.3430762116	 0.035474
O	-0.9321370194	 0.0195533574	 2.3715171533	-0.415342
C	-1.2302876059	-0.7890282699	 0.0110261128	 0.246919
O	-2.3606898126	 0.052879129	-0.2411728269	-0.328729
C	-2.9577173328	-0.9310797515	-1.1343977812	-0.186667
C	-1.7548686676	-1.8612356848	-0.8811134033	 0.265613
O	-1.4061227392	-2.9474847056	-1.2360285294	-0.294542
H	-0.7453120816	 1.5294482222	-0.3400805374	 0.309235
H	 0.9931362735	-0.5317365172	-0.3728939143	 0.123504
H	-0.0826478296	-1.735220489	 1.6671944986	 0.133129
H	-0.7521180931	 0.9334808781	 2.1022543965	 0.297698
H	-3.9221044223	-1.2912762057	-0.7625977643	 0.147996
H	-3.0594138116	-0.5575066453	-2.1584914088	 0.141531
103.0286	106.2535	148.0843	231.3445	236.2262	311.576	346.9218	494.2979	540.6658	573.8387	589.4809	623.1929	678.2994	759.7911	774.3319	859.8502	956.665	986.5918	1014.6168	1039.9885	1066.5722	1135.306	1138.2275	1156.9388	1180.9552	1251.139	1292.5116	1319.6784	1366.6261	1374.3073	1446.097	1478.4836	1909.0852	3046.0976	3105.1351	3140.5344	3157.3603	3711.0225	3718.293
OC1C(O)C11OCC1=O	O[C@H]1[C@@H](O)[C@]21OCC2=O	
InChI=1S/C5H6O4/c6-2-1-9-5(2)3(7)4(5)8/h3-4,7-8H,1H2	InChI=1S/C5H6O4/c6-2-1-9-5(2)3(7)4(5)8/h3-4,7-8H,1H2/t3-,4+,5-
