18
gdb 45597	2.85601	1.52737	1.1858	4.2757	71.71	-0.2464	0.0277	0.2741	1057.9544	0.150473	-439.10958	-439.102067	-439.101122	-439.141911	29.03	
O	-0.1134624545	 0.0093163625	 0.1455225582	-0.36078
C	-0.0625238986	 1.2048089373	 0.0456744853	 0.424002
N	-1.0236972331	 2.1828553709	-0.0802521954	-0.328456
C	-0.1015250977	 3.3195091876	 0.0921023748	 0.01661
C	-0.2256411035	 4.0535591232	 1.4451349514	-0.221682
C	 1.1029549661	 4.0707761799	 2.2060155536	-0.075302
O	 1.6222402356	 2.7611960912	 2.3390810995	-0.23754
C	 2.1170450874	 2.2735834033	 1.1067979197	-0.10797
C	 1.0626348401	 2.2685051352	 0.0037456195	-0.186523
H	-2.0220607618	 2.1299664378	 0.0688649909	 0.246337
H	-0.1354580776	 4.0213113048	-0.7461246002	 0.086464
H	-0.5899530679	 5.0766834466	 1.3023819433	 0.100308
H	-0.9598476095	 3.5282755115	 2.0641787465	 0.113344
H	 1.836487692	 4.7204351044	 1.6982144862	 0.087246
H	 0.9602428326	 4.4571122444	 3.2191835018	 0.113026
H	 2.9806578881	 2.8818634972	 0.7898870304	 0.090199
H	 2.4683193787	 1.2532372425	 1.2875488933	 0.133487
H	 1.5467629937	 2.2672650397	-0.9768748389	 0.10723
85.8656	103.1683	202.0486	357.4609	382.9443	422.0852	467.2108	480.3919	509.3772	639.7263	709.5183	766.6578	787.488	810.6433	878.3164	922.4048	969.5151	1008.4254	1059.4071	1062.0887	1083.6729	1118.8088	1152.2962	1170.527	1191.7428	1243.8854	1272.0226	1281.5777	1320.3696	1330.8056	1355.3755	1367.1554	1384.1089	1401.1088	1425.6835	1478.6589	1489.8269	1503.1802	1895.8507	2959.9032	2966.0896	3041.2605	3056.4108	3078.9669	3085.3088	3087.1438	3093.0667	3590.582
O=C1NC2CCOCC12	O=C1N[C@H]2CCOC[C@@H]12	
InChI=1S/C6H9NO2/c8-6-4-3-9-2-1-5(4)7-6/h4-5H,1-3H2,(H,7,8)	InChI=1S/C6H9NO2/c8-6-4-3-9-2-1-5(4)7-6/h4-5H,1-3H2,(H,7,8)/t4-,5+/m1/s1
