18
gdb 12640	3.20312	1.89752	1.27829	3.0641	74.94	-0.2332	-0.037	0.1962	983.7296	0.153384	-347.859415	-347.851085	-347.850141	-347.892447	30.283	
C	-0.14701732	 1.5533799386	 0.0263712251	-0.396984
C	 0.064320681	 0.0383077238	-0.0245431175	-0.084905
C	 0.8481171515	-0.4945329906	-1.2442141837	-0.28474
C	 1.9339259189	-1.3531441325	-0.6465832736	-0.152048
C	 1.9535741414	-1.3490925123	 0.6941148407	 0.212388
C	 2.8793130566	-2.0465058221	 1.6362679208	-0.492082
C	 0.8627332114	-0.469966784	 1.1888542607	 0.326492
O	 0.6396279243	-0.191043706	 2.3465497097	-0.341951
H	 0.8064833197	 2.0852514048	-0.064944174	 0.117108
H	-0.8014653779	 1.8915571138	-0.7826266927	 0.112619
H	-0.5969241305	 1.8334585574	 0.9825574307	 0.139859
H	-0.9158780167	-0.4526154961	 0.0274851027	 0.104703
H	 0.220469899	-1.0663129676	-1.9383779384	 0.114585
H	 1.2827246071	 0.3224768814	-1.8358674241	 0.116951
H	 2.6315916333	-1.9046057795	-1.2702251294	 0.104366
H	 3.6448335676	-2.6192593209	 1.1068515235	 0.119206
H	 3.3717750676	-1.3229373646	 2.2948127738	 0.143462
H	 2.3235359957	-2.7262985136	 2.291581536	 0.140972
55.1509	102.6114	214.7198	224.6034	237.7578	258.989	323.7151	416.0788	511.5005	565.9655	672.3147	709.4976	776.4392	838.9479	888.5272	930.122	949.2631	1011.1232	1028.3897	1064.0946	1077.2711	1112.6958	1126.3436	1194.4118	1230.804	1277.5552	1310.8541	1330.5355	1351.8892	1404.2776	1413.7689	1473.2486	1479.3567	1484.7939	1496.0042	1499.9602	1699.8885	1801.6517	3019.1615	3026.6388	3035.1496	3036.5562	3052.3508	3090.4415	3102.0595	3121.3008	3121.9238	3177.0015
CC1CC=C(C)C1=O	C[C@H]1CC=C(C)C1=O	
InChI=1S/C7H10O/c1-5-3-4-6(2)7(5)8/h3,6H,4H2,1-2H3	InChI=1S/C7H10O/c1-5-3-4-6(2)7(5)8/h3,6H,4H2,1-2H3/t6-/m0/s1
