19
gdb 46538	3.70788	1.14988	1.05213	4.5068	74.75	-0.2616	0.0147	0.2763	1189.2745	0.160793	-423.066013	-423.058207	-423.057263	-423.098664	30.167	
O	-0.2994851247	 0.302136142	-1.0935669617	-0.33473
C	-0.202459592	 1.3111488369	-0.4596786044	 0.432591
C	-1.1973652645	 1.9249101634	 0.5213559645	-0.431055
C	-0.7363221929	 3.3801410151	 0.6427352771	 0.323189
C	-1.5532120789	 4.3800083578	-0.2370802403	-0.26437
C	-2.3125765475	 4.8313507889	 1.0389939182	-0.209397
C	-1.1975426035	 4.1716432294	 1.8954452262	-0.28738
C	 0.7627003133	 3.2304659703	 0.3674008441	-0.147212
O	 0.9012358456	 2.1088013554	-0.5209007219	-0.219005
H	-2.2200320586	 1.7854354352	 0.1676210739	 0.137434
H	-1.0991653474	 1.389411757	 1.4745881693	 0.134013
H	-0.9176172545	 5.1748028573	-0.638590181	 0.103582
H	-2.1393799521	 3.9578118557	-1.0572739367	 0.109263
H	-2.4761074225	 5.9026060391	 1.1701320161	 0.10508
H	-3.2719752451	 4.3198359511	 1.1513657109	 0.110351
H	-1.499830678	 3.5859512987	 2.7677491828	 0.102117
H	-0.4421072251	 4.8985275934	 2.2120767629	 0.103894
H	 1.2047650916	 4.1023553783	-0.1214174104	 0.120242
H	 1.3224865266	 3.0226757251	 1.2893403906	 0.111392
84.5645	111.1641	168.8852	259.24	352.988	368.4282	438.2809	508.26	564.3024	666.9508	702.6243	764.1225	798.727	844.0488	879.1013	916.4654	933.7332	941.6293	953.771	982.8707	1053.2741	1071.732	1102.3285	1125.8867	1179.7909	1195.0867	1207.5707	1216.6506	1255.1748	1259.2581	1276.1785	1285.5873	1301.0535	1314.8738	1395.3082	1460.6573	1478.1885	1486.5459	1507.2611	1517.5704	1886.4872	3016.4619	3036.0712	3045.1835	3054.1621	3067.3937	3095.4288	3096.8725	3104.6202	3122.1201	3125.183
O=C1CC2(CCC2)CO1	O=C1CC2(CCC2)CO1	
InChI=1S/C7H10O2/c8-6-4-7(5-9-6)2-1-3-7/h1-5H2	InChI=1S/C7H10O2/c8-6-4-7(5-9-6)2-1-3-7/h1-5H2
