12
gdb 46177	1.89757	1.66898	1.32198	5.0047	65.5	-0.299	-0.0822	0.2168	1006.6085	0.076474	-431.659634	-431.651503	-431.650558	-431.692841	28.378	
O	-0.0107335744	 0.0174098207	-0.1699495916	-0.220838
C	-0.0636001528	 1.1832685949	-0.0036714688	 0.377045
C	-1.1150023711	 2.2429014456	 0.3114840823	-0.27488
N	-0.0217490164	 3.2115496451	 0.5744411937	-0.329348
C	 1.0463335136	 2.3557302748	 0.007887261	-0.102544
C	 2.1943474358	 2.1418594299	 0.8854175659	 0.305917
N	 3.0781460577	 1.9367891782	 1.5999984634	-0.307366
C	 1.4520573405	 2.6916267142	-1.3579798311	 0.272157
N	 1.6965418677	 2.9803442458	-2.4504351019	-0.306955
H	-1.7451226169	 2.4522151621	-0.5636787869	 0.160364
H	-1.7552944811	 2.0365948366	 1.1742731076	 0.167076
H	-0.1087293127	 4.1196117622	 0.1340020465	 0.259371
93.3995	117.955	124.5806	161.7553	245.8627	363.4539	403.734	496.5539	541.1186	560.5667	586.5627	602.6399	676.7922	764.181	919.2405	980.3907	1008.9426	1036.3631	1075.1694	1135.6471	1174.7804	1288.0115	1374.8093	1475.4712	1963.9591	2348.2259	2364.1022	3023.5852	3092.4371	3567.745
O=C1CNC1(C#N)C#N	O=C1CNC1(C#N)C#N	
InChI=1S/C5H3N3O/c6-2-5(3-7)4(9)1-8-5/h8H,1H2	InChI=1S/C5H3N3O/c6-2-5(3-7)4(9)1-8-5/h8H,1H2
