22
gdb 18161	3.39037	1.45516	1.27605	0.1865	81.82	-0.2454	0.0833	0.3286	1095.1606	0.200687	-313.04578	-313.03722	-313.036276	-313.078536	32.957	
C	 0.2582154787	 1.7917666691	-0.1553477538	-0.37753
C	 0.0449484325	 0.2738354513	-0.139157813	-0.201162
C	 0.9091368422	-0.4520295969	-1.1687753667	 0.060653
C	 2.4683672705	-0.5423886918	-1.0138468017	-0.2648
C	 2.3911455218	-2.0549994708	-1.2706569388	-0.072733
C	 1.5644542393	-2.7574860607	-0.2305786509	 0.020054
C	 1.5910165859	-2.4862359009	 1.260809161	-0.418548
C	 0.8539746777	-1.9815825769	-1.3135624076	-0.113594
H	 1.2981656557	 2.0494380768	 0.0742646419	 0.116281
H	 0.0250062908	 2.213325022	-1.1397999941	 0.111112
H	-0.3775617896	 2.2938165913	 0.5806522838	 0.109419
H	 0.2386935164	-0.1120444762	 0.866691722	 0.096908
H	-1.0096842811	 0.0502877104	-0.3498143982	 0.091679
H	 0.6985997674	-0.0130538431	-2.1517835732	 0.069516
H	 3.0031815794	 0.00330938	-1.7938353146	 0.099234
H	 2.884809373	-0.2416683336	-0.0461861927	 0.092418
H	 3.0590729673	-2.5958931001	-1.9310442311	 0.078685
H	 1.4991287308	-3.8238807387	-0.4461022662	 0.081812
H	 1.8275732089	-1.4477875534	 1.5003129708	 0.121295
H	 0.6271535557	-2.7229719639	 1.7250520417	 0.114548
H	 2.3523431277	-3.1103719727	 1.7427230499	 0.110494
H	 0.1771629388	-2.4929327312	-1.9903438685	 0.074261
92.0834	128.7832	176.9152	216.2221	242.6434	265.5977	334.0379	398.6309	445.8202	578.4208	687.3963	713.7419	774.9275	788.2663	821.7594	876.3502	929.1733	952.0964	975.2115	996.0224	1011.6657	1018.5077	1060.2989	1065.5961	1083.9612	1120.46	1136.4621	1150.3317	1200.3923	1218.161	1245.2287	1270.838	1293.1416	1300.7069	1334.1753	1360.3353	1398.0118	1411.0524	1414.6649	1447.8081	1482.8027	1491.5719	1498.878	1499.172	1505.4829	1510.0766	3018.6588	3021.9576	3028.1795	3031.3281	3041.0519	3072.685	3084.3653	3097.0063	3100.5448	3103.3462	3105.6738	3132.0797	3155.7947	3174.7239
CCC1CC2C(C)C12	CC[C@H]1C[C@H]2[C@@H](C)[C@@H]12	
InChI=1S/C8H14/c1-3-6-4-7-5(2)8(6)7/h5-8H,3-4H2,1-2H3	InChI=1S/C8H14/c1-3-6-4-7-5(2)8(6)7/h5-8H,3-4H2,1-2H3/t5-,6+,7+,8+/m1/s1
