19
gdb 51838	3.22611	1.01329	0.81805	4.3967	76.04	-0.2403	-0.0278	0.2125	1391.4489	0.158371	-423.073437	-423.064459	-423.063514	-423.108489	32.288	
O	-0.835192239	 1.1343526083	 0.939596342	-0.243414
C	-0.1228966333	 1.0917510531	-0.0321316601	 0.140869
C	 1.2659096025	 1.7044249756	-0.0791218207	-0.295397
C	 1.4403133258	 2.7339717918	-1.2089822575	-0.093707
C	 2.6955360408	 3.621324852	-1.1242865286	-0.233158
C	 2.8644024057	 4.1656013083	-2.5589677275	-0.223208
C	 2.4930934987	 2.9722623276	-3.4551912081	-0.309843
C	 1.5304068283	 2.1257206083	-2.617152573	 0.399032
O	 0.9645526737	 1.1274908749	-2.9878160576	-0.317076
H	-0.4444149928	 0.5968283982	-0.9701400727	 0.110712
H	 1.4603705323	 2.1656489304	 0.8937497591	 0.119556
H	 1.989603197	 0.8905514245	-0.224758947	 0.121871
H	 0.5610965749	 3.398120556	-1.2314061383	 0.113667
H	 2.6055962477	 4.4104503366	-0.373889427	 0.111535
H	 3.5620817964	 3.0057586036	-0.8499282173	 0.107364
H	 2.1654073711	 4.9934444858	-2.7240264098	 0.110648
H	 3.8695908591	 4.5484432637	-2.7492456121	 0.109407
H	 2.0468651445	 3.232624129	-4.4183203174	 0.133783
H	 3.3667411565	 2.3448177822	-3.6735164366	 0.137361
44.3254	69.4124	88.47	171.1329	204.2334	285.7963	337.7967	418.807	506.2902	549.5586	578.7355	612.6157	709.0525	803.3061	839.8294	891.9073	918.5091	948.0528	992.4259	1000.6748	1024.6123	1063.008	1119.2536	1152.9862	1165.2707	1185.8555	1212.1543	1236.0419	1280.2424	1299.6299	1320.8796	1331.1074	1340.9216	1358.9493	1418.3889	1445.9475	1460.6668	1494.178	1505.5563	1825.6506	1834.147	2946.1249	2983.453	3021.7979	3030.6797	3039.4658	3046.2676	3094.2734	3098.723	3101.1474	3108.5401
O=CCC1CCCC1=O	O=CC[C@H]1CCCC1=O	
InChI=1S/C7H10O2/c8-5-4-6-2-1-3-7(6)9/h5-6H,1-4H2	InChI=1S/C7H10O2/c8-5-4-6-2-1-3-7(6)9/h5-6H,1-4H2/t6-/m1/s1
