18
gdb 70401	2.40918	1.54475	1.36383	3.7602	75.9	-0.2428	0.0247	0.2676	1037.3788	0.148528	-398.100819	-398.092133	-398.091189	-398.133504	33.865	
N	-0.0478987914	 1.4308788791	-0.1873475185	-0.600394
C	-0.0522245043	 0.0247965358	-0.0122788689	 0.336578
C	-0.4145607346	-0.8732151217	-1.1652701377	-0.332829
C	-1.2490923631	-0.9277813993	 0.0832190858	-0.062606
C	-0.5325186314	-1.791263784	 1.1211687363	-0.293776
C	 0.7073142538	-0.7908380411	 1.0763237013	 0.064116
N	 2.0541972769	-1.2089043984	 0.7291157121	-0.567879
C	 0.7640476165	-0.0162618963	 2.3196926101	 0.28277
N	 0.7761822365	 0.6135527982	 3.289228041	-0.347781
H	-0.1301366867	 1.9135817028	 0.703101338	 0.246599
H	 0.8119691808	 1.7439093175	-0.6280466323	 0.240547
H	-0.8484116736	-0.3282377003	-1.9961238882	 0.13129
H	 0.1948249622	-1.7261107737	-1.4569993715	 0.098724
H	-2.301602567	-0.6784924678	 0.0884103246	 0.10151
H	-1.0160408418	-1.8250476404	 2.0984607533	 0.127574
H	-0.2857585762	-2.8105938775	 0.8061301061	 0.099637
H	 2.4509946517	-1.8063567662	 1.4480232861	 0.240702
H	 2.0369521118	-1.7397112967	-0.1351094677	 0.235218
128.2425	130.9972	212.5542	237.594	267.8757	298.7528	354.1818	377.2926	445.3114	468.9726	539.4735	560.2213	654.5345	672.0448	781.1274	815.1315	846.4594	869.864	874.6134	898.959	959.6827	974.4894	1018.7305	1042.6633	1077.5403	1098.2553	1131.357	1197.6823	1219.6072	1253.847	1271.9956	1296.4629	1334.2481	1401.3354	1477.513	1502.1249	1649.8602	1664.2431	2351.7867	3047.3226	3104.6712	3123.3938	3205.5343	3214.2018	3489.5137	3501.3945	3565.5512	3586.8772
NC12CC1CC2(N)C#N	N[C@]12C[C@H]1C[C@]2(N)C#N	
InChI=1S/C6H9N3/c7-3-5(8)1-4-2-6(4,5)9/h4H,1-2,8-9H2	InChI=1S/C6H9N3/c7-3-5(8)1-4-2-6(4,5)9/h4H,1-2,8-9H2/t4-,5+,6-/m1/s1
