15
gdb 85111	2.0651	1.609	1.23534	3.3695	67.91	-0.262	-0.018	0.2441	1067.6169	0.109239	-457.747703	-457.738547	-457.737603	-457.781579	32.933	
C	-0.2796690158	 1.4936743583	 0.0743833172	-0.404645
C	 0.1070083543	 0.0382165706	-0.0204262499	 0.118976
O	 1.357734141	-0.1610110878	-0.7782931219	-0.255499
C	 2.0008590915	-0.7271005327	 0.28053185	 0.415423
O	 3.1253524116	-1.0987095145	 0.3583546226	-0.326072
C	 0.7632258507	-0.627583073	 1.2272323832	 0.022276
O	 0.9252671388	 0.2798328825	 2.2916639008	-0.443839
C	 0.2130086302	-1.9073988536	 1.6407664474	 0.280051
C	-0.2149156256	-2.9731562822	 1.9950741077	-0.455617
H	 0.5145792763	 2.0805421347	 0.5380930581	 0.147142
H	-0.482215562	 1.8874786917	-0.9255099896	 0.135375
H	-1.1854297144	 1.5977956655	 0.6789556208	 0.137782
H	-0.6770307348	-0.5753346937	-0.4681806187	 0.113301
H	 1.452931468	-0.1548860112	 2.971647977	 0.302295
H	-0.5946890099	-3.9154659344	 2.3066522254	 0.213052
85.856	118.837	148.1126	181.1858	205.9365	262.3151	279.4747	332.051	395.168	487.587	522.919	628.7312	641.2534	668.6636	682.8256	727.5106	778.7136	870.2682	905.7079	1032.0415	1055.3722	1113.4535	1132.0245	1152.2667	1194.5409	1310.2221	1356.5414	1390.328	1412.7746	1483.4962	1488.5711	1940.3827	2234.3607	3053.1064	3098.1587	3123.228	3150.474	3497.2514	3808.5378
CC1OC(=O)C1(O)C#C	C[C@H]1OC(=O)[C@]1(O)C#C	
InChI=1S/C6H6O3/c1-3-6(8)4(2)9-5(6)7/h1,4,8H,2H3	InChI=1S/C6H6O3/c1-3-6(8)4(2)9-5(6)7/h1,4,8H,2H3/t4-,6+/m1/s1
