14
gdb 84188	3.55691	1.19526	0.93946	2.097	72.54	-0.2762	-0.0594	0.2169	1191.0234	0.099548	-436.702901	-436.694786	-436.693842	-436.735801	29.532	
C	-0.0716853296	 1.5700386001	 0.0230497648	-0.388524
C	 0.0313136649	 0.0419597391	-0.0222611609	-0.137195
N	 0.8099351228	-0.4454078373	-1.159963832	-0.304343
C	 1.7491054048	-1.1488953681	-0.6639397901	 0.248254
O	 1.8051647119	-1.2781276203	 0.7142320842	-0.231261
C	 0.7341907283	-0.533775223	 1.206024892	 0.415001
O	 0.5090960568	-0.4263185785	 2.368887209	-0.316924
C	 2.7670509468	-1.8309383141	-1.3793746921	 0.27208
C	 3.632994911	-2.4126239441	-1.9748478813	-0.335842
H	 0.9222837245	 2.0245178085	 0.0509458356	 0.134887
H	-0.5933893336	 1.9321873299	-0.8650352333	 0.141764
H	-0.6219456398	 1.8744305515	 0.9167394565	 0.146278
H	-0.9793670001	-0.3835003556	-0.0733816341	 0.139259
H	 4.3964351713	-2.9256019081	-2.5076576882	 0.216566
105.2061	128.1574	146.6218	219.4237	234.3343	307.1253	439.7253	464.2918	555.3607	596.8726	654.3468	671.6652	687.7706	738.0698	742.3346	813.2658	919.5772	931.3078	1017.9517	1095.1523	1127.2697	1153.1754	1242.9119	1296.0121	1309.7475	1402.8586	1487.2497	1497.2122	1679.2713	1919.4826	2253.0825	3033.442	3053.8164	3131.8943	3142.9391	3497.6753
CC1N=C(OC1=O)C#C	C[C@H]1N=C(OC1=O)C#C	
InChI=1S/C6H5NO2/c1-3-5-7-4(2)6(8)9-5/h1,4H,2H3	InChI=1S/C6H5NO2/c1-3-5-7-4(2)6(8)9-5/h1,4H,2H3/t4-/m1/s1
