16
gdb 44381	3.57763	1.65105	1.39646	5.1527	67.38	-0.2419	0.0545	0.2964	920.2242	0.127569	-437.903154	-437.89666	-437.895716	-437.934025	26.431	
O	 0.0152097177	-0.0685826859	-0.3330256586	-0.390928
C	 0.0035760437	 1.1061938505	-0.0676708172	 0.461368
N	-1.1434372004	 1.8257444586	 0.1666347256	-0.371495
C	-1.2283409328	 3.2573371308	 0.2318425735	 0.025511
C	-0.6721380238	 4.0504793256	 1.3923834456	-0.091597
C	 0.4707653457	 3.2552876359	 2.0229869192	-0.267022
C	 1.1164647729	 3.1210339421	 0.6013929475	 0.095706
O	 1.1669910831	 1.8095633272	 0.034365833	-0.254045
C	 0.0301802697	 4.0234956386	 0.0209521677	-0.112911
H	-1.9852625879	 1.274696696	 0.1383663564	 0.258305
H	-2.1205560377	 3.6619213184	-0.2339089304	 0.111215
H	-1.2226947922	 4.8634457651	 1.8488569937	 0.096363
H	 1.0961249468	 3.8560638255	 2.6862389136	 0.115447
H	 0.2075598527	 2.3201551553	 2.5244988589	 0.119172
H	 2.1355732064	 3.4981029947	 0.5372091579	 0.105127
H	 0.1565088763	 4.7809856118	-0.7412635164	 0.099784
99.1315	234.9813	381.6641	422.9751	447.0124	494.2336	523.8633	600.4264	730.1951	754.5638	767.4688	802.593	828.2144	872.7675	895.714	948.5573	967.9812	1000.3888	1013.0224	1037.4123	1069.7663	1079.3876	1105.7084	1161.6897	1175.9298	1231.9815	1255.8319	1265.3465	1300.7467	1345.991	1408.7117	1428.3535	1464.0492	1487.8722	1851.7539	3065.9956	3119.1515	3133.1786	3170.6549	3191.4317	3203.7629	3655.7992
O=C1NC2C3CC(O1)C23	O=C1N[C@H]2[C@H]3C[C@@H](O1)[C@@H]23	
InChI=1S/C6H7NO2/c8-6-7-5-2-1-3(9-6)4(2)5/h2-5H,1H2,(H,7,8)	InChI=1S/C6H7NO2/c8-6-7-5-2-1-3(9-6)4(2)5/h2-5H,1H2,(H,7,8)/t2-,3+,4-,5-/m0/s1
