19
gdb 79400	2.45852	1.53505	1.45867	1.756	75.37	-0.2519	0.0649	0.3167	1036.7532	0.15782	-422.955608	-422.947065	-422.946121	-422.988001	33.688	
C	-0.1803159894	 1.5904475536	-0.0307430456	-0.437758
C	-0.0452442414	 0.0754722143	 0.0056751865	-0.066811
C	 1.1837507557	-0.6058143112	-0.6496881799	-0.095235
C	 2.1383117661	-0.3054498811	 0.5572547524	-0.132676
C	 2.5883269329	-1.7788112725	 0.6772860713	-0.339581
C	 1.0950255211	-1.8456071788	 0.2909993586	 0.369796
O	 0.2973232927	-2.9409386337	 0.0230863686	-0.480781
C	 0.7171910888	-0.6063638956	 1.1670709899	 0.324074
O	 0.3735337303	-0.7277287711	 2.5025134241	-0.483987
H	 0.7658375894	 2.0913808298	 0.2012368997	 0.11088
H	-0.5017939	 1.9336839577	-1.0200142513	 0.120371
H	-0.9296929637	 1.9372082454	 0.6905828301	 0.111567
H	-0.9949859208	-0.4142067629	-0.2371047386	 0.077183
H	 1.4817128338	-0.6252595931	-1.696103195	 0.079042
H	 2.7326076789	 0.5944526245	 0.6944803392	 0.077533
H	 3.3049483472	-2.1360676831	-0.0682563076	 0.093757
H	 2.8564489068	-2.1264112468	 1.6794317231	 0.096926
H	 0.1011654346	-3.379138229	 0.8589421727	 0.289611
H	 0.337429607	 0.1512041536	 2.8949855918	 0.286088
178.2722	179.223	203.874	216.8148	253.6774	296.4911	303.9157	341.4473	438.7258	511.6662	553.3935	655.2453	689.9079	716.9882	762.6122	848.4607	887.4266	909.1595	933.7246	964.3184	1001.8461	1036.3019	1042.1014	1067.6966	1081.956	1115.46	1137.6158	1140.8024	1187.5496	1204.0363	1215.5898	1258.0226	1269.6292	1294.2147	1343.747	1393.5289	1411.3795	1418.0992	1495.9265	1503.0056	1509.188	3025.0926	3046.2435	3048.3221	3086.1175	3096.872	3106.94	3137.7816	3149.2711	3800.1048	3805.233
CC1C2C3CC2(O)C13O	C[C@H]1[C@H]2[C@@H]3C[C@@]2(O)[C@]13O	
InChI=1S/C7H10O2/c1-3-5-4-2-6(5,8)7(3,4)9/h3-5,8-9H,2H2,1H3	InChI=1S/C7H10O2/c1-3-5-4-2-6(5,8)7(3,4)9/h3-5,8-9H,2H2,1H3/t3-,4-,5-,6-,7-/m0/s1
