17
gdb 98393	2.55481	1.18634	0.86353	3.6882	75.82	-0.2506	-0.0319	0.2187	1309.2768	0.135825	-451.319404	-451.309944	-451.309	-451.354496	33.427	
O	 0.1256027596	 1.2216275566	 0.1547038615	-0.428264
C	 0.0512856708	-0.1775532915	 0.1167543437	-0.095938
C	-1.3577254338	-0.6421432001	-0.2152045811	 0.348734
N	-2.1746541399	 0.2372107698	-0.6340197356	-0.512563
N	-1.7135880427	-2.0003581801	 0.0279669211	-0.121047
C	-3.016695203	-2.2664717481	 0.4769404509	 0.076925
N	-3.4922981478	-3.4411959644	 0.5283251654	-0.459888
C	-0.8410966002	-3.0868076231	-0.1436154769	 0.091951
N	 0.3042184759	-2.965513911	-0.6724931284	-0.449999
H	-0.6963446651	 1.5382284612	-0.2508498374	 0.29564
H	 0.7359521067	-0.6053501486	-0.6251344553	 0.150064
H	 0.3452029828	-0.5990762523	 1.0884652268	 0.111234
H	-3.088440588	-0.1287932581	-0.8919557197	 0.231402
H	-3.528038411	-1.3555796489	 0.7970228243	 0.127104
H	-4.4207848636	-3.4309142864	 0.9444783677	 0.240872
H	-1.3005040363	-4.0072714518	 0.2165926945	 0.153296
H	 0.7770344358	-3.8671019131	-0.6876724116	 0.240476
54.0437	72.1982	125.1798	154.1346	220.4282	256.1165	284.7891	350.1774	372.1338	405.9936	465.5098	549.6231	632.5082	722.9377	814.7823	828.2464	833.1848	885.5209	957.966	1042.2015	1073.2258	1081.6894	1116.905	1141.7592	1148.6506	1242.9772	1259.4695	1307.5939	1355.0912	1363.6869	1422.1642	1427.2112	1468.7608	1494.6948	1701.0618	1718.8121	1734.0409	3015.5045	3055.4161	3095.251	3137.4728	3508.5889	3510.3949	3518.1105	3693.9738
OCC(=N)N(C=N)C=N	OCC(=N)N(C=N)C=N	
InChI=1S/C4H8N4O/c5-2-8(3-6)4(7)1-9/h2-3,5-7,9H,1H2	InChI=1S/C4H8N4O/c5-2-8(3-6)4(7)1-9/h2-3,5-7,9H,1H2
