17
gdb 44235	4.09219	1.2247	1.14827	4.4725	73.07	-0.2223	0.0212	0.2435	1094.2312	0.137042	-417.973858	-417.966372	-417.965428	-418.005879	29.531	
O	 0.0333552146	 0.0410077018	-0.0515193646	-0.351274
C	 0.0251100978	 1.2368565905	 0.0209706309	 0.449062
N	-1.0048143598	 2.1670293248	 0.0735266185	-0.321819
C	-0.1442124788	 3.3514394538	 0.0402063116	-0.107039
C	 1.0775224587	 2.3819480405	 0.035371014	-0.17135
N	 1.4142471827	 2.7787984227	-1.3649112939	-0.367136
C	 0.3499143615	 3.803227353	-1.3385703405	 0.373661
C	-0.4440136733	 4.2504942358	-2.5227205093	-0.311234
C	 0.4950712061	 5.2144075468	-1.8173947403	-0.33614
H	-1.9647716966	 2.0589981328	-0.2246228917	 0.248244
H	-0.3576301781	 4.106386777	 0.7975904441	 0.092338
H	 1.8817786659	 2.368515666	 0.7687791303	 0.101005
H	 2.3415956996	 3.1851506244	-1.4286355695	 0.226927
H	-0.1386386339	 3.8690835046	-3.4910856198	 0.127786
H	-1.513872958	 4.3958216792	-2.4111830938	 0.112338
H	 0.0671473155	 6.0105955586	-1.2155978013	 0.11712
H	 1.414558136	 5.4866571579	-2.3268214148	 0.117512
75.8668	183.828	213.9405	278.3796	358.1087	436.1583	463.7132	494.3996	584.2441	705.0005	734.4727	763.0539	792.9628	815.7271	875.0807	893.724	917.9498	931.1561	965.8292	990.5278	1017.2838	1050.386	1067.9669	1073.5344	1133.3271	1149.8659	1185.3629	1205.0583	1207.8584	1296.5707	1305.5546	1346.4984	1362.2588	1399.3075	1456.3089	1498.5692	1901.0688	3103.8476	3118.7659	3129.1527	3136.0158	3200.1679	3219.9265	3525.4205	3590.3899
O=C1NC2C1NC21CC1	O=C1N[C@H]2[C@@H]1NC12CC1	
InChI=1S/C6H8N2O/c9-5-3-4(7-5)6(8-3)1-2-6/h3-4,8H,1-2H2,(H,7,9)	InChI=1S/C6H8N2O/c9-5-3-4(7-5)6(8-3)1-2-6/h3-4,8H,1-2H2,(H,7,9)/t3-,4-/m0/s1
