15
gdb 25583	4.64262	0.88924	0.81296	3.6488	68.37	-0.2497	-0.0095	0.2402	1357.179	0.114139	-453.996637	-453.988593	-453.987649	-454.031514	27.861	
O	 0.1282341929	 0.6021995881	 1.0187803328	-0.317651
C	 0.1061415181	 1.4241031971	 0.1283812775	 0.161169
N	 1.1485403292	 1.708021992	-0.7007222533	-0.272822
C	 2.458272715	 1.0854905568	-0.5419497338	-0.284809
C	 3.5145658573	 2.0385956008	-0.1054900118	 0.330706
C	 4.2495125864	 2.2177834796	 1.018447276	-0.183674
N	 5.1041300162	 3.3019175328	 0.8502837141	-0.252143
C	 4.8466374187	 3.7199079218	-0.3436076381	 0.074456
O	 3.8969513376	 3.0118258685	-0.999590309	-0.18632
H	-0.787455171	 2.0311155956	-0.1150476477	 0.082118
H	 1.0459894878	 2.4518133195	-1.3725490133	 0.2564
H	 2.3370653268	 0.3099935407	 0.2164868403	 0.170195
H	 2.7508333869	 0.6031406334	-1.482450393	 0.130492
H	 4.2254242633	 1.6479844989	 1.933677709	 0.138609
H	 5.2872209248	 4.5486673144	-0.8753495596	 0.153273
24.8644	46.4586	120.5386	228.2399	259.187	328.3757	420.6345	527.6489	646.4837	668.052	728.4721	791.9667	840.6209	873.3021	940.2283	949.6046	970.9936	1030.0065	1036.6181	1121.3685	1133.3719	1199.7022	1221.8981	1250.1718	1284.8559	1358.9682	1379.7911	1427.5723	1468.3751	1525.4877	1549.6159	1641.5155	1806.3917	2946.6194	3034.0842	3132.9159	3268.7944	3277.2941	3640.1691
O=CNCC1=CN=CO1	O=CNCc1cnco1	
InChI=1S/C5H6N2O2/c8-3-6-1-5-2-7-4-9-5/h2-4H,1H2,(H,6,8)	InChI=1S/C5H6N2O2/c8-3-6-1-5-2-7-4-9-5/h2-4H,1H2,(H,6,8)
