15
gdb 36030	1.96954	1.60874	1.03585	7.9059	68.79	-0.3026	0.001	0.3036	1138.0378	0.111299	-416.805859	-416.797024	-416.79608	-416.840767	30.797	
N	-1.5187014183	 0.0299537007	 0.1394973335	-0.292476
C	-0.8194846127	 0.8809987836	-0.2066347528	 0.289249
C	 0.020043149	 1.9980696935	-0.6433921116	-0.419869
C	 1.4148701085	 2.0099979436	-0.0174251547	 0.398874
C	 2.4645029872	 1.0696113945	-0.6067663571	-0.409018
C	 2.1011714392	-0.3476745771	-0.6157562393	 0.273809
N	 1.8467369637	-1.4736169684	-0.6477023526	-0.287311
C	 1.89404811	 3.2473216346	 0.6183591332	-0.225193
O	 1.4341330831	 2.1384212846	 1.3955884115	-0.242805
H	 0.0990162723	 1.9789624258	-1.7364826476	 0.160636
H	-0.497244818	 2.9245980836	-0.3761574197	 0.164721
H	 2.6836870291	 1.3733314707	-1.6378378697	 0.160634
H	 3.3886216895	 1.1842530738	-0.0321987997	 0.169132
H	 2.9628356184	 3.4477264619	 0.6741676897	 0.128924
H	 1.254924809	 4.1283168747	 0.6322889172	 0.130694
29.8352	72.0508	120.3291	156.989	322.1747	342.5013	366.3181	378.2485	384.5877	394.2344	526.5152	563.1185	776.3726	869.5617	880.7744	908.7929	942.8901	975.0441	990.0133	1011.1253	1130.1222	1169.2769	1181.5615	1245.2408	1296.7812	1326.1812	1338.6115	1424.5521	1446.3027	1457.6371	1534.2333	2369.1958	2371.5233	3042.1464	3050.5831	3089.5252	3094.4882	3096.7464	3178.5086
N#CCC1(CC#N)CO1	N#CCC1(CC#N)CO1	
InChI=1S/C6H6N2O/c7-3-1-6(2-4-8)5-9-6/h1-2,5H2	InChI=1S/C6H6N2O/c7-3-1-6(2-4-8)5-9-6/h1-2,5H2
