16
gdb 124192	4.63217	0.77463	0.70431	3.1128	78.36	-0.2527	-0.0091	0.2436	1586.4014	0.123535	-400.722117	-400.713255	-400.712311	-400.758402	30.453	
C	 0.1121517812	 1.4197530277	-0.5435526899	-0.496207
C	 0.02066696	 0.0266308845	-0.1304354056	 0.057716
C	-0.0526915848	-1.121916424	 0.2213934156	 0.066923
C	-0.14672345	-2.5191278029	 0.6366317822	-0.45813
C	-1.4503300618	-3.1688105626	 0.2492653371	 0.397133
N	-2.1015668239	-3.8931846816	 1.1275394969	-0.199268
O	-3.2276289355	-4.3726806424	 0.4633535066	-0.16402
C	-3.2132402073	-3.912564129	-0.7959687164	 0.084319
C	-2.119344198	-3.1416014735	-1.0092206668	-0.320279
H	 0.8274216594	 1.5479882577	-1.3634205361	 0.147684
H	-0.8576900106	 1.7960174485	-0.8871228886	 0.14971
H	 0.4391996766	 2.0579344811	 0.2846456924	 0.151164
H	 0.6790125054	-3.0904946024	 0.1902171225	 0.146905
H	-0.031582186	-2.6120746528	 1.7220262348	 0.157351
H	-4.0440328165	-4.2140738593	-1.4151600441	 0.151093
H	-1.8270234382	-2.621321259	-1.9052989407	 0.127906
19.4972	35.8484	70.7037	197.9168	223.3995	296.1083	335.8562	378.8098	449.4189	614.2627	652.1459	739.9159	783.825	804.1263	872.8511	909.376	935.9739	948.2955	1004.5954	1052.7947	1054.2954	1078.0028	1156.9479	1166.8425	1216.7019	1290.8794	1336.3611	1415.463	1448.2083	1462.0275	1478.3302	1478.9208	1483.3772	1610.303	2378.4599	3013.8239	3028.1067	3070.1653	3088.8344	3089.6412	3262.2518	3291.8345
CC#CCC1=NOC=C1	CC#CCc1nocc1	
InChI=1S/C7H7NO/c1-2-3-4-7-5-6-9-8-7/h5-6H,4H2,1H3	InChI=1S/C7H7NO/c1-2-3-4-7-5-6-9-8-7/h5-6H,4H2,1H3
