20
gdb 112291	3.07994	1.18383	0.94359	4.2437	78.54	-0.2476	-0.007	0.2406	1283.6123	0.171444	-403.163749	-403.155181	-403.154237	-403.197363	32.478	
C	-0.1197610403	 1.6377248726	-0.0371190989	-0.384336
C	-0.1209023505	 0.1059983523	-0.02282958	-0.187434
C	 0.7293936066	-0.5173894023	-1.1368492142	 0.014975
C	 2.2457512658	-0.265374755	-1.0441185869	-0.366169
C	 2.9211660746	-1.5903476232	-1.435418964	 0.388415
O	 4.0884021432	-1.7560676903	-1.643370367	-0.305941
N	 1.9447812523	-2.6467188647	-1.5255247497	-0.141817
C	 1.3030208505	-2.877363955	-0.1981078901	-0.255027
C	 0.6315816688	-2.0431962346	-1.2155520024	-0.041285
H	 0.8881864979	 2.0404017348	 0.1082818406	 0.12174
H	-0.4957842759	 2.0236672161	-0.9911958482	 0.117787
H	-0.7545152376	 2.0398912331	 0.7580176286	 0.117668
H	 0.2384950825	-0.2568334617	 0.9488523644	 0.096774
H	-1.1517821855	-0.2578344118	-0.120685415	 0.100297
H	 0.3695806463	-0.1282547737	-2.0978880223	 0.085524
H	 2.6072420456	 0.5378132802	-1.6886588047	 0.141329
H	 2.5689483747	-0.0157987895	-0.0260982698	 0.134155
H	 0.9903514617	-3.9030012675	-0.0318948372	 0.135618
H	 1.750915333	-2.3960791618	 0.6678266536	 0.12614
H	-0.2051419438	-2.466693598	-1.7635209869	 0.101585
66.947	102.7317	150.2115	203.2932	245.3681	313.1538	377.0648	441.2926	492.9442	562.9865	634.6431	657.6011	750.1057	783.4008	816.953	841.4486	893.349	940.5979	964.2304	981.5432	1024.0378	1057.2607	1079.2308	1102.2357	1107.9248	1132.309	1155.4476	1176.2289	1203.3682	1258.6667	1274.2658	1296.5551	1318.9702	1354.1288	1388.0837	1399.0468	1413.6171	1457.7345	1486.8154	1499.7081	1506.6919	1510.6864	1867.0383	3016.3767	3022.7018	3033.0367	3045.9795	3053.315	3099.8191	3107.2131	3115.2948	3116.5433	3150.8876	3204.0161
CCC1CC(=O)N2CC12	CC[C@H]1CC(=O)N2C[C@@H]12	
InChI=1S/C7H11NO/c1-2-5-3-7(9)8-4-6(5)8/h5-6H,2-4H2,1H3	InChI=1S/C7H11NO/c1-2-5-3-7(9)8-4-6(5)8/h5-6H,2-4H2,1H3/t5-,6-,8?/m0/s1
