19
gdb 109919	2.03577	1.79985	1.06435	1.088	72.56	-0.2549	0.0091	0.264	1140.7856	0.159047	-460.15269	-460.143746	-460.142801	-460.186342	33.847	
C	-0.005457139	 1.3152504093	-0.0478068229	-0.252614
O	-0.0333660004	-0.1009726234	 0.0529962795	-0.274392
C	 0.6716604332	-0.625328301	 1.1758377254	 0.01728
C	-0.3549085676	-1.0237436644	 2.2845893104	 0.08876
O	-1.5310253687	-0.2367263138	 2.2612946662	-0.43194
C	-0.5872360264	-2.4932623306	 2.0131968229	-0.116101
C	 0.3011234139	-2.997041357	 1.1597646607	-0.107167
C	 1.3226053814	-1.9683419716	 0.7220924247	 0.088351
O	 1.6517857488	-1.9932283512	-0.6477368289	-0.435273
H	 1.0246813278	 1.6855118837	-0.1404007772	 0.121072
H	-0.5609960125	 1.5804710024	-0.9508090144	 0.130327
H	-0.4804491626	 1.7838575964	 0.8218188446	 0.133464
H	 1.4118181062	 0.1043470654	 1.5194014624	 0.072046
H	 0.0786631793	-0.8667073243	 3.2797082611	 0.095937
H	-1.8441931646	-0.2706987929	 1.3486257154	 0.283575
H	-1.393096711	-3.0316981784	 2.4996132999	 0.103497
H	 0.3581625332	-4.0248438425	 0.8193937983	 0.104744
H	 2.2649380165	-2.1197823597	 1.265341376	 0.093157
H	 0.9658509824	-1.4675156963	-1.0814166542	 0.285278
75.7694	96.5309	186.5521	239.8795	242.9367	294.9674	332.5754	379.0785	442.0886	465.7523	482.8789	517.9395	635.1587	699.5924	803.2628	816.9017	856.1634	877.5207	982.0539	995.0228	1030.1682	1046.5808	1092.827	1110.3803	1132.7168	1158.3172	1181.2521	1206.2883	1229.6562	1271.428	1282.4707	1295.1642	1324.9486	1368.8235	1385.5441	1433.099	1441.9271	1480.1076	1488.0457	1513.8169	1679.1869	3003.914	3015.8902	3034.8886	3059.1793	3073.2465	3120.2606	3186.7704	3211.8167	3752.563	3779.7493
COC1C(O)C=CC1O	CO[C@H]1[C@@H](O)C=C[C@H]1O	
InChI=1S/C6H10O3/c1-9-6-4(7)2-3-5(6)8/h2-8H,1H3	InChI=1S/C6H10O3/c1-9-6-4(7)2-3-5(6)8/h2-8H,1H3/t4-,5+,6-
