16
gdb 10938	4.37254	1.46503	1.34771	5.0005	69.46	-0.2564	0.0139	0.2703	952.4347	0.130712	-342.756543	-342.74912	-342.748176	-342.788146	27.896	
C	 0.0679201243	 1.521991622	 0.0552440201	-0.490891
C	-0.0338956411	 0.0298995555	-0.0365551069	 0.361261
C	-0.8823916031	-0.7988890129	 0.8417126566	-0.278625
N	 0.5862227306	-0.909745306	 0.998562566	-0.161409
C	 1.0134515331	-1.811177826	-0.1376286559	-0.097506
C	 0.4850020685	-0.807394144	-1.2076714297	-0.323922
C	 2.4548362844	-2.0250688671	-0.1542645596	 0.289066
N	 3.5965668966	-2.1980024777	-0.1975339594	-0.319264
H	 1.0645229704	 1.8687382959	-0.2366098201	 0.133221
H	-0.6647758313	 1.9998474686	-0.6055733138	 0.127787
H	-0.1250231701	 1.8606045395	 1.0769868975	 0.135895
H	-1.3507866704	-0.3132681203	 1.6919133875	 0.130266
H	-1.4371001986	-1.6475256688	 0.4445833564	 0.114473
H	 0.514761986	-2.7861181257	-0.1138098371	 0.124404
H	-0.25159066	-1.1833616016	-1.9221970296	 0.116758
H	 1.2985973506	-0.3246252314	-1.750474472	 0.138486
97.563	169.0872	195.3806	276.5085	326.5172	371.4701	453.8862	497.4499	549.85	624.3719	727.5847	779.9146	840.1359	886.4281	935.3514	958.0874	1004.5357	1028.5746	1062.1682	1097.4195	1126.7131	1133.867	1157.8249	1224.8924	1245.3495	1315.1824	1353.5642	1380.9909	1424.1929	1481.4577	1487.248	1492.5777	1511.4577	2361.4616	3031.7328	3051.8936	3069.3012	3095.7115	3098.6113	3117.1641	3134.4483	3197.9346
CC12CN1C(C2)C#N	C[C@]12CN1[C@@H](C2)C#N	
InChI=1S/C6H8N2/c1-6-2-5(3-7)8(6)4-6/h5H,2,4H2,1H3	InChI=1S/C6H8N2/c1-6-2-5(3-7)8(6)4-6/h5H,2,4H2,1H3/t5-,6-,8?/m0/s1
