13
gdb 53934	1.8436	1.58983	1.30741	5.8196	65.12	-0.2714	-0.0227	0.2487	1045.3066	0.085828	-452.733261	-452.723743	-452.722799	-452.767807	33.846	
N	 0.1365683713	 1.1227377373	-0.6427110694	-0.52567
C	 0.0803364274	 0.0508248479	 0.1737489212	 0.406287
O	 0.9586619005	-0.352532917	 0.8964569031	-0.342898
C	-1.2873516632	-0.7271155554	 0.0789233473	-0.060236
O	-2.2499985259	 0.1186897718	-0.5381328013	-0.438224
C	-1.0701752927	-1.9517048927	-0.6946216148	 0.350357
C	-0.9256899456	-2.9368030995	-1.3650326144	-0.457052
C	-1.7201866914	-1.0671561757	 1.4548535928	 0.308787
N	-2.1228143631	-1.3140999456	 2.5081917561	-0.331394
H	 0.9650938872	 1.6943013024	-0.6234430381	 0.275976
H	-0.6842571312	 1.4288894378	-1.1368152018	 0.285434
H	-2.9907090456	-0.4261623731	-0.8287194245	 0.306136
H	-0.7844122876	-3.8157520383	-1.9459331462	 0.222496
44.5533	120.921	136.349	161.7749	233.3805	286.2787	311.8341	345.7051	403.3197	423.6307	454.6504	517.7946	573.6339	604.2959	643.3038	662.033	678.5236	695.2219	758.2436	958.7229	1079.6052	1101.6357	1115.3205	1304.8175	1372.945	1597.7464	1837.8637	2242.0795	2366.0041	3496.6994	3601.3095	3738.821	3805.1748
NC(=O)C(O)(C#C)C#N	NC(=O)[C@@](O)(C#C)C#N	
InChI=1S/C5H4N2O2/c1-2-5(9,3-6)4(7)8/h1,9H,(H2,7,8)	InChI=1S/C5H4N2O2/c1-2-5(9,3-6)4(7)8/h1,9H,(H2,7,8)/t5-/m1/s1
