18
gdb 7607	3.33421	1.57503	1.31264	2.4423	69.55	-0.2356	-0.011	0.2246	1008.4382	0.150583	-384.953423	-384.944254	-384.94331	-384.986997	33.406	
C	-0.0528788974	 1.5290600957	 0.0934567138	-0.407599
C	 0.0284876965	 0.0215185101	 0.0604347926	-0.005642
C	 1.3164935371	-0.6838875722	-0.2375697783	-0.337441
C	 0.7526801597	-0.7298158079	 1.1743199982	 0.242795
O	 1.3479799768	 0.0551344456	 2.1700642534	-0.459472
C	 0.1205667936	-2.0182885421	 1.6191826393	 0.336883
C	 0.1601271546	-2.3259148384	 3.1025269857	-0.478368
O	-0.4031789844	-2.7626347138	 0.8156079698	-0.324755
H	 0.8418175468	 1.9621898693	 0.5459845086	 0.127535
H	-0.1567538396	 1.9284761453	-0.9210183686	 0.119318
H	-0.916855535	 1.8648392636	 0.676081358	 0.122313
H	-0.8613447556	-0.4963182617	-0.2849131941	 0.113246
H	 1.2836341881	-1.608989377	-0.8012239331	 0.136265
H	 2.204474161	-0.0727395799	-0.3673391666	 0.111179
H	 2.2591854072	-0.2346563423	 2.282294222	 0.287897
H	-0.2535317837	-1.4933129294	 3.6791418104	 0.150267
H	-0.3967735531	-3.2432822478	 3.2950358061	 0.137243
H	 1.1958560874	-2.4486279971	 3.4397538328	 0.128336
63.008	142.4723	161.2244	172.612	201.8192	274.2137	304.0732	334.1653	384.8047	450.9033	488.4374	564.0169	614.08	668.0777	783.3183	851.8033	896.0791	930.1868	965.0034	1021.0517	1051.9968	1055.515	1069.8262	1131.7101	1172.9128	1196.7724	1265.6888	1286.4951	1347.1912	1380.009	1394.1624	1417.8296	1455.8118	1461.284	1469.8546	1491.3066	1500.366	1786.178	3038.1448	3041.182	3097.4336	3104.1188	3125.1135	3129.0751	3157.8106	3162.5721	3229.4762	3806.9362
CC1CC1(O)C(C)=O	C[C@H]1C[C@]1(O)C(=O)C	
InChI=1S/C6H10O2/c1-4-3-6(4,8)5(2)7/h4,8H,3H2,1-2H3	InChI=1S/C6H10O2/c1-4-3-6(4,8)5(2)7/h4,8H,3H2,1-2H3/t4-,6+/m0/s1
