17
gdb 119508	4.02782	1.03911	0.94407	3.2161	68.32	-0.2502	0.0419	0.2921	1271.9365	0.133046	-458.844213	-458.835874	-458.83493	-458.877942	30.536	
C	-0.2390943195	 1.3723434425	 0.3422056809	-0.221967
O	-0.5424340273	 0.0260355138	 0.6282472479	-0.241087
C	-0.9529059949	-0.6965288705	-0.5127819216	-0.200566
C	-1.1486682239	-2.1180785598	-0.1035199391	 0.40923
O	-1.8775260961	-2.9986945877	-0.9520589461	-0.265429
C	-2.2912963446	-2.8741641475	 0.411277422	-0.104392
C	-1.3142766739	-3.7455221661	 1.3000588053	-0.005319
O	-0.3603354356	-4.3661251494	 0.4411801734	-0.21397
C	-0.1704764835	-2.9953633457	 0.7882875435	-0.05947
H	 0.0755573375	 1.8406292428	 1.2775100006	 0.131462
H	 0.5760270656	 1.45887336	-0.3931899407	 0.109201
H	-1.1146576986	 1.9124084624	-0.0503263518	 0.109042
H	-1.8913142542	-0.2999681929	-0.9325143297	 0.105714
H	-0.1867167743	-0.6361558327	-1.3058847213	 0.100585
H	-3.3143451426	-2.5868025357	 0.6198170573	 0.114553
H	-1.5138490245	-4.1864353527	 2.2682629633	 0.114614
H	 0.7585182806	-2.688703491	 1.2505883462	 0.117799
67.951	83.9475	112.8139	224.771	265.866	329.5353	373.7065	420.278	502.9559	635.1396	700.4598	766.4267	815.2681	829.5207	842.4597	879.0608	925.4935	982.3427	987.6873	1000.1895	1028.1921	1059.1074	1138.135	1166.1016	1184.2564	1198.4848	1220.0994	1226.2388	1252.0157	1270.1236	1363.442	1396.3705	1477.1811	1486.0889	1491.7924	1503.5909	1522.0503	2949.5264	2975.2744	2993.6171	3020.935	3119.9909	3194.6419	3202.0387	3215.3464
COCC12OC1C1OC21	COC[C@]12O[C@H]1[C@H]1O[C@@H]21	
InChI=1S/C6H8O3/c1-7-2-6-4-3(8-4)5(6)9-6/h3-5H,2H2,1H3	InChI=1S/C6H8O3/c1-7-2-6-4-3(8-4)5(6)9-6/h3-5H,2H2,1H3/t3-,4+,5-,6+/m0/s1
