18
gdb 71413	3.41626	1.29108	1.22137	1.3029	81.01	-0.2461	0.0379	0.284	1099.0686	0.14734	-364.727248	-364.719297	-364.718353	-364.759453	31.326	
C	-0.1263715962	 1.4901304214	 0.0632837297	-0.49932
C	 0.0795274045	 0.0106617319	-0.0365247055	 0.343711
C	 0.0733569478	-0.8459426454	-1.2956441518	-0.293247
C	-0.2336605993	-1.9965899625	-0.3264764911	-0.024499
C	 1.0383281738	-2.1898379349	 0.5473963416	-0.161598
C	 2.3277589849	-2.448153627	-0.0666952169	 0.293721
C	 3.3923412636	-2.6541644632	-0.5871882983	-0.445968
C	 0.6718157009	-0.803900663	 1.0699431065	-0.104268
N	-0.781860894	-0.9758603723	 0.7176125651	-0.205643
H	 0.7548483161	 2.0311880285	-0.2993028769	 0.1256
H	-0.9894647203	 1.8059988855	-0.5318167304	 0.125809
H	-0.304980886	 1.7881125295	 1.1009542753	 0.130017
H	-0.7967982188	-0.6089812432	-1.9141769782	 0.108378
H	 0.9724661548	-0.9111151318	-1.9152227372	 0.111088
H	-0.8386698875	-2.8535081543	-0.6139638207	 0.088393
H	 0.8245234832	-2.9292092064	 1.3264870001	 0.11392
H	 4.33463855	-2.8377882227	-1.0411412061	 0.196454
H	 0.9774159227	-0.3633422401	 2.0124945348	 0.097452
106.5772	146.9712	186.1129	265.3646	297.2803	370.6812	425.1571	534.4642	536.065	624.9985	633.2118	641.8018	732.5991	761.7393	804.2127	807.9649	909.2135	934.6636	949.5781	996.4415	1003.5763	1019.6132	1046.1892	1079.3824	1089.2135	1132.3239	1174.6075	1191.526	1240.9978	1252.3944	1284.3838	1330.5515	1357.4733	1400.306	1426.6671	1482.6705	1492.0194	1496.6466	2232.0766	3031.2007	3052.6225	3055.7416	3096.4394	3107.6142	3108.835	3144.2309	3177.7155	3502.4681
CC12CC3C(C#C)C1N23	C[C@@]12C[C@H]3[C@@H](C#C)[C@@H]1N23	
InChI=1S/C8H9N/c1-3-5-6-4-8(2)7(5)9(6)8/h1,5-7H,4H2,2H3	InChI=1S/C8H9N/c1-3-5-6-4-8(2)7(5)9(6)8/h1,5-7H,4H2,2H3/t5-,6+,7+,8-,9?/m1/s1
