16
gdb 96802	2.283	1.54895	0.93341	3.1892	78.94	-0.2702	-0.079	0.1913	1216.2184	0.123304	-437.954136	-437.945391	-437.944447	-437.988052	30.9	
C	 0.0412808777	 1.399842762	 0.0311117585	-0.343723
N	 0.0861090978	-0.0510775975	 0.0092781536	-0.303695
C	 0.5615284451	-0.6569981734	-0.9874570554	 0.378548
O	 1.0743167325	-0.0620933794	-2.1270532483	-0.242795
C	 1.5002475078	-1.0713226268	-2.9959423544	 0.43386
O	 1.9853871601	-0.8206487981	-4.0579537194	-0.321226
C	 1.2242109277	-2.3597390144	-2.332482036	-0.390889
C	 0.6652451729	-2.1241604998	-1.135945555	 0.271674
C	 0.1991313302	-3.0630525385	-0.0795129818	-0.491277
H	 0.5945528066	 1.7519593964	 0.9088680934	 0.13885
H	 0.4456111265	 1.8781601034	-0.8662901142	 0.14166
H	-0.9991928183	 1.7138338546	 0.1704088248	 0.138866
H	 1.4612402383	-3.3058387262	-2.7961535314	 0.141081
H	 0.3585253551	-4.1030722877	-0.3704578386	 0.134063
H	 0.7247791111	-2.8683366339	 0.8607950417	 0.157502
H	-0.864681401	-2.9063115405	 0.1257527425	 0.157501
91.3993	100.4316	143.202	179.9583	187.1019	228.0132	271.6128	451.4675	459.7662	577.5913	600.8137	635.1711	711.4397	767.1486	813.3021	877.9092	915.249	995.19	1023.5536	1060.0951	1061.7469	1128.1154	1162.1944	1185.8562	1261.0945	1357.0897	1414.548	1434.228	1469.3217	1475.9077	1489.692	1491.2052	1685.1399	1775.1166	1889.8978	3024.8082	3046.2887	3084.3884	3102.7737	3106.1483	3137.3889	3250.8409
CN=C1OC(=O)C=C1C	CN=C1OC(=O)C=C1C	
InChI=1S/C6H7NO2/c1-4-3-5(8)9-6(4)7-2/h3H,1-2H3	InChI=1S/C6H7NO2/c1-4-3-5(8)9-6(4)7-2/h3H,1-2H3
