15
gdb 130987	4.29134	0.96634	0.83792	2.2065	67.77	-0.2274	-0.045	0.1824	1303.3348	0.112722	-453.953006	-453.944897	-453.943952	-453.987091	28.741	
O	-0.448155414	 0.9778137851	-1.2286537032	-0.226559
C	 0.1858307093	 1.7802715	-0.5989063686	 0.138998
C	 1.5745967997	 1.4874081407	-0.0397395569	-0.17549
O	 2.2349927958	 2.6635363427	 0.3990771	-0.263721
C	 2.6848461703	 3.4652825804	-0.5890520676	 0.473866
C	 2.6533577879	 3.4073299251	-1.9694360626	-0.35841
C	 3.3211117941	 4.5931379018	-2.3628073356	 0.002324
N	 3.7298278447	 5.3187616292	-1.3324689333	-0.224188
N	 3.3264924202	 4.6056351252	-0.2492562714	-0.286882
H	-0.2038867656	 2.7900094976	-0.3417341821	 0.10418
H	 1.4607401411	 0.8565927404	 0.8479648083	 0.154025
H	 2.1697193269	 0.9378701216	-0.7789305868	 0.148168
H	 2.2221716645	 2.6443625334	-2.5944764586	 0.120219
H	 3.5154261164	 4.9371555237	-3.3683221654	 0.116334
H	 3.5188328485	 4.9390390031	 0.6798747938	 0.277137
49.1383	57.3613	128.5091	226.5627	282.6632	346.2887	411.477	471.8785	601.0703	653.236	677.0883	691.7683	750.3172	763.6657	890.8988	928.0305	1023.345	1029.8072	1062.3728	1101.517	1112.2139	1123.1218	1249.1576	1274.842	1307.2836	1345.589	1378.7121	1405.1906	1442.465	1462.5479	1535.3291	1614.4192	1842.2598	2899.1803	3039.8296	3096.8993	3244.2125	3279.7019	3679.3116
O=CCOC1=CC=NN1	O=CCOc1ccn[nH]1	
InChI=1S/C5H6N2O2/c8-3-4-9-5-1-2-6-7-5/h1-3H,4H2,(H,6,7)	InChI=1S/C5H6N2O2/c8-3-4-9-5-1-2-6-7-5/h1-3H,4H2,(H,6,7)
