17
gdb 35697	2.41112	1.55084	1.12333	3.6593	72.65	-0.2568	0.0093	0.2661	1097.161	0.136909	-417.974715	-417.966654	-417.965709	-418.007847	29.729	
N	-0.4241680488	-0.945795975	-0.7173238778	-0.333786
C	-0.2686529569	 0.1137648605	-0.2812996511	 0.301011
C	-0.0277913082	 1.4590347633	 0.2316961499	-0.190538
N	 0.2788005335	 1.5543307072	 1.6744948098	-0.315023
C	 1.3033836349	 2.5954787193	 1.416505777	-0.237075
C	 1.3567392198	 2.1403984312	-0.057245386	 0.422002
C	 2.5357905981	 1.3551694181	-0.6543407036	-0.3479
C	 2.4985609649	 2.4327105268	-1.7562191425	-0.079201
O	 1.4101424085	 3.1194505928	-1.0843794541	-0.304212
H	-0.8248138219	 2.1281784193	-0.1220318092	 0.121366
H	-0.5017689421	 1.8308785305	 2.2589638485	 0.23408
H	 0.9399412403	 3.630287805	 1.479004993	 0.112769
H	 2.2153629226	 2.4917922821	 2.0124748052	 0.115005
H	 3.4334821742	 1.3505007203	-0.0345556557	 0.121136
H	 2.3055568909	 0.3376016469	-0.9716472213	 0.145961
H	 3.3831076647	 3.0718235328	-1.8416454616	 0.114467
H	 2.2016480454	 2.0871909487	-2.7517773605	 0.11994
87.3513	97.0506	139.0929	200.3565	282.0347	372.0288	379.9376	481.6949	559.1189	574.4719	676.4548	787.9763	863.3646	876.4037	893.6099	915.4756	971.4319	985.1187	1017.5135	1017.9706	1067.3562	1123.6076	1140.925	1156.3457	1173.263	1201.3149	1224.6652	1244.1119	1288.9508	1308.773	1354.8367	1360.8887	1385.3095	1489.046	1510.1883	1531.8455	2351.4336	3008.1381	3013.9138	3040.2516	3078.1319	3086.4151	3089.8477	3147.0359	3540.9588
N#CC1NCC11CCO1	N#C[C@H]1NC[C@]21CCO2	
InChI=1S/C6H8N2O/c7-3-5-6(4-8-5)1-2-9-6/h5,8H,1-2,4H2	InChI=1S/C6H8N2O/c7-3-5-6(4-8-5)1-2-9-6/h5,8H,1-2,4H2/t5-,6+/m1/s1
