16
gdb 52546	4.36101	0.7295	0.6883	2.6845	79.01	-0.2712	-0.0429	0.2283	1679.3766	0.120584	-437.896273	-437.885953	-437.885008	-437.934229	33.996	
C	 0.0556860083	 1.3733674857	 0.1773138512	-0.508038
C	 0.1396962581	-0.067071211	 0.017000547	 0.210611
C	 0.2076714426	-1.2628274112	-0.1126379357	-0.043366
C	 0.2398978981	-2.6841620747	-0.3300120149	 0.268418
O	-0.2919679215	-3.2562664361	-1.2472914016	-0.35503
O	 0.9489972682	-3.2994154314	 0.6541965593	-0.227199
C	 1.1301042992	-4.6891931367	 0.5875113569	 0.380738
C	 1.9868043765	-5.141122769	-0.5611397634	-0.478902
N	 0.6319415805	-5.3476752308	 1.5354674867	-0.429912
H	 0.81901346	 1.7417252575	 0.8701320653	 0.163212
H	 0.1876260118	 1.8827439826	-0.782998714	 0.164368
H	-0.9253198964	 1.6575526594	 0.5733006964	 0.167775
H	 2.2012271906	-6.2084889746	-0.4833943666	 0.12952
H	 1.4755330365	-4.941690292	-1.5056898938	 0.177735
H	 2.9298991562	-4.5849332271	-0.5645167817	 0.147865
H	 0.8743745813	-6.3342053906	 1.4460150889	 0.232205
23.3279	44.7877	58.7899	84.3054	149.2103	168.1012	215.7325	305.4534	383.3738	394.9076	482.0794	502.6232	568.5317	597.9332	760.8053	806.2284	851.7613	933.2223	1002.8365	1045.6066	1053.6645	1061.3267	1073.2199	1090.7537	1260.1182	1324.1482	1401.4469	1409.9437	1468.7261	1468.8958	1472.6574	1489.0116	1768.0531	1794.9876	2362.3047	3034.5213	3050.2219	3099.2856	3103.3516	3123.2429	3146.6067	3494.317
CC#CC(=O)OC(C)=N	CC#CC(=O)O[C](C)[NH]	
InChI=1S/C6H7NO2/c1-3-4-6(8)9-5(2)7/h7H,1-2H3	InChI=1S/C6H7NO2/c1-3-4-6(8)9-5(2)7/h7H,1-2H3
