21
gdb 110684	4.67127	1.10668	1.05204	1.0038	83.03	-0.2454	0.0998	0.3453	1234.7822	0.184435	-387.047481	-387.039709	-387.038765	-387.079835	30.686	
C	 0.1985721845	 1.2908359064	 0.1737731245	-0.241227
O	-0.303721125	 0.0420876898	-0.2447819371	-0.256541
C	 0.4708997512	-0.5575033451	-1.247640653	 0.170981
C	 1.7315908752	-1.375563753	-0.8571076312	-0.114001
C	 0.7972115342	-2.4786813695	-0.2527820832	 0.008067
C	 1.4361910702	-3.8476587796	-0.4876698131	-0.244172
C	 1.9907576639	-3.6384710345	-1.925136901	-0.237881
C	 1.538902464	-2.1980741822	-2.1721520774	-0.005531
C	 0.1039620835	-2.0099193279	-1.5786707152	-0.111958
H	 1.1951881804	 1.2033562933	 0.6320210883	 0.105673
H	 0.2680507423	 2.0022111583	-0.6644424898	 0.102924
H	-0.4964709563	 1.6900400009	 0.9164684191	 0.125242
H	 0.5914943584	 0.1278294243	-2.1011165585	 0.054107
H	 2.6791578862	-1.018349209	-0.4481117581	 0.060938
H	 0.2977745969	-2.282222868	 0.6938248178	 0.075376
H	 2.2231353935	-4.0656860111	 0.2416571693	 0.095307
H	 0.7039528076	-4.6595287357	-0.4304157268	 0.096506
H	 3.0792406008	-3.7419645834	-1.9794366366	 0.095741
H	 1.5594333944	-4.3342097795	-2.6520962593	 0.096504
H	 1.7810498388	-1.7324657074	-3.1300374529	 0.058305
H	-0.8342435448	-2.3784208372	-1.9979882558	 0.06564
84.5241	167.1743	173.2078	239.8233	283.3223	332.5934	455.3127	528.0563	702.644	720.6768	747.5398	802.4343	831.9142	859.0341	920.5407	927.562	949.9735	957.7506	974.946	998.1321	1024.9994	1043.4265	1069.499	1083.4394	1107.2063	1133.8562	1150.2605	1177.9029	1184.9452	1209.5354	1213.8563	1231.349	1244.944	1251.3168	1271.1896	1281.1878	1284.4311	1316.0195	1369.259	1411.0337	1483.8906	1488.7918	1489.3642	1509.7525	1510.2829	2971.5158	2983.1618	3020.9406	3039.9286	3049.846	3072.427	3084.0209	3089.4745	3092.4306	3099.3015	3113.2673	3142.5377
COC1C2C3CCC2C13	CO[C@H]1[C@H]2[C@@H]3CC[C@H]2[C@H]13	
InChI=1S/C8H12O/c1-9-8-6-4-2-3-5(6)7(4)8/h4-8H,2-3H2,1H3	InChI=1S/C8H12O/c1-9-8-6-4-2-3-5(6)7(4)8/h4-8H,2-3H2,1H3/t4-,5+,6-,7+,8-
