23
gdb 75566	2.25984	1.58642	1.16385	0.3724	91.2	-0.2105	0.0258	0.2363	1190.3237	0.208272	-351.155809	-351.147147	-351.146203	-351.18878	34.527	
C	-0.0147595414	 1.5070547985	 0.1630110894	-0.484891
C	 0.0376892693	 0.0084188507	-0.0214398514	 0.346781
C	-0.1754623435	-0.5270038654	-1.2315008721	-0.176076
C	-0.1105085347	-1.9821331594	-1.6444742732	-0.265334
C	-0.9215008836	-3.0190061275	-0.8101942533	-0.197556
C	-1.480033673	-2.5513845447	 0.5433929025	-0.208085
C	-0.4788019494	-2.018142325	 1.5553263593	-0.012128
C	 1.0085550428	-2.0716654612	 1.3453320884	-0.313143
C	 0.286939712	-0.7391785578	 1.24505357	-0.092779
H	 0.9374171208	 1.8880649103	 0.5548434583	 0.121039
H	-0.2275741549	 2.0249405017	-0.7755019507	 0.115983
H	-0.7848315211	 1.7908362193	 0.8922554553	 0.120479
H	-0.3661791661	 0.1707501189	-2.044111309	 0.071251
H	-0.4421279045	-2.0483306885	-2.685466661	 0.096923
H	 0.9434466387	-2.2892242835	-1.6735798083	 0.11261
H	-1.7767949702	-3.356766012	-1.405979895	 0.095783
H	-0.3026512685	-3.9094205999	-0.6521067451	 0.097058
H	-2.2378814569	-1.7773993396	 0.3651515407	 0.102185
H	-2.0123625976	-3.3988366046	 0.9919770918	 0.091235
H	-0.810813338	-2.1075036201	 2.5861455092	 0.081559
H	 1.6453893992	-2.219526559	 2.2109158526	 0.10654
H	 1.3949402369	-2.5205788711	 0.4404271395	 0.117351
H	 0.4433698038	-0.0859985502	 2.0982908022	 0.073213
78.3932	155.6758	197.7066	251.1265	261.6035	294.3574	339.4341	367.458	462.0175	530.7092	612.9994	672.4516	728.7619	735.4072	785.0715	826.671	849.2833	868.7799	909.474	922.1361	963.8592	1026.5954	1036.7269	1056.6302	1070.1486	1078.3385	1100.0893	1115.8617	1135.4055	1158.0577	1171.4785	1219.939	1246.4887	1266.8886	1295.5645	1342.5751	1360.5466	1379.9893	1397.0682	1404.3666	1412.3504	1436.8811	1478.8115	1479.7018	1486.5566	1492.9779	1495.3408	1514.7917	1722.5522	3009.0991	3011.8346	3017.6549	3031.0758	3048.3525	3056.8263	3058.3975	3074.691	3112.1762	3133.3323	3139.8934	3142.1226	3150.694	3238.7542
CC1=CCCCC2CC12	CC1=CCCC[C@H]2C[C@@H]12	
InChI=1S/C9H14/c1-7-4-2-3-5-8-6-9(7)8/h4,8-9H,2-3,5-6H2,1H3	InChI=1S/C9H14/c1-7-4-2-3-5-8-6-9(7)8/h4,8-9H,2-3,5-6H2,1H3/t8-,9-/m0/s1
