12
gdb 21652	7.45929	1.3476	1.14251	2.0185	61.09	-0.2304	-0.0754	0.155	950.0137	0.086185	-410.879179	-410.872426	-410.871482	-410.91011	24.515	
N	-0.3650027838	 1.3168635234	 0.4133846013	-0.584746
C	-0.0457009472	 0.0119067667	 0.1230143944	 0.40167
N	-0.9131932652	-0.8273224586	-0.4592660726	-0.268944
N	-0.2110037897	-1.9778894609	-0.4823834928	-0.215609
C	 1.008728975	-1.801846055	 0.0581905995	 0.268051
C	 1.991234057	-2.8835449587	 0.1625016723	 0.091719
O	 1.7706235248	-4.0078838283	-0.2310026528	-0.280564
N	 1.1494193987	-0.5402333446	 0.4551391973	-0.346549
H	 0.436730223	 1.9227746974	 0.4993650714	 0.264938
H	-1.1069587709	 1.7016311915	-0.1515764706	 0.263691
H	-0.598599366	-2.8241963678	-0.8684330003	 0.296077
H	 2.9482418744	-2.5846414651	 0.630160813	 0.110265
122.0469	175.9103	262.9033	315.5772	355.5178	391.3518	525.122	581.526	599.4113	702.0663	746.1963	780.7364	804.583	1025.0838	1035.3808	1076.3871	1090.3574	1190.566	1307.4864	1369.5544	1422.5194	1483.6228	1556.927	1572.9263	1649.3386	1785.8809	2964.9731	3583.4562	3661.7368	3691.7442
NC1=NNC(C=O)=N1	Nc1n[nH]c(C=O)n1	
InChI=1S/C3H4N4O/c4-3-5-2(1-8)6-7-3/h1H,(H3,4,5,6,7)	InChI=1S/C3H4N4O/c4-3-5-2(1-8)6-7-3/h1H,(H3,4,5,6,7)
