14
gdb 28392	3.26327	1.46415	1.01292	2.9953	73.82	-0.19	-0.0445	0.1456	1087.9449	0.102102	-470.063015	-470.05514	-470.054196	-470.095092	30.278	
N	 0.1167500638	 1.3582870188	 0.1899337675	-0.567234
C	-0.0640476218	-0.0063668927	 0.0587844503	 0.389082
C	-1.2257552164	-0.7004191759	 0.0057392299	-0.161854
N	-1.2523689853	-2.0738336574	-0.007833302	-0.312766
C	-0.1252358506	-2.7131590652	 0.0231598189	 0.234731
N	-0.0578078346	-4.0816028021	 0.0840054889	-0.551855
C	 1.1871953979	-2.0399268863	 0.0211915348	 0.388238
O	 2.2600355608	-2.5866703588	-0.027378294	-0.352698
O	 1.1247698958	-0.6662710804	 0.0567401499	-0.225236
H	 0.9585275057	 1.6999632034	-0.2552544691	 0.263751
H	-0.6954870865	 1.9049654157	-0.0570215873	 0.26256
H	-2.1784049983	-0.1859075988	-0.0171273682	 0.102217
H	-0.8926173645	-4.5785330603	-0.1829113683	 0.259935
H	 0.825421634	-4.48467674	-0.1876799013	 0.27113
111.2916	180.3755	243.2346	301.2238	343.5416	375.6881	415.5618	463.6517	492.2037	507.7244	540.4668	588.8173	616.5521	680.4075	718.1235	796.0964	812.0076	819.6896	1027.9696	1046.3525	1124.1252	1134.2352	1288.2431	1303.577	1390.4229	1431.8728	1575.3625	1625.5634	1649.5647	1682.9178	1821.4844	3199.5633	3552.6616	3584.9659	3661.6294	3710.5893
NC1=CN=C(N)C(=O)O1	Nc1cnc(N)c(=O)o1	
InChI=1S/C4H5N3O2/c5-2-1-7-3(6)4(8)9-2/h1H,5H2,(H2,6,7)	InChI=1S/C4H5N3O2/c5-2-1-7-3(6)4(8)9-2/h1H,5H2,(H2,6,7)
