18
gdb 103399	2.36358	1.54895	1.40873	2.9036	71.72	-0.2327	-0.0169	0.2157	1041.8355	0.145608	-439.051946	-439.042946	-439.042002	-439.085492	32.978	
C	 0.1245576852	 1.3215562776	 0.0887600027	-0.26423
O	 0.0038168773	-0.0763881224	-0.1422064656	-0.288181
C	-1.3046142585	-0.593154984	-0.0615137894	 0.279182
C	-2.253721161	-0.040795576	-1.1227128234	-0.468004
C	-1.3171735861	-2.1196647956	 0.0492017371	-0.064223
C	-0.6492801263	-2.5748467043	 1.2697026737	-0.252838
N	-2.060993873	-2.0814238924	 1.398746447	-0.180782
C	-1.9493954771	-0.6358628528	 1.3584371141	 0.353668
O	-2.3287447607	 0.1730101092	 2.1481879318	-0.312198
H	 1.194219094	 1.5269567494	 0.1682652671	 0.131647
H	-0.2842052837	 1.9134084767	-0.7407791056	 0.114084
H	-0.3723611114	 1.6219014696	 1.01851928	 0.141977
H	-1.8095756816	-0.1669954654	-2.115140931	 0.131348
H	-3.2112100234	-0.5688423605	-1.0958031407	 0.137477
H	-2.454067406	 1.0206614604	-0.9587080597	 0.140249
H	-1.6624704368	-2.7891095243	-0.7289982087	 0.113022
H	-0.5758165141	-3.6418264968	 1.4504227802	 0.141152
H	 0.1504980429	-1.9773614783	 1.6956638705	 0.146651
101.2881	118.5841	153.2843	197.6654	214.4407	239.2344	294.3232	315.7919	394.5628	491.4399	530.2434	666.6202	679.4845	744.2412	784.698	855.2801	886.993	930.9388	978.4794	1025.4726	1048.6736	1081.3595	1116.6202	1134.8314	1153.6325	1181.3482	1184.3766	1216.7111	1238.3271	1267.5091	1367.9096	1400.1757	1475.3597	1482.8118	1487.3436	1501.8505	1504.7072	1514.3274	1904.0779	3009.9337	3042.9498	3075.6664	3117.6258	3125.2171	3127.7445	3130.8472	3196.3167	3223.1709
COC1(C)C2CN2C1=O	CO[C@@]1(C)[C@H]2CN2C1=O	
InChI=1S/C6H9NO2/c1-6(9-2)4-3-7(4)5(6)8/h4H,3H2,1-2H3	InChI=1S/C6H9NO2/c1-6(9-2)4-3-7(4)5(6)8/h4H,3H2,1-2H3/t4-,6+,7?/m1/s1
