17
gdb 128507	2.72621	1.2497	0.87402	2.7482	72.28	-0.2022	0.0252	0.2273	1290.7352	0.136577	-455.139651	-455.1306	-455.129655	-455.174351	31.916	
C	 0.0647680951	 1.4401019327	 0.0713291729	-0.250041
O	-0.0144692126	 0.0276276905	 0.0401405599	-0.27301
C	 0.5589577831	-0.5623668156	-1.0420630662	 0.181626
C	 0.6311135219	-1.9335375305	-1.2169713171	 0.27152
C	 0.1451836717	-3.0759470488	-0.3919884487	-0.199439
O	 0.9365327115	-4.2131899641	-0.7245148218	-0.426956
N	 1.2512040335	-2.1075512723	-2.4125054489	-0.233174
N	 1.6059192088	-0.9640668566	-3.0122054449	-0.233848
C	 1.1755013088	-0.0065914931	-2.186046287	-0.124765
H	 1.1079241154	 1.7836670737	 0.0647750419	 0.12301
H	-0.4614859764	 1.8900828778	-0.7813451469	 0.122172
H	-0.4144638571	 1.759674422	 0.9982808706	 0.13181
H	 0.2260044749	-2.8123280102	 0.6728639647	 0.118823
H	-0.9201977367	-3.2745447642	-0.5943320614	 0.109662
H	 0.5196090879	-4.9900461948	-0.3412944025	 0.294996
H	 1.5257310262	-2.9946052923	-2.7998613825	 0.278945
H	 1.327976314	 1.0306379057	-2.439967912	 0.108669
46.279	79.7781	147.4329	198.2301	216.7235	251.6222	276.2695	335.2131	372.2906	542.2726	586.6251	618.8341	683.1098	707.9828	753.7398	842.3767	955.6143	1034.0807	1055.0309	1080.0562	1137.3455	1181.1567	1193.6741	1209.9478	1216.783	1236.8367	1268.2715	1329.8999	1388.5091	1415.8041	1472.9916	1479.9748	1486.6853	1508.2952	1518.28	1552.6471	1646.0876	2961.5692	2998.4634	3005.7003	3054.6517	3131.7078	3256.3203	3677.344	3837.9987
COC1=C(CO)NN=C1	COc1c(CO)[nH]nc1	
InChI=1S/C5H8N2O2/c1-9-5-2-6-7-4(5)3-8/h2,8H,3H2,1H3,(H,6,7)	InChI=1S/C5H8N2O2/c1-9-5-2-6-7-4(5)3-8/h2,8H,3H2,1H3,(H,6,7)
