14
gdb 133341	3.19736	1.39499	0.97182	2.4583	71.38	-0.2009	-0.0419	0.159	1106.5002	0.102209	-474.164182	-474.156543	-474.155599	-474.196117	29.73	
N	 0.029639866	 1.404841377	 0.154144121	-0.594729
C	-0.0591112247	 0.036645406	 0.0560531872	 0.2288
C	-1.2075005396	-0.6926430979	 0.0370614338	-0.22855
C	-1.1894180756	-2.139871352	-0.0008930627	 0.40403
N	-2.2666223991	-2.8412765365	-0.0159640088	-0.575579
N	 0.1108236855	-2.6726719311	-0.0200157994	-0.325729
N	 1.2703199881	-1.9862854782	-0.0211852885	-0.250026
C	 1.1769237051	-0.7154552237	 0.0179930249	 0.314376
F	 2.3115517316	-0.0084113955	 0.0096152502	-0.077566
H	 0.9018064128	 1.8174967565	-0.1351097357	 0.267274
H	-0.7914939138	 1.9369631187	-0.0859680588	 0.263826
H	-2.1843732042	-0.2256813313	 0.0557601462	 0.116226
H	-2.0646251202	-3.8416072159	-0.0445603071	 0.192489
H	 0.2309267781	-3.672912006	-0.0541904122	 0.265157
104.2902	193.586	302.2839	356.8936	366.9323	370.7901	411.9639	461.1985	484.0288	527.7845	548.8934	597.0361	673.7006	724.8199	740.274	768.9379	790.8709	884.2531	951.5837	1088.6461	1137.6539	1218.7247	1274.6107	1291.1248	1363.5489	1457.3539	1488.1364	1622.7014	1644.9286	1694.4547	1717.5164	3212.9706	3461.4271	3593.1769	3631.7815	3705.6788
NC1=CC(=N)NN=C1F	N[C@@H]1C=C([NH])NN=C1F	
InChI=1S/C4H5FN4/c5-4-2(6)1-3(7)8-9-4/h1H,(H4,6,7,8)	InChI=1S/C4H6FN4/c5-4-2(6)1-3(7)8-9-4/h1-2,7-8H,6H2/t2-/m1/s1
