16
gdb 61790	4.07684	0.79619	0.7511	3.4548	66.68	-0.26	-0.031	0.2289	1468.857	0.120876	-475.028232	-475.01828	-475.017336	-475.064014	34.204	
O	-0.0165490038	 1.5870532307	-0.1169045704	-0.425142
C	 0.0405493658	 0.1801943581	-0.0458783672	 0.123896
C	 0.6697346445	-0.4259114767	-1.3087291017	-0.315247
C	-0.0431761413	 0.0613725807	-2.5566417087	 0.169908
O	 0.5141247049	 0.4245259831	-3.5572145674	-0.232991
C	 0.8075213277	-0.2591963774	 1.2204214948	-0.047109
O	 2.0914989195	 0.338248931	 1.1251018762	-0.427483
C	 0.1098871595	 0.1723074039	 2.445339289	 0.264678
N	-0.4042480731	 0.482602965	 3.4321940412	-0.3061
H	 0.8874300934	 1.9117662198	-0.0132901006	 0.29959
H	-0.9966314664	-0.1602720887	 0.0497008078	 0.115704
H	 1.7316198543	-0.179010792	-1.3842752995	 0.141545
H	 0.5758851051	-1.521540691	-1.2778350419	 0.123637
H	-1.1553220122	 0.0408922854	-2.4899257859	 0.079937
H	 0.8774450739	-1.356906168	 1.2432408472	 0.12422
H	 2.5529585982	 0.2420816861	 1.9647086471	 0.310959
55.5736	74.2286	94.626	130.1908	190.0709	226.2478	286.6815	288.0399	327.3436	394.6469	434.5456	454.3381	564.7998	609.1839	725.2905	779.1244	871.5929	940.9506	975.9025	1031.7073	1076.3257	1088.743	1131.3433	1193.1648	1205.9975	1266.4053	1335.1031	1345.8959	1368.8976	1397.262	1426.8352	1435.4032	1461.1922	1844.0445	2359.3903	2869.7056	3000.9841	3016.1884	3059.1283	3115.0388	3779.3605	3826.9803
OC(CC=O)C(O)C#N	O[C@@H](CC=O)[C@@H](O)C#N	
InChI=1S/C5H7NO3/c6-3-5(9)4(8)1-2-7/h2,4-5,8-9H,1H2	InChI=1S/C5H7NO3/c6-3-5(9)4(8)1-2-7/h2,4-5,8-9H,1H2/t4-,5-/m0/s1
