16
gdb 37142	3.22543	1.73188	1.71195	2.6377	66.07	-0.2499	0.058	0.3079	856.7818	0.126366	-437.789813	-437.783393	-437.782449	-437.820402	26.048	
C	 0.0089266152	 1.5341299877	 0.1463732305	-0.122448
O	 1.3798638158	 1.931495327	 0.0156302926	-0.258982
C	 2.09336793	 0.9964297586	-0.8035332495	-0.122448
C	 1.3553821966	-0.3099528196	-0.6482428291	 0.138172
N	 1.028677738	-0.6847661353	 0.725954071	-0.35656
C	 0.0114140373	 0.0367383262	-0.0357724137	 0.138172
C	-0.6695420622	-0.8340602063	-1.086939557	-0.051449
O	-0.3026390899	-0.347760978	-2.3861997435	-0.227838
C	 0.6387807459	-1.171562124	-1.683155854	-0.051449
H	-0.3259446297	 1.8778557454	 1.1287423169	 0.117813
H	-0.6213439315	 1.9894579006	-0.6313316155	 0.107044
H	 2.0804595282	 1.2925129539	-1.862569423	 0.107045
H	 3.1259449552	 0.9873977898	-0.4443158325	 0.117813
H	 0.8080610909	-1.6746259932	 0.8021943186	 0.238059
H	-1.5824363729	-1.4137343598	-1.0188775936	 0.113528
H	 0.9727273332	-2.0728744231	-2.1833018781	 0.113528
177.0414	209.4508	251.0925	400.7536	451.7076	538.7528	610.1851	660.9866	675.0979	771.8965	810.6627	841.025	844.3232	879.7599	914.1971	952.6246	985.7523	1030.0337	1046.9406	1059.7834	1079.3258	1093.2523	1120.5622	1195.4675	1222.5891	1226.9087	1247.1562	1283.4029	1293.5916	1340.8499	1379.4511	1389.2942	1402.8099	1498.2867	1509.8303	3001.9984	3007.2133	3088.799	3091.2129	3184.9945	3199.4734	3499.5634
C1OCC23NC12C1OC31	C1OC[C@@]23N[C@@]12[C@H]1O[C@@H]31	
InChI=1S/C6H7NO2/c1-5-3-4(9-3)6(5,7-5)2-8-1/h3-4,7H,1-2H2	InChI=1S/C6H7NO2/c1-5-3-4(9-3)6(5,7-5)2-8-1/h3-4,7H,1-2H2/t3-,4+,5+,6-
