22
gdb 95636	2.14874	1.51163	1.09728	2.5422	81.71	-0.2099	-0.0134	0.1965	1208.5909	0.195329	-404.374817	-404.365497	-404.364553	-404.408639	35.594	
C	-0.0424238374	 1.5752396981	-0.0554973377	-0.412086
C	 0.04040842	 0.0452526287	-0.0309302645	 0.004023
C	 0.6627557448	-0.5221279756	-1.3206144698	-0.169515
N	 0.7045473993	-1.9842829513	-1.3683178401	-0.288658
C	 1.4107126648	-2.5594969983	-0.2182066295	-0.265098
C	 0.9111454356	-2.0327337603	 1.1291757632	 0.369928
O	 0.6513483956	-2.7688752394	 2.0538554801	-0.318772
C	 0.7624028124	-0.5127756852	 1.2283944303	-0.072921
C	 2.1503761396	 0.1083698564	 1.4975965905	-0.416221
H	 0.9418173669	 2.0335988109	-0.196090039	 0.120567
H	-0.6816127583	 1.9131179982	-0.8778835393	 0.115511
H	-0.4640652222	 1.9667579995	 0.8763941738	 0.117011
H	-0.9894448947	-0.3405413816	 0.0107114814	 0.073583
H	 0.1001523643	-0.165976407	-2.1907274163	 0.102535
H	 1.6894977559	-0.1504042245	-1.4421468528	 0.105582
H	-0.2458694672	-2.3439334513	-1.3822370631	 0.22023
H	 1.3160661213	-3.6479316543	-0.2230975033	 0.123427
H	 2.4795826272	-2.3203816926	-0.3166597293	 0.121422
H	 0.1384667807	-0.3268359355	 2.1096770044	 0.087844
H	 2.8334848944	-0.0069791953	 0.6506640105	 0.121234
H	 2.0620866512	 1.1765302763	 1.7116449014	 0.126564
H	 2.6125511758	-0.3673522557	 2.3676115891	 0.133808
74.8205	118.2647	196.6804	221.8782	229.8398	282.0046	289.6823	301.9662	403.3439	422.749	474.1871	535.4789	574.8321	662.6052	775.5783	795.4239	822.5136	896.7293	925.1704	941.9242	988.4487	996.8154	1022.1134	1062.6754	1094.9938	1141.2851	1153.698	1169.3208	1203.8116	1248.8604	1296.147	1319.6162	1324.3085	1345.4332	1350.4353	1373.5794	1395.3592	1403.0616	1413.3229	1458.8942	1483.034	1490.285	1494.7836	1498.2408	1503.5599	1510.8675	1810.42	2985.8196	3007.8539	3018.3695	3031.1619	3044.5626	3046.2733	3067.3423	3098.1903	3101.3125	3107.4236	3113.1065	3119.2527	3499.7647
CC1CNCC(=O)C1C	C[C@H]1CNCC(=O)[C@H]1C	
InChI=1S/C7H13NO/c1-5-3-8-4-7(9)6(5)2/h5-6,8H,3-4H2,1-2H3	InChI=1S/C7H13NO/c1-5-3-8-4-7(9)6(5)2/h5-6,8H,3-4H2,1-2H3/t5-,6-/m0/s1
