17
gdb 115441	3.66008	1.0437	0.92788	1.6372	69.69	-0.2578	0.0257	0.2835	1266.684	0.134938	-458.913837	-458.905067	-458.904123	-458.948203	31.959	
O	 0.2917240041	 1.2047159039	 0.2226801253	-0.421617
C	 0.0047522165	-0.147618436	-0.055519434	-0.063224
C	-1.4984682161	-0.4109582738	-0.0666581012	 0.092067
C	-1.8719081632	-1.9040536709	-0.1084049216	-0.147042
O	-2.0994574075	-2.2253357839	 1.2620988172	-0.226089
C	-2.6701766111	-1.0660457283	 1.8172700498	-0.013908
O	-2.0256253796	 0.0366649936	 1.1983157198	-0.278948
C	-4.1289569393	-1.0093515032	 1.6087853678	 0.342233
C	-5.3192657993	-0.9704915805	 1.4511796563	-0.446818
H	-0.1950127753	 1.4198251289	 1.0274918619	 0.292616
H	 0.4273810584	-0.3688211703	-1.0421752353	 0.107989
H	 0.4746160145	-0.8264410162	 0.6755305463	 0.09398
H	-1.9770969472	 0.1630044496	-0.8672090869	 0.098001
H	-2.7746225485	-2.0798706461	-0.7063913001	 0.116479
H	-1.0649362534	-2.5447385624	-0.4716386687	 0.125226
H	-2.436838912	-1.0551645442	 2.8867458685	 0.123997
H	-6.3724663509	-0.9345072701	 1.3155567851	 0.20506
37.4843	107.0148	124.3344	186.9842	230.4122	292.0296	368.9151	445.9043	467.0064	536.8796	561.4103	663.335	673.7909	750.442	796.7831	825.9047	916.8852	942.1104	974.8987	1003.1398	1029.252	1054.1008	1097.169	1132.1959	1148.7147	1220.4275	1243.0709	1302.1901	1321.1913	1350.2606	1370.8995	1379.0407	1402.8137	1438.6815	1499.891	1509.4199	2235.0506	2971.7441	3027.6263	3054.3103	3066.1534	3072.183	3107.8003	3499.5904	3791.6043
OCC1COC(O1)C#C	OC[C@H]1CO[C@@H](O1)C#C	
InChI=1S/C6H8O3/c1-2-6-8-4-5(3-7)9-6/h1,5-7H,3-4H2	InChI=1S/C6H8O3/c1-2-6-8-4-5(3-7)9-6/h1,5-7H,3-4H2/t5-,6-/m0/s1
