17
gdb 58077	1.84158	1.47169	1.29215	3.0295	72.68	-0.304	-0.0127	0.2912	1117.8088	0.133399	-418.033015	-418.022991	-418.022047	-418.067561	35.933	
C	 0.0840638752	 1.5584227846	-0.0539932307	-0.44389
C	 0.033710502	 0.0357631873	 0.0022069617	 0.123072
O	 0.7439554592	-0.4888397736	 1.0991888657	-0.424643
C	-1.442744614	-0.5458807905	 0.0110935097	-0.091626
C	-1.4018448875	-2.0955657627	-0.0199336401	-0.414453
C	-2.1004310749	-0.0924851582	 1.2484975939	 0.292382
N	-2.5465252001	 0.2575877626	 2.2551017526	-0.330919
C	-2.1818626451	-0.0474084246	-1.1580622022	 0.299088
N	-2.7225775717	 0.3237127328	-2.1089015309	-0.328698
H	 1.1279538125	 1.8808524257	-0.0575085907	 0.140925
H	-0.4032144315	 1.9423787042	-0.9536689104	 0.156206
H	-0.4124899769	 1.99930056	 0.8178424216	 0.141838
H	 0.5070000342	-0.3896984984	-0.8889872397	 0.118838
H	 0.4860594806	-0.0010000516	 1.8912907181	 0.300105
H	-0.7854125519	-2.4457886579	 0.8081124208	 0.163397
H	-2.4066270124	-2.5127434242	 0.0634668215	 0.152547
H	-0.9592113874	-2.4248736956	-0.963001301	 0.14583
83.1792	127.8221	139.8324	164.4751	224.1376	235.354	245.483	266.2423	358.3407	376.622	396.2726	467.1672	501.8752	530.2455	581.7091	626.7007	674.7305	864.6425	924.1722	944.7068	1028.1082	1070.9559	1095.2384	1135.5025	1175.519	1201.2536	1314.8066	1351.5124	1404.9835	1412.2059	1425.2487	1487.5864	1492.0696	1493.4851	1494.6121	2357.124	2362.8376	3041.3474	3062.6233	3065.2257	3117.3566	3136.2103	3144.5957	3165.9347	3785.1989
CC(O)C(C)(C#N)C#N	C[C@@H](O)C(C)(C#N)C#N	
InChI=1S/C6H8N2O/c1-5(9)6(2,3-7)4-8/h5,9H,1-2H3	InChI=1S/C6H8N2O/c1-5(9)6(2,3-7)4-8/h5,9H,1-2H3/t5-/m1/s1
