16
gdb 12876	2.72546	2.33592	1.81028	2.7453	64.91	-0.2321	0.0023	0.2344	796.7003	0.130475	-383.723966	-383.716817	-383.715873	-383.754724	28.464	
O	 0.0455398817	 1.3816030113	 0.1264279334	-0.426067
C	-0.0302671683	-0.0014510427	-0.0110099501	 0.097927
C	-1.3461167097	-0.7575246519	-0.0380871794	-0.185724
C	-2.6016728089	 0.0436992406	-0.3684538527	-0.279233
C	-2.3496364892	 0.5653557	-1.7695049942	-0.085377
C	-1.1804235287	 0.1424943515	-2.2623029761	-0.191442
C	-0.4303922842	-0.6977303036	-1.2801327341	 0.318362
O	 0.3747131125	-1.7415351668	-1.726804215	-0.464117
H	-0.4024325131	 1.7757658415	-0.632874953	 0.283556
H	 0.769593993	-0.4893576426	 0.5371326671	 0.115255
H	-1.4192827548	-1.6615909532	 0.5553550665	 0.090051
H	-3.5127832439	-0.5654671712	-0.3230262353	 0.112087
H	-2.744223794	 0.871053423	 0.3398814144	 0.125797
H	-3.0413827398	 1.2296488846	-2.2757654504	 0.102894
H	-0.7710665024	 0.3793093581	-3.2380821043	 0.1053
H	-0.1944803703	-2.3957288086	-2.1489226168	 0.28073
189.7417	214.1439	267.7892	308.2755	328.5798	382.4011	398.434	546.8782	585.1804	614.7392	728.4627	746.1094	776.0134	859.1192	885.2592	926.968	945.1641	969.3161	1000.8536	1048.5759	1052.7445	1098.4596	1138.8718	1180.6895	1213.719	1243.6231	1284.8914	1314.7119	1329.5034	1364.8005	1385.8325	1457.6692	1472.8665	1656.3932	3020.4774	3049.8275	3167.2743	3180.6968	3185.4095	3209.5039	3761.7488	3780.3301
OC1C2CC=CC12O	O[C@H]1[C@H]2CC=C[C@@]12O	
InChI=1S/C6H8O2/c7-5-4-2-1-3-6(4,5)8/h1,3-5,7-8H,2H2	InChI=1S/C6H8O2/c7-5-4-2-1-3-6(4,5)8/h1,3-5,7-8H,2H2/t4-,5+,6+/m1/s1
