14
gdb 10295	8.53976	0.35784	0.34407	7.0253	62.28	-0.2791	-0.0446	0.2344	2975.3783	0.09901	-415.913664	-415.900539	-415.899595	-415.96373	36.4	
N	 0.6619653173	 0.5434878312	-2.9930822041	-0.698113
H	 0.6017466904	-0.4551772132	-3.1737309931	 0.246501
H	 1.6157048174	 0.8121062282	-3.2207066943	 0.24634
H	 0.0729782311	 0.9889867398	-3.6918537741	 0.246787
C	-0.280991052	 1.3951148227	 0.2294356392	-0.299501
C	 0.4755294857	 0.9692763466	 1.2442149656	-0.126541
C	 0.1877724284	 1.2542981527	 2.6112888929	 0.285396
N	-0.0261310763	 1.4732074831	 3.7278768906	-0.345835
C	-0.6489433642	 2.075450424	 6.5736573215	 0.600799
O	 0.2930824349	 1.4932740644	 6.928409294	-0.305752
O	-1.5998507509	 2.6661306161	 6.2586175586	-0.306263
H	-1.1693578435	 1.9914486256	 0.4094030436	 0.132796
H	-0.0233705955	 1.1534791312	-0.8001630982	 0.187027
H	 1.3657361373	 0.3720489177	 1.0691879078	 0.13636
1.4779	6.9357	11.4218	27.5755	36.5707	48.8484	63.549	97.3191	114.7021	179.785	186.7212	257.9788	390.7025	588.8232	677.0254	692.8262	740.4226	897.7169	1013.6442	1056.6958	1110.3179	1117.9032	1318.728	1379.3859	1467.6511	1674.8045	1680.0383	1680.2844	2343.4033	2437.0228	3118.5701	3176.126	3231.1681	3466.8541	3583.4074	3583.9168
[NH3+]CC(C#N)C([O-])=O	N.C=CC#N.C(=O)=O	
InChI=1S/C4H6N2O2/c5-1-3(2-6)4(7)8/h3H,1,5H2,(H,7,8)	InChI=1S/C3H3N.CO2.H3N/c1-2-3-4;2-1-3;/h2H,1H2;;1H3
