15
gdb 78066	2.45408	1.34163	1.22838	3.5083	67.58	-0.2477	-0.0412	0.2065	1067.5996	0.110636	-457.748582	-457.740336	-457.739392	-457.781894	29.933	
O	-0.0393828657	 1.4633507452	 0.2122284509	-0.418419
C	-0.0058022951	 0.0756347994	 0.0060198563	-0.013009
C	-1.3504231697	-0.6427341866	 0.062104485	-0.08332
C	-2.2581653847	-0.265996764	-1.0723507724	-0.119345
C	-2.3227842376	 1.0790145721	-1.7266509228	 0.164883
O	-3.3661490961	 1.574152342	-2.0696962994	-0.261147
C	-1.1224493179	-1.266116104	-1.3352451524	-0.205001
C	 0.1853680241	-0.5301349596	-1.4247954982	 0.362882
O	 1.1034030177	-0.530340979	-2.193699927	-0.309716
H	 0.8443028451	 1.8131395686	 0.0512400744	 0.300812
H	 0.7189637048	-0.4210837436	 0.6707048736	 0.10845
H	-1.7466000706	-1.1396399623	 0.937539362	 0.120851
H	-3.234899988	-0.7402750799	-1.0285679606	 0.124923
H	-1.3537485237	 1.5909888982	-1.883339634	 0.097904
H	-1.3467823225	-2.2563597765	-1.7107937754	 0.129252
65.8376	114.8708	171.5127	217.9287	272.0589	302.2303	322.2573	448.6085	484.1048	586.9428	644.1381	701.4283	775.6401	834.7718	863.8337	919.9617	971.7604	983.9976	1015.2455	1033.4656	1087.1447	1100.9254	1147.5991	1178.3632	1190.5491	1262.1116	1292.4303	1316.5297	1361.149	1420.0993	1450.3536	1820.563	1885.2816	2950.3419	2986.2438	3160.9716	3202.3506	3213.0921	3807.0866
OC1C2C(C=O)C2C1=O	O[C@H]1[C@H]2[C@@H](C=O)[C@H]2C1=O	
InChI=1S/C6H6O3/c7-1-2-3-4(2)6(9)5(3)8/h1-5,8H	InChI=1S/C6H6O3/c7-1-2-3-4(2)6(9)5(3)8/h1-5,8H/t2-,3+,4-,5+/m1/s1
