14
gdb 52071	2.65737	1.11255	0.93462	6.3567	63.82	-0.2923	-0.0153	0.277	1236.7698	0.098639	-473.817628	-473.808922	-473.807978	-473.852339	29.677	
O	 0.248050413	 0.3357502086	 0.7154960217	-0.25474
C	 0.3755713823	 1.5086256409	 0.5616412926	 0.185346
O	 0.8184433498	 2.040024342	-0.6086864591	-0.174399
C	 0.984103452	 3.4517181095	-0.6604860748	-0.17629
C	 2.3823211433	 3.8507231277	-0.2311155426	 0.236352
C	 2.6016708048	 5.0945158085	 0.5360842892	-0.201957
O	 2.6088227316	 3.8249718544	 1.181277411	-0.239238
C	 3.4692703542	 3.3309059465	-1.0429212999	 0.27279
N	 4.322215538	 2.9356414234	-1.7139186397	-0.312046
H	 0.1452942276	 2.2789598948	 1.3204732988	 0.093607
H	 0.7990114404	 3.7478326622	-1.6957832591	 0.151113
H	 0.2618183836	 3.9578488319	-0.0094195506	 0.128961
H	 3.5654424578	 5.5928492459	 0.4670318699	 0.153853
H	 1.7469085316	 5.7325424637	 0.7540201625	 0.136647
48.1933	69.1042	132.2479	164.8121	226.4126	263.1005	320.1406	376.0729	433.7964	571.1361	581.107	671.2724	728.8077	842.6135	915.1085	965.6161	1000.5135	1033.1818	1066.9229	1125.8466	1137.8971	1174.4523	1258.8651	1304.8045	1365.6965	1408.0127	1432.6124	1481.3477	1520.2986	1881.5873	2366.6227	2973.7274	3044.0086	3098.0526	3116.2407	3197.134
O=COCC1(CO1)C#N	O=COC[C@]1(CO1)C#N	
InChI=1S/C5H5NO3/c6-1-5(3-9-5)2-8-4-7/h4H,2-3H2	InChI=1S/C5H5NO3/c6-1-5(3-9-5)2-8-4-7/h4H,2-3H2/t5-/m0/s1
