15
gdb 127020	6.76612	0.84351	0.75714	3.3407	64.46	-0.2497	0.0082	0.2579	1447.5327	0.112257	-491.087936	-491.079603	-491.078659	-491.121691	29.563	
C	 0.0202171085	 1.4650268861	-0.0682427742	-0.392199
C	-0.0201689449	-0.0480535183	-0.0222820496	-0.061552
O	 0.7234841573	-0.5314803632	-1.1699766561	-0.258177
C	 0.8193720918	-1.8294991169	-1.3312041438	 0.545711
N	 1.4480899851	-2.4267504118	-2.3035009468	-0.45414
C	 1.2274115548	-3.7389657795	-1.978575388	 0.458105
O	 1.7039747878	-4.7360427059	-2.7214108574	-0.398642
N	 0.5233874757	-3.9776716853	-0.8994930804	-0.223368
O	 0.2414414304	-2.6479832457	-0.4521264846	-0.222439
H	 1.0499246997	 1.8283158814	-0.019318293	 0.140851
H	-0.4378972149	 1.8386266685	-0.9876027961	 0.14085
H	-0.5319993638	 1.8699681763	 0.7845839057	 0.13239
H	 0.4428505274	-0.4437164369	 0.8869797784	 0.136404
H	-1.0428297512	-0.4334429154	-0.0799962623	 0.136407
H	 2.1846715364	-4.3342212235	-3.4555562819	 0.319798
54.719	86.4344	146.7813	229.0148	259.8656	344.8567	371.9944	378.2679	416.7461	560.5003	697.5861	718.4051	780.5962	787.7078	814.936	908.2744	918.7552	1032.7589	1038.6925	1120.8926	1137.2561	1179.7156	1225.772	1298.3761	1368.9972	1393.945	1420.2621	1471.6582	1484.0317	1497.3488	1518.1578	1652.425	1682.2192	3051.7371	3052.5848	3096.2541	3128.5273	3135.8496	3812.2518
CCOC1=NC(O)=NO1	CCOc1nc(O)no1	
InChI=1S/C4H6N2O3/c1-2-8-4-5-3(7)6-9-4/h2H2,1H3,(H,6,7)	InChI=1S/C4H6N2O3/c1-2-8-4-5-3(7)6-9-4/h2H2,1H3,(H,6,7)
