16
gdb 87014	2.08574	1.65826	1.08717	1.7774	71.96	-0.265	-0.0458	0.2191	1110.5998	0.121973	-437.909017	-437.900044	-437.8991	-437.942721	32.868	
C	 0.0613004555	 1.3540062516	 0.4775741852	-0.50152
C	-0.0261879391	-0.0115368142	-0.1538064943	 0.370618
O	 0.9388517326	-0.5481432136	-0.6769969487	-0.356725
C	-1.3326111983	-0.7324403136	-0.1011085563	-0.025154
C	-1.6104824149	-1.7434915366	-1.239077209	-0.344854
C	-1.2012736148	-2.3212132331	 0.0514018642	 0.138147
O	 0.0177784501	-2.8863511155	 0.2785497822	-0.399112
C	-2.4541054699	-0.0994321423	 0.5230574721	 0.2151
N	-3.3650625599	 0.4023486084	 1.0326656345	-0.345268
H	 1.0762562249	 1.7374859834	 0.3748457593	 0.149651
H	-0.6514782141	 2.0392603109	 0.0064693127	 0.162961
H	-0.2149279002	 1.2993372897	 1.5362209263	 0.166266
H	-2.6457000067	-1.8256907486	-1.5491571729	 0.152814
H	-0.8742158516	-1.7195188384	-2.0354923334	 0.153665
H	-1.9656843956	-2.7482923863	 0.6913904886	 0.148911
H	 0.6779020219	-2.3707860717	-0.2196180707	 0.314501
82.2933	136.3519	143.3103	164.4533	223.1428	253.0739	351.9791	418.027	472.6233	509.4548	536.4124	560.8517	599.5781	635.9851	638.8636	704.4456	851.3484	922.0813	971.422	996.9017	1052.1002	1082.1845	1104.7606	1141.7913	1209.9258	1258.905	1312.1576	1374.189	1392.347	1448.9379	1455.0545	1469.6025	1483.859	1745.2676	2339.9182	3043.9119	3104.5981	3140.5354	3162.4104	3187.6986	3240.1971	3616.8061
CC(=O)C1(CC1O)C#N	CC(=O)[C@]1(C[C@H]1O)C#N	
InChI=1S/C6H7NO2/c1-4(8)6(3-7)2-5(6)9/h5,9H,2H2,1H3	InChI=1S/C6H7NO2/c1-4(8)6(3-7)2-5(6)9/h5,9H,2H2,1H3/t5-,6+/m1/s1
