16
gdb 7742	3.53116	1.80804	1.23347	5.5506	70.19	-0.2142	-0.0043	0.2099	944.9022	0.133532	-379.977989	-379.970717	-379.969772	-380.009213	28.246	
N	 0.0430116718	 1.4027453725	 0.0749784575	-0.567788
C	-0.0146455622	 0.0277502575	 0.0665201537	 0.365571
C	-1.1638796395	-0.6822210634	 0.0587227861	-0.287338
C	-1.1888130453	-2.1481768993	 0.0408770051	 0.393713
O	-2.2124962698	-2.8015078011	-0.0904046299	-0.3981
N	 0.0511723866	-2.767786696	 0.1419241885	-0.337012
C	 1.1795190692	-2.065587457	 0.7288662903	-0.169758
C	 1.3158312828	-0.6862022706	 0.0827738014	-0.290101
H	 0.8969552163	 1.8314543436	-0.245244753	 0.254072
H	-0.7909319231	 1.8998410528	-0.1991080555	 0.258176
H	-2.1341084622	-0.2009582199	 0.008361653	 0.085167
H	-0.025983061	-3.7591519934	 0.3186697652	 0.238445
H	 1.0635738789	-1.9397445577	 1.8179842746	 0.105537
H	 2.0894738732	-2.649484178	 0.5612900281	 0.10975
H	 1.6762325488	-0.7888476451	-0.9500488555	 0.128089
H	 2.0563345155	-0.093131835	 0.6304984103	 0.111577
139.6483	170.3764	244.3511	330.8476	380.3723	435.7093	472.7305	499.2267	511.0147	569.4568	577.6495	693.5474	750.6416	809.6097	862.6957	912.0894	944.3515	1006.1964	1081.4368	1107.2099	1129.1725	1217.5242	1249.3931	1278.6897	1309.3558	1353.7949	1401.0859	1424.8841	1459.3813	1471.2147	1514.9076	1647.5401	1691.445	1769.5545	2966.2053	3017.3724	3071.9873	3075.7429	3193.8713	3577.8873	3606.3513	3687.0759
NC1=CC(=O)NCC1	NC1=CC(=O)NCC1	
InChI=1S/C5H8N2O/c6-4-1-2-7-5(8)3-4/h3H,1-2,6H2,(H,7,8)	InChI=1S/C5H8N2O/c6-4-1-2-7-5(8)3-4/h3H,1-2,6H2,(H,7,8)
