20
gdb 16170	3.99789	1.61933	1.3904	1.226	74.37	-0.2242	0.0862	0.3104	985.5699	0.177935	-349.003626	-348.99578	-348.994836	-349.035615	30.342	
C	-0.2488165661	 1.4941445875	-0.0239554983	-0.374235
C	-0.0037390316	-0.0173542706	 0.0591346402	-0.260274
C	 0.8031715042	-0.5448577377	-1.097298221	 0.481979
C	 0.1821430069	-0.8956501569	-2.4305211603	-0.359733
C	 0.8426503184	-1.969281081	-1.5758891827	-0.125282
C	 2.3053151516	-2.2728993282	-1.853052749	-0.237701
C	 2.9419266053	-0.8652740374	-1.9023876888	-0.093888
O	 2.1112548128	-0.0111374708	-1.1197847784	-0.30129
H	 0.7005190406	 2.0352508577	-0.0557930675	 0.134672
H	-0.8114942837	 1.751134466	-0.9275467138	 0.113555
H	-0.8173832663	 1.8481912397	 0.841336509	 0.105646
H	 0.5247992361	-0.2568056236	 0.9902503981	 0.101176
H	-0.9594507926	-0.5532548359	 0.0882431154	 0.094164
H	-0.9016313644	-0.9098544605	-2.4829456194	 0.109539
H	 0.6647735415	-0.5755744162	-3.3482126735	 0.111413
H	 0.2232751176	-2.7375214153	-1.1267087353	 0.085918
H	 2.7187727182	-2.8628221987	-1.0279954884	 0.106683
H	 2.4796180929	-2.826706744	-2.7808430654	 0.103022
H	 3.9524107608	-0.8274105872	-1.485680307	 0.107731
H	 2.9932202779	-0.4995342969	-2.9376532539	 0.096906
93.6003	149.8096	199.7791	222.7077	275.5774	362.2841	420.4571	426.2282	641.9965	662.89	708.073	780.9085	824.7472	865.5437	877.8074	922.0702	933.7138	967.8628	981.2333	1012.6681	1034.8878	1054.7251	1089.9596	1102.0187	1115.9547	1141.1238	1218.2838	1229.9306	1235.8104	1268.3453	1310.1467	1322.8191	1362.7065	1393.9752	1406.0389	1416.0396	1474.3951	1485.2997	1495.1575	1497.4771	1510.5946	1528.3524	2998.7625	3027.4367	3039.2483	3043.3207	3066.3758	3078.2261	3090.5851	3105.5838	3122.3838	3127.1765	3169.8779	3211.5845
CCC12CC1CCO2	CC[C@]12C[C@H]1CCO2	
InChI=1S/C7H12O/c1-2-7-5-6(7)3-4-8-7/h6H,2-5H2,1H3	InChI=1S/C7H12O/c1-2-7-5-6(7)3-4-8-7/h6H,2-5H2,1H3/t6-,7+/m1/s1
