17
gdb 130094	4.80277	1.25528	1.01512	3.0733	76.89	-0.1823	0.0515	0.2338	1141.482	0.140674	-414.204033	-414.196609	-414.195665	-414.235705	29.088	
N	-0.0926620337	 1.3192242558	 0.0957181724	-0.587789
C	 0.0295227553	-0.0693203624	 0.0316925629	 0.401457
N	-1.0532167309	-0.8390605077	-0.0648053782	-0.384825
N	-0.524987014	-2.1011618247	-0.0892422687	 0.03407
C	-1.1244108529	-3.392471433	 0.1587563012	-0.16381
C	 0.1105764441	-4.2962511575	-0.089416496	-0.179961
N	 1.259653503	-3.4263404125	 0.2663148644	-0.411013
C	 0.8150925965	-2.1182559569	 0.0693460209	 0.464413
C	 1.2480159608	-0.8105342566	 0.1220915155	-0.47761
H	 0.6250309551	 1.8074616934	-0.422650649	 0.241837
H	-1.0116614164	 1.6208776191	-0.2025236275	 0.247264
H	-1.4909249945	-3.4727403369	 1.1913606524	 0.121609
H	-1.9492537696	-3.6070481845	-0.5246867562	 0.127162
H	 0.0996149922	-5.1977161712	 0.5269656519	 0.120866
H	 0.1432131294	-4.5936760488	-1.1464115072	 0.112389
H	 2.1270860308	-3.6693266419	-0.1927533887	 0.243499
H	 2.2500794949	-0.4331693338	 0.2344159099	 0.090442
119.1478	194.0527	241.3665	262.919	307.8763	365.1775	510.4094	547.0356	609.1104	654.1448	689.0798	707.7165	738.4495	772.6475	791.1236	856.1057	904.2351	952.3192	1000.4027	1042.9411	1114.8618	1124.327	1132.3103	1191.4331	1203.6302	1251.9592	1302.1391	1328.7634	1345.3658	1393.8216	1460.6024	1505.0754	1518.7527	1528.8931	1556.9723	1626.6626	1647.1682	3007.1895	3013.479	3095.4212	3103.5235	3273.1118	3541.8463	3577.0621	3637.9792
NC1=NN2CCNC2=C1	Nc1nn2CCNc2c1	
InChI=1S/C5H8N4/c6-4-3-5-7-1-2-9(5)8-4/h3,7H,1-2H2,(H2,6,8)	InChI=1S/C5H8N4/c6-4-3-5-7-1-2-9(5)8-4/h3,7H,1-2H2,(H2,6,8)
