20
gdb 63484	3.095	1.05934	0.92605	4.7372	79.9	-0.2673	0.0407	0.308	1321.8523	0.16815	-403.158481	-403.148319	-403.147375	-403.193264	37.697	
C	-0.0238343218	 1.4877395492	-0.2501280448	-0.445006
C	 0.0463457652	 0.0036018599	 0.0342714647	 0.333355
O	-1.1014456452	-0.6869618009	-0.4036135944	-0.45953
C	 1.3572266978	-0.7487816559	-0.0241888665	-0.383188
C	 0.6493302843	-0.5512532759	 1.3078793145	 0.29599
C	 1.2698736684	 0.3675100758	 2.3434382928	-0.472262
C	-0.0444412575	-1.772527898	 1.9146392034	-0.405323
C	 0.902904879	-2.6898950699	 2.5493113254	 0.273606
N	 1.6633961214	-3.4039366715	 3.0471732954	-0.321598
H	 0.866975578	 2.0197805864	 0.0889803485	 0.12302
H	-0.1134610833	 1.6562449907	-1.3302666674	 0.113019
H	-0.9011485823	 1.9306410325	 0.2316463857	 0.129914
H	-1.0892203377	-0.6991887506	-1.3669949068	 0.286233
H	 1.3397421683	-1.7413081241	-0.4625874363	 0.119255
H	 2.2732613369	-0.1935426317	-0.1989159249	 0.114329
H	 1.8246149533	 1.1891445891	 1.8861241462	 0.120576
H	 0.5064477932	 0.8006819379	 3.0003376344	 0.120556
H	 1.9716391021	-0.1922969682	 2.9709752501	 0.144812
H	-0.7741997951	-1.4546300235	 2.6696103558	 0.145852
H	-0.6039936853	-2.3086324114	 1.1454929543	 0.166393
57.9013	113.9632	175.2472	180.0418	204.6561	245.0274	278.909	311.5133	352.1726	393.2776	394.4079	407.1623	454.0216	488.2416	574.8113	699.1899	747.0582	882.1665	905.985	914.5445	940.8301	964.2067	969.3552	1014.8244	1048.8046	1081.917	1112.2984	1153.7081	1214.7634	1237.6889	1296.1944	1321.9446	1331.9024	1402.1059	1414.8492	1424.4047	1465.1348	1480.6863	1485.9749	1490.7763	1501.7722	1514.7752	2358.3773	3029.3597	3032.5457	3041.8692	3091.7671	3092.7756	3117.4071	3121.458	3125.8592	3135.7447	3214.6865	3798.1998
CC1(O)CC1(C)CC#N	C[C@@]1(O)C[C@]1(C)CC#N	
InChI=1S/C7H11NO/c1-6(3-4-8)5-7(6,2)9/h9H,3,5H2,1-2H3	InChI=1S/C7H11NO/c1-6(3-4-8)5-7(6,2)9/h9H,3,5H2,1-2H3/t6-,7+/m0/s1
