17
gdb 52867	2.71744	1.06572	0.83983	3.023	78.96	-0.2325	0.0201	0.2526	1398.2987	0.134817	-417.992458	-417.982665	-417.981721	-418.028376	34.63	
C	 0.0918845401	 1.5347599056	 0.4011974364	-0.504901
C	 0.0775447807	 0.0938790664	 0.2011144695	 0.186445
C	 0.0889316507	-1.0990423649	 0.0372682789	-0.059727
C	 0.0695684894	-2.5182579096	-0.1870232365	 0.029295
C	-0.6295510248	-3.388174264	 0.8220743782	-0.24172
N	-1.2284494411	-3.1806278334	-0.4947730548	-0.36876
C	 1.2828866743	-3.0977348956	-0.9106832745	 0.344761
N	 1.0032845482	-4.2263183576	-1.6169719488	-0.535206
O	 2.385478102	-2.6023177352	-0.8085014034	-0.355647
H	 1.1075321885	 1.9298435203	 0.2912055455	 0.16079
H	-0.5447972743	 2.0471918728	-0.3285432377	 0.148709
H	-0.2631930977	 1.8038897865	 1.4020330172	 0.148538
H	-0.2492002415	-4.389555906	 0.9998856414	 0.135244
H	-1.0611202388	-2.8884576919	 1.6835751958	 0.131839
H	-1.9723143979	-2.4897445706	-0.4461995487	 0.246274
H	 0.0394589687	-4.4556848515	-1.8033153893	 0.274248
H	 1.7394812635	-4.6255323513	-2.174762089	 0.259818
35.3939	62.9705	82.9633	138.6415	238.2379	279.8799	307.0477	319.1507	384.6432	420.1567	448.56	520.2728	572.3358	618.2744	650.8684	748.9719	840.3752	859.6697	922.5975	988.7077	1021.6307	1050.5104	1055.0082	1093.0916	1103.9929	1147.0467	1249.6197	1275.6632	1336.231	1400.1139	1415.1506	1476.2778	1477.4263	1499.7592	1589.4471	1808.6815	2373.1201	3028.2597	3088.0298	3093.6009	3119.5631	3215.0509	3517.4315	3580.1833	3723.429
CC#CC1(CN1)C(N)=O	CC#C[C@]1(CN1)C(=O)N	
InChI=1S/C6H8N2O/c1-2-3-6(4-8-6)5(7)9/h8H,4H2,1H3,(H2,7,9)	InChI=1S/C6H8N2O/c1-2-3-6(4-8-6)5(7)9/h8H,4H2,1H3,(H2,7,9)/t6-/m0/s1
