17
gdb 69902	2.93259	1.51881	1.15701	2.8225	74.16	-0.2197	-0.0265	0.1932	1053.7698	0.134301	-421.761097	-421.753116	-421.752172	-421.79329	31.275	
O	-0.0964859139	 1.4091026001	 0.1833167522	-0.441668
C	-0.0119554671	 0.0360362768	 0.0831834733	 0.337902
C	-0.8258536447	-0.834596739	 0.972605573	-0.337755
C	 0.6868884223	-0.9958783255	 0.961266365	-0.156594
C	 1.2325429061	-1.7069302758	-0.2973082365	-0.067271
C	 0.2169614639	-2.1553939412	-1.2757467265	-0.345686
C	 0.505984752	-0.6633453693	-1.2103736941	 0.149518
C	 1.1446980915	 0.0201820223	-2.3330182732	 0.052818
O	 1.6966637185	-0.5358944836	-3.2606298893	-0.290544
H	 0.7821298581	 1.7869310274	 0.0569220693	 0.290916
H	-1.1753640057	-0.3066859939	 1.8547046463	 0.129495
H	-1.5146679266	-1.5927698987	 0.6160551499	 0.118073
H	 1.2767874905	-0.85594719	 1.8571561519	 0.102685
H	 2.2800638451	-1.9562006633	-0.4095342655	 0.119038
H	 0.6162455009	-2.5998278579	-2.1822843456	 0.150705
H	-0.7501896069	-2.535997434	-0.9710275124	 0.126798
H	 1.102969996	 1.1314176156	-2.2831534079	 0.061571
118.6222	166.3455	182.6514	279.4051	318.3803	349.0699	402.0631	445.8611	487.269	535.6461	612.6935	711.1481	731.2786	783.3685	858.5719	899.4451	912.5734	919.2812	949.1346	981.7377	995.3999	1044.6557	1054.5272	1065.6088	1085.4566	1101.9301	1158.7435	1243.2044	1256.9181	1273.0165	1314.3909	1344.1953	1408.3267	1438.0154	1480.2547	1508.5849	1774.0753	2872.344	3126.3289	3141.6693	3196.2819	3205.9411	3211.3121	3227.1759	3778.408
OC12CC1C1CC21C=O	O[C@]12C[C@H]1[C@H]1C[C@@]21C=O	
InChI=1S/C7H8O2/c8-3-6-1-4(6)5-2-7(5,6)9/h3-5,9H,1-2H2	InChI=1S/C7H8O2/c8-3-6-1-4(6)5-2-7(5,6)9/h3-5,9H,1-2H2/t4-,5+,6+,7-/m1/s1
