17
gdb 89871	3.73601	0.95415	0.84804	4.239	74.11	-0.2698	0.0106	0.2804	1338.4614	0.135587	-417.974765	-417.966251	-417.965307	-418.008418	31.837	
O	 0.6786853992	 0.6010721644	-0.9667698269	-0.427201
C	 0.0081421908	-0.2487510296	-0.0800920172	 0.167726
C	 0.1955354558	-0.0692096563	 1.4578916635	-0.329081
C	-1.304257763	-0.3318745423	 1.6042612216	 0.348531
C	-1.5367873555	-0.101364553	 0.1070967564	-0.356367
N	-1.8188603218	-1.4377661235	 2.3962440855	-0.347381
C	-2.2258603393	-0.0534047349	 2.7431148838	-0.284633
C	-1.7304480409	 0.4771701935	 3.9893639593	 0.335073
N	-1.3269338187	 0.9423364165	 4.9680492063	-0.335869
H	 0.5368539511	 1.5111340519	-0.6841590383	 0.280962
H	 0.2653155827	-1.2646262084	-0.3902359845	 0.107772
H	 0.8691878338	-0.7509983919	 1.9785786032	 0.130605
H	 0.4568884054	 0.9633877789	 1.7151574444	 0.113014
H	-1.8696893092	 0.9196660239	-0.10942449	 0.110396
H	-2.1848508174	-0.8053010537	-0.4222567872	 0.112756
H	-2.5938931361	-1.8988321819	 1.9232035674	 0.24287
H	-3.2361472568	 0.2641300964	 2.4977575027	 0.130826
53.8021	108.4272	154.1822	264.5907	297.3651	339.4788	348.2605	410.8871	438.7072	471.0219	568.9005	628.1599	727.2476	797.661	817.3634	885.9015	919.9355	944.0105	956.6752	1003.4068	1042.9692	1061.7296	1066.2768	1129.837	1176.043	1201.3298	1209.1868	1242.3431	1245.8395	1284.0599	1335.1688	1349.4581	1431.7609	1454.3619	1456.9158	1486.2145	2358.1564	3042.9857	3051.1415	3082.9491	3105.3622	3131.2175	3144.2226	3487.817	3802.6486
OC1CC2(C1)NC2C#N	O[C@H]1C[C@@]2(C1)N[C@H]2C#N	
InChI=1S/C6H8N2O/c7-3-5-6(8-5)1-4(9)2-6/h4-5,8-9H,1-2H2	InChI=1S/C6H8N2O/c7-3-5-6(8-5)1-4(9)2-6/h4-5,8-9H,1-2H2/t4-,5-,6-/m0/s1
