23
gdb 59774	3.09247	1.14764	0.89298	1.0199	88.68	-0.2414	0.0218	0.2632	1386.7413	0.205891	-388.306804	-388.29736	-388.296416	-388.341145	36.138	
C	-0.0465245551	 1.5283928181	-0.0552430461	-0.390287
C	-0.003606168	-0.0041980526	 0.0242631725	 0.02474
C	 0.8179005908	-0.4541238156	 1.2403139545	-0.400667
C	-1.4347408246	-0.5855209767	 0.0441295586	 0.100086
O	-2.1125083023	-0.0415845151	-1.0821439787	-0.268709
C	-3.3579445148	-0.6580680614	-1.3527928158	-0.074974
C	-3.1644880363	-2.1146584581	-1.7764472965	-0.254767
C	-2.2384650268	-2.7913079443	-0.8017840681	-0.076402
C	-1.4786706003	-2.094414171	 0.0408412492	-0.07262
H	 0.9664597266	 1.9371754796	-0.1284380544	 0.10322
H	-0.6217630732	 1.8619649288	-0.919802522	 0.133902
H	-0.5109274194	 1.9512585945	 0.8443623279	 0.104828
H	 0.4768534479	-0.3859188769	-0.8862146658	 0.079438
H	 0.3221872305	-0.173798697	 2.177748539	 0.112309
H	 0.9884547716	-1.533842049	 1.2591803429	 0.114855
H	 1.7991642233	 0.0306070202	 1.2323625901	 0.113756
H	-1.926138245	-0.2217344582	 0.9699002874	 0.065296
H	-4.0078123803	-0.6142531951	-0.4631433654	 0.088346
H	-3.8275881963	-0.0650079675	-2.1429354357	 0.102626
H	-4.1340008012	-2.6283569206	-1.8066992553	 0.100945
H	-2.7570213323	-2.1635148419	-2.7955220111	 0.114232
H	-2.2189798541	-3.8780303772	-0.7849023829	 0.087297
H	-0.8633133706	-2.6038946731	 0.7755115857	 0.092549
57.411	83.2946	183.0299	216.9427	228.3266	276.3754	309.5686	339.2415	402.9786	433.7588	464.103	497.8481	591.1769	670.9631	781.3784	851.0896	867.4277	900.5795	923.7065	930.4171	963.8242	986.5155	998.3899	1019.9004	1059.0393	1086.1922	1116.2057	1137.5999	1165.0108	1190.1327	1214.2044	1235.9973	1281.5661	1301.954	1335.392	1349.9147	1363.9673	1375.0038	1396.1234	1399.7727	1419.8202	1426.682	1470.3115	1487.6416	1490.8989	1499.4987	1504.2246	1514.7421	1720.4156	2887.4259	2970.3407	3013.54	3021.4565	3026.7986	3032.9954	3047.5966	3082.7911	3088.6852	3096.6913	3109.26	3140.5762	3152.5631	3184.3544
CC(C)C1OCCC=C1	CC(C)[C@H]1OCCC=C1	
InChI=1S/C8H14O/c1-7(2)8-5-3-4-6-9-8/h3,5,7-8H,4,6H2,1-2H3	InChI=1S/C8H14O/c1-7(2)8-5-3-4-6-9-8/h3,5,7-8H,4,6H2,1-2H3/t8-/m0/s1
