15
gdb 132549	3.17134	1.32011	0.93758	4.2296	70.82	-0.2485	-0.0152	0.2332	1157.5546	0.112792	-461.986445	-461.978742	-461.977798	-462.018549	29.315	
C	 0.0209314026	 1.505583228	 0.0447126937	-0.543274
C	 0.0237813658	-0.0003897375	 0.0267900773	 0.152362
C	-0.0458581576	-0.7269546294	-1.1556003957	-0.058804
N	-0.0475858421	-2.0626105538	-1.2407873049	-0.337976
C	 0.0229796806	-2.7124557748	-0.1015651262	 0.354156
F	 0.0216540112	-4.0412433942	-0.1816990307	-0.074455
C	 0.0978385026	-2.1376777937	 1.1595695415	-0.372302
C	 0.0977191971	-0.7488920747	 1.2169848218	 0.352622
O	 0.1700668968	-0.1691116463	 2.4379447705	-0.425473
H	 0.9341753532	 1.9167075089	 0.4954906601	 0.13485
H	-0.0408385537	 1.9014165381	-0.9716786917	 0.14427
H	-0.834204175	 1.9121072909	 0.6012292894	 0.13489
H	-0.1044526933	-0.1924837805	-2.1017140074	 0.110816
H	 0.1537655028	-2.73772149	 2.0578618151	 0.123275
H	 0.161686089	 0.789108809	 2.3409042671	 0.305044
138.1969	159.7651	224.8827	287.6851	331.2314	352.4052	396.6374	452.9688	481.5391	546.3139	574.067	691.9087	753.9323	758.8844	784.5376	874.3402	950.9254	980.8266	1021.1657	1063.3017	1160.4225	1186.374	1268.0785	1331.8965	1336.747	1354.0595	1412.2874	1459.0993	1486.9624	1503.8569	1525.5873	1626.5762	1661.2854	3007.9054	3053.1533	3117.474	3146.7093	3225.4994	3820.6118
CC1=CN=C(F)C=C1O	Cc1cnc(F)cc1O	
InChI=1S/C6H6FNO/c1-4-3-8-6(7)2-5(4)9/h2-3H,1H3,(H,8,9)	InChI=1S/C6H6FNO/c1-4-3-8-6(7)2-5(4)9/h2-3H,1H3,(H,8,9)
