21
gdb 98903	4.02513	0.86194	0.80302	3.1373	79.23	-0.2625	-0.0235	0.239	1495.3099	0.183026	-424.261205	-424.251857	-424.250913	-424.297685	33.913	
O	 0.1715757606	 1.3598278193	 0.0531949414	-0.420879
C	 0.0598209081	-0.0235056039	-0.0801018991	-0.135869
C	-1.38279008	-0.48684745	 0.0570428891	 0.339034
O	-2.253533388	 0.3475210517	 0.2057346372	-0.337743
C	-1.6605994553	-1.9740541542	 0.0347249446	-0.064899
C	-1.8667768911	-2.5272520044	 1.4733419069	-0.210483
C	-2.660673584	-3.8188841923	 1.2392115544	-0.201968
C	-3.6850355677	-3.417774826	 0.162447168	-0.199722
C	-2.9623927086	-2.3648985925	-0.7228179486	-0.223565
H	-0.7425413716	 1.6713151636	 0.1584222482	 0.293107
H	 0.4267383622	-0.3699385402	-1.0628590142	 0.114435
H	 0.668695104	-0.5517088121	 0.6730659308	 0.115022
H	-0.7964171339	-2.4843952809	-0.4064001059	 0.076097
H	-0.924625313	-2.6783089696	 2.0076539953	 0.101827
H	-2.4699637723	-1.8151821659	 2.0486263346	 0.119811
H	-1.9911115205	-4.6003734244	 0.858982569	 0.098935
H	-3.1245799404	-4.2031439012	 2.1521948322	 0.099903
H	-4.044501449	-4.2732439107	-0.4153724026	 0.098801
H	-4.5607150533	-2.9646310265	 0.6386855322	 0.108218
H	-3.584456919	-1.4797466576	-0.8699945302	 0.127172
H	-2.7195134172	-2.7627048221	-1.7117218632	 0.102767
16.0751	35.1947	111.0386	183.0701	208.4806	261.1547	317.3768	363.4418	440.4574	533.9939	561.2982	613.6127	711.8484	788.2911	837.7646	873.1037	900.2586	910.6979	921.137	975.3952	995.1355	1018.7016	1043.7256	1065.4836	1100.8803	1150.9734	1182.0994	1194.2047	1234.9344	1242.7331	1273.3632	1300.1168	1305.763	1321.8422	1333.6596	1339.792	1351.0336	1385.4691	1452.1303	1487.1371	1488.1831	1490.6139	1493.4659	1514.065	1787.1321	2956.0113	2978.6244	3030.2922	3031.4064	3042.8541	3048.222	3064.9049	3087.1049	3093.2698	3099.6096	3119.136	3671.2549
OCC(=O)C1CCCC1	OCC(=O)C1CCCC1	
InChI=1S/C7H12O2/c8-5-7(9)6-3-1-2-4-6/h6,8H,1-5H2	InChI=1S/C7H12O2/c8-5-7(9)6-3-1-2-4-6/h6,8H,1-5H2
