16
gdb 53738	3.91974	0.72597	0.65484	2.3902	77.62	-0.2586	-0.0284	0.2301	1680.1785	0.121545	-437.867111	-437.857221	-437.856276	-437.903551	34.223	
C	 0.1069804718	 1.4619459413	 0.278068377	-0.46733
C	-0.002912451	-0.0161482032	-0.0323659493	 0.207844
C	 0.6522520007	-0.5844160844	-1.2311619301	-0.206703
O	 1.2271687378	-0.7629814091	 0.0573237651	-0.25469
C	-1.1667703207	-0.6862986348	 0.497584066	 0.013173
C	-2.1531438952	-1.2077994954	 0.9551186154	 0.104647
C	-3.3757082577	-1.7893910353	 1.4928676458	 0.255711
N	-3.2237109966	-3.0695982198	 1.9406099195	-0.520689
O	-4.4302491687	-1.1854535634	 1.5233870571	-0.332222
H	 1.020212205	 1.8681815975	-0.1631015585	 0.131729
H	-0.7565515172	 2.0021517709	-0.1204641843	 0.141523
H	 0.1390815231	 1.6220146058	 1.3594309308	 0.142501
H	 0.2424747343	-1.4802009995	-1.6937046772	 0.125283
H	 1.185815251	 0.0906098575	-1.8995200623	 0.121918
H	-2.3194734897	-3.506448194	 1.9839322955	 0.269825
H	-4.0104613168	-3.5118423641	 2.3872666895	 0.267478
22.8544	72.0986	94.4891	175.6149	188.5293	200.5849	264.4299	290.66	362.7251	442.8792	537.5866	546.1269	574.1653	583.553	651.9859	771.4999	782.2071	842.398	925.7429	976.0387	1035.252	1091.0399	1097.7754	1136.8295	1168.7535	1267.1703	1344.2523	1370.5342	1410.9829	1477.7746	1493.4158	1519.9555	1608.9579	1774.8881	2342.9858	3047.7743	3084.5135	3121.0067	3133.1741	3177.9016	3599.9942	3740.9623
CC1(CO1)C#CC(N)=O	C[C@]1(CO1)C#CC(=O)N	
InChI=1S/C6H7NO2/c1-6(4-9-6)3-2-5(7)8/h4H2,1H3,(H2,7,8)	InChI=1S/C6H7NO2/c1-6(4-9-6)3-2-5(7)8/h4H2,1H3,(H2,7,8)/t6-/m1/s1
