14
gdb 14819	2.64092	1.95171	1.26466	5.2788	62.41	-0.255	-0.0472	0.2078	927.9624	0.10725	-378.709628	-378.702027	-378.701083	-378.742474	26.364	
O	-0.3474901461	 0.8543003913	 1.2133936195	-0.236656
C	 0.123697148	 0.8799518432	 0.1074705467	 0.161887
C	 1.4167659612	 1.6017958352	-0.2340632794	-0.063553
N	 2.2038630296	 0.9769495878	-1.3111238669	-0.308584
C	 2.491494829	 2.2810189119	-1.9395938739	-0.163372
C	 1.3185408672	 2.9028426016	-1.11772405	-0.190606
C	 0.0793173225	 3.0723889451	-1.8602525159	 0.291365
N	-0.9009842554	 3.2172142371	-2.4555967574	-0.319102
H	-0.3488085312	 0.3724790283	-0.7599645408	 0.106552
H	 1.9544332251	 1.8174506064	 0.6981358163	 0.097632
H	 3.0046045661	 0.4307930448	-1.0158400532	 0.234808
H	 3.4511706884	 2.7330824745	-1.6580320806	 0.111778
H	 2.3890288268	 2.2964488812	-3.0275491598	 0.135912
H	 1.5475723687	 3.8254826815	-0.5838316446	 0.141938
57.4749	94.2951	141.0048	225.7869	296.9125	359.7365	452.2198	520.8615	583.1631	667.0533	797.6053	843.9264	937.4993	962.9847	1005.8805	1047.8535	1064.7059	1102.7421	1126.2558	1139.7274	1186.9275	1248.6729	1294.4764	1337.2483	1348.6839	1389.2517	1407.3138	1521.0709	1834.5452	2357.2619	2920.9949	3018.9783	3028.3087	3094.6983	3115.1196	3545.9122
O=CC1NCC1C#N	O=C[C@H]1NC[C@H]1C#N	
InChI=1S/C5H6N2O/c6-1-4-2-7-5(4)3-8/h3-5,7H,2H2	InChI=1S/C5H6N2O/c6-1-4-2-7-5(4)3-8/h3-5,7H,2H2/t4-,5-/m1/s1
