20
gdb 87866	3.03323	1.37058	1.22293	1.427	78.6	-0.2281	0.0822	0.3103	1101.2243	0.172524	-403.114783	-403.106842	-403.105898	-403.146988	32.081	
O	-0.6974882728	 1.350799876	-0.5673837254	-0.417073
C	-0.3739948962	 0.0076221051	-0.3600368005	 0.082691
C	-0.1383624295	-0.489212143	 1.045820441	-0.40958
C	-1.405214933	-0.8593926809	 0.3043268029	 0.344221
C	-2.7648689421	-0.2648281561	 0.686794746	-0.289979
C	-3.7535772267	-1.0686061997	-0.1399604052	-0.030083
N	-3.3849463616	-1.1523896505	-1.5709882753	-0.332034
C	-3.0818477622	-2.2828800829	-0.6663977971	-0.031086
C	-1.6376736104	-2.2900332926	-0.1974969311	-0.289767
H	 0.0793901147	 1.8782570182	-0.3561822895	 0.286132
H	 0.2051451054	-0.4483203211	-1.1638403691	 0.081369
H	 0.6114375216	-1.2562251514	 1.2152241866	 0.104014
H	-0.229016967	 0.243087748	 1.8426274754	 0.106561
H	-2.9785551096	-0.4177376564	 1.7525040537	 0.090778
H	-2.8025785859	 0.807233506	 0.4799395525	 0.125991
H	-4.8050973538	-1.0685465733	 0.1294191661	 0.07833
H	-4.2162954537	-1.3768077353	-2.1124231889	 0.225997
H	-3.6107727415	-3.221249614	-0.8005911697	 0.078338
H	-0.9337503979	-2.5726582657	-0.9879361391	 0.100191
H	-1.5256657279	-3.0136407804	 0.6207084965	 0.09499
87.4563	182.8117	238.0784	272.4803	326.1485	365.7657	390.1704	449.4852	501.1062	553.674	653.492	787.2149	799.4159	808.2314	848.1523	866.3877	897.2483	911.4048	947.9114	951.2286	1001.4919	1016.624	1034.6725	1074.4226	1083.3679	1099.3155	1125.1882	1160.0562	1172.5246	1186.8614	1209.3935	1250.7927	1254.8157	1293.4402	1305.8447	1318.2204	1360.5777	1370.5754	1424.082	1430.5752	1480.9905	1488.0938	1492.215	3019.9526	3027.196	3067.0754	3091.2723	3105.8117	3116.4129	3152.836	3163.9081	3204.661	3497.8458	3810.4084
OC1CC11CC2NC2C1	O[C@H]1C[C@]21C[C@H]1N[C@H]1C2	
InChI=1S/C7H11NO/c9-6-3-7(6)1-4-5(2-7)8-4/h4-6,8-9H,1-3H2	InChI=1S/C7H11NO/c9-6-3-7(6)1-4-5(2-7)8-4/h4-6,8-9H,1-3H2/t4-,5+,6-,7+/m0/s1
