18
gdb 38781	2.88141	2.0051	1.65717	2.7446	72.91	-0.2292	0.067	0.2962	873.7888	0.151242	-401.887846	-401.881604	-401.88066	-401.91806	26.614	
C	-0.0286273795	 1.4565848384	-0.2154992146	-0.159539
C	 1.5039818245	 1.5100539139	 0.0454088841	-0.058135
C	 1.9875891406	 2.182374047	 1.3406696224	-0.258701
C	 1.35184219	 1.6096210478	 2.5893207117	 0.042113
O	-0.0812522701	 1.5771263374	 2.6457982361	-0.252598
C	 0.6199684588	 0.334740121	 2.5067770358	 0.037025
C	 0.5793494074	-0.4324985885	 1.2095915289	-0.030259
C	 1.4340065989	-0.025676209	 0.0716890437	-0.067112
N	-0.0716826339	-0.0427776065	-0.0687898822	-0.160881
H	-0.6894165767	 2.0026850148	 0.4542706935	 0.1328
H	-0.272820123	 1.68791722	-1.2551105891	 0.104858
H	 2.0628164493	 1.9055699216	-0.804567904	 0.08022
H	 3.0757060767	 2.0659116522	 1.4353640002	 0.105831
H	 1.7932087123	 3.2610041899	 1.2899641152	 0.113656
H	 1.8222173521	 1.8839142188	 3.5337170815	 0.093067
H	 0.5642610908	-0.2958332589	 3.393650194	 0.092865
H	 0.461767702	-1.5026139758	 1.3558916324	 0.094271
H	 2.0779964399	-0.7091533041	-0.4726450096	 0.090518
227.9937	249.3802	363.5422	373.653	471.0994	488.0785	623.6251	712.1189	727.4572	760.986	799.456	825.4275	830.132	872.3737	907.62	927.8997	978.167	980.3797	1019.654	1056.9109	1064.7412	1073.1829	1090.956	1095.1181	1148.0159	1191.5914	1215.653	1230.1595	1281.4897	1294.4877	1304.5813	1307.1457	1335.9996	1381.9757	1394.8874	1422.3771	1462.4291	1476.472	1498.0232	3018.1334	3055.9621	3071.0681	3091.1545	3103.606	3114.8736	3147.3189	3159.7169	3160.6076
C1C2CC3OC3C3C2N13	C1[C@H]2C[C@H]3O[C@H]3[C@@H]3[C@H]2N13	
InChI=1S/C7H9NO/c1-3-2-8-5(3)6(8)7-4(1)9-7/h3-7H,1-2H2	InChI=1S/C7H9NO/c1-3-2-8-5(3)6(8)7-4(1)9-7/h3-7H,1-2H2/t3-,4-,5+,6+,7-,8?/m1/s1
