22
gdb 14768	10.72399	0.51411	0.50597	2.8835	80.95	-0.2474	-0.0184	0.229	2182.5671	0.197932	-350.229169	-350.218814	-350.21787	-350.265851	35.37	
C	 0.0691132593	 1.5927325587	 0.0955001956	-0.379893
C	 0.0302392252	 0.0629503999	 0.04869301	-0.164201
C	-1.393382321	-0.5020852952	-0.0072580203	-0.162122
C	-1.4400100675	-2.0328007205	-0.0545230084	-0.174534
C	-2.8652563767	-2.5935159727	-0.1105081133	-0.193464
C	-2.9039000868	-4.1310091633	-0.1685909721	-0.272657
C	-4.3171365088	-4.6615282141	-0.1125462823	 0.159895
O	-4.8234901843	-5.3804127406	-0.9349061133	-0.237913
H	 1.0972838495	 1.9659258896	 0.1326103831	 0.11215
H	-0.4113347939	 2.0279980821	-0.7878616759	 0.114298
H	-0.4560139427	 1.9752899879	 0.9778389753	 0.113642
H	 0.5941565915	-0.2921835078	-0.8240323869	 0.0955
H	 0.5465648213	-0.3446239161	 0.9280079344	 0.094428
H	-1.9593840595	-0.1472958236	 0.8655423744	 0.092213
H	-1.9104849452	-0.095042922	-0.8873967916	 0.094236
H	-0.8759396075	-2.3884217696	-0.9274031935	 0.09865
H	-0.9250933465	-2.442101008	 0.8257615907	 0.094358
H	-3.4282049295	-2.248202578	 0.7673611827	 0.100876
H	-3.3856110565	-2.1865849369	-0.9869968465	 0.110703
H	-2.4216080758	-4.5131485992	-1.07320418	 0.120508
H	-2.3650598716	-4.5350126132	 0.7014863169	 0.116091
H	-4.8948871129	-4.3209878072	 0.7804520108	 0.067235
46.1004	61.0629	83.6558	103.6411	135.1644	154.7873	236.0728	246.0935	275.6218	393.6523	457.7099	525.4992	733.5184	745.273	786.6385	840.7806	899.1093	922.3959	980.4967	1010.2355	1022.8323	1055.8252	1066.5487	1077.0476	1141.0948	1166.8787	1223.5891	1244.665	1272.7233	1299.6057	1317.2322	1332.5546	1339.021	1355.6234	1391.9483	1401.796	1414.6637	1431.7626	1464.4622	1484.3135	1485.4844	1494.9447	1499.908	1506.1226	1515.3312	1836.8497	2843.5601	3002.5809	3006.6935	3007.4797	3015.3642	3020.3711	3025.6129	3029.7751	3037.0534	3052.0391	3066.2054	3095.9339	3097.1645	3101.946
CCCCCCC=O	CCCCCCC=O	
InChI=1S/C7H14O/c1-2-3-4-5-6-7-8/h7H,2-6H2,1H3	InChI=1S/C7H14O/c1-2-3-4-5-6-7-8/h7H,2-6H2,1H3
