16
gdb 44981	3.74612	1.20362	1.03752	3.2698	76.09	-0.2434	0.021	0.2645	1136.7672	0.124423	-400.747442	-400.739596	-400.738651	-400.779724	30.713	
O	 0.0346764681	-0.0136045161	 0.2130893645	-0.363438
C	-0.0180784607	 1.1838394455	 0.0594985828	 0.398147
C	-1.2847932776	 2.0535923507	-0.0101185806	-0.417743
C	-0.7867939288	 3.4975546631	-0.0116961638	 0.141441
C	 0.0537873503	 3.9470104389	 1.1840449475	-0.325978
C	 0.7384959351	 3.4208497389	-0.0469767031	-0.042207
N	 1.0624253269	 2.0281644184	-0.0735242998	-0.305098
C	-1.5012570277	 4.4815915912	-0.7670143953	 0.184315
C	-2.1204328322	 5.2951755936	-1.4008179681	-0.384421
H	-1.8322971927	 1.8231683801	-0.9282807173	 0.145873
H	-1.9382417589	 1.8130845586	 0.8321766991	 0.141463
H	 0.0853733298	 5.0149792399	 1.3655243214	 0.133422
H	 0.0534184569	 3.3214502035	 2.0711030373	 0.124657
H	 1.3160365167	 4.074289004	-0.689620845	 0.122566
H	 1.9889143484	 1.6794022857	 0.1192714285	 0.255316
H	-2.6651365834	 6.014547104	-1.9603919882	 0.191683
91.1209	145.8854	172.2829	302.6014	422.5465	443.4231	458.1013	481.0635	535.8452	563.6189	591.291	601.1129	650.3691	685.713	738.2155	830.1796	868.1898	902.9652	936.6622	987.7453	1022.2449	1058.8665	1076.1145	1124.8494	1169.3498	1231.9719	1237.1068	1278.6184	1323.1791	1392.8411	1414.0515	1460.9203	1474.6497	1836.5764	2238.8966	3071.0333	3114.9145	3131.0951	3186.049	3230.918	3502.9988	3629.0646
O=C1CC2(CC2N1)C#C	O=C1C[C@]2(C[C@H]2N1)C#C	
InChI=1S/C7H7NO/c1-2-7-3-5(7)8-6(9)4-7/h1,5H,3-4H2,(H,8,9)	InChI=1S/C7H7NO/c1-2-7-3-5(7)8-6(9)4-7/h1,5H,3-4H2,(H,8,9)/t5-,7-/m1/s1
