14
gdb 43962	3.20098	1.74338	1.53807	3.3976	65.22	-0.2452	-0.0281	0.2171	866.3104	0.101536	-436.651483	-436.644998	-436.644053	-436.68232	25.74	
O	-0.0067875838	 0.0096598032	-0.1271744806	-0.286946
C	 0.0052896062	 1.1891723214	 0.0491960937	 0.360298
C	-1.1429476556	 2.2596902215	 0.1415880921	-0.408476
C	-0.0593764816	 3.327995294	-0.0308318085	 0.312095
C	 0.9771495797	 3.3153486066	 1.0291247666	-0.370427
C	 1.0715072317	 2.2653042941	-0.0675882567	 0.110722
N	 1.8723192715	 2.5714106463	-1.2251482305	-0.289313
C	 1.3034293105	 3.5826292788	-1.7546000298	 0.085332
O	 0.1568758072	 4.1059291719	-1.1868849257	-0.248172
H	-1.7860612824	 2.1563581013	-0.7367907716	 0.153619
H	-1.7604710772	 2.3096621263	 1.0419184755	 0.131625
H	 1.7540819759	 4.0692817006	 0.9777936627	 0.15073
H	 0.6931992285	 3.0165006927	 2.0321019967	 0.141273
H	 1.6374117694	 4.1100244813	-2.6400799438	 0.15764
102.3071	245.1923	336.8414	397.5376	440.8491	516.1747	579.6243	599.3418	608.1309	691.0392	753.7199	795.6921	868.5125	897.3154	925.9633	947.2108	956.2553	967.6185	1033.8052	1071.4729	1087.4883	1129.8451	1204.0633	1259.5821	1275.0545	1316.2464	1340.4507	1443.92	1470.2827	1626.1666	1886.468	3064.2284	3124.7633	3139.8155	3232.0631	3234.2341
O=C1CC23CC12N=CO3	O=C1C[C@@]23C[C@@]12N=CO3	
InChI=1S/C6H5NO2/c8-4-1-5-2-6(4,5)7-3-9-5/h3H,1-2H2	InChI=1S/C6H5NO2/c8-4-1-5-2-6(4,5)7-3-9-5/h3H,1-2H2/t5-,6-/m1/s1
