17
gdb 52735	2.44246	0.97915	0.75776	1.8773	79.86	-0.2456	-0.0538	0.1918	1523.6777	0.130635	-421.829615	-421.81878	-421.817835	-421.868075	35.668	
C	-0.0239396254	 1.5739689251	-0.0324847001	-0.500563
C	 0.0465167942	 0.1208307397	-0.0084449458	 0.132243
C	 0.1227692819	-1.0800733051	 0.0031415083	 0.060181
C	 0.1623095028	-2.5296857463	 0.0219274435	-0.401729
C	-1.2408134665	-3.1268741144	 0.255665265	 0.155694
O	-1.4277866485	-4.2353744777	 0.6798646919	-0.240202
C	 0.6926442655	-3.1533506432	-1.3132136129	 0.380492
C	 1.2290206676	-4.5598791596	-1.1765533128	-0.4901
O	 0.6503465948	-2.5437684452	-2.3476886839	-0.269217
H	 0.8956033744	 2.0205196656	 0.3609653073	 0.152932
H	-0.1637944233	 1.9438667204	-1.0538101904	 0.15786
H	-0.8584958858	 1.942098692	 0.5740076118	 0.151086
H	 0.7926183927	-2.9138924286	 0.8326569859	 0.134615
H	-2.0709982763	-2.4474990423	-0.0245217949	 0.115019
H	 0.558753807	-5.1681274258	-0.5619600235	 0.167864
H	 1.3668518824	-5.0038410525	-2.1629446013	 0.145465
H	 2.1954693925	-4.5239114323	-0.6590877379	 0.14836
16.3378	58.7472	70.451	94.3449	111.9258	170.6709	208.9137	267.7724	290.7723	342.3766	412.8312	448.8016	491.8663	577.6777	590.048	759.0158	841.2194	940.4864	978.707	1013.4991	1051.7623	1053.262	1073.5951	1155.4134	1185.6594	1200.9342	1311.6976	1385.624	1402.4535	1414.0523	1467.1949	1474.8287	1476.1292	1477.2467	1811.7793	1841.215	2377.499	2933.5529	3030.2273	3036.9578	3044.826	3092.0886	3094.3806	3105.5978	3157.6536
CC#CC(C=O)C(C)=O	CC#C[C@@H](C=O)C(=O)C	
InChI=1S/C7H8O2/c1-3-4-7(5-8)6(2)9/h5,7H,1-2H3	InChI=1S/C7H8O2/c1-3-4-7(5-8)6(2)9/h5,7H,1-2H3/t7-/m0/s1
