16
gdb 49516	3.63979	1.31644	1.1883	4.2835	68.02	-0.2392	-0.0236	0.2155	1037.3697	0.12547	-437.816915	-437.810077	-437.809133	-437.848608	26.792	
O	 0.0004173988	-0.0481624101	-0.3722054246	-0.261513
C	 0.0273188245	 1.1281927499	-0.1059076149	 0.136409
C	 1.3081273235	 1.9207876379	-0.0603467387	-0.061851
C	 1.2336535183	 3.3148744595	-0.7615972773	-0.081352
N	 0.4642525843	 3.7726721625	 0.4522707591	-0.312981
C	 1.4384643406	 2.873163245	 1.1711399042	-0.081358
C	 2.8040903978	 3.5728887831	 0.9123880508	 0.030292
O	 3.6474883438	 2.9558092193	-0.0717079769	-0.23524
C	 2.6538720129	 3.8968274307	-0.5051586548	 0.030284
H	-0.8956448591	 1.6964660961	 0.1219265713	 0.102463
H	 2.156612852	 1.2851754766	-0.2955303515	 0.119694
H	 0.7767153099	 3.4638767728	-1.7395408624	 0.087094
H	 0.611731256	 4.7622162332	 0.6628010726	 0.211599
H	 1.1928769111	 2.5664217856	 2.1874941548	 0.087082
H	 3.2971076032	 4.1822505935	 1.6624571918	 0.114686
H	 3.0148249423	 4.7911312346	-1.0020668436	 0.114692
68.0454	182.6676	258.1645	368.4481	391.8894	483.2576	548.3408	609.9621	706.3034	781.3677	831.4321	853.1916	864.3016	881.6566	917.3131	931.65	959.209	989.2804	1044.6353	1059.304	1081.0081	1114.8524	1122.7185	1140.9136	1213.4208	1215.3024	1230.3929	1248.3006	1272.984	1288.0351	1318.5358	1331.536	1400.4781	1412.3563	1817.4255	2945.0721	3124.6018	3124.6614	3169.8453	3170.6989	3182.1902	3419.0823
O=CC1C2NC1C1OC21	O=C[C@H]1[C@H]2N[C@@H]1[C@H]1O[C@@H]21	
InChI=1S/C6H7NO2/c8-1-2-3-5-6(9-5)4(2)7-3/h1-7H	InChI=1S/C6H7NO2/c8-1-2-3-5-6(9-5)4(2)7-3/h1-7H/t2-,3+,4-,5-,6+
