19
gdb 63193	3.32481	1.56576	1.48729	2.0223	80.27	-0.2344	-0.0403	0.1941	985.3425	0.158954	-381.978767	-381.970997	-381.970053	-382.010369	31.354	
C	 0.0655665609	 1.5488808538	-0.1161728027	-0.408836
C	 0.0326133368	 0.0253893437	 0.008530905	 0.266924
C	-1.4026512806	-0.5121406191	-0.0477165593	-0.418424
N	 0.9286704689	-0.5246412784	-1.0675490459	-0.223094
C	 1.6129932781	-1.4250036286	-0.4854331504	 0.135712
C	 3.041455796	-1.1579118407	-0.0681752707	-0.261355
C	 2.2664719029	-0.9148895637	 1.2820565893	-0.080914
C	 0.772450764	-0.5248595052	 1.2519148474	-0.071446
N	 1.1929083024	-1.876848949	 0.8883205663	-0.137113
H	 1.0952979104	 1.9131703168	-0.1464764101	 0.119233
H	-0.4390261489	 1.8715345282	-1.0310498019	 0.126085
H	-0.4428471376	 2.0077478153	 0.7393238982	 0.110771
H	-1.8390087227	-0.2841786751	-1.0245222661	 0.127858
H	-1.4187804757	-1.5955209074	 0.0945904666	 0.13566
H	-2.0299276084	-0.0500855657	 0.7221381033	 0.112171
H	 3.6985943316	-2.0194844044	 0.0763853761	 0.130503
H	 3.5385836617	-0.342581968	-0.5916563812	 0.130579
H	 2.7619629918	-1.0329859473	 2.2450041503	 0.110637
H	 0.3163231184	-0.4088504052	 2.234175536	 0.095049
145.3418	207.4312	226.2812	238.4052	318.5682	345.4068	402.7554	482.5876	555.2398	592.156	666.605	696.4324	759.6582	801.6256	847.4759	874.2754	881.4705	939.5429	948.0841	969.707	998.4675	1014.7085	1035.0697	1070.3664	1090.4039	1135.7734	1148.4721	1188.9677	1204.7169	1208.0643	1234.1524	1305.772	1338.8724	1392.7625	1412.341	1475.5948	1482.4602	1483.5826	1494.7539	1504.2981	1638.6052	3034.1271	3039.2032	3069.8426	3105.1248	3110.4022	3116.7921	3124.8843	3126.737	3131.9949	3156.3878
CC1(C)N=C2CC3C1N23	CC1(C)[N][C]2C[C@H]3[C@@H]1N23	
InChI=1S/C7H10N2/c1-7(2)6-4-3-5(8-7)9(4)6/h4,6H,3H2,1-2H3	InChI=1S/C7H10N2/c1-7(2)6-4-3-5(8-7)9(4)6/h4,6H,3H2,1-2H3/t4-,6-,9?/m0/s1
