25
gdb 104732	2.07057	1.37195	1.04666	1.0863	89.46	-0.2329	0.0764	0.3093	1335.4353	0.225843	-389.479543	-389.468354	-389.46741	-389.514979	41.858	
C	-0.6154690124	 1.5379773796	 0.6752739496	-0.373203
C	-0.0398791121	 0.2421694642	 0.0905219766	-0.260541
C	 0.8825608964	-0.4735188576	 1.0651988978	 0.408679
C	 0.3009436799	-1.3608226352	 2.1306335	-0.384094
C	 1.1275137692	-1.9812378832	 1.0134368102	 0.26155
C	 0.4260399458	-2.8479780141	-0.0179004889	-0.456353
C	 2.5023782932	-2.5048639006	 1.3930677998	-0.452313
O	 1.9414143627	 0.3247473508	 1.5425611151	-0.281345
C	 2.881408458	 0.7176013752	 0.5597616362	-0.251132
H	 0.1814585248	 2.2302240658	 0.959512288	 0.127171
H	-1.265024611	 2.0397981357	-0.0483668396	 0.105132
H	-1.2050713549	 1.3313154665	 1.5744626283	 0.118039
H	-0.8582451954	-0.4268832189	-0.1878940464	 0.098996
H	 0.4956157521	 0.4613017212	-0.8422891892	 0.09398
H	 0.7528344327	-1.2982494163	 3.1148083711	 0.114801
H	-0.7732069239	-1.5195268252	 2.1333490684	 0.101828
H	-0.6001929491	-2.5290305388	-0.2139179829	 0.114099
H	 0.9654211054	-2.8484928963	-0.9728170861	 0.111925
H	 0.3810870042	-3.8864062983	 0.3321984094	 0.113944
H	 2.4134768028	-3.4831132087	 1.8803987222	 0.110053
H	 3.1364322978	-2.639600184	 0.5083674825	 0.106802
H	 3.013326367	-1.8275384052	 2.0792596849	 0.12962
H	 3.2641540388	-0.1405379127	-0.0085265388	 0.108863
H	 2.4643626002	 1.4463949633	-0.1489404543	 0.109666
H	 3.7123062278	 1.1898589028	 1.0901639761	 0.123831
92.7774	124.9035	134.662	163.73	177.1813	207.2939	226.7865	248.065	291.1305	307.6834	334.1101	370.9027	420.7925	431.946	473.5828	563.1524	678.8603	738.824	796.2969	885.0813	913.7243	927.0196	963.1174	971.8691	993.5421	1036.5185	1052.1796	1061.0037	1097.257	1107.2056	1154.5434	1180.298	1190.1026	1212.6215	1245.1965	1294.3993	1306.9235	1356.912	1392.0398	1405.3767	1410.1103	1423.2495	1468.0741	1478.9913	1485.0989	1487.611	1492.1945	1494.7874	1501.675	1504.2532	1508.8391	1511.4682	1516.8287	2996.7341	3020.1388	3023.8012	3028.2861	3040.0296	3050.8035	3073.107	3076.1233	3086.0741	3105.8694	3111.4353	3115.43	3121.5495	3124.28	3134.0583	3212.975
CCC1(CC1(C)C)OC	CC[C@]1(CC1(C)C)OC	
InChI=1S/C8H16O/c1-5-8(9-4)6-7(8,2)3/h5-6H2,1-4H3	InChI=1S/C8H16O/c1-5-8(9-4)6-7(8,2)3/h5-6H2,1-4H3/t8-/m1/s1
