18
gdb 84257	2.98794	1.51208	1.08021	3.7398	80.1	-0.2062	0.0008	0.207	1126.4776	0.148465	-401.968269	-401.960114	-401.95917	-402.001322	30.533	
C	-0.2151215103	 1.548337589	-0.0890419057	-0.384094
C	 0.000247667	 0.0308503962	-0.024534604	-0.151545
C	 0.8176245326	-0.5668472329	-1.1671613613	-0.334986
C	 1.8086159138	-1.2460897683	-0.5893801962	 0.391004
C	 3.1209197009	-2.0201611905	-0.5739037467	-0.379518
C	 3.0845655541	-1.8384399191	 0.9914003052	-0.174179
N	 1.7670079033	-1.1992451516	 0.8065900029	-0.0966
C	 0.7795310986	-0.361535275	 1.2777124629	 0.374443
O	 0.5582905961	-0.0060884492	 2.4110271001	-0.376481
H	 0.7375664746	 2.0737006223	-0.2065196906	 0.119361
H	-0.8576651451	 1.8163054	-0.9328609246	 0.11318
H	-0.6850253389	 1.8933127856	 0.8360233179	 0.140677
H	-0.9816239289	-0.4581516369	 0.0506349315	 0.115548
H	 0.6168944486	-0.4208781301	-2.2173014665	 0.104556
H	 3.0495689227	-3.0581215932	-0.9052897053	 0.136148
H	 3.9571478895	-1.5384642551	-1.0834663933	 0.136105
H	 3.0544367485	-2.7569820496	 1.5817105887	 0.132052
H	 3.8443405928	-1.1644222816	 1.3962625551	 0.13433
74.6442	101.7849	176.9183	223.9192	242.6703	315.8446	387.7878	547.6597	562.3988	623.1974	664.7826	706.1032	755.2565	789.7778	801.3001	878.7888	909.7853	952.7221	1016.0141	1049.5327	1063.414	1093.5148	1105.3471	1140.966	1190.4117	1193.524	1226.0459	1242.8646	1273.887	1307.991	1328.4513	1372.5223	1402.3611	1472.8379	1492.9733	1499.3155	1513.6177	1718.0208	1824.9398	3010.2424	3040.2302	3061.5091	3082.0204	3111.4607	3112.4163	3122.5903	3135.8167	3248.5342
CC1C=C2CCN2C1=O	C[C@H]1C=C2CCN2C1=O	
InChI=1S/C7H9NO/c1-5-4-6-2-3-8(6)7(5)9/h4-5H,2-3H2,1H3	InChI=1S/C7H9NO/c1-5-4-6-2-3-8(6)7(5)9/h4-5H,2-3H2,1H3/t5-/m0/s1
