19
gdb 111656	2.81001	1.22968	1.13015	2.288	75.85	-0.2426	-0.0226	0.22	1186.1711	0.158738	-423.032582	-423.023944	-423.023	-423.0669	31.92	
C	-0.0709249872	 1.5028846103	 0.3456686043	-0.376594
C	-0.0160769483	-0.0198775042	 0.5193293312	-0.20926
C	-1.3631364266	-0.6610722222	 0.2567790218	-0.040519
C	-1.823151055	-1.1008844198	-1.0930819935	 0.083345
O	-0.8428120487	-1.1887475403	-2.1056204086	-0.261143
C	-0.0041266695	-2.3133324108	-1.8858450115	-0.188378
C	-0.4275569659	-2.9570173006	-0.5579903183	 0.374897
O	 0.0425740576	-3.9640301709	-0.0932584606	-0.31781
C	-1.5791973024	-2.1585706994	-0.040283093	-0.239819
H	 0.8994975766	 1.9577943028	 0.5653042797	 0.116094
H	-0.3456197148	 1.7674182328	-0.6800672949	 0.130297
H	-0.8097793655	 1.9528420583	 1.0179692243	 0.114676
H	 0.7423476275	-0.4301265354	-0.1532812416	 0.110759
H	 0.3064438863	-0.2689005247	 1.537357274	 0.109531
H	-2.1605376425	-0.2708740515	 0.88718985	 0.099256
H	-2.8069968729	-0.8541749175	-1.4775453409	 0.108291
H	-0.1264199602	-3.0452592291	-2.6959278034	 0.134962
H	 1.0504400439	-2.0136072344	-1.8575181307	 0.134984
H	-2.3534913323	-2.6898243436	 0.4982378517	 0.116432
35.3417	88.0192	139.2984	186.7811	245.9062	264.5532	403.2795	444.8186	552.395	593.409	615.5865	696.2864	738.1321	777.1437	809.9171	868.2082	910.8211	944.2854	984.3361	1000.2074	1035.8692	1055.9863	1068.1789	1089.7363	1122.0777	1152.0296	1198.7412	1206.836	1220.4707	1293.344	1305.4829	1317.2271	1343.7726	1377.6222	1407.9075	1434.1013	1479.7023	1483.607	1498.2176	1505.4496	1839.5635	3015.2095	3034.6418	3039.4183	3057.8619	3084.3031	3105.8145	3113.572	3125.0115	3168.8622	3198.539
CCC1C2OCC(=O)C12	CC[C@H]1[C@H]2OCC(=O)[C@@H]12	
InChI=1S/C7H10O2/c1-2-4-6-5(8)3-9-7(4)6/h4,6-7H,2-3H2,1H3	InChI=1S/C7H10O2/c1-2-4-6-5(8)3-9-7(4)6/h4,6-7H,2-3H2,1H3/t4-,6-,7-/m1/s1
