18
gdb 62296	3.39512	1.51216	1.20871	1.7014	82.73	-0.2309	0.0338	0.2647	1052.184	0.146362	-364.679143	-364.671285	-364.67034	-364.71102	31.456	
C	-0.1408404473	 1.567477598	 0.0325388731	-0.468341
C	-0.0516963868	 0.0468473462	-0.0460548308	 0.149046
C	-1.3651261259	-0.5610022329	 0.1151307147	 0.286194
C	-2.4603585381	-1.043795041	 0.2339193778	-0.437183
C	 0.8860684138	-0.6118041836	-1.0756762543	-0.101371
C	 2.1191483184	-0.2566101683	-0.1953101798	-0.018272
C	 2.6434259253	-1.6932152473	-0.1546417983	-0.271334
C	 1.1195203779	-1.7987033579	-0.096024767	 0.002312
N	 1.0300687728	-0.5817304435	 0.8711695619	-0.188287
H	 0.8357450565	 2.0354479717	-0.1131831081	 0.118847
H	-0.8229593076	 1.9476873849	-0.7336098299	 0.128701
H	-0.5271764726	 1.8692128761	 1.0102543537	 0.138532
H	-3.424538232	-1.4751056583	 0.3445193285	 0.192964
H	 0.8101299961	-0.6364270997	-2.1680682915	 0.068623
H	 2.6762651846	 0.6791504921	-0.1572850879	 0.087213
H	 3.1321610095	-2.0672278764	-1.0576075377	 0.101439
H	 3.182765861	-1.9833203035	 0.7507974792	 0.111972
H	 0.4774831541	-2.6651792366	 0.0561319264	 0.098946
141.0866	156.866	194.6448	265.4101	271.6104	398.4811	457.0689	520.1241	549.7937	624.6921	627.0099	647.5549	727.714	818.2077	830.613	841.4416	855.6161	891.5565	924.8637	942.7937	1019.3969	1025.4214	1027.5256	1088.0666	1114.6547	1133.3164	1152.4238	1154.3975	1177.61	1219.6439	1234.5588	1241.9792	1275.3545	1323.8626	1408.5162	1485.5855	1490.2071	1492.1427	2227.6153	3044.9648	3047.0811	3058.7203	3114.223	3117.5365	3123.6707	3127.5906	3131.0958	3501.1458
CC1(C#C)C2C3CC2N13	C[C@@]1(C#C)[C@H]2[C@@H]3C[C@H]2N13	
InChI=1S/C8H9N/c1-3-8(2)7-5-4-6(7)9(5)8/h1,5-7H,4H2,2H3	InChI=1S/C8H9N/c1-3-8(2)7-5-4-6(7)9(5)8/h1,5-7H,4H2,2H3/t5-,6+,7-,8-/m1/s1
