15
gdb 61148	3.20949	1.0302	0.90173	3.3429	73.79	-0.2658	-0.0604	0.2054	1269.6141	0.1121	-413.003185	-412.993731	-412.992787	-413.038775	32.019	
C	-0.2498488597	 1.3767453429	 0.0699820135	-0.364896
N	 0.0517291454	-0.0451110844	-0.0078811471	-0.092036
C	-0.0239882074	-0.8037895124	 1.2283129882	-0.307131
C	-1.4040861645	-0.9538187409	 1.7223173168	 0.272046
N	-2.4892636332	-1.0369325647	 2.1091766315	-0.297791
C	 0.0600545216	-0.7564557689	-1.1841084864	 0.327222
N	 0.0601114243	-2.0364479047	-1.2103009179	-0.527508
C	 0.1141713033	 0.0364328081	-2.4022855818	 0.232484
N	 0.1603546204	 0.5946699422	-3.4140080635	-0.327903
H	-0.0878537528	 1.8468098812	-0.8998581899	 0.176927
H	-1.2889254928	 1.5505980924	 0.376932716	 0.156591
H	 0.4140835492	 1.85219943	 0.7992496415	 0.141754
H	 0.3995491089	-1.7946889438	 1.0514138564	 0.201568
H	 0.5675465542	-0.2954793954	 1.9976767638	 0.158197
H	 0.1326247132	-2.3922842415	-2.1590595311	 0.250475
38.6663	61.7116	102.771	145.8428	176.107	256.4629	327.9295	346.3454	371.3826	395.3841	478.4659	556.378	658.5151	718.6248	744.2778	805.9467	907.9353	944.7949	1014.7921	1088.2147	1157.5798	1215.7164	1236.8076	1337.2992	1383.2037	1436.7603	1450.055	1477.1405	1483.1571	1525.4394	1669.3021	2347.3623	2361.7221	3023.1605	3052.7812	3084.8205	3122.5821	3154.6457	3546.329
CN(CC#N)C(=N)C#N	CN(CC#N)C(=N)C#N	
InChI=1S/C5H6N4/c1-9(3-2-6)5(8)4-7/h8H,3H2,1H3	InChI=1S/C5H6N4/c1-9(3-2-6)5(8)4-7/h8H,3H2,1H3
