14
gdb 129738	3.40675	1.13254	0.88657	2.1031	67.49	-0.2247	-0.0065	0.2183	1231.9647	0.100895	-469.981645	-469.973448	-469.972504	-470.015554	29.271	
N	-0.3183634885	 1.2634408359	 0.3346679752	-0.597414
C	-0.1736778072	-0.0764433411	 0.1002728334	 0.416387
C	-1.0696731362	-1.0449806685	-0.2742541624	 0.091563
O	-2.3756930859	-0.8307605579	-0.6432609015	-0.22671
C	-3.3374577395	-1.1911003224	 0.2572678659	 0.104551
N	-4.5475350779	-1.0263473835	-0.0405922167	-0.427387
C	-0.3006974543	-2.2328090919	-0.2924506257	-0.028988
N	 0.9464966297	-2.0254231188	 0.0500120608	-0.15779
O	 1.0235784732	-0.6289361497	 0.2996751708	-0.211314
H	 0.5279378274	 1.805787506	 0.2346062949	 0.273832
H	-1.1161522841	 1.6765326378	-0.1273022366	 0.278028
H	-2.9148006367	-1.60222941	 1.1818262936	 0.104087
H	-5.1424377053	-1.3378692329	 0.7242113447	 0.238513
H	-0.6200558949	-3.2339768631	-0.5470774162	 0.14264
35.854	111.4145	139.1437	244.9529	268.4688	303.8864	423.8708	451.8266	503.0581	588.4343	634.1523	703.6679	743.4556	825.104	828.6772	875.6911	911.0622	938.6213	1031.725	1049.7442	1075.1687	1189.408	1250.5376	1270.3035	1365.6531	1401.3193	1439.1531	1546.8273	1631.7961	1698.4432	1751.2428	3053.7406	3240.898	3524.3541	3565.3828	3670.793
NC1=C(OC=N)C=NO1	Nc1c(O[CH][NH])cno1	
InChI=1S/C4H5N3O2/c5-2-8-3-1-7-9-4(3)6/h1-2,5H,6H2	InChI=1S/C4H5N3O2/c5-2-8-3-1-7-9-4(3)6/h1-2,5H,6H2
