20
gdb 108866	2.41635	1.33473	0.9034	3.9584	77.37	-0.2535	0.0201	0.2736	1308.4755	0.17158	-440.309901	-440.300922	-440.299978	-440.343721	33.593	
C	-0.0555675099	 1.5390575729	 0.0587909579	-0.387132
C	 0.0427073389	 0.0134588433	 0.0383729279	 0.056834
C	 0.7376936397	-0.5152514667	-1.2242064182	-0.231268
C	 1.0431338725	-1.9955058116	-1.0468830959	-0.086156
O	 1.8110494102	-2.2256242129	 0.1470103143	-0.253527
C	 1.517895277	-1.4322943083	 1.1998966089	 0.375273
C	 2.2686033464	-1.846647146	 2.4459780937	-0.113807
O	 2.0018411614	-0.98548769	 3.5157147329	-0.424109
N	 0.7301904669	-0.4401770925	 1.2487048901	-0.346757
H	 0.9427528628	 1.9881923742	 0.0371283377	 0.119918
H	-0.6189321429	 1.9060009132	-0.8053256568	 0.108796
H	-0.5560756397	 1.8737435853	 0.9710413982	 0.125773
H	-0.9794226154	-0.3921847606	 0.0716991557	 0.087761
H	 0.1132573389	-0.3687049331	-2.1114912077	 0.107722
H	 1.6738952594	 0.0327928126	-1.3857728449	 0.113623
H	 0.117255405	-2.5809707491	-0.9766535799	 0.115464
H	 1.6436397126	-2.3995936402	-1.8648083822	 0.122133
H	 1.9853431657	-2.8839972454	 2.6862218715	 0.110522
H	 3.3434822647	-1.8658933943	 2.2076759492	 0.112591
H	 1.3577499258	-0.3485035907	 3.1629854776	 0.286345
81.6703	117.8648	152.4935	202.5805	239.4677	256.8064	336.642	417.9638	422.9926	445.5214	493.7682	551.9875	624.9083	671.8345	810.9367	883.9506	902.7293	959.7723	971.9149	1002.8021	1038.2311	1051.6663	1126.1333	1140.0682	1145.9697	1186.1475	1216.3266	1242.667	1263.9525	1275.8631	1325.7039	1339.799	1351.1712	1382.2535	1406.6512	1413.4077	1476.6185	1484.1715	1488.8198	1498.2111	1506.4132	1513.6373	1746.2601	2981.1405	2990.441	3000.1578	3025.8214	3035.4293	3039.3877	3087.2696	3106.1403	3108.0063	3121.5954	3650.6084
CC1CCOC(CO)=N1	C[C@H]1CCOC(=N1)CO	
InChI=1S/C6H11NO2/c1-5-2-3-9-6(4-8)7-5/h5,8H,2-4H2,1H3	InChI=1S/C6H11NO2/c1-5-2-3-9-6(4-8)7-5/h5,8H,2-4H2,1H3/t5-/m0/s1
