17
gdb 77736	2.41795	2.11402	1.38908	2.4498	73.68	-0.2494	-0.0493	0.2001	948.0023	0.136382	-417.915106	-417.907724	-417.90678	-417.946564	29.292	
C	-0.2419319532	 1.51868106	-0.0463070373	-0.482006
C	 0.0564609912	 0.0455362066	 0.0487879292	 0.208058
C	 0.7059636616	-0.7159669576	-1.1229945999	-0.084329
C	 1.3936366049	-2.0787698662	-0.9819464859	-0.192513
N	 0.7255043547	-2.5889691658	 0.2443108322	-0.232746
C	-0.3201874666	-1.8605834249	 0.3566516293	 0.093463
C	-0.2766494103	-0.7611741804	 1.4010296049	 0.093198
O	 0.5897318835	-0.9174101764	 2.4485325638	-0.408389
N	-0.6992007113	-0.9650975348	-0.7622517678	-0.159062
H	 0.5481564506	 2.1011478164	 0.4385116133	 0.136802
H	-0.3152916906	 1.837256581	-1.0899821478	 0.133751
H	-1.1907108615	 1.7534726406	 0.4469058182	 0.132939
H	 0.8812269743	-0.1180376203	-2.01508975	 0.101174
H	 1.2224328568	-2.6816363961	-1.884808763	 0.124164
H	 2.4711960763	-2.0459662383	-0.7948580684	 0.121613
H	-1.2193522328	-0.3483479471	 1.769926403	 0.120357
H	 1.2459259322	-1.5670121168	 2.1457166262	 0.293526
154.6536	185.273	230.8099	257.7187	328.3864	370.8012	490.9085	564.2631	582.9163	643.5415	700.3853	711.5358	771.2838	815.6392	844.5756	864.0989	950.9163	979.1881	994.7145	1013.6749	1054.3525	1085.1144	1101.9687	1128.3636	1181.501	1203.3966	1209.305	1252.8308	1301.5156	1318.6459	1378.0241	1409.6406	1451.4399	1481.3707	1486.7607	1491.6565	1612.9506	3012.0849	3036.5804	3080.2234	3089.9252	3105.9375	3115.6365	3143.6928	3676.7414
CC12C3CN=C(C1O)N23	C[C@@]12[C@H]3C[N][C]([C@H]1O)N23	
InChI=1S/C6H8N2O/c1-6-3-2-7-5(4(6)9)8(3)6/h3-4,9H,2H2,1H3	InChI=1S/C6H8N2O/c1-6-3-2-7-5(4(6)9)8(3)6/h3-4,9H,2H2,1H3/t3-,4-,6-,8?/m1/s1
