15
gdb 133555	2.92062	1.36205	1.23558	2.9674	57.72	-0.2414	0.0673	0.3087	1019.0574	0.110008	-548.270856	-548.263248	-548.262303	-548.303581	28.662	
F	-0.1185238505	 0.0609175472	-0.1198130198	-0.065529
C	-0.0141818081	 1.3820804272	 0.0559915412	 0.23129
F	 1.2953002781	 1.684108757	 0.1176275327	-0.083476
F	-0.5149774676	 1.9698614778	-1.0447986442	-0.080577
C	-0.7237270582	 1.8465799067	 1.2887443729	 0.197136
C	-0.2908553616	 3.0453866386	 2.0860058827	-0.333553
C	-0.347771122	 1.6923400232	 2.7525619527	-0.135829
C	-1.8051693603	 1.2965011508	 3.003580726	-0.170953
N	-2.0997145784	 1.4281764219	 1.5399694483	-0.372303
H	 0.7088284352	 3.4105233096	 1.8793352698	 0.135899
H	-1.0222470335	 3.812812595	 2.3287230825	 0.10999
H	 0.5272723285	 1.2186618276	 3.1760681122	 0.115984
H	-1.9386228793	 0.2633842393	 3.3366188304	 0.123382
H	-2.3723850633	 1.9629799056	 3.6635834892	 0.105424
H	-2.7894170689	 2.1387044625	 1.3092741736	 0.223115
55.9741	144.571	190.1159	301.2652	345.3395	398.6128	423.4036	482.6183	574.8632	585.6371	708.767	743.2858	839.5995	858.6521	898.0737	957.285	979.5682	1002.5466	1016.267	1023.3995	1079.9416	1120.868	1152.617	1176.8439	1193.0856	1209.3057	1230.1757	1298.2938	1339.8167	1370.4888	1432.8849	1484.2671	1511.8284	3033.0702	3086.9443	3113.4972	3210.9312	3221.153	3491.9454
FC(F)(F)C12CC1CN2	FC(F)(F)[C@]12C[C@H]1CN2	
InChI=1S/C5H6F3N/c6-5(7,8)4-1-3(4)2-9-4/h3,9H,1-2H2	InChI=1S/C5H6F3N/c6-5(7,8)4-1-3(4)2-9-4/h3,9H,1-2H2/t3-,4-/m0/s1
