16
gdb 63504	1.99443	1.75385	1.07215	3.3538	71.67	-0.2826	-0.0687	0.2139	1120.3922	0.12005	-437.88944	-437.879947	-437.879003	-437.923502	33.744	
C	 0.1231233365	 1.4976053159	 0.039724159	-0.472108
C	 0.0076022791	-0.0084852466	 0.0751427877	 0.330267
C	-1.2320328636	-0.5883727447	-0.5694048334	-0.46205
O	 1.213632966	-0.7277535912	-0.1570305146	-0.276395
C	 0.6994672229	-0.8020783222	 1.1676688799	 0.1001
C	 1.4905269175	-0.1215768456	 2.2658144401	 0.098304
O	 2.3303390514	 0.7126053534	 2.0668326712	-0.23628
C	 0.146613344	-2.0803348928	 1.5773759708	 0.24645
N	-0.2827935002	-3.0837194334	 1.9585810139	-0.325829
H	 1.0604895135	 1.8371763965	 0.477554951	 0.172646
H	 0.0855039621	 1.8276768212	-1.0037109471	 0.139586
H	-0.7181902236	 1.9590439752	 0.5658932779	 0.13248
H	-1.2581189636	-0.2925487486	-1.6231897494	 0.141768
H	-1.2471510293	-1.6776601896	-0.5142341529	 0.157531
H	-2.132892701	-0.1968234122	-0.0875549633	 0.138759
H	 1.2163023183	-0.4611980652	 3.2859150991	 0.114769
119.6092	131.3277	147.637	159.5437	187.775	205.5565	254.2492	321.4711	368.553	400.315	460.597	543.8225	550.3023	592.6667	720.8042	745.0311	841.4048	954.1503	962.7066	991.9577	1035.7902	1109.801	1130.2917	1172.3817	1255.5333	1369.2867	1410.1875	1421.1518	1426.5515	1472.4993	1480.7508	1498.4175	1508.2293	1833.0153	2352.6198	2925.3762	3044.8871	3050.2032	3107.2452	3114.3555	3148.4659	3169.119
CC1(C)OC1(C=O)C#N	CC1(C)O[C@]1(C=O)C#N	
InChI=1S/C6H7NO2/c1-5(2)6(3-7,4-8)9-5/h4H,1-2H3	InChI=1S/C6H7NO2/c1-5(2)6(3-7,4-8)9-5/h4H,1-2H3/t6-/m0/s1
