13
gdb 69034	2.82162	1.41181	1.17873	4.2761	67.13	-0.256	-0.0205	0.2355	1034.3675	0.086278	-456.5112	-456.503144	-456.502199	-456.543749	30.049	
O	-0.115136826	 1.4573612434	-0.0042668976	-0.430481
C	-0.0205909902	 0.0979594069	 0.0163604326	 0.127884
C	-0.223673662	-0.8008301347	-1.2066282992	-0.392451
C	-1.1180652164	-0.965150272	-0.0137376858	 0.251244
O	-0.3870690202	-1.7623415602	 0.9736714882	-0.288698
C	 0.5633372575	-0.7566008482	 1.1275892153	 0.412223
O	 1.4470105249	-0.7071941249	 1.9148105105	-0.319478
C	-2.5270620071	-0.8881638646	 0.0563371296	 0.234587
C	-3.7261570825	-0.8203515811	 0.1069615014	-0.400817
H	 0.5675001515	 1.8135107501	-0.5843204593	 0.307367
H	-0.6677457795	-0.2737784955	-2.0461489297	 0.148422
H	 0.4785115238	-1.5912573502	-1.4519026869	 0.143639
H	-4.785586934	-0.761313179	 0.1587312409	 0.206559
107.6672	122.4679	199.6019	244.9223	286.234	339.9887	414.7088	474.0093	512.9191	564.3729	590.463	663.4149	674.8253	703.4928	749.3676	774.621	835.5171	911.8782	973.3667	1005.4438	1076.1783	1112.2237	1147.136	1275.6506	1353.8511	1422.3366	1494.236	1953.9594	2244.6896	3122.6449	3222.752	3499.4106	3797.283
OC12CC1(OC2=O)C#C	O[C@]12C[C@]1(OC2=O)C#C	
InChI=1S/C6H4O3/c1-2-5-3-6(5,8)4(7)9-5/h1,8H,3H2	InChI=1S/C6H4O3/c1-2-5-3-6(5,8)4(7)9-5/h1,8H,3H2/t5-,6+/m1/s1
