21
gdb 106298	3.23756	1.23779	1.14263	2.2776	78.	-0.2467	0.0749	0.3216	1181.0563	0.182647	-424.218664	-424.209991	-424.209047	-424.251571	34.314	
C	-0.277344521	 1.4088016789	 0.0060690081	-0.494962
C	-0.0020634861	-0.0676077579	-0.0152320799	 0.421338
C	 0.7973343198	-0.7864434309	-1.1327700773	-0.331121
C	-0.1345450353	-1.9237047622	-0.6621190005	 0.400122
C	-0.6633885086	-3.0285396539	-1.5391530139	-0.170763
O	-1.7582342715	-3.6850275493	-0.9221989863	-0.418761
C	 0.3787371812	-2.2443833117	 0.76049389	-0.251268
C	 0.4851188345	-0.7759464999	 1.2725017658	-0.250874
O	-1.1584420671	-0.9044447205	-0.3774467608	-0.380037
H	 0.6389622341	 1.9627184098	 0.2354215441	 0.122383
H	-0.6574956275	 1.7512069201	-0.9602922816	 0.125678
H	-1.0201994076	 1.6491127301	 0.7739702438	 0.128273
H	 0.5299707666	-0.4181334376	-2.1248194862	 0.103271
H	 1.8787757657	-0.9042623284	-1.0244754818	 0.091605
H	-0.9435556386	-2.6138288396	-2.5196972388	 0.090775
H	 0.1110081136	-3.7861274601	-1.7032148696	 0.109417
H	-2.3838833946	-2.9929731028	-0.6769264333	 0.295914
H	-0.3498444427	-2.8432341408	 1.3082474692	 0.114532
H	 1.3344733972	-2.775981465	 0.7529407443	 0.09544
H	 1.4994568439	-0.4819957971	 1.5572068143	 0.095822
H	-0.184370426	-0.5682204312	 2.1106842302	 0.103217
88.9984	159.0681	200.9687	236.9003	252.6221	319.8396	351.6342	422.9542	429.5986	471.1358	562.5428	600.6445	652.8086	741.7676	801.0124	826.8466	833.35	876.8929	901.4015	950.5334	968.7485	1005.2903	1025.1912	1056.4493	1064.8791	1109.8441	1150.8374	1159.0816	1189.6564	1218.8703	1233.6483	1243.1625	1252.0766	1267.3176	1333.0487	1355.9401	1386.6374	1417.0601	1438.7197	1478.3358	1482.6137	1484.5284	1493.8421	1495.297	1510.6978	2987.0507	3036.8391	3057.3587	3060.2043	3068.9341	3072.118	3103.8571	3107.4053	3116.306	3130.5912	3133.9607	3794.77
CC12CC(CO)(CC1)O2	C[C@@]12C[C@@](CO)(CC1)O2	
InChI=1S/C7H12O2/c1-6-2-3-7(4-6,5-8)9-6/h8H,2-5H2,1H3	InChI=1S/C7H12O2/c1-6-2-3-7(4-6,5-8)9-6/h8H,2-5H2,1H3/t6-,7+/m0/s1
