17
gdb 130389	3.27257	1.2308	1.02405	5.4194	69.76	-0.2463	0.0191	0.2654	1166.3036	0.138917	-451.336175	-451.32797	-451.327026	-451.3692	30.64	
N	-0.8634993832	 1.845233425	 0.6563089989	-0.524209
H	-1.3739982209	 1.8226442425	-0.220148933	 0.239274
H	 0.0103215223	 2.3341881067	 0.4820411372	 0.251873
H	-1.562980594	 2.5883478303	 2.5178990188	 0.27757
C	-0.5388736269	 0.4753987434	 1.0877697254	-0.173436
C	 0.2783513304	 0.5095365542	 2.3810217641	 0.02106
O	 1.4757962983	 1.2266667254	 2.0627525221	-0.441526
C	-0.4454024465	 1.1411380635	 3.5322635796	 0.345122
N	-1.3057340809	 2.1936107665	 3.4183009751	-0.275397
C	-1.6780990098	 2.4771279388	 4.6950142208	 0.014796
N	-1.0868919916	 1.6662838701	 5.539757377	-0.219356
N	-0.2998296355	 0.8113033127	 4.7958733008	-0.282217
H	-1.4701952208	-0.0710695226	 1.2682992574	 0.120027
H	 0.0416921954	-0.0868009244	 0.3420050084	 0.107105
H	 0.5167998926	-0.5195031729	 2.6802421556	 0.103337
H	 1.9582587055	 1.3622882539	 2.8855699847	 0.297045
H	-2.3692455744	 3.2633382269	 4.9556892271	 0.138932
73.2092	145.2	178.8334	212.1671	295.5361	338.9085	363.478	379.9736	434.7621	591.88	675.2772	742.6246	795.9544	807.9991	843.9849	882.1347	922.2505	979.3333	991.6725	1026.1273	1051.7148	1064.3367	1092.0167	1114.0715	1173.7994	1224.4556	1259.561	1315.9774	1354.3507	1376.3851	1413.6259	1425.5335	1430.9828	1500.1897	1520.1975	1563.2391	1641.4914	2997.7691	3028.8685	3080.4271	3267.0811	3498.1273	3508.8003	3579.7669	3813.3225
[NH3+]CC(O)C1=NC=N[N-]1	NC[C@@H](O)c1[nH]cnn1	
InChI=1S/C4H7N4O/c5-1-3(9)4-6-2-7-8-4/h2-3,9H,1,5H2/q-1/p+1	InChI=1S/C4H8N4O/c5-1-3(9)4-6-2-7-8-4/h2-3,9H,1,5H2,(H,6,7,8)/t3-/m1/s1
