18
gdb 45468	3.66562	1.34708	1.04057	5.2003	82.25	-0.2077	-0.0302	0.1776	1129.3595	0.15012	-401.969102	-401.961654	-401.96071	-402.001233	28.895	
O	-0.0093597911	-0.1283184166	-0.1139171943	-0.352555
C	 0.0024011876	 1.087571262	-0.0374651197	 0.357652
C	-1.317790286	 1.8787381328	 0.1138149685	-0.344971
C	-1.2238919725	 3.2432044284	-0.556657675	 0.044298
C	-1.9766455598	 4.4684078289	 0.0453755708	-0.267413
C	-0.5910028347	 5.1086888566	 0.3511926523	-0.174847
N	 0.0490909924	 3.9309807984	-0.2638278657	-0.057354
C	 1.1669538908	 3.2469438843	 0.0770360349	 0.015372
C	 1.2186819466	 1.8873587134	 0.0473931946	-0.247465
H	-2.1353682409	 1.2806020832	-0.2937084594	 0.125432
H	-1.4956443216	 1.989174562	 1.1926376709	 0.11395
H	-1.3573671348	 3.1326780468	-1.6408109565	 0.09419
H	-2.5942889949	 5.0227350219	-0.6618448787	 0.119389
H	-2.5678310666	 4.2344846811	 0.9319452346	 0.118906
H	-0.3712819915	 6.0461028907	-0.1705214592	 0.119395
H	-0.3664703767	 5.2353494336	 1.4156291387	 0.119427
H	 2.0338615426	 3.8555705515	 0.3274365766	 0.118394
H	 2.1590107712	 1.365004941	 0.1684616665	 0.098201
96.9937	121.4966	186.7017	305.7426	379.0576	433.7985	466.5138	505.0571	632.5945	639.8469	753.0148	780.3849	788.3888	818.8859	863.94	908.275	953.7491	966.8338	1001.5608	1056.4146	1075.2058	1118.6912	1146.4834	1181.5789	1193.4376	1218.1844	1245.3061	1258.1186	1265.9502	1295.6302	1328.7232	1351.4127	1383.8785	1462.0554	1468.9293	1488.551	1517.455	1630.1857	1757.6935	3008.839	3023.1624	3032.5413	3075.0293	3086.5897	3114.174	3143.1416	3149.0182	3216.0178
O=C1CC2CCN2C=C1	O=C1C[C@H]2CCN2C=C1	
InChI=1S/C7H9NO/c9-7-2-4-8-3-1-6(8)5-7/h2,4,6H,1,3,5H2	InChI=1S/C7H9NO/c9-7-2-4-8-3-1-6(8)5-7/h2,4,6H,1,3,5H2/t6-/m1/s1
