13
gdb 129833	3.21995	1.43708	0.99385	6.7966	65.73	-0.2375	-0.0575	0.1801	1077.5133	0.089244	-489.900991	-489.89329	-489.892345	-489.933014	29.354	
N	 0.0834943256	 1.365149493	 0.1030324326	-0.588456
C	-0.0035025045	 0.0117076592	 0.0344484598	 0.322008
C	-1.1429151932	-0.7296130884	 0.0171170281	-0.370969
C	-1.1013784468	-2.1701161813	-0.012454946	 0.453198
O	-2.0388386012	-2.9238266638	-0.0255049078	-0.350256
O	 0.1755893853	-2.7570914646	-0.0292559961	-0.271492
N	 1.3406734752	-2.0175849549	-0.025064372	-0.179015
C	 1.2409642627	-0.7401663521	 0.0066092787	 0.419406
O	 2.3744940785	-0.0015405144	 0.0064173887	-0.423468
H	 0.9756347292	 1.7961486153	-0.0690612482	 0.282682
H	-0.7399239702	 1.9230154651	-0.0451838865	 0.27133
H	-2.1276482418	-0.2793554	 0.0298114546	 0.119397
H	 3.1202704513	-0.6180743231	-0.0226036857	 0.315636
108.5651	175.3656	274.9805	320.45	362.2638	384.4835	393.1048	445.5024	464.2988	528.4348	540.1309	593.3784	718.8664	723.5329	750.5347	792.3219	861.4251	871.4871	1026.5038	1082.9366	1198.0255	1244.4397	1309.8053	1351.309	1505.2339	1630.0718	1648.9453	1708.3272	1836.4189	3211.1578	3613.266	3735.6366	3762.307
NC1=CC(=O)ON=C1O	Nc1cc(=O)onc1O	
InChI=1S/C4H4N2O3/c5-2-1-3(7)9-6-4(2)8/h1H,5H2,(H,6,8)	InChI=1S/C4H4N2O3/c5-2-1-3(7)9-6-4(2)8/h1H,5H2,(H,6,8)
