20
gdb 61454	2.5439	1.06549	0.88807	2.0574	76.56	-0.243	0.0337	0.2767	1391.2596	0.168796	-440.303438	-440.293176	-440.292231	-440.340525	35.929	
C	 0.0803729051	 1.6460576607	 0.0939539754	-0.399446
C	-0.0021044319	 0.114129367	 0.0065847821	 0.010445
N	 0.6089807737	-0.3921936509	-1.2092827444	-0.324524
C	-0.1008765566	-0.6147043555	-2.353887087	 0.412338
C	 0.7225277878	-1.0847225663	-3.5434507898	-0.485551
O	-1.3056230945	-0.4438212298	-2.4237917346	-0.380394
C	 0.6537753057	-0.5379947795	 1.2133240455	 0.086429
C	 1.1416978588	-1.9188550721	 1.2168332641	-0.188098
O	 2.0559721809	-0.8175012894	 1.0974659482	-0.246594
H	 1.1229906919	 1.9797611915	 0.1162498372	 0.122717
H	-0.4137545339	 2.0941700226	-0.7712275078	 0.13868
H	-0.4152257844	 2.0108888808	 0.9997556174	 0.116198
H	-1.056271543	-0.1795116958	-0.0299556572	 0.126387
H	 1.6104523764	-0.507694165	-1.1909400253	 0.25277
H	 0.220553766	-1.940548651	-4.0000272968	 0.15167
H	 0.7515279128	-0.2860884624	-4.2908152366	 0.151695
H	 1.7480464114	-1.3609109267	-3.2849570171	 0.114204
H	 0.3700169274	-0.0964608844	 2.1692230899	 0.098282
H	 1.2000892822	-2.4670926977	 2.1551772638	 0.1223
H	 1.0312144643	-2.5258719163	 0.321216063	 0.120491
30.0547	42.7908	87.7319	100.4092	164.9903	221.4408	240.6013	292.6306	364.0042	431.876	480.8066	527.6515	598.8797	612.2348	654.9062	772.1506	854.3381	899.3764	942.3441	979.4357	999.9194	1009.9773	1051.17	1074.8802	1097.3525	1129.5032	1161.2544	1174.6685	1187.7832	1249.4644	1289.5096	1336.2926	1367.6417	1395.8803	1402.6098	1431.5526	1469.9513	1483.4401	1491.2076	1497.8573	1522.1997	1527.2036	1774.0943	3035.9688	3048.7997	3069.2137	3096.0175	3104.6691	3110.5136	3120.7904	3128.1961	3136.9863	3187.5495	3630.2705
CC(NC(C)=O)C1CO1	C[C@@H](NC(=O)C)[C@H]1CO1	
InChI=1S/C6H11NO2/c1-4(6-3-9-6)7-5(2)8/h4,6H,3H2,1-2H3,(H,7,8)	InChI=1S/C6H11NO2/c1-4(6-3-9-6)7-5(2)8/h4,6H,3H2,1-2H3,(H,7,8)/t4-,6-/m1/s1
