16
gdb 96932	2.52885	1.38132	1.12275	0.8586	68.43	-0.2408	0.0117	0.2525	1131.1322	0.121734	-474.966792	-474.957831	-474.956887	-475.00047	32.614	
C	-0.0148080608	 1.4275840369	 0.159086005	-0.342976
N	 0.1293888865	-0.0128036587	 0.0064140402	-0.345348
C	 0.5531602045	-0.7000816482	 0.9535369837	 0.415592
O	 0.968023749	-0.3158433889	 2.2545641494	-0.307948
C	 1.4555347878	-1.6608330852	 2.5094802379	-0.033123
C	 0.2746706373	-2.5644757378	 2.5426876205	 0.049052
O	-0.959399567	-2.1818103919	 3.03917658	-0.423372
C	 0.873418658	-2.1444811945	 1.1813527221	 0.158737
O	 1.3902336841	-3.0233181631	 0.2657590959	-0.433161
H	 0.5194555561	 1.925057383	-0.656777195	 0.134439
H	-1.0729016779	 1.6923747238	 0.0566639519	 0.133222
H	 0.3557635364	 1.8149758261	 1.1150009853	 0.128875
H	 2.42952611	-1.7584017976	 2.9704854195	 0.132304
H	 0.4968949631	-3.606593897	 2.7592469763	 0.127937
H	-0.9348996286	-1.2214561792	 3.1434375345	 0.301922
H	 0.6594600515	-3.4832135176	-0.1631246572	 0.303847
95.2441	103.8923	182.761	209.0474	225.1198	248.5673	282.9941	326.5855	392.1302	480.7176	517.0337	643.2352	656.245	735.2331	756.7063	830.673	915.6113	928.2534	953.4379	1009.4995	1036.862	1067.1241	1119.0787	1133.0767	1170.001	1210.803	1273.3213	1291.5768	1315.6852	1408.3499	1438.5344	1485.8903	1491.8291	1499.0264	1865.7784	3020.7601	3088.4203	3094.1551	3157.4737	3208.1625	3770.2014	3796.0204
CN=C1OC2C(O)C12O	CN=C1O[C@H]2[C@@H](O)[C@@]12O	
InChI=1S/C5H7NO3/c1-6-4-5(8)2(7)3(5)9-4/h2-3,7-8H,1H3	InChI=1S/C5H7NO3/c1-6-4-5(8)2(7)3(5)9-4/h2-3,7-8H,1H3/t2-,3+,5+/m1/s1
