19
gdb 96868	2.83078	1.26267	0.98408	3.4672	81.91	-0.2172	-0.0561	0.1611	1260.0425	0.158861	-419.241415	-419.232066	-419.231122	-419.276178	34.012	
C	-0.1749297737	 1.3569862222	 0.0962086923	-0.343302
N	 0.0903380723	-0.0680203693	 0.0170667683	-0.326871
C	 0.6837472742	-0.5864987193	-0.9803841095	 0.287481
N	 1.0034166718	-1.9312899577	-1.0411064149	-0.324127
C	 1.3407010828	-2.4309416291	-2.3718656516	 0.021074
C	 0.1567145838	-3.0979963299	-3.0831176262	-0.388434
C	 1.823003833	-1.1502508864	-3.0812221659	-0.326914
C	 1.1928353725	-0.0019085952	-2.2978202409	 0.339775
O	 1.1102887698	 1.141921167	-2.6667418586	-0.307698
H	 0.2769874722	 1.7458795779	 1.0175357125	 0.119545
H	 0.1810558552	 1.9457672762	-0.7515662157	 0.147089
H	-1.2569640629	 1.5072989989	 0.202387836	 0.119389
H	 0.5805962132	-2.5410872055	-0.357365526	 0.244612
H	 2.1554943801	-3.1591365432	-2.2870670333	 0.089471
H	-0.6632231091	-2.3863856808	-3.2290019716	 0.127516
H	 0.4604503379	-3.481306571	-4.0628711875	 0.122383
H	-0.2257530035	-3.939456889	-2.4962230913	 0.118981
H	 2.911205728	-1.0414161486	-3.0083462947	 0.144205
H	 1.5557168826	-1.0981231873	-4.1383981214	 0.135823
62.0011	66.6596	87.3861	221.6639	243.0588	265.5854	338.0974	373.821	398.4897	417.0943	504.8108	537.0988	640.5888	670.326	678.7041	744.3691	849.9734	912.3344	972.1849	1012.8677	1044.2853	1077.6492	1116.8567	1132.6841	1144.4089	1175.3187	1206.9991	1257.1708	1290.0189	1339.8475	1392.4139	1408.2513	1434.8372	1441.9126	1449.0337	1492.7601	1495.6661	1498.8926	1500.3072	1738.4122	1838.7812	3014.3284	3028.4267	3029.9538	3054.7107	3055.1313	3103.9265	3106.79	3120.5853	3125.3879	3618.8746
CN=C1NC(C)CC1=O	CN=C1N[C@@H](C)CC1=O	
InChI=1S/C6H10N2O/c1-4-3-5(9)6(7-2)8-4/h4H,3H2,1-2H3,(H,7,8)	InChI=1S/C6H10N2O/c1-4-3-5(9)6(7-2)8-4/h4H,3H2,1-2H3,(H,7,8)/t4-/m0/s1
