17
gdb 7908	3.45575	1.80598	1.28224	3.0676	73.68	-0.2404	-0.0208	0.2197	974.6691	0.142227	-363.905286	-363.897351	-363.896407	-363.937452	29.401	
C	-0.1054801474	 1.5363367211	-0.0058057653	-0.391746
C	 0.020590535	 0.0146891591	-0.0228726477	 0.066138
O	 0.8588467898	-0.3930881011	-1.1213088306	-0.252975
C	 1.9061112713	-1.141846486	-0.6522318578	 0.332389
N	 2.8200100746	-1.6552874605	-1.3640803234	-0.54925
C	 1.7881893362	-1.2491749403	 0.8162328151	 0.272458
C	 2.7864980413	-1.9996468134	 1.6310224458	-0.487477
C	 0.6905448865	-0.5827707632	 1.1825246476	-0.222015
H	 0.8733469691	 1.9990550904	 0.1473258246	 0.129863
H	-0.5196958931	 1.8924843418	-0.9527132826	 0.133081
H	-0.772396995	 1.8510359422	 0.8031559994	 0.120304
H	-0.9722340437	-0.4296800141	-0.1868939008	 0.101861
H	 2.6757205904	-1.43554928	-2.3506007939	 0.22059
H	 2.8436106678	-3.0415148261	 1.2993632267	 0.148275
H	 3.7877116668	-1.5789453976	 1.491644836	 0.147678
H	 2.5367537956	-1.9777438458	 2.6943883197	 0.118738
H	 0.3049548949	-0.4597463965	 2.1867819872	 0.112089
121.8449	124.8158	163.2044	235.7352	261.7409	325.994	358.4223	493.3976	504.6524	609.6483	708.0781	748.5486	790.6628	852.9592	879.536	881.378	940.9409	1015.2442	1034.2981	1063.6054	1070.218	1102.7784	1135.0213	1202.4814	1251.053	1336.859	1353.443	1390.985	1403.0392	1416.5837	1471.427	1484.2201	1486.6054	1495.1805	1714.5378	1753.9105	2997.0805	3041.5657	3042.222	3098.0834	3117.1236	3126.5116	3127.6347	3215.5153	3481.6658
CC1OC(=N)C(C)=C1	C[C@H]1OC(=C(C)[CH]1)[NH]	
InChI=1S/C6H9NO/c1-4-3-5(2)8-6(4)7/h3,5,7H,1-2H3	InChI=1S/C6H9NO/c1-4-3-5(2)8-6(4)7/h3,5,7H,1-2H3/t5-/m1/s1
