21
gdb 120516	5.67773	0.67679	0.64118	1.6448	86.43	-0.2517	0.0252	0.2769	1800.8579	0.180383	-387.045107	-387.035096	-387.034152	-387.081195	36.229	
C	-0.3150833556	 1.6553828972	 0.3157560379	-0.382419
C	 0.0070704837	 0.1778168701	 0.0797593229	-0.163658
C	 0.8318942101	-0.4448542018	 1.2121102124	-0.188061
C	 1.1011628648	-1.9233570649	 0.999073403	 0.159763
C	 1.6660813852	-2.7392121576	 2.1810704004	-0.326466
C	 0.3578404849	-3.5672308696	 2.0608065086	-0.028012
O	-0.1206091313	-2.7131871688	 0.9920190906	-0.300375
C	 0.499121645	-4.9614279794	 1.6693780779	 0.334328
C	 0.6252685034	-6.1149456249	 1.3552461341	-0.463639
H	 0.5988954477	 2.2533153096	 0.4071311716	 0.11104
H	-0.9032457113	 2.0708704757	-0.5083458479	 0.113112
H	-0.8916889451	 1.7921136514	 1.237399395	 0.114437
H	-0.920800247	-0.3948151631	-0.0294371307	 0.120208
H	 0.55158718	 0.0654821402	-0.8671447065	 0.093575
H	 1.797285988	 0.0728590437	 1.3061273928	 0.093159
H	 0.3080535658	-0.3140426569	 2.1685445582	 0.09345
H	 1.6495603032	-2.0756999853	 0.0587914742	 0.078846
H	 2.5831840767	-3.2947288702	 1.9886506666	 0.121442
H	 1.7586116938	-2.1843274383	 3.1164718706	 0.111867
H	-0.3032340593	-3.4976819301	 2.9338724308	 0.105968
H	 0.7293937574	-7.134131927	 1.0752561574	 0.201436
31.0144	77.6206	99.4567	122.5287	196.5464	216.1477	245.8442	314.2939	371.0553	455.9763	513.6134	556.2829	618.2615	667.4976	743.9175	763.4501	794.2732	862.0113	894.0978	925.3883	955.3678	991.7356	1005.4406	1040.4597	1058.4266	1104.0885	1121.784	1131.2752	1197.1467	1252.4657	1253.4229	1263.5826	1285.6361	1321.7768	1336.2222	1359.1123	1384.9427	1409.1087	1414.7634	1471.9415	1489.4667	1492.9181	1499.6156	1509.3429	2233.5997	3000.6194	3005.2176	3020.5754	3021.4919	3028.2659	3045.3136	3069.0787	3084.7109	3096.6729	3102.0811	3149.2235	3502.6926
CCCC1CC(O1)C#C	CCC[C@H]1C[C@@H](O1)C#C	
InChI=1S/C8H12O/c1-3-5-8-6-7(4-2)9-8/h2,7-8H,3,5-6H2,1H3	InChI=1S/C8H12O/c1-3-5-8-6-7(4-2)9-8/h2,7-8H,3,5-6H2,1H3/t7-,8-/m0/s1
