13
gdb 133366	2.42225	1.84117	1.04679	3.9579	64.9	-0.228	-0.0286	0.1994	1019.3107	0.089622	-494.049096	-494.041671	-494.040727	-494.080725	28.602	
N	 0.0033675429	 1.3909256929	-0.1728847713	-0.559068
C	 0.0143698144	 0.0206554204	-0.0848693895	 0.341775
N	-1.1604537254	-0.612286817	-0.053336196	-0.283557
N	-1.2158399809	-1.942340005	-0.0316897115	-0.211404
C	-0.095014611	-2.6514683391	-0.0272122503	-0.103416
C	 1.1577795441	-2.0420260585	-0.0409290136	 0.163532
F	 2.2926696671	-2.7566598062	-0.0225453677	-0.082871
C	 1.2448532216	-0.6725946081	-0.0711875222	 0.206173
O	 2.4078650943	 0.0238769362	-0.0800834229	-0.445401
H	-0.8824106025	 1.8131947282	 0.0617630996	 0.265017
H	 0.8222493134	 1.8740264441	 0.1603939176	 0.266949
H	-0.186259155	-3.7319143224	-0.0062261503	 0.130006
H	 3.141597147	-0.6030015054	-0.0526906318	 0.312264
144.8314	247.6503	271.3041	295.536	309.4826	407.8612	422.7553	485.3271	509.0361	543.1541	587.8049	589.5934	635.3505	713.7268	784.7021	877.0734	891.4888	1018.3072	1085.0557	1168.292	1250.7184	1284.8244	1330.7086	1349.6389	1437.093	1528.2809	1606.3345	1622.2241	1669.0132	3194.0072	3582.7254	3702.4735	3793.1038
NC1=NN=CC(F)=C1O	Nc1nncc(F)c1O	
InChI=1S/C4H4FN3O/c5-2-1-7-8-4(6)3(2)9/h1H,(H2,6,8)(H,7,9)	InChI=1S/C4H4FN3O/c5-2-1-7-8-4(6)3(2)9/h1H,(H2,6,8)(H,7,9)
