18
gdb 80336	2.13584	1.50506	1.34405	5.8312	76.48	-0.2178	0.0189	0.2366	1077.7806	0.147918	-398.084546	-398.075598	-398.074654	-398.11787	33.654	
C	-0.0353550682	 1.5840884274	-0.0993189955	-0.422705
C	 0.0274293807	 0.0804048219	 0.0631271698	-0.036674
C	 1.2482311091	-0.7623185202	-0.1890671158	-0.102975
N	 2.4439033417	-0.0085810027	 0.2505210056	-0.321026
C	 1.9667260575	-0.084667843	 1.6704295599	-0.162393
C	 1.9774699718	 1.1709021157	 2.4254468704	 0.301902
N	 1.9770635257	 2.1490492406	 3.0414036514	-0.334361
C	 0.6194345394	-0.69045371	 1.2200764842	 0.278956
N	-0.124799098	-1.5319375837	 2.0816485251	-0.603745
H	 0.9377443318	 2.0433099572	 0.080911388	 0.155249
H	-0.3394340803	 1.8364992989	-1.1206594722	 0.114054
H	-0.7598693215	 2.0292954231	 0.5893429747	 0.125481
H	-0.8677165704	-0.4394835293	-0.280676891	 0.085163
H	 1.3101192822	-1.5540836147	-0.9263670511	 0.097906
H	 3.2932537492	-0.5515007762	 0.1378098349	 0.230838
H	 2.5190073565	-0.8328854782	 2.2504060134	 0.118515
H	-1.1077049305	-1.5652037297	 1.8468872146	 0.240461
H	 0.2361133831	-2.4774607772	 2.1363848937	 0.235354
107.8221	130.4522	173.6128	179.1703	228.2039	265.0001	304.8682	354.4123	429.8446	525.9503	548.1149	590.9534	647.2839	720.5065	753.5462	769.8236	829.1689	905.4726	931.2652	958.3074	976.4101	1029.0759	1063.1856	1067.5209	1102.5986	1132.4037	1182.022	1195.604	1263.9289	1306.2208	1334.5713	1354.0045	1376.0641	1415.8189	1475.3018	1495.2941	1504.9659	1655.8098	2353.2554	3041.8183	3044.1732	3101.1532	3106.2341	3142.4686	3183.8018	3521.9864	3531.6883	3617.5
CC1C2NC(C#N)C12N	C[C@H]1[C@H]2N[C@@H](C#N)[C@@]12N	
InChI=1S/C6H9N3/c1-3-5-6(3,8)4(2-7)9-5/h3-5,9H,8H2,1H3	InChI=1S/C6H9N3/c1-3-5-6(3,8)4(2-7)9-5/h3-5,9H,8H2,1H3/t3-,4-,5+,6-/m0/s1
