16
gdb 68000	2.91782	1.84589	1.34942	5.2285	67.72	-0.2355	0.0026	0.2381	944.0507	0.125392	-437.868503	-437.86154	-437.860595	-437.899623	27.842	
C	 0.0335099383	 1.4354404547	 0.0239029317	-0.48168
C	-0.0446836795	-0.0601985169	-0.0134180629	 0.453939
O	 0.8883883126	-0.6430499509	-0.9197843375	-0.264237
C	 0.4446354805	-1.8909655089	-1.2761899799	 0.490358
O	 0.96306337	-2.5576093194	-2.1185251249	-0.342109
C	-0.7200842706	-2.2026127493	-0.336968662	-0.209419
N	-0.0235843459	-2.2662967427	 1.0160399699	-0.327226
C	-0.4202022609	-0.8613674902	 1.2215397432	-0.098255
C	-1.3359387608	-0.823208778	-0.0038631907	-0.17875
H	 1.0227119141	 1.7640430351	 0.3556221572	 0.143383
H	-0.1551399803	 1.8551685545	-0.9685939735	 0.138885
H	-0.7121571281	 1.8359768511	 0.7168046242	 0.126904
H	-1.3203916395	-3.0638571251	-0.6138172102	 0.105505
H	-0.5975967536	-2.8503536833	 1.6193920185	 0.233921
H	-0.4975497733	-0.4187734537	 2.2082512461	 0.103921
H	-2.3243480032	-0.4322745969	-0.2128279393	 0.10486
158.8117	207.1991	250.1922	282.0919	359.7363	459.2174	528.0028	580.4548	628.0275	727.417	742.9625	806.9846	814.4667	863.7442	879.8239	899.9061	934.0153	965.8786	991.8646	1020.168	1044.5209	1072.8552	1116.5177	1139.7645	1150.4817	1210.8758	1219.906	1280.045	1299.693	1362.8961	1416.3793	1435.1862	1477.5962	1503.1684	1902.2285	3043.4131	3115.5941	3119.4104	3170.3993	3176.7531	3187.7504	3494.2405
CC12OC(=O)C3NC1C23	C[C@@]12OC(=O)[C@H]3N[C@@H]1[C@@H]23	
InChI=1S/C6H7NO2/c1-6-2-3(5(8)9-6)7-4(2)6/h2-4,7H,1H3	InChI=1S/C6H7NO2/c1-6-2-3(5(8)9-6)7-4(2)6/h2-4,7H,1H3/t2-,3-,4+,6-/m0/s1
