21
gdb 39670	4.26385	1.01152	0.86794	1.3888	85.16	-0.2276	0.018	0.2456	1377.2879	0.183641	-387.081548	-387.073178	-387.072234	-387.1154	31.646	
C	-0.0310995044	 1.5691748082	 0.0397286552	-0.211391
C	 1.5163372481	 1.5075067079	-0.0730805579	-0.22546
C	 1.4681586284	 0.0836299029	 0.5477674172	 0.058536
C	-0.0432308764	 0.0228463824	 0.1832233218	-0.240663
C	 2.3949296232	-0.9856953251	-0.0182758125	 0.06207
O	 3.7623975944	-0.6361513043	 0.2360404875	-0.279249
C	 4.4310828537	-1.6908009306	 0.9206661204	-0.114201
C	 3.3805288524	-2.7422627758	 1.1433543219	-0.09956
C	 2.2336614225	-2.3489109413	 0.6029331929	-0.092922
H	-0.3519740936	 2.0623911207	 0.9618087958	 0.101352
H	-0.5856579533	 2.0045506578	-0.7949310095	 0.094725
H	 1.8461571378	 1.47125057	-1.1165791978	 0.099935
H	 2.1024712284	 2.26703914	 0.4477619198	 0.100136
H	 1.6052532259	 0.1302839556	 1.6333467578	 0.067643
H	-0.7269152826	-0.421434482	 0.9108485671	 0.094875
H	-0.1997877622	-0.4686451199	-0.7836814358	 0.096588
H	 2.2395390492	-1.0283647752	-1.1119495731	 0.070348
H	 5.2715721751	-2.0640552457	 0.31257406	 0.102131
H	 4.8598643612	-1.3135156561	 1.8623859132	 0.104162
H	 3.5728142574	-3.6718614378	 1.6642321346	 0.104393
H	 1.2975210947	-2.8924304118	 0.5921781412	 0.106552
67.2545	72.9323	129.2191	147.8059	281.8499	339.278	408.1009	457.6449	647.3444	712.1671	766.477	781.0484	802.5528	815.2783	896.9333	921.9781	930.4192	937.7802	957.383	959.8331	975.7716	1007.7442	1047.1099	1057.6178	1097.3789	1109.9953	1126.0848	1165.2711	1198.1053	1202.9156	1230.9536	1255.2084	1260.0507	1270.5506	1286.8206	1300.6492	1325.1063	1356.2085	1382.3637	1394.9783	1477.9757	1485.959	1509.7313	1522.9972	1690.7552	2928.2373	2967.1299	2986.6059	3040.6719	3048.5351	3054.7148	3057.3997	3094.7935	3105.478	3119.2004	3204.8132	3229.7843
C1CC(C1)C1OCC=C1	C1CC(C1)[C@H]1OCC=C1	
InChI=1S/C8H12O/c1-3-7(4-1)8-5-2-6-9-8/h2,5,7-8H,1,3-4,6H2	InChI=1S/C8H12O/c1-3-7(4-1)8-5-2-6-9-8/h2,5,7-8H,1,3-4,6H2/t8-/m0/s1
