19
gdb 107922	3.89463	1.14142	1.09755	0.3652	74.78	-0.2248	0.0717	0.2965	1189.3897	0.158254	-422.956418	-422.948063	-422.947119	-422.98931	32.305	
C	-0.2038145125	 1.4801264636	 0.2146978037	-0.376273
C	 0.2062811131	 0.0128507679	 0.031312399	-0.309903
C	 0.824084096	-0.5660802842	 1.2606702749	 0.495002
O	 2.0672098683	-0.0148227103	 1.7380179302	-0.332955
C	 2.1461069418	-1.175143335	 2.605683134	 0.009516
C	 1.1006198847	-1.9520523662	 1.7290522025	-0.207426
C	 0.0688961	-1.1104968067	 2.489569978	-0.1744
C	 1.0236477475	-0.9135519846	 3.6561792158	 0.119536
O	 0.8650674792	-1.9612418604	 4.589720526	-0.43389
H	 0.6591339505	 2.0853502733	 0.506132711	 0.1376
H	-0.6123475023	 1.8908169513	-0.713094471	 0.110903
H	-0.9631892854	 1.5809630544	 0.9964660838	 0.118519
H	-0.6633164859	-0.5987066769	-0.2379823624	 0.106317
H	 0.9221375831	-0.0750509296	-0.7950374369	 0.111923
H	 3.1589878823	-1.4659884076	 2.8812456254	 0.080675
H	 1.0592001619	-2.9286223778	 1.2681747187	 0.099762
H	-1.0068992955	-1.227407591	 2.5201444989	 0.09295
H	 1.0526070768	 0.0711028976	 4.1439997336	 0.068165
H	 1.5591758965	-1.8719050778	 5.2510829148	 0.28398
85.5104	125.9965	186.8078	229.3689	274.1627	316.2785	360.5471	395.943	505.603	548.2241	671.3315	754.8423	795.2517	812.0677	835.3678	847.0468	901.5675	938.1033	945.1439	955.417	978.6205	997.1839	1043.8737	1080.9057	1097.8579	1116.0373	1131.2115	1149.1481	1184.9085	1218.9352	1248.8214	1262.2983	1306.3256	1309.8329	1350.6497	1408.7902	1424.1301	1459.0712	1474.4763	1496.8218	1510.6152	3003.9463	3029.857	3042.1017	3066.004	3111.9864	3120.7927	3131.1749	3199.1967	3216.4601	3808.6905
CCC12OC3C1C2C3O	CC[C@]12O[C@@H]3[C@H]1[C@H]2[C@H]3O	
InChI=1S/C7H10O2/c1-2-7-3-4(7)6(9-7)5(3)8/h3-6,8H,2H2,1H3	InChI=1S/C7H10O2/c1-2-7-3-4(7)6(9-7)5(3)8/h3-6,8H,2H2,1H3/t3-,4+,5+,6+,7+/m0/s1
