19
gdb 72381	2.76583	1.98859	1.34107	1.9273	79.47	-0.2336	0.0095	0.2431	974.3546	0.160376	-385.839078	-385.831962	-385.831018	-385.87003	29.834	
C	 0.0292684677	 1.5432021256	-0.0596221322	-0.478318
C	 0.020241675	 0.0228364022	-0.0136289835	 0.328602
C	 0.3685240771	-0.5963079763	-1.3730075387	-0.341138
C	 0.3675575009	-2.0976827275	-1.3586654008	-0.087389
C	 0.0792152329	-2.7326145374	-0.2251517923	-0.080361
C	-0.2332579147	-1.9230375286	 0.9927044079	-0.05053
C	 0.6126647564	-0.6459631433	 1.2762150133	 0.002056
O	-0.5105363668	-0.105715336	 2.0656244983	-0.31784
C	-1.1158481168	-0.6490754463	 0.834788451	 0.002049
H	 1.0158589602	 1.9152833697	-0.3597242323	 0.110623
H	-0.6936319972	 1.9122267808	-0.7965741606	 0.11062
H	-0.2207730768	 1.9609371497	 0.9159770115	 0.140915
H	-0.3383504342	-0.2230640217	-2.1292534269	 0.112233
H	 1.3501947462	-0.2200288333	-1.6980135778	 0.112233
H	 0.6029675177	-2.6278724019	-2.2767436715	 0.092589
H	 0.0636629924	-3.8158259073	-0.1566563787	 0.090977
H	-0.462142954	-2.4931449809	 1.8929817862	 0.07886
H	 1.6153120689	-0.5679947041	 1.701075393	 0.086909
H	-2.1996916248	-0.5748664235	 0.7267944942	 0.086909
189.1844	219.5229	266.7172	334.9475	359.1906	448.0776	470.104	539.5354	596.8462	662.2365	695.7786	739.6855	796.6749	811.9319	887.0816	904.2608	918.4995	925.9769	967.8807	989.7871	992.1625	1039.9798	1045.8848	1093.2724	1127.7688	1143.4079	1161.0413	1192.5401	1193.9529	1225.4494	1251.4307	1254.2317	1290.7298	1366.6516	1377.019	1398.6146	1409.8477	1466.2526	1490.7508	1504.4994	1716.2974	2994.3231	3013.7532	3029.0643	3081.498	3095.4251	3100.6982	3121.1054	3145.8147	3163.0032	3186.6158
CC12CC=CC3C1OC23	C[C@@]12CC=C[C@H]3[C@@H]1O[C@@H]23	
InChI=1S/C8H10O/c1-8-4-2-3-5-6(8)9-7(5)8/h2-3,5-7H,4H2,1H3	InChI=1S/C8H10O/c1-8-4-2-3-5-6(8)9-7(5)8/h2-3,5-7H,4H2,1H3/t5-,6-,7+,8+
