22
gdb 113221	3.1713	0.97008	0.84034	2.4069	82.87	-0.2448	0.0755	0.3202	1470.4918	0.192569	-404.305967	-404.295959	-404.295015	-404.341468	36.752	
C	-0.5009065991	 1.4295533013	-0.6324317903	-0.373895
C	-0.2001114801	 0.2103843703	 0.2474636586	-0.193066
C	-1.3438389114	-0.7796761922	 0.2456089419	-0.030049
N	-1.45613332	-1.6840073323	-0.909644109	-0.369552
C	-1.2127188007	-2.2612865302	 0.418151182	 0.287157
C	 0.1237274191	-2.9552066493	 0.5995163238	-0.467482
C	-2.3359666527	-2.9706485385	 1.126741726	 0.038354
C	-3.7613215446	-2.8008983995	 0.8279354985	-0.204579
O	-3.0630877595	-3.9651146343	 0.3868066549	-0.236844
H	 0.3325665194	 2.1383760802	-0.6259958602	 0.111808
H	-0.6769923046	 1.1199299684	-1.6671524744	 0.130847
H	-1.3933772122	 1.9616496059	-0.2839596285	 0.109288
H	 0.7119591913	-0.2779759088	-0.1071532797	 0.105268
H	-0.0095021583	 0.5316387694	 1.2798077021	 0.09528
H	-2.2772014291	-0.3633116411	 0.6283541779	 0.072401
H	-2.4185219001	-1.8224690878	-1.2058412546	 0.231765
H	 0.9061321134	-2.4665055789	 0.0180135116	 0.130813
H	 0.4237712433	-2.9646663844	 1.653539185	 0.112727
H	 0.0534492723	-3.9938973891	 0.2591474163	 0.133242
H	-2.0813411924	-3.2922769045	 2.138580824	 0.091705
H	-4.4953225491	-2.9595839088	 1.6173051371	 0.117633
H	-4.0866321949	-2.1207301958	 0.0410850869	 0.107179
45.4362	74.1962	142.1196	153.2978	192.0153	237.2089	268.271	279.7378	343.2529	371.0492	472.8168	492.0705	617.0885	685.2935	769.9854	822.1275	842.9519	850.0959	913.4236	949.0638	963.4799	999.319	1016.4339	1059.8491	1083.1448	1089.7066	1113.8491	1118.7306	1145.9519	1163.2127	1171.3367	1227.4794	1272.9108	1295.0255	1304.4399	1333.5169	1356.1128	1405.9996	1413.2537	1441.8908	1465.1495	1476.1781	1490.7104	1499.0605	1501.563	1510.2452	1535.8369	3027.2474	3032.5389	3034.8616	3076.4354	3078.2553	3089.2043	3090.9118	3095.3869	3105.3867	3113.4288	3142.6221	3156.7259	3509.1051
CCC1NC1(C)C1CO1	CC[C@H]1N[C@]1(C)[C@H]1CO1	
InChI=1S/C7H13NO/c1-3-5-7(2,8-5)6-4-9-6/h5-6,8H,3-4H2,1-2H3	InChI=1S/C7H13NO/c1-3-5-7(2,8-5)6-4-9-6/h5-6,8H,3-4H2,1-2H3/t5-,6-,7+/m1/s1
