25
gdb 104211	2.39361	1.258	1.15076	0.1219	92.43	-0.26	0.0836	0.3436	1287.5614	0.228045	-352.342093	-352.332125	-352.331181	-352.376475	38.922	
C	-0.1812654795	 1.5511295636	 0.0177645893	-0.394276
C	-0.3026799069	 0.0534252177	-0.2891550657	-0.233933
C	 0.7301056692	-0.4869047347	-1.2844201151	 0.280046
C	 0.6099672631	 0.1707736842	-2.6627477955	-0.443714
C	 2.2117253717	-0.5133943815	-0.7730160568	-0.256603
C	 2.3360479271	-2.0032145399	-1.1999965351	-0.307732
C	 0.8163005686	-2.0352848338	-1.3958399904	 0.350292
C	-0.1107245274	-3.0380851299	-0.770198918	-0.329215
C	 0.0266803887	-2.9589352744	-2.2741159891	-0.328965
H	 0.8230983443	 1.8032956847	 0.375649874	 0.117029
H	-0.3842410502	 2.1683379431	-0.8625587407	 0.117357
H	-0.8924382649	 1.8459495468	 0.7957517931	 0.110652
H	-0.2073486276	-0.5104149231	 0.6468810087	 0.092782
H	-1.3128718999	-0.1562371789	-0.6686660392	 0.087272
H	 0.808361055	 1.2463945897	-2.614147394	 0.111381
H	 1.3234927731	-0.2652846883	-3.3692825153	 0.111587
H	-0.3939627016	 0.0331667833	-3.0807101361	 0.107255
H	 2.8994672824	 0.1908700957	-1.2481664347	 0.091487
H	 2.2774518587	-0.3836994798	 0.3108865405	 0.095433
H	 2.8944634869	-2.1362590462	-2.1321177897	 0.098599
H	 2.7466155527	-2.6899534849	-0.454576023	 0.09555
H	 0.3316288882	-3.8868903375	-0.257201297	 0.105484
H	-1.0380191248	-2.6880884011	-0.3281939395	 0.109399
H	-0.8074534404	-2.5507474537	-2.8370147695	 0.106828
H	 0.5579705035	-3.755064851	-2.7871848212	 0.106005
68.5372	102.2454	164.2138	210.2468	231.0445	266.173	275.5571	297.1995	350.6353	358.9539	448.2244	464.9884	553.7524	657.4051	747.0304	778.3642	792.6626	863.5642	882.8146	889.2386	910.9898	928.0274	950.2665	962.362	995.9807	1017.497	1041.5033	1050.381	1064.9173	1075.4586	1134.9591	1158.3642	1188.6612	1199.8048	1215.5095	1234.1086	1257.6958	1264.5823	1298.2516	1328.913	1358.6097	1372.5735	1407.4569	1413.2149	1463.7645	1474.8759	1480.8634	1492.3594	1495.8232	1499.6999	1502.8666	1505.7412	1511.1999	3005.4328	3026.2452	3034.5781	3042.8993	3046.4406	3053.8131	3086.526	3091.3824	3097.6401	3098.9199	3107.7973	3109.3932	3116.6231	3121.165	3192.8398	3208.5278
CCC1(C)CCC11CC1	CC[C@@]1(C)CCC21CC2	
InChI=1S/C9H16/c1-3-8(2)4-5-9(8)6-7-9/h3-7H2,1-2H3	InChI=1S/C9H16/c1-3-8(2)4-5-9(8)6-7-9/h3-7H2,1-2H3/t8-/m0/s1
