21
gdb 89407	2.72553	1.38932	1.16804	2.1767	77.83	-0.2367	0.0663	0.303	1143.7825	0.1823	-424.223799	-424.21486	-424.213916	-424.256571	35.657	
C	-0.8118036491	 1.2245851018	-0.0145208187	-0.390566
C	 0.0223218817	-0.0580224115	 0.0107297044	 0.01888
C	 0.9732631291	-0.2506122294	-1.1651734877	-0.124533
C	 2.3025525343	 0.4917512209	-1.1524283607	-0.323408
C	 2.235041364	-0.9204597452	-0.6629975529	 0.414358
O	 2.9520076105	-1.8650520093	-1.4002405452	-0.473927
C	 2.0663345499	-1.152731504	 0.8331111483	-0.30617
C	 0.9145759935	-0.2205253413	 1.2736830907	 0.06968
O	 1.3818536613	 1.0677867271	 1.6703813021	-0.419243
H	-0.1714165164	 2.1087720286	-0.0198722321	 0.134405
H	-1.4425605343	 1.2497544286	-0.9090262172	 0.104281
H	-1.466386338	 1.2902430184	 0.8609373266	 0.107526
H	-0.6670262894	-0.9146133689	 0.0110889918	 0.067483
H	 0.5594833026	-0.5151512215	-2.1326928777	 0.078354
H	 2.7767863401	 0.6152544095	-2.1197631924	 0.11284
H	 2.4583869224	 1.2959239045	-0.4441905527	 0.129705
H	 2.4728357666	-2.7006643479	-1.3594237429	 0.274642
H	 1.7796292505	-2.200859127	 0.9980634635	 0.085206
H	 2.9813286942	-0.9752873366	 1.4108808365	 0.093065
H	 0.3370508042	-0.664235934	 2.0971144567	 0.064592
H	 1.9753847625	 0.9474713971	 2.4180078297	 0.282831
134.3432	171.0476	219.973	241.3959	276.1937	286.7766	323.6135	363.9076	396.9431	422.1681	453.6603	526.5034	585.1044	668.9209	753.5782	776.857	863.6995	902.0783	924.8086	939.8816	955.0626	995.8017	999.3846	1029.8111	1060.1052	1083.1607	1098.8276	1127.1546	1145.6035	1200.8648	1219.8186	1246.2659	1256.727	1302.7857	1315.3779	1342.6007	1352.8372	1374.7282	1405.3121	1410.5711	1431.236	1470.6941	1492.6362	1495.436	1498.1465	2984.9588	3000.0731	3015.291	3038.3696	3056.3426	3098.3805	3132.069	3143.2349	3163.802	3239.2666	3783.6859	3822.434
CC1C2CC2(O)CC1O	C[C@H]1[C@H]2C[C@@]2(O)C[C@H]1O	
InChI=1S/C7H12O2/c1-4-5-2-7(5,9)3-6(4)8/h4-6,8-9H,2-3H2,1H3	InChI=1S/C7H12O2/c1-4-5-2-7(5,9)3-6(4)8/h4-6,8-9H,2-3H2,1H3/t4-,5+,6+,7+/m0/s1
