21
gdb 121294	4.2437	0.91553	0.78568	1.3277	81.66	-0.2446	0.0225	0.2671	1504.3119	0.182406	-424.23429	-424.225165	-424.224221	-424.268714	33.829	
C	 0.0089166822	 1.4973131738	-0.0585151756	-0.385293
C	 0.0410261267	-0.0192121297	 0.0092616764	-0.042246
O	 0.7344571836	-0.4986655281	-1.1390445298	-0.250268
C	 0.7833790147	-1.8767429724	-1.2507092113	 0.227011
C	 1.3813166053	-2.2428917824	-2.6050092773	-0.278355
C	 1.7480614508	-3.7038413598	-2.6283344396	-0.066384
C	 1.8298012988	-4.4218412258	-1.5110089746	-0.066203
C	 1.6089528373	-3.8038785426	-0.1576230746	-0.116315
O	 1.59214462	-2.389145501	-0.1989497633	-0.265054
H	 1.0249782934	 1.9019048929	-0.0650197501	 0.129085
H	-0.4993332511	 1.8338174224	-0.9667715614	 0.12331
H	-0.5206415674	 1.9045119712	 0.8080381485	 0.114067
H	 0.5458200811	-0.3628330307	 0.9197672057	 0.112479
H	-0.9812998963	-0.4314498653	 0.0195441945	 0.084143
H	-0.2323939467	-2.3127406703	-1.1514563985	 0.047872
H	 0.6601056777	-2.0095854072	-3.3969229765	 0.108652
H	 2.2579742903	-1.6063953808	-2.7797370674	 0.126088
H	 1.9320907046	-4.1632161072	-3.595507459	 0.091212
H	 2.0608098685	-5.4833590787	-1.5335624957	 0.091088
H	 0.6736543758	-4.1930719912	 0.287315237	 0.096223
H	 2.4190108007	-4.0771265469	 0.5287681328	 0.118889
59.2354	95.5082	114.8963	189.2167	228.0803	254.5568	332.6846	392.35	394.4015	499.4444	547.8697	577.1651	673.2751	804.4329	820.1309	874.8162	908.8802	923.185	965.6898	994.7498	1032.5091	1041.7643	1066.1727	1083.8504	1111.6318	1150.4446	1181.2365	1189.9344	1204.3803	1224.8926	1268.5003	1291.8019	1323.1699	1373.8198	1381.5162	1406.7844	1409.2957	1415.1228	1446.7207	1472.3598	1483.8981	1488.901	1501.5089	1529.5023	1726.3505	2885.2746	2928.5509	2974.5409	3030.7563	3044.5052	3051.4612	3053.0288	3067.5912	3118.8022	3121.6046	3155.6525	3178.4294
CCOC1CC=CCO1	CCO[C@H]1CC=CCO1	
InChI=1S/C7H12O2/c1-2-8-7-5-3-4-6-9-7/h3-4,7H,2,5-6H2,1H3	InChI=1S/C7H12O2/c1-2-8-7-5-3-4-6-9-7/h3-4,7H,2,5-6H2,1H3/t7-/m1/s1
