17
gdb 36470	2.98139	1.07107	0.85747	4.5365	79.02	-0.2464	0.0183	0.2647	1324.3306	0.135746	-380.825572	-380.81669	-380.815746	-380.859796	32.297	
C	 0.1282593154	-1.211478698	-0.1315664723	-0.424609
C	 0.0174378597	-0.0168795455	-0.0580188325	 0.281628
C	-0.0661479949	 1.435125732	 0.0373814454	-0.364042
C	 1.3261897593	 2.0702776231	 0.0413399906	 0.040563
N	 2.0508890809	 2.0153260647	-1.2413577303	-0.29461
C	 2.5775082293	 3.3805063139	-1.0578949678	-0.16692
C	 1.468323056	 3.6330728194	 0.011781609	-0.208771
C	 0.3055059488	 4.3563768316	-0.4740670276	 0.301167
N	-0.6220890719	 4.9353892407	-0.8504280919	-0.33442
H	 0.2007265996	-2.268383698	-0.2022627254	 0.197753
H	-0.6383241382	 1.8385606906	-0.8050774493	 0.156698
H	-0.5970854561	 1.721328296	 0.9548339287	 0.13525
H	 1.9001908547	 1.6782288934	 0.8934789446	 0.085511
H	 2.7331077559	 1.2723844688	-1.3367304153	 0.23074
H	 3.575571818	 3.4423473313	-0.6030886689	 0.104449
H	 2.5502124053	 4.0064819786	-1.9535594436	 0.130407
H	 1.8062459282	 4.0835467475	 0.9460948265	 0.129206
68.448	92.1609	110.1991	156.1618	237.8548	312.0956	347.8083	398.4902	477.7153	520.1705	596.766	622.0942	649.3009	696.2722	806.1689	815.4286	870.1321	957.3345	976.2084	998.1451	1038.4186	1060.8885	1106.6541	1130.139	1143.6927	1182.9415	1232.1653	1259.1	1302.0147	1339.5783	1364.3807	1381.5029	1400.801	1458.2971	1523.7385	2239.0965	2354.0536	2993.6059	3008.3337	3027.6985	3079.2938	3089.5048	3106.6768	3507.1514	3547.0403
C#CCC1NCC1C#N	C#CC[C@H]1NC[C@H]1C#N	
InChI=1S/C7H8N2/c1-2-3-7-6(4-8)5-9-7/h1,6-7,9H,3,5H2	InChI=1S/C7H8N2/c1-2-3-7-6(4-8)5-9-7/h1,6-7,9H,3,5H2/t6-,7-/m1/s1
