17
gdb 20181	3.3494	2.67983	2.03349	0.981	66.54	-0.2193	0.0863	0.3056	725.9958	0.145552	-363.809371	-363.803475	-363.802531	-363.839059	24.396	
C	 0.0125538863	 1.6178643277	 0.0597802626	-0.294218
C	 1.5444663057	 1.5758013389	 0.1423783968	-0.045839
C	 1.5369137961	 0.0658775745	 0.1938852359	-0.064369
C	 0.0203454603	 0.054214082	-0.089542672	 0.095956
O	-0.3299399014	-0.4857552233	-1.348259001	-0.259886
C	 0.2076014989	 0.2638961693	-2.4286573429	-0.092992
C	 1.709608576	 0.5705663905	-2.2553503994	-0.157255
N	 2.1888228937	 0.77308279	-0.883986695	-0.091555
H	-0.425115429	 1.89818902	 1.0217184797	 0.108667
H	-0.4517866566	 2.2239652914	-0.7204472072	 0.104103
H	 2.1690486592	 2.2716570528	 0.691342992	 0.095767
H	 2.1019791888	-0.6333576149	 0.8013728217	 0.087638
H	-0.5918693636	-0.4650317463	 0.6490000514	 0.088402
H	 0.0574785011	-0.3445136341	-3.3251572376	 0.108606
H	-0.3668650505	 1.1907294224	-2.5645098864	 0.094925
H	 2.2941602059	-0.2735982832	-2.6388162318	 0.114677
H	 1.9785833592	 1.4476399824	-2.8539824969	 0.107375
169.1993	304.7618	373.2667	413.1943	517.073	540.4282	691.305	719.4576	773.4908	826.8021	846.7347	877.8228	891.8404	933.3986	956.8152	994.2194	1019.8275	1026.4864	1069.9734	1089.0537	1126.9034	1135.2264	1179.0874	1201.4031	1239.4361	1267.421	1272.6015	1282.722	1300.1892	1364.1283	1368.4201	1397.6465	1412.8822	1481.7267	1483.7732	1519.3716	3001.2838	3032.9711	3066.5988	3073.6919	3087.6009	3102.8847	3117.0955	3161.4238	3178.2372
C1C2C3C1OCCN23	C1[C@H]2[C@H]3[C@@H]1OCCN23	
InChI=1S/C6H9NO/c1-2-8-5-3-4-6(5)7(1)4/h4-6H,1-3H2	InChI=1S/C6H9NO/c1-2-8-5-3-4-6(5)7(1)4/h4-6H,1-3H2/t4-,5+,6-,7?/m0/s1
