22
gdb 88447	2.3758	1.25421	1.12839	2.0228	82.58	-0.227	0.0836	0.3106	1251.3992	0.191542	-404.299104	-404.289096	-404.288152	-404.333987	37.409	
C	 0.7333916556	-2.7169534094	 4.4583016648	-0.421362
C	 0.7108390064	-2.6737311618	 2.9530611328	 0.080309
O	-0.2619342106	-1.8169675494	 2.350273422	-0.2587
C	 1.1214984551	-1.5116170538	 2.1376004188	-0.022027
C	 1.6130859822	-0.1788509819	 2.6624625657	 0.284799
C	 0.5836810167	 0.9326460769	 2.5783903377	-0.436995
C	 2.6755025399	-0.1250914656	 3.7153734753	-0.287067
N	 2.9845753544	 0.2464098673	 2.3395200077	-0.120307
C	 3.8615295414	-0.6527861837	 1.6018985714	-0.317362
H	 0.6823676877	-1.7139864923	 4.8858975995	 0.136309
H	-0.1225565386	-3.292534518	 4.826045305	 0.128576
H	 1.6442573229	-3.2078111333	 4.8181234483	 0.118984
H	 0.7833743953	-3.6518220485	 2.47074895	 0.08625
H	 1.441582193	-1.7252798026	 1.1151668966	 0.094564
H	-0.2959057115	 0.6913349301	 3.1806332864	 0.128821
H	 1.0191662516	 1.8716630386	 2.9272729042	 0.119766
H	 0.2502709283	 1.0747526954	 1.5445420234	 0.119511
H	 2.6842992964	 0.6826931642	 4.4440439621	 0.110546
H	 3.0747818756	-1.0693198413	 4.0824766535	 0.104636
H	 3.7577050588	-1.7166701153	 1.870676586	 0.10153
H	 3.6753481638	-0.5503150068	 0.5277100375	 0.124526
H	 4.8984759756	-0.3581329388	 1.7914886414	 0.124693
37.965	160.8194	170.0264	185.7564	214.5672	230.934	234.1075	278.8132	346.0296	388.7146	423.0843	452.3239	498.5924	563.8681	709.0199	763.959	796.0453	844.2878	911.2303	940.8273	984.0139	993.3485	1034.4169	1056.2089	1088.7645	1106.5185	1125.3419	1147.2205	1166.4676	1177.4995	1178.7617	1207.1347	1272.5361	1316.8583	1363.2802	1396.1737	1409.8053	1419.5353	1449.2417	1460.0775	1480.1685	1487.3319	1492.056	1496.5895	1498.7768	1502.5874	1512.5254	2970.3734	3038.5285	3040.6605	3065.307	3069.7387	3082.5198	3087.1197	3098.866	3099.7568	3107.9787	3133.849	3138.2556	3169.8878
CC1OC1C1(C)CN1C	C[C@H]1O[C@H]1[C@@]1(C)CN1C	
InChI=1S/C7H13NO/c1-5-6(9-5)7(2)4-8(7)3/h5-6H,4H2,1-3H3	InChI=1S/C7H13NO/c1-5-6(9-5)7(2)4-8(7)3/h5-6H,4H2,1-3H3/t5-,6-,7-,8?/m1/s1
