17
gdb 67830	3.14296	1.78654	1.46501	1.6954	70.69	-0.2299	0.0022	0.2321	911.0169	0.137737	-421.808326	-421.801542	-421.800598	-421.83901	28.25	
O	-0.0635445364	 1.3965039811	-0.041990226	-0.476936
C	 0.00999823	 0.0062745131	-0.0648622742	 0.373344
C	 0.9356872846	-0.683908097	-1.0245414024	-0.163914
C	 0.4208073808	-1.8461068538	-1.4268508651	-0.085642
C	-0.8701312298	-2.147635223	-0.6676767433	 0.01089
O	-0.5541065685	-3.0054552289	 0.4415672956	-0.259968
C	 0.1159276838	-2.1969263622	 1.4143249607	-0.102706
C	-0.39053401	-0.7711241893	 1.2042898849	-0.145228
C	-1.2512496967	-0.7948734679	-0.033533598	-0.118151
H	 0.6806075409	 1.7301378791	 0.4705355422	 0.284827
H	 1.900481331	-0.2727619728	-1.3002539901	 0.097502
H	 0.9067402141	-2.5823641288	-2.0553359648	 0.105371
H	-1.650962898	-2.6452260437	-1.244810257	 0.083321
H	-0.1443214135	-2.5804230744	 2.4055974749	 0.107755
H	 1.2050957345	-2.2716351342	 1.2885805521	 0.093967
H	-0.6893227419	-0.1752884963	 2.0596805848	 0.094772
H	-2.2390882848	-0.359328471	-0.0967756145	 0.100795
224.3068	246.801	276.1038	306.7673	369.3313	429.6954	560.7139	572.0922	680.1269	723.0414	745.1933	777.9221	806.3572	870.1214	897.4462	930.7811	931.0071	944.2429	975.3421	981.5603	988.6599	1041.1558	1048.6676	1083.0477	1112.0543	1176.5446	1232.5615	1239.0393	1268.4438	1288.1356	1296.7122	1325.2218	1360.2136	1376.8586	1430.057	1508.6326	1660.5125	3003.588	3075.0049	3104.3345	3175.0485	3188.3915	3209.0588	3217.6734	3800.9799
OC12C=CC3OCC1C23	O[C@@]12C=C[C@H]3OC[C@@H]1[C@@H]23	
InChI=1S/C7H8O2/c8-7-2-1-5-6(7)4(7)3-9-5/h1-2,4-6,8H,3H2	InChI=1S/C7H8O2/c8-7-2-1-5-6(7)4(7)3-9-5/h1-2,4-6,8H,3H2/t4-,5-,6-,7+/m1/s1
