19
gdb 68881	2.36644	1.80968	1.41852	2.6172	75.09	-0.2394	0.0721	0.3115	1001.1651	0.158806	-422.976123	-422.967877	-422.966933	-423.00844	32.186	
C	 0.0016683301	 1.5359169545	 0.0755503279	-0.502319
C	-0.0178078487	 0.0364534868	 0.0770135391	 0.274879
C	 1.1512176544	-0.838572443	-0.3311190659	-0.415763
C	 0.5947260494	-0.9664658337	 1.0623714339	 0.359376
O	 1.3302709783	-0.6645903365	 2.1955391936	-0.470434
C	-0.6597185184	-1.8296166369	 1.0476590776	-0.165653
C	-1.7699801174	-1.3155292959	 1.9820413749	-0.089673
O	-2.2626812876	-0.3846342031	 0.9896501603	-0.291599
C	-1.2815868458	-0.8144777026	 0.0271927542	 0.065245
H	 0.9430572893	 1.9148886941	 0.4853464822	 0.123607
H	-0.1124365348	 1.9404190059	-0.9369198796	 0.116433
H	-0.818417407	 1.9194258842	 0.689919981	 0.137865
H	 1.0405644801	-1.6355903259	-1.064487478	 0.101722
H	 2.0975652359	-0.308627756	-0.3834667712	 0.115578
H	 2.0497573989	-1.3005509157	 2.2744937102	 0.286429
H	-0.571274156	-2.9074234211	 0.8982498443	 0.068999
H	-2.5338676662	-2.0616340304	 2.2320512308	 0.098499
H	-1.4330956707	-0.818440288	 2.8986497078	 0.115225
H	-1.7256706037	-1.0694294468	-0.9400132131	 0.071584
145.2127	175.7535	198.4146	203.3296	244.1611	267.0552	410.1924	445.979	495.0803	528.6856	559.8818	706.2747	748.9163	817.0631	835.8872	873.0449	903.0033	970.0934	977.9465	982.7825	1014.3033	1024.6611	1062.0449	1080.4623	1103.562	1157.693	1171.3134	1183.5494	1193.2337	1255.9331	1278.931	1286.424	1309.1404	1347.9411	1360.393	1404.9082	1418.8192	1484.2784	1499.5916	1505.2735	1521.622	3019.9959	3029.0328	3060.6486	3068.8451	3089.4003	3091.9784	3095.8768	3112.1475	3193.8018	3793.3189
CC12CC1(O)C1COC21	C[C@@]12C[C@]1(O)[C@H]1CO[C@@H]21	
InChI=1S/C7H10O2/c1-6-3-7(6,8)4-2-9-5(4)6/h4-5,8H,2-3H2,1H3	InChI=1S/C7H10O2/c1-6-3-7(6,8)4-2-9-5(4)6/h4-5,8H,2-3H2,1H3/t4-,5+,6-,7-/m0/s1
