16
gdb 110176	2.69317	1.1408	0.85851	2.5119	70.66	-0.2725	-0.053	0.2195	1286.1617	0.123343	-437.900788	-437.892074	-437.89113	-437.934861	31.298	
O	-0.1892272222	 1.4859237667	-0.0716360285	-0.413891
C	-0.1637769839	 0.1067229445	-0.3586753812	-0.082369
C	-1.4670531053	-0.5543823199	 0.0978853112	-0.131742
C	-1.5787381342	-2.1222787838	 0.1719738153	-0.188109
C	-2.0980550691	-2.0174689783	 1.6520721119	-0.351953
C	-1.6825132347	-0.5430100002	 1.6140829027	 0.398545
O	-1.4496248462	 0.2850069547	 2.4501030901	-0.302456
C	-2.4529754092	-2.7684106656	-0.7893239426	 0.274694
N	-3.1624255726	-3.2706034665	-1.5516391071	-0.316529
H	-0.3409354661	 1.5789962814	 0.8781335099	 0.30118
H	-0.0380290017	 0.0041054085	-1.4411702618	 0.12836
H	 0.6902323114	-0.3992591005	 0.1223434226	 0.09212
H	-2.3179955524	-0.1094217612	-0.4275548743	 0.13946
H	-0.5898616019	-2.5874821385	 0.1341899775	 0.137527
H	-3.1833854353	-2.1334809901	 1.7234359749	 0.16347
H	-1.6203385468	-2.6517445311	 2.4010113393	 0.151693
65.3955	101.0275	149.0545	161.469	212.3157	287.9897	379.1483	434.3435	483.0795	489.3129	530.4999	628.0797	647.2748	764.5352	803.8029	906.3487	957.223	1024.498	1038.946	1058.1452	1083.0888	1106.3446	1142.5292	1186.8749	1204.5586	1212.911	1239.9592	1308.3842	1353.1786	1385.1703	1437.8399	1440.3848	1510.9362	1877.8156	2358.4938	2963.1432	3069.8186	3072.7476	3077.9642	3083.6977	3136.2968	3766.555
OCC1C(CC1=O)C#N	OC[C@H]1[C@@H](CC1=O)C#N	
InChI=1S/C6H7NO2/c7-2-4-1-6(9)5(4)3-8/h4-5,8H,1,3H2	InChI=1S/C6H7NO2/c7-2-4-1-6(9)5(4)3-8/h4-5,8H,1,3H2/t4-,5-/m0/s1
