18
gdb 8810	3.88251	1.26138	0.96994	1.859	72.25	-0.2392	-0.0478	0.1914	1218.351	0.151559	-381.154886	-381.145198	-381.144254	-381.189705	33.936	
C	-0.006693728	 1.5138936175	 0.0615048881	-0.383449
C	 0.0971876485	-0.0075999316	 0.0001609892	-0.275178
C	 0.7880374128	-0.5056823309	-1.2487384667	 0.358906
O	 1.2398334078	 0.2348808502	-2.0992132222	-0.330493
C	 0.910349917	-2.0078746856	-1.4370571281	 0.270503
N	 1.6564857059	-2.3459153168	-2.5331473786	-0.549621
N	 0.3532992198	-2.7822786124	-0.5834243952	-0.276137
C	 0.4904853661	-4.2105829817	-0.7958051582	-0.34137
H	 0.9822973639	 1.9786702971	 0.029133516	 0.128075
H	-0.5759804312	 1.9051284406	-0.7860857701	 0.126558
H	-0.5047643967	 1.8253741908	 0.983715125	 0.110471
H	 0.6410349013	-0.4152362508	 0.8612396212	 0.137869
H	-0.883783682	-0.4929001232	 0.0539897049	 0.141846
H	 1.862195952	-1.5823452654	-3.1607329715	 0.269521
H	 1.5743127863	-3.2665138481	-2.9282155191	 0.257673
H	 1.5457186181	-4.523026336	-0.842259989	 0.118084
H	 0.0114567607	-4.7528360211	 0.0227021914	 0.126695
H	 0.0128116276	-4.5391203725	-1.7340041971	 0.110048
48.5427	82.8644	147.4872	164.7013	175.7316	213.3341	268.8559	330.6492	344.6495	395.3233	499.7799	500.7442	577.0854	671.9669	687.6334	776.6122	819.2971	972.6894	1009.2127	1050.2592	1077.8644	1105.8698	1109.1655	1137.861	1201.9946	1259.7904	1336.9787	1395.8103	1415.2812	1431.597	1436.6169	1489.6592	1494.2564	1499.0991	1501.6078	1598.5096	1726.8975	1782.7704	2960.7456	3007.6199	3048.5328	3049.7202	3074.9023	3104.6161	3121.0511	3123.0675	3581.2822	3716.0528
CCC(=O)C(N)=NC	CCC(=O)C(=NC)N	
InChI=1S/C5H10N2O/c1-3-4(8)5(6)7-2/h3H2,1-2H3,(H2,6,7)	InChI=1S/C5H10N2O/c1-3-4(8)5(6)7-2/h3H2,1-2H3,(H2,6,7)
