18
gdb 20103	4.18153	1.70946	1.52275	2.2559	71.38	-0.2292	0.0735	0.3027	897.4564	0.15577	-343.907286	-343.900201	-343.899257	-343.938719	27.441	
C	-0.4292196939	 1.225079558	-0.3532652455	-0.226924
N	 0.8554181371	 1.3142042188	 0.3637892099	-0.316576
C	 0.2607971644	-0.0093951943	 0.0990873713	-0.161887
C	-0.213892233	-0.7582526647	 1.2935803067	 0.379568
C	-1.4629300031	-1.5471266089	 1.3089529125	-0.279709
N	-1.4153510325	-0.3133411028	 2.1173169723	-0.161311
C	-0.6397608248	-0.6793022423	 3.3569279758	-0.147108
C	 0.6255824565	-1.0453117571	 2.5408312758	-0.309015
H	-1.2848485587	 1.5722900262	 0.2166128413	 0.142048
H	-0.4525907193	 1.4417322607	-1.4179674136	 0.107359
H	 1.6069811444	 1.4906676947	-0.2977829709	 0.229636
H	 0.732240285	-0.6225121435	-0.66883179	 0.084463
H	-2.1211760145	-1.4609650634	 0.4495107231	 0.116791
H	-1.4976842813	-2.5110055849	 1.8147776211	 0.105223
H	-0.5181321676	 0.19971654	 3.9918749521	 0.115607
H	-1.1092788596	-1.4797599247	 3.9386288726	 0.100219
H	 1.034859958	-2.0549998578	 2.6401722664	 0.094585
H	 1.4256036928	-0.3145403141	 2.666113579	 0.127028
81.5347	153.4883	198.5953	263.4097	435.6171	476.7496	508.3539	601.4434	744.194	780.1311	815.8652	834.7736	881.8249	899.2282	916.7898	934.4533	970.0799	980.9351	1008.0295	1077.2516	1102.3449	1118.804	1125.3455	1130.8354	1179.3496	1201.2659	1220.2566	1234.5801	1256.709	1272.283	1290.06	1311.3476	1357.2539	1453.6306	1482.4137	1493.1803	1504.6192	1516.3991	3044.6852	3057.3798	3094.4393	3104.3812	3111.7492	3115.338	3132.2206	3190.3918	3210.6065	3500.3998
C1NC1C12CN1CC2	C1N[C@H]1[C@]12CN1CC2	
InChI=1S/C6H10N2/c1-2-8-4-6(1,8)5-3-7-5/h5,7H,1-4H2	InChI=1S/C6H10N2/c1-2-8-4-6(1,8)5-3-7-5/h5,7H,1-4H2/t5-,6+,8?/m1/s1
