16
gdb 46202	3.26429	1.64079	1.25853	4.3442	68.77	-0.2533	-0.0123	0.241	975.0582	0.125854	-437.820123	-437.81329	-437.812345	-437.851455	26.631	
O	-0.1272430438	 0.0614478931	-0.272593434	-0.329837
C	-0.051470982	 1.2168761746	-0.0013801509	 0.406024
O	-1.0500621698	 2.045927843	 0.4462925827	-0.243287
C	-0.1569021319	 3.2052923266	 0.5105076926	-0.187441
C	 1.0055446084	 2.3243936791	 0.0386422655	 0.184815
C	 2.434601241	 2.2167082633	 0.5987789455	-0.131438
C	 2.7347837808	 1.4995777488	-0.7376030299	-0.181781
N	 1.8414425542	 2.6769813729	-1.1977106922	-0.175732
C	 2.6789395134	 3.5117157667	-0.2045111995	-0.174417
H	-0.4746732623	 3.9788646965	-0.191488154	 0.139989
H	-0.1016246588	 3.5942724313	 1.5295461625	 0.129359
H	 2.7434525753	 1.9559237373	 1.6154731446	 0.084505
H	 3.7533444973	 1.5672775533	-1.126175715	 0.108822
H	 2.2887822388	 0.5207856023	-0.9122629119	 0.148265
H	 2.187642415	 4.4327068406	 0.1206098242	 0.108792
H	 3.6934632643	 3.7077932607	-0.5602993704	 0.11336
135.1283	167.3354	201.1819	320.0953	375.1211	479.727	606.2038	662.1185	681.7945	775.1213	790.0279	797.5969	849.1512	905.2636	928.1309	954.5452	1001.8175	1042.1123	1053.8112	1089.4047	1095.4054	1104.9317	1159.9539	1169.499	1171.5777	1201.7748	1215.1694	1226.7565	1266.9339	1285.2377	1354.6456	1505.8157	1513.607	1548.2591	1927.2887	3052.4258	3063.4467	3070.1967	3078.1367	3122.817	3133.8985	3160.0181
O=C1OCC11C2CN1C2	O=C1OC[C@]21[C@H]1CN2C1	
InChI=1S/C6H7NO2/c8-5-6(3-9-5)4-1-7(6)2-4/h4H,1-3H2	InChI=1S/C6H7NO2/c8-5-6(3-9-5)4-1-7(6)2-4/h4H,1-3H2/t6-/m1/s1
