16
gdb 67119	2.82024	1.74421	1.45159	4.5989	77.27	-0.2357	-0.0861	0.1497	943.8474	0.12335	-400.656393	-400.649085	-400.648141	-400.687886	28.826	
C	-0.1651141846	 1.6439541659	-0.2505078328	-0.515417
C	-0.0151141015	 0.1732926102	-0.0257539178	 0.299813
C	 0.5123341863	-0.9470703736	-0.8100163978	-0.093073
C	 1.5232506021	-1.351966594	 0.3592811521	-0.279895
C	 0.5102818856	-0.5968630905	 1.200920403	 0.041482
C	-0.5014205215	-1.2623544795	 1.7986656395	-0.246835
C	-1.5435838721	-1.4205712201	 0.7253323403	 0.384256
O	-2.5419330663	-2.0815566536	 0.7422821028	-0.307016
N	-0.9987422284	-0.8156941705	-0.5005898003	-0.208299
H	 0.7909566497	 2.1613605238	-0.1220330512	 0.128945
H	-0.5314671458	 1.8302430616	-1.2630643023	 0.145038
H	-0.8807054862	 2.0722407138	 0.4588274533	 0.13999
H	 0.7431666235	-1.0191010707	-1.8680448936	 0.124552
H	 1.6992320205	-2.3996078066	 0.6113045635	 0.12736
H	 2.4637617001	-0.8410985754	 0.1293329567	 0.132159
H	-0.3888126514	-2.0708095408	 2.5130532947	 0.12694
120.9216	195.6877	206.2359	258.3571	402.4332	433.5785	473.6083	578.6738	607.7853	621.0448	715.3361	725.5887	773.6273	819.063	854.3164	876.3839	892.3628	947.7587	976.9298	991.3031	1046.9249	1051.7434	1084.7128	1111.2714	1169.5919	1194.7827	1226.7238	1254.0773	1401.902	1439.1425	1484.2728	1488.7459	1490.969	1575.3362	1839.1266	3039.6211	3051.8721	3104.6572	3125.5323	3126.8641	3173.1066	3192.5994
CC12C3CC1=CC(=O)N23	C[C@@]12[C@H]3C[C]1[CH]C(=O)N23	
InChI=1S/C7H7NO/c1-7-4-2-5(7)8(7)6(9)3-4/h3,5H,2H2,1H3	InChI=1S/C7H7NO/c1-7-4-2-5(7)8(7)6(9)3-4/h3,5H,2H2,1H3/t5-,7+,8?/m1/s1
