18
gdb 52154	4.08076	0.93114	0.87557	5.4022	73.78	-0.2461	0.0109	0.2569	1344.5652	0.148237	-439.014024	-439.006	-439.005055	-439.047881	29.455	
O	 0.374433637	 0.4365283772	 1.535945577	-0.274929
C	 0.4441652787	 1.5959045798	 1.2620749994	 0.183653
O	 0.6452664629	 2.0266213141	-0.0030642773	-0.179945
C	 0.7605534128	 3.4435417442	-0.2001099666	-0.16115
C	 2.1963655927	 3.8794205837	 0.0173803778	 0.082611
C	 2.6762399155	 5.3525627134	 0.0061281345	-0.086028
C	 2.0055016477	 5.4673875516	 1.3908951776	-0.180301
N	 2.6777571928	 4.0804080747	 1.4772610862	-0.153196
C	 3.8713978779	 4.795008918	 0.8125497767	-0.16435
H	 0.3447357349	 2.4221528442	 1.9894920148	 0.088674
H	 0.4731656825	 3.6149747949	-1.2412285545	 0.132299
H	 0.0418694601	 3.9670996682	 0.437235327	 0.116111
H	 2.841259423	 3.1721853586	-0.5154552606	 0.093753
H	 2.6779755582	 6.0667507562	-0.8245521806	 0.072363
H	 2.4247975911	 6.1858179463	 2.0995276438	 0.110155
H	 0.9175776211	 5.4555104495	 1.4652238117	 0.102033
H	 4.5639872539	 4.1137900234	 0.3119759697	 0.110342
H	 4.3943081473	 5.4767016417	 1.4873510635	 0.107903
56.0332	64.2284	129.208	212.4375	303.2221	355.5492	397.1645	584.0832	606.1082	666.9342	743.0376	779.008	794.2192	904.7443	908.8723	930.9984	1004.0601	1016.2783	1032.422	1047.6819	1059.4079	1092.7258	1115.7326	1147.0624	1164.0082	1166.6383	1188.9744	1200.1063	1229.1885	1252.7906	1283.9139	1308.1663	1377.7303	1427.6871	1446.8544	1493.2685	1519.4444	1558.135	1868.4576	2976.4122	3040.6701	3050.5724	3057.3597	3062.5511	3075.6818	3105.2867	3128.4481	3134.9034
O=COCC1C2CN1C2	O=COC[C@H]1[C@H]2CN1C2	
InChI=1S/C6H9NO2/c8-4-9-3-6-5-1-7(6)2-5/h4-6H,1-3H2	InChI=1S/C6H9NO2/c8-4-9-3-6-5-1-7(6)2-5/h4-6H,1-3H2/t6-/m0/s1
