22
gdb 114328	2.22477	1.37664	1.17189	1.577	83.05	-0.2245	0.0709	0.2954	1227.4718	0.192559	-404.299866	-404.289983	-404.289038	-404.334303	36.614	
C	 0.0509888247	 1.4041339663	-0.1519406535	-0.2403
O	 0.0667632141	 0.0761788578	 0.3263644493	-0.245617
C	-1.180385037	-0.5663001416	 0.2168571184	 0.072774
C	-1.6512406567	-1.1734606494	-1.1332135235	-0.207667
N	-1.8517613656	-2.524532667	-0.5017200657	-0.192393
C	-0.5243689327	-2.9672541681	-0.014397344	-0.016968
C	 0.7824981207	-2.7813416797	-0.7550571475	-0.431807
C	-1.2525443604	-1.9695686304	 0.8054327846	 0.288797
C	-1.8204899954	-2.2671116294	 2.1630230697	-0.49925
H	 1.0495896114	 1.8185825907	 0.004542653	 0.129115
H	-0.188876387	 1.45448753	-1.2246431956	 0.10953
H	-0.6806135669	 2.0207534274	 0.393400005	 0.106738
H	-1.9644401424	 0.0754126528	 0.6467248733	 0.073553
H	-2.6073188029	-0.78518958	-1.4897221698	 0.105922
H	-0.929318483	-1.1580079424	-1.9546433386	 0.105493
H	-0.6305423272	-3.9742488902	 0.388505523	 0.090046
H	 1.0064810588	-1.7375193761	-0.9690100841	 0.140323
H	 1.6007005525	-3.1706801997	-0.1402533462	 0.119909
H	 0.7744093544	-3.3498938362	-1.6922584732	 0.118036
H	-1.1075351249	-1.9868534212	 2.9474586183	 0.127227
H	-2.7488080286	-1.7121590799	 2.3379295278	 0.118624
H	-2.0390266159	-3.3333624639	 2.2698429796	 0.127915
86.5423	129.6503	157.2675	174.1384	180.4926	219.1421	248.7274	279.6015	318.6521	375.8635	451.0468	504.4024	568.6185	631.4106	712.445	765.8671	836.057	862.47	948.6195	975.6984	1020.4622	1035.6575	1069.3513	1080.361	1116.0315	1131.5924	1146.5229	1154.7605	1182.8554	1193.9449	1220.6743	1248.2671	1276.0731	1326.2857	1344.8387	1398.1299	1410.6893	1412.1201	1461.5222	1480.4433	1483.8017	1487.2786	1491.8402	1492.9922	1505.7542	1509.8248	1513.3255	2974.1996	2986.3937	3023.3816	3027.1926	3036.62	3058.836	3087.7355	3092.8954	3106.893	3113.1857	3114.1418	3117.1739	3162.9581
COC1CN2C(C)C12C	CO[C@H]1CN2[C@@H](C)[C@@]12C	
InChI=1S/C7H13NO/c1-5-7(2)6(9-3)4-8(5)7/h5-6H,4H2,1-3H3	InChI=1S/C7H13NO/c1-5-7(2)6(9-3)4-8(5)7/h5-6H,4H2,1-3H3/t5-,6-,7-,8?/m0/s1
