21
gdb 88675	3.18387	0.9588	0.86997	3.0197	80.14	-0.2476	0.0755	0.3232	1436.9382	0.179569	-424.195523	-424.185514	-424.18457	-424.230659	37.276	
C	-0.2345328934	 1.5344145004	 0.010617181	-0.453813
C	-0.0905544865	 0.0299942327	 0.096432871	 0.387512
C	-1.2072455976	-0.7517268421	-0.5650929132	-0.45027
O	 1.2271492446	-0.4841007093	-0.1718485148	-0.30428
C	 0.7011796145	-0.6243407351	 1.1571715503	 0.008921
C	 1.4198762161	 0.0957038205	 2.2494134952	-0.057575
C	 0.8916745608	 0.0146389731	 3.6739870795	-0.34008
C	 2.1717628056	-0.682049596	 3.2961602533	 0.096059
O	 2.1786093354	-2.0734818237	 3.1646570279	-0.412481
H	 0.6091495098	 2.0530794442	 0.4678054212	 0.123577
H	-0.2930945504	 1.8458422401	-1.0382595739	 0.122525
H	-1.1545505966	 1.8629579802	 0.5064249042	 0.117975
H	-1.2772206466	-0.4936532298	-1.6278280675	 0.121416
H	-1.0269008744	-1.826579358	-0.487047099	 0.126368
H	-2.173345109	-0.5237657935	-0.101384895	 0.115296
H	 0.430244306	-1.6479076319	 1.4162802969	 0.092259
H	 1.8731787261	 1.0339138988	 1.9512677812	 0.097064
H	 0.9269103584	 0.9015669857	 4.2969342133	 0.114225
H	 0.0285274236	-0.6235082567	 3.8363280759	 0.115779
H	 3.1089862671	-0.2530452192	 3.6499356165	 0.089695
H	 2.1154910869	-2.4555950204	 4.045990806	 0.289826
43.2346	117.0067	145.679	152.5377	210.929	223.0286	302.8908	336.178	357.2366	392.7216	427.3955	447.9697	488.9352	593.0687	712.5079	778.9533	828.9988	847.3415	886.8118	918.8639	946.0072	994.567	1009.7433	1016.985	1056.1998	1073.0588	1130.0158	1134.5537	1153.0988	1166.7021	1180.9869	1236.1041	1264.0793	1292.9891	1327.7763	1372.9766	1407.5703	1417.7318	1419.25	1467.8072	1473.5426	1485.4638	1489.7026	1500.6378	1525.3279	3030.333	3037.599	3090.8268	3096.2796	3101.5055	3110.8722	3122.7842	3129.0293	3138.3493	3180.476	3218.8257	3809.6359
CC1(C)OC1C1CC1O	CC1(C)O[C@H]1[C@H]1C[C@H]1O	
InChI=1S/C7H12O2/c1-7(2)6(9-7)4-3-5(4)8/h4-6,8H,3H2,1-2H3	InChI=1S/C7H12O2/c1-7(2)6(9-7)4-3-5(4)8/h4-6,8H,3H2,1-2H3/t4-,5+,6-/m0/s1
