21
gdb 40728	3.8435	1.09907	1.0144	1.3094	81.92	-0.225	0.0865	0.3115	1265.6956	0.183787	-387.063734	-387.055561	-387.054617	-387.097611	31.833	
C	-0.1190799427	 1.0951947804	-0.4265172328	-0.274003
C	 1.2745869901	 0.7824496049	 0.0576724673	-0.269269
C	 0.1912586271	-0.2553805033	 0.1736934591	 0.030617
C	-0.3715210595	-0.6095788935	 1.5292138919	 0.102142
C	-1.7729094309	-1.2897012881	 1.4773144944	-0.272904
C	-1.5527917567	-2.6863532269	 2.0350364199	-0.061241
C	-0.5510450991	-3.5779958298	 1.3195481175	-0.321958
C	-0.1262335788	-2.7263305471	 2.488547674	 0.116641
O	 0.5129256805	-1.5100857189	 2.2238931074	-0.272766
H	-0.715971248	 1.7871431551	 0.1593444162	 0.110184
H	-0.2971790233	 1.1544092255	-1.4942665915	 0.111151
H	 2.0550804538	 0.6293920028	-0.6789763872	 0.112046
H	 1.6143634823	 1.259014786	 0.971168513	 0.11699
H	 0.2452265495	-1.0889802835	-0.5217281031	 0.080617
H	-0.4160077008	 0.3120395568	 2.1266716886	 0.071379
H	-2.4877705505	-0.7470053707	 2.1026894904	 0.104915
H	-2.1687501971	-1.2907023526	 0.4568209702	 0.107403
H	-2.3485016087	-3.1492270926	 2.6067171141	 0.08786
H	-0.6381731794	-4.6479911696	 1.4787662915	 0.10974
H	-0.2100921733	-3.2959455148	 0.3288426333	 0.115422
H	 0.2032485554	-3.1783177101	 3.4176856558	 0.095032
30.01	75.2498	172.9218	274.7662	284.6877	360.0572	429.6221	462.8374	685.4885	719.8785	760.5273	762.8899	810.1295	816.004	829.9843	897.604	916.187	933.4575	954.7488	974.4206	1003.0735	1025.7716	1039.7585	1054.9231	1058.9739	1076.8556	1085.3514	1107.0276	1129.5289	1160.781	1169.3513	1195.0135	1207.998	1226.907	1245.9623	1296.2901	1307.4513	1331.5861	1357.1475	1392.6828	1434.9582	1469.949	1479.6598	1499.5707	1506.1038	2995.5169	3048.9696	3088.0957	3126.4393	3130.1025	3135.2918	3141.2445	3167.3503	3177.6461	3208.5707	3215.8438	3223.9641
C1CC1C1CC2CC2O1	C1CC1[C@H]1C[C@H]2C[C@H]2O1	
InChI=1S/C8H12O/c1-2-5(1)7-3-6-4-8(6)9-7/h5-8H,1-4H2	InChI=1S/C8H12O/c1-2-5(1)7-3-6-4-8(6)9-7/h5-8H,1-4H2/t6-,7+,8+/m0/s1
