16
gdb 79695	2.78565	1.82018	1.42675	1.4963	68.71	-0.2264	-0.0073	0.219	926.1511	0.124166	-437.81946	-437.812234	-437.811289	-437.851091	28.093	
C	-0.0956547954	 1.5657922602	-0.0772806601	-0.33382
N	 0.1062782081	 0.1209294497	-0.095551888	-0.062503
C	 1.0251770851	-0.5959407938	-1.0044467558	-0.186476
C	 2.4522291789	-0.3774702161	-0.4418384534	 0.022887
O	 2.5928622465	 0.7841722356	 0.3801170823	-0.237887
C	 2.1886404629	-0.4326971136	 1.0130766941	 0.022886
C	 0.6579663517	-0.6728838733	 1.0224223782	-0.186475
C	 0.6198116426	-1.8020533703	-0.0755138263	 0.454289
O	 0.3508983333	-2.9520049239	-0.1678869515	-0.305455
H	-0.5259217729	 1.8576559733	-1.0409223307	 0.125233
H	-0.8402854845	 1.7917963984	 0.6930234536	 0.125231
H	 0.8054701112	 2.1548757011	 0.1084617724	 0.140592
H	 0.8391929777	-0.5567514132	-2.0757719513	 0.094281
H	 3.3460034004	-0.7536198097	-0.9275510768	 0.116468
H	 2.8605250515	-0.8553353982	 1.7521202833	 0.116468
H	 0.1079416229	-0.7099748863	 1.9604844803	 0.094281
124.6477	131.2388	258.5751	275.5852	316.8008	412.7565	556.0587	557.4624	659.0813	723.376	738.4049	749.1657	812.0831	850.8222	888.5146	905.0253	936.1733	962.533	1011.5286	1062.1397	1072.9017	1092.7122	1126.2767	1146.0895	1185.7596	1209.2018	1248.9666	1251.8358	1275.4476	1316.5418	1370.9731	1446.0067	1476.9786	1520.288	1933.2987	3032.8625	3099.394	3114.8943	3145.108	3146.8333	3173.48	3184.6341	124.6522	131.2382	258.5749	275.5849	316.8005	412.7564	556.0587	557.4622	659.0812	723.376	738.4053	749.1657	812.0828	850.8222	888.5144	905.0251	936.1732	962.533	1011.5287	1062.1402	1072.9025	1092.7129	1126.2769	1146.0896	1185.7598	1209.2019	1248.967	1251.8363	1275.4482	1316.5421	1370.9733	1446.0061	1476.9778	1520.2872	1933.2994	3032.8623	3099.394	3114.8942	3145.1079	3146.8332	3173.4801	3184.6342
CN1C2C3OC3C1C2=O	CN1[C@H]2[C@H]3O[C@H]3[C@@H]1C2=O	
InChI=1S/C6H7NO2/c1-7-2-4(8)3(7)6-5(2)9-6/h2-3,5-6H,1H3	InChI=1S/C6H7NO2/c1-7-2-4(8)3(7)6-5(2)9-6/h2-3,5-6H,1H3/t2-,3+,5-,6+
