13
gdb 25451	7.20689	0.87785	0.78254	4.8646	71.17	-0.2592	-0.0794	0.1798	1325.595	0.089642	-452.804293	-452.796797	-452.795853	-452.836849	26.321	
O	-0.0910537233	-0.0354924694	-0.0010884411	-0.261191
C	-0.0496468425	 1.1616970425	 0.0081133131	 0.188264
N	 1.1473802345	 1.8933794655	 0.0007050048	-0.06041
C	 2.4397582627	 1.3733235396	-0.0180718794	 0.041321
N	 3.3384809433	 2.3069300818	-0.020492215	-0.289476
C	 2.6326359624	 3.5091174525	-0.0026722871	 0.163476
C	 3.2651361441	 4.8340059594	 0.0011186565	 0.091548
O	 4.4529113287	 5.0410865225	-0.0102505192	-0.253155
C	 1.2840309589	 3.2679284479	 0.0104886141	-0.150404
H	-0.9350933994	 1.8208541358	 0.0236350098	 0.117565
H	 2.6028734567	 0.3069329396	-0.0286862518	 0.176335
H	 2.5278157912	 5.6693080247	 0.0164777316	 0.068417
H	 0.4297736427	 3.9254661277	 0.0255067737	 0.167708
78.3002	151.8961	158.6904	254.7626	261.449	305.9072	404.0108	608.7152	622.8175	694.5925	773.8088	779.476	795.5119	881.6385	974.1323	1029.5079	1034.996	1036.817	1162.6165	1248.4797	1296.4466	1330.9848	1391.6318	1440.4895	1442.6351	1553.4091	1575.0098	1813.3016	1841.7901	2866.2904	2991.9331	3270.5096	3275.5419
O=CN1C=NC(C=O)=C1	O=Cn1cnc(C=O)c1	
InChI=1S/C5H4N2O2/c8-2-5-1-7(4-9)3-6-5/h1-4H	InChI=1S/C5H4N2O2/c8-2-5-1-7(4-9)3-6-5/h1-4H
