22
gdb 58094	2.16422	1.30735	1.17645	2.4559	77.9	-0.2384	0.0348	0.2732	1217.2829	0.190781	-441.527101	-441.515641	-441.514697	-441.563615	41.936	
C	-0.0628838152	 1.6107026395	 0.0470278118	-0.431563
C	-0.0346610399	 0.0810324673	 0.0502340475	 0.141675
O	 0.6310386636	-0.4117826857	 1.2146751219	-0.452323
C	-1.4363412551	-0.5902503738	 0.0298632426	 0.159242
C	-1.2510242968	-2.1248175888	-0.0299767528	-0.416565
C	-2.2407920554	-0.2205003774	 1.288886414	-0.46267
C	-2.1152004228	-0.189209787	-1.2957152211	 0.400454
N	-3.446861107	 0.0966324561	-1.2461019325	-0.537269
O	-1.4982961427	-0.1625380826	-2.347327762	-0.390208
H	 0.9610063955	 2.0023566068	 0.0299109913	 0.10351
H	-0.5714860276	 1.9924937157	-0.8421003437	 0.137885
H	-0.5538609891	 2.0046918582	 0.9415038397	 0.118093
H	 0.483668793	-0.2569980498	-0.8555685718	 0.092075
H	 1.5138759573	-0.0308771778	 1.2297897298	 0.282006
H	-0.6997409954	-2.4676590402	 0.8475302044	 0.134635
H	-2.2211993567	-2.6316231865	-0.0575461807	 0.104711
H	-0.6941706393	-2.4053946633	-0.9277515067	 0.131605
H	-2.5395778677	 0.8319744615	 1.3026032638	 0.115511
H	-3.1428183778	-0.8358632162	 1.3819284483	 0.10641
H	-1.6275121096	-0.4061221425	 2.173351631	 0.145634
H	-3.9827562209	 0.0693579912	-0.3985714148	 0.259047
H	-3.9136780404	 0.2980330454	-2.11510801	 0.258106
27.7324	83.2643	160.9521	184.4145	222.1251	230.3546	243.8744	256.349	261.2552	291.0893	324.9561	344.7832	383.9281	401.698	490.3562	507.7914	597.8062	606.6942	699.496	778.4911	829.0196	907.5147	943.8461	958.2524	1009.6167	1039.3824	1077.2	1097.0769	1121.6512	1177.5738	1201.2882	1222.3471	1293.5827	1354.0355	1382.5204	1384.77	1394.6199	1405.9442	1425.2149	1484.716	1491.1527	1497.6949	1500.3998	1511.0579	1516.9255	1615.9104	1771.1762	3029.0886	3031.5204	3034.9106	3042.3048	3093.463	3099.187	3112.811	3127.3581	3128.889	3139.5133	3610.3898	3751.6545	3830.0532
CC(O)C(C)(C)C(N)=O	C[C@@H](O)C(C)(C)C(=O)N	
InChI=1S/C6H13NO2/c1-4(8)6(2,3)5(7)9/h4,8H,1-3H3,(H2,7,9)	InChI=1S/C6H13NO2/c1-4(8)6(2,3)5(7)9/h4,8H,1-3H3,(H2,7,9)/t4-/m1/s1
