17
gdb 27928	2.49115	1.31303	0.86597	6.0199	82.57	-0.1933	-0.0138	0.1794	1297.2529	0.136271	-418.06692	-418.057899	-418.056955	-418.100483	33.116	
C	-0.030343462	 1.510504921	 0.0871655158	-0.502827
C	 0.012690903	 0.0257757759	-0.0399621276	 0.331582
C	-0.0033477226	-0.7976085242	-1.1238688362	-0.340599
C	 0.0419300384	-2.1609614221	-0.6609821769	 0.159652
C	-0.0055424371	-3.3548729615	-1.4675702021	 0.060147
O	-0.0592710724	-3.3908682268	-2.6821524522	-0.309158
C	 0.0992089879	-2.1058087957	 0.7317167279	 0.247574
N	 0.2448303289	-3.098624998	 1.696458705	-0.60423
N	 0.0754691965	-0.7933804642	 1.09375	-0.349877
H	 0.8569046708	 1.9106867778	 0.5947554292	 0.126328
H	-0.0741226502	 1.9627574037	-0.9058234985	 0.145493
H	-0.9090242806	 1.8534403687	 0.6483988666	 0.126755
H	-0.0607102163	-0.4994865059	-2.158683774	 0.118029
H	 0.0034300234	-4.3108116312	-0.8851880207	 0.019858
H	 0.2227548013	-4.0278140392	 1.2989780064	 0.26202
H	-0.4247875163	-3.036405137	 2.4548237659	 0.252249
H	 0.2017571773	-0.4642069812	 2.0365098512	 0.257005
123.7316	147.3222	164.2618	194.0034	204.433	230.587	272.2524	368.8776	386.1284	464.9922	550.16	624.236	638.9819	660.813	674.3794	746.3107	834.7364	860.3776	986.6083	1014.9798	1021.7305	1064.9566	1096.7642	1167.1983	1193.5933	1258.0594	1362.516	1399.7187	1421.8248	1442.3157	1479.2333	1495.5238	1533.267	1583.7263	1642.3908	1662.4318	1769.8939	2794.8368	3013.4411	3056.1348	3127.5795	3264.9807	3526.522	3630.0777	3659.2075
CC1=CC(C=O)=C(N)N1	Cc1cc(C=O)c(N)[nH]1	
InChI=1S/C6H8N2O/c1-4-2-5(3-9)6(7)8-4/h2-3,8H,7H2,1H3	InChI=1S/C6H8N2O/c1-4-2-5(3-9)6(7)8-4/h2-3,8H,7H2,1H3
