19
gdb 55383	2.4984	1.56183	0.98462	3.3955	80.61	-0.1958	0.0268	0.2225	1192.9698	0.160425	-419.267201	-419.258141	-419.257197	-419.301249	33.685	
C	 0.0503998841	 1.5372108077	-0.0160201795	-0.461931
C	 0.0084070342	 0.0438401054	-0.0309460708	 0.384442
C	-0.1361696284	-0.7512445523	-1.0966692088	-0.222527
C	-0.1527010225	-2.2078393043	-0.7077912486	-0.282164
C	 0.1879505845	-2.1587202233	 0.8037302582	-0.182375
N	 0.1476827734	-0.7264243796	 1.1517190483	-0.169218
C	 0.1684585127	-0.2449756983	 2.442754839	 0.434636
N	 0.3438629127	-1.2295572118	 3.4117106614	-0.564871
O	 0.0029711945	 0.9245175573	 2.7455519195	-0.406874
H	 0.9766680718	 1.9053559047	 0.4338790974	 0.139488
H	-0.0203340421	 1.9050107251	-1.0426777632	 0.111082
H	-0.7630918246	 1.9542493202	 0.5804804183	 0.155688
H	-0.2558419307	-0.3939479492	-2.1091404111	 0.094179
H	-1.1331089114	-2.6695733394	-0.8843596549	 0.113805
H	 0.5770420293	-2.8091070092	-1.2607343828	 0.111056
H	-0.5229847725	-2.7166394931	 1.4186677741	 0.129388
H	 1.1908414655	-2.5666800775	 0.9921148429	 0.107354
H	 0.9070315343	-2.0361946032	 3.1906993197	 0.249432
H	 0.5366374353	-0.8255933492	 4.3158109208	 0.25941
58.095	114.1894	126.016	208.8777	229.2082	249.5364	341.9558	414.1919	434.8697	513.2304	557.3419	567.7852	646.541	685.7224	742.2122	764.277	771.4235	864.6768	939.3529	996.9024	1043.1537	1047.1528	1063.7288	1077.3026	1127.9576	1182.0162	1207.8074	1245.6644	1263.6875	1296.2208	1322.6708	1392.3584	1422.1672	1444.5372	1466.6889	1475.8179	1498.4334	1525.6543	1624.0629	1719.0683	1783.5203	2995.1209	3013.5105	3052.5907	3054.0767	3084.7949	3118.0637	3137.1152	3237.7667	3577.2974	3691.8482
CC1=CCCN1C(N)=O	CC1=CCCN1C(=O)N	
InChI=1S/C6H10N2O/c1-5-3-2-4-8(5)6(7)9/h3H,2,4H2,1H3,(H2,7,9)	InChI=1S/C6H10N2O/c1-5-3-2-4-8(5)6(7)9/h3H,2,4H2,1H3,(H2,7,9)
