15
gdb 14710	5.38053	0.83662	0.81017	2.9896	62.65	-0.2736	-0.0353	0.2383	1383.0747	0.116685	-436.947596	-436.938786	-436.937842	-436.982412	29.348	
O	-0.4402259974	 1.4067179079	-0.4021812595	-0.418118
C	 0.0007335314	 0.0894056093	-0.1391952548	-0.051113
C	-1.1484901607	-0.9227778302	-0.1777088827	-0.156592
N	-1.7136748032	-0.9659892478	-1.5169349386	-0.23147
C	-2.9263804788	-0.6646482228	-1.6515501793	 0.133859
O	-3.5748891645	-0.6456157126	-2.8548303713	-0.193091
C	-3.0397473934	-1.3449225964	-3.9152622929	 0.180932
O	-3.4922978904	-1.228882074	-5.0085850679	-0.245085
H	-0.7474608218	 1.4270891623	-1.3147956357	 0.288294
H	 0.7835259491	-0.2254924291	-0.8448149196	 0.101166
H	 0.4353097877	 0.1011504311	 0.8652504517	 0.114651
H	-0.7548635265	-1.9172700414	 0.0659664	 0.114479
H	-1.8972506944	-0.6529533335	 0.5832899568	 0.100456
H	-3.6163200944	-0.3673768702	-0.8561700809	 0.12908
H	-2.2072793425	-1.9920058126	-3.6110149652	 0.132552
49.6791	67.8419	98.9171	152.1231	184.9035	273.6638	332.0418	382.3488	384.7967	488.6587	564.3944	740.7688	885.1541	912.5131	986.5173	1019.1341	1043.3683	1074.4032	1082.4255	1126.4805	1192.9384	1232.3619	1259.5219	1369.4864	1391.8373	1394.793	1403.6914	1419.1887	1484.1324	1498.17	1741.2855	1878.1633	2983.1619	3001.4465	3056.6704	3074.271	3086.8349	3089.4831	3811.306
OCCN=COC=O	OCCN=COC=O	
InChI=1S/C4H7NO3/c6-2-1-5-3-8-4-7/h3-4,6H,1-2H2	InChI=1S/C4H7NO3/c6-2-1-5-3-8-4-7/h3-4,6H,1-2H2
