13
gdb 48373	2.75733	1.28032	1.05886	2.6673	69.47	-0.2979	-0.0769	0.221	1103.5082	0.087832	-415.623629	-415.615229	-415.614285	-415.657015	29.328	
O	-0.2956186417	 0.4100082432	-0.7383286566	-0.230466
C	 0.0809693023	 1.0953548964	 0.1731030555	 0.101285
C	 1.3313474806	 1.9408746548	 0.0869397302	 0.060809
C	 2.335530356	 1.5662817832	-0.9926055605	-0.29854
C	 1.5320532979	 2.8106343221	-1.1917806871	-0.204852
C	 0.4935751667	 2.8916418738	-2.1820808686	 0.322964
N	-0.321091739	 3.007338464	-2.9935212772	-0.313282
C	 1.7955035338	 2.5108531983	 1.3221580368	 0.228326
N	 2.1498434584	 2.9553670296	 2.3291436663	-0.312661
H	-0.4572032684	 1.1591402725	 1.1378697651	 0.126776
H	 3.3865224892	 1.6773400144	-0.7585444545	 0.165209
H	 2.0490669573	 0.6967637725	-1.5725683125	 0.181572
H	 2.031157147	 3.7545655752	-0.9996130969	 0.172861
102.0846	117.5946	133.9202	163.3266	230.8126	281.9747	312.9474	485.3641	524.2582	542.4229	551.6865	584.9665	742.0456	773.9791	859.7079	932.2763	981.6615	1039.8139	1061.6414	1115.8611	1138.1137	1238.9631	1271.4328	1380.7401	1422.5505	1463.8164	1824.3765	2356.6322	2365.9003	2958.5195	3155.6389	3178.3511	3260.5097
O=CC1(CC1C#N)C#N	O=C[C@]1(C[C@H]1C#N)C#N	
InChI=1S/C6H4N2O/c7-2-5-1-6(5,3-8)4-9/h4-5H,1H2	InChI=1S/C6H4N2O/c7-2-5-1-6(5,3-8)4-9/h4-5H,1H2/t5-,6-/m0/s1
