16
gdb 34499	4.3275	1.00954	0.87636	3.9416	80.29	-0.2627	-0.0539	0.2087	1277.1541	0.124965	-400.760658	-400.752823	-400.751879	-400.793604	29.127	
N	 0.0131324569	-1.1397344071	 0.0524558657	-0.330388
C	-0.0286864245	 0.0180211979	 0.0411300084	 0.213351
C	-0.0351361707	 1.4388811008	 0.0332127319	 0.181806
C	-1.12018663	 2.2138339753	-0.1048337368	-0.236097
C	-0.7508774604	 3.6492938823	-0.0941886341	 0.441037
C	-1.4658639989	 4.6643620622	-0.8899769756	-0.246707
O	-1.6492557693	 4.5789523503	 0.5220969735	-0.271654
C	 0.7354100941	 3.7110989317	 0.2721804393	-0.325207
C	 1.2453398966	 2.252649119	 0.1511409682	-0.325059
H	-2.1395851462	 1.8685647608	-0.2206966072	 0.132945
H	-0.9163193485	 5.5369256602	-1.242239606	 0.121902
H	-2.3269014674	 4.3813618358	-1.4947548652	 0.120722
H	 1.2944435377	 4.4035633757	-0.3602831974	 0.118815
H	 0.8168904721	 4.0664606937	 1.3033627205	 0.137062
H	 1.8481275776	 1.9369143899	 1.0076038572	 0.133927
H	 1.8666777909	 2.1068556315	-0.7397479326	 0.133546
66.2904	111.4028	146.097	293.5374	337.2723	346.4192	464.1424	504.3129	544.9983	574.6575	579.8032	769.3032	835.5738	851.5248	896.6433	903.9273	926.7784	957.2222	988.633	1056.6885	1128.2936	1133.7183	1164.1462	1180.8808	1221.722	1248.374	1282.0686	1298.4152	1333.1809	1413.5503	1479.854	1498.5546	1523.2358	1672.1243	2337.424	3045.7513	3068.1473	3076.0841	3085.7315	3117.5909	3165.0955	3224.2163
N#CC1=CC2(CO2)CC1	N#CC1=C[C@]2(CO2)CC1	
InChI=1S/C7H7NO/c8-4-6-1-2-7(3-6)5-9-7/h3H,1-2,5H2	InChI=1S/C7H7NO/c8-4-6-1-2-7(3-6)5-9-7/h3H,1-2,5H2/t7-/m0/s1
