20
gdb 114396	3.2352	1.06141	1.04559	3.8109	79.09	-0.2415	0.0308	0.2723	1272.331	0.171749	-403.162536	-403.153957	-403.153013	-403.196108	32.58	
C	 0.0030322122	 1.5696323051	-0.0609724574	-0.378929
C	 0.0164521969	 0.0524721813	 0.1538262369	-0.202347
C	-1.3632055479	-0.5805989677	 0.0185207365	 0.039995
C	-2.0458425586	-0.6187505228	-1.3873737113	-0.26231
C	-2.260203174	-2.1591228388	-1.2472584798	-0.188642
C	-1.4891970146	-2.1334347579	 0.1135115528	-0.017535
N	-0.4425983382	-2.9177072513	-0.5450171444	-0.317448
C	-1.050246426	-2.9485811288	-1.7883518877	 0.416734
O	-0.6993533588	-3.3848782163	-2.8510094463	-0.360727
H	 1.0083960287	 1.991656523	 0.0301483499	 0.115729
H	-0.3756579542	 1.8260321724	-1.0561166961	 0.12268
H	-0.6369203715	 2.0685914782	 0.6751801217	 0.114937
H	 0.6999523319	-0.4123492847	-0.5677680269	 0.098095
H	 0.4190272135	-0.1728823295	 1.151037647	 0.093585
H	-2.0444490775	-0.1296148535	 0.7494223613	 0.074165
H	-2.9743264068	-0.0486368934	-1.4476347944	 0.110719
H	-1.413517087	-0.3328034707	-2.2321542273	 0.116712
H	-3.2567243573	-2.5724141162	-1.3845318525	 0.097039
H	-1.8630422798	-2.5681602981	 1.0418749119	 0.081969
H	 0.529539349	-3.05542184	-0.304357234	 0.245579
67.6325	104.4318	166.3071	194.2142	234.231	298.6039	398.0145	433.4092	482.9307	522.0035	657.7447	728.0174	770.799	788.5759	805.9913	851.033	883.7394	922.8038	960.8956	972.1229	996.4122	1019.2891	1075.442	1086.3677	1131.3904	1135.7096	1148.7144	1191.4139	1219.6119	1238.2331	1261.8296	1280.9327	1290.9477	1331.3481	1350.7835	1366.5523	1387.0029	1410.7798	1484.6085	1493.5547	1498.3609	1508.1524	1888.0668	3011.9555	3031.2714	3033.1219	3053.2316	3065.6723	3095.5337	3098.6511	3105.5939	3119.1028	3147.8433	3588.2915
CCC1CC2C1NC2=O	CC[C@H]1C[C@@H]2[C@H]1NC2=O	
InChI=1S/C7H11NO/c1-2-4-3-5-6(4)8-7(5)9/h4-6H,2-3H2,1H3,(H,8,9)	InChI=1S/C7H11NO/c1-2-4-3-5-6(4)8-7(5)9/h4-6H,2-3H2,1H3,(H,8,9)/t4-,5+,6-/m0/s1
