16
gdb 37079	2.87357	2.61663	2.40535	1.8077	74.91	-0.2067	-0.1232	0.0835	710.7268	0.126384	-363.406423	-363.400808	-363.399864	-363.435779	24.836	
C	 0.0836216594	 1.3904200726	-0.2466909856	-0.296455
C	 1.5909686773	 1.2958299217	 0.293543677	 0.025956
C	 2.3177886774	 0.3620311241	-0.3752990285	-0.091436
C	 1.9789352287	-0.9992132081	 0.3381537431	-0.079119
C	 0.5723941634	-1.0204067884	-0.3675508381	-0.091435
C	-0.1665091008	-0.0961811097	 0.3013484912	 0.025955
C	 0.3158352182	-0.0795877899	 1.731024402	-0.049235
C	 1.4721678834	 0.8362908475	 1.7258898531	-0.049235
N	 1.6989891954	-0.6378286434	 1.7544908863	-0.127346
H	-0.5237171409	 2.1599088728	 0.2339057986	 0.120573
H	 0.0129039495	 1.4736221915	-1.3315285078	 0.122541
H	 2.3881600575	 0.3577240497	-1.4613774939	 0.106094
H	 2.6530014704	-1.8507786181	 0.2446856589	 0.091202
H	 0.5545476477	-1.0945831141	-1.453237963	 0.106095
H	-0.3329346869	-0.2605048119	 2.5815876162	 0.092922
H	 1.8014688001	 1.4300639037	 2.5721083805	 0.092923
236.4647	391.7816	527.282	532.4515	589.4442	605.5514	653.9033	708.0641	751.464	755.1348	797.7422	801.8764	816.9983	870.5034	887.9782	924.7651	927.535	943.9986	993.8457	995.8596	1033.324	1078.9134	1082.5723	1097.0784	1173.641	1203.6061	1206.3514	1250.7589	1255.6094	1297.6804	1309.3058	1318.5661	1474.8336	1515.244	1532.8013	3074.1571	3110.1388	3131.171	3143.4929	3148.8992	3157.3291	3167.97
C1C2=CC3C=C1C1C2N31	C1[C]2[CH][C@@H]3[CH][C]1[C@@H]1[C@H]2N31	
InChI=1S/C8H7N/c1-4-2-6-3-5(1)8-7(4)9(6)8/h2-3,6-8H,1H2	InChI=1S/C8H7N/c1-4-2-6-3-5(1)8-7(4)9(6)8/h2-3,6-8H,1H2/t6-,7+,8-,9?
