15
gdb 25834	3.82646	1.2802	0.96491	2.817	75.48	-0.2458	-0.0793	0.1665	1154.892	0.113689	-416.876822	-416.869134	-416.86819	-416.909631	27.841	
C	-0.0397650885	 1.5050888827	 0.0100373028	-0.478673
C	 0.0323178377	-0.0042523148	 0.0040404667	 0.329038
O	 1.0810363799	-0.613345969	-0.0063796851	-0.294126
C	-1.2710332438	-0.7600200762	 0.0115843463	 0.188049
C	-1.2657200794	-2.1597645039	 0.0065890762	-0.023221
N	-2.3916124921	-2.8729907655	 0.0128895589	-0.239537
C	-3.528008903	-2.1721042226	 0.0242737025	 0.001308
C	-3.5403526921	-0.7776066539	 0.0293072797	-0.026647
N	-2.4148800835	-0.0659713269	 0.0230075814	-0.29414
H	 0.9719159293	 1.9109371567	 0.0034346868	 0.137972
H	-0.6008665332	 1.862776435	-0.8587493157	 0.150792
H	-0.5868874176	 1.8564699898	 0.8902437338	 0.15079
H	-0.3221904174	-2.694830414	-0.0027000737	 0.148059
H	-4.4571144123	-2.7361916232	 0.0295565875	 0.126643
H	-4.4774230639	-0.2270303942	 0.0385989418	 0.123694
64.4505	133.436	152.0843	203.4156	358.0523	376.7207	444.593	488.1101	595.7399	619.3781	635.1076	788.1811	792.9927	880.4947	955.5571	995.1831	1006.9327	1035.0383	1048.1741	1069.415	1122.7395	1198.6119	1246.1063	1300.6115	1316.5297	1387.3957	1431.6064	1453.8088	1465.1605	1500.1306	1578.7135	1608.984	1789.961	3051.4005	3113.3206	3158.0806	3161.5742	3176.3053	3199.8039
CC(=O)C1=CN=CC=N1	CC(=O)c1cnccn1	
InChI=1S/C6H6N2O/c1-5(9)6-4-7-2-3-8-6/h2-4H,1H3	InChI=1S/C6H6N2O/c1-5(9)6-4-7-2-3-8-6/h2-4H,1H3
