19
gdb 24134	4.34324	1.0061	0.94842	2.0733	82.44	-0.169	0.0612	0.2302	1301.3707	0.161073	-382.076569	-382.068034	-382.06709	-382.112111	32.294	
C	 0.5177575159	-0.1461558988	-0.6669148747	-0.258328
C	 0.7457910872	 1.1331130813	 0.0950038286	-0.26786
C	 0.7001020841	-0.1817595421	 0.831948005	 0.008386
N	-0.4146259506	-0.4737945514	 1.7009788873	-0.401577
C	-1.3553387229	-1.4443852678	 1.347845988	 0.349755
C	-2.7337565319	-1.4079237943	 1.3066753369	-0.248978
C	-3.1815911593	-2.7192077944	 0.9622847283	-0.130392
C	-2.0734327672	-3.5068727396	 0.7881469278	-0.10564
N	-0.9634475174	-2.7214341798	 1.0327344916	-0.270513
H	-0.4818322381	-0.3395926223	-1.039136596	 0.135409
H	 1.3174056493	-0.5290336511	-1.291224443	 0.111969
H	 1.701708931	 1.6369936105	 0.0030807293	 0.115275
H	-0.1022671983	 1.7991302844	 0.2175121945	 0.114183
H	 1.6583990383	-0.5526947821	 1.1917269229	 0.086187
H	-0.8487989869	 0.3476897309	 2.0929091104	 0.237169
H	-3.3453311443	-0.5390332234	 1.49677114	 0.075259
H	-4.2063459917	-3.0353527187	 0.8406769224	 0.08618
H	-1.9670713548	-4.5401354761	 0.5017599688	 0.107124
H	-0.0092555725	-3.0348885352	 1.026300792	 0.256392
11.8778	37.8235	119.9329	275.2336	338.8166	367.3723	421.3644	471.6586	528.6133	622.2755	650.7438	685.8871	744.5118	760.5031	770.8653	829.6696	842.0804	845.471	893.5724	954.7014	989.9254	1013.1765	1049.3852	1057.8778	1078.791	1107.8804	1139.9542	1146.0161	1196.1564	1198.0606	1243.8517	1273.0885	1307.8769	1385.8304	1405.83	1422.8373	1463.6063	1495.0734	1512.9783	1535.6664	1628.9674	3103.3877	3129.7916	3139.2469	3211.9086	3230.3448	3236.9568	3250.4156	3273.8682	3611.8903	3689.2787
C1CC1NC1=CC=CN1	C1CC1Nc1ccc[nH]1	
InChI=1S/C7H10N2/c1-2-7(8-5-1)9-6-3-4-6/h1-2,5-6,8-9H,3-4H2	InChI=1S/C7H10N2/c1-2-7(8-5-1)9-6-3-4-6/h1-2,5-6,8-9H,3-4H2
