22
gdb 120136	4.48421	0.8373	0.82894	3.0224	83.33	-0.2421	0.0847	0.3267	1506.9317	0.194181	-404.298605	-404.289415	-404.288471	-404.333022	35.009	
C	 0.0910863148	 1.561321014	-0.0323035997	-0.412332
C	 0.0349753393	 0.0387738379	-0.0157913739	 0.012145
C	 1.1533658741	-0.6612789342	-0.8579666281	-0.268186
C	 1.7214697047	-1.2725142563	 0.4351607497	-0.044404
C	 0.6467342707	-0.5962041938	 1.2548306009	-0.050882
N	 0.7386549458	-2.0342286168	 1.1841386889	-0.094241
C	-0.271443642	-2.8927745567	 0.5684350354	-0.157252
C	 0.2244022412	-4.3365111903	 0.658473976	-0.046347
O	 0.5158589435	-4.6945420582	 1.9922675209	-0.422836
H	 1.098853069	 1.9209882091	 0.2051114515	 0.116827
H	-0.182634741	 1.9555250725	-1.0165052673	 0.118218
H	-0.5973722151	 1.9898305423	 0.7044681562	 0.117079
H	-0.9847731105	-0.2975996513	-0.2325792873	 0.073644
H	 0.844309705	-1.3587769719	-1.6426090858	 0.101356
H	 1.839226494	 0.0680436967	-1.2965988816	 0.106886
H	 2.7713183415	-1.4320648704	 0.6561394458	 0.093996
H	 0.7037533875	-0.1192308192	 2.2290608512	 0.090293
H	-1.192015331	-2.790579082	 1.1540779652	 0.110486
H	-0.5018676411	-2.6390197803	-0.475697118	 0.090946
H	-0.5475339543	-5.022127961	 0.2920837598	 0.100696
H	 1.1077078437	-4.4555353874	 0.0069900367	 0.080789
H	 0.9756224504	-3.9255320928	 2.3566038536	 0.283119
43.7267	107.2238	137.1671	217.3754	245.4766	251.9094	274.4277	390.501	458.6824	500.8664	515.8186	596.9537	706.9667	732.0656	838.6499	854.3148	880.6406	887.4899	907.1773	944.9604	976.6724	980.4344	1037.9832	1052.0613	1083.344	1094.3137	1111.3053	1126.2713	1139.5495	1196.0042	1227.8529	1231.9149	1246.8819	1268.4379	1275.1277	1285.4084	1352.8746	1371.9797	1379.7374	1394.2231	1410.1063	1446.053	1473.4179	1494.377	1495.4749	1500.4474	1510.7085	2953.9057	3007.7767	3025.4281	3042.6205	3053.5444	3064.1586	3072.5793	3092.1083	3098.432	3104.9275	3150.5697	3170.477	3743.7916
CC1CC2C1N2CCO	C[C@H]1C[C@H]2[C@@H]1N2CCO	
InChI=1S/C7H13NO/c1-5-4-6-7(5)8(6)2-3-9/h5-7,9H,2-4H2,1H3	InChI=1S/C7H13NO/c1-5-4-6-7(5)8(6)2-3-9/h5-7,9H,2-4H2,1H3/t5-,6-,7+,8?/m0/s1
