21
gdb 110350	2.24017	1.41414	1.31551	3.4066	78.14	-0.2395	0.0578	0.2973	1129.215	0.182499	-424.186152	-424.176828	-424.175884	-424.219984	35.491	
C	-0.2438270485	 1.3896312017	 0.437995617	-0.431513
C	 0.2046526438	-0.0402182749	 0.1542260078	-0.000997
C	 0.5950003656	-0.5319514944	-1.2515109473	-0.117073
C	 1.941555928	-0.0812759098	-1.7515814235	-0.01566
C	 2.6195515228	 1.2779864443	-1.6160754454	-0.10154
O	 3.9766867868	 1.161886917	-1.232639375	-0.430191
C	 1.8938920185	-1.1464581678	-0.6860522447	-0.087252
C	 1.5794735171	-0.5916937285	 0.694136676	 0.065167
O	 2.5587594285	 0.3287065701	 1.1603903932	-0.424998
H	 0.5351519536	 2.1286143219	 0.2447435758	 0.13314
H	-1.1095354932	 1.6491046718	-0.1807849378	 0.121801
H	-0.5503344465	 1.4961432039	 1.4857290312	 0.105685
H	-0.5719187019	-0.7173170977	 0.528270116	 0.077091
H	-0.1126153467	-1.0043047932	-1.9239556527	 0.085091
H	 2.1654445429	-0.5480354456	-2.7101202758	 0.092515
H	 2.6159520304	 1.7712639862	-2.5946373463	 0.097358
H	 2.074526367	 1.9282049931	-0.9261748828	 0.089966
H	 3.950265043	 0.8437513021	-0.3204616778	 0.289423
H	 2.3127442985	-2.1298318693	-0.8604163486	 0.087406
H	 1.4301340484	-1.3817254225	 1.4398311312	 0.075572
H	 2.286442722	 0.6708792715	 2.0177173296	 0.28901
82.5049	133.6298	158.542	192.3733	213.0835	252.3107	256.9975	310.7772	421.1821	506.8472	538.2398	554.9723	649.0189	714.1033	734.2629	793.9977	818.0427	880.2175	941.2096	957.646	976.6602	1014.998	1030.0955	1038.1976	1075.2746	1085.2435	1110.6507	1144.5622	1155.0376	1189.1651	1211.1022	1254.3066	1260.2204	1286.0364	1333.1527	1352.6935	1377.5333	1387.5663	1404.7506	1417.752	1444.581	1460.5771	1486.1798	1499.1771	1506.6624	3018.122	3029.1969	3040.5714	3044.5853	3082.7264	3088.2146	3118.4481	3135.9994	3167.7299	3187.333	3762.4438	3820.2295
CC1C2C(CO)C2C1O	C[C@H]1[C@H]2[C@@H](CO)[C@H]2[C@H]1O	
InChI=1S/C7H12O2/c1-3-5-4(2-8)6(5)7(3)9/h3-9H,2H2,1H3	InChI=1S/C7H12O2/c1-3-5-4(2-8)6(5)7(3)9/h3-9H,2H2,1H3/t3-,4+,5-,6+,7-/m0/s1
