25
gdb 122419	5.34314	0.58376	0.56576	0.9171	91.31	-0.2415	0.0881	0.3296	2120.564	0.227457	-389.487061	-389.476347	-389.475403	-389.523829	38.996	
C	-0.3090713158	 1.4115311402	 0.0431434939	-0.382109
C	 0.2817331738	 0.0045417019	-0.0733296324	-0.18168
C	 0.6587194363	-0.5836700354	 1.2796340508	-0.042821
O	 1.1912524113	-1.8783069421	 1.0805473304	-0.255458
C	 1.6037436144	-2.5084253952	 2.2625967803	 0.169634
C	 0.532141075	-3.1026386681	 3.2221777564	-0.267432
C	 1.4434873197	-4.3556139787	 3.3725968626	 0.051367
C	 0.797684874	-5.7308502096	 3.4383466918	-0.402976
C	 2.1708615043	-3.926196118	 2.0653846105	-0.272065
H	 0.401305146	 2.106807943	 0.5042476147	 0.115364
H	-0.5714771188	 1.8108930242	-0.9407737027	 0.116262
H	-1.2180343395	 1.4139910534	 0.655058371	 0.115367
H	-0.4341104268	-0.6697269104	-0.557457101	 0.105182
H	 1.1754714731	 0.0172556125	-0.7077086864	 0.105566
H	 1.4010621585	 0.0599415793	 1.7842349362	 0.080422
H	-0.2265877658	-0.625898796	 1.9364330414	 0.085578
H	 2.3061722201	-1.8628462913	 2.8142286195	 0.05888
H	 0.2628441964	-2.5459326598	 4.123131182	 0.090803
H	-0.3766129869	-3.3429586755	 2.6599158726	 0.10097
H	 2.113980357	-4.2213224453	 4.2290023733	 0.069994
H	 0.1232016032	-5.8876808985	 2.5889654048	 0.111987
H	 1.5509291352	-6.5266789723	 3.4171924354	 0.113205
H	 0.2116376728	-5.8524449671	 4.3563932932	 0.112567
H	 1.7071409914	-4.3857148395	 1.1866127892	 0.107216
H	 3.2548156811	-4.0460611719	 2.0023106024	 0.094176
44.1531	65.3021	84.3274	121.6016	162.0393	225.0826	234.262	277.2323	315.2389	329.2053	398.9968	458.047	496.818	608.6668	765.3953	783.7893	810.5152	887.8859	901.435	907.7656	922.362	953.5725	968.1294	1023.8136	1056.5805	1061.0335	1108.0415	1135.8281	1140.7092	1166.2983	1190.8018	1198.6603	1219.1566	1245.0498	1265.2056	1267.9302	1271.1119	1310.4017	1314.7816	1331.7859	1369.9002	1388.8674	1409.7195	1412.3716	1444.6866	1470.4317	1492.4156	1494.3146	1496.3177	1500.3194	1501.379	1507.8694	1528.0777	2945.0728	2968.6214	2975.401	3021.9176	3030.6973	3036.3836	3038.3961	3046.1012	3056.37	3070.6584	3088.7049	3091.4654	3098.745	3106.5123	3106.9677	3114.483
CCCOC1CC(C)C1	CCCO[C@H]1C[C@@H](C)C1	
InChI=1S/C8H16O/c1-3-4-9-8-5-7(2)6-8/h7-8H,3-6H2,1-2H3	InChI=1S/C8H16O/c1-3-4-9-8-5-7(2)6-8/h7-8H,3-6H2,1-2H3/t7-,8+
