17
gdb 9795	3.06755	1.61424	1.43006	3.1927	68.29	-0.2464	0.0342	0.2806	950.6318	0.142817	-360.027714	-360.019122	-360.018178	-360.060511	31.95	
N	-0.392415056	 1.2901385227	 0.075792094	-0.506956
C	 0.0151754455	-0.1061250395	-0.0495766261	-0.148829
C	 0.8983928052	-0.3600165112	-1.2163081326	 0.254573
N	 1.5903110578	-0.5207875758	-2.1291423161	-0.334246
C	 0.7303470098	-0.5490810319	 1.2267409879	 0.367263
N	 1.9109761758	 0.2488007348	 1.4694351895	-0.579829
C	-0.1269701525	-0.9506187473	 2.3879407528	-0.312758
C	 0.6417623439	-2.0067096012	 1.620572134	-0.308487
H	 0.4271544571	 1.8220692129	 0.359735745	 0.249199
H	-0.7016633215	 1.6544996482	-0.8198208678	 0.238563
H	-0.8783018904	-0.7266470831	-0.1847378672	 0.119921
H	 2.1535348897	 0.2657224508	 2.4522635277	 0.236225
H	 2.709252094	-0.1141266721	 0.9566316939	 0.246242
H	 0.2186409869	-0.6885141024	 3.3828053526	 0.11597
H	-1.2033244519	-0.8987501606	 2.2703242905	 0.12958
H	 0.0868098773	-2.6913863208	 0.9874771571	 0.119749
H	 1.5143258094	-2.4431070633	 2.0943016649	 0.113821
76.1981	128.4985	215.8407	221.969	242.2714	320.8454	335.5138	355.5043	387.9069	495.7523	541.1954	611.3785	768.4361	780.3816	838.4284	863.4387	912.7803	917.9251	945.4489	990.7709	991.6887	1052.8486	1080.7686	1110.4391	1180.5268	1191.368	1206.4713	1302.3031	1334.3889	1364.6372	1410.0061	1466.6245	1503.7194	1643.0915	1650.5148	2339.9556	3045.4301	3129.6488	3134.7722	3210.7315	3224.5581	3487.4819	3503.4913	3574.4973	3598.7992
NC(C#N)C1(N)CC1	N[C@@H](C#N)C1(N)CC1	
InChI=1S/C5H9N3/c6-3-4(7)5(8)1-2-5/h4H,1-2,7-8H2	InChI=1S/C5H9N3/c6-3-4(7)5(8)1-2-5/h4H,1-2,7-8H2/t4-/m0/s1
