13
gdb 25353	6.98937	0.87194	0.77523	2.6704	78.29	-0.2567	-0.0703	0.1865	1334.5347	0.091343	-415.683299	-415.675926	-415.674982	-415.71552	26.752	
O	 0.0642397786	-0.0842526786	-0.0015275966	-0.304534
C	-0.0066663971	 1.1291366925	 0.008902337	 0.082162
C	 1.1635845832	 1.9863931804	 0.0030136154	 0.252406
C	 1.3165407458	 3.3610072534	 0.012515524	-0.339149
C	 2.7115524333	 3.6258101214	-0.0007796936	 0.168087
C	 3.3648467998	 2.392511219	-0.0178660349	-0.132352
N	 2.4244315979	 1.4277039527	-0.015248267	-0.283865
C	 3.3423572892	 4.8950615358	 0.0024760023	 0.203952
N	 3.8522652131	 5.9348285844	 0.0052274524	-0.338203
H	-0.9785453773	 1.6618106287	 0.0239896104	 0.093891
H	 0.5253428026	 4.0938652401	 0.0271507778	 0.141327
H	 4.4197320223	 2.1706879203	-0.0312546524	 0.164682
H	 2.5658293684	 0.42887122	-0.0248199848	 0.291596
93.9636	130.193	210.6748	219.0589	305.1642	437.4177	512.823	567.7557	627.094	637.7689	660.9075	683.0568	777.3854	815.8766	861.4073	985.5416	999.7711	1028.8932	1141.3378	1163.8799	1257.9566	1358.5245	1394.7355	1397.4645	1464.1231	1525.4605	1599.2074	1765.2721	2349.6785	2935.5994	3267.4851	3274.3578	3645.0796
O=CC1=CC(=CN1)C#N	O=Cc1cc(c[nH]1)C#N	
InChI=1S/C6H4N2O/c7-2-5-1-6(4-9)8-3-5/h1,3-4,8H	InChI=1S/C6H4N2O/c7-2-5-1-6(4-9)8-3-5/h1,3-4,8H
