18
gdb 89760	2.4888	1.56362	1.14896	1.1547	72.3	-0.2419	0.0525	0.2944	1089.9387	0.146994	-439.015818	-439.007514	-439.00657	-439.048661	31.939	
O	 0.5276508106	 0.8013215425	-0.7256772945	-0.431399
C	 0.0662932244	-0.2644330179	 0.0631897451	 0.059509
C	 0.0253571958	-0.1176469532	 1.6224965763	-0.393701
C	-1.3744159513	-0.7446050033	 1.5974600503	 0.421747
C	-1.9618369054	-1.8009073252	 2.4193903499	-0.267003
O	-2.4293050589	-0.4413812401	 2.4882781979	-0.275106
C	-1.4438911895	-0.5717012663	 0.0989618699	 0.221591
C	-2.4913171133	 0.1264267996	-0.6813081725	-0.306236
N	-2.2797919438	-1.3285682351	-0.8188439294	-0.376967
H	 0.0321163941	 1.5892705188	-0.4759680281	 0.280967
H	 0.6530889799	-1.1354847162	-0.2442296612	 0.101038
H	 0.8038938782	-0.6271765936	 2.1928355969	 0.115991
H	-0.0111428064	 0.9342256664	 1.9241831268	 0.113084
H	-2.6528878883	-2.5051206135	 1.9602477534	 0.13167
H	-1.4350900641	-2.1555327266	 3.3043830251	 0.114715
H	-3.4183887115	 0.4092917423	-0.1919219338	 0.135848
H	-2.1662715515	 0.7763020383	-1.4903951547	 0.117174
H	-1.7660582991	-1.5257556068	-1.6756696776	 0.237078
75.3428	180.2142	192.2152	226.1042	255.194	336.9213	342.149	428.6088	499.4524	520.3558	581.0671	634.1312	777.2481	846.6097	864.4459	874.938	909.4637	946.2806	971.279	982.3483	1009.3982	1041.0462	1111.5953	1116.3785	1129.7621	1134.0033	1155.1488	1172.3811	1194.6232	1254.248	1265.0302	1285.6121	1312.7971	1389.18	1431.7381	1452.5194	1475.7225	1503.6112	1536.7137	3056.6963	3068.0205	3085.7329	3106.9013	3123.0117	3179.8511	3201.0431	3484.1198	3801.6316
OC1CC2(CO2)C11CN1	O[C@H]1C[C@]2(CO2)[C@]21CN2	
InChI=1S/C6H9NO2/c8-4-1-5(3-9-5)6(4)2-7-6/h4,7-8H,1-3H2	InChI=1S/C6H9NO2/c8-4-1-5(3-9-5)6(4)2-7-6/h4,7-8H,1-3H2/t4-,5-,6+/m0/s1
