18
gdb 92529	2.34881	1.80646	1.37517	0.6959	70.83	-0.2174	-0.0384	0.179	992.4116	0.148952	-439.075623	-439.067822	-439.066877	-439.108304	29.972	
O	-0.5571376771	 1.3026548224	-0.0511141796	-0.426592
C	-0.0723569591	-0.0298171067	 0.1006089329	 0.01771
C	-1.2477249692	-1.001853964	 0.251015452	-0.199472
N	-1.5562859754	-1.5476093651	-1.0824128752	-0.100092
C	-2.2905281182	-0.6620005346	-2.0384372595	-0.175932
C	-1.1805845339	-0.8935985222	-3.0950806127	-0.239724
C	-0.3385312417	-1.4608119875	-1.9237800957	-0.101063
C	 0.5794783177	-0.4448274332	-1.2436879887	 0.362403
O	 1.5884152337	 0.0413301523	-1.6884777701	-0.324005
H	 0.1830465857	 1.8381348996	-0.3644470192	 0.294203
H	 0.6531612897	-0.0949751209	 0.9226544356	 0.088848
H	-0.9614297013	-1.827290726	 0.9138743239	 0.10904
H	-2.1228112812	-0.5101295921	 0.682456345	 0.126405
H	-3.2946059402	-1.0205576567	-2.2823567137	 0.105281
H	-2.3459475184	 0.3810023052	-1.7072958778	 0.121458
H	-1.4318562022	-1.6576157983	-3.8316767755	 0.119143
H	-0.775697487	-0.0179018517	-3.6032717583	 0.121173
H	 0.2017591581	-2.4000407705	-2.0937352533	 0.101216
52.1821	149.9254	196.7722	256.5643	321.2151	381.8535	426.1845	493.6863	588.8398	611.3801	687.7434	710.973	780.3946	834.9962	879.7631	921.7499	942.215	985.3806	991.8242	1027.3406	1057.9576	1085.167	1126.2792	1150.5302	1182.2444	1203.4376	1215.2363	1230.543	1252.3943	1275.7754	1297.4538	1325.0234	1331.7474	1355.5579	1404.4489	1479.1158	1487.8526	1517.9473	1838.1593	3010.9018	3031.0251	3035.2828	3040.9125	3085.5691	3090.8226	3110.1763	3144.6599	3775.1222
OC1CN2CCC2C1=O	O[C@H]1CN2CC[C@H]2C1=O	
InChI=1S/C6H9NO2/c8-5-3-7-2-1-4(7)6(5)9/h4-5,8H,1-3H2	InChI=1S/C6H9NO2/c8-5-3-7-2-1-4(7)6(5)9/h4-5,8H,1-3H2/t4-,5-/m0/s1
