22
gdb 10728	2.40567	1.77095	1.31927	1.4305	77.5	-0.262	0.0704	0.3325	1068.7747	0.19873	-350.197942	-350.188377	-350.187433	-350.231797	36.231	
C	 0.596207511	-0.1518987063	 1.3574825296	-0.383439
C	 0.0220902209	-0.2136699364	-0.06466582	-0.260411
C	-1.3958761042	-0.7690636939	-0.1493665407	 0.382843
C	-1.7889437374	-1.4442583882	-1.4420333646	-0.325752
C	-1.5356564846	-2.2700200657	-0.2017434127	-0.302873
C	-2.4723282295	 0.0171506202	 0.6128721173	 0.052971
C	-2.6049033171	 1.4660734868	 0.1372905316	-0.414531
O	-3.74127171	-0.6341744118	 0.5810204587	-0.431443
H	 1.6428360284	 0.1675827154	 1.3390916527	 0.110664
H	 0.0513159839	 0.5555731792	 1.9905336216	 0.118561
H	 0.5521449805	-1.1328178433	 1.8421548202	 0.120854
H	 0.0640537234	 0.7837874403	-0.5203619921	 0.095138
H	 0.6713442439	-0.847767187	-0.6803233215	 0.093034
H	-2.8152635209	-1.3696467641	-1.7866225847	 0.089813
H	-1.0595412036	-1.4702384835	-2.2449223047	 0.10563
H	-0.6311998242	-2.8682019807	-0.1591055135	 0.101721
H	-2.4008984827	-2.7077334791	 0.2806850249	 0.125098
H	-2.2038841378	 0.0177693491	 1.6760494442	 0.088398
H	-2.8311543883	 1.5016176938	-0.9357659241	 0.110525
H	-3.4144956245	 1.9620806965	 0.6799502086	 0.121337
H	-1.6857774802	 2.0357422014	 0.2999613281	 0.122656
H	-4.1474104971	-0.4453106827	-0.271371939	 0.279206
62.7364	97.3913	202.1737	214.2537	236.0431	271.6897	277.7491	321.9511	351.329	395.7141	437.3249	469.2158	569.263	668.2476	778.833	791.9451	856.9351	902.7006	910.4858	929.5011	959.8708	1016.0559	1048.7219	1051.1561	1071.8516	1082.7641	1085.4686	1111.9215	1141.9885	1190.8461	1266.3277	1276.6433	1307.1687	1342.5595	1364.5467	1383.8128	1398.062	1409.6565	1425.5819	1458.1255	1484.2084	1492.8842	1497.4927	1500.4763	1503.211	1511.3995	3020.2325	3027.2522	3033.52	3039.7191	3051.8348	3099.7551	3103.6122	3105.1909	3119.4783	3125.5374	3134.6831	3203.1557	3230.3382	3809.8808
CCC1(CC1)C(C)O	CCC1(CC1)[C@@H](C)O	
InChI=1S/C7H14O/c1-3-7(4-5-7)6(2)8/h6,8H,3-5H2,1-2H3	InChI=1S/C7H14O/c1-3-7(4-5-7)6(2)8/h6,8H,3-5H2,1-2H3/t6-/m1/s1
