20
gdb 98694	3.12892	1.0379	0.93575	1.6468	77.59	-0.2483	0.0079	0.2562	1362.1954	0.16882	-440.299443	-440.289293	-440.288349	-440.33476	36.323	
C	 0.0105642854	 1.5677994078	 0.7682501032	-0.239423
O	-0.0729554645	 0.2407328348	 1.3022087548	-0.218338
C	 0.7159504341	-0.6655456745	 0.6987894112	 0.456396
O	 1.4525139863	-0.404731464	-0.2228687054	-0.37845
C	 0.5971665376	-2.0450372178	 1.2648885294	-0.191866
N	-0.0067491102	-2.2602903451	 2.5920702342	-0.355178
C	-0.6868867114	-2.8192042739	 1.4219301949	 0.326185
C	-2.0306498555	-2.201749277	 1.0940462885	-0.447439
C	-0.6068852748	-4.3152692325	 1.1830777331	-0.45125
H	-0.2920002934	 1.5829780811	-0.2820746203	 0.138355
H	-0.6675465448	 2.171626623	 1.3711529249	 0.133285
H	 1.0322320808	 1.9482270645	 0.8426366992	 0.141923
H	 1.4643343221	-2.6359580134	 0.9828311896	 0.102784
H	 0.5173567969	-2.978819371	 3.0867581194	 0.231577
H	-2.0427489863	-1.1400309957	 1.3365565627	 0.147824
H	-2.2662380331	-2.32885559	 0.031718896	 0.115995
H	-2.8179651112	-2.6977269255	 1.6727370641	 0.11691
H	-1.3363174037	-4.8399835337	 1.8111113365	 0.125091
H	-0.8325045525	-4.5607309855	 0.1399513369	 0.130588
H	 0.3880484083	-4.7090907517	 1.4143763671	 0.115029
57.4059	107.1024	127.3413	140.7361	193.5481	210.815	256.0171	270.0274	333.141	368.383	402.0287	450.9962	490.8108	651.882	714.2557	773.2834	835.3661	872.8412	952.0211	962.9075	981.2828	1013.3712	1054.566	1079.627	1105.4152	1155.4255	1173.0897	1179.9496	1211.1825	1299.1834	1319.4242	1349.8682	1413.595	1425.6383	1436.2418	1473.6942	1479.9561	1481.4491	1488.2056	1497.8788	1505.2269	1512.4648	1802.6024	3026.2895	3037.0369	3051.7826	3090.3782	3094.7736	3103.3994	3125.8859	3151.388	3159.7199	3163.2146	3489.2915
COC(=O)C1NC1(C)C	COC(=O)[C@H]1NC1(C)C	
InChI=1S/C6H11NO2/c1-6(2)4(7-6)5(8)9-3/h4,7H,1-3H3	InChI=1S/C6H11NO2/c1-6(2)4(7-6)5(8)9-3/h4,7H,1-3H3/t4-/m1/s1
