21
gdb 103435	2.30093	1.55058	1.34911	1.2409	77.9	-0.236	0.0786	0.3146	1096.4752	0.181217	-424.187428	-424.178154	-424.17721	-424.220764	35.92	
C	-0.0739062859	 1.3785124229	-0.0539675189	-0.261826
O	 0.0131315755	-0.0362327349	 0.0217965415	-0.294499
C	 0.6872053307	-0.5669553131	 1.1547424027	 0.373587
C	 0.2042881273	 0.0059728389	 2.4813103734	-0.47754
C	 0.6895885171	-2.0964781003	 1.1263621361	-0.079032
C	 1.3088896741	-2.6077252256	-0.1377695481	-0.312009
C	 2.2178565192	-2.122344571	 0.9571219487	-0.069433
C	 2.2661796694	-0.593616816	 0.9938113041	 0.068559
O	 2.818900259	 0.1060311911	-0.0931753494	-0.439614
H	 0.9058116552	 1.8564160935	 0.0654408019	 0.127555
H	-0.4625151651	 1.6103495719	-1.049290707	 0.12346
H	-0.7676449971	 1.7902114181	 0.6907785924	 0.110657
H	-0.8798530543	-0.1134243788	 2.5822042212	 0.123136
H	 0.683005669	-0.5267587683	 3.3081159804	 0.123363
H	 0.4491303498	 1.067079561	 2.5837221594	 0.122301
H	 0.0686684286	-2.7155533856	 1.7627329647	 0.082557
H	 1.2823400321	-3.6854337218	-0.2615770245	 0.113867
H	 1.1874857739	-2.0581343184	-1.0658685006	 0.111534
H	 2.9360430109	-2.780406928	 1.4309859996	 0.084728
H	 2.7697175765	-0.2184096097	 1.8886463047	 0.082095
H	 2.2451239839	-0.058965746	-0.8504028522	 0.286555
109.6563	133.3326	185.5237	231.1506	252.7463	265.315	278.0021	332.8694	372.4393	401.5893	488.3399	526.3431	611.115	631.7415	756.3973	794.0968	831.5483	899.8286	919.7421	952.6688	995.4962	1001.8971	1014.2721	1062.8338	1079.3421	1089.6988	1118.8533	1143.0507	1170.3131	1179.5009	1181.84	1222.7594	1240.4475	1243.7483	1298.518	1325.9504	1368.4326	1405.9012	1433.8661	1474.0709	1490.8297	1491.7297	1495.8855	1506.9671	1515.5993	3005.9447	3036.6882	3068.5676	3077.3018	3107.8421	3109.7584	3115.4686	3126.5932	3178.4896	3187.2239	3208.4312	3796.439
COC1(C)C2CC2C1O	CO[C@@]1(C)[C@H]2C[C@H]2[C@H]1O	
InChI=1S/C7H12O2/c1-7(9-2)5-3-4(5)6(7)8/h4-6,8H,3H2,1-2H3	InChI=1S/C7H12O2/c1-7(9-2)5-3-4(5)6(7)8/h4-6,8H,3H2,1-2H3/t4-,5+,6-,7+/m1/s1
