17
gdb 123431	3.72689	1.11164	1.07806	3.8378	73.15	-0.2385	-0.0106	0.2279	1166.0213	0.138862	-414.157855	-414.150157	-414.149213	-414.19113	28.495	
C	 0.9072929113	 0.2490458671	 0.901779299	-0.328691
C	-0.3067798604	-0.2561696542	 0.1249459902	 0.020175
C	-1.2574311695	 0.6624574569	-0.5408108381	-0.237856
N	-0.3638228679	-0.2018815616	-1.3422651339	-0.322593
C	 1.5592859639	 1.4756192674	 0.3453635101	 0.287859
C	 2.673705667	 1.5979456372	-0.4559249438	-0.170213
N	 2.8011060991	 2.9321178209	-0.6447934097	-0.148966
N	 1.8334809629	 3.6147619894	-0.0079421642	-0.111261
N	 1.0828456735	 2.736677154	 0.5895772951	-0.234876
H	 0.5985635034	 0.4528218512	 1.9334529868	 0.13189
H	 1.650336664	-0.5560595692	 0.9481125178	 0.110475
H	-0.7007483533	-1.1863131795	 0.5307754885	 0.091788
H	-2.3111251554	 0.4045010262	-0.5968971755	 0.113861
H	-1.0459906002	 1.7265281145	-0.4936541859	 0.138623
H	 0.4118319335	 0.3616452843	-1.6872374355	 0.220341
H	 3.3590652175	 0.8799190664	-0.8740913648	 0.15322
H	 3.4986795207	 3.437020669	-1.1680646761	 0.286225
47.1937	100.8587	119.0953	296.1505	316.0998	350.1418	499.6092	581.0567	660.7706	718.1993	760.9092	787.9329	806.2229	847.6738	896.3428	948.1005	979.5367	987.6596	1021.0088	1044.1409	1057.0477	1118.5625	1130.4163	1153.99	1185.8525	1219.4117	1264.4336	1276.5559	1299.9061	1320.7515	1345.7457	1364.8434	1420.69	1476.0006	1489.9227	1515.3064	1585.2976	3033.2057	3073.2362	3115.2626	3121.5899	3205.783	3281.9087	3471.3443	3657.5312
C(C1CN1)C1=CNN=N1	C([C@H]1CN1)c1c[nH]nn1	
InChI=1S/C5H8N4/c1(4-2-6-4)5-3-7-9-8-5/h3-4,6H,1-2H2,(H,7,8,9)	InChI=1S/C5H8N4/c1(4-2-6-4)5-3-7-9-8-5/h3-4,6H,1-2H2,(H,7,8,9)/t4-/m0/s1
