20
gdb 126833	2.92986	1.26738	0.96946	4.6608	82.55	-0.2315	0.0094	0.2409	1285.6367	0.170305	-399.353419	-399.343484	-399.34254	-399.389411	34.671	
C	-0.0166196435	 1.5688506634	 0.0160426612	-0.381382
C	-0.0176216538	 0.0402219244	-0.0472041128	-0.145078
N	 0.7497821907	-0.4783157499	-1.1686029638	 0.009027
N	 0.1214797718	-0.747369054	-2.3316449666	-0.167192
N	 1.024140985	-1.1528545596	-3.1783619331	-0.255921
C	 2.2463813208	-1.147997805	-2.5745896935	 0.227422
C	 3.4843742136	-1.5663023502	-3.3005599934	-0.498742
C	 2.0865194055	-0.7131005314	-1.2724804718	 0.235879
C	 3.0632579747	-0.5224295268	-0.1616519901	-0.510167
H	 0.9946744869	 1.9631759412	 0.1521660444	 0.126268
H	-0.4275358958	 1.9855968526	-0.9070613264	 0.14839
H	-0.6304068668	 1.9089119111	 0.8554909298	 0.125051
H	 0.3859274741	-0.3904035607	 0.8744170786	 0.120191
H	-1.0337190469	-0.3380069989	-0.1776112729	 0.14591
H	 4.1406993764	-0.7164712458	-3.521383404	 0.127718
H	 4.0707401817	-2.29273989	-2.7276375327	 0.123064
H	 3.2040159851	-2.0274430694	-4.2500051728	 0.147873
H	 3.1946774934	 0.5337353556	 0.1019041936	 0.140226
H	 2.7596196179	-1.0518262566	 0.7488105381	 0.137791
H	 4.0404332891	-0.9099594299	-0.4586522117	 0.143672
40.6476	53.5209	99.9246	126.7668	205.7406	226.6398	247.3579	294.7226	297.1612	413.5311	476.3283	590.9544	685.9901	699.6088	723.4724	760.8305	794.8304	968.2866	975.7723	1013.779	1055.4054	1065.2707	1076.0469	1100.483	1148.9216	1212.2875	1254.1227	1303.6183	1346.7842	1370.0745	1387.5108	1406.526	1418.6338	1423.5778	1474.4353	1476.3706	1483.1661	1487.6031	1489.4949	1493.9899	1504.6819	1520.8055	1614.6085	3027.6671	3030.7903	3045.6525	3061.4939	3076.228	3081.1064	3109.3769	3122.9454	3124.0265	3130.2016	3135.3326
CCN1N=NC(C)=C1C	CCn1nnc(C)c1C	
InChI=1S/C6H11N3/c1-4-9-6(3)5(2)7-8-9/h4H2,1-3H3	InChI=1S/C6H11N3/c1-4-9-6(3)5(2)7-8-9/h4H2,1-3H3
