20
gdb 93720	2.58824	1.22653	1.11413	4.1615	79.06	-0.2713	0.0288	0.3001	1226.7762	0.170322	-403.180379	-403.170999	-403.170055	-403.214596	34.733	
C	-0.0899080414	 1.5686990041	-0.0328362157	-0.418934
C	 0.0637782701	 0.0500408846	 0.0002643574	-0.001048
C	 0.9344959977	-0.5191949262	-1.1345792636	-0.078214
O	 1.5815340008	-1.6946991602	-0.6273597379	-0.284377
C	 1.2612520768	-1.8870599539	 0.7492562319	 0.223947
C	 2.4942384741	-2.4345157245	 1.4680424795	-0.42969
C	 0.7795264552	-0.507173023	 1.2399595579	-0.258507
C	 0.1486019904	-2.8711136905	 0.8528864065	 0.266549
N	-0.7206925858	-3.6288244953	 0.9321538259	-0.347313
H	 0.8845086553	 2.0644815433	 0.0433229931	 0.118681
H	-0.5613141628	 1.8981059242	-0.9645500114	 0.124242
H	-0.7131584886	 1.9213275162	 0.7946442371	 0.124683
H	-0.9290508075	-0.4116741226	-0.056600976	 0.103245
H	 0.3505717767	-0.7852177485	-2.0220525272	 0.115726
H	 1.7105543941	 0.1974601359	-1.4367003231	 0.101199
H	 3.308740911	-1.7113903668	 1.3793728301	 0.127919
H	 2.2793357435	-2.609308267	 2.5257351594	 0.134041
H	 2.8099643407	-3.3770476971	 1.0152215362	 0.146758
H	 1.6591522514	 0.0993079062	 1.4847134576	 0.106697
H	 0.1428761684	-0.5677899488	 2.1248684422	 0.124396
66.9592	93.3469	188.6167	191.7386	223.0826	233.8195	276.0007	345.2047	391.6043	420.1341	475.0052	568.1251	605.7417	645.5814	752.2021	856.4249	865.1131	908.5309	925.6922	954.9408	971.821	1052.3321	1063.704	1082.5692	1138.2668	1176.7532	1189.3706	1200.2781	1230.8002	1269.7239	1302.1494	1346.9883	1361.2717	1400.7908	1409.759	1415.9302	1478.5071	1483.3583	1493.1956	1497.4021	1500.5921	1527.4175	2347.6859	3008.5637	3030.7503	3034.5369	3047.4161	3051.8864	3069.1214	3099.3643	3105.7305	3118.2612	3131.5958	3136.9482
CC1COC(C)(C1)C#N	C[C@H]1CO[C@@](C)(C1)C#N	
InChI=1S/C7H11NO/c1-6-3-7(2,5-8)9-4-6/h6H,3-4H2,1-2H3	InChI=1S/C7H11NO/c1-6-3-7(2,5-8)9-4-6/h6H,3-4H2,1-2H3/t6-,7+/m1/s1
