18
gdb 97162	3.56932	1.27917	1.01812	2.4673	75.43	-0.2399	0.0234	0.2633	1182.4896	0.147588	-439.063341	-439.055046	-439.054102	-439.096923	30.728	
C	-0.2973108477	 1.4598759181	 0.0155404851	-0.326298
N	-0.2247334286	 0.0075405101	 0.0552124398	-0.299935
C	 0.6462617116	-0.5552838571	 0.7702484201	 0.405519
C	 0.7224768689	-2.06398521	 0.8663126322	-0.191607
O	 2.0685366098	-2.5053430848	 1.0054960562	-0.243548
C	 2.6225889309	-2.0038501401	 2.1830679546	 0.071506
C	 3.7401296897	-1.0024628765	 2.0424383125	-0.327771
C	 2.3584251057	-0.5488930503	 2.4365254849	 0.066428
O	 1.5947664599	 0.1427040165	 1.475224379	-0.252515
H	 0.293285613	 1.8392913673	-0.8278993437	 0.127351
H	-1.3358107979	 1.7565010101	-0.1577289851	 0.120628
H	 0.0698422418	 1.9467414637	 0.9264494112	 0.118535
H	 0.1111555861	-2.4217837571	 1.7091894489	 0.113389
H	 0.3237748806	-2.4893901132	-0.0539427563	 0.1474
H	 2.6237471564	-2.7008352755	 3.0203698396	 0.097838
H	 4.522140607	-0.9835131209	 2.7929130293	 0.12184
H	 4.0507801511	-0.7771849127	 1.0288328122	 0.139955
H	 2.1750579716	-0.1881263275	 3.4436324293	 0.111285
53.1706	83.2248	170.2139	213.0745	270.9767	322.5387	420.6498	465.1841	477.5982	567.207	644.1928	711.0413	799.6	817.2026	832.5957	909.8993	998.1652	1006.4097	1038.2447	1055.6795	1077.0517	1081.2979	1120.1717	1123.8487	1146.154	1164.0609	1184.832	1229.8503	1252.6839	1279.03	1351.516	1382.0804	1401.8663	1438.7338	1466.211	1484.8956	1488.9112	1498.824	1788.6572	2988.4152	3015.1115	3072.0718	3097.9346	3107.3612	3143.2355	3144.8729	3156.9892	3240.0638
CN=C1COC2CC2O1	CN=C1CO[C@H]2C[C@H]2O1	
InChI=1S/C6H9NO2/c1-7-6-3-8-4-2-5(4)9-6/h4-5H,2-3H2,1H3	InChI=1S/C6H9NO2/c1-7-6-3-8-4-2-5(4)9-6/h4-5H,2-3H2,1H3/t4-,5+/m0/s1
