16
gdb 42934	3.18759	1.22182	0.97201	4.0736	74.86	-0.2378	-0.0223	0.2154	1190.1223	0.122773	-400.676601	-400.66827	-400.667326	-400.710118	30.98	
O	 0.0128830339	 0.0301846292	-0.2380967615	-0.297323
C	-0.0360779148	 1.2099757748	-0.0633785903	 0.446456
C	-1.1514034258	 2.2343316517	-0.054979219	-0.186464
N	-0.9165661965	 3.0454223248	 1.1925962342	-0.326882
C	-0.1266520021	 3.3334824622	-0.0087590213	-0.079337
C	 1.0484227711	 2.3396757562	 0.0095202837	-0.117415
C	 2.0279630812	 2.3977206715	 1.1901314254	-0.370358
C	 3.0033679722	 1.315262041	 1.172601568	 0.306342
C	 3.8113328244	 0.4266696216	 1.1395467229	-0.442901
H	-2.1324386217	 2.1949163015	-0.5105892396	 0.118072
H	-1.6853934572	 3.7145355745	 1.2364736568	 0.242989
H	-0.1657226488	 4.2928882143	-0.5078309789	 0.110838
H	 1.589206591	 2.3357609608	-0.943323806	 0.11521
H	 2.5534055631	 3.3619937746	 1.1656582527	 0.128964
H	 1.4544163977	 2.3801684138	 2.122635819	 0.155396
H	 4.5159744224	-0.3671601124	 1.1193714539	 0.196414
57.6683	92.8372	156.8535	219.7086	242.1185	342.1879	454.483	475.8251	526.2252	607.7474	620.9474	640.6611	734.7003	758.0953	823.4319	834.1795	890.4672	933.8537	966.5876	989.9759	1008.9532	1044.6342	1098.2585	1099.6318	1112.5759	1162.0536	1202.8203	1284.8507	1303.2307	1316.936	1355.3495	1363.7897	1477.1621	1902.0595	2242.4742	3017.6411	3060.2263	3079.7836	3200.0307	3211.3001	3470.8799	3508.0742
O=C1C2NC2C1CC#C	O=C1[C@H]2N[C@H]2[C@H]1CC#C	
InChI=1S/C7H7NO/c1-2-3-4-5-6(8-5)7(4)9/h1,4-6,8H,3H2	InChI=1S/C7H7NO/c1-2-3-4-5-6(8-5)7(4)9/h1,4-6,8H,3H2/t4-,5+,6+/m1/s1
