14
gdb 8807	5.25168	1.16364	0.96402	2.4291	55.89	-0.2532	-0.0712	0.182	1147.0101	0.103735	-456.837318	-456.82823	-456.827285	-456.872014	29.82	
C	-0.0127330295	 1.3732682763	 0.0064218995	-0.243725
O	 0.0256077204	-0.0616021383	-0.0354774966	-0.205754
C	 0.6318410138	-0.5848813936	-1.0975668431	 0.361731
O	 1.1355605158	 0.0424001445	-1.9985390229	-0.353102
C	 0.6255545122	-2.1295337922	-1.0595974942	 0.264808
O	 0.1233120289	-2.7464233029	-0.1618209528	-0.250649
C	 1.3121409178	-2.752504475	-2.2610843597	-0.167735
O	 1.2590995035	-4.1481512108	-2.1437219668	-0.398483
H	 1.0009959502	 1.7812848839	 0.018890088	 0.146481
H	-0.5411475429	 1.7661212087	-0.8657061747	 0.146635
H	-0.5414141114	 1.6269124382	 0.9241991592	 0.145708
H	 0.8104057513	-2.3680999165	-3.1647220293	 0.128736
H	 2.3395242437	-2.3534326901	-2.29828379	 0.128707
H	 1.6958277463	-4.5268107722	-2.9119816466	 0.296641
42.8786	95.765	120.7748	156.703	156.9907	232.6078	276.6421	333.0699	358.9763	428.3122	501.5822	706.9299	742.6454	845.3163	949.0054	1006.5661	1075.9067	1150.827	1177.5744	1209.6961	1233.1481	1235.8652	1316.6323	1443.9448	1473.6789	1476.9404	1483.2576	1492.9976	1800.9274	1846.0559	2972.4423	2993.3017	3054.9378	3130.5235	3170.1083	3840.6829
COC(=O)C(=O)CO	COC(=O)C(=O)CO	
InChI=1S/C4H6O4/c1-8-4(7)3(6)2-5/h5H,2H2,1H3	InChI=1S/C4H6O4/c1-8-4(7)3(6)2-5/h5H,2H2,1H3
