21
gdb 93030	2.29811	1.81107	1.37758	1.4457	82.09	-0.235	0.0138	0.2488	1034.3461	0.185399	-387.081918	-387.074099	-387.073155	-387.113875	32.061	
O	-0.0331076583	 1.3582245226	-0.3421488632	-0.435187
C	 0.0265272833	-0.0230145791	 0.0025550437	 0.120673
C	 0.7724966643	-0.2388883869	 1.3396278235	-0.292637
C	-0.0004411498	-0.0677221556	 2.6294542154	-0.073428
C	-1.2667724084	-0.4226212265	 2.8600227204	-0.061738
C	-2.2277946068	-0.9915237847	 1.8487777561	-0.037836
C	-1.5760353549	-1.9279682005	 0.7845035881	-0.246768
C	-1.3641779531	-0.6818266408	-0.1237225586	-0.015931
C	-2.4983107556	 0.0122795639	 0.6846503138	-0.22449
H	-0.5215450632	 1.8099077418	 0.3544088334	 0.279629
H	 0.6644328651	-0.457336058	-0.7762342396	 0.084683
H	 1.2237120187	-1.2411505628	 1.3312973363	 0.114197
H	 1.6182989822	 0.4565732862	 1.3278836486	 0.109345
H	 0.5689490665	 0.348487849	 3.4578297525	 0.086646
H	-1.6702850275	-0.2544973738	 3.8561522485	 0.083389
H	-3.1117903712	-1.3876352971	 2.3538633289	 0.062504
H	-0.7037853707	-2.5120899285	 1.0852920523	 0.09914
H	-2.3193689736	-2.6071991386	 0.3583486869	 0.097148
H	-1.5788051264	-0.8145189657	-1.1870551748	 0.07057
H	-3.4707910648	-0.1585938779	 0.2143586733	 0.098809
H	-2.4115657457	 1.0772788829	 0.9164336543	 0.081282
86.596	209.1237	276.8839	297.8459	325.2598	354.6326	408.4595	426.3871	516.0912	579.9117	700.2493	731.6248	798.8	804.5408	817.4489	861.1019	886.275	911.9602	939.2709	960.5371	996.293	1007.4311	1060.6772	1063.069	1079.7643	1092.8105	1129.2947	1163.4904	1190.3287	1217.6828	1240.6064	1257.0585	1267.1204	1270.249	1296.2963	1326.384	1362.7401	1374.5469	1391.1155	1420.7201	1432.6915	1464.8497	1481.5771	1505.4307	1715.3962	3005.7392	3036.2123	3049.675	3057.8182	3067.3577	3070.8188	3076.371	3100.9292	3114.1018	3135.073	3159.3346	3806.5543
OC1CC=CC2CC1C2	O[C@H]1CC=C[C@@H]2C[C@H]1C2	
InChI=1S/C8H12O/c9-8-3-1-2-6-4-7(8)5-6/h1-2,6-9H,3-5H2	InChI=1S/C8H12O/c9-8-3-1-2-6-4-7(8)5-6/h1-2,6-9H,3-5H2/t6-,7+,8-/m0/s1
