20
gdb 81438	2.68161	1.77229	1.493	1.6733	78.17	-0.2015	0.0833	0.2847	991.3617	0.170887	-403.082238	-403.074142	-403.073198	-403.114729	31.941	
C	-0.0029553337	 1.5390339254	-0.0375514861	-0.314034
N	-0.0339211861	 0.0784002494	 0.0403965968	-0.04481
C	-1.1940358478	-0.7020883498	 0.5216816501	-0.071953
C	-0.1951236795	-1.9043781875	 0.5838829585	-0.219123
C	 0.7381969572	-0.7239857699	 1.0128513292	-0.110527
C	 0.1193720066	-0.4191479705	 2.4219370888	 0.419777
C	 0.7426710163	-0.8994703446	 3.6973021062	-0.491283
O	-0.6258674497	 0.8112814246	 2.4572755706	-0.289784
C	-1.2973210631	-0.3917107756	 2.0498296139	-0.041466
H	 0.7847026924	 1.9555476757	 0.5965533699	 0.120446
H	 0.1919188008	 1.8430808518	-1.0743702246	 0.098616
H	-0.9436362143	 1.9912018227	 0.2873330757	 0.123541
H	-2.1039893933	-0.706501625	-0.0794957996	 0.070199
H	-0.3921654291	-2.6892599749	 1.3184433512	 0.093591
H	 0.0488231678	-2.3122282484	-0.3966478184	 0.110097
H	 1.824910144	-0.7532429114	 0.9159608363	 0.065908
H	 1.6684354569	-0.3523187708	 3.9088640778	 0.127808
H	 0.0633478625	-0.755246745	 4.5414327131	 0.13156
H	 0.9948265202	-1.963288246	 3.6289465233	 0.124587
H	-2.120118578	-0.7275956001	 2.6735062672	 0.09685
65.5842	175.1142	192.7616	250.5106	287.3227	325.3042	420.93	495.585	504.7453	586.5693	693.3487	711.1004	729.8149	829.8967	844.5891	851.1973	870.7398	901.4205	951.4876	982.6396	1024.078	1039.9081	1057.6717	1088.2928	1109.3949	1132.5006	1132.839	1192.7498	1217.2651	1222.6748	1230.4979	1239.9682	1267.1364	1275.2619	1310.5602	1407.8466	1443.1594	1453.9188	1480.04	1484.6095	1490.5018	1496.8931	1507.0886	3009.0702	3031.5185	3070.8989	3076.7967	3091.288	3101.0102	3108.8891	3113.2091	3118.3472	3151.1452	3162.8583
CN1C2CC1C1(C)OC21	CN1[C@H]2C[C@@H]1[C@@]1(C)O[C@@H]21	
InChI=1S/C7H11NO/c1-7-5-3-4(8(5)2)6(7)9-7/h4-6H,3H2,1-2H3	InChI=1S/C7H11NO/c1-7-5-3-4(8(5)2)6(7)9-7/h4-6H,3H2,1-2H3/t4-,5+,6-,7+/m0/s1
