16
gdb 55675	2.32351	1.27352	0.90903	3.2834	69.33	-0.2468	-0.039	0.2078	1244.8464	0.124776	-471.26493	-471.255906	-471.254962	-471.299613	32.078	
N	 0.9035055387	-0.1632050281	 1.0303674789	-0.505246
C	-0.2837581679	 0.0286586288	 0.4039604024	 0.377733
O	-0.5619781272	 0.9957143919	-0.2776499376	-0.354391
C	-1.3048370604	-1.1035962621	 0.6400130845	-0.280122
N	-1.0358195746	-2.2958810171	-0.1669421045	-0.066174
C	-0.1592310351	-3.2697074724	 0.282803838	 0.107367
N	 0.5163587105	-3.1153046695	 1.3530433971	-0.486587
C	-1.6804036173	-2.4720324153	-1.3895741593	 0.165584
O	-1.5192118895	-3.4180693935	-2.1192639307	-0.304112
H	 1.6490326628	 0.4870899166	 0.8398449479	 0.258883
H	 1.1032452171	-1.0603763292	 1.4568191936	 0.279932
H	-1.3183461696	-1.4057226607	 1.6897730202	 0.150267
H	-2.2818825987	-0.7100565381	 0.3585231066	 0.143831
H	-0.141948561	-4.135985724	-0.3788828836	 0.156035
H	 1.0827571018	-3.9400469272	 1.5376185764	 0.24103
H	-2.3637952995	-1.63451574	-1.6112443798	 0.11597
45.5358	70.2803	158.6313	214.016	243.6114	264.4757	300.0995	353.6183	433.1885	458.2464	526.5587	566.6556	642.5318	716.0094	798.4937	832.6928	881.8755	896.3132	960.2828	1030.2049	1080.3897	1135.8236	1161.5112	1198.3823	1340.1819	1348.253	1362.752	1389.8178	1416.5852	1441.4453	1478.0097	1626.8513	1700.9698	1810.562	1815.3967	2995.2795	3079.2538	3141.2781	3145.7472	3505.9764	3517.3258	3685.1052
NC(=O)CN(C=N)C=O	NC(=O)CN(C=N)C=O	
InChI=1S/C4H7N3O2/c5-2-7(3-8)1-4(6)9/h2-3,5H,1H2,(H2,6,9)	InChI=1S/C4H7N3O2/c5-2-7(3-8)1-4(6)9/h2-3,5H,1H2,(H2,6,9)
