14
gdb 15025	2.52211	1.84265	1.12159	4.6023	65.99	-0.3265	-0.0082	0.3183	1007.9529	0.107213	-341.588612	-341.58085	-341.579905	-341.621275	27.378	
N	-0.2609686658	-1.039922092	 0.147347847	-0.301024
C	-0.0869175246	 0.0987855332	 0.0739926454	 0.30533
C	 0.0909422238	 1.5565465324	-0.0351452506	-0.325548
C	 1.5216193634	 1.9048152214	-0.0553970372	 0.30532
N	 2.6345611291	 2.2094492819	-0.0851830364	-0.30101
C	-0.6379032393	 2.1182759734	-1.2572716393	 0.03427
C	-2.1078924994	 2.4240166444	-1.156291872	-0.272445
C	-1.1058910314	 3.5483668655	-1.237137465	-0.272436
H	-0.3414616155	 2.0064992478	 0.8686177698	 0.172459
H	-0.2688683633	 1.7219068207	-2.19656385	 0.126147
H	-2.7251362968	 2.2114939321	-2.0209806221	 0.135657
H	-2.6016342195	 2.2487239261	-0.2062299968	 0.128808
H	-0.9224036131	 4.1328643729	-0.3416937527	 0.128809
H	-1.0294312576	 4.1144288601	-2.15777409	 0.13566
74.1875	133.3243	138.6465	179.479	332.3929	342.7771	387.9954	521.2127	527.132	587.4916	761.7618	836.5099	848.0564	903.2786	943.4551	990.1089	1047.6108	1068.2277	1090.9303	1136.1615	1152.5496	1194.8326	1224.3215	1265.0051	1304.9729	1398.5352	1473.2533	1506.0139	2368.9946	2374.3821	3031.4497	3139.7894	3143.5279	3177.3403	3220.8092	3234.4656
N#CC(C#N)C1CC1	N#CC(C#N)C1CC1	
InChI=1S/C6H6N2/c7-3-6(4-8)5-1-2-5/h5-6H,1-2H2	InChI=1S/C6H6N2/c7-3-6(4-8)5-1-2-5/h5-6H,1-2H2
