15
gdb 98722	2.97999	1.18744	0.996	4.3662	67.6	-0.2819	-0.0022	0.2797	1197.4736	0.11156	-453.956032	-453.947094	-453.946149	-453.990618	30.496	
C	 0.3791580321	 1.126869803	-0.1184906908	-0.235874
O	 0.0599586691	-0.253441345	 0.1126565482	-0.239122
C	 0.5890286716	-0.7689520847	 1.2353317077	 0.499876
O	 1.2995532361	-0.1877457944	 2.0113664576	-0.378212
N	 0.1216511105	-2.0758358613	 1.4172596072	-0.135782
C	 0.1944177412	-3.123484613	 0.4300615782	-0.23386
C	 0.9978514253	-3.1936048786	 1.7100262597	-0.155315
C	 2.4334710943	-3.049109889	 1.6269101204	 0.307826
N	 3.5847142583	-2.9733540676	 1.5605333228	-0.320924
H	 1.4599550277	 1.2621257487	-0.2012298002	 0.15048
H	-0.1139216585	 1.3881785422	-1.0544493662	 0.138268
H	 0.0050142568	 1.7478203132	 0.6988479225	 0.147659
H	-0.6885895714	-3.7472237209	 0.3283488674	 0.145148
H	 0.744359137	-2.9272473915	-0.4856516978	 0.157548
H	 0.6629289798	-3.8405330312	 2.5157327131	 0.152283
58.7457	94.5126	118.1405	153.7023	181.5068	238.5748	285.9491	318.1088	473.1228	536.1887	562.254	660.2767	779.1797	802.3071	847.1459	940.5406	996.5645	1044.8778	1063.5582	1115.6536	1131.8911	1161.1333	1182.0352	1210.3878	1237.6144	1355.9383	1405.1927	1477.2732	1482.4098	1499.7285	1510.5072	1831.1642	2363.7215	3056.8257	3120.0626	3134.8484	3156.9193	3164.9421	3215.8762
COC(=O)N1CC1C#N	COC(=O)N1C[C@H]1C#N	
InChI=1S/C5H6N2O2/c1-9-5(8)7-3-4(7)2-6/h4H,3H2,1H3	InChI=1S/C5H6N2O2/c1-9-5(8)7-3-4(7)2-6/h4H,3H2,1H3/t4-,7?/m1/s1
