17
gdb 45690	3.5587	1.34145	1.02499	2.777	74.59	-0.2417	-0.0252	0.2165	1121.0732	0.136705	-421.827696	-421.820253	-421.819309	-421.860021	28.643	
O	 0.0309775943	-0.1260920652	-0.0425862857	-0.299671
C	 0.0061563532	 1.0771102517	-0.1268709144	 0.369154
C	-1.3418668081	 1.823176274	-0.2172310147	-0.344648
C	-1.2428909407	 3.2833985651	-0.5903273002	-0.226294
C	-0.1153555356	 3.7245669582	-1.1228802998	 0.249276
C	 0.6932471129	 4.9846232946	-1.2995149022	-0.16409
O	 1.9086027798	 4.2018886993	-1.1125873182	-0.305767
C	 1.1677462359	 2.9545546913	-1.2399966496	 0.078001
C	 1.2893613094	 1.9185708828	-0.1293899933	-0.332882
H	-1.9782259346	 1.2485793552	-0.9019049579	 0.14518
H	-1.8200770511	 1.7206199315	 0.7667747178	 0.142397
H	-2.0795705491	 3.9374058903	-0.361212639	 0.101365
H	 0.6612588156	 5.4412345595	-2.2983810484	 0.112984
H	 0.5767095245	 5.7668913083	-0.5411182918	 0.122804
H	 1.3640338963	 2.5018542996	-2.2227493267	 0.09505
H	 1.3511490171	 2.4542769634	 0.8266005118	 0.130934
H	 2.1473281203	 1.2500665204	-0.2198988977	 0.126207
59.653	150.6792	237.8308	312.7457	346.5886	395.519	461.9175	520.3289	550.5718	663.2603	720.2977	762.8357	823.6499	834.5616	899.6969	952.9571	976.3416	998.4948	1018.673	1042.9956	1084.883	1116.584	1130.5651	1140.1826	1192.4464	1217.8061	1242.8574	1288.1419	1311.9104	1314.6496	1358.8621	1380.2505	1440.2765	1464.7084	1510.8695	1794.7603	1817.8862	2994.6333	3006.8411	3022.8563	3038.8977	3052.3888	3063.4147	3123.8154	3166.2958
O=C1CC=C2COC2C1	O=C1C[CH][C]2CO[C@H]2C1	
InChI=1S/C7H8O2/c8-6-2-1-5-4-9-7(5)3-6/h1,7H,2-4H2	InChI=1S/C7H8O2/c8-6-2-1-5-4-9-7(5)3-6/h1,7H,2-4H2/t7-/m0/s1
