20
gdb 17058	3.7785	1.42044	1.22965	1.8859	75.47	-0.2337	0.0881	0.3218	1086.8838	0.176326	-348.939796	-348.9316	-348.930656	-348.972332	31.163	
C	 0.4566826955	 0.9879759995	 0.6728190241	-0.378341
C	 0.1722219629	-0.517045151	 0.7423425561	-0.216148
C	-1.2915545467	-0.8471319827	 0.4989052076	 0.037983
C	-1.8336270856	-0.8864515595	-0.9612934704	 0.02
O	-1.0401698448	-2.116564274	-1.1953980623	-0.312335
C	-1.6933270866	-2.3011478034	 0.1238997649	 0.004825
C	-3.0174211362	-1.7964382797	-0.521063749	 0.051231
C	-4.2209569402	-1.3087021297	 0.2687285188	-0.444068
H	 1.5110410801	 1.2006290955	 0.8741940836	 0.113628
H	 0.2211017277	 1.3912336808	-0.3180891762	 0.115816
H	-0.1399935131	 1.5432291682	 1.4056633448	 0.109999
H	 0.780380633	-1.0525424083	 0.008284254	 0.11845
H	 0.4588518042	-0.8951246835	 1.7326642557	 0.090592
H	-1.9391642931	-0.3504419526	 1.2275118112	 0.064322
H	-1.8029254755	-0.1192989256	-1.737082303	 0.086413
H	-1.4906819041	-3.234096325	 0.6534137198	 0.085812
H	-3.3155067728	-2.4552015595	-1.3410692504	 0.083183
H	-3.961802284	-0.640280029	 1.0932023618	 0.121843
H	-4.9123214186	-0.7710549077	-0.3891806336	 0.123409
H	-4.7683588422	-2.1590305129	 0.6897409225	 0.123387
87.5288	147.871	176.6665	191.3119	265.1437	308.6833	345.7247	413.596	581.6452	612.5648	736.8694	753.7416	800.7552	811.982	867.5864	871.83	895.9864	959.6398	1029.168	1038.0768	1061.1357	1072.8463	1110.162	1116.471	1144.2856	1155.1479	1176.5805	1194.0827	1228.5885	1260.4758	1271.7991	1291.1784	1348.1211	1387.1463	1409.4417	1413.5009	1427.7039	1490.8027	1495.9399	1499.9864	1501.5084	1506.4288	3022.0546	3028.9204	3036.5655	3064.327	3077.0561	3082.8774	3094.3312	3096.7669	3103.0982	3105.1501	3106.2107	3121.1985
CCC1C2OC1C2C	CC[C@H]1[C@H]2O[C@@H]1[C@H]2C	
InChI=1S/C7H12O/c1-3-5-6-4(2)7(5)8-6/h4-7H,3H2,1-2H3	InChI=1S/C7H12O/c1-3-5-6-4(2)7(5)8-6/h4-7H,3H2,1-2H3/t4-,5-,6-,7+
