15
gdb 38085	2.54529	1.82775	1.57798	1.776	71.62	-0.2243	-0.0694	0.1548	902.7485	0.1139	-420.618369	-420.611572	-420.610628	-420.649499	26.752	
O	 0.2240484885	 1.3016768685	 0.3966236146	-0.283775
C	 1.6103385308	 1.3859711911	-0.04295418	-0.079198
C	 1.7388325546	 2.0716721743	-1.3861501292	-0.075854
C	 0.9374629636	 1.8113299087	-2.4289740326	-0.072242
C	-0.143913371	 0.8170536464	-2.4986374888	-0.072245
C	-0.5406649075	-0.0240969462	-1.5329722458	-0.075856
O	 2.3986322013	-1.0262865722	-0.1375601988	-0.288665
C	 1.5935022932	-0.1494587101	-0.152811215	 0.391472
C	 0.0579031439	-0.0412292658	-0.1428946546	-0.079193
H	 2.253778402	 1.8309374393	 0.7208328007	 0.106303
H	 2.5123228024	 2.8270021814	-1.4811676708	 0.107801
H	 1.0960502169	 2.3823733865	-3.3396352729	 0.103674
H	-0.6610760303	 0.7666636113	-3.4528641445	 0.103674
H	-1.3479150484	-0.7222523894	-1.7298654097	 0.107801
H	-0.4901680501	-0.6915914438	 0.5441457973	 0.106302
125.7718	169.2238	275.685	400.831	412.8853	420.9204	509.8072	602.8336	657.7709	711.5257	783.1742	797.7656	860.0173	867.6874	898.1342	910.0014	974.7105	977.1368	988.3098	995.26	1059.9964	1078.0519	1171.0286	1225.287	1241.2085	1266.2395	1294.6288	1341.2702	1397.1829	1435.0193	1662.3803	1697.493	1925.8477	3080.5085	3083.8586	3155.768	3167.2465	3184.1764	3189.7212
O1C2C=CC3C4OC23C14	O1[C@@H]2C=CC=C[C@H]1C2=O	
InChI=1S/C7H6O2/c1-2-4-7-3(1)5(9-7)6(7)8-4/h1-6H	InChI=1S/C7H6O2/c8-7-5-3-1-2-4-6(7)9-5/h1-6H/t5-,6+
