16
gdb 93485	3.12447	1.40511	1.0004	0.7406	70.11	-0.2498	-0.0086	0.2411	1121.2977	0.126584	-471.233621	-471.225807	-471.224863	-471.266088	30.014	
O	 0.1334788008	 1.3219536144	 0.27528849	-0.435698
C	 0.0130653308	-0.043328635	 0.0106469171	 0.077137
C	-1.4524172638	-0.4440851674	-0.1302099775	-0.116229
O	-1.5450548516	-1.8556114037	-0.3811785274	-0.249965
C	-0.7866645183	-2.3862725912	-1.3685945521	 0.459873
N	-0.9687171842	-3.5336691662	-1.8711808107	-0.565963
N	 0.2656417846	-1.5964663789	-1.8367567379	-0.380717
C	 0.7201634269	-0.4230996885	-1.2779024612	 0.378414
N	 1.6211387946	 0.3587733877	-1.7222900684	-0.562322
H	 0.851661196	 1.6291447135	-0.3042306678	 0.300551
H	 0.4514032832	-0.6501366436	 0.8222825031	 0.106698
H	-2.0041308221	-0.2692623339	 0.7937915908	 0.139452
H	-1.9260630556	 0.1212450797	-0.9417957732	 0.127256
H	-1.7962807668	-3.9671747808	-1.467814888	 0.232418
H	 0.7454359451	-1.9945160104	-2.6313795241	 0.268937
H	 2.0405770204	 0.0497959943	-2.5982440929	 0.220157
87.8428	123.7941	220.4344	310.7421	364.5974	367.0217	427.6092	473.1037	507.0286	569.6904	595.4637	677.727	713.2038	751.7263	797.4377	825.8909	849.6114	900.9779	1034.5198	1057.1088	1094.012	1130.968	1148.8077	1169.364	1233.6285	1297.8702	1315.2173	1336.6597	1411.9787	1429.6362	1433.0854	1465.2497	1512.4629	1742.4869	1762.6113	2955.8113	3043.4671	3136.0968	3489.8172	3530.7193	3615.4698	3652.8441
OC1COC(=N)NC1=N	O[C@H]1CO[C]([NH])N[C]1[NH]	
InChI=1S/C4H7N3O2/c5-3-2(8)1-9-4(6)7-3/h2,8H,1H2,(H3,5,6,7)	InChI=1S/C4H7N3O2/c5-3-2(8)1-9-4(6)7-3/h2,8H,1H2,(H3,5,6,7)/t2-/m0/s1
