19
gdb 105645	2.07543	1.37762	1.20906	3.236	76.21	-0.2476	0.0193	0.2669	1174.5549	0.158101	-419.187277	-419.177584	-419.176639	-419.221958	34.757	
C	 0.1409642765	 1.5183143241	 0.1483567945	-0.342927
N	 0.1290589285	 0.0598476735	 0.0316336626	-0.324617
C	 0.7307058694	-0.4638106309	-1.1789977677	 0.079098
C	 2.2944359284	-0.4398581086	-1.276281001	-0.115864
O	 2.3644880321	-1.8281122579	-0.9115446451	-0.286895
C	 0.9530699987	-2.0175649312	-1.1560680506	 0.110877
C	 0.2631773948	-2.8803028487	-0.1249840191	-0.409403
C	 0.0224821321	 0.0405789384	-2.3566114983	 0.28307
N	-0.510574919	 0.424481524	-3.307419861	-0.344246
H	 1.1426150666	 1.9724769105	 0.0699026313	 0.10636
H	-0.4889391751	 1.9524600265	-0.6331274684	 0.15593
H	-0.2846180184	 1.7941734858	 1.116206149	 0.130832
H	 0.6060553241	-0.350924945	 0.8266937629	 0.233344
H	 2.686331006	-0.2516568014	-2.2834418049	 0.117232
H	 2.8012412347	 0.2081489894	-0.5531963362	 0.114035
H	 0.7939189272	-2.4345844546	-2.1599981813	 0.095102
H	 0.3970819936	-2.5029373047	 0.8912841571	 0.119777
H	-0.8079708991	-2.9405124946	-0.3373981364	 0.140536
H	 0.6820388286	-3.8903606544	-0.1677121473	 0.137759
67.6481	115.529	148.7915	170.4565	171.7777	202.6211	232.0508	299.1421	364.745	418.94	500.0754	548.3935	568.9417	618.2717	755.9085	796.1733	874.0614	908.5657	992.8307	1003.6568	1025.7973	1079.3709	1090.6465	1108.8639	1147.4222	1163.9934	1167.429	1213.3784	1257.9064	1304.9302	1346.8548	1395.929	1410.5324	1461.3217	1471.4727	1480.9434	1492.8026	1500.5728	1514.0639	1522.322	2357.3519	2968.8976	3009.2303	3022.3242	3048.9823	3079.0734	3083.2407	3120.1774	3125.9422	3131.2127	3536.7944
CNC1(COC1C)C#N	CN[C@]1(CO[C@H]1C)C#N	
InChI=1S/C6H10N2O/c1-5-6(3-7,8-2)4-9-5/h5,8H,4H2,1-2H3	InChI=1S/C6H10N2O/c1-5-6(3-7,8-2)4-9-5/h5,8H,4H2,1-2H3/t5-,6-/m0/s1
