18
gdb 99190	5.47834	0.68489	0.67117	2.6273	70.28	-0.2618	0.0109	0.2727	1666.4847	0.146917	-476.221484	-476.21213	-476.211186	-476.257413	32.536	
O	 0.1529826068	 1.4060192945	 0.2693258171	-0.417702
C	 0.0757675217	 0.0397116654	-0.0012113943	-0.146638
C	-1.3839709424	-0.4228105042	 0.0541104293	 0.390566
O	-2.265860794	 0.3825814071	 0.3093163063	-0.383754
N	-1.6067103166	-1.7409688332	-0.1922138983	-0.328126
C	-2.9133709821	-2.3426678048	-0.1818399692	-0.002965
C	-3.3341185713	-3.2236231334	-1.3819659314	-0.091383
O	-3.7091765256	-4.2991191798	-0.5002788083	-0.265339
C	-3.1281091994	-3.6363363112	 0.6389949511	-0.091358
H	-0.7687969238	 1.6769374837	 0.4196856309	 0.295975
H	 0.4840571689	-0.1929809706	-0.9984472015	 0.110608
H	 0.6607963367	-0.5449156195	 0.7277025404	 0.110648
H	-0.8118213323	-2.328798835	-0.395075253	 0.251229
H	-3.6230768514	-1.5510627491	 0.0522139786	 0.139119
H	-4.1726776607	-2.8710722099	-1.9916625427	 0.119988
H	-2.4994779372	-3.4995389037	-2.043506572	 0.094551
H	-2.19271604	-4.1141759309	 0.9662158336	 0.094599
H	-3.8180767674	-3.5816178153	 1.4876136835	 0.119982
42.3511	68.7479	81.0843	86.2352	170.025	311.0626	339.1051	368.1759	446.0612	458.6821	489.9858	606.56	714.8001	757.1756	884.6813	888.8691	934.6331	1000.3691	1023.2578	1035.2502	1037.6973	1116.9647	1137.0168	1151.3631	1158.8641	1192.5353	1247.4841	1257.5672	1275.2138	1302.2195	1314.9711	1351.0386	1393.614	1465.6257	1506.8421	1508.3866	1533.6179	1560.4821	1772.5834	2969.4486	2987.3396	2989.012	3000.0522	3069.1624	3070.224	3144.5137	3611.9888	3656.3249
OCC(=O)NC1COC1	OCC(=O)NC1COC1	
InChI=1S/C5H9NO3/c7-1-5(8)6-4-2-9-3-4/h4,7H,1-3H2,(H,6,8)	InChI=1S/C5H9NO3/c7-1-5(8)6-4-2-9-3-4/h4,7H,1-3H2,(H,6,8)
