16
gdb 32711	6.39557	0.81721	0.72793	5.2937	83.66	-0.1932	-0.0129	0.1803	1499.4096	0.125139	-434.103811	-434.09504	-434.094096	-434.138714	30.103	
C	 0.1536553619	 1.3965627185	-0.1963499942	-0.311615
N	-0.2067637006	 0.0528386055	 0.2125103944	-0.283286
C	 0.4051389403	-0.5856804921	 1.2343763343	 0.087493
N	 1.3200420625	-0.0125493906	 1.935163603	-0.382192
C	 1.9072856699	-0.66638133	 2.9728263598	 0.417974
C	 2.8811399896	-0.2921823208	 3.8496886089	-0.196458
N	 3.1401046808	-1.3290343205	 4.737214706	-0.257333
C	 2.3330148617	-2.2678223509	 4.3728130629	 0.066365
O	 1.5441710622	-1.9615888731	 3.3119354359	-0.195268
H	 1.1858672207	 1.440700599	-0.5622960995	 0.141908
H	-0.5233156616	 1.7186873773	-0.9894228283	 0.124844
H	 0.0721262085	 2.0853558355	 0.6495355116	 0.151839
H	-0.8619034127	-0.4669864771	-0.3429117447	 0.257311
H	 0.05016591	-1.6047466217	 1.4081797529	 0.121414
H	 3.4037618079	 0.6488133793	 3.8938724709	 0.117288
H	 2.2088929588	-3.2507554983	 4.7999591261	 0.139716
46.5028	63.5867	114.0781	127.0896	196.9319	234.8663	364.5975	439.0908	473.3735	581.4583	662.1603	707.6639	802.0484	838.0705	846.0399	924.298	963.4829	986.5714	988.3269	1108.5762	1127.8956	1158.6796	1166.7193	1241.8863	1244.8103	1297.2326	1340.4649	1393.0817	1455.8808	1472.7383	1508.0716	1539.5369	1556.4569	1651.0588	1713.6035	3034.1594	3093.3088	3095.1895	3138.9804	3268.9967	3276.3458	3685.9686
CNC=NC1=CN=CO1	CNC=Nc1cnco1	
InChI=1S/C5H7N3O/c1-6-3-8-5-2-7-4-9-5/h2-4H,1H3,(H,6,8)	InChI=1S/C5H7N3O/c1-6-3-8-5-2-7-4-9-5/h2-4H,1H3,(H,6,8)
