21
gdb 53615	4.63418	0.71423	0.64293	0.1803	93.77	-0.2321	0.0286	0.2608	1793.4384	0.182324	-349.949822	-349.940057	-349.939113	-349.98638	34.847	
C	 0.0644724067	 1.5290139003	-0.0161521409	-0.497481
C	 0.0604509771	 0.0727148207	 0.0020458139	 0.093977
C	 0.0704461358	-1.1317413926	 0.0166635072	 0.036529
C	 0.0464346234	-2.5906567449	 0.0302126078	-0.36719
C	-1.3823723425	-3.1831486648	 0.0206786719	-0.005622
C	-1.3956301869	-4.7352320241	-0.0154809491	-0.230772
C	-2.5874313577	-5.1691988238	 0.8756858786	-0.255651
C	-2.8389553299	-3.9425542263	 1.7215173039	-0.070386
C	-2.1951114819	-2.8732732736	 1.2582402641	-0.056683
H	 0.6930318351	 1.9166663099	-0.8257652501	 0.14545
H	-0.9450205512	 1.9291971427	-0.1630769678	 0.145279
H	 0.4478946676	 1.9397599076	 0.9246331372	 0.145272
H	 0.5956124552	-2.9757269243	-0.8395584426	 0.121313
H	 0.5769911805	-2.9643869081	 0.9164683865	 0.121654
H	-1.8939324589	-2.7722454777	-0.8619302015	 0.084418
H	-1.4556217117	-5.1319649026	-1.0323174825	 0.096377
H	-0.4621147172	-5.1086638259	 0.4217096929	 0.100151
H	-3.4761856666	-5.4148153832	 0.27695832	 0.104649
H	-2.3648430448	-6.0630749393	 1.4696036635	 0.100985
H	-3.5041443344	-3.9503209231	 2.5784132406	 0.088735
H	-2.2455793777	-1.8724617769	 1.6719345863	 0.098998
24.7581	57.2664	73.1211	113.032	211.9205	245.729	296.7372	314.1904	388.071	437.7512	513.1764	631.4514	748.9846	762.1998	768.0004	845.5914	853.1001	922.8456	929.0598	973.5646	984.6255	1047.3972	1053.7133	1055.6048	1069.6534	1088.8057	1135.5605	1166.723	1173.9386	1211.6444	1229.8804	1278.5369	1312.6678	1321.2562	1339.7284	1356.076	1387.5981	1415.7911	1472.7587	1479.5576	1480.0264	1483.6417	1500.2673	1686.1141	2370.6545	2992.1808	3006.1224	3008.2308	3024.6524	3035.251	3041.6805	3054.9489	3084.1336	3084.189	3095.1242	3182.0197	3209.5452
CC#CCC1CCC=C1	CC#CC[C@H]1CCC=C1	
InChI=1S/C9H12/c1-2-3-6-9-7-4-5-8-9/h4,7,9H,5-6,8H2,1H3	InChI=1S/C9H12/c1-2-3-6-9-7-4-5-8-9/h4,7,9H,5-6,8H2,1H3/t9-/m1/s1
