16
gdb 45228	3.23223	1.82485	1.45159	2.8845	66.67	-0.2339	0.0006	0.2345	892.054	0.127309	-437.878903	-437.872664	-437.871719	-437.909598	25.197	
O	 0.00091259	-0.0107845112	-0.3157073463	-0.333655
C	 0.0274459532	 1.1582734791	-0.070075983	 0.43225
O	-1.1073479269	 1.864743551	 0.2312249988	-0.229139
C	-0.8173354369	 3.237366904	 0.5074159579	 0.077241
C	-0.3591834866	 3.5211822632	 1.958898419	-0.199781
N	 1.0786249367	 3.6530283554	 1.542436462	-0.140385
C	 1.7579205811	 2.3181234204	 1.4474629161	-0.184368
C	 1.2327634943	 2.0839676612	-0.0074303321	-0.194363
C	 0.6510462016	 3.5018127929	 0.0914730357	-0.019913
H	-1.6268766757	 3.8398697493	 0.096192848	 0.103252
H	-0.7302542841	 4.4731055764	 2.3494077277	 0.120278
H	-0.5678076078	 2.7293493124	 2.6845423851	 0.121503
H	 2.8433742397	 2.4389744141	 1.4828299687	 0.125438
H	 1.4602512006	 1.5874735935	 2.2058649259	 0.122746
H	 1.9703998904	 1.8278542603	-0.7651087863	 0.110714
H	 0.9028136703	 4.2821035678	-0.6262114971	 0.088183
114.2693	218.0933	349.3396	420.0913	457.6708	591.9683	649.9697	710.1292	741.0618	779.3135	794.972	863.9643	888.8755	918.108	945.2725	951.9817	979.7595	996.7855	1031.8311	1050.2888	1114.7153	1159.4827	1187.1961	1198.6991	1208.0606	1216.5835	1242.783	1262.3843	1283.394	1312.2926	1319.0582	1371.0208	1479.3264	1505.014	1884.8653	3048.1899	3052.2449	3103.2003	3104.9823	3112.3827	3122.1535	3140.546
O=C1OC2CN3CC1C23	O=C1O[C@H]2CN3C[C@@H]1[C@@H]23	
InChI=1S/C6H7NO2/c8-6-3-1-7-2-4(9-6)5(3)7/h3-5H,1-2H2	InChI=1S/C6H7NO2/c8-6-3-1-7-2-4(9-6)5(3)7/h3-5H,1-2H2/t3-,4+,5+/m1/s1
