17
gdb 28482	3.03585	1.38969	0.96004	2.4901	80.9	-0.1923	-0.0111	0.1813	1185.0233	0.137523	-418.085974	-418.077723	-418.076778	-418.118333	32.184	
C	 0.0370661153	 1.4783371865	-0.061715353	-0.498107
C	 0.0413837721	-0.0254570666	-0.0025358794	 0.284313
N	 0.0318277993	-0.6851645759	-1.1692236825	-0.415069
C	 0.0486607902	-2.0099498098	-1.1678504977	 0.409381
O	 0.0406744622	-2.6379811492	-2.3705803546	-0.429371
C	 0.073730533	-2.7735920254	-0.0010591465	-0.214272
C	 0.0757544849	-2.0950306432	 1.2058191146	-0.127511
C	 0.0598019628	-0.6962597848	 1.2310867013	 0.215701
N	 0.1312821467	 0.0169713897	 2.4407631732	-0.596182
H	 0.8803244483	 1.900793744	 0.4976734596	 0.13599
H	 0.0993101869	 1.8041796058	-1.1005175478	 0.138892
H	-0.8799059515	 1.9011205185	 0.3725331974	 0.119865
H	 0.0252676755	-1.9327264277	-3.0313599249	 0.291758
H	 0.086418589	-3.8549060754	-0.0532815852	 0.105563
H	 0.0926264729	-2.6489944287	 2.140519372	 0.091893
H	-0.1584809739	-0.5260628956	 3.2429138414	 0.242086
H	-0.3602072239	 0.9002135678	 2.426458452	 0.245071
131.56	163.8839	216.4293	265.9268	300.213	333.7049	369.8359	460.9466	490.3999	500.2929	504.1036	583.452	628.0212	685.0115	737.8069	776.8805	799.6232	850.5402	953.5498	965.1204	1016.4715	1054.4775	1084.6378	1157.3798	1200.3773	1236.9336	1316.5402	1337.5003	1362.3833	1402.2694	1470.0795	1484.4645	1504.3997	1512.0291	1641.4516	1648.7079	1660.6415	3009.5829	3063.6367	3144.5531	3164.3011	3213.0638	3545.9734	3639.3431	3777.044
CC1=NC(O)=CC=C1N	Cc1nc(O)ccc1N	
InChI=1S/C6H8N2O/c1-4-5(7)2-3-6(9)8-4/h2-3H,7H2,1H3,(H,8,9)	InChI=1S/C6H8N2O/c1-4-5(7)2-3-6(9)8-4/h2-3H,7H2,1H3,(H,8,9)
