18
gdb 122728	11.05678	0.41911	0.40792	5.2217	88.87	-0.273	-0.0397	0.2333	2550.4903	0.145676	-401.934821	-401.924527	-401.923582	-401.971667	34.691	
C	 0.0391790685	 1.5478322522	-0.097345192	-0.385838
C	 0.0191792293	 0.0316673125	-0.0146469338	-0.036289
O	 0.6621518476	-0.4900903049	-1.1650437753	-0.238427
C	 0.7014591602	-1.8929413064	-1.1948447143	-0.049398
C	 1.4250371341	-2.2900833539	-2.4909097289	-0.372824
C	 1.5364189214	-3.7278395549	-2.6507291927	 0.078339
C	 1.6183544923	-4.9279651182	-2.7644192682	 0.038048
C	 1.7127601463	-6.2833380904	-2.8961210369	 0.208869
N	 1.7917057573	-7.4372238719	-3.0063198704	-0.337585
H	 1.067777453	 1.9168179096	-0.1384808538	 0.129601
H	-0.48494439	 1.8907247088	-0.993763339	 0.129597
H	-0.4508833771	 1.9816694722	 0.7791264244	 0.120364
H	 0.53610581	-0.3157204134	 0.8951855971	 0.092849
H	-1.0167797477	-0.3419274611	 0.039180189	 0.092843
H	 1.2409272674	-2.2982246896	-0.3238097776	 0.105943
H	-0.3126847039	-2.3234998324	-1.1834095368	 0.105964
H	 0.8840735854	-1.8606026096	-3.3425695081	 0.158982
H	 2.423165224	-1.8360413686	-2.4908943482	 0.158961
40.7775	54.6446	91.1632	122.116	152.4635	170.5647	226.2248	249.9743	364.0799	377.758	415.1859	519.1639	581.745	589.1629	738.8352	792.6973	822.7573	900.6033	1042.9175	1046.1004	1083.0338	1149.1195	1161.3417	1178.5744	1185.3545	1230.0669	1296.4426	1300.7797	1305.2375	1388.0935	1408.2782	1448.8121	1465.7394	1484.0472	1499.5316	1516.9634	1538.847	2267.3219	2403.3515	2959.9379	2973.7456	2989.5374	3002.2701	3037.6242	3047.1666	3077.2431	3122.6272	3124.1311
CCOCCC#CC#N	CCOCCC#CC#N	
InChI=1S/C7H9NO/c1-2-9-7-5-3-4-6-8/h2,5,7H2,1H3	InChI=1S/C7H9NO/c1-2-9-7-5-3-4-6-8/h2,5,7H2,1H3
