16
gdb 77362	3.01277	1.25252	0.94089	2.0426	65.89	-0.2574	-0.0354	0.222	1180.1187	0.124336	-475.071273	-475.062787	-475.061843	-475.105061	30.559	
O	 0.2984513769	 1.4051200807	 0.1805981683	-0.438861
C	 0.0681466634	 0.0312619592	 0.0414048135	 0.015999
C	-1.4264789452	-0.3482916244	-0.0523637552	-0.108654
C	-1.4308123948	-1.6078362436	-0.9467430302	-0.19127
N	-0.216272616	-1.4478564603	-1.740163773	-0.323682
C	 0.6345422215	-0.496682176	-1.2849217265	 0.393997
O	 1.6551473373	-0.0797360468	-1.7938491	-0.394281
C	-2.0826984991	-0.5305310228	 1.2951080536	 0.132169
O	-2.5648606342	-1.5638556316	 1.6862283755	-0.2429
H	 1.0935531574	 1.585410998	-0.344623896	 0.298
H	 0.5509419945	-0.5373300193	 0.8559995392	 0.103142
H	-1.9179899919	 0.4926975456	-0.5582325642	 0.11982
H	-1.4117689358	-2.5150869389	-0.3335823752	 0.140025
H	-2.3162706615	-1.652855193	-1.5865373006	 0.12867
H	-0.022616002	-1.9743161108	-2.5773136203	 0.261913
H	-2.0777108705	 0.3814122439	 1.9302566213	 0.105913
64.745	86.6758	156.9728	199.6555	259.0249	304.1929	364.4631	417.3406	489.9354	519.3966	564.6123	675.7806	697.1331	731.4056	846.475	888.0047	953.1368	1022.059	1059.2363	1090.9701	1108.086	1147.9372	1213.3134	1240.5838	1264.963	1266.5449	1336.6737	1358.7175	1373.415	1417.9001	1424.6173	1453.1456	1535.0639	1822.6275	1830.4718	2906.8547	2947.7523	3039.9282	3050.8448	3093.1118	3641.8922	3711.6093
OC1C(CNC1=O)C=O	O[C@H]1[C@@H](CNC1=O)C=O	
InChI=1S/C5H7NO3/c7-2-3-1-6-5(9)4(3)8/h2-4,8H,1H2,(H,6,9)	InChI=1S/C5H7NO3/c7-2-3-1-6-5(9)4(3)8/h2-4,8H,1H2,(H,6,9)/t3-,4-/m0/s1
