23
gdb 114742	2.29528	1.47268	1.10122	1.4047	84.48	-0.2248	0.0811	0.3058	1231.9931	0.206144	-388.286013	-388.276855	-388.27591	-388.31974	35.642	
C	 0.3985848633	 1.4676026005	 0.1334004789	-0.384493
C	 0.4715030709	-0.0619600283	 0.1265368162	-0.178978
C	 0.5613035999	-0.627099664	-1.2962597917	 0.105942
O	 1.7017590181	-0.070879717	-1.979147941	-0.273908
C	 2.6439099274	-1.0709937441	-2.252009332	 0.110755
C	 3.236869777	-1.8390228284	-1.097182722	-0.331019
C	 2.0923708358	-2.4173151525	-1.9157584795	-0.07222
C	 0.6628124238	-2.1848987456	-1.4402830191	-0.028412
C	 0.2484132494	-3.0097777604	-0.2179604252	-0.398739
H	 1.2785384811	 1.8936965984	-0.3545535948	 0.135643
H	-0.4870369181	 1.8226742944	-0.4061445573	 0.109929
H	 0.3452007775	 1.8555685695	 1.1551075684	 0.105569
H	 1.3306718303	-0.3903967842	 0.7219550017	 0.097195
H	-0.4209814195	-0.4772327942	 0.6099691129	 0.09389
H	-0.3226109791	-0.2679307277	-1.841528358	 0.075786
H	 3.2291935608	-0.8534851464	-3.1384279637	 0.095908
H	 4.215168208	-2.2858473398	-1.2431817009	 0.110063
H	 3.0544821351	-1.4862879178	-0.0884852516	 0.115956
H	 2.286144757	-3.2871042545	-2.5335121243	 0.086409
H	 0.0089706969	-2.475550019	-2.271840613	 0.078744
H	 0.8859133307	-2.806850434	 0.6469190859	 0.119019
H	-0.7888701608	-2.8129770917	 0.0715994173	 0.114598
H	 0.3288609146	-4.0780306632	-0.4431817573	 0.112361
73.7546	112.7636	189.9129	205.137	236.0429	262.3373	293.1629	369.6085	428.8655	463.8673	489.144	654.585	712.2061	748.2638	750.45	805.6381	842.691	890.8355	926.0646	960.051	981.9054	988.9953	1019.2227	1043.0938	1057.2006	1065.7978	1094.4406	1103.3244	1117.6121	1142.122	1165.3089	1188.104	1208.7996	1288.6386	1299.2514	1324.8979	1334.4485	1360.1943	1375.5804	1394.081	1403.9126	1408.6657	1415.293	1471.7384	1479.9943	1495.2243	1499.6744	1504.9098	1511.0075	2994.3477	3024.4321	3031.4477	3034.5819	3039.3941	3070.065	3099.0193	3100.1459	3117.1339	3126.4572	3131.6105	3164.1669	3175.3419	3219.796
CCC1OC2CC2C1C	CC[C@H]1O[C@H]2C[C@H]2[C@H]1C	
InChI=1S/C8H14O/c1-3-7-5(2)6-4-8(6)9-7/h5-8H,3-4H2,1-2H3	InChI=1S/C8H14O/c1-3-7-5(2)6-4-8(6)9-7/h5-8H,3-4H2,1-2H3/t5-,6+,7-,8+/m1/s1
