21
gdb 40235	2.74958	1.57024	1.20074	1.2901	82.15	-0.2341	0.0837	0.3177	1099.6676	0.184609	-387.066141	-387.058434	-387.05749	-387.098082	31.695	
C	 0.0108755375	 1.5326321506	 0.01348877	-0.317912
C	 1.301775185	 0.7475114754	-0.0064481109	-0.314752
C	-0.0289375041	 0.0259273798	 0.0143426622	 0.383433
C	-0.4176641188	-0.705209637	 1.2919073529	-0.299142
C	-0.159781704	-2.202020749	 1.1247894317	-0.068414
O	-0.9910303203	-2.7472291929	 0.10740218	-0.263188
C	-0.8522194016	-2.1444443107	-1.1491886833	 0.097437
C	-1.86862227	-1.0997373095	-1.5315211214	-0.326171
C	-0.4341151529	-0.6965400545	-1.2426364462	-0.116667
H	-0.2578104207	 2.05104927	 0.9286412545	 0.107525
H	-0.2858053363	 2.0499523973	-0.892991668	 0.110778
H	 1.8781474277	 0.7384072754	-0.9259611754	 0.109534
H	 1.9079767197	 0.7342230803	 0.8935933914	 0.108
H	 0.1506620233	-0.312077942	 2.1421873853	 0.09382
H	-1.4815724165	-0.5611123213	 1.5196321593	 0.104466
H	 0.9033135455	-2.3795476758	 0.8966667273	 0.089159
H	-0.4105668031	-2.7549804829	 2.0343580602	 0.104085
H	-0.501803483	-2.8397266736	-1.9092199705	 0.088762
H	-2.216851362	-1.0509932592	-2.5576059386	 0.107224
H	-2.6227598336	-0.8799177288	-0.7838655093	 0.118509
H	 0.1550712183	-0.4342766814	-2.1170782811	 0.083513
92.1214	196.3848	246.5509	284.338	348.8929	381.4788	435.9122	486.8655	510.5689	640.465	699.4457	771.8153	784.5569	820.8044	848.3846	886.9414	907.7039	936.9251	972.689	985.435	1005.7215	1024.0447	1047.2379	1054.671	1073.3111	1076.714	1081.0209	1117.3206	1125.9909	1181.429	1188.3474	1213.6817	1238.7286	1280.9845	1298.6741	1317.4223	1366.6733	1373.1055	1416.1661	1424.7739	1468.6396	1478.1575	1485.9722	1502.0519	1508.3591	2980.1607	3024.6749	3070.7821	3088.4122	3118.593	3122.7694	3127.1246	3133.3006	3140.6764	3200.7374	3215.4902	3223.7759
C1CC11CCOC2CC12	C1CC21CCO[C@H]1C[C@@H]21	
InChI=1S/C8H12O/c1-2-8(1)3-4-9-7-5-6(7)8/h6-7H,1-5H2	InChI=1S/C8H12O/c1-2-8(1)3-4-9-7-5-6(7)8/h6-7H,1-5H2/t6-,7+/m1/s1
