23
gdb 114836	3.01603	1.2974	1.22544	0.9857	84.62	-0.2442	0.0804	0.3246	1174.6098	0.208978	-388.307162	-388.298982	-388.298037	-388.339875	32.661	
C	-0.0601146424	 1.414513304	-0.0951638074	-0.238111
O	-0.0194865304	 0.0424988906	 0.2141165144	-0.247296
C	-1.2678179339	-0.6089728407	 0.0895744552	 0.165136
C	-1.7227023642	-0.8831257601	-1.3858997598	-0.247334
C	-1.8979313764	-2.4182558844	-1.4181285373	 0.003061
C	-0.4980861265	-3.0723700997	-1.3807134109	-0.206721
C	-0.0111286282	-2.7857888548	 0.0762027621	-0.204384
C	-1.2021687497	-2.023238968	 0.7016486332	-0.045847
C	-2.4089004057	-2.6953580336	 0.0143627631	-0.225125
H	 0.9426032788	 1.8162435554	 0.0719403805	 0.124018
H	-0.342030018	 1.6000651984	-1.1427122644	 0.104793
H	-0.7708846214	 1.9553008494	 0.5504436941	 0.101393
H	-2.0307782788	-0.0136580584	 0.6162899457	 0.056364
H	-2.6611320153	-0.3699097304	-1.6173390933	 0.088656
H	-0.9673878341	-0.5355117557	-2.0975393311	 0.099065
H	-2.530406243	-2.7736050447	-2.2342524932	 0.052299
H	-0.5674969757	-4.1479138711	-1.5717354485	 0.089449
H	 0.1701896306	-2.6511757971	-2.1376364642	 0.092924
H	 0.1723603534	-3.7152801026	 0.62311086	 0.087402
H	 0.9038369778	-2.1933401625	 0.1084544295	 0.116729
H	-1.2009239753	-2.0151687925	 1.7930278187	 0.056072
H	-3.365078173	-2.2093840296	 0.2357378975	 0.087274
H	-2.4941928287	-3.7610086719	 0.2484594461	 0.090184
91.8947	116.5823	190.6228	215.3779	318.491	358.8155	428.1237	462.2698	474.7682	560.6	759.4475	765.0351	813.3197	819.0597	842.5717	888.3535	930.1468	947.5904	961.0382	963.8973	974.0195	1001.7869	1014.6483	1072.0661	1095.5622	1129.0346	1138.4787	1152.447	1170.7762	1185.1804	1201.0971	1219.1765	1245.9529	1267.978	1280.1746	1287.7597	1312.4038	1332.6086	1335.9836	1350.6317	1359.7641	1396.4644	1477.7955	1481.8061	1488.1717	1490.917	1496.671	1510.5767	1518.8607	2961.2559	2971.8618	3016.8628	3042.4606	3043.5642	3045.7858	3060.1766	3083.3137	3087.282	3092.3394	3093.2261	3099.7336	3109.0572	3126.9309
COC1CC2CCC1C2	CO[C@H]1C[C@H]2CC[C@@H]1C2	
InChI=1S/C8H14O/c1-9-8-5-6-2-3-7(8)4-6/h6-8H,2-5H2,1H3	InChI=1S/C8H14O/c1-9-8-5-6-2-3-7(8)4-6/h6-8H,2-5H2,1H3/t6-,7+,8-/m0/s1
