17
gdb 22396	6.60071	0.72899	0.67231	0.8668	79.94	-0.2283	0.0002	0.2285	1594.4179	0.133239	-417.891418	-417.882228	-417.881284	-417.925867	33.507	
O	-0.1565327963	 1.3701604066	 0.1449829569	-0.39296
N	 0.0369567347	-0.0177456311	 0.0235747682	-0.229415
C	-1.0684140999	-0.6186391609	-0.0801189481	 0.414037
C	-2.5347908998	-0.2553876047	-0.1498218116	-0.263759
N	-2.7954794575	-1.6525198675	-0.5883023849	-0.083593
C	-3.8931701189	-2.3484922639	 0.0646385079	-0.314367
C	-3.9855314454	-3.7419115601	-0.3613156541	 0.307474
C	-4.0456601482	-4.8945383918	-0.6942329728	-0.427298
C	-1.4090220522	-2.0807631848	-0.2493621763	-0.260387
H	 0.747715056	 1.6983995392	 0.1941466791	 0.309344
H	-2.9530654082	-0.0023887182	 0.8385619214	 0.111948
H	-2.8292798509	 0.5177741939	-0.8664373879	 0.133808
H	-3.807797672	-2.3180117386	 1.1704759992	 0.107331
H	-4.8243110016	-1.8250756547	-0.1877141846	 0.138429
H	-4.1065155295	-5.9110192925	-0.9955982716	 0.199907
H	-0.8976348176	-2.6384511637	-1.0390464485	 0.134523
H	-1.3353285426	-2.648204467	 0.6920327476	 0.114977
52.6538	75.7003	148.0029	183.6589	259.899	322.6608	331.903	346.9196	378.8552	465.3421	477.9839	546.3683	617.1141	665.6583	718.3016	794.0187	901.6635	947.6775	958.8798	980.5684	993.7798	1062.8674	1080.2286	1107.4941	1150.8947	1180.7846	1206.3537	1253.0199	1282.9231	1318.8298	1387.8553	1412.2078	1476.8384	1479.6239	1502.9777	1813.6604	2243.7503	2889.9299	2971.4349	2982.8688	3036.8248	3071.0673	3081.1628	3506.0011	3818.1568
ON=C1CN(CC#C)C1	ON=C1CN(CC#C)C1	
InChI=1S/C6H8N2O/c1-2-3-8-4-6(5-8)7-9/h1,9H,3-5H2	InChI=1S/C6H8N2O/c1-2-3-8-4-6(5-8)7-9/h1,9H,3-5H2
