22
gdb 89631	4.02582	1.09295	1.01008	1.2305	86.67	-0.2099	0.0856	0.2955	1287.6862	0.194253	-367.152581	-367.143892	-367.142948	-367.185725	34.193	
C	-0.0561032064	 1.6519786053	 0.0158369304	-0.402293
C	 0.0611506008	 0.131893413	-0.0008029444	 0.041888
C	 1.1492212033	-0.5325433272	-0.917532193	-0.311273
C	 1.7150180385	-1.2628338186	 0.3020814097	 0.394526
C	 2.1515874135	-0.2778150994	 1.3333588022	-0.321704
C	 0.6698398041	-0.579465286	 1.2174225127	-0.14022
N	 2.2472304774	-2.5819535039	 0.2060406269	-0.154123
C	 2.1105083749	-3.4631941761	 1.3587054788	-0.229835
C	 1.2942808318	-3.6893974188	 0.133932915	-0.228683
H	 0.9011240844	 2.12938643	 0.2495002522	 0.114463
H	-0.3854702279	 2.0311537427	-0.9580363502	 0.112036
H	-0.783623209	 1.9822685389	 0.7656044923	 0.111939
H	-0.9174910316	-0.3019250693	-0.2307815305	 0.070236
H	 0.7170093375	-1.2103723398	-1.6574351197	 0.101898
H	 1.8440484863	 0.1445616443	-1.4260932233	 0.093376
H	 2.6258668583	-0.7161404555	 2.206670296	 0.109567
H	 2.5618424731	 0.690680091	 1.0534017155	 0.101817
H	 0.1103026068	-0.9553635848	 2.0670531848	 0.077814
H	 2.9701024642	-4.08992417	 1.5775723155	 0.117195
H	 1.5844933753	-3.0860757812	 2.2338280448	 0.113249
H	 0.2343615194	-3.451716515	 0.2007647351	 0.112073
H	 1.5481952053	-4.4845092894	-0.5607038107	 0.116054
91.2861	119.941	168.8517	216.8869	223.2907	286.76	391.5727	449.0245	484.851	508.7704	560.5047	670.7509	780.176	815.7904	847.7526	851.0952	886.4845	901.3018	925.3039	959.0481	972.8125	998.3425	1014.0512	1033.7068	1078.6008	1089.9214	1103.7073	1116.0209	1122.18	1124.02	1170.1156	1175.1572	1187.6082	1224.5952	1242.5641	1251.6578	1292.3357	1325.1705	1369.8779	1402.0694	1416.2173	1479.4951	1486.318	1494.5117	1496.3702	1508.0432	1514.7479	3026.496	3042.5206	3044.1513	3090.8194	3095.1727	3098.3442	3099.876	3102.1269	3106.2691	3165.9575	3181.1038	3188.5933	3196.1142
CC1CC2(CC12)N1CC1	C[C@H]1C[C@]2(C[C@@H]12)N1CC1	
InChI=1S/C8H13N/c1-6-4-8(5-7(6)8)9-2-3-9/h6-7H,2-5H2,1H3	InChI=1S/C8H13N/c1-6-4-8(5-7(6)8)9-2-3-9/h6-7H,2-5H2,1H3/t6-,7-,8+/m0/s1
