14
gdb 11581	6.2566	0.83236	0.7752	2.38	71.02	-0.2627	-0.0582	0.2045	1416.3863	0.104341	-382.500217	-382.491686	-382.490742	-382.534957	28.427	
C	-1.0693725826	 0.7598992711	 0.1437534932	-0.478484
C	 0.3416537252	 0.2495084807	-0.0600081217	 0.24651
O	 1.2542080747	 0.4946515752	 0.6995332715	-0.273157
C	 0.5432245708	-0.5671330588	-1.2439197617	 0.080449
C	 0.7071097058	-1.2471230413	-2.228671698	 0.072092
C	 0.9462760729	-2.0442117501	-3.39730951	-0.12202
C	 0.2241249178	-3.3165368009	-3.6169815522	-0.156578
O	-0.1184570283	-2.1550554273	-4.3553471542	-0.207115
H	-1.3797783879	 1.3604117117	-0.7180740353	 0.151407
H	-1.7673756465	-0.0813117968	 0.2142120176	 0.147935
H	-1.1119493373	 1.3596072624	 1.0540103862	 0.145267
H	 1.9348735632	-1.9391588212	-3.8416004633	 0.131919
H	 0.7217184047	-4.1079341664	-4.1755097501	 0.129846
H	-0.5076179024	-3.6409552983	-2.880009422	 0.131929
35.1009	78.0595	99.6858	122.213	204.8064	259.8107	358.8182	522.1645	539.7062	586.187	607.04	681.0411	832.4323	862.8367	948.2543	984.7949	1043.0718	1066.5479	1101.8737	1155.8249	1165.4089	1237.8685	1284.7328	1381.7108	1399.8763	1460.0415	1467.9952	1518.5552	1768.7708	2326.0055	3040.1347	3090.39	3104.5203	3125.4201	3153.1437	3185.5674
CC(=O)C#CC1CO1	CC(=O)C#C[C@H]1CO1	
InChI=1S/C6H6O2/c1-5(7)2-3-6-4-8-6/h6H,4H2,1H3	InChI=1S/C6H6O2/c1-5(7)2-3-6-4-8-6/h6H,4H2,1H3/t6-/m0/s1
