18
gdb 74836	2.42091	1.62091	1.09339	2.8646	78.76	-0.2255	-0.0182	0.2072	1125.4279	0.148451	-401.961001	-401.953029	-401.952085	-401.99346	30.928	
C	 0.0837602304	 1.5366252598	 0.0104205258	-0.475166
C	-0.0311310978	 0.040628227	-0.0519331771	 0.287662
C	-0.0109223671	-0.6450617034	-1.1981279709	-0.116992
C	-0.0584524407	-2.1286677391	-1.2368514245	-0.081097
N	 0.9523668423	-2.8327193661	-0.4259413621	-0.336185
C	-0.4649282199	-2.8692561795	 0.0051555657	-0.149891
C	-0.8205851319	-2.0407329133	 1.1947245383	 0.430057
O	-1.6363273777	-2.412470195	 2.0089425219	-0.326242
C	-0.1418610152	-0.6790793596	 1.2799922459	-0.418018
H	 0.9608936031	 1.8391247534	 0.5970647936	 0.130366
H	 0.1735410389	 1.976862701	-0.9859900343	 0.123822
H	-0.7892428114	 1.9785868993	 0.5070575219	 0.129939
H	 0.0770637102	-0.1243109569	-2.1473659717	 0.086218
H	-0.3435345022	-2.5822481626	-2.1822662479	 0.096704
H	 1.1801030341	-3.7283907175	-0.851756461	 0.241215
H	-1.0246710067	-3.7947757588	-0.0864975111	 0.101006
H	 0.8703946171	-0.8402321012	 1.6798720092	 0.151863
H	-0.6844715754	-0.0825919776	 2.0188589782	 0.124738
96.3529	141.2912	202.6936	241.8689	313.8112	391.1025	443.8216	448.4263	470.2695	570.3545	598.8391	679.3705	790.5672	809.1656	822.836	879.8901	919.2381	926.4066	951.2505	987.7519	1021.5386	1061.3604	1088.0841	1138.9864	1151.3916	1181.4416	1205.1689	1233.1522	1261.8718	1314.6509	1362.4001	1390.1713	1413.3367	1432.2229	1442.8843	1478.1984	1489.3453	1731.8069	1805.2915	3010.3271	3017.5877	3064.2928	3090.7134	3114.9573	3143.5425	3166.3032	3169.7019	3496.396
CC1=CC2NC2C(=O)C1	CC1=C[C@H]2N[C@H]2C(=O)C1	
InChI=1S/C7H9NO/c1-4-2-5-7(8-5)6(9)3-4/h2,5,7-8H,3H2,1H3	InChI=1S/C7H9NO/c1-4-2-5-7(8-5)6(9)3-4/h2,5,7-8H,3H2,1H3/t5-,7-/m1/s1
