19
gdb 57498	4.2925	0.67582	0.66466	2.3359	94.02	-0.2372	-0.0081	0.2291	1752.1984	0.154521	-385.845831	-385.835133	-385.834189	-385.881436	39.389	
C	-0.0277321837	 1.5761644151	 0.1438076653	-0.417376
C	 0.0008400514	 0.0462521175	 0.0526095366	 0.343341
C	 0.7772967519	-0.5627320052	 1.2291990782	-0.410117
O	-1.3268589743	-0.4775279597	 0.0230789137	-0.451982
C	 0.6393425348	-0.4326078677	-1.2765260794	-0.390383
C	 0.0165533394	 0.1040389725	-2.4753811045	 0.383145
C	-0.4807326103	 0.5481319979	-3.485504822	-0.232299
C	-1.0448694448	 1.0484667088	-4.6182916147	 0.296729
C	-1.5429453033	 1.4933898331	-5.6246432434	-0.567494
H	 0.9827919523	 1.9967496235	 0.1180100051	 0.116323
H	-0.6017390007	 1.9968164902	-0.6848246897	 0.142883
H	-0.4919808266	 1.8905569769	 1.0858871255	 0.103918
H	 0.3119843697	-0.2752861689	 2.1784638945	 0.105924
H	 0.7709520548	-1.6546537006	 1.1660297623	 0.123429
H	 1.8160747541	-0.2173050067	 1.2504379654	 0.11457
H	-1.7997368716	-0.1290075904	 0.7860597893	 0.278365
H	 1.7051809269	-0.1725937823	-1.2700246455	 0.131308
H	 0.5791735115	-1.527769226	-1.297123025	 0.142529
H	-1.9834286316	 1.8823394321	-6.5086075818	 0.187187
54.9535	70.1049	156.5795	198.7912	227.7426	239.2399	264.8401	295.0813	330.1675	357.1771	383.9075	397.0408	448.6905	514.6327	527.3996	541.8756	587.0712	593.8852	756.1987	766.3656	882.4978	916.3304	928.286	983.2834	1019.3943	1144.4192	1169.6237	1179.2703	1198.2845	1289.4574	1339.761	1372.2775	1396.9184	1416.0922	1451.4159	1480.4226	1484.9835	1499.4272	1507.781	2181.5449	2363.8324	3024.4389	3028.4314	3034.8787	3063.3641	3093.2516	3101.0885	3115.056	3131.0571	3506.6733	3811.4881
CC(C)(O)CC#CC#C	CC(C)(O)CC#CC#C	
InChI=1S/C8H10O/c1-4-5-6-7-8(2,3)9/h1,9H,7H2,2-3H3	InChI=1S/C8H10O/c1-4-5-6-7-8(2,3)9/h1,9H,7H2,2-3H3
