20
gdb 115934	3.62023	1.1366	0.95282	3.4642	74.85	-0.2475	0.0651	0.3126	1253.9067	0.173238	-440.25885	-440.250693	-440.249749	-440.291665	31.846	
O	 0.0668520973	 1.3938562571	 0.1825539494	-0.427699
C	 0.0539898355	-0.0131190481	 0.0645976114	-0.070155
C	-1.3684712563	-0.5527476261	-0.0283768797	 0.10492
C	-1.439649755	-2.0788098244	-0.1538197016	-0.220285
C	-2.8398659728	-2.59593038	 0.150766487	-0.045547
N	-3.1760577929	-2.7431790662	 1.5806140278	-0.322106
C	-3.8331977346	-1.6924968642	 0.79468599	-0.038256
C	-3.4266688331	-0.2685966597	 1.1129277348	-0.084876
O	-2.0225445375	-0.1041065441	 1.1582060174	-0.267536
H	-0.5650349426	 1.5948937257	 0.8837581924	 0.287731
H	 0.6093076064	-0.2699979069	-0.8437379622	 0.10425
H	 0.557618672	-0.4963104609	 0.9178126931	 0.093219
H	-1.8644297324	-0.0876341016	-0.8976659663	 0.067765
H	-1.1479988608	-2.3671447678	-1.1697308602	 0.099377
H	-0.7296950347	-2.5426987893	 0.5398138741	 0.115666
H	-3.2244070098	-3.354101816	-0.5269795699	 0.085985
H	-3.8090718966	-3.5275353004	 1.7121580755	 0.230316
H	-4.8837532237	-1.8153713801	 0.5372891347	 0.084651
H	-3.8659444606	 0.4032881069	 0.3551950066	 0.088771
H	-3.8020611178	 0.0320842359	 2.0965491056	 0.11381
82.9722	131.3092	191.6192	246.0897	339.286	343.3133	414.0063	458.7495	470.8559	515.1017	546.6127	738.2062	785.2423	789.6662	835.288	889.2366	906.2118	959.2809	984.9842	1034.4945	1069.8249	1083.8374	1094.9807	1109.0278	1115.2644	1146.9994	1171.223	1208.7878	1221.6074	1249.0533	1266.3928	1290.214	1310.8108	1366.144	1382.7526	1392.7417	1405.8837	1417.7954	1443.9889	1463.9125	1470.7727	1489.0356	1498.9802	2955.3141	2960.4648	2978.529	3037.3126	3072.9001	3074.1329	3083.9411	3121.1433	3134.7861	3504.0281	3787.3832
OCC1CC2NC2CO1	OC[C@H]1C[C@H]2N[C@H]2CO1	
InChI=1S/C6H11NO2/c8-2-4-1-5-6(7-5)3-9-4/h4-8H,1-3H2	InChI=1S/C6H11NO2/c8-2-4-1-5-6(7-5)3-9-4/h4-8H,1-3H2/t4-,5-,6+/m1/s1
