20
gdb 7141	6.44101	0.81201	0.75562	3.5388	74.87	-0.2361	0.0688	0.3049	1577.6554	0.176173	-382.36963	-382.35938	-382.358436	-382.406727	35.103	
C	-0.3021558249	 1.4044870054	-0.0082225378	-0.377536
C	 0.475884381	 0.09574987	 0.1132033114	-0.124114
N	 0.8215322965	-0.4486844229	-1.1913687914	-0.372309
C	 0.8187110789	-1.8139629554	-1.4093878158	 0.505117
O	 0.3731407289	-2.6172787542	-0.6063750571	-0.40981
N	 1.3683660007	-2.1831587035	-2.6230802837	-0.372291
C	 1.2568421078	-3.5524082851	-3.1031725735	-0.124191
C	 2.5159047678	-3.9959202701	-3.8454522979	-0.377476
H	 0.2837947077	 2.1737052875	-0.5248224403	 0.106819
H	-1.2299315068	 1.2547866267	-0.5679709691	 0.125686
H	-0.5529370425	 1.7926723136	 0.9838410944	 0.118547
H	 1.3763393029	 0.2502561641	 0.726521969	 0.09748
H	-0.1185676038	-0.6718618112	 0.6118524456	 0.149851
H	 1.4456247974	 0.1064626717	-1.7566792804	 0.227915
H	 1.4497434134	-1.4669323011	-3.3285173237	 0.227925
H	 1.0825715213	-4.1681308446	-2.2189916787	 0.149876
H	 0.3768680878	-3.6712673941	-3.7530644254	 0.097477
H	 2.7058897548	-3.3688362906	-4.7244172106	 0.106813
H	 3.3924448793	-3.9373883808	-3.1937283709	 0.125687
H	 2.4096678618	-5.0278757853	-4.194105974	 0.118533
26.42	27.7838	88.2796	116.1611	163.1211	228.6854	271.6207	313.4131	339.6612	371.7229	389.5703	496.2068	518.6754	731.7755	762.9363	794.5057	815.8598	896.012	928.6617	998.5337	1073.2776	1109.8578	1120.6275	1154.5178	1168.4693	1199.9663	1234.1836	1299.4733	1301.477	1384.2588	1395.0213	1412.1417	1412.8658	1487.9374	1491.9163	1496.0817	1496.3466	1509.3354	1514.7705	1515.6197	1552.9461	1780.847	2990.9377	2991.6507	3031.3263	3031.5693	3092.3588	3092.4224	3116.7958	3116.8791	3127.3926	3127.7482	3607.2165	3613.2113
CCNC(=O)NCC	CCNC(=O)NCC	
InChI=1S/C5H12N2O/c1-3-6-5(8)7-4-2/h3-4H2,1-2H3,(H2,6,7,8)	InChI=1S/C5H12N2O/c1-3-6-5(8)7-4-2/h3-4H2,1-2H3,(H2,6,7,8)
