20
gdb 109955	2.30962	1.46939	1.08036	2.4658	75.78	-0.2429	0.0578	0.3008	1185.3077	0.170065	-440.22827	-440.219026	-440.218081	-440.262535	34.452	
C	 0.2957188789	 1.493843147	-0.1823230669	-0.250198
O	-0.1517804011	 0.1632617303	-0.3979070226	-0.250316
C	 0.6859143603	-0.5797825468	-1.2480363272	 0.007402
C	 1.9321646036	-1.2554161893	-0.566017708	 0.106959
O	 1.8199290904	-1.2584969405	 0.8377108037	-0.444774
C	 1.5386904218	-2.5971941459	-1.2578680238	-0.326093
C	 0.1732634428	-1.9810235523	-1.579984622	 0.322242
C	-1.1779098669	-2.4817034879	-1.2462696873	-0.296164
N	-0.7295480751	-2.3805127669	-2.6504679136	-0.37913
H	 1.2743290345	 1.5137977064	 0.3137126757	 0.130639
H	 0.3649786454	 2.045793829	-1.1306081329	 0.114529
H	-0.4420050334	 1.9797167274	 0.4600618982	 0.132871
H	 0.9551005208	 0.0034351062	-2.1417598939	 0.070792
H	 2.9145136821	-0.854930064	-0.8305074572	 0.076354
H	 0.9146034485	-0.9870329405	 1.0417052222	 0.289198
H	 2.1290615972	-2.8095684027	-2.1540675259	 0.106944
H	 1.5465822857	-3.4682834123	-0.5999018578	 0.114058
H	-1.2995556284	-3.4971196805	-0.8784440934	 0.119739
H	-1.9014688884	-1.762369783	-0.8740321588	 0.124884
H	-1.1427900088	-1.5585114138	-3.0863196881	 0.230067
55.7304	96.1291	162.977	187.5685	251.8637	274.1012	299.3339	344.2937	389.251	414.1917	498.9749	528.6615	681.4366	793.2605	819.6384	841.341	893.3385	923.348	954.806	977.7553	1006.7311	1035.8657	1054.2977	1100.9858	1123.3819	1141.9889	1160.4364	1167.5861	1182.316	1229.8005	1246.5848	1264.297	1269.9925	1299.7686	1335.0925	1374.7152	1411.8719	1433.4281	1470.2541	1479.6563	1488.4379	1507.789	1511.7946	2986.9393	2998.1258	3058.0915	3060.5486	3071.2792	3110.1558	3123.8187	3124.1679	3200.5107	3484.7535	3746.4223
COC1C(O)CC11CN1	CO[C@H]1[C@@H](O)C[C@]21CN2	
InChI=1S/C6H11NO2/c1-9-5-4(8)2-6(5)3-7-6/h4-5,7-8H,2-3H2,1H3	InChI=1S/C6H11NO2/c1-9-5-4(8)2-6(5)3-7-6/h4-5,7-8H,2-3H2,1H3/t4-,5-,6+/m0/s1
