18
gdb 79974	3.01385	1.32005	1.17185	3.6382	80.46	-0.2114	-0.0101	0.2013	1113.897	0.148593	-401.970951	-401.962942	-401.961998	-402.003606	30.547	
C	-0.1059735287	 1.565338105	-0.0285098144	-0.417535
C	 0.0413685017	 0.0646232083	 0.0375547463	-0.035785
C	 1.3466965754	-0.6890816856	-0.2253698414	-0.125528
C	 2.6280723933	 0.052125057	-0.05997859	-0.164141
C	 2.7505251629	 0.4872073436	 1.2010263579	-0.022737
N	 1.663091154	 0.0747152903	 1.9888726198	-0.033122
C	 1.5474244905	 0.2903214366	 3.3351804975	 0.142121
O	 2.3466780636	 0.9057735869	 4.0064511333	-0.326614
C	 0.7226263429	-0.6611939803	 1.1718084256	-0.038835
H	 0.8112871418	 2.0785009274	 0.266994394	 0.134343
H	-0.3530273766	 1.8825552253	-1.0470392901	 0.120941
H	-0.9105409352	 1.9052855099	 0.6325621702	 0.120646
H	-0.825918761	-0.4823946866	-0.3245975431	 0.094512
H	 1.3114043454	-1.5703576305	-0.8566988638	 0.097362
H	 3.3476911277	 0.2165294486	-0.8483747588	 0.11141
H	 3.5156191085	 1.084820864	 1.6721774258	 0.155644
H	 0.6267940458	-0.1678162642	 3.7443081527	 0.077107
H	 0.255744498	-1.5158475058	 1.6475575885	 0.110211
78.0579	156.0928	214.9432	230.0284	234.4687	292.3146	446.2393	463.6825	545.6138	663.3086	701.6951	744.1116	766.0599	804.1624	816.1911	892.1327	921.3412	942.577	977.9549	1011.065	1025.0562	1046.7101	1087.9064	1106.1379	1116.3426	1131.2985	1216.3552	1265.9029	1297.4137	1325.7865	1356.4845	1396.3905	1423.7766	1436.6736	1450.5466	1495.8397	1499.2482	1651.3639	1792.6006	2951.3225	3037.948	3094.7903	3125.4669	3140.8844	3162.0304	3175.6303	3240.1507	3272.5186
CC1C2C=CN(C=O)C12	C[C@H]1[C@H]2C=CN(C=O)[C@@H]12	
InChI=1S/C7H9NO/c1-5-6-2-3-8(4-9)7(5)6/h2-7H,1H3	InChI=1S/C7H9NO/c1-5-6-2-3-8(4-9)7(5)6/h2-7H,1H3/t5-,6+,7-/m0/s1
