23
gdb 60603	2.56344	1.05578	0.90342	2.6842	86.48	-0.2345	-0.0062	0.2283	1429.7783	0.202751	-388.307911	-388.297032	-388.296088	-388.344522	39.268	
C	 0.8772694229	 0.055390688	 0.1520619271	-0.395262
C	 0.2663072181	-1.0528326136	 1.0193741154	-0.108325
C	-1.249274849	-1.1243761898	 0.846796342	 0.026858
C	-2.1636169456	-1.673664157	 1.9192283735	-0.311616
C	-2.2132962667	-0.2060641868	 1.569249468	-0.012793
C	-1.7741484567	 0.8440560253	 2.5665426265	-0.407672
C	 0.838082192	-2.4244414956	 0.6281620887	 0.398245
C	 1.0569191975	-3.422790409	 1.7486917593	-0.48604
O	 1.0785191551	-2.6960590445	-0.5262723416	-0.31387
H	 1.9581795875	 0.1300219429	 0.3077224762	 0.111687
H	 0.7099376475	-0.1632213623	-0.9052560109	 0.138841
H	 0.4279734192	 1.0234730144	 0.388474847	 0.113381
H	 0.4955949087	-0.8717190486	 2.0757506125	 0.06927
H	-1.529127419	-1.3697460373	-0.1750144325	 0.097787
H	-2.9843966208	-2.3206446247	 1.629275491	 0.113113
H	-1.7178493653	-1.9302731099	 2.8765005821	 0.105843
H	-3.0681096901	 0.0982351532	 0.9700741487	 0.086542
H	-0.9251079782	 0.5090968706	 3.1695657593	 0.116142
H	-1.4822165727	 1.7755059069	 2.0690749819	 0.120407
H	-2.5895921974	 1.0810709436	 3.2588847807	 0.11841
H	 1.8355921072	-3.0524603759	 2.4264495685	 0.137576
H	 0.1452674481	-3.5356703706	 2.3445995417	 0.142879
H	 1.3593569877	-4.3876809994	 1.3396169949	 0.138599
35.6654	65.2155	129.8498	146.9686	183.915	193.1782	202.7377	244.7883	276.3712	325.451	381.3977	421.3171	515.8684	584.0798	603.0025	760.6098	792.396	801.1799	854.2273	911.4237	934.0538	952.1174	989.6182	1022.2253	1031.1214	1068.0665	1088.3618	1111.7767	1116.0001	1152.8014	1172.4529	1194.2973	1198.9902	1247.406	1288.2011	1351.4501	1377.77	1385.5649	1402.5728	1412.5339	1425.4091	1462.416	1474.9627	1487.1668	1489.6193	1493.528	1497.0674	1505.7253	1808.8439	3029.7193	3033.3124	3039.9817	3045.2888	3088.2557	3097.6006	3102.5778	3112.2277	3118.9363	3129.4316	3132.4764	3140.6226	3150.3599	3204.6816
CC(C1CC1C)C(C)=O	C[C@@H]([C@H]1C[C@H]1C)C(=O)C	
InChI=1S/C8H14O/c1-5-4-8(5)6(2)7(3)9/h5-6,8H,4H2,1-3H3	InChI=1S/C8H14O/c1-5-4-8(5)6(2)7(3)9/h5-6,8H,4H2,1-3H3/t5-,6-,8+/m1/s1
