16
gdb 97215	2.43407	1.42654	1.03282	1.4006	73.28	-0.2563	0.0096	0.2659	1172.6878	0.122864	-437.848763	-437.839865	-437.838921	-437.883146	31.274	
C	-0.037173513	 1.4749388507	 0.1533745634	-0.337593
N	-0.0383987742	 0.0228057755	 0.2280086248	-0.312766
C	-1.0869090842	-0.6163667244	-0.0162702401	 0.427152
O	-2.3180042202	-0.1087179154	-0.3375630642	-0.245549
C	-3.2028326448	-1.2061894491	-0.5551964947	 0.015389
O	-2.6473397118	-2.3118445303	 0.1068782082	-0.231244
C	-1.231184091	-2.1395921967	 0.0159365069	-0.2055
C	-0.6634733064	-2.7750111943	-1.1740954035	 0.367625
C	-0.2161287966	-3.299521247	-2.1576544246	-0.469507
H	 0.6754286267	 1.789247828	-0.6174023195	 0.132381
H	-1.0147462807	 1.9168289445	-0.0692334099	 0.1253
H	 0.3265452235	 1.8775577872	 1.1047812648	 0.130151
H	-4.1762366186	-0.9787614383	-0.114549314	 0.134258
H	-3.2917236627	-1.3800208451	-1.6379469284	 0.115697
H	-0.7833781226	-2.5504692681	 0.9234578418	 0.145532
H	 0.1901689265	-3.764072887	-3.022346191	 0.208673
69.2099	81.1246	111.2862	163.1662	224.4737	238.466	278.636	411.3519	458.175	565.5168	638.3647	676.5982	682.2499	715.5671	749.0013	886.087	945.2626	999.7179	1018.5337	1052.3512	1092.935	1133.2975	1140.7983	1171.7481	1216.8852	1234.1396	1271.644	1336.4537	1431.9685	1439.5492	1494.3836	1496.851	1538.47	1828.7287	2238.3721	2997.0066	3020.9714	3085.0989	3093.4201	3094.235	3107.5954	3501.2954
CN=C1OCOC1C#C	CN=C1OCO[C@H]1C#C	
InChI=1S/C6H7NO2/c1-3-5-6(7-2)9-4-8-5/h1,5H,4H2,2H3	InChI=1S/C6H7NO2/c1-3-5-6(7-2)9-4-8-5/h1,5H,4H2,2H3/t5-/m0/s1
