18
gdb 38481	3.56796	1.70889	1.53667	2.734	75.2	-0.2238	0.0635	0.2873	906.4726	0.150444	-401.827017	-401.820849	-401.819905	-401.857128	26.713	
C	-0.0223603608	 1.5245243416	 0.1510353824	-0.192858
N	 1.4992331815	 1.3154848563	 0.1115252774	-0.1851
C	 1.1970830796	 0.0780312845	 0.9962216117	-0.249507
C	 0.0793016146	-0.0101081056	-0.0818934221	 0.274673
C	-0.9408774238	-0.9065688803	-0.7828989569	-0.399867
C	-0.7213878651	-0.4751166458	-2.2477551102	 0.062409
O	-0.8195306035	 0.9330239505	-2.4695852586	-0.240266
C	 0.4979881255	 0.3825286334	-2.4077067574	-0.039293
C	 1.1934198529	 0.3135900188	-1.0624171388	 0.034501
H	-0.3760828419	 1.8550661838	 1.1323123622	 0.089847
H	-0.4056054526	 2.1545457937	-0.6458744626	 0.135245
H	 1.9852033701	-0.67991594	 0.9849051204	 0.101987
H	 0.916485633	 0.3562559048	 2.0151656691	 0.103919
H	-0.7098731483	-1.9731364601	-0.6797277273	 0.110856
H	-1.9755086069	-0.7482011368	-0.4642807727	 0.118478
H	-1.101639396	-1.0927990008	-3.0585654892	 0.09979
H	 1.0562240094	 0.4219224881	-3.3397134323	 0.100492
H	 2.0150476022	-0.4069493459	-1.1579905352	 0.074694
258.3429	263.6012	377.9788	405.6467	425.6734	536.0971	609.3386	706.435	718.6017	775.8795	828.2111	836.4552	839.2798	882.9537	895.3495	913.4198	938.2099	970.6061	1006.4148	1024.8233	1051.7658	1086.3269	1089.1181	1098.0357	1146.9201	1169.7205	1178.3415	1192.0359	1228.4337	1231.8257	1250.4882	1281.4425	1292.1257	1334.5284	1369.7263	1410.3412	1467.251	1513.382	1554.7336	3030.0739	3044.3261	3051.7203	3060.7562	3095.3717	3122.6281	3136.7889	3150.0432	3185.8452
C1N2CC11CC3OC3C21	C1N2C[C@]31C[C@H]1O[C@H]1[C@@H]23	
InChI=1S/C7H9NO/c1-4-5(9-4)6-7(1)2-8(6)3-7/h4-6H,1-3H2	InChI=1S/C7H9NO/c1-4-5(9-4)6-7(1)2-8(6)3-7/h4-6H,1-3H2/t4-,5-,6-/m1/s1
