21
gdb 29771	2.36533	1.50291	0.93957	1.3242	88.37	-0.1841	0.0562	0.2403	1294.8053	0.181657	-383.312096	-383.301373	-383.300429	-383.348407	37.776	
C	-0.0462207863	 1.4588114751	 0.0265314446	-0.334167
N	-0.0014088527	 0.0143339996	 0.0343566447	-0.053049
C	 0.0044131917	-0.7868309114	-1.0860491913	-0.219061
C	 0.0456509913	-2.1032629445	-0.6934419509	 0.230751
C	 0.0699394229	-3.3116872821	-1.5776921537	-0.50601
C	 0.0615893509	-2.0943497617	 0.7386495163	-0.012409
N	 0.101329286	-3.2092265039	 1.6334515476	-0.605998
C	 0.0286367683	-0.7792054991	 1.1603668603	 0.311181
C	 0.0230361409	-0.2334119703	 2.5468959088	-0.509658
H	 0.8201439313	 1.8886895001	 0.541514973	 0.133962
H	-0.0385491838	 1.8075471701	-1.0078532733	 0.136592
H	-0.9540198648	 1.8367240082	 0.5107372298	 0.133787
H	-0.0200724772	-0.3477173793	-2.0719420268	 0.105679
H	 0.9565900964	-3.9334320108	-1.3993000501	 0.113755
H	-0.8028215571	-3.9584016494	-1.4186092118	 0.114179
H	 0.0757070143	-3.0280615288	-2.6342242518	 0.117652
H	-0.6038342527	-3.8967790017	 1.383907058	 0.229034
H	 0.9943918106	-3.6918838439	 1.5779199927	 0.229775
H	 0.9118005215	 0.3720030273	 2.7693670105	 0.116278
H	-0.8533312912	 0.3963042691	 2.7482439014	 0.116413
H	 0.0040643498	-1.0752798025	 3.2423287519	 0.151315
44.1277	62.9693	114.8131	144.063	165.4336	202.927	238.7501	262.7161	291.0887	293.3043	309.3196	545.2651	566.6299	600.9022	622.0127	679.6888	700.0835	727.1951	824.5325	885.4441	1004.365	1045.0481	1059.8208	1065.1086	1074.317	1149.1441	1161.6967	1210.8649	1217.4235	1250.2169	1378.6933	1405.1428	1409.9875	1426.4645	1449.6641	1472.5006	1478.6851	1483.1183	1488.3815	1493.6652	1503.4154	1520.4428	1580.3378	1619.1631	1671.6316	3007.8074	3011.2617	3025.0353	3048.2625	3051.7172	3076.0542	3100.5506	3128.9207	3131.4111	3241.9005	3476.081	3538.8265
CN1C=C(C)C(N)=C1C	Cn1cc(C)c(N)c1C	
InChI=1S/C7H12N2/c1-5-4-9(3)6(2)7(5)8/h4H,8H2,1-3H3	InChI=1S/C7H12N2/c1-5-4-9(3)6(2)7(5)8/h4H,8H2,1-3H3
