21
gdb 112798	2.17427	1.26782	0.89047	3.9459	80.08	-0.2394	-0.0163	0.223	1369.4094	0.180195	-424.215546	-424.205537	-424.204593	-424.251128	35.799	
C	 0.3816028587	 1.7937732143	 0.5536786037	-0.241881
O	 0.8755106337	 0.5496283929	 0.1072982622	-0.242542
C	 0.7033396808	-0.48429371	 1.0375412704	 0.155354
C	-0.7058242728	-1.1060682793	 1.2362805291	-0.28433
C	-0.0267418855	-2.5028429786	 1.2438293961	 0.028414
C	-0.729679247	-3.6871377806	 0.5948561501	-0.414305
C	 1.2422553459	-1.8599164735	 0.5596481009	-0.177373
C	 1.2548572554	-2.0013612811	-0.9424039022	 0.184923
O	 2.144172925	-2.5358420317	-1.5561296324	-0.265155
H	 0.8774766832	 2.1137685929	 1.4833977498	 0.107686
H	 0.5906417093	 2.5258225008	-0.2294373163	 0.13308
H	-0.7033505534	 1.7652136977	 0.7328937465	 0.110873
H	 1.1509460567	-0.2095357488	 2.005327386	 0.073737
H	-1.2876148207	-0.8133735052	 2.1132109511	 0.099937
H	-1.3155446105	-0.9628173605	 0.3380153228	 0.109929
H	 0.2526647994	-2.7672371001	 2.2688137889	 0.087068
H	-1.0634180013	-3.4589249791	-0.4223331489	 0.120301
H	-0.0692751239	-4.5590413541	 0.5411418186	 0.129107
H	-1.6136910424	-3.972568804	 1.1752660605	 0.118852
H	 2.2159298437	-2.1755018437	 0.9380088247	 0.087038
H	 0.3698558458	-1.5876144783	-1.4714311016	 0.079286
59.1103	80.0177	96.8023	145.9244	196.1461	221.6885	253.6409	310.5038	324.0281	419.0962	443.2461	474.6041	499.258	661.662	764.2936	871.765	882.4943	930.8708	965.655	996.9812	1007.664	1042.7548	1100.3681	1126.118	1143.5831	1160.3217	1174.3108	1184.6218	1220.4316	1246.5016	1256.2385	1270.3547	1279.5512	1329.6852	1361.2458	1397.5791	1416.1245	1441.5323	1480.5488	1486.5327	1492.0561	1495.1163	1500.2239	1508.8388	1823.6921	2897.2255	2974.7986	2982.1268	3027.5954	3032.67	3046.642	3053.0312	3098.6298	3101.2959	3104.9036	3112.6449	3121.1461
COC1CC(C)C1C=O	CO[C@H]1C[C@@H](C)[C@H]1C=O	
InChI=1S/C7H12O2/c1-5-3-7(9-2)6(5)4-8/h4-7H,3H2,1-2H3	InChI=1S/C7H12O2/c1-5-3-7(9-2)6(5)4-8/h4-7H,3H2,1-2H3/t5-,6-,7+/m1/s1
