16
gdb 109421	2.14608	1.848	1.07432	1.0189	72.12	-0.2679	-0.0922	0.1757	1096.0569	0.124748	-437.968493	-437.960161	-437.959217	-438.002446	29.981	
C	 0.0148615025	 1.5656898774	 0.0095521807	-0.383525
C	-0.0253426635	 0.0366418226	 0.0028858383	-0.157614
N	-1.3821526072	-0.4928342059	 0.0128438757	-0.162798
C	-2.1120573386	-0.781398249	 1.166131672	 0.407985
O	-1.722729633	-0.6409965153	 2.3005227929	-0.351218
C	-3.4439564978	-1.2952866586	 0.6944045219	-0.184953
C	-3.4550248266	-1.292039835	-0.6382823792	-0.185003
C	-2.1311364521	-0.7758010169	-1.1295727844	 0.407996
O	-1.7607321419	-0.6299107337	-2.2695876448	-0.351168
H	 1.0525150721	 1.9127593263	 0.0016545495	 0.12355
H	-0.4878754773	 1.9703093124	-0.8732440666	 0.135818
H	-0.4715830934	 1.9620803655	 0.9051064615	 0.135962
H	 0.4635521422	-0.3575497809	-0.8916486688	 0.135872
H	 0.4801046629	-0.3656245193	 0.884549662	 0.135777
H	-4.2133288132	-1.5993537437	 1.3895967303	 0.146659
H	-4.2358430152	-1.5927524157	-1.3220784511	 0.146659
32.9096	111.9147	144.214	204.7869	293.7554	301.44	345.5292	433.893	566.7629	606.7497	645.3063	702.3438	718.9614	775.8679	788.3442	854.3667	954.5355	969.7416	985.0876	1052.3275	1103.6178	1113.7455	1146.3997	1236.8998	1320.2764	1374.9262	1388.5258	1408.9343	1429.5013	1474.368	1493.8494	1503.0848	1646.9341	1798.8479	1852.7728	3045.1526	3069.3886	3111.6526	3119.5269	3135.1144	3236.5792	3259.1472
CCN1C(=O)C=CC1=O	CCN1C(=O)C=CC1=O	
InChI=1S/C6H7NO2/c1-2-7-5(8)3-4-6(7)9/h3-4H,2H2,1H3	InChI=1S/C6H7NO2/c1-2-7-5(8)3-4-6(7)9/h3-4H,2H2,1H3
