17
gdb 35259	3.13238	1.13115	0.92771	3.1903	73.56	-0.2547	0.0037	0.2584	1244.0443	0.136032	-417.956001	-417.947624	-417.94668	-417.990297	29.822	
N	-0.3776281854	-1.1548134438	 0.3162200275	-0.3332
C	-0.2315750652	-0.0133661373	 0.1970226736	 0.286039
C	-0.0490358124	 1.405894998	 0.0095507307	-0.143779
C	 0.5365848749	 2.2172190572	 1.1272097001	-0.243379
N	 1.3000160105	 1.9880350903	-0.0864342326	-0.082354
C	 2.4421815028	 1.0917605474	 0.002384837	-0.007233
C	 2.9962520805	 0.610230439	-1.3540010564	-0.081756
O	 4.2691756905	 1.2422991923	-1.1061394278	-0.268761
C	 3.7999382912	 1.8138392483	 0.1300923293	-0.086133
H	-0.7817633236	 1.8593246504	-0.6514744918	 0.145259
H	 0.1770965218	 3.2294926428	 1.285219672	 0.139155
H	 0.8193846885	 1.6743424505	 2.0270792854	 0.138614
H	 2.2941928745	 0.2857317008	 0.7324766516	 0.095685
H	 3.0895201367	-0.4737012717	-1.4797608676	 0.116067
H	 2.4797568745	 1.0407902535	-2.2202962982	 0.109927
H	 3.7248550724	 2.9071470901	 0.0832470734	 0.109859
H	 4.424481068	 1.5230389523	 0.9826096538	 0.105989
52.5823	64.5637	117.5198	177.3288	244.6179	310.3613	369.8993	443.0197	557.7284	631.4328	699.9578	790.6551	841.9902	885.1594	901.3192	944.5131	995.9172	1015.7598	1042.0265	1062.9129	1085.7458	1108.8793	1123.1841	1141.7695	1160.9116	1163.7798	1192.4596	1266.5143	1310.9525	1320.1614	1358.5535	1367.3127	1406.9561	1501.9226	1502.6865	1528.3793	2350.3054	3015.5384	3018.3018	3029.2032	3068.8851	3079.1961	3104.9866	3155.6142	3199.8348
N#CC1CN1C1COC1	N#C[C@H]1CN1C1COC1	
InChI=1S/C6H8N2O/c7-1-5-2-8(5)6-3-9-4-6/h5-6H,2-4H2	InChI=1S/C6H8N2O/c7-1-5-2-8(5)6-3-9-4-6/h5-6H,2-4H2/t5-,8?/m0/s1
