17
gdb 35939	2.39321	1.49749	1.27227	4.0372	73.18	-0.2569	0.0044	0.2612	1053.6092	0.138149	-418.025195	-418.017176	-418.016232	-418.058209	29.514	
N	-0.3384044199	-1.1834665366	-0.2248870489	-0.325974
C	-0.1802143302	-0.0422796178	-0.1304900148	 0.276021
C	 0.0042780806	 1.4080085134	-0.0025721726	-0.172682
C	-0.6664273571	 1.9419668186	 1.2769278127	-0.228889
C	-0.1647403884	 1.2757373798	 2.5500823541	-0.077182
O	 1.1639822463	 1.6192216905	 2.9529877762	-0.225331
C	 2.2440865523	 1.3748626665	 2.1645313635	 0.130795
N	 2.4276853626	 1.3900183076	 0.9181766774	-0.240965
C	 1.4980630779	 1.8047698732	-0.1049581204	-0.160306
H	-0.4922523315	 1.8633158533	-0.8690471581	 0.131491
H	-0.5066378694	 3.0245823812	 1.3317099273	 0.119198
H	-1.7473070639	 1.7727617297	 1.2194916048	 0.126425
H	-0.7855628508	 1.5779460974	 3.3964537393	 0.125895
H	-0.2306719585	 0.1848568137	 2.4517445606	 0.141776
H	 3.0995826704	 1.1751842	 2.8111454653	 0.126688
H	 1.879237042	 1.4385908194	-1.063426042	 0.130178
H	 1.5258075776	 2.9027809502	-0.1606799143	 0.122863
83.9114	88.1668	169.561	225.0076	320.7864	350.2425	380.505	461.3531	482.386	591.8629	669.6323	752.1223	786.1723	841.8803	889.5507	943.1145	953.3374	987.0316	1012.2622	1058.4202	1100.3575	1122.0379	1161.7952	1239.3852	1261.9447	1276.7205	1331.1669	1352.5505	1379.8082	1400.7413	1427.5178	1439.8993	1469.3823	1485.4417	1501.2707	1767.223	2353.9556	3006.4174	3031.396	3036.8356	3045.3811	3070.5629	3090.0669	3108.9536	3132.3687
N#CC1CCOC=NC1	N#C[C@H]1CCOC=NC1	
InChI=1S/C6H8N2O/c7-3-6-1-2-9-5-8-4-6/h5-6H,1-2,4H2	InChI=1S/C6H8N2O/c7-3-6-1-2-9-5-8-4-6/h5-6H,1-2,4H2/t6-/m1/s1
