19
gdb 114288	2.30747	1.4578	1.09584	3.0891	79.45	-0.2526	0.0087	0.2612	1174.6348	0.159667	-382.038664	-382.029993	-382.029049	-382.072175	32.365	
C	-1.6812260149	 0.055157231	 0.5309413612	-0.383665
C	-0.2097054319	 0.3375377676	 0.2044578633	-0.218335
C	 0.7237043303	-0.4042399257	 1.1468204278	 0.081982
C	 0.9476596678	-1.9450177818	 1.0806986341	-0.299705
C	 2.4394191809	-1.6205559658	 1.0684938555	-0.025121
C	 2.8123228771	-0.8106737399	-0.1172338211	-0.152195
C	 2.1901724679	-0.9922568784	-1.4048165892	 0.307095
N	 1.7384974543	-1.1599435987	-2.4570292947	-0.350921
N	 2.2155454487	-0.1253635884	 1.0620933075	-0.169898
H	-1.9265214757	 0.3472138279	 1.5581551251	 0.115238
H	-2.3428344403	 0.608739983	-0.1410278595	 0.122881
H	-1.9162395658	-1.0092705405	 0.4219620465	 0.121885
H	-0.009313748	 0.0736989846	-0.8363164835	 0.137002
H	-0.0032898961	 1.4105998259	 0.3045894983	 0.11119
H	 0.4651571167	-0.1306184297	 2.1750659785	 0.096675
H	 0.6139602815	-2.477081176	 1.9719293709	 0.118675
H	 0.578098105	-2.4680673815	 0.1943100683	 0.131233
H	 3.203596037	-2.0841847716	 1.6839199449	 0.11181
H	 3.8631244155	-0.5468243521	-0.201676684	 0.144174
81.4694	130.4611	137.4475	182.3658	215.5621	284.5434	353.6036	411.8235	447.3534	566.5423	593.9107	735.1117	756.1829	772.4442	792.9951	849.4357	907.7558	921.2967	973.2836	997.752	1005.3513	1059.5165	1061.7943	1082.8662	1135.8564	1145.7435	1204.5977	1228.2858	1265.8553	1284.2184	1303.0999	1328.6921	1355.65	1395.4389	1408.5778	1417.8257	1487.4233	1494.2914	1500.3045	1507.9675	2345.0408	3031.6543	3037.5762	3047.5894	3067.6239	3090.0261	3110.435	3118.7234	3131.6276	3151.7924	3168.8644
CCC1CC2C(C#N)N12	CC[C@H]1C[C@H]2[C@@H](C#N)N12	
InChI=1S/C7H10N2/c1-2-5-3-6-7(4-8)9(5)6/h5-7H,2-3H2,1H3	InChI=1S/C7H10N2/c1-2-5-3-6-7(4-8)9(5)6/h5-7H,2-3H2,1H3/t5-,6-,7+,9?/m0/s1
