17
gdb 82728	2.85313	1.93578	1.43728	4.8173	71.45	-0.237	0.0223	0.2593	926.1726	0.137914	-417.998898	-417.991742	-417.990798	-418.030421	27.858	
C	-0.0939321466	 1.4033621953	-0.0293261562	-0.34694
N	-0.038668348	-0.0150330532	 0.2569312414	-0.067179
C	-1.1824484356	-0.8941827448	 0.0723230878	-0.052375
C	-1.20388377	-1.4418147432	-1.3999596716	-0.260622
C	-0.3239389749	-2.5970294891	-0.9044063423	-0.048444
C	-0.6129855468	-2.2659335245	 0.5166732773	-0.047491
N	 0.7607990323	-2.1531417276	 0.0325204663	-0.172912
C	 1.103697105	-0.7450524599	-0.0234572056	 0.416493
O	 2.2026303824	-0.3124757507	-0.2558152213	-0.376523
H	 0.9253799837	 1.7898530873	 0.0181946404	 0.165908
H	-0.499022359	 1.6082201778	-1.0305688588	 0.120174
H	-0.7143722392	 1.9200593006	 0.7094703736	 0.125901
H	-2.1019072899	-0.5014938693	 0.5018243866	 0.092326
H	-2.19166104	-1.8185817177	-1.6779477813	 0.117057
H	-0.8222649487	-0.7817753998	-2.1849864862	 0.112673
H	-0.1636733028	-3.5539163992	-1.3844101844	 0.113602
H	-0.8415394019	-2.8649774919	 1.3892447145	 0.108351
142.0941	148.91	168.7724	289.5257	366.8307	458.3374	490.8654	602.7411	682.9053	698.9503	794.2255	834.6022	854.4887	866.1587	877.2116	924.2637	949.6391	988.0435	1017.9809	1042.6744	1064.1311	1096.9054	1137.8613	1156.2102	1164.5197	1211.762	1231.2991	1262.5155	1266.1243	1295.4286	1342.6755	1397.2122	1449.2182	1480.7944	1491.8066	1513.4411	1852.3175	3004.2205	3050.9708	3077.1794	3111.2683	3138.4709	3145.2693	3190.8102	3205.8231
CN1C2CC3C2N3C1=O	CN1[C@H]2C[C@@H]3[C@H]2N3C1=O	
InChI=1S/C6H8N2O/c1-7-3-2-4-5(3)8(4)6(7)9/h3-5H,2H2,1H3	InChI=1S/C6H8N2O/c1-7-3-2-4-5(3)8(4)6(7)9/h3-5H,2H2,1H3/t3-,4+,5-,8?/m0/s1
