21
gdb 121556	5.4215	0.41264	0.40183	2.8596	90.46	-0.2445	-0.026	0.2185	2723.0866	0.179097	-387.083726	-387.072497	-387.071553	-387.123653	37.765	
C	-0.3860958416	 1.5499570386	 0.2686992012	-0.38584
C	-0.0364319742	 0.0764160788	 0.0446739968	-0.161926
C	 0.7612989941	-0.5297536811	 1.2027284533	-0.151042
C	 1.1136516368	-2.0130919365	 0.9699729875	-0.357938
C	 1.8675130961	-2.6042115856	 2.0700892576	 0.03869
C	 2.5018864927	-3.0545546719	 2.9898150027	 0.087018
C	 3.2138529928	-3.6401564343	 4.116670872	-0.413826
C	 2.3555907912	-4.64824285	 4.8836796777	 0.172227
O	 2.3708810386	-4.7658275528	 6.0785229095	-0.232105
H	 0.5179415177	 2.1573398763	 0.3874587653	 0.11632
H	-0.95309956	 1.9576212519	-0.573823801	 0.113817
H	-0.991782078	 1.6800745649	 1.1722651644	 0.11684
H	-0.9585357142	-0.5016346625	-0.1026606143	 0.096616
H	 0.5378890119	-0.0272782903	-0.885718538	 0.096331
H	 1.6882389959	 0.0363604512	 1.3543693701	 0.106689
H	 0.1916552684	-0.4417791516	 2.1356726641	 0.107443
H	 0.1893852475	-2.5854205414	 0.8131385765	 0.127832
H	 1.6873943191	-2.1092652689	 0.0383148869	 0.127191
H	 4.1016052339	-4.1883196458	 3.7638425125	 0.152035
H	 3.5697856427	-2.8863618254	 4.8267674525	 0.152032
H	 1.7138200287	-5.2847089733	 4.2361572227	 0.091596
8.9387	47.0001	68.3698	82.2966	113.6481	132.7654	218.9002	248.9994	269.2883	337.7383	367.3251	452.8562	491.9901	527.3507	719.7312	733.6503	790.3759	822.2878	907.8626	932.0335	1005.3996	1035.3378	1043.2478	1061.0233	1120.8607	1130.0794	1163.673	1212.7389	1240.8435	1276.8829	1293.0193	1311.5	1327.9104	1359.5133	1394.7518	1414.2715	1415.011	1442.256	1472.4306	1485.4811	1497.9606	1500.5481	1511.967	1840.4409	2367.6626	2898.6581	2996.9005	3010.2367	3012.503	3030.2124	3034.7013	3035.8431	3040.4201	3076.8038	3076.9167	3098.9053	3104.1386
CCCCC#CCC=O	CCCCC#CCC=O	
InChI=1S/C8H12O/c1-2-3-4-5-6-7-8-9/h8H,2-4,7H2,1H3	InChI=1S/C8H12O/c1-2-3-4-5-6-7-8-9/h8H,2-4,7H2,1H3
