23
gdb 58112	2.4753	1.17996	1.08504	0.5764	81.28	-0.248	0.0668	0.3148	1289.6462	0.202818	-425.414836	-425.404148	-425.403203	-425.449836	40.798	
C	-0.0321216343	 1.4189588694	-0.4662533945	-0.419245
C	-0.1280458974	-0.0554769673	-0.0777414238	 0.103164
O	 0.9139221258	-0.4252378697	 0.8226125642	-0.434348
C	-1.5259873237	-0.4855284394	 0.461490828	 0.297974
C	-1.9107637372	 0.2620475763	 1.7400410465	-0.418717
O	-2.5237164673	-0.1344516702	-0.50089499	-0.464156
C	-1.5107477761	-1.9917347577	 0.7253337164	 0.026354
C	-2.7883652348	-2.773833886	 0.8446975862	-0.277579
C	-1.876967269	-2.9961501736	-0.3390363022	-0.296707
H	 0.9215802048	 1.6126959904	-0.9645776269	 0.120261
H	-0.8495994908	 1.7018458974	-1.1331069424	 0.129097
H	-0.0873622418	 2.0654125271	 0.417680622	 0.109181
H	 0.0560348543	-0.6682460244	-0.9716856128	 0.07776
H	 0.9483966536	 0.240138805	 1.5178898154	 0.280672
H	-1.9763564595	 1.3389585322	 1.5656920677	 0.119391
H	-2.8856847669	-0.0851557646	 2.0900473148	 0.129772
H	-1.1812408582	 0.0709987422	 2.5326575518	 0.10739
H	-2.2772052588	-0.535868484	-1.3415495453	 0.279083
H	-0.6951380819	-2.285818116	 1.3767109634	 0.097706
H	-2.8596654059	-3.5458106595	 1.6028751753	 0.107058
H	-3.7124688109	-2.2411110425	 0.6482990031	 0.120471
H	-2.2327178103	-2.6466543985	-1.3034468988	 0.092826
H	-1.2997830438	-3.9123409965	-0.3943985381	 0.112592
78.4864	86.1922	164.4559	210.9102	227.5705	253.2501	275.0014	289.2279	290.9482	327.5292	351.0378	392.9671	442.4764	486.2121	502.0796	608.0868	694.397	789.7738	830.7009	842.642	901.4763	928.2527	943.1142	969.2611	1009.2199	1054.9753	1070.1877	1073.4654	1086.5066	1095.3699	1139.5449	1155.2063	1169.7808	1199.0295	1220.8126	1242.9045	1297.9477	1332.5527	1363.022	1398.2206	1401.5204	1414.1217	1425.7901	1459.7137	1485.5349	1489.5413	1496.8187	1502.847	1505.521	3007.8072	3033.5149	3049.2178	3102.1625	3121.7339	3125.9122	3128.7283	3133.9614	3134.3514	3173.1606	3204.5848	3224.2304	3799.4527	3811.9339
CC(O)C(C)(O)C1CC1	C[C@@H](O)[C@@](C)(O)C1CC1	
InChI=1S/C7H14O2/c1-5(8)7(2,9)6-3-4-6/h5-6,8-9H,3-4H2,1-2H3	InChI=1S/C7H14O2/c1-5(8)7(2,9)6-3-4-6/h5-6,8-9H,3-4H2,1-2H3/t5-,7-/m1/s1
