18
gdb 54480	3.20996	1.41281	1.12951	3.3019	76.95	-0.2355	0.0126	0.2481	1092.0286	0.149054	-401.985738	-401.977733	-401.976789	-402.018225	31.514	
N	 0.0367794823	 1.2200046574	-0.3707899717	-0.545348
C	-0.0265457839	-0.0230079488	 0.2017426909	 0.323012
O	 0.925729083	-0.5061604353	 0.7907124272	-0.378049
C	-1.3203026629	-0.7603019363	 0.0395344106	 0.238127
C	-1.6939914533	-1.6593724804	 1.205091419	-0.307373
C	-1.2550008933	-2.2915318683	-0.0844920225	-0.089419
C	-2.3511316133	-2.6466258192	-1.0278934013	-0.071889
C	-3.0357573147	-1.5727870292	-1.426805794	-0.082808
C	-2.4552877331	-0.2856056343	-0.8749554	-0.380312
H	 0.8570662903	 1.7661975235	-0.1609297625	 0.258864
H	-0.7926613006	 1.71236008	-0.6528863673	 0.257942
H	-0.9821809343	-1.6625878601	 2.0223672838	 0.138397
H	-2.742371782	-1.7280545985	 1.4764521	 0.110498
H	-0.2918454031	-2.7867919485	-0.1120509937	 0.112806
H	-2.5670703253	-3.6705186571	-1.3105955216	 0.10018
H	-3.9119869184	-1.5837417931	-2.064699323	 0.096572
H	-3.2064745547	 0.3112057797	-0.3407738446	 0.111187
H	-2.0786876126	 0.3423109486	-1.6947971194	 0.107614
66.7219	161.5551	217.3386	297.0473	327.0816	337.8675	405.7307	484.1283	494.6981	564.8525	632.5188	719.8065	746.3934	750.5144	785.1851	852.7836	887.837	935.6808	953.1915	960.8977	991.6788	1019.7385	1045.9249	1073.7853	1085.7781	1094.2199	1141.2942	1173.0461	1216.4285	1260.2612	1315.7957	1337.6991	1367.268	1405.9648	1454.881	1481.9818	1614.9502	1672.0044	1773.5198	3002.9338	3034.7729	3129.4751	3186.1604	3192.1777	3213.6142	3231.9162	3598.0484	3730.0716
NC(=O)C12CC1C=CC2	NC(=O)[C@]12C[C@H]1C=CC2	
InChI=1S/C7H9NO/c8-6(9)7-3-1-2-5(7)4-7/h1-2,5H,3-4H2,(H2,8,9)	InChI=1S/C7H9NO/c8-6(9)7-3-1-2-5(7)4-7/h1-2,5H,3-4H2,(H2,8,9)/t5-,7-/m1/s1
