23
gdb 100767	2.00419	1.15147	1.04199	3.1135	77.87	-0.2428	0.0612	0.304	1362.5045	0.202107	-462.551603	-462.540002	-462.539058	-462.58855	41.645	
C	 0.8591286122	 0.5781993049	-0.6024476267	-0.237561
O	 0.3018797167	-0.6687636626	-0.2541374452	-0.264281
C	-1.0920771	-0.6616420396	 0.0625360985	 0.105751
C	-1.9609473689	-0.4143092234	-1.1722563257	-0.41103
C	-1.3816355184	-2.0408373243	 0.6819920449	 0.111603
O	-0.8580244267	-3.0721769729	-0.1400123727	-0.447005
C	-0.9298756346	-2.2184866585	 2.1530629296	 0.111959
C	 0.5768900417	-2.1862490251	 2.3919297411	-0.417608
O	-1.6241628785	-1.2879556739	 2.9849577144	-0.438043
H	 1.9391778307	 0.4344924842	-0.6876042903	 0.13046
H	 0.4812398653	 0.9564831615	-1.5616974933	 0.116737
H	 0.6629258155	 1.3371804635	 0.1704450781	 0.104486
H	-1.2908952968	 0.1185785544	 0.8140034709	 0.059312
H	-1.8270071146	-1.2285487091	-1.889629466	 0.135604
H	-3.0157431481	-0.3756593225	-0.8840796103	 0.123942
H	-1.7177722244	 0.5327975504	-1.6612447137	 0.111617
H	-2.4703161418	-2.1681841303	 0.6909509179	 0.087947
H	 0.0015257692	-2.7543466662	-0.4443601668	 0.292152
H	-1.301493125	-3.2060890885	 2.4515888995	 0.091056
H	 1.0014150909	-1.205306772	 2.1558898541	 0.112813
H	 0.7912136735	-2.4219449147	 3.4385787832	 0.117357
H	 1.0813543582	-2.9248284517	 1.7632849052	 0.1228
H	-1.083091656	-0.4955261536	 3.0561568434	 0.279931
49.5256	62.1714	102.4364	164.6997	198.8298	212.1083	230.9542	244.7175	265.0632	268.1105	307.7879	351.166	399.2707	432.4805	455.3657	490.9099	591.373	699.7262	775.7851	846.5535	906.1449	968.2026	1005.5681	1032.2796	1070.2025	1106.5578	1115.0891	1134.3813	1147.5033	1162.344	1182.881	1212.4591	1280.5795	1303.794	1326.0584	1359.5121	1376.3568	1382.7911	1395.5031	1403.6003	1423.4894	1444.3141	1477.6015	1483.0501	1487.1959	1493.9259	1498.1522	1505.74	1513.5454	2981.1391	2986.423	3034.3853	3039.4577	3040.5631	3046.488	3051.9677	3111.9261	3112.3591	3115.864	3120.6478	3127.9956	3776.6366	3820.8148
COC(C)C(O)C(C)O	CO[C@@H](C)[C@@H](O)[C@@H](C)O	
InChI=1S/C6H14O3/c1-4(7)6(8)5(2)9-3/h4-8H,1-3H3	InChI=1S/C6H14O3/c1-4(7)6(8)5(2)9-3/h4-8H,1-3H3/t4-,5+,6+/m1/s1
