16
gdb 57147	3.28716	0.80092	0.66142	1.2973	77.6	-0.2553	-0.0719	0.1834	1608.2798	0.121582	-437.901673	-437.891476	-437.890532	-437.939004	34.486	
C	-0.477017587	 1.8521696307	-0.5810489849	-0.384929
C	-0.1251559807	 0.4251362767	-0.1084339788	-0.312393
C	-1.2952634787	-0.4342610512	-0.0183225387	 0.09377
C	-2.2548286337	-1.1690423961	 0.0331823755	 0.051894
C	-3.3885605585	-2.0554453201	 0.0869340827	 0.015358
O	-3.3727526461	-3.1943862956	-0.3226380506	-0.230201
C	 1.0291670575	-0.1498559027	-0.9790259725	 0.445501
N	 0.8948935087	-1.4368795521	-1.3763384034	-0.538273
O	 1.991471416	 0.5436692488	-1.2382593419	-0.361948
H	 0.4464932409	 2.4260886062	-0.6641424443	 0.157496
H	-0.9632747947	 1.8258254428	-1.5597227781	 0.133779
H	-1.1511679531	 2.3356357002	 0.1291528464	 0.126269
H	 0.3080610183	 0.5020503954	 0.8992412776	 0.152003
H	-4.2988742566	-1.6140971079	 0.5389534058	 0.105602
H	 0.0648779216	-1.9710334397	-1.181740591	 0.278985
H	 1.6282534561	-1.8406579252	-1.9353512438	 0.267087
25.4112	48.0805	55.9554	131.9142	203.4758	227.1507	264.1201	292.0819	321.5379	400.5605	423.5135	515.9939	552.3626	612.3857	648.4464	719.905	790.1043	830.908	991.5214	1022.598	1069.8071	1083.7567	1103.6227	1178.8907	1263.7038	1311.8211	1346.7536	1400.5354	1421.0712	1492.3833	1500.5751	1611.7248	1762.762	1804.2905	2316.3082	2931.5103	3015.3276	3057.7795	3132.154	3157.8894	3597.0682	3730.7312
CC(C#CC=O)C(N)=O	C[C@@H](C#CC=O)C(=O)N	
InChI=1S/C6H7NO2/c1-5(6(7)9)3-2-4-8/h4-5H,1H3,(H2,7,9)	InChI=1S/C6H7NO2/c1-5(6(7)9)3-2-4-8/h4-5H,1H3,(H2,7,9)/t5-/m0/s1
