19
gdb 37431	3.17806	1.62093	1.29952	1.679	78.37	-0.2328	0.0278	0.2605	1008.2115	0.161731	-385.861411	-385.854361	-385.853417	-385.892906	28.682	
C	-0.044340955	 1.5161253237	-0.1221175557	-0.281762
C	 1.3420426575	 2.0860284387	 0.0748110934	-0.054023
C	 2.2101448814	 1.5622050494	 0.9398100036	-0.05403
C	 1.8749186326	 0.3579019998	 1.7900363678	-0.281756
C	 0.9911462819	-0.6355410753	 1.0228386486	-0.026375
C	-0.2026470728	-1.275919824	 1.7497015397	 0.003395
O	-1.0789411118	-0.2104868722	 2.1422897837	-0.245918
C	-1.1616391571	-0.696627265	 0.7953684051	 0.003358
C	-0.0384857307	-0.0142858195	-0.0025769252	-0.026401
H	-0.7103722615	 1.9282051461	 0.6475303377	 0.12576
H	-0.4551344712	 1.8277039885	-1.0882429936	 0.096164
H	 1.60840236	 2.9726525281	-0.4941343805	 0.083553
H	 3.1855262862	 2.0209791241	 1.0773248608	 0.08356
H	 2.7891576805	-0.1300518731	 2.1440126415	 0.096169
H	 1.3343336133	 0.6941134966	 2.6847451261	 0.125792
H	 1.6034837556	-1.3896752318	 0.5213023325	 0.076109
H	-0.247565542	-2.1881122811	 2.3343894517	 0.100111
H	-2.1304085875	-1.0508313439	 0.4606981837	 0.100123
H	 0.0915653307	-0.4777468391	-0.9841747907	 0.076171
97.1464	144.5889	259.8684	396.3241	412.9906	432.3724	553.5168	614.8722	688.7604	693.3156	756.0547	770.7686	846.0047	860.2773	915.366	928.4265	947.4142	963.9416	966.915	993.5666	1021.9859	1039.5518	1057.8956	1094.0735	1107.0613	1158.0319	1212.3335	1221.899	1225.454	1245.0402	1245.6563	1283.103	1323.6987	1333.2244	1358.3749	1359.2396	1391.2559	1403.5409	1477.3137	1484.7182	1712.4477	3019.3996	3021.0586	3055.0863	3059.8579	3071.6653	3083.5355	3150.6213	3170.965	3174.4378	3186.6327
C1C=CCC2C3OC3C12	C1C=CC[C@H]2[C@H]3O[C@H]3[C@@H]12	
InChI=1S/C8H10O/c1-2-4-6-5(3-1)7-8(6)9-7/h1-2,5-8H,3-4H2	InChI=1S/C8H10O/c1-2-4-6-5(3-1)7-8(6)9-7/h1-2,5-8H,3-4H2/t5-,6+,7-,8+
