20
gdb 72262	2.7988	1.8672	1.65901	0.3472	77.26	-0.214	0.09	0.3041	930.1063	0.173329	-403.104062	-403.096988	-403.096044	-403.134908	29.836	
C	-0.0459139505	 1.5139050595	 0.0178066313	-0.496476
C	 0.0124184978	 0.0074340906	-0.026017457	 0.350409
C	 0.4303759235	-0.7422736538	-1.2935657594	-0.287911
C	-0.5202880891	-1.846190613	-0.7780462101	-0.01804
C	 0.2858959254	-2.772046239	 0.1287594109	-0.095037
O	 1.0843777901	-1.9748637307	 1.0085421334	-0.270267
C	 0.4254455435	-0.7495216024	 1.2966366688	 0.055575
C	-1.0869975924	-0.9800661114	 1.498235262	-0.208222
N	-1.2985490714	-0.7949858652	 0.0238275579	-0.180137
H	 0.964206024	 1.935688622	-0.0416455799	 0.121308
H	-0.6306348488	 1.9001885916	-0.8228615108	 0.125345
H	-0.5039072673	 1.8781164306	 0.9437183687	 0.118431
H	 0.0522961757	-0.2401637816	-2.187257514	 0.105344
H	 1.4829581743	-1.0036727474	-1.4216898126	 0.106811
H	-1.1376012112	-2.3985395199	-1.4904130597	 0.075641
H	-0.3678155434	-3.4453954781	 0.7009305347	 0.099006
H	 0.9718686116	-3.3926705126	-0.4579832893	 0.109012
H	 1.0278530719	-0.2320575598	 2.0478951773	 0.073672
H	-1.4079981485	-1.9291443885	 1.9358476702	 0.10603
H	-1.586530205	-0.1641690509	 2.0275547075	 0.109505
204.0369	227.5158	272.2789	318.6997	405.996	419.1983	458.8601	508.4747	570.9435	671.3922	732.8741	781.5771	819.1409	846.3011	861.9264	904.2117	921.9973	956.8991	959.6373	987.0321	1021.8592	1033.3823	1099.2499	1103.2873	1123.8908	1147.7583	1184.2394	1210.7449	1221.4215	1233.2265	1248.561	1275.4628	1285.6577	1302.1032	1337.2205	1349.6074	1396.0771	1409.3499	1475.3181	1483.5779	1491.5341	1492.6837	1523.5284	3000.9782	3027.2628	3057.3372	3064.3243	3065.7326	3075.5133	3081.9258	3093.0716	3104.2639	3108.6824	3124.63
CC12CC3COC1CN23	C[C@@]12C[C@H]3CO[C@@H]1CN23	
InChI=1S/C7H11NO/c1-7-2-5-4-9-6(7)3-8(5)7/h5-6H,2-4H2,1H3	InChI=1S/C7H11NO/c1-7-2-5-4-9-6(7)3-8(5)7/h5-6H,2-4H2,1H3/t5-,6+,7+/m0/s1
