19
gdb 82444	2.70688	1.70509	1.228	0.5792	75.13	-0.2202	0.0721	0.2923	1053.0549	0.157323	-422.963607	-422.954917	-422.953973	-422.996238	33.619	
C	-0.0327635554	 1.4194435758	-0.1301857611	-0.507667
C	 0.0431891881	-0.0658209959	-0.0361434385	 0.415458
O	-0.5113732026	-0.8468399877	-1.1129709888	-0.328999
C	-0.4031000603	-1.9884121743	-0.2231100747	 0.01128
C	-0.2921367602	-1.0563144517	 1.0312643075	-0.233383
C	 1.1770447506	-0.8942087731	 0.6021779785	 0.245283
C	 2.3445145273	-0.3488393479	 1.3654457369	-0.517897
C	 1.1313138196	-2.223652417	-0.146895492	 0.056648
O	 1.5145205014	-3.2608317037	 0.7330821286	-0.435345
H	 0.5426752296	 1.7823204478	-0.9887408115	 0.132635
H	-1.070696698	 1.7447152263	-0.2506053142	 0.133247
H	 0.3717098467	 1.8855321778	 0.7725137619	 0.127797
H	-1.11800295	-2.7860699515	-0.4207563545	 0.078711
H	-0.7910740892	-0.99228325	 1.9883474854	 0.095841
H	 2.7491212614	-1.1133710568	 2.03647552	 0.13992
H	 3.1488721099	-0.0316559277	 0.6912112505	 0.120604
H	 2.0612676919	 0.5156465498	 1.9746497165	 0.116544
H	 1.6502677676	-2.2939469792	-1.1142221242	 0.063907
H	 1.3850696118	-4.098541801	 0.2770890037	 0.285418
156.551	176.8355	187.8516	208.3242	240.8546	279.2415	307.9732	316.1259	406.6037	505.9081	543.9146	643.8285	678.7152	765.8539	806.635	822.3007	882.026	914.1244	927.9538	941.0535	973.9514	1001.5606	1074.9482	1099.4626	1113.8812	1140.3553	1153.2135	1167.8564	1211.5032	1231.8081	1260.1558	1285.9184	1338.88	1400.077	1413.9608	1436.1181	1455.6636	1472.5641	1485.2144	1494.9947	1509.2939	2995.9471	3026.1719	3037.0248	3088.1138	3100.8802	3101.7305	3119.3362	3130.1606	3207.9358	3815.6555
CC12OC3C1C2(C)C3O	C[C@]12O[C@@H]3[C@H]1[C@@]2(C)[C@H]3O	
InChI=1S/C7H10O2/c1-6-4-3(5(6)8)9-7(4,6)2/h3-5,8H,1-2H3	InChI=1S/C7H10O2/c1-6-4-3(5(6)8)9-7(4,6)2/h3-5,8H,1-2H3/t3-,4+,5+,6+,7+/m1/s1
