14
gdb 25462	2.75955	1.67917	1.04394	2.8629	73.34	-0.24	-0.0801	0.1598	1051.3633	0.10339	-432.922962	-432.915759	-432.914814	-432.95503	26.641	
N	-0.0941865211	 1.3505340107	 0.0110736029	-0.554993
C	 0.0326781651	 0.0784880404	 0.0034969649	 0.393106
C	 1.2452231904	-0.7208396814	-0.0077286258	-0.182241
C	 1.1911026178	-2.0686205592	-0.0148267842	 0.002538
N	 0.0109710798	-2.7980516737	-0.0121486519	-0.308655
C	-1.0740260595	-2.1084788025	-0.0021693548	 0.137786
N	-1.1477523145	-0.7291081113	 0.0058522615	-0.191035
C	-2.4315766213	-0.118986672	 0.0166464456	 0.184344
O	-3.4519781184	-0.7536034872	 0.0189340849	-0.288296
H	 0.8202443257	 1.7970229982	 0.0083101148	 0.226561
H	 2.1916232444	-0.1926778893	-0.0101956994	 0.114007
H	 2.0980165084	-2.665224313	-0.0232434416	 0.12705
H	-2.04529709	-2.5912793062	 0.0007123281	 0.171855
H	-2.353708827	 0.9738740164	 0.022271835	 0.167975
80.659	148.782	238.1577	264.0941	357.8528	387.9076	528.0385	538.8315	575.8373	663.8418	757.9648	794.9842	846.2972	863.9496	874.954	985.9281	1014.8766	1017.5215	1060.2719	1102.4917	1176.3524	1218.0426	1281.2968	1339.0699	1410.1875	1420.4096	1437.9834	1601.5472	1653.7977	1712.9557	1823.7166	3095.8284	3180.0886	3205.2181	3210.2335	3512.7788
N=C1C=CN=CN1C=O	[NH]C1=CCN=CN1C=O	
InChI=1S/C5H5N3O/c6-5-1-2-7-3-8(5)4-9/h1-4,6H	InChI=1S/C5H6N3O/c6-5-1-2-7-3-8(5)4-9/h1,3-4,6H,2H2
