16
gdb 19954	3.90862	1.52252	1.16712	1.0919	66.15	-0.2519	-0.0314	0.2206	1010.6947	0.129519	-383.718136	-383.710606	-383.709662	-383.750737	27.317	
O	-0.0272759772	-0.0855778496	 0.1531855726	-0.267481
C	-0.0450386033	 1.1059650082	 0.1608714677	 0.325094
C	-1.0980716049	 2.2021357922	 0.3613260962	-0.191212
O	-0.0639418721	 3.1987660155	 0.2562606484	-0.292885
C	 0.9970602214	 2.2339343986	 0.0058962275	 0.006647
C	 2.1298522791	 2.2931394523	 0.9833567122	 0.013622
C	 3.4731991989	 1.7251013379	 0.5893515366	-0.26293
C	 3.2995004436	 3.2129908077	 0.7224868152	-0.269447
H	-1.8495288974	 2.2700958029	-0.4364160167	 0.130679
H	-1.6032694006	 2.2060862346	 1.3355171681	 0.133553
H	 1.3729600233	 2.3194482281	-1.025186683	 0.099279
H	 1.8314937115	 2.1683228974	 2.0200136433	 0.091114
H	 4.0364090868	 1.1955652341	 1.3487091441	 0.12187
H	 3.5756547159	 1.3088410047	-0.407046612	 0.121092
H	 3.2796804321	 3.8092149682	-0.1834371831	 0.120507
H	 3.745528423	 3.7129220872	 1.574494853	 0.120499
63.0675	101.8717	137.8907	256.8763	292.6532	403.3547	462.3176	559.6063	709.567	752.6774	802.4794	831.2435	881.8006	925.288	953.5436	980.7208	1005.3036	1036.1879	1063.1181	1081.1925	1083.6818	1128.9235	1138.1388	1193.5569	1194.8251	1223.3268	1241.9765	1291.9875	1305.3473	1420.6981	1471.1938	1483.3048	1504.6595	1923.7946	2992.2661	3015.1673	3060.2693	3137.1301	3141.2097	3153.0941	3216.2728	3230.6066
O=C1COC1C1CC1	O=C1CO[C@H]1C1CC1	
InChI=1S/C6H8O2/c7-5-3-8-6(5)4-1-2-4/h4,6H,1-3H2	InChI=1S/C6H8O2/c7-5-3-8-6(5)4-1-2-4/h4,6H,1-3H2/t6-/m0/s1
