17
gdb 28604	5.42266	0.94943	0.86289	2.4708	76.74	-0.1867	0.0459	0.2325	1330.0237	0.137422	-418.031172	-418.022936	-418.021991	-418.065027	30.876	
O	 1.0624111572	 1.0985113079	-0.4463930652	-0.43831
C	 0.3207776474	 0.0070016081	-0.1327167434	 0.347688
C	-0.8438829312	-0.5462540488	-0.5862314572	-0.230978
N	-1.1210484263	-1.6956907592	 0.1349540666	-0.312858
C	-0.1480266013	-1.8329686414	 1.0022590561	 0.379482
N	 0.7654572493	-0.8098507923	 0.8776505448	-0.35789
C	 0.0001373382	-2.9114213821	 1.9958615221	-0.116658
C	-1.2394069571	-3.4992606653	 2.641909635	-0.253535
C	-0.4662173233	-4.3111010344	 1.6454767449	-0.253518
H	 0.6240285406	 1.5653807825	-1.1642878603	 0.310064
H	-1.49127022	-0.1953233345	-1.3750366918	 0.095373
H	 1.6047672424	-0.6646741418	 1.4135789405	 0.266109
H	 0.8856662727	-2.8331100932	 2.6191045644	 0.073294
H	-1.1846253159	-3.7696478905	 3.6907293689	 0.108374
H	-2.1841720891	-3.0785524327	 2.3181999214	 0.137486
H	-0.8957871188	-4.4314992968	 0.6578905888	 0.137503
H	 0.1269582551	-5.1466248655	 2.0006991644	 0.108374
22.6525	148.0531	166.4253	223.5842	295.1123	321.8083	421.2079	466.6957	481.1465	638.9972	662.6016	711.874	736.2053	768.9301	795.9276	816.7325	908.0329	909.9531	998.2693	1048.9445	1065.3312	1087.4746	1088.4527	1120.359	1152.6596	1185.841	1203.1708	1207.0695	1228.8295	1283.9887	1372.9257	1456.8636	1462.8249	1493.4277	1511.8881	1569.1493	1641.7212	3135.909	3138.34	3152.9745	3224.7255	3239.2469	3245.7957	3663.2463	3845.9824
OC1=CN=C(N1)C1CC1	Oc1cnc([nH]1)C1CC1	
InChI=1S/C6H8N2O/c9-5-3-7-6(8-5)4-1-2-4/h3-4,9H,1-2H2,(H,7,8)	InChI=1S/C6H8N2O/c9-5-3-7-6(8-5)4-1-2-4/h3-4,9H,1-2H2,(H,7,8)
