18
gdb 97174	3.49275	1.26056	0.97389	2.5952	88.76	-0.2239	-0.0555	0.1684	1218.4641	0.148645	-401.96105	-401.952782	-401.951838	-401.994145	30.955	
C	 0.5298039217	 1.4536066719	 0.2743189246	-0.321109
N	 0.379308413	 0.0175354826	 0.1451330977	-0.292944
C	 0.3855520329	-0.5051629363	-1.0171976775	 0.369008
O	 0.5884790168	 0.2522862829	-2.1356580301	-0.258855
C	-0.0124952392	-0.186849224	-3.366213202	-0.161913
C	 0.7765428295	-1.2558211745	-4.059255927	-0.084102
C	 1.0202281443	-2.4337257088	-3.467888907	-0.062509
C	 0.5738283636	-2.7880000644	-2.1326251623	-0.094394
C	 0.2481047307	-1.9629323948	-1.1155154404	-0.128211
H	 0.032815419	 1.7798034215	 1.1928271263	 0.117306
H	 1.5920217173	 1.7159709491	 0.3706843585	 0.127452
H	 0.1313454488	 2.0153518663	-0.5795639633	 0.11509
H	-1.0309636595	-0.5431552664	-3.154634906	 0.123493
H	-0.0866800965	 0.7139869703	-3.9785012967	 0.122195
H	 1.1357056571	-1.0603034904	-5.0645779309	 0.104443
H	 1.5574096616	-3.2036701037	-4.0158938823	 0.100444
H	 0.5145088427	-3.8544562735	-1.9271000772	 0.103755
H	-0.0525595135	-2.3977232079	-0.1687228344	 0.120851
72.9748	109.8916	196.095	219.9826	258.5802	336.3661	377.4497	409.35	512.6539	528.0875	656.957	726.3675	731.1584	789.9082	846.9926	883.5776	939.285	970.238	998.8217	1023.6237	1038.3026	1047.0856	1085.5708	1114.3904	1167.5168	1213.0566	1235.435	1281.7604	1301.4443	1404.6483	1410.6852	1432.3956	1456.0483	1484.848	1487.2355	1492.5027	1643.7619	1688.7899	1704.8131	3004.5611	3006.5672	3058.9747	3093.8912	3108.8106	3147.5289	3161.9035	3186.8396	3200.0138
CN=C1OCC=CC=C1	CN=C1OCC=CC=C1	
InChI=1S/C7H9NO/c1-8-7-5-3-2-4-6-9-7/h2-5H,6H2,1H3	InChI=1S/C7H9NO/c1-8-7-5-3-2-4-6-9-7/h2-5H,6H2,1H3
