15
gdb 48874	3.48828	1.63108	1.41181	1.936	68.31	-0.2585	-0.0436	0.2148	910.2036	0.113218	-416.767001	-416.760157	-416.759213	-416.799037	26.191	
O	-0.8353898391	 1.1128868108	-0.329957752	-0.260958
C	 0.2562890779	 0.8597177536	 0.1168518075	 0.049012
C	 1.4202616241	 1.7931338956	-0.0099156226	 0.222
C	 1.3518028635	 3.1664077716	 0.7782072132	-0.263718
C	 1.9489242965	 3.8304202517	-0.4586834566	-0.041898
C	 1.6369592747	 2.6560734206	-1.3024960654	-0.081759
N	 3.049159695	 3.0089805887	-1.112721851	-0.156551
C	 3.5675309393	 1.9785078818	-0.2612293431	 0.034352
N	 2.7303949014	 1.2186018867	 0.3223990054	-0.234663
H	 0.4707141569	-0.084232583	 0.6604425169	 0.098842
H	 0.3128792445	 3.4818426182	 0.8947997538	 0.141821
H	 1.8844469192	 3.1953333531	 1.7318575784	 0.118176
H	 1.9673232213	 4.8868170622	-0.692031277	 0.119503
H	 1.2080805613	 2.5446451107	-2.2908058327	 0.118071
H	 4.6436838235	 1.8918589178	-0.1549734449	 0.13777
35.9481	178.686	239.4877	373.715	413.4984	499.2864	554.838	671.7281	712.2904	721.8615	803.7255	836.0989	865.2184	882.3426	921.751	967.4014	971.0541	994.1964	1006.7084	1038.8011	1081.7715	1096.9562	1156.2723	1183.3965	1226.2961	1247.6447	1292.5132	1299.169	1337.3923	1406.7027	1478.8037	1658.4315	1817.5226	2918.7939	3065.9638	3135.6349	3192.1224	3203.0332	3209.8418
O=CC12CC3C1N3C=N2	O=C[C@]12C[C@@H]3[C@H]1N3[CH][N]2	
InChI=1S/C6H6N2O/c9-2-6-1-4-5(6)8(4)3-7-6/h2-5H,1H2	InChI=1S/C6H6N2O/c9-2-6-1-4-5(6)8(4)3-7-6/h2-5H,1H2/t4-,5-,6-,8?/m1/s1
