20
gdb 75834	2.50581	1.59491	1.19486	3.5447	78.6	-0.2357	0.0266	0.2622	1105.4883	0.171477	-403.192853	-403.184162	-403.183218	-403.225725	33.827	
C	-0.22918005	 1.5216646841	-0.0052689665	-0.395603
C	 0.0291642576	 0.014249788	 0.0225386	-0.184893
C	 0.8649405708	-0.4415392701	-1.1914446246	 0.39582
O	 0.7477271169	-0.0547253849	-2.333006232	-0.377961
N	 1.7854536585	-1.3602776488	-0.7417809608	-0.313096
C	 1.8738877105	-1.427013147	 0.6886680162	-0.050305
C	 2.2304978548	-0.1419461993	 1.4040045103	-0.348293
C	 0.7754941282	-0.5447848332	 1.2335260813	 0.341543
C	-0.0267997686	-0.9344422296	 2.4525719193	-0.481692
H	 0.6964622837	 2.0853613584	 0.1473766989	 0.117565
H	-0.639247588	 1.8044721671	-0.9780630651	 0.142011
H	-0.937654884	 1.8154927148	 0.77474714	 0.111722
H	-0.9374890049	-0.5033578812	-0.0555080083	 0.099899
H	 2.5556267526	-1.6093613968	-1.3446445313	 0.248972
H	 2.1044201983	-2.3961151695	 1.1174164151	 0.101179
H	 2.6388436595	-0.2138683505	 2.4069468467	 0.113985
H	 2.6420867044	 0.6645020996	 0.805178544	 0.117787
H	-0.4768991969	-0.0547957168	 2.9268108548	 0.124873
H	-0.8380546514	-1.6226158925	 2.1887202257	 0.120728
H	 0.599897588	-1.427332062	 3.2026071661	 0.115758
91.4861	195.5513	205.8145	212.9135	235.4329	270.1435	307.8243	447.2832	481.2443	493.0454	512.85	568.6114	691.1632	714.2255	727.8825	811.2138	852.2262	883.1545	921.7034	961.4744	1023.8836	1041.1777	1047.7474	1085.5396	1091.6182	1110.6761	1130.812	1140.7361	1225.5259	1250.4013	1298.7073	1339.0556	1347.2679	1393.8032	1405.2446	1417.548	1422.2439	1484.8907	1489.2623	1495.8298	1498.0794	1502.5273	1825.3244	3010.3639	3024.2566	3041.6353	3085.6993	3097.9586	3109.1759	3123.8356	3126.2506	3167.7108	3212.8014	3617.049
CC1C(=O)NC2CC12C	C[C@H]1C(=O)N[C@H]2C[C@@]12C	
InChI=1S/C7H11NO/c1-4-6(9)8-5-3-7(4,5)2/h4-5H,3H2,1-2H3,(H,8,9)	InChI=1S/C7H11NO/c1-4-6(9)8-5-3-7(4,5)2/h4-5H,3H2,1-2H3,(H,8,9)/t4-,5-,7-/m0/s1
