17
gdb 36376	3.88922	0.92847	0.85816	4.8933	72.83	-0.2616	0.0266	0.2881	1351.0207	0.136278	-417.967219	-417.958698	-417.957754	-418.001433	30.654	
N	-0.0116369659	-0.6396300104	-1.205257905	-0.296361
C	-0.0112971132	 0.3078904795	-0.5446547331	 0.264351
C	 0.0038058666	 1.503499274	 0.2988242924	-0.390707
C	 1.395103667	 2.1087494335	 0.4044230266	 0.069026
O	 1.8862698592	 2.8519385022	-0.7134388159	-0.247395
C	 1.6296159842	 3.5589020458	 0.5060847946	 0.015063
C	 0.5315616341	 4.5809087414	 0.4615750151	-0.037989
C	 0.6198958377	 5.708387796	-0.4994970451	-0.239718
N	-0.3704893764	 4.6344507592	-0.6969307672	-0.317114
H	-0.7122579303	 2.2322421585	-0.089413737	 0.184588
H	-0.3356094571	 1.222608674	 1.3034585865	 0.160618
H	 2.1370228864	 1.4399040435	 0.8409358758	 0.118681
H	 2.5299931455	 3.8733642934	 1.0369489719	 0.110294
H	 0.0453472694	 4.7561628155	 1.4197972291	 0.104821
H	 0.2070417505	 6.6775422614	-0.2365095963	 0.126486
H	 1.4785083652	 5.737257561	-1.1649232987	 0.128386
H	-0.0009987829	 4.0003851515	-1.4047758836	 0.246969
43.4399	99.882	128.195	174.425	233.8121	308.1679	377.1202	390.7434	522.2616	566.8386	624.1181	751.6408	815.1042	864.2907	878.6904	919.8027	948.8521	969.7453	997.6024	1015.5401	1075.9238	1114.9961	1133.7934	1150.5542	1158.9922	1194.3728	1243.9059	1280.7532	1294.705	1311.3246	1324.9695	1384.0814	1420.819	1460.4846	1477.2269	1509.4607	2367.0014	3047.3721	3093.5313	3105.5321	3114.1175	3121.0997	3124.033	3203.5974	3476.1599
N#CCC1OC1C1CN1	N#CC[C@H]1O[C@H]1[C@H]1CN1	
InChI=1S/C6H8N2O/c7-2-1-5-6(9-5)4-3-8-4/h4-6,8H,1,3H2	InChI=1S/C6H8N2O/c7-2-1-5-6(9-5)4-3-8-4/h4-6,8H,1,3H2/t4-,5-,6+/m1/s1
