18
gdb 65769	3.03291	1.19129	1.0971	3.5815	75.84	-0.2555	-0.0012	0.2543	1187.0656	0.146326	-439.092802	-439.084015	-439.083071	-439.126579	32.421	
C	 0.0286828061	 1.5396567661	-0.0626827169	-0.420456
C	-0.0192135571	 0.0177588951	 0.0073451395	 0.415076
O	-1.3982868244	-0.4225895056	 0.0388883466	-0.230603
C	-2.113580625	-0.325923195	-1.101474412	 0.110623
N	-3.3574466303	-0.5503657407	-1.0766083769	-0.447287
O	 0.6709844842	-0.5281564847	-1.0969651603	-0.284764
C	 1.5042841662	-1.6117801819	-0.6779514176	-0.138329
C	 1.4891140518	-1.5434107155	 0.8211783545	-0.094981
C	 0.6341813867	-0.6095543565	 1.2150070119	-0.114565
H	 1.0631271236	 1.8834410424	 0.0088336778	 0.128318
H	-0.3890600329	 1.8910626836	-1.0100501068	 0.129315
H	-0.5540677777	 1.9698991198	 0.7555012228	 0.135436
H	-1.5120797071	-0.0823118378	-1.9825308328	 0.107055
H	-3.7363248773	-0.4643563703	-2.0181298708	 0.223317
H	 1.1138752272	-2.5697631746	-1.0524641519	 0.122767
H	 2.5025544023	-1.4672068094	-1.1106766093	 0.120325
H	 2.0845021422	-2.1931064735	 1.4493972662	 0.11837
H	 0.3671498315	-0.3312119716	 2.2248093961	 0.120384
66.9934	122.913	138.1868	175.9184	234.6265	272.2335	358.3533	377.3697	444.949	481.1219	593.5802	710.9063	752.7064	799.4615	826.2267	843.3714	912.1316	922.7904	958.1744	963.3206	1036.7358	1046.4892	1054.3799	1082.2571	1105.2153	1128.7829	1191.0416	1204.5421	1240.807	1297.2874	1365.7265	1376.8684	1407.3127	1421.326	1483.3342	1489.0857	1510.1217	1693.7281	1734.6872	2998.5642	3039.377	3052.0653	3078.5987	3129.5248	3137.0867	3218.127	3245.5294	3505.9694
CC1(OC=N)OCC=C1	C[C@@]1(O[CH][NH])OCC=C1	
InChI=1S/C6H9NO2/c1-6(9-5-7)3-2-4-8-6/h2-3,5,7H,4H2,1H3	InChI=1S/C6H9NO2/c1-6(9-5-7)3-2-4-8-6/h2-3,5,7H,4H2,1H3/t6-/m0/s1
