16
gdb 84971	2.81259	1.44853	1.01502	6.8144	74.84	-0.2396	-0.0763	0.1633	1139.9793	0.125078	-437.944964	-437.936875	-437.935931	-437.978092	30.111	
C	-0.2387538881	 1.5727741388	 0.0366247708	-0.391089
C	 0.074257994	 0.0624244135	 0.0078649494	-0.009257
N	 0.751455103	-0.3023772072	-1.2227313177	-0.347197
C	 1.9548141851	-0.9359151769	-1.3891197645	 0.315761
O	 2.4165599137	-1.1857881988	-2.4801953321	-0.341268
C	 2.6942549497	-1.3097153028	-0.0866510049	 0.26903
O	 3.7684589769	-1.8621479026	-0.1421822176	-0.296081
C	 2.0338627407	-0.9650156422	 1.1819190106	-0.161239
C	 0.8480077488	-0.3499064551	 1.2175328814	-0.048321
H	 0.6868666694	 2.1542102749	 0.0261590558	 0.140914
H	-0.8364706719	 1.8524658377	-0.836178958	 0.127548
H	-0.809869112	 1.8304199864	 0.9333025158	 0.129156
H	-0.8914958413	-0.4701285121	 0.0500667866	 0.115502
H	 0.2940861447	-0.0633507759	-2.0928481255	 0.249564
H	 2.5638891145	-1.2449733643	 2.0868795105	 0.124328
H	 0.3774990129	-0.1094544033	 2.1672900694	 0.12265
60.5525	91.1535	225.1446	257.735	337.3894	351.0051	402.947	445.0422	499.0651	543.0346	578.7511	633.1817	683.8155	756.3797	813.726	875.3665	894.2236	990.853	1020.3663	1037.0303	1085.0219	1123.483	1187.1818	1208.882	1322.6578	1342.2711	1383.1851	1399.6997	1412.3312	1469.6046	1495.3465	1499.5569	1696.11	1793.3329	1805.7199	2953.7757	3041.7918	3115.4839	3129.634	3165.5302	3191.6411	3583.8879
CC1NC(=O)C(=O)C=C1	C[C@H]1NC(=O)C(=O)C=C1	
InChI=1S/C6H7NO2/c1-4-2-3-5(8)6(9)7-4/h2-4H,1H3,(H,7,9)	InChI=1S/C6H7NO2/c1-4-2-3-5(8)6(9)7-4/h2-4H,1H3,(H,7,9)/t4-/m1/s1
