19
gdb 90157	3.4405	1.44544	1.3202	1.3891	74.11	-0.2334	0.0569	0.2902	1036.3319	0.160105	-422.974378	-422.966786	-422.965842	-423.006013	30.367	
C	-0.0847880924	 1.5225067165	-0.0361869721	-0.402159
C	 0.1095747359	 0.0242325893	 0.0405491261	 0.091022
O	 1.1814338499	-0.463712405	-0.8331810053	-0.338474
C	 1.7408278684	-1.1806832528	 0.2717781437	 0.354706
C	 2.2318269664	-0.292652191	 1.3617638333	-0.376552
C	 0.7532782025	-0.6283896733	 1.2809576948	 0.099147
C	 0.246545511	-1.8337985342	 2.0337730023	-0.153147
O	 1.1786227081	-2.8928888818	 1.73070376	-0.264071
C	 1.7164084419	-2.6820223736	 0.4183226207	-0.157038
H	 0.8178189369	 2.0597888011	 0.2662487098	 0.123667
H	-0.333657609	 1.8197811565	-1.0597136486	 0.129674
H	-0.9074995201	 1.8261085255	 0.6199686572	 0.121142
H	-0.8221489611	-0.4973900755	-0.2166809009	 0.0843
H	 2.7655249968	-0.7790278869	 2.1712191221	 0.136075
H	 2.5742673157	 0.7047404498	 1.110255711	 0.123578
H	 0.232954778	-1.7458482041	 3.1240591288	 0.113419
H	-0.7687713226	-2.0893007816	 1.6917089256	 0.094845
H	 1.0752924608	-3.1047594437	-0.3704706937	 0.104748
H	 2.6877792731	-3.1839616052	 0.3955500651	 0.11512
152.5305	212.4471	221.6941	243.1522	292.7017	352.8692	433.9849	489.9481	569.8617	636.5266	664.0153	725.8187	841.6832	849.0312	859.9771	902.777	916.8515	952.265	973.8193	1030.0903	1039.2428	1053.3555	1065.1549	1092.5367	1128.1526	1167.5063	1210.9069	1224.2317	1230.9626	1272.4616	1305.7978	1356.0891	1358.1205	1385.8232	1389.4045	1413.6772	1471.7224	1482.1468	1493.3712	1506.1864	1516.585	2981.7384	2993.5568	3012.5591	3039.5469	3079.6365	3086.5184	3109.2958	3122.2862	3137.3029	3230.1832
CC1OC23CC12COC3	C[C@H]1O[C@@]23C[C@@]12COC3	
InChI=1S/C7H10O2/c1-5-6-2-7(6,9-5)4-8-3-6/h5H,2-4H2,1H3	InChI=1S/C7H10O2/c1-5-6-2-7(6,9-5)4-8-3-6/h5H,2-4H2,1H3/t5-,6-,7-/m1/s1
