20
gdb 94595	3.14653	0.92444	0.84968	2.9016	77.03	-0.2476	0.0257	0.2733	1449.839	0.169148	-440.305488	-440.295262	-440.294318	-440.343682	35.29	
C	-0.5562299487	 1.2729590068	 0.2237643839	-0.399704
C	 0.0613579848	-0.1035623094	 0.0792163802	 0.13812
O	 1.1268104531	-0.1371237179	-0.903921895	-0.290392
C	 2.1051076799	-0.5331383152	 0.0734144736	-0.098577
C	 1.0390083248	-0.6081253279	 1.1866222537	-0.029408
N	 1.2511829364	 0.1911510332	 2.3617151568	-0.3206
C	 0.9716538351	-0.2604798879	 3.6272289338	 0.408327
C	 1.2462775884	 0.7372839612	 4.7414148555	-0.487188
O	 0.5292353173	-1.3720764167	 3.8467576759	-0.366496
H	 0.1946309392	 2.0295369126	 0.4731855168	 0.103742
H	-1.0266638717	 1.5677539237	-0.7190014504	 0.133051
H	-1.3228781711	 1.2712593483	 1.005534604	 0.124506
H	-0.7145971357	-0.8377183946	-0.1737881523	 0.083637
H	 2.5986547397	-1.4769561582	-0.1863022131	 0.112111
H	 2.8755360457	 0.2362128287	 0.2272133492	 0.090992
H	 0.811979361	-1.6135502897	 1.5375407534	 0.13106
H	 1.6067235509	 1.1265706381	 2.2520032023	 0.244575
H	 1.8026056656	 1.6203232715	 4.4160078298	 0.112012
H	 0.2923887514	 1.0610454513	 5.1684552184	 0.154306
H	 1.8033189842	 0.2313391122	 5.5328439335	 0.155925
17.9344	28.8587	56.1091	85.07	183.9114	210.7517	251.2065	342.651	388.9151	410.9544	459.5727	539.9369	599.9922	636.5732	761.1431	838.6988	878.3062	904.7691	953.5349	994.5922	1018.3637	1038.2948	1050.8556	1077.6442	1095.3922	1149.6743	1157.7525	1203.2783	1257.2306	1268.2826	1286.2325	1350.0839	1374.3703	1383.0731	1397.1789	1407.2963	1469.2833	1480.301	1487.101	1494.2249	1524.8124	1537.5729	1785.3226	2994.9864	3017.4704	3035.4643	3048.7456	3052.4076	3107.5255	3113.6399	3120.6528	3137.3012	3138.1007	3643.7781	17.9335	28.8578	56.109	85.0698	183.9114	210.7506	251.2061	342.6511	388.9151	410.9544	459.5726	539.937	599.9922	636.5732	761.1431	838.6987	878.3063	904.7691	953.535	994.5923	1018.364	1038.295	1050.8555	1077.6444	1095.3924	1149.6744	1157.7524	1203.2783	1257.2307	1268.2827	1286.233	1350.0841	1374.3705	1383.0739	1397.1789	1407.2967	1469.2833	1480.3018	1487.1011	1494.2256	1524.8122	1537.5732	1785.3227	2994.9864	3017.4704	3035.4642	3048.7456	3052.4077	3107.5254	3113.6398	3120.6528	3137.3012	3138.1007	3643.778
CC1OCC1NC(C)=O	C[C@H]1OC[C@H]1NC(=O)C	
InChI=1S/C6H11NO2/c1-4-6(3-9-4)7-5(2)8/h4,6H,3H2,1-2H3,(H,7,8)	InChI=1S/C6H11NO2/c1-4-6(3-9-4)7-5(2)8/h4,6H,3H2,1-2H3,(H,7,8)/t4-,6-/m1/s1
