13
gdb 21198	5.52419	1.68261	1.30023	4.7118	63.79	-0.2392	-0.0722	0.1671	881.1409	0.096865	-390.94945	-390.94229	-390.941346	-390.981734	24.536	
C	-0.0171721913	 1.4523463182	 0.0121006162	-0.316536
N	 0.0324296366	 0.0024751908	-0.055386423	-0.343248
C	 0.604481065	-0.6858650149	-1.0543562527	 0.519964
N	 0.5796086574	-2.0303829162	-0.9920450078	-0.306709
C	 1.1706448377	-2.5946974466	-2.0263376349	 0.113475
N	 1.7516708208	-1.9642162641	-3.0594450379	-0.2028
N	 1.7320671368	-0.6404719968	-3.0430508303	-0.056414
N	 1.1709973369	 0.024566064	-2.0630436539	-0.254353
H	 0.9884921895	 1.8826040035	 0.0245037689	 0.154336
H	-0.5519211002	 1.8706052005	-0.8456897646	 0.1542
H	-0.5371918905	 1.7345884792	 0.9286892115	 0.133095
H	-0.3784701312	-0.5538803359	 0.6764773613	 0.265688
H	 1.1986474824	-3.6813909917	-2.0609660328	 0.139304
46.9821	108.399	176.6875	216.532	345.1593	479.1501	492.1167	577.0712	615.7941	712.1138	856.3296	869.1355	1000.6076	1012.213	1042.6336	1102.099	1145.8501	1160.0858	1177.6696	1300.7065	1362.1708	1428.0564	1458.2072	1478.482	1503.9236	1519.3667	1587.2675	1627.5241	3046.543	3105.9319	3144.2676	3167.9432	3651.5971
CNC1=NC=NN=N1	CNc1ncnnn1	
InChI=1S/C3H5N5/c1-4-3-5-2-6-8-7-3/h2H,1H3,(H,4,5,6,7)	InChI=1S/C3H5N5/c1-4-3-5-2-6-8-7-3/h2H,1H3,(H,4,5,6,7)
