22
gdb 110028	1.90132	1.54908	1.05248	2.3797	82.17	-0.2097	-0.0176	0.192	1262.2791	0.193786	-404.370229	-404.360603	-404.359659	-404.40494	35.799	
C	-0.0527886435	 1.4580304106	 0.4232168339	-0.390378
C	 0.0796171694	-0.0436571215	 0.1708297517	-0.166504
C	 0.6694364847	-0.3621117816	-1.2169048869	-0.090004
N	 2.0591272839	 0.0958806172	-1.3697147278	-0.064563
C	 2.335326626	 0.6986183415	-2.6693170936	-0.333115
C	 2.915025365	-1.07611069	-1.0846081178	-0.186421
C	 2.1525611087	-2.3092423349	-1.5976267594	-0.330834
C	 0.6902983123	-1.8871720849	-1.4473848245	 0.402066
O	-0.2773372041	-2.6024401756	-1.477495091	-0.320101
H	 0.9186245162	 1.948863153	 0.3161160983	 0.129455
H	-0.7461142044	 1.9188899842	-0.2897431594	 0.11004
H	-0.4301343714	 1.6568954493	 1.4309334896	 0.112039
H	 0.7172523006	-0.4942239612	 0.9420725379	 0.09507
H	-0.8937738244	-0.5416861848	 0.239690795	 0.117013
H	 0.0301111134	 0.0991745179	-1.978870799	 0.093519
H	 1.6894022625	 1.5698262557	-2.8112411408	 0.125936
H	 3.3723425918	 1.0470030647	-2.6962791042	 0.121183
H	 2.1821962797	 0.023160832	-3.5319599365	 0.093268
H	 3.8955730128	-0.944395788	-1.5465356704	 0.108197
H	 3.0731090473	-1.1540078368	-0.0021511109	 0.11036
H	 2.3454769056	-2.4892566253	-2.6625270396	 0.13382
H	 2.3522975779	-3.2423500113	-1.0665761244	 0.129956
53.2526	107.3678	146.2435	169.1908	201.1589	230.0299	279.1279	308.6228	399.143	451.9045	507.6305	531.4762	607.8592	644.5368	747.9525	806.1785	827.2409	871.0005	908.43	960.5832	998.7681	1007.9577	1056.2264	1092.8074	1111.155	1123.2588	1139.7136	1164.6933	1209.2687	1213.2688	1257.7193	1270.9928	1292.7404	1311.7191	1351.5963	1366.8617	1379.0367	1403.6269	1448.9322	1463.7789	1483.4788	1495.695	1497.1912	1504.9069	1508.6173	1512.7093	1844.3612	2931.3759	3023.8032	3030.5099	3033.1249	3041.6746	3043.6546	3065.0972	3074.5986	3099.8274	3104.7114	3110.277	3115.501	3118.1734
CCC1N(C)CCC1=O	CC[C@H]1N(C)CCC1=O	
InChI=1S/C7H13NO/c1-3-6-7(9)4-5-8(6)2/h6H,3-5H2,1-2H3	InChI=1S/C7H13NO/c1-3-6-7(9)4-5-8(6)2/h6H,3-5H2,1-2H3/t6-/m1/s1
