16
gdb 125630	7.0342	0.81867	0.73667	11.1783	88.47	-0.1831	-0.0566	0.1265	1495.2645	0.125256	-430.248132	-430.239018	-430.238074	-430.282604	31.637	
C	 0.0009776587	 1.4617980959	-0.0095788012	-0.488496
C	-0.0174218444	-0.0310586519	 0.0404555154	 0.330774
N	-0.1624926701	-0.7870940323	-1.0641767353	-0.281384
N	-0.1329164861	-2.0833269651	-0.6454136208	-0.322877
C	 0.0263782035	-1.976155544	 0.6649022915	 0.374184
N	 0.1086584739	-0.7484465153	 1.18439876	-0.420083
N	 0.1087709119	-3.1090059673	 1.5030166875	-0.32241
H	 0.232161688	-2.8794406822	 2.4836642804	 0.283187
C	 0.0376984992	-4.3416569717	 1.0936080049	 0.198426
N	 0.1167616584	-5.4204662266	 1.8840056624	-0.515793
H	 0.9426846101	 1.8645500607	 0.3801453561	 0.117202
H	-0.1187510867	 1.7927539644	-1.0432995665	 0.129839
H	-0.8070668967	 1.8931098404	 0.5920114006	 0.117193
H	-0.0951053804	-4.4754569823	 0.0246667491	 0.2128
H	 0.0488009858	-6.3383263661	 1.4822140232	 0.300494
H	 0.2380879452	-5.3546215664	 2.8812567929	 0.286945
76.0569	92.2624	122.0758	123.0965	162.0293	258.9787	310.6447	382.7196	407.7891	480.6563	501.741	698.8865	714.0532	716.1821	785.2926	811.2193	996.7502	1029.8535	1036.1883	1048.755	1064.2224	1087.183	1122.0198	1289.2777	1314.6514	1347.1573	1389.168	1393.2209	1433.9288	1475.8264	1480.6517	1495.3766	1548.0758	1652.5797	1757.3522	3030.4946	3079.1835	3131.291	3211.8214	3561.4397	3617.379	3743.4945
CC1=N[N-]C(=N1)[NH+]=CN	Cc1nnc(n1)NC=[NH2]	
InChI=1S/C4H6N5/c1-3-7-4(6-2-5)9-8-3/h2H,1H3,(H2-,5,6,7,8,9)/q-1/p+1	InChI=1S/C4H8N5/c1-3-7-4(6-2-5)9-8-3/h2H,5H2,1H3,(H2,6,7,8,9)
