18
gdb 54764	2.81742	1.31749	1.24374	2.8882	72.95	-0.2359	0.0235	0.2593	1098.2388	0.146996	-439.060873	-439.052396	-439.051452	-439.094231	32.545	
C	 0.451112377	 1.1792506725	 0.6620881161	-0.513322
C	 0.0740999588	-0.1463203569	 0.0831132829	 0.383994
C	 0.53659092	-0.8465777573	-1.2221596884	-0.259078
C	-0.2587189954	-1.8566323436	-0.3706092743	 0.028347
O	 0.4901276609	-1.3871355486	 0.8232537381	-0.352315
C	-1.3457587365	-0.7758833838	-0.120663479	-0.104267
C	-2.3486817628	-0.8893656286	 1.021899269	 0.361266
N	-1.8461338031	-1.2365743632	 2.2362033549	-0.533236
O	-3.5286347165	-0.6586354628	 0.8241106556	-0.369347
H	 1.5369645653	 1.2539669862	 0.7725093742	 0.137245
H	 0.1110355657	 1.9842177078	 0.0035014899	 0.137344
H	-0.0146876053	 1.3146640204	 1.6425093285	 0.14294
H	 0.1018573114	-0.5101968436	-2.1657608919	 0.105868
H	 1.6080807468	-1.0408227152	-1.282946944	 0.111361
H	-0.3771153936	-2.932569963	-0.4921199986	 0.106358
H	-1.8902765017	-0.4378374991	-1.0033454761	 0.096843
H	-0.8728075457	-1.493202095	 2.311031717	 0.267016
H	-2.4949636649	-1.3787293664	 2.992640406	 0.252983
43.6425	136.8529	198.8066	254.0656	300.4023	325.5482	389.4173	390.8988	416.814	577.4601	610.429	659.3127	670.3808	722.4101	762.2757	812.255	870.2835	910.1889	920.2611	945.23	1021.4705	1025.0503	1049.1799	1098.7663	1125.8865	1133.7768	1170.0969	1201.9255	1224.2585	1241.9599	1320.9484	1362.964	1372.0193	1413.5691	1476.9564	1488.6613	1493.6308	1583.3317	1789.0178	3042.8412	3070.5168	3112.0088	3119.0533	3121.0584	3132.4853	3152.4028	3551.7289	3711.3116
CC12CC(O1)C2C(N)=O	C[C@@]12C[C@@H](O1)[C@H]2C(=O)N	
InChI=1S/C6H9NO2/c1-6-2-3(9-6)4(6)5(7)8/h3-4H,2H2,1H3,(H2,7,8)	InChI=1S/C6H9NO2/c1-6-2-3(9-6)4(6)5(7)8/h3-4H,2H2,1H3,(H2,7,8)/t3-,4+,6+/m1/s1
