19
gdb 83287	2.79923	1.46216	1.31449	2.4594	70.9	-0.2329	0.0748	0.3077	1061.0338	0.159204	-460.145691	-460.137295	-460.13635	-460.178447	32.266	
C	 0.0577439251	 1.5049186049	 0.0239103347	-0.409539
C	 0.0753927516	-0.0066017882	-0.0132693958	 0.206954
O	 0.6167969403	-0.4230716688	-1.2364890387	-0.248121
C	 0.5191916981	-1.8352992653	-1.4263957624	-0.10161
C	 0.8855861982	-2.6273077069	-0.1850847037	-0.153993
C	 2.2267527698	-2.4410524106	 0.497406482	 0.1132
O	 3.1800766976	-1.5812450733	-0.031825856	-0.425996
C	 0.9838082022	-1.8626501543	 1.1258930308	 0.014293
O	 0.8878225478	-0.4631381389	 1.0614550986	-0.26662
H	 1.0714322196	 1.8888196631	-0.1161198886	 0.133524
H	-0.5782079783	 1.8882288229	-0.776931527	 0.12992
H	-0.3240788491	 1.8510073306	 0.9867969669	 0.129709
H	-0.9372796142	-0.4303606308	 0.109284279	 0.066543
H	-0.5087590915	-2.0903791846	-1.7272384638	 0.09822
H	 1.1884743425	-2.0675827759	-2.2594387772	 0.126716
H	 0.4422115547	-3.617469439	-0.1371006928	 0.095875
H	 2.6771956212	-3.3122669179	 0.9637062976	 0.101353
H	 2.8283285747	-0.6853203599	 0.0682371902	 0.292275
H	 0.5752208798	-2.2787673571	 2.043075496	 0.097297
115.7661	130.7877	192.9241	214.3038	250.6294	299.7701	332.624	448.7391	502.0076	535.8702	590.9241	638.3168	740.6231	778.8936	808.8009	850.7918	882.2619	918.3108	993.1512	1011.5632	1060.5151	1077.6929	1100.2996	1116.8865	1122.6343	1151.2452	1175.3703	1186.491	1230.1043	1286.2572	1336.9918	1339.0794	1366.5541	1388.7778	1398.4693	1410.1747	1431.0322	1458.7606	1481.5311	1487.5883	1498.3394	2947.0719	2984.9188	3058.5356	3086.5051	3131.9765	3138.1857	3143.6139	3148.4456	3159.7758	3741.7362
CC1OCC2C(O)C2O1	C[C@H]1OC[C@H]2[C@@H](O)[C@H]2O1	
InChI=1S/C6H10O3/c1-3-8-2-4-5(7)6(4)9-3/h3-7H,2H2,1H3	InChI=1S/C6H10O3/c1-3-8-2-4-5(7)6(4)9-3/h3-7H,2H2,1H3/t3-,4-,5+,6-/m0/s1
