18
gdb 71109	2.54745	2.00933	1.56338	2.4637	73.89	-0.2375	-0.0203	0.2172	917.9558	0.149705	-401.96461	-401.957431	-401.956487	-401.995894	28.875	
C	-0.0272830986	 1.5104466297	 0.0368298385	-0.484214
C	 0.0484112381	 0.0022664309	 0.0233333798	 0.129773
C	 0.6919918543	-0.7216663244	-1.1897381278	-0.272684
C	 0.4733806569	-2.1498062073	-0.6894219537	-0.032164
C	-0.8040016326	-2.1822766475	 0.1024560954	-0.165852
N	 0.5240093098	-2.1676682572	 0.7786428328	-0.12377
C	 0.7516720152	-0.7433961111	 1.1751609336	-0.191248
C	-1.2980686996	-0.7629733864	 0.0713256961	 0.436571
O	-2.417440077	-0.3279737364	 0.0713939842	-0.341918
H	 0.9690606542	 1.9600449221	-0.024076028	 0.114982
H	-0.6207335984	 1.878638114	-0.8054605072	 0.131357
H	-0.5071308986	 1.867968046	 0.9530829487	 0.129421
H	 0.1716823307	-0.5163239331	-2.1302697346	 0.116531
H	 1.7521668795	-0.4767328505	-1.3132378333	 0.109087
H	 0.8436887241	-3.0245433856	-1.2104677651	 0.105484
H	-1.4433113299	-3.0464222833	 0.2215762114	 0.111119
H	 1.8271011391	-0.548902006	 1.2319260555	 0.110365
H	 0.3023266028	-0.5557776437	 2.1552944236	 0.117157
139.0541	176.7465	230.8708	296.8318	384.3803	428.5496	485.2288	603.4372	620.7092	675.973	726.4483	778.5582	795.9474	835.8473	864.6104	905.7764	932.3225	946.3963	987.1719	1015.1919	1036.6936	1058.4423	1107.7955	1136.775	1172.1062	1194.2952	1202.6957	1211.2542	1257.931	1280.2331	1288.2646	1337.4447	1379.304	1419.4153	1487.8866	1491.9999	1493.6134	1510.752	1869.3928	3037.6296	3045.4038	3050.637	3095.0463	3100.2483	3105.9321	3109.5241	3187.1831	3214.7657
CC12CC3C(N3C1)C2=O	C[C@@]12C[C@@H]3[C@@H](N3C1)C2=O	
InChI=1S/C7H9NO/c1-7-2-4-5(6(7)9)8(4)3-7/h4-5H,2-3H2,1H3	InChI=1S/C7H9NO/c1-7-2-4-5(6(7)9)8(4)3-7/h4-5H,2-3H2,1H3/t4-,5-,7-,8?/m1/s1
