15
gdb 18336	3.50691	2.26579	1.58896	2.8236	60.6	-0.2442	0.0233	0.2676	789.229	0.121599	-399.822338	-399.815888	-399.814944	-399.8532	24.264	
O	-0.0617538195	 0.0264514234	 0.2914744275	-0.383857
C	-0.0438697472	 1.2232718019	 0.1043039872	 0.408883
N	-1.1352543462	 2.0492139781	 0.0568130032	-0.309027
C	-0.8805830389	 3.4452148766	-0.2505498735	-0.186439
C	 0.6497787946	 3.5426020988	-0.1650257951	 0.125791
O	 1.120632858	 3.8230793665	 1.1701008601	-0.290648
C	 1.828575256	 2.5629953459	 1.2353680737	-0.078248
C	 1.1915522564	 2.102332681	-0.0925875666	-0.202443
H	-2.0601024527	 1.6654688001	 0.1691004512	 0.254206
H	-1.2443959403	 3.7150285512	-1.2513570539	 0.108025
H	-1.3385096776	 4.1214947657	 0.4797447285	 0.128876
H	 1.0745381993	 4.2348892784	-0.8982579353	 0.084639
H	 2.9147896149	 2.7061215668	 1.1871073731	 0.108184
H	 1.5757450199	 1.9846374789	 2.1299675933	 0.125083
H	 1.8508718532	 1.7093326668	-0.8646579735	 0.106975
97.3698	158.9605	243.1779	365.0113	459.1851	522.8813	600.134	712.799	743.3455	796.631	834.6448	882.783	910.179	982.8303	1008.2594	1017.5953	1068.0375	1083.7533	1088.2667	1155.9872	1216.3361	1218.9255	1259.5385	1260.6322	1298.2251	1314.9095	1359.6649	1377.3659	1448.1678	1516.54	1526.8041	1827.458	3008.0709	3024.6017	3061.3903	3067.3732	3080.0695	3133.3292	3644.7156
O=C1NCC2OCC12	O=C1NC[C@H]2OC[C@@H]12	
InChI=1S/C5H7NO2/c7-5-3-2-8-4(3)1-6-5/h3-4H,1-2H2,(H,6,7)	InChI=1S/C5H7NO2/c7-5-3-2-8-4(3)1-6-5/h3-4H,1-2H2,(H,6,7)/t3-,4-/m1/s1
