18
gdb 93639	3.20783	1.27041	1.03082	4.0008	72.17	-0.2737	0.0091	0.2828	1168.9323	0.147546	-439.09941	-439.090508	-439.089564	-439.133111	32.707	
C	-0.4390267193	 1.4679820848	 0.0153340278	-0.417944
C	 0.1959510882	 0.0806738812	-0.0184124343	-0.004313
C	 1.3604495172	-0.0824118817	-1.0010865236	-0.080586
O	 2.0418189715	-1.2771220802	-0.5954280833	-0.268064
C	 1.7566618842	-1.5359462026	 0.771140457	-0.02375
C	 2.993399504	-1.6502644254	 1.5584447631	 0.262485
N	 3.9304174731	-1.7160452614	 2.2318981557	-0.325544
C	 0.8642883595	-0.3680446701	 1.292013525	 0.069144
O	 1.6189251457	 0.7137606827	 1.7900297939	-0.424791
H	 0.2942458713	 2.223962554	 0.3028298031	 0.146594
H	-0.8425605318	 1.7288530399	-0.9681261298	 0.118505
H	-1.2634069803	 1.5055305545	 0.7337882171	 0.121593
H	-0.5652637321	-0.6699703322	-0.2660716414	 0.086709
H	 1.0411872592	-0.2209319713	-2.0374043401	 0.115192
H	 2.0395799057	 0.7785505989	-0.9479541328	 0.116743
H	 1.2159168984	-2.4894761024	 0.8543367015	 0.124056
H	 0.1453459697	-0.7354658524	 2.0367567261	 0.081107
H	 2.1922264158	 0.4009652336	 2.4997230751	 0.302865
63.2078	135.4564	168.4999	201.894	235.6692	262.2217	322.2573	347.0208	385.9725	468.3728	557.8586	581.1647	624.7331	811.5629	825.5761	857.1615	931.9891	954.0754	966.8113	1008.708	1029.0762	1078.1765	1130.3711	1148.5905	1178.2068	1206.7856	1257.814	1286.3593	1318.8855	1332.5234	1360.8487	1367.7031	1395.9029	1408.9844	1427.403	1494.9096	1502.6736	1518.3556	2354.2428	3003.1965	3014.5227	3023.4773	3035.2916	3045.4117	3096.4638	3106.9905	3137.7549	3794.1007
CC1COC(C#N)C1O	C[C@H]1CO[C@@H](C#N)[C@H]1O	
InChI=1S/C6H9NO2/c1-4-3-9-5(2-7)6(4)8/h4-6,8H,3H2,1H3	InChI=1S/C6H9NO2/c1-4-3-9-5(2-7)6(4)8/h4-6,8H,3H2,1H3/t4-,5-,6-/m0/s1
