18
gdb 22360	2.30561	1.32783	0.88778	1.4391	82.31	-0.221	-0.0288	0.1922	1301.7406	0.146506	-439.06722	-439.057998	-439.057053	-439.101759	33.989	
C	-0.0175788227	 1.4862465455	 0.0687617906	-0.487514
C	-0.0012357465	-0.0031825514	-0.0245045659	 0.307618
C	-0.0404914972	-0.7452234319	-1.1466028405	-0.258375
C	 0.0031504325	-2.1602982384	-0.8221104994	 0.363859
N	 0.036609257	-3.2055364411	-1.5573380426	-0.261403
O	 0.0401762265	-2.8839528147	-2.9257876341	-0.393795
C	 0.0612009282	-2.3216798524	 0.6952191271	 0.049886
O	 1.2363223231	-2.9949177775	 1.1177734083	-0.434486
C	 0.0760937922	-0.8677433158	 1.2152667759	-0.322587
H	 0.8854280203	 1.854284698	 0.5723973364	 0.137347
H	-0.0792501596	 1.9563583896	-0.91568131	 0.131447
H	-0.8678292734	 1.8307496549	 0.6712230858	 0.133983
H	-0.084143769	-0.367812146	-2.1589381244	 0.115982
H	 0.0440766684	-3.7529409818	-3.3402898575	 0.305254
H	-0.831403388	-2.8588855225	 1.0474319767	 0.081976
H	 1.3451666653	-3.7465693673	 0.522757585	 0.288064
H	 1.0035871515	-0.6915286154	 1.7729853829	 0.131537
H	-0.7518963188	-0.6572991219	 1.9026954257	 0.111207
35.3373	131.157	170.2614	186.0794	217.981	285.5976	350.2865	363.9879	397.1643	434.6547	455.882	537.8988	581.1869	640.3652	747.6657	853.4752	877.9149	889.9915	934.8088	978.2309	1004.1792	1030.3599	1045.2946	1105.7196	1170.0274	1200.2752	1229.5647	1255.3156	1303.559	1335.4795	1361.5626	1396.8131	1413.0006	1414.4863	1468.8705	1476.7894	1481.4133	1674.8751	1729.686	2990.757	3019.012	3034.5141	3065.3245	3069.3038	3119.2734	3232.5249	3789.1038	3821.8061
CC1=CC(=NO)C(O)C1	CC1=CC(=NO)[C@@H](O)C1	
InChI=1S/C6H9NO2/c1-4-2-5(7-9)6(8)3-4/h2,6,8-9H,3H2,1H3	InChI=1S/C6H9NO2/c1-4-2-5(7-9)6(8)3-4/h2,6,8-9H,3H2,1H3/t6-/m0/s1
