25
gdb 113214	3.13635	0.9291	0.81869	0.1763	93.54	-0.246	0.0921	0.3381	1564.2844	0.227846	-352.339273	-352.328897	-352.327953	-352.374802	39.357	
C	-0.3220187074	 1.5240133499	-0.4272343888	-0.368372
C	-0.1548009433	 0.1520205885	 0.2380441481	-0.206546
C	-1.3987488285	-0.704701389	 0.112161793	-0.005428
C	-1.668350316	-1.5427213042	-1.1178410726	-0.345666
C	-1.4209276157	-2.2182614135	 0.2139160546	 0.308637
C	-0.1247253639	-2.9930361473	 0.3892556245	-0.458103
C	-2.5653024407	-2.851511397	 0.9634525533	-0.037827
C	-4.0162239	-2.6520728783	 0.612446015	-0.285466
C	-3.3610500374	-3.9899999031	 0.3701694809	-0.264392
H	 0.5830141527	 2.1307251446	-0.3218150514	 0.107321
H	-0.5359743842	 1.4180078529	-1.495987213	 0.116912
H	-1.1515832096	 2.0819132455	 0.0211364752	 0.112387
H	 0.7054588881	-0.3599735776	-0.2069917996	 0.093352
H	 0.089813823	 0.2907014477	 1.2997815757	 0.094185
H	-2.2856014004	-0.2319533198	 0.5312452396	 0.07762
H	-2.6627597984	-1.5390099323	-1.5509803112	 0.105631
H	-0.8745371922	-1.6166257473	-1.8558499501	 0.101273
H	 0.7020456717	-2.5580586112	-0.1775528898	 0.111157
H	 0.1756131148	-3.0289496973	 1.4435003244	 0.110657
H	-0.2523671017	-4.0267522458	 0.0489981446	 0.116705
H	-2.3660768486	-2.9406224912	 2.0302218808	 0.078041
H	-4.7258978182	-2.56527292	 1.4280628162	 0.107829
H	-4.271217382	-2.0506390415	-0.2529605438	 0.111727
H	-3.150311132	-4.2579825736	-0.6600445795	 0.111283
H	-3.63388808	-4.8269345491	 1.0035241441	 0.107085
56.2579	71.6582	139.8115	145.574	203.967	234.8948	268.4057	277.309	324.4401	346.1998	437.711	459.5437	566.2744	655.8905	765.0977	784.0684	810.5388	829.6351	847.9681	905.5335	915.2543	937.3435	949.5643	966.3395	1006.8578	1050.3393	1056.1334	1058.6911	1079.9613	1090.1225	1106.1754	1127.5958	1143.4221	1156.6511	1195.473	1198.9455	1221.445	1264.0329	1295.4845	1318.1344	1350.2024	1406.1768	1407.5044	1416.2059	1428.7793	1464.8419	1481.0202	1490.584	1494.8433	1497.8961	1504.6519	1508.5204	1512.2181	3015.8924	3025.3511	3030.1802	3058.5539	3081.3466	3097.9001	3102.7991	3112.2697	3113.3311	3118.2936	3122.9488	3129.9464	3137.4864	3203.1629	3208.1278	3222.8456
CCC1CC1(C)C1CC1	CC[C@H]1C[C@]1(C)C1CC1	
InChI=1S/C9H16/c1-3-7-6-9(7,2)8-4-5-8/h7-8H,3-6H2,1-2H3	InChI=1S/C9H16/c1-3-7-6-9(7,2)8-4-5-8/h7-8H,3-6H2,1-2H3/t7-,9-/m0/s1
