19
gdb 49308	3.14028	1.15416	0.89047	3.0075	80.9	-0.2491	-0.0547	0.1944	1288.6253	0.160266	-423.047903	-423.039634	-423.03869	-423.081058	31.202	
O	-0.1792316121	 0.009411027	-0.2290738046	-0.277083
C	-0.0292031255	 1.210239349	-0.2286018516	 0.096556
C	 1.2580239572	 1.9031450579	 0.0005012187	 0.21511
C	 1.22901454	 3.2457655528	-0.0253342301	-0.13209
C	 2.3885890828	 4.1837466059	 0.1596799697	-0.26635
C	 3.3385501583	 3.8463909364	 1.3193210912	-0.070234
O	 4.0946258883	 2.6714739826	 1.1285530281	-0.239213
C	 3.3961447071	 1.4600310435	 1.3601729997	-0.081156
C	 2.4765547319	 1.0390720061	 0.2126359785	-0.31375
H	-0.8893050443	 1.8949510667	-0.4047349968	 0.069753
H	 0.2636024145	 3.7116651071	-0.2229865641	 0.098567
H	 2.9823098751	 4.2102284157	-0.7659739679	 0.133786
H	 2.0136444691	 5.2021835943	 0.3120114252	 0.109199
H	 4.067616061	 4.6574368484	 1.4190778758	 0.109107
H	 2.7671837559	 3.7876756604	 2.2599092957	 0.091689
H	 4.1705984613	 0.6978735915	 1.4929398741	 0.110219
H	 2.8231467241	 1.5268268731	 2.299034219	 0.090994
H	 2.1325702613	 0.0139696303	 0.3856208306	 0.132345
H	 3.0719600338	 1.0162409915	-0.7102240414	 0.122552
73.2592	125.4363	193.0619	234.3316	268.2266	347.9735	370.9964	408.5079	464.6034	556.0311	561.145	679.431	750.4979	822.567	867.1816	897.4891	935.2108	969.5136	1025.0826	1041.0851	1068.951	1087.847	1093.8122	1147.3139	1173.5225	1228.5675	1244.4097	1313.012	1324.5354	1353.4285	1366.8409	1387.4833	1409.992	1427.5307	1438.3179	1459.7434	1467.9534	1484.6961	1498.1693	1703.4073	1789.6661	2875.5391	2973.862	2980.6803	3009.1164	3022.6231	3064.9185	3071.5473	3076.8942	3085.3813	3127.1271
O=CC1=CCCOCC1	O=CC1=CCCOCC1	
InChI=1S/C7H10O2/c8-6-7-2-1-4-9-5-3-7/h2,6H,1,3-5H2	InChI=1S/C7H10O2/c8-6-7-2-1-4-9-5-3-7/h2,6H,1,3-5H2
