21
gdb 77509	2.46957	1.55705	1.39917	1.4187	83.04	-0.2331	0.0037	0.2367	1079.3242	0.181753	-387.07194	-387.063216	-387.062272	-387.104339	35.279	
C	-0.0382705044	 1.5787003759	-0.0084756333	-0.512176
C	-0.0281789498	 0.0675432088	-0.0162234895	 0.246797
C	 0.3761215915	-0.7946099062	-1.2631368925	-0.284496
C	-0.3472195199	-1.939149957	-0.4704629179	 0.246804
C	-0.8038038674	-3.2357651632	-1.0982212941	-0.512185
C	 0.5414878292	-1.9785895562	 0.7854067595	-0.149655
C	 0.7463955786	-0.6892745388	 1.0773130426	-0.149661
C	-1.3507061597	-0.7971555374	-0.0389796518	 0.116519
O	-2.1532849202	-0.9251989079	 1.0902450039	-0.444049
H	 0.9765414072	 1.9886344027	-0.0641058736	 0.115809
H	-0.6047544424	 1.9744301031	-0.8576661117	 0.115135
H	-0.5033362274	 1.9608939742	 0.9071461576	 0.122761
H	-0.1450211036	-0.5036467901	-2.1825727637	 0.088944
H	 1.4450774796	-0.9232316008	-1.4456690223	 0.093705
H	 0.0459106168	-3.8643311009	-1.3878292103	 0.115802
H	-1.4220416429	-3.8107260867	-0.3997040007	 0.122776
H	-1.4029258799	-3.0508230499	-1.9957057475	 0.115132
H	 0.8974944295	-2.8696173868	 1.285531527	 0.099886
H	 1.3153673019	-0.2403923212	 1.8807876816	 0.099884
H	-2.0155709469	-0.505861986	-0.8587593237	 0.081085
H	-1.56515075	-1.1825979956	 1.8141939103	 0.271181
181.6894	182.1896	205.9127	213.07	230.7752	294.4644	341.6272	385.0301	484.8381	490.6505	580.2079	589.0938	599.3179	634.4794	738.0025	800.3522	804.5926	819.7519	851.9236	894.181	912.49	916.4541	1000.3193	1036.2697	1062.1401	1096.2873	1121.9838	1148.8441	1169.4374	1171.9018	1195.2327	1216.9791	1238.5761	1291.9266	1331.8661	1359.2752	1412.7617	1416.1403	1445.4853	1492.3791	1493.1913	1494.2872	1494.5698	1499.7647	1619.6622	3026.3846	3026.4958	3037.7084	3068.3009	3089.8805	3089.9307	3097.5583	3097.62	3117.3773	3203.7237	3231.2509	3733.7564
CC12CC(C)(C=C1)C2O	C[C@@]12C[C@@](C)(C=C1)[C@H]2O	
InChI=1S/C8H12O/c1-7-3-4-8(2,5-7)6(7)9/h3-4,6,9H,5H2,1-2H3	InChI=1S/C8H12O/c1-7-3-4-8(2,5-7)6(7)9/h3-4,6,9H,5H2,1-2H3/t6-,7-,8+
