16
gdb 17045	5.22295	1.30544	1.23836	3.0167	65.6	-0.2579	-0.0119	0.2459	1012.7419	0.129202	-383.680886	-383.673431	-383.672487	-383.712825	27.605	
C	 0.0163820877	 1.5344671402	-0.121314396	-0.381264
C	-0.0023108606	 0.0291446722	 0.1660779907	-0.221683
C	-1.408599789	-0.5546019778	 0.1339845258	 0.02553
C	-2.0498730755	-0.847975947	-1.2572972901	-0.090471
O	-1.1325995352	-2.0103910518	-1.4032428792	-0.300558
C	-1.5540929547	-2.1005658125	 0.0220607377	-0.104661
C	-2.9790937613	-1.8710980214	-0.5499554666	 0.479569
O	-4.0808088087	-2.3078559107	-0.5507584335	-0.308783
H	 1.0347185958	 1.9299653622	-0.0643783175	 0.120786
H	-0.3689389346	 1.7538555334	-1.1226942787	 0.119636
H	-0.5963828122	 2.087608651	 0.5990659636	 0.117321
H	 0.6208145123	-0.5038798608	-0.5572534639	 0.123957
H	 0.4273034858	-0.159840264	 1.1577665432	 0.102786
H	-2.0753381149	-0.0737327196	 0.8598377254	 0.089077
H	-2.1912576375	-0.2042590661	-2.1227973666	 0.114698
H	-1.1214963274	-2.8942495673	 0.6277655757	 0.11406
97.5681	129.5697	169.3121	229.3795	317.2368	366.4072	487.534	546.2893	682.2006	734.8704	783.403	788.0312	803.4062	858.141	911.0035	958.5942	973.1141	1045.9354	1066.4574	1096.9108	1117.3195	1144.1396	1147.8588	1196.2276	1198.3413	1254.6969	1288.9525	1346.8996	1404.7255	1416.0483	1487.8442	1500.7862	1505.1165	1939.3778	3031.6753	3034.4879	3043.9418	3086.3576	3107.9633	3109.618	3150.1852	3155.0146
CCC1C2OC1C2=O	CC[C@H]1[C@H]2O[C@@H]1C2=O	
InChI=1S/C6H8O2/c1-2-3-5-4(7)6(3)8-5/h3,5-6H,2H2,1H3	InChI=1S/C6H8O2/c1-2-3-5-4(7)6(3)8-5/h3,5-6H,2H2,1H3/t3-,5+,6-
