16
gdb 56949	2.20705	1.25982	0.97316	3.6453	75.48	-0.2615	0.0083	0.2697	1233.8227	0.122261	-400.704346	-400.695104	-400.69416	-400.73898	33.546	
O	-0.464328606	 1.1633799519	 0.0835516017	-0.408134
C	 0.1120754602	-0.1111721853	-0.1400750047	-0.035863
C	 0.9966081694	-0.0865633379	-1.3259841311	 0.259729
N	 1.7088934916	-0.0303927474	-2.2339950087	-0.31883
C	 0.8624433222	-0.6513502209	 1.0638491782	-0.030213
C	 0.0859617468	-1.1010437878	 2.2644660031	-0.30952
C	 0.7992952711	-2.1368620788	 1.411066703	-0.183529
C	 0.0430777398	-3.0508861949	 0.6046617383	 0.317162
C	-0.587963761	-3.8206003539	-0.0709135045	-0.446667
H	 0.2455248039	 1.7929946724	 0.2548235724	 0.293824
H	-0.7272913536	-0.7769878483	-0.3639448644	 0.148785
H	 1.8243781787	-0.1786428564	 1.2410261778	 0.109605
H	 0.4894097327	-0.8924982964	 3.2483812889	 0.128932
H	-0.9956495506	-1.0726398328	 2.2003474555	 0.142432
H	 1.7156118935	-2.5485612949	 1.822963122	 0.126457
H	-1.1397129488	-4.5040195385	-0.6678935175	 0.205829
39.2662	105.064	136.4862	200.3819	223.6645	264.7967	301.3477	347.016	426.6458	517.9992	534.3131	573.5926	601.3199	645.9529	665.0264	776.8309	830.3433	851.6252	928.5758	973.3679	1017.0777	1060.645	1075.9309	1119.2677	1125.8249	1161.8542	1220.3781	1270.1742	1307.9362	1375.8383	1415.8069	1420.9836	1487.3011	2237.5165	2356.5487	3077.7971	3144.7788	3148.5927	3157.7368	3235.9688	3503.105	3801.8895
OC(C#N)C1CC1C#C	O[C@@H](C#N)[C@H]1C[C@H]1C#C	
InChI=1S/C7H7NO/c1-2-5-3-6(5)7(9)4-8/h1,5-7,9H,3H2	InChI=1S/C7H7NO/c1-2-5-3-6(5)7(9)4-8/h1,5-7,9H,3H2/t5-,6+,7+/m1/s1
