21
gdb 94993	2.69471	1.69154	1.29561	1.3741	80.81	-0.2458	0.0784	0.3242	1043.7832	0.185919	-387.07273	-387.065269	-387.064325	-387.104202	31.101	
O	-0.0904744053	 1.4458730608	 0.0508550268	-0.447947
C	 0.0367192638	 0.0275721363	 0.008894027	 0.139924
C	 0.8962998813	-0.4884803611	 1.1701454361	-0.24459
C	 0.8574778595	-2.0222580986	 1.317580322	-0.239771
C	-0.4928026459	-2.6526693236	 1.0088246124	-0.002695
C	-1.8743862567	-2.1855839141	 1.4171265949	-0.071375
C	-2.0349190359	-0.6649877386	 1.4793310342	-0.246046
C	-1.3721363953	-0.5552675986	 0.0647522284	-0.012864
C	-1.4056729669	-2.0954233972	-0.0414861663	-0.104601
H	 0.7934398961	 1.8215908979	 0.1179834251	 0.276517
H	 0.491570532	-0.2833216977	-0.9485894656	 0.056927
H	 1.9351579783	-0.1599449824	 1.036625644	 0.07894
H	 0.537663546	-0.0070906224	 2.0850681932	 0.111526
H	 1.5834238336	-2.4675554061	 0.6237787347	 0.097964
H	 1.1922627297	-2.3014035547	 2.3241049539	 0.097519
H	-0.4484101902	-3.7402663865	 0.9893443794	 0.080768
H	-2.5738722105	-2.893593497	 1.8476433381	 0.078675
H	-3.0893140848	-0.3822049762	 1.4284806371	 0.100187
H	-1.5795174707	-0.1247037898	 2.3131934825	 0.096334
H	-2.004410766	-0.041778896	-0.6612353641	 0.077251
H	-1.733137852	-2.6567344043	-0.9084413038	 0.077359
137.5401	193.0616	280.3258	300.8165	349.1244	385.2272	465.3258	480.7892	556.7662	662.5376	701.5507	741.2817	795.8614	834.2355	874.2292	900.5287	926.8214	940.9061	975.1088	1001.5313	1019.6268	1037.5775	1041.8093	1069.0774	1087.0978	1099.9809	1124.6824	1155.059	1168.2931	1209.5411	1211.5069	1248.3997	1259.4237	1271.1642	1300.3576	1320.8241	1335.5123	1352.867	1373.419	1400.6649	1432.7573	1446.486	1485.5779	1493.4764	1521.487	2937.4942	3009.2319	3025.6335	3044.8094	3059.4395	3082.8495	3093.6137	3107.3775	3123.0269	3165.549	3180.9859	3808.8898
OC1CCC2C3CC1C23	O[C@H]1CC[C@H]2[C@H]3C[C@@H]1[C@@H]23	
InChI=1S/C8H12O/c9-7-2-1-4-5-3-6(7)8(4)5/h4-9H,1-3H2	InChI=1S/C8H12O/c9-7-2-1-4-5-3-6(7)8(4)5/h4-9H,1-3H2/t4-,5+,6-,7-,8-/m0/s1
