19
gdb 48584	3.13763	1.47035	1.28522	2.8848	79.24	-0.2439	-0.0223	0.2216	1037.9144	0.160849	-385.859375	-385.852153	-385.851209	-385.891161	29.383	
O	-0.04276246	-0.1087882878	-0.0893816729	-0.252521
C	 0.0540877122	 1.0918005626	-0.1580171278	 0.03902
C	 1.3405124923	 1.8463912564	-0.1066915099	 0.264847
C	 1.7565784605	 2.6333195775	 1.2061438692	-0.25524
C	 3.1642452076	 2.5497511568	 0.5156156989	-0.050293
C	 2.7125275451	 1.1444619515	 0.033425552	-0.278919
C	 2.9259188346	 3.4733358558	-0.6959124304	-0.028528
C	 2.7550963251	 2.8908222109	-2.0785319802	-0.31472
C	 1.5678795279	 2.9664745805	-1.1518489792	-0.090848
H	-0.8550610831	 1.7331795819	-0.2481255701	 0.065379
H	 1.3191672207	 3.6243806435	 1.3521397374	 0.096739
H	 1.6724708307	 2.0289799085	 2.113321662	 0.106757
H	 4.0839268083	 2.6881193006	 1.0837571444	 0.067839
H	 2.6961875214	 0.4188816224	 0.8473401606	 0.113607
H	 3.1755159318	 0.6904115301	-0.8416766176	 0.102894
H	 3.1357035139	 4.5312692785	-0.5867406301	 0.090245
H	 2.7534154422	 3.6141761551	-2.8884419185	 0.112809
H	 3.1996257471	 1.9432922136	-2.3565185248	 0.120325
H	 0.7422129317	 3.6313912517	-1.3801990832	 0.090606
69.597	181.6736	241.1427	361.8759	387.7723	447.909	533.0989	547.0958	642.6235	718.5273	765.9711	793.5735	812.7726	840.9947	862.5336	920.8014	936.063	965.513	979.5409	991.2082	1021.8537	1045.6238	1067.6202	1079.0668	1082.9308	1104.7497	1115.5026	1165.9735	1190.203	1202.4344	1212.5894	1226.1989	1265.3943	1289.0754	1327.1966	1373.8124	1426.8168	1475.4113	1496.3598	1538.4411	1819.3141	2845.9977	3054.8982	3095.1016	3115.8997	3122.9429	3135.3774	3148.082	3166.7321	3176.8327	3215.855
O=CC12CC(C1)C1CC21	O=C[C@@]12C[C@@H](C1)[C@H]1C[C@@H]21	
InChI=1S/C8H10O/c9-4-8-2-5(3-8)6-1-7(6)8/h4-7H,1-3H2	InChI=1S/C8H10O/c9-4-8-2-5(3-8)6-1-7(6)8/h4-7H,1-3H2/t5-,6-,7-,8+/m1/s1
