21
gdb 103975	2.46384	1.56369	1.2069	2.6434	77.94	-0.2365	0.0737	0.3103	1121.3934	0.181245	-424.187172	-424.178048	-424.177104	-424.220376	35.584	
C	 0.121070058	 1.298333324	-0.1346937426	-0.255702
O	 0.012059531	-0.0980454004	 0.0723938109	-0.299947
C	-1.3136740753	-0.6400489005	-0.0008748793	 0.407006
C	-2.2245513433	-0.0577496089	 1.0742572201	-0.453634
C	-1.9702275352	-0.6780937014	-1.4292343367	-0.300799
C	-1.9866866245	-2.2064838837	-1.3504608448	-0.099498
C	-0.5821898344	-2.7122677201	-1.1887361919	 0.127897
O	 0.5258871755	-2.1153734221	-1.7903097925	-0.444923
C	-1.2685237904	-2.1681968474	 0.0256279083	-0.174929
H	 1.1871693688	 1.5249761749	-0.2104776368	 0.131511
H	-0.3737187552	 1.6149051765	-1.0634857274	 0.115446
H	-0.2984983197	 1.8736238338	 0.7005420047	 0.116861
H	-2.4307715209	 1.003251276	 0.9045416403	 0.117293
H	-3.1818723171	-0.5860256547	 1.0769948592	 0.126752
H	-1.7653032451	-0.1711690559	 2.0616907403	 0.123906
H	-2.9583728597	-0.2146025837	-1.4513934977	 0.099816
H	-1.3585272582	-0.2743054092	-2.2406321502	 0.107406
H	-2.8047062525	-2.8419579379	-1.6671989199	 0.085217
H	-0.5051363049	-3.7978186755	-1.1937345108	 0.096081
H	 0.7689177919	-1.364222067	-1.2306487071	 0.294129
H	-1.4340538088	-2.7566566967	 0.9216502241	 0.080111
115.1736	154.4049	164.587	196.8592	250.2556	287.9771	309.5063	364.9641	404.66	452.8973	488.0162	515.509	630.723	664.1172	743.2096	784.9992	836.7234	907.3056	917.8888	922.1838	983.8008	990.393	1013.5144	1026.7942	1079.0843	1090.4558	1127.9582	1178.8717	1185.1471	1189.7195	1205.7234	1210.7887	1234.3587	1251.5967	1311.0817	1349.6408	1397.8032	1403.5702	1455.8724	1475.7915	1477.9359	1486.176	1490.4359	1503.0065	1511.5576	2999.2009	3037.1379	3055.6619	3059.9542	3108.4484	3114.6829	3117.2571	3119.6154	3130.0311	3165.2473	3187.0644	3720.0983
COC1(C)CC2C(O)C12	CO[C@@]1(C)C[C@H]2[C@@H](O)[C@@H]12	
InChI=1S/C7H12O2/c1-7(9-2)3-4-5(7)6(4)8/h4-6,8H,3H2,1-2H3	InChI=1S/C7H12O2/c1-7(9-2)3-4-5(7)6(4)8/h4-6,8H,3H2,1-2H3/t4-,5+,6-,7+/m1/s1
