21
gdb 76193	2.17756	1.46594	1.21176	1.4334	79.21	-0.2192	0.064	0.2832	1170.4672	0.180024	-424.191085	-424.181161	-424.180217	-424.22543	36.783	
C	-0.1009146036	 1.5111552929	 0.0876935565	-0.463204
C	 0.0091038017	 0.0003226481	 0.0391559901	 0.175352
C	-1.2136951175	-0.7316100225	-0.4795975839	-0.4502
C	 1.3751626853	-0.6240049991	-0.2822743135	-0.046894
O	 2.5125974064	 0.1743404708	-0.4517740876	-0.421307
C	 0.8235417149	-0.6899351785	 1.1023108202	 0.412444
C	 1.4469765876	-0.1526123647	 2.3834420539	-0.354498
C	 1.0137418686	-1.5145230677	 2.9691402254	-0.077628
O	 0.4235594549	-1.9205536722	 1.7098124884	-0.313273
H	 0.84081338	 1.9730344333	 0.3938184266	 0.128028
H	-0.3664734592	 1.9140572866	-0.8976147201	 0.109436
H	-0.8819490113	 1.825772569	 0.789448168	 0.11612
H	-1.4316131294	-0.4465529799	-1.5156572279	 0.107352
H	-1.0794830252	-1.8154771883	-0.4397374848	 0.133154
H	-2.0955161737	-0.4919815797	 0.1257000756	 0.116486
H	 1.3607113658	-1.5505733592	-0.8585001014	 0.087914
H	 2.4612016137	 0.5916776791	-1.3184259318	 0.288998
H	 2.5215064205	 0.0261158341	 2.3303990109	 0.128206
H	 0.9536522233	 0.7195982799	 2.8168035613	 0.110946
H	 1.829543705	-2.1832712329	 3.2656704132	 0.107634
H	 0.2672701323	-1.4773915692	 3.7702957208	 0.104933
88.9836	151.2908	155.5557	177.8177	183.1421	229.0703	240.4325	264.6251	312.5798	353.06	428.0758	522.8154	560.6955	578.6789	708.3801	797.276	852.4113	892.1075	953.6582	972.1365	976.7729	982.989	1016.3976	1031.3482	1096.7552	1113.2462	1154.6193	1161.7625	1176.5228	1203.3185	1216.2785	1249.362	1270.6312	1288.0378	1348.9825	1355.9292	1404.2579	1421.4376	1471.2559	1483.8609	1489.4762	1493.3592	1503.2874	1516.1832	1533.8577	3020.4489	3025.043	3027.5932	3070.428	3075.3867	3079.6138	3081.6927	3089.1472	3117.7488	3118.5183	3135.2458	3797.7244
CC1(C)C(O)C11CCO1	CC1(C)[C@@H](O)[C@]21CCO2	
InChI=1S/C7H12O2/c1-6(2)5(8)7(6)3-4-9-7/h5,8H,3-4H2,1-2H3	InChI=1S/C7H12O2/c1-6(2)5(8)7(6)3-4-9-7/h5,8H,3-4H2,1-2H3/t5-,7+/m1/s1
