21
gdb 81964	2.41098	1.62673	1.23978	2.6435	76.96	-0.2465	0.0519	0.2983	1094.0246	0.183228	-424.224605	-424.215724	-424.21478	-424.257472	35.048	
C	 0.1244145199	 1.5903188441	-0.0316720446	-0.415183
C	 0.1265783457	 0.0600931812	-0.0257166218	 0.015157
C	 0.8253522106	-0.5946326951	-1.2176230742	-0.04504
C	 2.3346047009	-0.6531278663	-1.2138058128	-0.29969
C	 1.531938438	-1.8408379007	-0.7387515834	-0.071439
C	 1.2598555501	-1.9863546852	 0.7548747972	 0.148562
O	 2.3111357358	-2.5025837048	 1.5375049703	-0.44465
C	 0.7939123843	-0.57690331	 1.2200671265	-0.00426
O	 1.9701960663	 0.1162688145	 1.6534547534	-0.428019
H	 1.144884298	 1.9828521423	-0.0246241229	 0.125387
H	-0.3749296563	 1.9724813102	-0.9275138814	 0.117166
H	-0.4076315945	 1.9966162152	 0.8372701162	 0.101044
H	-0.9170524808	-0.2853865417	-0.0280819355	 0.074462
H	 0.3134898156	-0.5714749467	-2.1742927758	 0.076646
H	 2.8200085211	-0.7566617373	-2.1785233427	 0.10453
H	 2.8869293966	-0.0619606394	-0.4943090072	 0.129641
H	 1.5495930838	-2.7474600934	-1.3330835318	 0.080366
H	 0.4190436453	-2.6809557829	 0.8764995283	 0.081778
H	 2.8578243871	-1.7423965659	 1.77464732	 0.286582
H	 0.0926714621	-0.6515298224	 2.0598949754	 0.072141
H	 1.7076310006	 0.8531773341	 2.2106245069	 0.294819
120.255	175.7969	188.2426	228.0051	244.8948	279.3412	303.6412	393.1068	413.6721	459.6598	485.5343	574.93	638.0038	760.8298	775.7504	797.4623	843.5082	892.0699	912.3522	952.81	988.2363	1020.9142	1046.3558	1064.2804	1077.3354	1096.0547	1112.4091	1121.0446	1144.5671	1166.7304	1196.5843	1214.4113	1262.8945	1303.1737	1332.2857	1339.6111	1349.7287	1371.37	1396.4079	1403.0633	1422.2366	1449.2744	1492.3256	1498.0394	1504.4428	3001.1436	3020.333	3027.2007	3036.9916	3090.6967	3116.4281	3139.6891	3155.2646	3172.8122	3230.7489	3770.989	3851.7133
CC1C2CC2C(O)C1O	C[C@H]1[C@H]2C[C@H]2[C@@H](O)[C@H]1O	
InChI=1S/C7H12O2/c1-3-4-2-5(4)7(9)6(3)8/h3-9H,2H2,1H3	InChI=1S/C7H12O2/c1-3-4-2-5(4)7(9)6(3)8/h3-9H,2H2,1H3/t3-,4+,5+,6-,7+/m0/s1
