18
gdb 10639	2.46717	1.82964	1.2909	4.9781	73.29	-0.2341	0.0318	0.2658	1020.252	0.152947	-343.975026	-343.966059	-343.965115	-344.00845	32.493	
C	 0.3040139466	 1.3708122621	 0.3084381144	-0.329961
N	-0.2282841685	 0.1366785282	-0.2572020517	-0.344142
C	 0.5775778363	-0.4684639394	-1.2774861175	 0.167051
C	 1.9774722976	-1.038879226	-1.0005552727	-0.322684
C	 0.8343428734	-1.9702350013	-1.2890745581	-0.040594
C	 0.2628893952	-2.8801572705	-0.2239607419	-0.425665
C	 0.405375987	 0.1546215023	-2.5762338958	 0.284915
N	 0.2869772241	 0.6581149341	-3.6110495912	-0.353348
H	 1.3054452336	 1.2652656942	 0.758020287	 0.10078
H	 0.3680235569	 2.1313782325	-0.4762883072	 0.14612
H	-0.3847668284	 1.7384953082	 1.0734618405	 0.124575
H	-0.4747594365	-0.5305080456	 0.4599482438	 0.229009
H	 2.7526347159	-0.9010854458	-1.745278536	 0.135602
H	 2.3119818833	-0.960436251	 0.0290749027	 0.121915
H	 0.8264431204	-2.4035719581	-2.2846467459	 0.117254
H	 0.3669831418	-2.4596589726	 0.7810472193	 0.117444
H	-0.7967000529	-3.0916476349	-0.4010119024	 0.136999
H	 0.7991209842	-3.8345869363	-0.2251812672	 0.134731
72.8937	137.7541	161.6207	172.9532	215.2115	232.6844	297.8905	364.5136	412.6204	492.2159	572.6579	599.9363	612.0779	691.2	799.828	895.9442	919.7608	926.2855	1003.0503	1052.1398	1062.4405	1096.0963	1139.511	1154.9659	1177.2226	1194.349	1255.6376	1317.9444	1401.3332	1416.9648	1461.9755	1471.272	1482.2644	1493.3846	1496.529	1504.4935	1520.874	2348.3549	2966.6901	3034.581	3072.4893	3100.1913	3103.9347	3117.5649	3135.8687	3158.4382	3228.2551	3589.0937
CNC1(CC1C)C#N	CN[C@]1(C[C@H]1C)C#N	
InChI=1S/C6H10N2/c1-5-3-6(5,4-7)8-2/h5,8H,3H2,1-2H3	InChI=1S/C6H10N2/c1-5-3-6(5,4-7)8-2/h5,8H,3H2,1-2H3/t5-,6-/m1/s1
