14
gdb 24543	3.86055	1.75809	1.20798	1.7101	82.06	-0.2066	-0.0817	0.1249	942.5676	0.104105	-399.57898	-399.572961	-399.572017	-399.609156	24.65	
O	-0.0422732278	 1.3433271174	 0.0098452713	-0.197993
C	 1.1391433033	 1.9916635532	 0.0018063025	 0.018435
C	 2.3307631392	 1.3412784482	-0.0131994297	-0.089642
N	 2.453264416	-0.0283472742	-0.0216206973	-0.335943
C	 1.3283035985	-0.685085995	-0.0141953477	 0.303083
C	 1.050475836	-2.088648285	-0.0187855329	-0.254131
C	-0.3163793673	-2.2169487818	-0.0062618956	-0.063952
C	-0.9888805512	-0.9244578719	 0.0069333095	-0.313367
C	 0.0038523459	-0.00430108	 0.0022725845	 0.345286
H	 1.0154169688	 3.0656880765	 0.0086690409	 0.144337
H	 3.2481768127	 1.9177600124	-0.0190577608	 0.120969
H	 1.7902205333	-2.8734816756	-0.0300096585	 0.106468
H	-0.8528601024	-3.1578465469	-0.0059944533	 0.108283
H	-2.0548293548	-0.7591773174	 0.018066557	 0.108168
201.7848	253.925	388.2505	452.8583	532.9356	543.6101	597.014	612.5716	719.2255	727.8141	782.8612	806.0996	816.5179	827.0691	913.3518	920.3576	935.654	1005.2323	1050.4661	1082.9384	1117.1495	1230.9488	1263.3526	1290.4558	1318.4273	1392.2024	1419.7899	1474.8435	1548.865	1642.6633	1658.862	3200.7298	3212.6898	3241.074	3253.022	3261.2628
O1C=CN=C2C=CC=C12	o1ccnc2cccc12	
InChI=1S/C7H5NO/c1-2-6-7(3-1)9-5-4-8-6/h1-5H	InChI=1S/C7H5NO/c1-2-6-7(3-1)9-5-4-8-6/h1-5H
