21
gdb 92108	2.66015	1.67074	1.39852	1.5677	81.17	-0.2177	0.0874	0.3051	1047.1192	0.183218	-387.073211	-387.065141	-387.064197	-387.105267	32.559	
C	-0.1635600444	 1.5743249468	-0.0267117334	-0.395327
C	 0.02018995	 0.05184411	-0.0316775521	 0.014574
C	 0.8722905708	-0.475115962	-1.231723486	-0.2299
C	 2.1819656453	-0.8957546882	-0.5777255766	 0.092662
O	 2.7602723661	 0.2939740445	 0.0608728664	-0.346064
C	 2.2531338497	-0.1589629455	 1.3257025075	 0.480796
C	 2.9638410979	 0.295588782	 2.5568541848	-0.499689
C	 1.8261188454	-1.4960418347	 0.7988716334	-0.225412
C	 0.7711475201	-0.4781780336	 1.1968048183	-0.127739
H	 0.8079588543	 2.0752727376	-0.0439874356	 0.13478
H	-0.7353932345	 1.9052313043	-0.9005405585	 0.105825
H	-0.7054692824	 1.9028518299	 0.8670490826	 0.103815
H	-0.9704052315	-0.4169708385	-0.0569122483	 0.067255
H	 0.396545199	-1.3371867174	-1.7137687857	 0.09338
H	 1.0370836135	 0.2907664006	-1.9957463107	 0.104413
H	 2.9132196415	-1.4023530333	-1.2104235865	 0.074673
H	 2.883657566	 1.3825619016	 2.6702084876	 0.130674
H	 2.5271240165	-0.1711045596	 3.4446469849	 0.122383
H	 4.0261329189	 0.0351318082	 2.5117677081	 0.127746
H	 1.9481565807	-2.5080969114	 1.1599204403	 0.091593
H	 0.2335551672	-0.6268928914	 2.1281092996	 0.079562
135.3145	174.7851	201.5356	243.078	282.495	319.5607	398.9734	437.7104	517.0556	587.8642	705.7689	727.6914	765.6621	822.3407	835.0165	865.7745	889.4828	906.3266	933.2742	961.5334	976.6757	998.8425	1001.627	1036.5797	1059.5178	1102.5113	1110.8762	1129.9919	1179.1679	1210.2697	1216.1033	1249.8607	1276.4788	1305.4223	1327.7571	1338.1379	1360.8616	1403.3133	1406.3479	1463.638	1473.7561	1477.0912	1495.4874	1500.4517	1509.0686	3023.4242	3030.1806	3032.422	3041.324	3088.0717	3092.438	3096.5634	3096.9148	3114.1076	3122.2905	3163.0607	3201.4357
CC1CC2OC3(C)C2C13	C[C@H]1C[C@H]2O[C@]3(C)[C@H]2[C@H]13	
InChI=1S/C8H12O/c1-4-3-5-7-6(4)8(7,2)9-5/h4-7H,3H2,1-2H3	InChI=1S/C8H12O/c1-4-3-5-7-6(4)8(7,2)9-5/h4-7H,3H2,1-2H3/t4-,5+,6-,7+,8-/m0/s1
