15
gdb 70226	3.74326	1.34982	1.16098	5.4039	61.37	-0.2724	0.0277	0.3001	1026.3619	0.112452	-494.915322	-494.907803	-494.906859	-494.947311	28.752	
O	 0.0534934666	 1.4308110935	-0.1962841357	-0.456437
C	 0.025788461	 0.0461673429	-0.049996927	 0.327371
C	-0.4945925671	-0.8448576917	-1.1603374315	-0.390823
C	-1.2972473406	-0.6097173732	 0.0990670304	 0.082776
O	-1.4533121251	-1.6221426362	 1.0717936775	-0.245053
C	-0.3973849626	-2.3528248131	 1.5003103675	 0.461792
O	-0.5500389015	-3.3592587896	 2.120017656	-0.350838
O	 0.8386356841	-1.9067681363	 1.1641707761	-0.249805
C	 1.0629887379	-0.5164376144	 0.8966722889	-0.148311
H	 0.7365189765	 1.6549610873	-0.8388629843	 0.293078
H	-0.8629956299	-0.3581411169	-2.0563478114	 0.13266
H	-0.0268166305	-1.8117206259	-1.3098432876	 0.146111
H	-2.2018544645	-0.0185860666	 0.0419983882	 0.135974
H	 2.0759223072	-0.4637734199	 0.4869766373	 0.125871
H	 1.0358367285	 0.0546056801	 1.8329360356	 0.135635
92.7053	178.9755	242.8071	302.5618	344.7462	360.6493	406.2317	466.7228	506.3905	589.596	697.65	758.4312	776.5342	788.8754	907.2564	914.2477	936.9005	1016.3233	1044.1188	1071.5992	1087.7425	1111.5758	1155.1421	1194.557	1233.6963	1279.2315	1311.7993	1354.5664	1406.7718	1421.4919	1491.6012	1517.7568	1890.6685	3034.366	3090.9145	3140.0823	3208.3385	3235.8858	3791.2858
OC12CC1OC(=O)OC2	O[C@]12C[C@H]1OC(=O)OC2	
InChI=1S/C5H6O4/c6-4-8-2-5(7)1-3(5)9-4/h3,7H,1-2H2	InChI=1S/C5H6O4/c6-4-8-2-5(7)1-3(5)9-4/h3,7H,1-2H2/t3-,5+/m1/s1
