15
gdb 116994	5.18257	0.58454	0.52879	3.9811	88.74	-0.2649	-0.0794	0.1854	1983.3944	0.108297	-420.56366	-420.553734	-420.552789	-420.599765	33.603	
C	 0.0401292283	 1.4095779859	-0.0929254517	-0.22866
O	 0.0045246015	 0.0025422259	-0.00319575	-0.212454
C	 0.6203860969	-0.6245990116	-1.0807382737	-0.158315
C	 0.544618401	-2.1373700783	-0.9193581993	 0.139721
O	 0.0210959951	-2.6922323253	 0.0169329512	-0.248826
C	 1.1664882358	-2.873878932	-2.0061605623	 0.435699
C	 1.6800412809	-3.5092726756	-2.9028603356	-0.288099
C	 2.2564147077	-4.2139873919	-3.9099809731	 0.300634
C	 2.768862453	-4.8408136328	-4.8059481194	-0.538801
H	 1.0728568385	 1.7911932029	-0.1134711877	 0.108874
H	-0.4805903278	 1.7744584648	-0.9919746465	 0.108874
H	-0.4650020379	 1.7998975906	 0.7928654768	 0.138327
H	 0.1497448586	-0.3623828871	-2.0470273293	 0.118239
H	 1.6868942155	-0.3467462432	-1.1775805572	 0.118249
H	 3.219615403	-5.3930822823	-5.5935890122	 0.206539
58.0661	65.5689	78.6145	128.3167	177.0669	234.3545	244.704	305.2151	366.8509	385.8385	506.6576	548.6209	567.6788	608.1614	617.2509	640.7329	801.2121	955.6582	1013.5268	1034.7871	1174.2219	1182.4323	1189.913	1244.6829	1248.3703	1406.0766	1464.5523	1487.4697	1490.3268	1513.591	1779.621	2173.5817	2335.031	2933.1845	2953.1273	2974.902	3021.0324	3125.6697	3500.0043
COCC(=O)C#CC#C	COCC(=O)C#CC#C	
InChI=1S/C7H6O2/c1-3-4-5-7(8)6-9-2/h1H,6H2,2H3	InChI=1S/C7H6O2/c1-3-4-5-7(8)6-9-2/h1H,6H2,2H3
