15
gdb 77778	2.60725	1.45274	1.10262	3.1498	73.8	-0.2841	-0.0269	0.2572	1095.7804	0.111973	-416.790473	-416.782419	-416.781474	-416.823204	29.815	
C	 0.0067095065	 1.5822604446	-0.0488746498	-0.421711
C	 0.059176441	 0.0733448194	-0.0810431953	-0.0819
C	 0.6407310606	-0.7613754869	-1.222465467	-0.263113
C	 1.9149182728	-0.1361777062	-1.6916453103	 0.447583
N	 2.3974909212	 0.1647997099	-2.8028848622	-0.54238
O	 2.4621250161	-0.0233522368	-0.4040075888	-0.292618
C	 1.3150967918	-0.7169929879	 0.1484695592	 0.313556
C	 1.535989107	-1.7265580397	 1.1280000121	 0.230475
N	 1.6894174751	-2.540682672	 1.9352882766	-0.335337
H	 0.935949681	 2.0246996928	-0.4120938125	 0.149525
H	-0.8155477558	 1.9445197897	-0.6727970564	 0.138373
H	-0.1611035078	 1.9331703129	 0.973712228	 0.138629
H	-0.8101180353	-0.4251089644	 0.3439695945	 0.129215
H	 0.1025527211	-1.5620897143	-1.7079220173	 0.146653
H	 3.3355250546	 0.5590593388	-2.7180683609	 0.243049
109.292	149.7887	155.7748	170.6811	265.4401	361.8734	420.6983	496.2151	512.2914	542.5023	639.4266	673.1201	729.5852	824.5969	867.6327	903.8224	922.3512	935.1759	993.2395	1014.3441	1060.7569	1102.4637	1126.3416	1150.5261	1221.7251	1265.8643	1314.7861	1412.8025	1447.8811	1487.3572	1499.6774	1846.5385	2354.7532	3049.8189	3114.5769	3133.6154	3148.2889	3236.8383	3488.1707
CC1C2C(=N)OC12C#N	C[C@H]1[C@H]2[C]([NH])O[C@@]12C#N	
InChI=1S/C6H6N2O/c1-3-4-5(8)9-6(3,4)2-7/h3-4,8H,1H3	InChI=1S/C6H6N2O/c1-3-4-5(8)9-6(3,4)2-7/h3-4,8H,1H3/t3-,4-,6-/m0/s1
