19
gdb 90598	2.36985	1.4923	1.17535	2.5843	76.96	-0.2267	-0.0046	0.2222	1127.8128	0.159732	-419.164322	-419.155746	-419.154802	-419.197741	32.551	
C	 0.5665534575	 1.5126842507	-0.3822818864	-0.413437
C	 0.0824281798	 0.1339562896	 0.0489063615	 0.006151
C	 0.6634916852	-1.098460295	-0.7204079287	-0.201743
N	 1.2310699513	-1.6468341553	 0.5533412359	-0.106865
C	 0.6680252362	-0.5043046337	 1.3509285594	-0.050598
C	 2.0982628476	-0.1518705458	 1.8551019065	 0.031257
O	 2.3793586322	-0.2614232476	 3.2258010512	-0.427241
C	 2.5619336328	-1.2727274008	 0.8860840007	 0.275107
N	 3.6378907322	-1.7274091741	 0.4086751021	-0.514194
H	 1.6565472754	 1.5543424363	-0.4782244243	 0.124654
H	 0.1448368237	 1.777707734	-1.3575199032	 0.123469
H	 0.2613001305	 2.2830733324	 0.3339592495	 0.124679
H	-1.0109083672	 0.124999447	 0.0701571575	 0.08283
H	-0.0835922489	-1.7646891372	-1.1583954382	 0.115314
H	 1.4320513447	-0.8823726941	-1.4685516011	 0.123218
H	-0.0484637699	-0.75167819	 2.1397502175	 0.078357
H	 2.457125063	 0.8357779436	 1.5528242116	 0.110429
H	 2.1703310134	-1.1590459247	 3.5075315333	 0.291405
H	 4.4408442703	-1.2622127154	 0.8344431853	 0.227206
50.9073	153.8556	184.307	238.5246	255.4816	298.4445	348.136	375.4773	405.3672	478.6567	642.8032	701.0185	766.4723	792.9438	857.2836	862.5228	903.1886	914.3047	939.0368	954.485	999.6928	1065.194	1093.145	1106.3496	1130.3454	1167.5014	1186.4111	1197.3249	1223.6434	1242.2657	1277.9851	1286.1571	1319.3509	1338.067	1364.4592	1412.3557	1429.9765	1493.6849	1502.7856	1506.8295	1768.6597	3031.2851	3054.3477	3055.7483	3069.2484	3080.3149	3099.6466	3101.7789	3110.3577	3473.5349	3802.6684
CC1CN2C1C(O)C2=N	C[C@H]1CN2[C@H]1[C@@H](O)[C]2[NH]	
InChI=1S/C6H10N2O/c1-3-2-8-4(3)5(9)6(8)7/h3-5,7,9H,2H2,1H3	InChI=1S/C6H10N2O/c1-3-2-8-4(3)5(9)6(8)7/h3-5,7,9H,2H2,1H3/t3-,4+,5+/m0/s1
