19
gdb 66620	2.68857	1.90946	1.47306	1.3856	78.63	-0.2245	0.071	0.2955	962.1744	0.159455	-385.822208	-385.814634	-385.81369	-385.853646	30.973	
C	 0.1007627581	 1.5633256353	 0.0411998957	-0.527812
C	-0.0109114964	 0.074186527	-0.0107562976	 0.245619
C	 0.8956705836	-1.0039616008	-0.5701983203	-0.12252
C	 0.4960177954	-1.0171708017	 0.9104995974	-0.116861
C	-0.7876778739	-1.8772032476	 0.8398016401	-0.097314
C	-0.523513848	-3.0179510538	-0.1749582847	-0.249506
C	-0.238066937	-1.867017555	-1.1719811604	-0.140777
C	-1.1930287553	-0.9195109631	-0.333958768	 0.364821
O	-2.5163196005	-0.6423877596	-0.5957255067	-0.476024
H	 1.1122635105	 1.8669203937	 0.3334567172	 0.122143
H	-0.1099024872	 2.0224248424	-0.9325065112	 0.111921
H	-0.5972767603	 1.9925365027	 0.7691657415	 0.125046
H	 1.9224447386	-0.9147926512	-0.9015187541	 0.080124
H	 1.2148785239	-0.9416810178	 1.716517159	 0.080279
H	-1.3890641574	-2.0003021367	 1.739276962	 0.068181
H	 0.2760251566	-3.7331164165	 0.0394996919	 0.08964
H	-1.4452331111	-3.5500273423	-0.4284412021	 0.102465
H	-0.2893813917	-1.9865731371	-2.2547007977	 0.056832
H	-2.5773845779	-0.2171637278	-1.4586172919	 0.283745
181.4673	187.6135	204.3288	265.8603	305.2461	352.3447	475.1838	561.4137	566.2374	620.0463	700.4537	775.7355	797.6381	849.1239	854.1726	871.112	926.4259	931.5146	945.6355	953.1663	974.6851	1017.8666	1023.3736	1048.7212	1074.7956	1104.9784	1126.3974	1142.3601	1193.4615	1210.1691	1217.0982	1224.3134	1263.6048	1272.0163	1313.4823	1392.9069	1409.5698	1447.2669	1483.7226	1484.3482	1496.2296	3016.6882	3049.0302	3074.0449	3087.9146	3106.5825	3110.1898	3129.3009	3185.8046	3195.6721	3791.1914
CC12C3C1C1CC3C21O	C[C@@]12[C@H]3[C@@H]1[C@@H]1C[C@H]3[C@]21O	
InChI=1S/C8H10O/c1-7-5-3-2-4(6(5)7)8(3,7)9/h3-6,9H,2H2,1H3	InChI=1S/C8H10O/c1-7-5-3-2-4(6(5)7)8(3,7)9/h3-6,9H,2H2,1H3/t3-,4+,5-,6+,7-,8-
