16
gdb 29732	3.33315	1.336	0.96137	5.9522	82.6	-0.2002	-0.0087	0.1915	1161.39	0.12595	-396.983449	-396.97476	-396.973816	-397.016841	31.598	
C	-0.059994399	 1.4233563437	 0.0271395047	-0.362691
N	-0.0073551809	-0.0251946697	 0.0114962003	-0.099632
C	 0.0027221268	-0.8018246365	-1.1102100773	 0.311051
N	-0.0948564682	-0.2118782896	-2.3716337533	-0.610496
C	 0.0232051026	-2.1373152376	-0.7317936013	-0.216016
C	 0.0314959764	-2.1700379779	 0.6768600253	-0.22819
C	 0.0245837229	-0.861598072	 1.1293210451	 0.185666
C	 0.0442197592	-0.348347704	 2.4378839376	 0.198193
N	 0.0566668477	 0.0957929499	 3.5112201613	-0.376132
H	 0.921107858	 1.8671761466	-0.1804371173	 0.13726
H	-0.7732852849	 1.770030127	-0.7250705053	 0.15553
H	-0.3845750947	 1.7567530647	 1.0134123679	 0.173875
H	 0.6161842794	 0.4869822717	-2.5560695114	 0.253744
H	-0.0803888434	-0.9047863342	-3.1078126784	 0.258258
H	 0.0371129955	-2.9810224888	-1.4039307479	 0.099174
H	 0.0527941825	-3.0428811932	 1.30990707	 0.120406
94.8186	113.6834	147.2148	184.4705	234.5554	284.3206	297.0661	424.8365	509.9382	529.5834	599.7271	643.5375	660.7341	696.3539	734.7965	757.5964	784.6319	839.8729	978.7966	1051.8563	1102.6739	1152.7745	1179.7208	1238.1265	1261.2946	1360.3284	1396.1123	1449.8189	1485.1859	1505.2849	1513.0229	1549.5925	1596.081	1656.64	2317.2342	3029.0715	3101.681	3152.4711	3250.4098	3268.3107	3523.5266	3627.8915
CN1C(N)=CC=C1C#N	Cn1c(N)ccc1C#N	
InChI=1S/C6H7N3/c1-9-5(4-7)2-3-6(9)8/h2-3H,8H2,1H3	InChI=1S/C6H7N3/c1-9-5(4-7)2-3-6(9)8/h2-3H,8H2,1H3
