21
gdb 9848	3.38352	1.42098	1.15377	1.7455	74.42	-0.2366	0.0563	0.2929	1125.3249	0.187322	-366.241398	-366.231793	-366.230849	-366.275478	35.433	
C	 0.01782954	 1.548504933	-0.1688933206	-0.383094
C	-0.0089672621	 0.016383973	-0.1809647566	-0.214519
C	-1.3958866347	-0.5706661772	 0.1135730592	 0.057632
O	-2.3613789119	-0.0964498276	-0.8269634687	-0.436498
C	-1.4075453186	-2.1050035726	 0.1835149327	 0.33682
C	-0.4498201913	-2.7249713566	 1.1813390339	-0.456345
C	-2.6895346392	-2.7955845422	-0.1001110942	-0.279691
N	-1.5702507922	-2.8678422538	-1.0672933557	-0.357399
H	 1.0180508914	 1.9243823661	-0.40313112	 0.115625
H	-0.6806255083	 1.9728201495	-0.8960927502	 0.116325
H	-0.2646703076	 1.9354451545	 0.8160426377	 0.121401
H	 0.3336610529	-0.3650581285	-1.1546012636	 0.096632
H	 0.7040592765	-0.3636504179	 0.5568042297	 0.112312
H	-1.7318727023	-0.1953083858	 1.0912311221	 0.086412
H	-1.9069590431	 0.0994232934	-1.652135274	 0.284605
H	-0.5892211499	-2.2935583497	 2.1797936785	 0.111132
H	-0.6228323897	-3.8015474537	 1.2481844693	 0.12678
H	 0.5947603482	-2.5785492311	 0.889693011	 0.120803
H	-2.9166712917	-3.7305537587	 0.4051111408	 0.106294
H	-3.5461649843	-2.1865303939	-0.3673124848	 0.124034
H	-1.7835249517	-2.2182790804	-1.8222758265	 0.210738
64.4338	98.5196	176.4551	197.0741	209.4096	220.8154	307.5434	316.0154	351.1868	373.5348	439.4188	478.1904	557.464	735.5692	786.6557	848.1729	857.6029	933.6645	946.7249	985.2412	989.7409	1027.5518	1055.5225	1079.8401	1093.4777	1111.058	1131.7117	1161.1554	1255.3096	1268.6402	1299.3306	1333.496	1341.6264	1364.9586	1387.102	1407.0206	1413.6867	1421.6523	1481.5251	1487.8883	1495.8414	1499.9548	1503.1749	1506.0082	2996.1913	3011.11	3032.4595	3038.7472	3079.6068	3096.992	3106.3446	3113.8761	3114.5417	3121.3041	3211.1142	3480.7155	3820.6802
CCC(O)C1(C)CN1	CC[C@@H](O)[C@@]1(C)CN1	
InChI=1S/C6H13NO/c1-3-5(8)6(2)4-7-6/h5,7-8H,3-4H2,1-2H3	InChI=1S/C6H13NO/c1-3-5(8)6(2)4-7-6/h5,7-8H,3-4H2,1-2H3/t5-,6-/m1/s1
