14
gdb 131088	5.64036	0.7991	0.72324	3.0171	65.18	-0.2792	-0.0271	0.2521	1447.8408	0.100587	-473.829622	-473.821718	-473.820774	-473.864234	27.041	
O	 0.0501060112	 0.0828935799	 0.4688924599	-0.265493
C	 0.1890459517	 1.190427409	 0.0509216106	 0.178418
O	 0.8216266117	 2.1578491983	 0.7479153946	-0.173321
C	 0.9186557791	 3.4591826017	 0.1588226977	-0.201112
C	 2.3497476751	 3.8959608948	 0.130324183	 0.387071
N	 2.6595832064	 5.1109911833	 0.5166170967	-0.192721
O	 4.0306858242	 5.222160365	 0.3417612449	-0.157659
C	 4.5035297899	 4.061108603	-0.1350111711	 0.090549
C	 3.496758625	 3.1678388491	-0.2980268892	-0.329104
H	-0.1747309435	 1.5415556855	-0.9352911102	 0.082449
H	 0.502939896	 3.4379359028	-0.857653295	 0.129822
H	 0.3326808098	 4.1622956404	 0.7557048445	 0.154419
H	 5.5685686066	 4.0216880381	-0.3028561963	 0.160118
H	 3.5545979667	 2.1515052891	-0.6485482201	 0.136564
36.6258	40.7852	128.6843	200.6768	281.4647	357.9682	377.1661	615.0855	639.6027	705.1618	750.881	799.7623	877.166	918.3973	951.1582	982.2816	1023.7241	1042.97	1054.669	1085.2919	1157.0251	1175.5813	1283.9339	1303.6483	1386.7221	1431.092	1457.106	1488.4887	1494.0902	1609.9681	1874.1491	2940.5884	3017.6039	3104.9844	3265.9381	3292.1559
O=COCC1=NOC=C1	O=COCc1nocc1	
InChI=1S/C5H5NO3/c7-4-8-3-5-1-2-9-6-5/h1-2,4H,3H2	InChI=1S/C5H5NO3/c7-4-8-3-5-1-2-9-6-5/h1-2,4H,3H2
