15
gdb 131075	4.28926	0.89343	0.83262	3.575	68.38	-0.2532	-0.0086	0.2446	1348.7017	0.11396	-453.980276	-453.972225	-453.971281	-454.015053	27.916	
O	-0.2930562049	 1.0217197781	 1.6216857798	-0.262781
C	 0.2053165265	 1.5543367252	 0.6793496068	 0.180367
O	 0.2158502608	 2.8983403029	 0.5276112169	-0.185778
C	 0.925425239	 3.4287614504	-0.6054316128	-0.21932
C	 2.3350705381	 3.768943292	-0.2471003588	 0.363344
C	 3.5106783339	 3.7224582011	-0.9703227759	-0.312507
C	 4.4907211135	 4.2274874952	-0.088732946	 0.002553
N	 3.9747268253	 4.5546414481	 1.0921890423	-0.217792
N	 2.6639555445	 4.2796243922	 0.9673501922	-0.230677
H	 0.6895864034	 1.0243692029	-0.1633616664	 0.088285
H	 0.9099403521	 2.7212097449	-1.4422438048	 0.134291
H	 0.3544621677	 4.3130111626	-0.9047850831	 0.147936
H	 3.637101581	 3.3770408167	-1.9838326641	 0.108
H	 5.5482277076	 4.3572613062	-0.2650984114	 0.118431
H	 2.0527406415	 4.3945646515	 1.7594040553	 0.285648
31.2875	42.3238	129.5556	199.042	259.5901	361.6954	403.2361	557.0397	644.0103	670.8197	693.6032	743.841	805.2866	895.066	938.4378	988.606	1025.7392	1040.4736	1051.6127	1062.446	1128.9027	1145.7046	1244.4327	1289.1191	1308.5598	1361.0821	1388.8201	1424.892	1454.8746	1490.1981	1499.0851	1604.3397	1874.5204	2956.3381	3042.2243	3085.9083	3246.9921	3267.8191	3665.0082
O=COCC1=CC=NN1	O=COCc1ccn[nH]1	
InChI=1S/C5H6N2O2/c8-4-9-3-5-1-2-6-7-5/h1-2,4H,3H2,(H,6,7)	InChI=1S/C5H6N2O2/c8-4-9-3-5-1-2-6-7-5/h1-2,4H,3H2,(H,6,7)
