16
gdb 14074	3.79391	1.64064	1.36595	1.6546	67.31	-0.2551	0.0135	0.2686	936.3117	0.130958	-379.89532	-379.887776	-379.886832	-379.927151	27.916	
C	-0.0776663656	 1.4964848765	-0.1205431312	-0.39614
C	 0.0058325902	-0.0031133188	 0.0181142204	-0.065012
N	 1.3410209117	-0.6088931708	-0.1177607628	-0.377698
C	 0.6728067026	-0.6507418317	 1.1733830423	 0.199463
C	 1.1908248056	-0.139049927	 2.514167168	-0.148335
O	 0.658894001	-1.3553566024	 3.1448520181	-0.267455
C	 0.2306832849	-1.8589276109	 1.9302952118	 0.384894
N	-0.3008054922	-2.9501849141	 1.6167933186	-0.565068
H	 0.8056974343	 1.9746557418	 0.3111407807	 0.127295
H	-0.1322656516	 1.7820191094	-1.1760344578	 0.130596
H	-0.969459772	 1.8856153704	 0.3818186659	 0.123849
H	-0.8322424277	-0.5643483403	-0.3919834847	 0.11296
H	 1.2825389886	-1.5283734192	-0.5520131052	 0.251573
H	 2.2773527579	-0.0880748131	 2.6133639128	 0.131945
H	 0.7156563603	 0.7541984952	 2.9264878139	 0.124535
H	-0.4359634379	-3.558870555	 2.4244718095	 0.232596
127.3972	144.041	180.5533	198.5171	273.8874	360.2893	450.5997	525.8083	596.5308	681.3892	775.273	800.7341	848.9137	873.9222	929.1839	965.2965	999.581	1015.8336	1059.2916	1083.3748	1098.3803	1128.4476	1145.0191	1213.509	1238.8294	1270.5971	1327.6866	1373.6666	1414.1113	1478.6584	1489.9785	1509.1317	1513.2404	1826.9223	3037.8179	3065.7824	3103.4381	3114.8306	3128.3978	3133.8337	3489.6586	3491.6263
CC1NC11COC1=N	C[C@H]1N[C@]21CO[C]2[NH]	
InChI=1S/C5H8N2O/c1-3-5(7-3)2-8-4(5)6/h3,6-7H,2H2,1H3	InChI=1S/C5H8N2O/c1-3-5(7-3)2-8-4(5)6/h3,6-7H,2H2,1H3/t3-,5+/m1/s1
