17
gdb 97016	4.00037	1.25187	1.01183	3.7952	80.38	-0.2061	-0.0222	0.1839	1170.854	0.136454	-417.958511	-417.950359	-417.949415	-417.9914	30.107	
C	 0.1062120405	 1.4744507827	-0.0362744298	-0.34092
N	 0.0766587032	 0.0226258133	-0.0941653331	-0.308822
C	 0.4156017043	-0.617705855	 0.9460329566	 0.392711
N	 0.855876704	-0.1203243843	 2.1859208322	-0.339087
C	 1.1490892565	-1.1549195703	 3.0787854473	-0.05471
C	 1.1439810015	-2.3392437295	 2.4440521174	-0.014567
C	 0.2450002063	-3.5494565161	 2.5599398973	-0.123358
O	-0.5019594121	-3.0360375798	 1.4096548233	-0.29367
C	 0.5980214622	-2.1281891654	 1.0551717383	 0.022873
H	 1.1165918033	 1.8611896083	 0.1746738645	 0.107043
H	-0.2090352555	 1.8856585818	-0.9979696178	 0.130402
H	-0.5695031446	 1.8745234904	 0.7355115744	 0.113504
H	 1.0247392677	 0.854900604	 2.3625087728	 0.259285
H	 1.2052482104	-0.9391600492	 4.1381851225	 0.125149
H	 0.7013569016	-4.5179124124	 2.319853634	 0.107874
H	-0.3751252403	-3.6414191703	 3.4568744478	 0.115675
H	 1.1270046909	-2.5155064181	 0.1785788323	 0.100619
90.0057	116.7325	182.5149	204.9402	278.1301	287.9431	339.8146	438.3979	501.2965	651.6608	688.9767	726.2006	798.5311	845.3246	890.3642	897.2149	946.5533	984.9397	996.888	1036.7687	1101.4149	1105.6712	1128.4909	1144.5764	1161.1276	1204.1789	1246.1012	1306.195	1329.7481	1350.647	1399.5284	1432.6411	1493.4928	1505.654	1521.2509	1669.7927	1764.0444	2964.4492	3013.4231	3019.8507	3057.8982	3082.3546	3105.5108	3213.841	3671.3133
CN=C1NC=C2COC12	CN=C1N[CH][C]2CO[C@@H]12	
InChI=1S/C6H8N2O/c1-7-6-5-4(2-8-6)3-9-5/h2,5H,3H2,1H3,(H,7,8)	InChI=1S/C6H8N2O/c1-7-6-5-4(2-8-6)3-9-5/h2,5H,3H2,1H3,(H,7,8)/t5-/m1/s1
