19
gdb 66828	2.7025	1.87924	1.43877	1.0316	78.88	-0.2284	0.0763	0.3048	972.92	0.1595	-385.818057	-385.810544	-385.8096	-385.84943	30.861	
C	-0.145104424	 1.5245562525	-0.055272646	-0.528344
C	-0.0134275782	 0.0400789497	 0.0342503153	 0.290851
C	 0.0071756007	-1.0475535394	-1.0381649796	-0.214132
C	 1.1416953311	-1.863090628	-0.3822018067	-0.050118
C	 0.4770166648	-3.0314533514	 0.3918745013	-0.251971
C	-0.2716393563	-1.9079667702	 1.1520002621	-0.125898
C	 0.9177878998	-0.9107385258	 0.855722059	-0.10682
C	-1.0313886596	-1.0660076963	 0.0972387508	 0.357893
O	-2.3899706965	-0.9441763024	-0.1004408629	-0.472879
H	 0.773462802	 1.9907011146	-0.4301629273	 0.116933
H	-0.9607328522	 1.7952733573	-0.7338975038	 0.129277
H	-0.3696102664	 1.9659312565	 0.9229159297	 0.120518
H	-0.2892646788	-0.9720665187	-2.077549052	 0.078635
H	 2.0907910801	-1.9715846995	-0.9069727223	 0.062285
H	-0.1098850639	-3.76687572	-0.1699948253	 0.081568
H	 1.1955869894	-3.5489580364	 1.0354728394	 0.095985
H	-0.7212875955	-2.0414892118	 2.1353103903	 0.066726
H	 1.6779381139	-0.6299275941	 1.5812129589	 0.066761
H	-2.6952435406	-1.6971269366	-0.6193095408	 0.28273
176.1732	198.7521	226.0006	271.2858	301.5521	361.9331	446.4207	557.3935	613.4703	637.5193	737.5506	741.385	804.6055	821.7865	834.2202	879.267	898.9973	914.1967	930.8258	948.1385	983.9653	1026.8642	1040.0027	1080.8186	1103.2971	1110.9605	1157.9637	1164.5778	1168.3054	1196.7201	1202.6391	1240.9576	1256.8717	1276.9246	1304.2	1353.1747	1413.0658	1482.5726	1489.1659	1491.3221	1505.0871	3020.6699	3032.6538	3078.3248	3090.6169	3096.2466	3111.313	3122.5763	3141.5558	3186.5012	3780.939
CC12C3C4CC(C14)C23O	C[C@@]12[C@H]3[C@@H]4C[C@@H]([C@H]14)[C@@]23O	
InChI=1S/C8H10O/c1-7-5-3-2-4(5)8(7,9)6(3)7/h3-6,9H,2H2,1H3	InChI=1S/C8H10O/c1-7-5-3-2-4(5)8(7,9)6(3)7/h3-6,9H,2H2,1H3/t3-,4+,5-,6-,7+,8+/m1/s1
