17
gdb 27262	3.20079	1.48472	1.03305	2.5055	75.51	-0.2005	0.0403	0.2408	1111.6778	0.138666	-418.026981	-418.018774	-418.01783	-418.061283	29.87	
N	 0.180966331	 1.4183942654	 0.0253084117	-0.60873
C	-0.0135599507	 0.0160007975	 0.0144743549	 0.062366
C	-1.1029996623	-0.8228282714	-0.0498243842	 0.22149
C	-2.5951673375	-0.827751953	-0.1271792684	-0.200301
O	-2.9516436329	-2.2167376621	-0.2026136684	-0.283872
C	-1.8092121441	-3.0820418173	-0.088790624	-0.187622
C	-0.6370558707	-2.1562134792	-0.0272177922	 0.214253
C	 0.733663755	-2.1323166877	 0.0513078758	-0.251985
N	 1.0958032922	-0.804527308	 0.0751633427	-0.241226
H	-0.2190168047	 1.8576592793	-0.7974632904	 0.2438
H	-0.2521190313	 1.8518543918	 0.8346163005	 0.243582
H	-3.0777278968	-0.3768751873	 0.7543059719	 0.098445
H	-2.9942061484	-0.3145122401	-1.0146800002	 0.101011
H	-1.9164470556	-3.7060320296	 0.8114326514	 0.103026
H	-1.7935797274	-3.7569208945	-0.956365784	 0.106011
H	 1.4751335919	-2.9134774776	 0.0915851746	 0.120662
H	 2.0334477026	-0.4420750664	 0.1186271884	 0.259091
25.5055	59.9129	168.6179	226.2286	265.8223	304.6944	520.8784	523.6502	598.7672	632.3409	637.4007	656.9012	704.0393	798.6425	805.9634	853.6876	900.9743	1021.8428	1043.3689	1062.0143	1081.1155	1085.7101	1170.3912	1189.6332	1210.1868	1216.9867	1262.8151	1321.3443	1348.8575	1373.5908	1444.9539	1476.1732	1521.8113	1531.5369	1566.7209	1642.5899	1668.9398	2970.0076	2982.1025	2993.256	3006.1445	3262.1398	3497.8976	3560.7985	3670.3374	25.518	59.921	168.6183	226.2286	265.8225	304.6945	520.8785	523.6502	598.7672	632.3408	637.401	656.9015	704.0406	798.6428	805.9637	853.6876	900.9752	1021.8429	1043.3694	1062.0143	1081.116	1085.7107	1170.3912	1189.6332	1210.1863	1216.9865	1262.8154	1321.3444	1348.8576	1373.5908	1444.9539	1476.1734	1521.8114	1531.537	1566.7208	1642.5896	1668.9396	2970.0078	2982.1026	2993.2562	3006.1447	3262.1401	3497.8979	3560.7986	3670.3374
NC1=C2COCC2=CN1	Nc1c2COCc2c[nH]1	
InChI=1S/C6H8N2O/c7-6-5-3-9-2-4(5)1-8-6/h1,8H,2-3,7H2	InChI=1S/C6H8N2O/c7-6-5-3-9-2-4(5)1-8-6/h1,8H,2-3,7H2
