20
gdb 70334	2.22185	2.06168	1.37991	1.4189	77.74	-0.2205	0.0743	0.2948	1014.9207	0.170674	-403.120387	-403.112189	-403.111245	-403.152392	32.891	
C	 0.1622479056	 1.5247265872	 0.1066473017	-0.488538
C	 0.0158416714	 0.0250352996	 0.0057093641	 0.263485
C	-0.7282247777	-0.7667702996	 1.0241934129	-0.282393
N	 0.7423187949	-0.8037367511	 0.9987580936	-0.148553
C	 1.359626252	-1.9491051305	 0.2945802854	-0.199245
C	 0.9848674689	-1.8482619938	-1.1731347015	-0.028711
O	-0.4244493783	-1.955776674	-1.4191503365	-0.294972
C	 0.1616961476	-0.6398432436	-1.3638723107	 0.364086
C	 0.0825639903	 0.1629397128	-2.6339033883	-0.501492
H	 1.1075384533	 1.868423479	-0.3277368762	 0.118843
H	-0.6550228715	 2.0410163863	-0.4087253299	 0.118472
H	 0.1503018028	 1.8274461058	 1.156206489	 0.130915
H	-1.143488401	-0.2618517659	 1.893687452	 0.104406
H	-1.2787828914	-1.6345012523	 0.6781748768	 0.131347
H	 2.4481475127	-1.8726617512	 0.4033125071	 0.109992
H	 1.0446136533	-2.8983156805	 0.7407863538	 0.11827
H	 1.6293021214	-2.2675052279	-1.944903673	 0.092503
H	-0.9087367776	 0.6143599029	-2.748585412	 0.131603
H	 0.8219075076	 0.9692343504	-2.6430914498	 0.12785
H	 0.2610217058	-0.4845890136	-3.4953665584	 0.132132
150.6838	198.3577	210.4939	251.4445	291.184	320.5284	365.5913	416.6351	466.9137	504.9533	598.5423	607.8171	721.3202	771.9416	789.8852	810.4643	876.2265	924.8778	947.5688	966.8989	993.3215	1039.7082	1056.5136	1090.5841	1115.1514	1117.8584	1136.5802	1166.1137	1174.5058	1237.4333	1291.323	1319.72	1333.5477	1358.9902	1407.2194	1419.1696	1444.2049	1480.9357	1482.0574	1488.4578	1497.1357	1500.358	1502.7043	3031.7678	3034.3341	3041.642	3079.1934	3092.2231	3104.974	3105.5426	3120.2855	3123.3216	3129.3241	3208.8195
CC12CN1CC1OC21C	C[C@]12CN1C[C@H]1O[C@@]21C	
InChI=1S/C7H11NO/c1-6-4-8(6)3-5-7(6,2)9-5/h5H,3-4H2,1-2H3	InChI=1S/C7H11NO/c1-6-4-8(6)3-5-7(6,2)9-5/h5H,3-4H2,1-2H3/t5-,6-,7-,8?/m1/s1
