17
gdb 71526	2.57278	1.55913	1.4356	1.0339	80.23	-0.2275	0.0164	0.2439	1006.5665	0.135273	-380.726788	-380.718866	-380.717922	-380.75891	31.193	
C	 0.0152830078	 1.4651151673	-0.039552365	-0.530374
C	 0.0374391019	-0.0297945507	-0.0523341586	 0.315279
N	 0.660300575	-0.8719294015	-1.1249313	-0.375049
C	 0.0964019283	-1.8776140982	-0.1758394492	-0.092558
C	 0.4886092647	-1.0224581707	 1.0631067805	-0.068002
N	-0.8635247884	-1.0221164016	 1.7072905426	-0.385011
C	-1.1716808377	-1.0243147626	 0.2343483473	 0.249119
C	-2.4819924277	-1.0338401744	-0.3325936289	 0.073407
C	-3.5709581467	-1.0429181646	-0.8457611631	-0.389217
H	 1.0312648898	 1.8641623506	-0.1181019678	 0.134659
H	-0.574044477	 1.856838113	-0.8753164546	 0.128224
H	-0.4337340556	 1.8168293206	 0.8938601443	 0.147263
H	 0.0951521681	-0.8330812027	-1.9778432625	 0.21247
H	 0.1631949343	-2.9572370597	-0.3220289745	 0.087408
H	 1.4252881038	-1.0227415934	 1.6179437718	 0.092655
H	-1.0680579105	-1.9426843745	 2.105719175	 0.21338
H	-4.5356819402	-1.0489324967	-1.2900183674	 0.186347
114.8409	137.7758	211.3889	246.2583	290.804	395.8832	470.0145	518.0309	529.9322	614.5229	617.1465	669.2308	677.8653	738.382	787.3678	833.7333	862.4207	882.9725	937.9028	954.2962	991.5521	1040.3452	1085.5061	1099.7781	1133.8363	1179.0935	1189.7565	1234.7235	1255.8579	1282.7023	1293.8146	1315.2805	1367.4689	1411.9378	1482.4021	1486.9741	2225.0585	3037.1826	3103.3516	3105.4234	3120.9241	3140.1344	3400.9303	3403.5716	3499.5245
CC12NC3C1NC23C#C	C[C@@]12N[C@H]3[C@@H]1N[C@@]23C#C	
InChI=1S/C7H8N2/c1-3-7-5-4(9-7)6(7,2)8-5/h1,4-5,8-9H,2H3	InChI=1S/C7H8N2/c1-3-7-5-4(9-7)6(7,2)8-5/h1,4-5,8-9H,2H3/t4-,5-,6+,7+/m0/s1
