20
gdb 91522	2.49235	1.4919	1.15151	2.7903	80.72	-0.2182	-0.0138	0.2044	1147.4572	0.169104	-403.126429	-403.117169	-403.116225	-403.160532	34.415	
C	-0.0824196853	 1.5873692158	 0.1219576818	-0.339635
N	 0.073384291	 0.1428859971	 0.0933602458	-0.138608
C	 1.0474695615	-0.4461871047	-0.8700583606	-0.184496
C	 1.7328415165	-1.2045349976	 0.2680957083	-0.10697
C	 2.2233356273	-0.2496791017	 1.3052448587	-0.327363
C	 0.7332319171	-0.5178750417	 1.2217096778	 0.247192
C	-0.0026937638	-1.1767548257	 2.3347510155	 0.313251
C	-1.5128664657	-1.0587412324	 2.3157917447	-0.486592
O	 0.5940771367	-1.7915459227	 3.1956155646	-0.328373
H	 0.8613612134	 2.14169582	 0.2632461496	 0.098889
H	-0.5330213418	 1.9211001366	-0.8183204956	 0.123299
H	-0.7619824296	 1.8649257757	 0.9341912998	 0.122961
H	 0.5542731466	-1.0771501549	-1.6159537137	 0.113477
H	 1.6838668997	 0.2858839939	-1.3858280668	 0.099823
H	 1.9882902795	-2.255566246	 0.2705273083	 0.113536
H	 2.6919503353	-0.7015940533	 2.1717898313	 0.146869
H	 2.6062950586	 0.7248535086	 1.0152259074	 0.111485
H	-1.9072294028	-1.3299607039	 1.3327352926	 0.147598
H	-1.9370717691	-1.6895640385	 3.0976080329	 0.135629
H	-1.807380875	-0.0169398546	 2.4909782279	 0.138027
61.4457	124.9219	136.7113	186.5876	212.8224	215.9637	313.6536	370.3242	400.3494	466.0277	541.933	583.1511	646.6497	677.456	811.9484	844.7416	872.2148	926.1192	945.8035	959.6669	1000.058	1027.5291	1053.6989	1068.7773	1091.1054	1122.6808	1141.5431	1170.0956	1202.0002	1231.9235	1238.2234	1300.9463	1332.0699	1366.0766	1389.7395	1448.7738	1456.1514	1466.7146	1469.2683	1486.9897	1503.1311	1511.8589	1782.1508	2957.4735	3008.8192	3039.7668	3062.575	3071.57	3102.6783	3106.3813	3122.2648	3157.8925	3209.6735	3229.0085
CN1CC2CC12C(C)=O	CN1C[C@H]2C[C@@]12C(=O)C	
InChI=1S/C7H11NO/c1-5(9)7-3-6(7)4-8(7)2/h6H,3-4H2,1-2H3	InChI=1S/C7H11NO/c1-5(9)7-3-6(7)4-8(7)2/h6H,3-4H2,1-2H3/t6-,7+/m1/s1
