18
gdb 91609	2.28456	2.05527	1.49334	3.7132	71.15	-0.2193	0.0119	0.2312	944.8389	0.150128	-439.118835	-439.111561	-439.110617	-439.150432	28.721	
C	-0.1992763253	 1.4589472679	-0.0120234621	-0.337093
N	 0.0641112837	 0.0283890483	-0.0122491327	-0.060413
C	 0.825350033	-0.4842245507	-1.1762012392	-0.179074
C	 1.859345401	-1.3922940962	-0.4973046328	 0.083745
C	 1.0764353134	-1.9354846681	 0.7103665921	-0.245096
C	 0.7580215656	-0.5122476055	 1.1786444963	-0.145227
C	 2.1735682596	 0.0859382682	 1.192577525	 0.447895
O	 2.6681052835	 0.9384614803	 1.8693525136	-0.354795
O	 2.8216959048	-0.5029909263	 0.1304800909	-0.24274
H	 0.7105362737	 2.0828358814	-0.0234634784	 0.121105
H	-0.7993351773	 1.7124233866	-0.8912244334	 0.125021
H	-0.7800193052	 1.7223556733	 0.877356919	 0.127652
H	 0.1766038094	-1.0308910985	-1.8710381791	 0.110027
H	 1.3364104128	 0.3142708023	-1.7286874751	 0.113518
H	 2.3989735059	-2.0897746017	-1.1345661227	 0.097126
H	 0.1846098967	-2.5033775596	 0.4413998577	 0.120302
H	 1.7079925495	-2.4995095917	 1.3991254627	 0.122433
H	 0.1956240952	-0.3574344301	 2.0970293284	 0.095614
132.6388	142.0471	214.2239	347.5753	383.6468	426.048	434.5242	493.3556	574.9867	685.4554	737.487	795.8327	822.5792	886.3645	896.1887	937.8281	952.1204	973.9823	991.0242	1047.6225	1063.2425	1109.2342	1144.8879	1159.4195	1173.0893	1210.0052	1228.6736	1237.2333	1282.7337	1295.0813	1325.5911	1353.7983	1361.6718	1460.4811	1481.7141	1491.6298	1503.8693	1514.2081	1885.7928	2964.6677	3017.7469	3056.9623	3068.2926	3083.5105	3108.4422	3145.2508	3147.0116	3148.9222
CN1CC2CC1C(=O)O2	CN1C[C@@H]2C[C@H]1C(=O)O2	
InChI=1S/C6H9NO2/c1-7-3-4-2-5(7)6(8)9-4/h4-5H,2-3H2,1H3	InChI=1S/C6H9NO2/c1-7-3-4-2-5(7)6(8)9-4/h4-5H,2-3H2,1H3/t4-,5-/m0/s1
