21
gdb 108201	3.09376	1.39083	1.28694	1.3481	77.23	-0.2389	0.0821	0.3211	1100.2535	0.184054	-424.236009	-424.227957	-424.227013	-424.268427	32.02	
C	 0.0777898915	 1.5506885412	 0.0531442332	-0.388041
C	 0.0294824562	 0.021439271	-0.0546713222	-0.269766
C	 0.656886966	-0.5255536615	-1.321250882	 0.396876
C	 0.0512788235	-0.0866181426	-2.6706996501	-0.106237
O	 0.6242965406	-1.0147329225	-3.6149067169	-0.284734
C	 1.4888505749	-1.8623370814	-2.8455832459	 0.066501
C	 2.6658363085	-1.0065539475	-2.3605674364	-0.081188
O	 2.0568117285	-0.1626662479	-1.3640220754	-0.320391
C	 0.7125907913	-2.0500466919	-1.5370926004	-0.282103
H	 1.1071808653	 1.9077908425	-0.0299363042	 0.140157
H	-0.5108313141	 2.0311315646	-0.7353433784	 0.116026
H	-0.3256629731	 1.8825573833	 1.0142539421	 0.111226
H	 0.5558321517	-0.4222731578	 0.798173387	 0.106182
H	-1.0084748948	-0.3292516091	-0.004086902	 0.09797
H	-1.0438791159	-0.1651392576	-2.6943069003	 0.094107
H	 0.344712431	 0.936546597	-2.926248032	 0.107057
H	 1.7457535999	-2.7382564388	-3.4404055965	 0.082104
H	 3.4719969192	-1.5976828378	-1.9058318372	 0.095521
H	 3.0781640051	-0.3999214859	-3.1741253274	 0.107354
H	 1.2680436379	-2.5615447067	-0.748158382	 0.105156
H	-0.2621375931	-2.5174150505	-1.6897190831	 0.106221
87.0263	176.9898	190.9254	229.0749	326.1624	346.9743	415.3691	448.8086	485.8783	591.2789	627.5521	772.0898	786.7515	817.6082	864.3158	903.9164	919.5175	923.0104	964.4608	980.4794	991.3305	1013.1179	1053.9917	1059.9269	1077.1523	1125.1442	1155.0951	1190.8823	1196.5979	1216.3243	1227.7036	1277.3881	1287.7111	1311.0021	1328.6678	1366.8852	1374.3484	1400.2423	1406.4829	1473.3648	1478.1135	1498.0599	1508.7457	1512.9273	1519.8054	3010.1052	3012.7252	3031.7414	3041.166	3067.6549	3068.3402	3073.5244	3075.3035	3105.9751	3127.9562	3130.4253	3136.4377
CCC12COC(CO1)C2	CC[C@@]12CO[C@@H](CO1)C2	
InChI=1S/C7H12O2/c1-2-7-3-6(4-9-7)8-5-7/h6H,2-5H2,1H3	InChI=1S/C7H12O2/c1-2-7-3-6(4-9-7)8-5-7/h6H,2-5H2,1H3/t6-,7-/m1/s1
