17
gdb 40023	3.34133	1.47712	1.24697	1.0659	73.61	-0.2439	-0.0127	0.2311	1017.1835	0.136837	-421.798031	-421.790935	-421.789991	-421.829554	28.399	
C	-0.8024729412	 1.2235300888	 0.0678713178	-0.220149
O	 0.6076633929	 1.4126822009	-0.0156988826	-0.2902
C	 0.1085386261	 0.0640013034	 0.0035890214	 0.41133
C	 0.4505103691	-0.7163623495	 1.2679602485	-0.343879
C	-0.0108687412	-2.15435612	 1.2045888621	 0.041365
O	-1.3082317422	-2.4026888233	 0.6743861355	-0.256842
C	-0.1570438432	-2.8016867333	-0.1119150275	-0.008537
C	 0.1314214028	-2.0078372807	-1.3308656518	-0.063458
C	 0.2476583268	-0.6790598446	-1.272084582	-0.143949
H	-1.2600359264	 1.4807389035	 1.0229121861	 0.116028
H	-1.369635068	 1.5170408186	-0.8143511412	 0.11602
H	 1.5415985785	-0.7147196328	 1.3903912197	 0.124091
H	 0.0314326713	-0.2132420714	 2.1451749995	 0.117121
H	 0.2572501073	-2.7726023895	 2.0622192581	 0.095557
H	-0.037689027	-3.880437861	-0.1847752761	 0.095243
H	 0.2367469131	-2.5364848288	-2.2727156517	 0.100049
H	 0.4405467114	-0.0795028202	-2.1564578761	 0.110212
83.3855	220.2276	327.4035	339.9416	360.3744	374.0934	463.2907	555.6855	634.9635	684.7784	735.9809	783.8166	824.2384	836.7712	902.302	916.9726	942.2586	962.4904	983.6041	994.5259	1044.1552	1075.3069	1129.1717	1139.5556	1158.1872	1170.1895	1222.2861	1273.3405	1293.1855	1328.085	1367.5273	1380.0636	1434.9402	1459.7275	1476.4599	1525.2651	1701.055	3030.3776	3077.7505	3079.0429	3102.4301	3136.6402	3167.358	3172.5061	3192.7501
C1OC11CC2OC2C=C1	C1O[C@]21C[C@H]1O[C@H]1C=C2	
InChI=1S/C7H8O2/c1-2-7(4-8-7)3-6-5(1)9-6/h1-2,5-6H,3-4H2	InChI=1S/C7H8O2/c1-2-7(4-8-7)3-6-5(1)9-6/h1-2,5-6H,3-4H2/t5-,6+,7-/m0/s1
