20
gdb 115539	2.5656	1.09194	1.0246	3.1318	79.84	-0.2659	0.0227	0.2886	1309.6443	0.169667	-403.15372	-403.143989	-403.143045	-403.188485	35.243	
C	-0.052748435	 1.5834907651	-0.2203443766	-0.385854
C	 0.05690745	 0.0774771375	 0.0473131468	-0.20866
C	-1.3092338401	-0.5724933288	 0.1264925895	 0.135976
O	-2.0498627893	-0.5085535679	-1.1134462888	-0.288569
C	-2.5134628653	-1.8585924251	-0.9605372149	-0.101961
C	-1.4690740344	-2.1356701126	 0.1604846411	 0.069278
C	-0.2622494435	-2.9529148708	-0.3145948478	-0.453346
C	-2.0014574504	-2.6676857551	 1.4082960375	 0.237293
N	-2.4228541708	-3.0826152808	 2.4019699217	-0.340211
H	 0.9385462411	 2.038670404	-0.2971197091	 0.117736
H	-0.5881069785	 1.769193111	-1.1554677986	 0.141685
H	-0.5945518961	 2.0907198682	 0.5849669693	 0.121037
H	 0.6475069274	-0.3962553785	-0.7432316454	 0.104332
H	 0.5789111098	-0.1027297871	 0.9958578432	 0.109392
H	-1.8923667278	-0.1129459527	 0.9384371276	 0.088057
H	-3.5554856856	-1.9068539523	-0.6217119054	 0.119737
H	-2.3938839509	-2.4477228642	-1.8757676792	 0.116638
H	 0.0911840143	-2.5760442098	-1.277233071	 0.138142
H	 0.5599051242	-2.9055665285	 0.4041733984	 0.140258
H	-0.5446464691	-4.0020666915	-0.4393806582	 0.13904
76.0793	87.6197	149.2946	165.7635	194.0629	225.6101	255.7131	295.6288	345.0096	392.7689	471.0846	553.8783	587.1697	607.9797	761.8977	828.4988	901.8684	918.2547	946.8357	950.9409	983.0535	1033.3945	1057.4878	1115.6786	1123.9655	1161.0574	1176.541	1212.0828	1235.6851	1284.4627	1305.235	1334.7975	1361.9818	1408.7177	1412.1823	1420.3279	1474.2232	1494.147	1495.6058	1498.888	1508.7067	1523.6296	2351.7272	2992.2524	3023.4113	3031.943	3041.1004	3048.6072	3079.5023	3080.8849	3111.1068	3121.9376	3123.215	3131.7829
CCC1OCC1(C)C#N	CC[C@H]1OC[C@]1(C)C#N	
InChI=1S/C7H11NO/c1-3-6-7(2,4-8)5-9-6/h6H,3,5H2,1-2H3	InChI=1S/C7H11NO/c1-3-6-7(2,4-8)5-9-6/h6H,3,5H2,1-2H3/t6-,7+/m1/s1
