14
gdb 116826	17.01866	0.38604	0.37927	6.06	100.89	-0.2662	-0.0737	0.1926	2631.3616	0.099819	-399.512846	-399.503338	-399.502394	-399.548415	31.945	
O	-0.1137497523	 1.458389343	 0.0112506543	-0.407983
C	 0.0437084021	 0.0536581011	 0.002049803	-0.068307
C	-1.3758184022	-0.5349441177	 0.0124820587	-0.362798
C	-1.3872241422	-1.9846256978	 0.0047996973	 0.220038
C	-1.3831454821	-3.197355379	-0.0018185274	-0.20722
C	-1.377870107	-4.5478168954	-0.0092156139	-0.200258
C	-1.3728338045	-5.7639956329	-0.0158715067	 0.446772
C	-1.3659540226	-7.1227931108	-0.0232845371	 0.075414
N	-1.3595213647	-8.2865563672	-0.0295664155	-0.328329
H	 0.7582740244	 1.8637234104	 0.0045470206	 0.296024
H	 0.5777746619	-0.2963455694	-0.8933667741	 0.109163
H	 0.5948444009	-0.3060490517	 0.8831658422	 0.109162
H	-1.9027980632	-0.1605558901	 0.8989420281	 0.159163
H	-1.9196444386	-0.1511005025	-0.8596407894	 0.159158
47.8589	60.1318	105.2158	130.9544	211.0894	232.8018	255.2862	337.7196	374.7268	438.4329	543.44	543.7747	613.5347	644.5107	653.5972	791.0512	952.0232	1002.0002	1081.6567	1087.8085	1218.7146	1235.0413	1291.1989	1300.8195	1347.5507	1454.0368	1465.5115	1529.0105	2216.6044	2342.7673	2358.2948	2989.3061	3022.0475	3031.2266	3071.0016	3834.8723
OCCC#CC#CC#N	OCCC#CC#CC#N	
InChI=1S/C7H5NO/c8-6-4-2-1-3-5-7-9/h9H,5,7H2	InChI=1S/C7H5NO/c8-6-4-2-1-3-5-7-9/h9H,5,7H2
