18
gdb 107388	3.18314	1.25444	1.0142	2.1504	72.67	-0.2414	0.0153	0.2568	1198.6467	0.147365	-439.088312	-439.079777	-439.078833	-439.121694	31.996	
C	 0.066248805	 1.439216369	-0.0192122219	-0.479509
C	-0.0525439627	-0.0432587526	 0.0339571172	 0.389543
N	-1.1207268149	-0.7268324912	 0.1779694341	-0.362452
C	-0.7359246828	-2.1240259321	 0.1313539229	 0.306335
C	-1.5570877959	-3.0322483341	 1.0082891333	-0.145681
O	-2.911048938	-3.059468914	 0.5955126149	-0.415943
C	-0.1284069462	-2.5728267449	-1.1831768502	-0.350904
C	 0.7671985078	-2.104807258	-0.0706875995	 0.00234
O	 1.1237516551	-0.7304858132	-0.0861838338	-0.24598
H	 0.7986860844	 1.7875050577	 0.7152683442	 0.147949
H	 0.4158826599	 1.7597503642	-1.0058858731	 0.149148
H	-0.9044122841	 1.8910082703	 0.1827403253	 0.153523
H	-1.1849661108	-4.0602396548	 0.9470837622	 0.102441
H	-1.4664354326	-2.7035833691	 2.0560360072	 0.090265
H	-3.1847843987	-2.1374955917	 0.518289921	 0.295868
H	-0.1256258884	-3.6407828915	-1.3743029998	 0.12485
H	-0.2538644603	-1.9440644908	-2.0584188531	 0.123012
H	 1.5133942134	-2.7307758534	 0.4017271989	 0.115197
70.0144	130.9126	162.3369	176.1006	274.3058	333.983	389.0303	415.3309	424.8625	463.3922	635.0132	650.7256	730.3816	780.7542	867.8904	876.2933	922.7416	953.7188	976.6078	994.9235	1045.2764	1049.7811	1068.6015	1075.8276	1094.9262	1126.23	1179.8933	1243.4272	1290.984	1320.8426	1376.1892	1384.651	1412.6508	1441.3002	1468.9448	1474.4568	1477.8215	1503.068	1708.9212	2976.6266	3051.0612	3073.0365	3108.8123	3129.5863	3164.8739	3194.7995	3222.8839	3791.1342
CC1=NC2(CO)CC2O1	CC1=N[C@@]2(CO)C[C@H]2O1	
InChI=1S/C6H9NO2/c1-4-7-6(3-8)2-5(6)9-4/h5,8H,2-3H2,1H3	InChI=1S/C6H9NO2/c1-4-7-6(3-8)2-5(6)9-4/h5,8H,2-3H2,1H3/t5-,6-/m1/s1
