20
gdb 99870	2.06628	1.4177	1.0483	4.8975	75.29	-0.2923	0.0285	0.3208	1239.398	0.167779	-440.302071	-440.291391	-440.290447	-440.337197	39.044	
C	 0.0007289057	 1.6060801879	 0.0558085915	-0.402495
C	-0.0457757113	 0.0779558557	-0.0215742609	-0.215711
C	 0.6751897474	-0.4989182448	-1.2519872993	 0.219394
O	 0.0172311368	-0.0142087973	-2.4063445061	-0.456078
C	 2.0938521163	-0.0416033311	-1.2508910908	 0.287731
N	 3.1891453879	 0.3259865677	-1.2318413147	-0.353639
C	 0.6892138364	-2.0534993206	-1.277424208	 0.104999
C	-0.6981660546	-2.6770920378	-1.1549498697	-0.430526
O	 1.2806315567	-2.3565821304	-2.5404304523	-0.449165
H	 1.0274937433	 1.9690925931	 0.1555115599	 0.143593
H	-0.4320313459	 2.0497053114	-0.8439261082	 0.142441
H	-0.568521282	 1.9573384566	 0.920907302	 0.114355
H	 0.3950008024	-0.3656004603	 0.8786763929	 0.110121
H	-1.0858583377	-0.255206125	-0.0783119512	 0.116778
H	 0.3738448964	-0.5244749808	-3.147196702	 0.298305
H	 1.3364597503	-2.4051162047	-0.4608217237	 0.091022
H	-1.3816665743	-2.2363597982	-1.8849783496	 0.141622
H	-0.6356383163	-3.7554232731	-1.3398669418	 0.11097
H	-1.1136267853	-2.5448586127	-0.1527849018	 0.131901
H	 1.2113989077	-3.3025442658	-2.6989933465	 0.294383
90.5556	102.5139	149.3756	165.4873	205.8062	225.7392	238.7312	249.4305	305.9033	321.5675	376.645	420.6018	432.9252	504.8407	524.0468	586.3054	640.8353	721.7966	796.4682	893.607	952.7597	976.6288	992.4456	1046.9305	1082.8767	1104.7153	1129.8204	1161.6573	1183.1012	1248.1373	1318.6917	1353.6117	1365.9722	1402.137	1407.2933	1411.0808	1415.6097	1471.7539	1491.3471	1498.3138	1502.8277	1509.7857	2351.272	3000.8216	3038.7071	3044.3129	3050.472	3093.9811	3106.821	3120.3976	3134.2056	3135.5006	3752.9734	3836.1473
CCC(O)(C#N)C(C)O	CC[C@@](O)(C#N)[C@@H](C)O	
InChI=1S/C6H11NO2/c1-3-6(9,4-7)5(2)8/h5,8-9H,3H2,1-2H3	InChI=1S/C6H11NO2/c1-3-6(9,4-7)5(2)8/h5,8-9H,3H2,1-2H3/t5-,6-/m1/s1
