20
gdb 14700	9.26714	0.54954	0.54006	0.9173	82.85	-0.2412	0.0425	0.2836	2129.0773	0.174316	-348.969571	-348.959159	-348.958215	-349.007348	34.792	
C	-0.0168144312	 1.4888609934	-0.3251560466	-0.381818
C	-0.1270663566	-0.0369200126	-0.327600325	-0.154161
C	-1.3146189938	-0.5405015607	 0.5178494594	-0.338892
C	-1.445168489	-1.9925905626	 0.5300142381	 0.100323
C	-1.5360342777	-3.1929688583	 0.5168595546	 0.046219
C	-1.6375312448	-4.6453626473	 0.5320514849	-0.203123
O	-2.4547387159	-5.092756897	-0.5344010364	-0.227552
C	-2.5772130592	-6.49499617	-0.5516076581	-0.217147
H	 0.830756712	 1.8247948167	-0.9299569949	 0.11479
H	-0.9215736614	 1.9534860739	-0.732963092	 0.116239
H	 0.1245423583	 1.876099689	 0.6902151831	 0.115035
H	-0.2423009192	-0.4061492163	-1.3526245137	 0.111696
H	 0.7963025642	-0.4829577436	 0.05859215	 0.107526
H	-1.2084098973	-0.1746380823	 1.5483420441	 0.125116
H	-2.2449295333	-0.0962399511	 0.1385125211	 0.128907
H	-0.6309536582	-5.0936145173	 0.453975919	 0.110425
H	-2.0536451388	-4.9829390319	 1.4980417127	 0.111055
H	-3.2179201664	-6.7537740815	-1.3975703391	 0.129507
H	-1.6014653876	-6.9914714691	-0.6789454934	 0.102849
H	-3.0367356741	-6.8789830314	 0.3736713722	 0.103006
12.409	64.5398	67.164	112.5093	125.082	230.7404	240.8628	279.3202	305.7377	311.1528	389.5726	468.2466	548.3684	741.7575	814.1419	870.6489	897.0142	976.8886	1028.9064	1041.8998	1108.9274	1120.9149	1136.4701	1178.083	1182.7253	1220.2065	1254.3435	1259.3669	1306.4061	1321.8896	1381.913	1411.6029	1413.0224	1469.7106	1477.7915	1484.083	1491.6595	1496.278	1499.0942	1508.6907	1516.9177	2372.8562	2938.7691	2954.7602	2965.2837	3006.4677	3008.8751	3028.9779	3035.6583	3041.4215	3073.0843	3099.6057	3105.1384	3118.0751
CCCC#CCOC	CCCC#CCOC	
InChI=1S/C7H12O/c1-3-4-5-6-7-8-2/h3-4,7H2,1-2H3	InChI=1S/C7H12O/c1-3-4-5-6-7-8-2/h3-4,7H2,1-2H3
