16
gdb 43680	2.41638	1.56505	1.24903	3.3089	78.62	-0.2499	-0.0342	0.2157	1051.3514	0.124642	-400.731456	-400.723545	-400.722601	-400.764042	30.256	
N	-0.0981460174	 1.2932613037	 0.3896911272	-0.51667
C	-0.0502039948	 0.0666669966	 0.0635674708	 0.379929
O	 1.1487471665	-0.5581675567	-0.1748601633	-0.263214
C	 1.1330126077	-1.7821189694	-0.9372431939	-0.08508
C	 0.0969594238	-2.7721518134	-0.3801039804	-0.278816
C	-1.2154421096	-2.0749059571	-0.1644052375	-0.087847
C	-1.2642841235	-0.7535009057	 0.0125433144	-0.072598
C	 0.9280221207	-1.5070149851	-2.361356157	 0.356433
C	 0.773313806	-1.2893743643	-3.5325201192	-0.478472
H	 0.8431738271	 1.6919702763	 0.3823521983	 0.222536
H	 2.1405120583	-2.1862408408	-0.7999043136	 0.125363
H	-0.0081463354	-3.6102072918	-1.0757794921	 0.13027
H	 0.4667312007	-3.1893715033	 0.5661537551	 0.128998
H	-2.121231175	-2.6729668816	-0.14371736	 0.110339
H	-2.1891273483	-0.21373986	 0.1727268066	 0.121117
H	 0.6361097132	-1.0897396874	-4.5669363852	 0.207711
83.8075	107.1926	191.7908	270.722	329.2153	398.3432	434.4387	477.6168	586.2285	612.2895	636.0944	648.2568	678.966	792.7026	803.0758	831.5071	907.9073	914.3576	932.7824	971.6029	1012.7291	1052.7366	1066.3181	1095.8837	1186.8117	1223.6253	1294.3556	1325.9119	1360.8868	1393.4242	1423.1072	1466.4737	1689.2211	1735.6652	2237.9161	3022.0806	3066.0566	3084.1065	3177.2321	3220.8499	3465.9431	3501.3453
N=C1OC(CC=C1)C#C	[NH]C1=C[CH]C[C@H](O1)C#C	
InChI=1S/C7H7NO/c1-2-6-4-3-5-7(8)9-6/h1,3,5-6,8H,4H2	InChI=1S/C7H7NO/c1-2-6-4-3-5-7(8)9-6/h1,3,5-6,8H,4H2/t6-/m1/s1
