18
gdb 6791	4.88209	0.83568	0.80633	5.2312	64.8	-0.2466	0.0211	0.2676	1434.7554	0.154561	-418.274516	-418.265425	-418.264481	-418.309485	31.691	
N	-0.0079443326	 1.3159523894	-0.4845230689	-0.506713
C	-0.0590552426	 0.0173131992	 0.1875775908	-0.165106
C	-1.4492602793	-0.5950346139	 0.0254205959	-0.116858
N	-1.5407566252	-1.888618106	 0.7100134803	-0.323044
H	-0.9325087191	-3.2429037948	-0.5086971773	 0.301077
H	-1.3504031442	-1.7695735728	 1.6983412258	 0.233613
C	-2.8119494227	-2.5839427324	 0.51160019	-0.309734
C	-2.7533526875	-3.506947602	-0.7176629252	 0.422208
O	-1.4994834797	-3.7644568143	-1.1192780612	-0.363233
O	-3.7268398401	-3.9713314717	-1.2440125977	-0.330988
H	 0.8729845824	 1.7771175704	-0.2820527249	 0.232766
H	-0.0307545009	 1.1843934646	-1.4919267114	 0.230868
H	 0.6918742786	-0.7127182492	-0.1584721305	 0.091621
H	 0.1354279431	 0.1848490244	 1.2553017973	 0.102105
H	-2.2050902611	 0.1237232824	 0.3773612993	 0.112097
H	-1.6485984153	-0.7680818506	-1.04025829	 0.117647
H	-3.0133239689	-3.2261336361	 1.3756077464	 0.139372
H	-3.675912625	-1.9165475968	 0.3969636815	 0.1323
54.9952	70.3333	83.8943	144.7559	200.5973	252.087	318.3476	362.4654	429.3854	543.2694	562.8053	663.8988	765.9692	810.0902	859.3047	867.4979	884.5704	950.9271	993.1349	1064.3608	1085.8862	1127.455	1140.2542	1185.4769	1216.0602	1267.8475	1293.2175	1322.7755	1352.7912	1369.4998	1421.5233	1440.5783	1468.6113	1482.6537	1506.4653	1519.7535	1663.5474	1880.622	2958.7204	2992.5947	3025.4816	3028.7764	3053.3472	3083.6254	3470.8838	3493.7262	3537.1589	3572.5687
NCC[NH2+]CC([O-])=O	NCCNCC(=O)O	
InChI=1S/C4H10N2O2/c5-1-2-6-3-4(7)8/h6H,1-3,5H2,(H,7,8)	InChI=1S/C4H10N2O2/c5-1-2-6-3-4(7)8/h6H,1-3,5H2,(H,7,8)
