14
gdb 125334	5.44155	1.35628	1.09308	4.049	69.83	-0.2388	-0.0056	0.2332	1040.8528	0.103733	-432.895955	-432.889244	-432.888299	-432.927113	25.285	
C	 0.0763380713	 1.4423937665	 0.0461878868	-0.490244
C	-0.0796645508	-0.029746346	 0.0034148837	 0.313357
C	-1.1335384574	-0.8431987824	-0.2404206004	-0.210414
N	-0.6323720069	-2.1363049461	-0.1332491187	 0.022053
N	-1.0170482213	-3.4372552946	-0.2274231743	-0.282874
C	 0.1410048294	-4.0481807364	 0.0327348608	 0.032296
N	 1.2311223026	-3.2542242948	 0.2847032626	-0.394412
C	 0.6789378174	-2.0705691389	 0.1652593083	 0.495638
O	 1.0660349656	-0.7872506936	 0.2599664806	-0.24345
H	 0.8092397772	 1.7847827407	-0.6922756076	 0.154129
H	-0.8811460414	 1.921417494	-0.1689592716	 0.146715
H	 0.4175435484	 1.7763634889	 1.0319612748	 0.154123
H	-2.1583057915	-0.6146561334	-0.472208417	 0.17113
H	 0.2045031774	-5.1259620038	 0.041611352	 0.131953
142.9185	151.553	274.4604	277.5304	350.1204	518.8739	578.2417	610.4677	661.7128	752.5546	766.7346	791.9103	850.5786	894.3245	941.287	983.6383	1025.2137	1067.0255	1134.877	1195.4172	1203.4218	1253.6312	1287.9454	1406.2568	1426.8085	1435.0547	1467.3428	1468.095	1491.8121	1608.2964	1682.5966	3037.7689	3092.9312	3135.2838	3263.2399	3303.7865
CC1=CN2N=CN=C2O1	Cc1cn2ncnc2o1	
InChI=1S/C5H5N3O/c1-4-2-8-5(9-4)6-3-7-8/h2-3H,1H3	InChI=1S/C5H5N3O/c1-4-2-8-5(9-4)6-3-7-8/h2-3H,1H3
