20
gdb 7136	6.96088	0.75319	0.69544	3.4067	73.44	-0.2427	-0.0083	0.2343	1668.1378	0.17342	-386.149379	-386.139116	-386.138171	-386.186115	34.44	
C	-0.1049631033	 1.5809008352	 0.0041506185	-0.386893
C	-0.0070160836	 0.0558599664	 0.0819834985	-0.159584
C	-1.3607100255	-0.6338049709	-0.093734002	-0.290241
C	-1.2761489423	-2.1556468219	-0.090819601	 0.346331
O	-0.2353955296	-2.7550139641	-0.193033518	-0.278486
C	-2.6188386935	-2.870646034	 0.0514921063	-0.149184
O	-2.4644198946	-4.2450494135	-0.1221726687	-0.209721
C	-3.6710553289	-4.9550416159	 0.0295582199	-0.225313
H	 0.8769204034	 2.0458982175	 0.1346340499	 0.116834
H	-0.5001947588	 1.9063099504	-0.9649033956	 0.113145
H	-0.7672107396	 1.9808799883	 0.7804754951	 0.111766
H	 0.6806135507	-0.3220688584	-0.6808377205	 0.12042
H	 0.4243692855	-0.2443189618	 1.0437441178	 0.107933
H	-2.0748239728	-0.3118910176	 0.6772512831	 0.110632
H	-1.8199698982	-0.3367152524	-1.0489711195	 0.124016
H	-3.0249060167	-2.6262267143	 1.0520888033	 0.104959
H	-3.3312177772	-2.438875188	-0.6763440952	 0.100623
H	-3.4448693715	-6.0126549991	-0.1230362471	 0.134352
H	-4.0997645473	-4.8234706924	 1.0359387569	 0.104511
H	-4.427198716	-4.6420859734	-0.7082057616	 0.1039
34.5131	59.2053	83.8506	95.4401	128.1718	226.0218	236.5723	246.9312	308.2301	365.4205	409.454	477.8126	701.4348	723.8163	824.7343	883.152	900.1355	965.0754	988.2628	1051.913	1076.4589	1125.376	1142.4377	1175.005	1184.2885	1239.3613	1241.1463	1270.2833	1311.8203	1329.8894	1390.0238	1408.3901	1415.1172	1452.2972	1468.6101	1486.6671	1488.1619	1491.5421	1500.5815	1508.2571	1516.3622	1829.2907	2924.6356	2945.4326	2968.3308	3002.7154	3011.6307	3027.2299	3033.5479	3047.0415	3076.7331	3100.764	3103.4307	3119.4826
CCCC(=O)COC	CCCC(=O)COC	
InChI=1S/C6H12O2/c1-3-4-6(7)5-8-2/h3-5H2,1-2H3	InChI=1S/C6H12O2/c1-3-4-6(7)5-8-2/h3-5H2,1-2H3
