13
gdb 133217	2.45887	1.74713	1.02782	1.8256	64.72	-0.2613	-0.0734	0.1879	1048.5758	0.087412	-497.83794	-497.830342	-497.829398	-497.870232	27.845	
C	-0.0239518389	 1.4737289852	 0.0419305293	-0.455822
C	-0.0084102077	-0.023479361	 0.0012216508	 0.236521
N	-0.0420793134	-0.572747601	-1.1685425172	-0.117789
O	-0.0286199977	-1.9589422741	-1.2344888284	-0.221381
C	 0.0178415864	-2.6977303754	-0.1172398287	-0.016721
C	 0.0542534141	-2.1750601814	 1.1244071048	 0.118066
F	 0.0993858412	-2.9691075343	 2.1846821139	-0.047562
C	 0.0442463693	-0.7407069428	 1.3066840922	 0.226472
O	 0.0739083793	-0.1523163857	 2.3739803592	-0.353485
H	 0.8671248573	 1.8388496569	 0.5615916116	 0.157793
H	-0.063463336	 1.8839060945	-0.967232377	 0.146951
H	-0.8850137968	 1.819009635	 0.6222019595	 0.157803
H	 0.022704513	-3.7607537458	-0.32772262	 0.169153
93.9998	154.0328	264.2741	278.978	295.8849	317.2196	453.9441	455.4585	526.8882	528.2811	573.7643	675.752	788.3444	863.7348	894.23	909.6857	1002.2089	1047.3028	1053.4584	1207.3604	1304.1589	1312.4614	1407.1704	1436.7831	1460.6626	1466.4913	1621.5134	1679.3814	1756.727	3052.8527	3112.0736	3160.3993	3213.946
CC1=NOC=C(F)C1=O	Cc1nocc(F)c1=O	
InChI=1S/C5H4FNO2/c1-3-5(8)4(6)2-9-7-3/h2H,1H3	InChI=1S/C5H4FNO2/c1-3-5(8)4(6)2-9-7-3/h2H,1H3
