17
gdb 124132	6.57456	0.72639	0.65956	2.2693	90.85	-0.2095	0.0103	0.2199	1699.6274	0.136044	-380.877308	-380.867878	-380.866933	-380.915236	31.945	
C	-0.0707263936	 1.4951004902	 0.1105911344	-0.508221
C	-0.0073882733	 0.043390614	 0.0414808974	 0.183514
C	 0.0460397205	-1.1608252264	-0.0154071921	-0.09479
C	 0.0888348998	-2.571350166	-0.0887910798	 0.08626
C	 1.165417967	-3.411725572	 0.1677959788	-0.169647
N	 0.7353553371	-4.6795580185	-0.0196702093	 0.061229
C	 1.504718492	-5.9017204541	 0.0731760993	-0.318424
N	-0.5611217022	-4.7349504146	-0.3916333374	-0.25738
C	-0.9565155682	-3.4695119114	-0.4330696166	-0.12163
H	 0.6915892997	 1.9607406798	-0.5246849903	 0.146774
H	-1.0472208173	 1.8636087119	-0.2229473784	 0.14927
H	 0.0859046582	 1.8563384383	 1.1336510581	 0.146746
H	 2.1774501791	-3.1894472015	 0.46562177	 0.135569
H	 2.4224127711	-5.7050657423	 0.630135743	 0.140186
H	 0.9159608734	-6.6571268888	 0.5966461767	 0.157072
H	 1.7606500233	-6.2796073975	-0.9217682769	 0.147683
H	-1.9736951967	-3.2242434212	-0.6992136769	 0.115789
5.0207	41.8934	86.8362	94.5942	194.8466	280.5621	293.17	372.9512	448.9843	479.5862	533.724	638.2311	679.6877	718.9072	790.1957	881.6317	946.6638	1000.7843	1051.8251	1052.4732	1061.5892	1077.6708	1149.8727	1209.2077	1224.8598	1331.4919	1369.9891	1411.1083	1423.7543	1450.7673	1475.8067	1475.9906	1478.6312	1481.4127	1525.2311	1596.9949	2360.7118	3021.465	3046.9796	3078.0863	3084.6306	3119.263	3150.6716	3252.6366	3265.2121	4.8731	41.8951	86.8353	94.5935	194.8466	280.5612	293.1692	372.9507	448.9842	479.5878	533.7238	638.2314	679.689	718.9071	790.1931	881.6316	946.6635	1000.7837	1051.826	1052.4741	1061.5891	1077.6704	1149.8724	1209.2065	1224.8597	1331.4911	1369.9894	1411.1091	1423.7538	1450.7672	1475.8065	1475.9925	1478.6331	1481.4122	1525.2309	1596.9944	2360.712	3021.4649	3046.9797	3078.0862	3084.6305	3119.2631	3150.6717	3252.6366	3265.2118
CC#CC1=CN(C)N=C1	CC#Cc1cn(C)nc1	
InChI=1S/C7H8N2/c1-3-4-7-5-8-9(2)6-7/h5-6H,1-2H3	InChI=1S/C7H8N2/c1-3-4-7-5-8-9(2)6-7/h5-6H,1-2H3
