19
gdb 15407	4.55089	0.93973	0.83056	3.0036	75.14	-0.2393	-0.0292	0.2101	1399.1681	0.163585	-365.042499	-365.03349	-365.032546	-365.076819	31.876	
C	 0.259511679	 1.5492376713	 0.1715561606	-0.384185
C	 0.0474304307	 0.0347018955	 0.234813017	-0.16489
C	-1.3535638639	-0.3790108665	-0.2194412211	-0.132458
N	-1.476807274	-1.8383648317	-0.1762036143	-0.073591
C	-2.0978439736	-2.4462014618	 0.9702155262	-0.251951
C	-2.7758509687	-2.4991658288	-0.3755288555	-0.091269
C	-4.0429169546	-1.7429445304	-0.5465096816	 0.156602
O	-4.9673567907	-2.1400475131	-1.2132899536	-0.264903
H	 1.2665761566	 1.8198121535	 0.5017563586	 0.118719
H	 0.1320099777	 1.9265057052	-0.8490998483	 0.11852
H	-0.4534826743	 2.0808280673	 0.8116784281	 0.115559
H	 0.7826361078	-0.4818167129	-0.3918748545	 0.112456
H	 0.2094081209	-0.3226058129	 1.2595255625	 0.100198
H	-2.1017902544	 0.1360394313	 0.4047434415	 0.090521
H	-1.5196488964	-0.0590166293	-1.2550677725	 0.112749
H	-1.6426553042	-3.3522706957	 1.3608799261	 0.132412
H	-2.5442098197	-1.793277721	 1.7218592936	 0.11747
H	-2.7347859394	-3.4167512231	-0.9568033294	 0.113971
H	-4.1007199087	-0.774369817	-0.0035824833	 0.074069
67.1309	89.1338	104.0176	151.8837	237.1966	268.0304	277.2513	363.9585	402.0012	442.0153	551.8858	759.9797	772.9249	867.9589	885.503	903.7666	926.2047	1005.1851	1030.1444	1052.5502	1078.9754	1114.1266	1120.4191	1134.2959	1180.6655	1201.7411	1276.6522	1308.1603	1323.9007	1333.2682	1341.8085	1403.9795	1413.6224	1445.0528	1485.0288	1494.1826	1500.0519	1505.3758	1515.0045	1811.7549	2888.8939	2967.1427	3029.9001	3032.0808	3052.4799	3073.042	3079.5263	3099.8491	3108.2931	3150.0669	3177.4429
CCCN1CC1C=O	CCCN1C[C@H]1C=O	
InChI=1S/C6H11NO/c1-2-3-7-4-6(7)5-8/h5-6H,2-4H2,1H3	InChI=1S/C6H11NO/c1-2-3-7-4-6(7)5-8/h5-6H,2-4H2,1H3/t6-,7?/m0/s1
