21
gdb 37781	2.56296	1.91918	1.40973	0.4286	86.44	-0.2285	0.0224	0.2509	1000.9662	0.186512	-349.936683	-349.929614	-349.92867	-349.96768	30.004	
C	 0.0241971053	 1.5029021807	-0.2013218534	-0.252297
C	 1.5460927921	 1.5235716816	-0.0372638248	-0.067272
C	 1.9385764181	 1.0158983382	 1.3376298026	-0.053316
C	 1.1565511929	 1.3169058356	 2.5627748145	-0.053588
C	 0.1732430863	 0.5717754541	 3.0703714398	-0.072492
C	-0.2742097332	-0.7576276102	 2.5083688125	-0.247279
C	-0.879103023	-0.6884236704	 1.0935288983	-0.223164
C	 0.0360291555	-0.0496189969	 0.0344508936	 0.030616
C	 1.5589677242	 0.0240651603	 0.2626788223	-0.118218
H	-0.5389951602	 2.0957737992	 0.5256279062	 0.096628
H	-0.3098456548	 1.7674621063	-1.2069060101	 0.095491
H	 2.2370932103	 2.1000764644	-0.640513431	 0.080961
H	 3.0176388222	 1.0765701002	 1.4788218108	 0.086435
H	 1.4184323969	 2.2499363766	 3.060826568	 0.077411
H	-0.3413874277	 0.9305408064	 3.9590180424	 0.082179
H	 0.5842166585	-1.4408197909	 2.4793849902	 0.111757
H	-1.0039110804	-1.2161361094	 3.1839017798	 0.091071
H	-1.1354927019	-1.7107109273	 0.788646157	 0.088726
H	-1.8261144217	-0.1341988585	 1.1203354418	 0.096691
H	-0.153345296	-0.5343294539	-0.9279772853	 0.073581
H	 2.2701593366	-0.723577886	-0.0711187253	 0.076079
160.0355	203.7036	305.5303	326.1661	357.4463	419.7843	530.6027	613.0822	653.0855	713.3437	762.8263	781.411	802.0769	812.422	849.6876	892.0014	929.7725	953.2046	979.1604	987.3676	1005.0634	1011.8701	1022.2509	1068.5376	1080.9939	1090.6451	1117.0283	1157.4182	1170.1574	1201.243	1235.8549	1252.9986	1268.7291	1274.7344	1302.0278	1328.4013	1348.1941	1374.1201	1382.0326	1416.4469	1443.3136	1480.9166	1489.6103	1489.7609	1720.2529	3015.0519	3022.0221	3046.4312	3055.4401	3058.3323	3070.005	3105.4933	3108.8246	3123.3964	3154.7674	3162.554	3181.6709
C1C2C3C=CCCC1C23	C1[C@H]2[C@H]3C=CCC[C@@H]1[C@@H]23	
InChI=1S/C9H12/c1-2-4-7-8-5-6(3-1)9(7)8/h2,4,6-9H,1,3,5H2	InChI=1S/C9H12/c1-2-4-7-8-5-6(3-1)9(7)8/h2,4,6-9H,1,3,5H2/t6-,7+,8-,9+/m0/s1
