15
gdb 93331	2.31771	1.72891	1.13398	4.7982	66.6	-0.28	0.003	0.283	1040.4879	0.113451	-453.96851	-453.960491	-453.959546	-454.001413	29.415	
O	-0.1602749578	 1.4301278452	 0.7600561183	-0.42454
C	 0.0298108399	 0.1728568966	 0.1598948246	 0.093519
C	 0.7488910032	-0.7181582308	 1.1746107092	-0.096722
O	-0.279344256	-1.3074947325	 1.9865368083	-0.239399
C	-1.4918955339	-1.2384710148	 1.37376682	 0.450192
N	-2.5875368693	-1.6428578756	 1.8373366705	-0.527716
C	-1.301912801	-0.6094201164	-0.0066378594	-0.293896
C	-2.3973579733	 0.2363892408	-0.4524183734	 0.297625
N	-3.1992437575	 0.9753504958	-0.8340946819	-0.324178
H	-0.7752936602	 1.9452186823	 0.2231348008	 0.306921
H	 0.5790016976	 0.2465743434	-0.7872316403	 0.097849
H	 1.3219483732	-1.5119864481	 0.6824496739	 0.120119
H	 1.4052521252	-0.132867321	 1.8201016139	 0.148203
H	-2.469617825	-2.0425924427	 2.7693361432	 0.235945
H	-1.1591815151	-1.4193455823	-0.7334788477	 0.156079
78.0715	139.2504	161.911	178.7803	357.4375	380.2302	386.3556	421.6002	502.0865	532.3041	610.1763	711.1503	787.5916	834.7315	893.6214	900.2254	958.4804	976.1188	1027.0226	1043.5565	1112.5097	1144.9355	1207.0272	1241.2578	1246.2302	1270.0873	1321.1323	1357.3322	1406.7559	1427.9557	1505.8568	1790.8302	2366.3303	3025.5471	3040.7144	3050.6721	3132.4323	3486.3606	3784.5497
OC1COC(=N)C1C#N	O[C@H]1CO[C]([NH])[C@H]1C#N	
InChI=1S/C5H6N2O2/c6-1-3-4(8)2-9-5(3)7/h3-4,7-8H,2H2	InChI=1S/C5H6N2O2/c6-1-3-4(8)2-9-5(3)7/h3-4,7-8H,2H2/t3-,4-/m0/s1
