19
gdb 52722	3.59131	0.60963	0.53961	2.1649	87.64	-0.2492	0.035	0.2841	2029.9023	0.155061	-385.831539	-385.82034	-385.819395	-385.870141	38.486	
C	-0.0819912291	 1.4917760535	 0.0015389811	-0.500725
C	-0.0146290031	 0.0377404959	 0.0062807409	 0.123723
C	 0.0464966352	-1.1652175057	 0.0276414906	 0.007439
C	 0.08695554	-2.6285799563	 0.0037163523	-0.066173
O	-1.2176387473	-3.1983394699	 0.1330160507	-0.419137
C	 0.8077696437	-3.1459785403	-1.2561330445	-0.181909
C	 0.8956687195	-4.6839744343	-1.272239996	-0.357573
C	 1.5291006055	-5.1993375381	-2.4787252356	 0.284448
C	 2.0532062074	-5.5984691707	-3.4843269841	-0.435698
H	 0.7206158103	 1.9250919499	 0.608259135	 0.15337
H	 0.0130690128	 1.8945074547	-1.0126983681	 0.150245
H	-1.0340874242	 1.8444810494	 0.4128505287	 0.152546
H	 0.6294278358	-2.9903509025	 0.8874247552	 0.112986
H	-1.7959799164	-2.7254281657	-0.4758520737	 0.283911
H	 0.270201481	-2.7957165413	-2.1445434673	 0.109187
H	 1.810762715	-2.7095625031	-1.3002991378	 0.118781
H	 1.4534422708	-5.0267169328	-0.3902482733	 0.127243
H	-0.114723146	-5.0946678294	-1.1703597751	 0.146107
H	 2.514680619	-5.9649653934	-4.367270439	 0.191228
16.6282	60.0891	67.8889	85.9254	150.0389	167.4633	251.1641	281.5647	299.7429	340.2734	352.704	414.9658	457.426	552.1584	576.7707	612.5026	632.9656	765.5986	790.2693	912.8351	968.0065	1034.4875	1051.5626	1053.7579	1057.7875	1078.1816	1152.7373	1184.8943	1253.3437	1271.3475	1318.2589	1345.6182	1377.8912	1413.1729	1420.0881	1473.1454	1476.5134	1478.2677	1488.3196	2238.5886	2366.4583	3019.1588	3020.3646	3028.6471	3046.8771	3067.7332	3090.4801	3090.9685	3095.9838	3508.2185	3804.143
CC#CC(O)CCC#C	CC#C[C@@H](O)CCC#C	
InChI=1S/C8H10O/c1-3-5-7-8(9)6-4-2/h1,8-9H,5,7H2,2H3	InChI=1S/C8H10O/c1-3-5-7-8(9)6-4-2/h1,8-9H,5,7H2,2H3/t8-/m1/s1
