18
gdb 96846	3.11249	1.18737	0.93129	1.1632	77.61	-0.2257	-0.002	0.2236	1279.1206	0.148021	-435.327458	-435.318217	-435.317273	-435.361867	33.348	
C	-0.1082982009	 1.4063416252	 0.0533772874	-0.336705
N	 0.0083080966	-0.0395982544	 0.0442513342	-0.343085
C	 0.6181486997	-0.5953086695	-0.9164083204	 0.470802
N	 0.8212361581	-1.9596881302	-1.0408309484	-0.361875
C	 1.324856128	-2.323899028	-2.3565366808	-0.090482
C	 0.3315131787	-3.0790523616	-3.2468862593	-0.400583
C	 1.6774856544	-0.9546101222	-2.9572501191	 0.42265
O	 2.2194912152	-0.7361835507	-4.0121959697	-0.364821
N	 1.2256782638	-0.0220855635	-2.0485866225	-0.38672
H	 0.8258081304	 1.8933772421	 0.3713516945	 0.116037
H	-0.3945283501	 1.8362275968	-0.9208086825	 0.097188
H	-0.8801855449	 1.6986510076	 0.7703895367	 0.129442
H	 0.1858329456	-2.558451098	-0.5384016367	 0.254386
H	 2.2517701418	-2.9062459693	-2.2768599593	 0.118904
H	-0.6017921042	-2.5180196455	-3.355190479	 0.129997
H	 0.7687710858	-3.2261920857	-4.2378499863	 0.149585
H	 0.0999920605	-4.0597268809	-2.8203369822	 0.122803
H	 1.3186070515	 0.9693412577	-2.1944975367	 0.272478
67.1694	84.3393	131.613	207.3695	226.4269	237.5427	241.0905	403.5045	436.448	445.5142	546.4158	560.0186	633.3733	677.2688	721.1176	739.6882	815.8452	939.4436	960.3193	1050.4773	1072.4911	1094.2863	1119.2732	1159.2082	1162.5264	1219.1653	1298.074	1350.0934	1355.0952	1391.9565	1408.8812	1425.1825	1447.0962	1493.9771	1495.1175	1496.853	1512.8598	1794.518	1857.2641	2961.4256	3014.6639	3023.6235	3040.8053	3093.6664	3114.5026	3129.2797	3646.8375	3669.8959
CN=C1NC(C)C(=O)N1	CN=C1N[C@@H](C)C(=O)N1	
InChI=1S/C5H9N3O/c1-3-4(9)8-5(6-2)7-3/h3H,1-2H3,(H2,6,7,8,9)	InChI=1S/C5H9N3O/c1-3-4(9)8-5(6-2)7-3/h3H,1-2H3,(H2,6,7,8,9)/t3-/m0/s1
