15
gdb 48538	3.12482	1.50064	1.46266	2.8544	70.9	-0.2407	-0.033	0.2077	941.7057	0.112772	-420.587169	-420.58041	-420.579466	-420.61851	26.494	
O	-0.1705365191	 0.0105173832	-0.048285252	-0.273837
C	-0.0348864753	 1.2080575693	 0.0494888498	 0.02728
C	 1.2443052247	 1.9053148241	-0.0450426228	 0.213463
C	 1.9080597547	 2.9474755649	 0.8307109513	 0.057335
O	 3.1271164948	 2.2664841828	 0.9176562186	-0.287892
C	 2.6895831999	 1.3641984702	-0.1985070862	-0.026084
C	 3.2336773288	 2.0028819834	-1.4484799674	-0.093309
C	 2.574914119	 3.1547774474	-1.6393188549	-0.059398
C	 1.5066316553	 3.3032210983	-0.6174029989	-0.200489
H	-0.9045216235	 1.8802873669	 0.2339934537	 0.068836
H	 1.5670094919	 3.5050161014	 1.6950255331	 0.128262
H	 2.9149340181	 0.3271190549	 0.0346468651	 0.109931
H	 4.1163592381	 1.6610600063	-1.9712400967	 0.114663
H	 2.8149032227	 3.9258778498	-2.3601946726	 0.116412
H	 0.6731933599	 3.9868010572	-0.7309800501	 0.104827
97.0986	159.8515	247.3451	393.7507	436.5186	477.2472	599.9469	654.7083	703.3138	752.0417	763.4159	796.596	822.6317	845.8598	921.2271	926.6201	934.0226	972.8245	1017.8423	1045.835	1050.4531	1089.2628	1123.175	1150.4647	1198.7888	1240.1571	1276.4912	1320.2047	1354.0473	1401.4754	1444.4131	1628.4746	1795.2272	2862.374	3165.5445	3186.6587	3195.6693	3211.5734	3237.9582
O=CC12C3OC1C=CC23	O=C[C@@]12[C@H]3O[C@@H]1C=C[C@@H]23	
InChI=1S/C7H6O2/c8-3-7-4-1-2-5(7)9-6(4)7/h1-6H	InChI=1S/C7H6O2/c8-3-7-4-1-2-5(7)9-6(4)7/h1-6H/t4-,5-,6+,7+/m1/s1
