13
gdb 7627	4.99172	1.39643	1.21957	1.1445	54.37	-0.2628	-0.0052	0.2576	936.6407	0.095416	-435.796262	-435.788891	-435.787947	-435.82869	26.341	
N	 0.4653806818	-0.0581520595	 0.8496008128	-0.517983
C	-0.182791746	 0.5808861618	-0.1537621324	 0.365629
O	 0.1330323592	 1.6561186583	-0.6226975303	-0.36083
C	-1.3842964158	-0.1667854827	-0.7184647246	 0.037516
C	-1.1695750119	-0.8754328789	-2.0705117968	-0.41635
C	-1.454534604	-2.1432168539	-1.2675882649	 0.447881
O	-1.5267823038	-3.3126486549	-1.4451864426	-0.299057
O	-1.6451542637	-1.4627776357	-0.0772761821	-0.263725
H	 1.2497177903	 0.3963898811	 1.2873128938	 0.270001
H	 0.1086069741	-0.9212800261	 1.2237440276	 0.280537
H	-2.26636628	 0.4729582934	-0.6622564519	 0.1349
H	-1.90332822	-0.6620761601	-2.8485032965	 0.157533
H	-0.1635543504	-0.8148057128	-2.4877145721	 0.163949
51.8209	91.3375	214.0956	303.2841	335.9873	425.547	495.2984	522.5383	543.9607	619.5714	724.1037	772.0771	794.3813	921.2403	953.1031	1014.4969	1042.8477	1093.9314	1099.5647	1128.3854	1220.1806	1270.9394	1329.8109	1388.991	1457.4989	1604.7319	1808.4285	1952.6988	3098.6903	3111.4705	3156.9214	3598.8443	3736.2136
NC(=O)C1CC(=O)O1	NC(=O)[C@H]1CC(=O)O1	
InChI=1S/C4H5NO3/c5-4(7)2-1-3(6)8-2/h2H,1H2,(H2,5,7)	InChI=1S/C4H5NO3/c5-4(7)2-1-3(6)8-2/h2H,1H2,(H2,5,7)/t2-/m1/s1
