23
gdb 104676	2.1648	1.66049	1.16872	1.0373	85.66	-0.2479	0.0876	0.3355	1182.1538	0.205575	-388.229881	-388.220681	-388.219737	-388.263785	35.59	
C	-1.6251080696	-0.7035810546	-0.2280679688	-0.374223
C	-0.1945954308	-0.2146587443	 0.030769743	-0.268136
C	 0.7726229022	-0.6210985656	-1.0853154884	 0.494062
O	 0.364770473	-0.0005296555	-2.2974888	-0.304333
C	 0.7212008413	 1.3570327781	-2.4394767147	-0.252833
C	 2.3217121318	-0.7157009522	-0.8214701277	-0.124995
C	 2.0415747894	-2.0247330252	-0.0261325041	-0.242904
C	 1.155279294	-2.1215695641	-1.3006308861	-0.0995
C	 2.4047932429	-1.6215138859	-2.0897095115	-0.228808
H	-1.9808916027	-0.3587821712	-1.2021766828	 0.130383
H	-1.6750880876	-1.7977181676	-0.2223442673	 0.114252
H	-2.3113149173	-0.3351947208	 0.5406341362	 0.105763
H	-0.1919671503	 0.8793864063	 0.1090865662	 0.094272
H	 0.1486605649	-0.5753542371	 1.0029261603	 0.100192
H	 0.3699808967	 1.6749667677	-3.4246066948	 0.124546
H	 0.2541583807	 2.0032077963	-1.6824420157	 0.107072
H	 1.8102566054	 1.501324976	-2.3908792684	 0.107643
H	 2.999864262	 0.0900828396	-0.5340564688	 0.065427
H	 2.8764873746	-2.7279840955	 0.0124025415	 0.093854
H	 1.5548545854	-1.9540700401	 0.945991079	 0.093358
H	 0.4799944945	-2.9320240285	-1.5788346566	 0.070506
H	 2.2224406617	-1.1555385271	-3.0551078705	 0.109191
H	 3.2516425779	-2.3114010889	-2.1197125701	 0.085211
66.3133	105.7186	165.2242	193.645	212.5003	250.0493	352.7554	365.6041	434.434	475.3323	554.2769	581.3555	662.5633	773.7166	804.3504	806.018	896.6363	901.0289	925.4513	952.0875	969.1056	1009.3683	1022.5754	1044.9451	1072.1506	1087.14	1106.8065	1109.6713	1120.1175	1173.7132	1184.452	1185.7023	1193.4867	1197.9255	1225.2612	1246.0744	1249.3639	1267.6977	1324.8237	1366.6709	1404.664	1475.3923	1483.1735	1495.2232	1496.8119	1505.0518	1511.5879	1515.1699	1542.4957	2987.3049	3032.5841	3038.392	3041.7501	3070.0307	3071.2785	3089.7329	3093.1646	3101.6894	3105.5525	3108.6609	3125.2459	3140.7516	3165.0538
CCC1(OC)C2CC1C2	CC[C@@]1(OC)[C@H]2C[C@@H]1C2	
InChI=1S/C8H14O/c1-3-8(9-2)6-4-7(8)5-6/h6-7H,3-5H2,1-2H3	InChI=1S/C8H14O/c1-3-8(9-2)6-4-7(8)5-6/h6-7H,3-5H2,1-2H3/t6-,7+,8-
