19
gdb 40766	3.13092	1.25752	1.07513	1.6887	74.96	-0.254	0.0677	0.3216	1175.6341	0.158603	-422.964514	-422.956218	-422.955273	-422.997991	31.233	
C	-0.3178813233	 1.2994847384	-0.1921340752	-0.267189
C	 1.0947939497	 1.1025576091	 0.3003104281	-0.266236
C	 0.2281820871	-0.0922701272	-0.0081130235	-0.011658
C	-0.2623104684	-0.9686502743	 1.1132401959	 0.026
O	-0.5663482123	-0.2292619944	 2.3273954184	-0.297606
C	-1.8961582674	-0.7896549707	 2.4260279557	-0.153101
C	-1.7027750344	-1.4929630574	 1.0898501547	 0.366589
C	-2.6186578787	-1.7638087406	-0.012496013	-0.253235
O	-2.0795149353	-2.8194072499	 0.805305993	-0.261353
H	-1.0422206573	 1.6510757357	 0.53375763	 0.120366
H	-0.4715026698	 1.6618801885	-1.2024199865	 0.10719
H	 1.9173556181	 1.3254351286	-0.3697678986	 0.110418
H	 1.2844445004	 1.3177625477	 1.3454729002	 0.132376
H	 0.4740810497	-0.6502410171	-0.9081867552	 0.088513
H	 0.4596655194	-1.7726762258	 1.3187076548	 0.089414
H	-1.9982630433	-1.4715581239	 3.2795204685	 0.116524
H	-2.6688072745	-0.0138752063	 2.4784702981	 0.111015
H	-3.684984861	-1.5786932267	 0.110313069	 0.119573
H	-2.255685379	-1.7374448436	-1.0386003342	 0.122399
66.5541	90.5584	136.3324	228.9664	288.8809	291.6811	358.5022	470.9271	549.9746	612.845	773.0175	791.009	832.3672	842.1145	873.2676	902.9889	927.8899	947.7767	961.53	1011.9891	1044.9107	1063.0713	1085.5417	1095.5919	1123.0361	1132.2469	1140.0599	1152.088	1163.4256	1191.0346	1200.1565	1227.1724	1263.4093	1324.1436	1369.3222	1400.395	1455.0508	1456.6145	1499.4789	1513.0604	1545.3659	2998.128	3019.1497	3067.1946	3084.6537	3136.0599	3138.1777	3143.8616	3172.4364	3219.9001	3234.572
C1CC1C1OCC11CO1	C1CC1[C@H]1OC[C@]21CO2	
InChI=1S/C7H10O2/c1-2-5(1)6-7(3-8-6)4-9-7/h5-6H,1-4H2	InChI=1S/C7H10O2/c1-2-5(1)6-7(3-8-6)4-9-7/h5-6H,1-4H2/t6-,7-/m1/s1
