21
gdb 79820	2.10632	1.92662	1.65266	1.6134	80.57	-0.2232	0.0863	0.3095	994.1468	0.183425	-387.06867	-387.060693	-387.059749	-387.100437	32.514	
C	-0.1354857159	 1.5916742664	-0.009131933	-0.427296
C	 0.0678721887	 0.0796268681	-0.0287908148	-0.005444
C	 0.7439705376	-0.5760845	-1.2349297159	-0.124104
C	 2.2501377107	-0.4695135316	-1.1042092564	 0.111429
O	 2.8072649427	 0.5467478762	-0.2951623255	-0.270848
C	 2.3699430978	 0.2853642978	 1.0435611989	-0.11483
C	 1.1421378012	-0.6192918285	 0.8973537848	 0.268697
C	 0.6529030377	-1.2600741916	 2.1796025946	-0.501368
C	 1.5443048583	-1.5117687697	-0.3172353617	-0.17181
H	 0.7891569568	 2.1223630049	-0.2473858662	 0.138791
H	-0.8869841539	 1.8807240892	-0.752619598	 0.110515
H	-0.4960926823	 1.9356442369	 0.9673437662	 0.107155
H	-0.8905218805	-0.4212202916	 0.1513419274	 0.068863
H	 0.2721165572	-0.8025173389	-2.1856707924	 0.077657
H	 2.8625040742	-0.7155861423	-1.963530002	 0.100073
H	 3.1669428721	-0.2189093042	 1.6129969249	 0.086724
H	 2.1485826217	 1.2425280805	 1.5274002267	 0.104602
H	 0.3022989745	-0.5031978344	 2.8908519474	 0.118987
H	-0.1789157284	-1.944797954	 1.986879568	 0.120552
H	 1.4501294464	-1.8311917775	 2.6694560836	 0.117008
H	 1.7058312435	-2.5819186257	-0.3348638265	 0.084647
176.3398	199.5388	224.864	246.8202	278.1205	296.6657	356.6894	469.169	540.7207	591.0143	646.1369	718.6178	760.3143	779.7736	798.0366	853.8414	929.151	939.4109	946.7054	962.5283	999.8862	1021.7846	1039.9287	1053.2313	1069.956	1108.9266	1116.958	1138.4276	1174.7887	1192.2717	1221.4925	1237.3792	1249.6108	1288.9159	1317.8647	1367.1813	1389.161	1405.2445	1413.5297	1418.6701	1491.7267	1494.3272	1497.3584	1504.5794	1518.2838	2976.6813	3024.2848	3026.7032	3034.1063	3068.26	3084.3833	3086.702	3099.3266	3126.7137	3157.9766	3185.5175	3197.5809
CC1C2C3OCC1(C)C23	C[C@H]1[C@H]2[C@H]3OC[C@]1(C)[C@@H]23	
InChI=1S/C8H12O/c1-4-5-6-7(5)9-3-8(4,6)2/h4-7H,3H2,1-2H3	InChI=1S/C8H12O/c1-4-5-6-7(5)9-3-8(4,6)2/h4-7H,3H2,1-2H3/t4-,5+,6-,7+,8-/m0/s1
