19
gdb 57612	3.54668	1.00838	0.94601	1.814	77.1	-0.2552	0.0493	0.3045	1302.3996	0.155648	-422.971478	-422.961708	-422.960764	-423.005868	36.657	
C	-0.0458333982	 1.7147082666	-0.0410569526	-0.408656
C	 0.0542266247	 0.1917384616	-0.0119862737	 0.319858
O	 0.7922360696	-0.160726406	 1.1435304346	-0.463064
C	-1.3531684013	-0.4786361948	 0.0209028458	-0.393799
C	-2.1558641993	-0.1127048638	 1.17873775	 0.318461
C	-2.8250584761	 0.1940290568	 2.1286507296	-0.44594
C	 0.7791448769	-0.3258136607	-1.253477612	 0.052581
C	 2.2367126522	-0.4606481326	-1.2917680766	-0.190163
O	 1.3947014319	-1.6094462724	-1.0877458023	-0.260549
H	 0.9542345209	 2.1550166116	-0.0299696126	 0.123364
H	-0.5710524842	 2.0559805466	-0.9386567543	 0.111773
H	-0.5938345072	 2.0661290556	 0.8359370277	 0.14603
H	 1.0384895804	-1.0898552135	 1.0335282338	 0.287859
H	-1.8941298725	-0.2209110669	-0.8992317384	 0.124456
H	-1.2087329312	-1.5665688637	-0.002125339	 0.136918
H	-3.4130846297	 0.4586237371	 2.9720900107	 0.194084
H	 0.24409492	-0.2052823811	-2.1963975048	 0.094329
H	 2.7548963971	-0.4368445967	-2.2481884186	 0.120774
H	 2.8165632959	-0.1598695339	-0.4233904873	 0.131685
70.3323	100.9034	136.93	214.6695	219.2507	275.272	306.1472	347.2649	371.4592	380.4124	420.652	497.3828	531.2104	614.9952	636.7929	649.7924	763.0832	831.2056	874.5409	903.0053	945.3019	956.3328	988.3091	1018.8415	1091.5577	1111.3439	1159.4555	1165.1546	1180.574	1192.7013	1259.2811	1290.6806	1334.9948	1380.8595	1417.9115	1439.4996	1466.6022	1487.1903	1498.9851	1515.027	2239.9383	3017.1349	3047.3091	3052.3574	3100.1024	3107.3757	3120.8282	3136.8779	3198.6427	3506.9068	3748.3202
CC(O)(CC#C)C1CO1	C[C@@](O)(CC#C)[C@H]1CO1	
InChI=1S/C7H10O2/c1-3-4-7(2,8)6-5-9-6/h1,6,8H,4-5H2,2H3	InChI=1S/C7H10O2/c1-3-4-7(2,8)6-5-9-6/h1,6,8H,4-5H2,2H3/t6-,7-/m1/s1
