21
gdb 41837	2.74753	1.93652	1.64801	1.4533	78.68	-0.2447	0.0724	0.3171	930.0576	0.188448	-387.126016	-387.119538	-387.118594	-387.156842	27.84	
C	-0.0592448003	 1.5611085713	-0.1626892043	-0.228305
C	 1.403135417	 2.0603990957	 0.0487133012	-0.228305
C	 2.2326363934	 0.8059337841	 0.378949755	-0.011344
C	 2.2270000286	 0.3806209432	 1.8816686587	-0.231341
C	 1.3078229243	-0.8580916422	 1.8474560901	 0.073515
C	-0.1415002988	-0.4280596566	 1.5392383904	-0.23134
C	-0.0190988215	 0.037132686	 0.0534069142	-0.011344
C	 1.4496837376	-0.3915246456	-0.2355770961	 0.076482
O	 1.7028613436	-1.4974174809	 0.6249030269	-0.263187
H	-0.7695840765	 2.0470622333	 0.5125517035	 0.097895
H	-0.3940347494	 1.7903305142	-1.1792823035	 0.097212
H	 1.7778036532	 2.5318155279	-0.8653323749	 0.097212
H	 1.4784177921	 2.8146034961	 0.8375039266	 0.097895
H	 3.2542246932	 0.8791482967	 0.0019427085	 0.067425
H	 3.228764817	 0.0953929288	 2.2121526039	 0.101958
H	 1.8603881745	 1.1667981674	 2.5482063523	 0.092186
H	 1.424368613	-1.5520861829	 2.6802822759	 0.07107
H	-0.8138960757	-1.2848972797	 1.6276736413	 0.101958
H	-0.5049101665	 0.3592060718	 2.2062449255	 0.092185
H	-0.7418600367	-0.4852193565	-0.5758003103	 0.067425
H	 1.6891348679	-0.6568030121	-1.2653650147	 0.070748
84.0091	299.6908	331.8984	406.0057	535.476	559.5747	566.4076	693.4251	757.0329	769.5499	804.9405	828.3394	837.3306	881.3973	899.3517	909.5552	946.7134	971.6343	988.0808	1005.3489	1016.4539	1026.3162	1052.6749	1096.6868	1105.349	1139.6781	1167.5033	1172.3815	1187.0847	1256.2385	1259.7935	1270.8932	1271.7226	1286.0885	1290.8117	1316.5409	1336.564	1339.1024	1340.3819	1355.5982	1377.9277	1480.5563	1493.309	1494.3534	1514.0521	3041.7643	3053.0215	3054.3726	3057.479	3072.6178	3084.7541	3085.3689	3094.2218	3104.3499	3107.735	3116.5005	3123.2575
C1CC2CC3CC1C2O3	C1C[C@H]2C[C@H]3C[C@@H]1[C@@H]2O3	
InChI=1S/C8H12O/c1-2-6-4-7-3-5(1)8(6)9-7/h5-8H,1-4H2	InChI=1S/C8H12O/c1-2-6-4-7-3-5(1)8(6)9-7/h5-8H,1-4H2/t5-,6+,7-,8+
