15
gdb 16736	5.6426	1.46175	1.27903	3.2924	70.38	-0.235	-0.0641	0.1709	928.2292	0.119872	-362.65316	-362.646548	-362.645604	-362.684059	25.023	
O	-0.0411367223	-0.0112909821	 0.0670381911	-0.271355
C	 0.0168353782	 1.1992199797	 0.0246604471	 0.069251
C	 1.2666521722	 1.9532083025	-0.0268073088	 0.209418
C	 1.3786098731	 3.2921170708	-0.0069255881	-0.157564
C	 2.8045619779	 3.6881647794	 0.0034827299	-0.064058
C	 3.5827475095	 3.1961244987	 1.1839614396	-0.230291
N	 3.6103209537	 2.4377170828	-0.0618519798	-0.10022
C	 2.6410660456	 1.3161118378	-0.1112209266	-0.26321
H	-0.9057647502	 1.821253158	 0.013256155	 0.069564
H	 0.5550948479	 3.9968168272	 0.011378343	 0.121342
H	 3.1448010264	 4.5506733827	-0.5619476759	 0.108793
H	 4.5225406723	 3.6771627158	 1.4410742598	 0.125422
H	 3.0144110503	 2.8071339834	 2.0266667118	 0.118853
H	 2.8287514867	 0.6054115671	 0.7005549518	 0.133609
H	 2.7679182085	 0.7671014161	-1.0511681198	 0.130446
105.3586	183.2575	218.6661	375.5703	406.025	465.6811	530.7409	678.168	735.6683	768.5321	820.3891	878.4346	895.125	924.7663	992.4653	1009.9829	1042.4785	1056.2551	1077.1949	1111.7431	1149.3863	1207.1103	1223.2236	1262.3844	1289.1438	1353.5663	1361.7208	1417.3523	1485.7765	1499.8492	1665.9721	1777.0693	2881.9502	3040.8566	3078.9085	3097.3271	3154.2229	3189.431	3206.1793
O=CC1=CC2CN2C1	O=CC1=C[C@H]2CN2C1	
InChI=1S/C6H7NO/c8-4-5-1-6-3-7(6)2-5/h1,4,6H,2-3H2	InChI=1S/C6H7NO/c8-4-5-1-6-3-7(6)2-5/h1,4,6H,2-3H2/t6-,7?/m0/s1
