15
gdb 13847	4.20484	1.67278	1.34753	3.1759	62.65	-0.2279	0.0056	0.2335	899.4856	0.119476	-399.835085	-399.827624	-399.82668	-399.867345	27.273	
N	 0.6341643636	-0.1121607289	-0.5756326252	-0.513907
C	-0.1924295768	 0.3895130551	 0.3724333202	 0.363167
O	 0.0771833253	 1.3027547395	 1.1283722325	-0.375432
C	-1.5619246508	-0.3117933736	 0.4529431347	-0.006063
O	-1.7250894728	-1.325132872	-0.5427747621	-0.28735
C	-2.0497017753	-2.5775597595	 0.0730239261	-0.121914
C	-2.0222953408	-2.3023317388	 1.5493946762	-0.091863
C	-1.7509513573	-1.0218112866	 1.7667833453	-0.082547
H	 1.5260116265	 0.326777897	-0.7309730412	 0.261123
H	 0.2851612984	-0.8136558302	-1.2068438586	 0.270915
H	-2.3135270123	 0.4787510041	 0.3049679996	 0.116167
H	-3.0370800355	-2.9147924623	-0.2778013406	 0.113537
H	-1.3178005682	-3.3401941838	-0.2322175142	 0.110247
H	-2.204316415	-3.065468417	 2.2948706847	 0.112744
H	-1.651376449	-0.5082209229	 2.7123137226	 0.131176
63.3864	93.3113	197.7786	285.6924	328.1266	405.0304	457.923	522.8761	636.2833	707.1372	713.1337	773.6626	821.9658	911.0154	941.4373	949.1165	965.3972	1031.0364	1046.7013	1089.8905	1111.1425	1120.7569	1199.2312	1272.2151	1320.646	1341.1375	1364.0672	1382.6246	1519.9464	1587.2296	1691.53	1803.724	2983.9921	2990.8672	3005.6909	3218.8499	3251.6645	3598.0298	3739.4499
NC(=O)C1OCC=C1	NC(=O)[C@H]1OCC=C1	
InChI=1S/C5H7NO2/c6-5(7)4-2-1-3-8-4/h1-2,4H,3H2,(H2,6,7)	InChI=1S/C5H7NO2/c6-5(7)4-2-1-3-8-4/h1-2,4H,3H2,(H2,6,7)/t4-/m0/s1
