14
gdb 12904	3.39799	1.87079	1.53552	5.093	62.32	-0.2489	0.0261	0.275	837.7916	0.10773	-378.678072	-378.670954	-378.67001	-378.709297	26.66	
N	-0.0792168275	 1.4757761194	 0.0744760504	-0.595102
C	-0.0389001774	 0.06617983	-0.0426627947	 0.219851
C	 0.5835528516	-0.8228650091	-1.1312121409	-0.14634
O	-0.5109325018	-1.7769593387	-1.0063518843	-0.270892
C	-1.1496829151	-0.9542215963	-0.0478175136	 0.066626
C	-0.2939617949	-0.795554352	 1.1977077512	-0.243867
C	 0.6186331583	-1.810013455	 1.6441584609	 0.309583
N	 1.3689560496	-2.6173580847	 1.9955470689	-0.346
H	 0.7946166959	 1.8479458244	 0.4336007046	 0.244939
H	-0.2681599725	 1.9201728371	-0.818326425	 0.241566
H	 0.5672729577	-0.3532905124	-2.121226685	 0.113062
H	 1.5599261886	-1.2772558794	-0.9364443376	 0.1347
H	-2.2315369708	-0.896261679	-0.0398367042	 0.127576
H	-0.7786631514	-0.2255562841	 1.9844296792	 0.144298
130.4212	144.3435	243.7317	307.7013	346.9026	390.5427	404.8291	560.5624	623.4352	652.6281	769.1288	799.708	835.9219	903.7176	919.6611	986.2142	1020.7146	1043.947	1060.1327	1067.8327	1147.4319	1196.2952	1258.2895	1280.925	1287.0007	1342.3407	1473.1169	1508.2914	1657.8369	2352.9748	3035.1213	3097.8207	3171.5691	3195.3372	3495.8321	3575.578
NC12COC1C2C#N	N[C@]12CO[C@H]1[C@H]2C#N	
InChI=1S/C5H6N2O/c6-1-3-4-5(3,7)2-8-4/h3-4H,2,7H2	InChI=1S/C5H6N2O/c6-1-3-4-5(3,7)2-8-4/h3-4H,2,7H2/t3-,4+,5+/m1/s1
