17
gdb 81810	2.12166	1.8029	1.29136	2.0871	68.37	-0.2465	0.0656	0.312	1022.7622	0.134204	-458.89604	-458.887704	-458.88676	-458.928569	32.243	
O	 0.1487616715	 1.3263602903	-0.2498934294	-0.429924
C	 0.0534045921	-0.0607309279	-0.035011437	 0.061809
C	 0.3048848768	-0.558049553	 1.4013433634	-0.175354
C	 0.104193238	-2.0551384743	 1.4521928046	-0.356212
C	-1.1050844339	-1.164590567	 1.4759208721	 0.310357
O	-2.0092523562	-1.1356671337	 2.5195537451	-0.460409
C	-1.3849528579	-0.625984282	 0.0930226804	 0.339898
C	-2.6111120159	 0.0008218794	-0.3928914334	-0.278221
O	-2.1585838773	-1.2635733469	-0.9087811359	-0.28576
H	-0.4110635431	 1.7665307179	 0.4000238666	 0.281417
H	 0.6717221582	-0.5306315736	-0.8050933542	 0.102045
H	 0.8638075501	-0.0180886397	 2.1546530497	 0.105132
H	 0.3325355679	-2.6777063105	 0.5900339589	 0.121454
H	 0.3382378491	-2.5050005981	 2.4125334172	 0.119772
H	-2.371015548	-2.0210397858	 2.6337497841	 0.294608
H	-3.5099824982	-0.041096553	 0.2199414616	 0.123017
H	-2.5440658934	 0.8376323679	-1.0861935338	 0.126371
101.6422	206.1744	212.8596	247.6194	259.1431	293.1207	345.4454	399.8621	467.6646	502.5288	528.2259	598.4029	697.0297	820.0513	833.4133	861.1306	884.9729	940.6519	977.646	1004.2144	1021.7481	1041.661	1073.93	1088.5007	1128.6072	1152.1239	1158.7897	1219.0197	1236.7594	1261.3044	1284.6833	1311.5065	1392.6332	1426.8122	1447.8547	1495.9389	1532.3525	3077.0651	3087.0064	3105.9569	3178.7462	3196.9791	3206.6802	3795.8872	3804.2529
OC1C2CC2(O)C11CO1	O[C@H]1[C@@H]2C[C@]2(O)[C@]21CO2	
InChI=1S/C6H8O3/c7-4-3-1-5(3,8)6(4)2-9-6/h3-4,7-8H,1-2H2	InChI=1S/C6H8O3/c7-4-3-1-5(3,8)6(4)2-9-6/h3-4,7-8H,1-2H2/t3-,4-,5+,6+/m0/s1
