17
gdb 72673	2.39098	1.50381	1.4532	2.4144	73.06	-0.2498	-0.0037	0.2461	1016.0629	0.135757	-417.976271	-417.967962	-417.967018	-418.009068	31.149	
C	-0.1500805557	 1.5514422564	-0.0092092398	-0.475856
C	 0.0119739962	 0.059133444	 0.039458779	 0.377334
C	-1.2209619441	-0.8696274702	 0.1392271585	-0.2054
N	-0.493235934	-1.7597286759	 1.0934743287	-0.364561
C	 0.6432831079	-0.8065482921	 1.192014443	 0.11821
C	 1.736509759	-1.1301632423	 0.1537338998	-0.099679
O	 1.0031472983	-0.4399074615	-0.8837842254	-0.325577
C	 0.999394922	-0.3239875053	 2.5032746871	 0.189692
N	 1.266621523	 0.0681043439	 3.5586883394	-0.339014
H	 0.814885132	 2.0508985041	 0.1113572769	 0.138792
H	-0.5654995453	 1.843223546	-0.9803671305	 0.14051
H	-0.8287712078	 1.8995702194	 0.7746488411	 0.132198
H	-2.0956728187	-0.3684835357	 0.5706425265	 0.10911
H	-1.504445134	-1.3647383917	-0.7935333779	 0.122519
H	-0.9740308498	-1.90056324	 1.9740792582	 0.238843
H	 2.7045585184	-0.6527996689	 0.3450205777	 0.117795
H	 1.8611179626	-2.1970381101	-0.0504906023	 0.125084
108.4898	117.8924	180.4153	199.0886	262.3775	339.6184	377.8415	390.3298	531.568	550.0311	565.0638	645.205	696.3133	739.0747	853.6783	928.7194	932.0967	953.8252	1008.9166	1010.6038	1034.4469	1105.9385	1139.063	1170.8568	1180.085	1202.7171	1227.9247	1259.1089	1327.8404	1349.8812	1396.4428	1412.0949	1478.5282	1484.1575	1496.0592	1503.8722	2343.9624	3028.5653	3031.2331	3039.1272	3095.8074	3103.246	3108.9998	3125.5328	3553.8261
CC12CNC1(CO2)C#N	C[C@]12CN[C@]1(CO2)C#N	
InChI=1S/C6H8N2O/c1-5-3-8-6(5,2-7)4-9-5/h8H,3-4H2,1H3	InChI=1S/C6H8N2O/c1-5-3-8-6(5,2-7)4-9-5/h8H,3-4H2,1H3/t5-,6-/m0/s1
