19
gdb 94794	2.81255	1.46007	1.0802	2.9486	76.14	-0.2475	-0.0253	0.2222	1136.7516	0.159762	-423.050614	-423.042339	-423.041394	-423.083436	32.182	
O	 0.0976129542	 1.3935804219	 0.1245408413	-0.443764
C	-0.0085638962	 0.0016051753	 0.0206453308	 0.067723
C	-1.4364573663	-0.5543528774	-0.0533455987	-0.247245
C	-1.2317268108	-1.9669454648	-0.6582727549	-0.324924
C	-0.0965176134	-1.7730305682	-1.6618333548	 0.249823
C	 0.6656696691	-2.8919359933	-2.3450732137	-0.306452
C	-0.2401564079	-2.030059402	-3.1572461835	-0.289021
C	 0.62687989	-0.5337409724	-1.2627976202	 0.316387
O	 1.5197002501	 0.0356536	-1.8516304155	-0.364952
H	 0.8330984192	 1.641533171	-0.4557178319	 0.290821
H	 0.5169737482	-0.4992610617	 0.8580340769	 0.089283
H	-1.9423399598	-0.5717760973	 0.9139781581	 0.109789
H	-2.0206831193	 0.0763348688	-0.7326663065	 0.116039
H	-0.9351288672	-2.6722360226	 0.1277576372	 0.108796
H	-2.1428584263	-2.3587669245	-1.1172509496	 0.108667
H	 1.7356121712	-2.7510672645	-2.4556070532	 0.135681
H	 0.3520734154	-3.9044032603	-2.1136167129	 0.121881
H	-1.1889260781	-2.4376780594	-3.489019025	 0.121671
H	 0.2117046676	-1.2948354587	-3.8139086639	 0.139798
69.2639	162.2942	216.8085	229.4587	282.6629	339.9872	396.5416	428.0981	454.9496	511.2632	585.7386	693.7447	749.468	788.8328	805.9338	887.9868	899.2337	936.116	947.8625	983.4615	1003.2534	1053.4224	1077.0026	1084.6027	1091.5898	1154.376	1163.213	1200.9076	1204.0206	1266.2526	1287.714	1302.9508	1310.0682	1356.9099	1387.284	1420.2683	1455.6355	1486.5766	1493.9293	1504.2029	1816.1217	2909.0011	3031.9948	3053.3846	3093.9784	3115.7856	3130.9773	3134.2745	3217.3507	3233.2216	3717.2185
OC1CCC2(CC2)C1=O	O[C@H]1CCC2(CC2)C1=O	
InChI=1S/C7H10O2/c8-5-1-2-7(3-4-7)6(5)9/h5,8H,1-4H2	InChI=1S/C7H10O2/c8-5-1-2-7(3-4-7)6(5)9/h5,8H,1-4H2/t5-/m0/s1
