19
gdb 50044	3.47323	1.16406	0.99153	3.3225	76.76	-0.2549	-0.0397	0.2152	1227.6275	0.158806	-423.031937	-423.023523	-423.022579	-423.065616	31.387	
O	-0.1503813412	 0.3098713404	-0.7158099444	-0.257504
C	 0.3092507881	 0.9490642383	 0.1962532393	 0.146299
C	 1.4240576151	 1.9359688507	 0.0695044173	-0.137822
O	 2.2787501713	 1.828169049	-1.0662467902	-0.261023
C	 1.4232364773	 2.960396376	-1.0152575326	 0.433738
C	 0.3576942418	 3.0840494422	-2.1096090133	-0.281868
C	 0.2759989943	 4.5955101648	-2.4031579178	-0.20963
C	 1.6880504211	 5.1166372521	-2.0755775866	-0.211209
C	 2.0618488182	 4.3356869551	-0.8033593978	-0.280616
H	-0.0963660449	 0.8639661441	 1.2303739151	 0.07781
H	 1.9245012793	 2.1862914665	 1.0072580867	 0.097119
H	 0.7227379575	 2.5335254512	-2.9827838348	 0.128464
H	-0.5984493271	 2.6363156491	-1.8344934716	 0.120301
H	-0.0338775152	 4.8073830617	-3.4295305893	 0.103554
H	-0.4555649692	 5.0710628872	-1.738509755	 0.100115
H	 2.3782151674	 4.8598647784	-2.8879388492	 0.108944
H	 1.7285530741	 6.2003766468	-1.9395112405	 0.099484
H	 1.6149524469	 4.8185690024	 0.0741926728	 0.107245
H	 3.135736855	 4.2437637539	-0.6246281378	 0.1166
51.4815	104.9033	144.9463	217.6834	252.647	294.6707	393.49	438.5071	504.629	565.3446	708.9178	746.2284	797.8465	839.073	863.2268	897.3818	911.529	928.5793	961.0204	980.8955	1011.9016	1041.0761	1055.1206	1096.0867	1167.2915	1185.9063	1199.3683	1240.8506	1260.2468	1290.4754	1313.4493	1337.3243	1340.7825	1357.9105	1423.1864	1443.1004	1475.0114	1476.7575	1493.0105	1508.4844	1823.9384	2870.7047	3033.5186	3034.5123	3042.8679	3062.9035	3093.2328	3095.938	3099.8746	3108.4677	3121.3194
O=CC1OC11CCCC1	O=C[C@H]1OC21CCCC2	
InChI=1S/C7H10O2/c8-5-6-7(9-6)3-1-2-4-7/h5-6H,1-4H2	InChI=1S/C7H10O2/c8-5-6-7(9-6)3-1-2-4-7/h5-6H,1-4H2/t6-/m1/s1
