21
gdb 82161	2.66531	1.60917	1.26629	1.494	81.	-0.2391	0.0702	0.3093	1081.0124	0.183348	-387.069463	-387.061182	-387.060238	-387.101662	33.698	
C	 0.0146049842	 1.532389685	 0.0137372502	-0.491442
C	 0.0397501593	 0.021584664	-0.0001638941	 0.358671
C	-0.6328603623	-0.7508474488	 1.1082753174	-0.336201
C	 0.8708634002	-0.7903423858	 0.9729109695	-0.074972
C	 1.5050305842	-1.9692125487	 0.2331758143	 0.076828
O	 1.0885364142	-3.1922533001	 0.8380334315	-0.431627
C	 1.104392025	-1.8266599057	-1.2447488567	-0.074626
C	-0.3441640244	-2.0379879049	-1.612036265	-0.306767
C	 0.1721712012	-0.6423282926	-1.3693038746	-0.093332
H	 0.8747348826	 1.9507008636	-0.5227160394	 0.113884
H	-0.8939800401	 1.9199313135	-0.4623969224	 0.117655
H	 0.0411152491	 1.918029223	 1.0376878332	 0.113752
H	-1.0270587067	-0.1711112681	 1.9373663087	 0.102069
H	-1.2036316139	-1.6457538139	 0.8974221092	 0.122225
H	 1.4622784777	-0.3082360058	 1.7441745154	 0.078051
H	 2.5995878656	-1.8775090209	 0.3044676294	 0.062276
H	 1.4122131175	-3.9131990334	 0.2883008539	 0.279296
H	 1.8622533514	-2.032795198	-1.9938178498	 0.076616
H	-0.5531894998	-2.3114317507	-2.6414118493	 0.104916
H	-1.002187268	-2.5105913219	-0.893820954	 0.124678
H	 0.2352541233	 0.0275378701	-2.220521857	 0.07805
129.5842	174.1809	218.9687	252.1487	285.0559	308.1068	379.6071	433.6973	491.2892	540.5116	585.9491	695.2181	700.8288	789.5921	805.0864	828.1256	859.9296	914.7975	945.9583	970.554	977.7899	1008.4741	1027.8796	1043.9517	1050.7053	1067.7918	1083.8467	1106.2033	1110.4429	1120.8274	1131.1041	1205.3449	1227.9251	1246.3602	1291.1788	1335.7144	1355.3611	1376.6924	1408.2055	1413.3418	1420.247	1482.4544	1489.0554	1500.8835	1509.9849	2978.3623	3019.7111	3077.1991	3098.7279	3132.1679	3137.6286	3151.0546	3159.2838	3163.5189	3219.96	3228.1252	3813.8006
CC12CC1C(O)C1CC21	C[C@]12C[C@H]1[C@@H](O)[C@H]1C[C@@H]21	
InChI=1S/C8H12O/c1-8-3-6(8)7(9)4-2-5(4)8/h4-7,9H,2-3H2,1H3	InChI=1S/C8H12O/c1-8-3-6(8)7(9)4-2-5(4)8/h4-7,9H,2-3H2,1H3/t4-,5+,6-,7-,8+/m0/s1
