19
gdb 69604	3.29971	1.28678	1.17301	1.9693	74.97	-0.2521	0.0766	0.3287	1111.6776	0.15948	-423.002166	-422.994252	-422.993308	-423.034214	31.903	
O	-0.2705959499	 1.3574516181	-0.1210216738	-0.472493
C	-0.0690015726	-0.0141432115	 0.0367808396	 0.405745
C	-0.1369643525	-0.9156114925	-1.1652074051	-0.360964
C	-1.2417784918	-0.9475492582	-0.1162063021	-0.171288
C	-1.1208563514	-1.9939713917	 0.9526340081	 0.49668
C	-2.2685414436	-2.4354188989	 1.7544527724	-0.261448
O	-1.6968566885	-3.2865914066	 0.753847923	-0.29026
C	 0.3097004981	-1.9303370553	 1.4934877289	-0.329846
C	 0.7623368641	-0.4774381723	 1.2307834128	-0.281728
H	 0.5177158155	 1.7290562541	-0.5318323812	 0.282703
H	-0.4039238793	-0.4333324275	-2.0989204382	 0.116197
H	 0.5353004895	-1.761838777	-1.2644517526	 0.115512
H	-2.2199605798	-0.5740044551	-0.3930831875	 0.096381
H	-2.1176513697	-2.7568141197	 2.7849112733	 0.109499
H	-3.2660771394	-2.0570770263	 1.5313483439	 0.112241
H	 0.3728442036	-2.2147268749	 2.5461615262	 0.108458
H	 0.9259088892	-2.641292048	 0.9327374758	 0.11951
H	 1.8422805304	-0.3951381055	 1.0633789906	 0.092913
H	 0.5090444483	 0.1688338086	 2.0782784657	 0.112187
104.2669	194.3862	265.8626	275.6061	330.346	367.7452	405.6308	418.8582	465.4411	543.8549	568.8956	694.4264	750.3695	818.4476	859.5343	898.5459	913.4059	930.8909	954.0895	966.778	986.9503	1019.7055	1046.4159	1065.0093	1083.2915	1127.2758	1159.5929	1168.7403	1205.7524	1233.1334	1240.8619	1284.9194	1303.0725	1322.0765	1335.5085	1396.6578	1440.4857	1482.7996	1490.0902	1510.1457	1533.1756	3035.6887	3054.2168	3072.4499	3077.4648	3106.9631	3129.8551	3157.4214	3188.8714	3221.0777	3796.5212
OC12CC1C1(CO1)CC2	O[C@]12C[C@H]1[C@]1(CO1)CC2	
InChI=1S/C7H10O2/c8-6-1-2-7(4-9-7)5(6)3-6/h5,8H,1-4H2	InChI=1S/C7H10O2/c8-6-1-2-7(4-9-7)5(6)3-6/h5,8H,1-4H2/t5-,6-,7-/m1/s1
