22
gdb 82309	2.24485	1.66913	1.32195	2.5052	80.56	-0.2248	0.0695	0.2944	1092.643	0.194041	-404.333618	-404.324641	-404.323697	-404.366357	36.104	
C	-0.8541202621	 1.1097730086	 0.0129421744	-0.409332
C	 0.0451572122	-0.1133493124	-0.1169183607	 0.029865
N	 0.8901781091	-0.0580590054	-1.3245895503	-0.100846
C	 2.0532701525	 0.838551679	-1.2413627971	-0.257597
C	 2.2078820843	-0.6140705615	-0.9701440647	-0.014229
C	 2.2147961806	-1.0827751568	 0.4737727392	-0.286623
C	 0.9351739215	-0.4756218212	 1.1241221515	 0.361711
C	 1.250069159	 0.6731510652	 2.0888543657	-0.452148
O	 0.1856913862	-1.465781307	 1.8371728162	-0.474535
H	-0.2814235862	 2.0330563677	 0.1460746698	 0.110109
H	-1.4604093073	 1.2194223328	-0.8902891543	 0.125613
H	-1.5297024038	 0.9987428105	 0.8663221643	 0.123357
H	-0.5955100667	-0.9921882663	-0.2515975139	 0.099338
H	 2.3709918569	 1.2460189992	-2.1971251533	 0.113608
H	 2.1367179727	 1.5372206184	-0.4145723854	 0.108267
H	 2.6805763609	-1.2488848073	-1.71496397	 0.087863
H	 2.1257889555	-2.1728240852	 0.5093177814	 0.111527
H	 3.1303659726	-0.8048403598	 1.006812826	 0.095753
H	 1.8137398301	 1.483062871	 1.6192741467	 0.122823
H	 0.3317029673	 1.0910352356	 2.5085243433	 0.127613
H	 1.8635012658	 0.299718423	 2.919131902	 0.104894
H	 0.6318327889	-1.6326280279	 2.6742799795	 0.272968
107.1299	207.0792	236.2264	266.0474	272.6894	281.5772	302.5038	369.3867	373.6497	419.9977	447.5897	533.453	618.2925	649.2433	734.5925	751.6711	845.4439	871.4166	900.2469	921.8524	946.5255	964.1601	1012.8945	1051.4738	1074.5199	1095.1031	1103.5731	1108.9989	1148.5972	1158.7856	1183.0067	1190.7185	1232.8403	1283.1326	1291.1439	1347.9093	1371.4758	1374.6924	1387.9061	1406.5924	1414.5315	1480.4077	1485.3237	1490.3081	1499.292	1505.9124	1511.8117	3024.3211	3039.4337	3042.0447	3043.6606	3088.4335	3094.6426	3110.0269	3114.2498	3118.0408	3128.7387	3139.2165	3195.4697	3804.271
CC1N2CC2CC1(C)O	C[C@H]1N2C[C@H]2C[C@]1(C)O	
InChI=1S/C7H13NO/c1-5-7(2,9)3-6-4-8(5)6/h5-6,9H,3-4H2,1-2H3	InChI=1S/C7H13NO/c1-5-7(2,9)3-6-4-8(5)6/h5-6,9H,3-4H2,1-2H3/t5-,6-,7+,8?/m1/s1
