21
gdb 97728	5.44663	0.6228	0.57955	0.246	100.99	-0.211	-0.005	0.206	1998.3812	0.182832	-349.960267	-349.950563	-349.949619	-349.997425	34.798	
C	 0.1203154707	 1.4430543719	 0.2516588903	-0.362964
C	-0.2898485395	 0.0393525822	-0.2320194863	-0.325576
C	 0.490718241	-0.4256575948	-1.3722250102	 0.224778
C	 1.1460716859	-0.7760014023	-2.3253473139	-0.167165
C	 1.9177242396	-1.2550073093	-3.4108298025	 0.22946
C	 2.2288103046	-0.5934902761	-4.537011119	-0.175354
C	 3.1149214442	-1.3973923023	-5.4519674694	-0.244355
C	 3.0335989537	-2.8265112332	-4.8560444752	-0.212912
C	 2.5603141393	-2.6367639877	-3.39501813	-0.315077
H	 1.1693835777	 1.4564156029	 0.559194248	 0.12833
H	-0.006276303	 2.1802450539	-0.5457394303	 0.128277
H	-0.4940306885	 1.7470915068	 1.1045235748	 0.113282
H	-0.1903464926	-0.6764714751	 0.5942900281	 0.128125
H	-1.3554451334	 0.0427658052	-0.4979699649	 0.129374
H	 1.9172422312	 0.4215226247	-4.7543620967	 0.089447
H	 2.7936957635	-1.3595535384	-6.4993094378	 0.103174
H	 4.1425678358	-1.0044844365	-5.4360152003	 0.107568
H	 2.2860187316	-3.4054263622	-5.4073249609	 0.106779
H	 3.9793297961	-3.3695421085	-4.9265178777	 0.096955
H	 3.3964571717	-2.6501282778	-2.6830660844	 0.109403
H	 1.8628991802	-3.4146149133	-3.0686939318	 0.108452
8.4245	71.9331	90.5728	137.7466	182.8496	213.5337	300.1548	366.5237	418.6012	490.3268	530.1974	567.6682	647.3655	784.6616	810.2765	820.0547	857.1245	902.6578	908.1348	925.0965	963.6142	1008.8888	1043.936	1064.8609	1082.4948	1102.921	1148.7812	1199.3259	1228.2945	1268.5535	1275.2292	1284.6634	1320.1838	1325.5605	1347.1561	1353.4006	1407.6362	1473.6426	1483.013	1487.4315	1494.1309	1505.3255	1506.1529	1675.5658	2339.7246	2995.7601	3013.7889	3018.787	3041.0204	3043.4146	3043.5606	3056.6785	3073.0501	3102.1314	3116.6688	3123.7111	3201.1197
CCC#CC1=CCCC1	CCC#CC1=CCCC1	
InChI=1S/C9H12/c1-2-3-6-9-7-4-5-8-9/h7H,2,4-5,8H2,1H3	InChI=1S/C9H12/c1-2-3-6-9-7-4-5-8-9/h7H,2,4-5,8H2,1H3
