20
gdb 15109	7.8121	0.70256	0.67406	0.8036	81.67	-0.2562	0.0586	0.3148	1669.2142	0.175615	-311.82745	-311.818282	-311.817337	-311.861992	33.42	
C	 0.0082199499	-1.1857547908	-0.2713637623	-0.437799
C	-0.0094794212	 0.00186294	-0.0858296399	 0.292313
C	 0.0039188987	 1.4429606087	 0.1336392979	-0.355742
C	 1.4134375957	 2.0589789428	 0.0248320626	-0.164944
C	 1.4119770755	 3.574213115	 0.2589743255	-0.205153
C	 2.7916546065	 4.1900195869	 0.1606635959	 0.030133
C	 3.3552906998	 4.5897990074	-1.180573862	-0.253914
C	 2.9595817965	 5.64852819	-0.1794604008	-0.27688
H	 0.0119014793	-2.2348744717	-0.433551189	 0.191681
H	-0.6630966138	 1.9282670129	-0.5915019174	 0.127344
H	-0.4160256708	 1.6652453991	 1.1237556452	 0.127762
H	 2.0716882864	 1.5697289528	 0.7524393251	 0.107419
H	 1.8280162766	 1.8359279531	-0.9645445604	 0.112433
H	 0.7493977973	 4.0567256865	-0.472974575	 0.09074
H	 0.981300038	 3.7904628994	 1.2469612753	 0.095381
H	 3.5099938135	 3.7862457585	 0.8706871939	 0.080948
H	 4.4104404531	 4.4286939551	-1.371807905	 0.110653
H	 2.7229154731	 4.4588186878	-2.0531350425	 0.108545
H	 2.0637045278	 6.2267177264	-0.3821158912	 0.108784
H	 3.744882888	 6.20898432	 0.3156982041	 0.110294
54.1443	86.7246	93.0533	134.7301	203.3446	293.1635	349.4018	377.1195	404.2766	535.6026	614.7204	632.6042	739.7287	774.371	800.7807	832.301	855.1102	918.8712	949.3	976.9768	1024.7032	1048.0895	1060.3695	1072.068	1080.0278	1137.5885	1143.6309	1197.8261	1222.3508	1232.0517	1261.8847	1300.4598	1324.4314	1343.624	1384.5939	1419.1699	1468.0805	1472.8601	1482.8709	1503.3974	1508.1214	2238.297	3001.3038	3012.8318	3032.4246	3038.9481	3041.024	3084.3875	3126.9232	3129.1253	3133.3418	3204.7892	3220.0583	3507.9778
C#CCCCC1CC1	C#CCCCC1CC1	
InChI=1S/C8H12/c1-2-3-4-5-8-6-7-8/h1,8H,3-7H2	InChI=1S/C8H12/c1-2-3-4-5-8-6-7-8/h1,8H,3-7H2
