17
gdb 34610	3.16405	1.40401	1.06782	2.2174	83.23	-0.2326	-0.024	0.2086	1120.4845	0.136522	-384.65229	-384.644616	-384.643672	-384.684633	29.601	
C	 0.1216840349	-1.0929101673	 0.2766035824	-0.432905
C	 0.0168473994	 0.1011980029	 0.1535289328	 0.22634
C	-0.0476592744	 1.5043936473	-0.0122550198	 0.202135
C	-1.1443765325	 2.2784667675	 0.04747718	-0.172886
C	-0.8654102464	 3.7395839897	-0.2000197099	-0.277293
C	 0.6693420856	 3.8003359069	-0.3017834603	-0.079432
C	 1.4723481216	 3.9282951361	 1.0125531686	-0.080137
O	 1.9981208173	 2.5881800668	 0.8905466828	-0.2822
C	 1.1907816899	 2.3415536374	-0.284494221	-0.003542
H	 0.2038780577	-2.1448037802	 0.3947868652	 0.193189
H	-2.1422585292	 1.901249671	 0.2420972261	 0.10497
H	-1.354321406	 4.0839975162	-1.1210901461	 0.116051
H	-1.2574817237	 4.3752393675	 0.6051773438	 0.113784
H	 1.0294248212	 4.4364035014	-1.1098900356	 0.083666
H	 2.2745230798	 4.6750309927	 1.0167128206	 0.104776
H	 0.8622819801	 4.0535719771	 1.9171854163	 0.100425
H	 1.8015665246	 1.9559909169	-1.1072982459	 0.08306
87.6337	137.34	164.1815	260.4862	361.386	392.4572	497.5973	530.0581	592.9355	630.6444	658.0014	698.6554	772.7822	841.0381	859.4723	885.9745	921.8988	945.998	986.773	996.2238	1016.5341	1082.1166	1082.7061	1155.3705	1160.0955	1193.8618	1233.1009	1257.5267	1288.3625	1313.6456	1334.2286	1338.6161	1364.5871	1480.5254	1522.9648	1666.1784	2222.9958	3008.4551	3014.0623	3037.5486	3056.2882	3058.5245	3114.3207	3198.1002	3503.8064
C#CC1=CCC2COC12	C#CC1=CC[C@H]2CO[C@@H]12	
InChI=1S/C8H8O/c1-2-6-3-4-7-5-9-8(6)7/h1,3,7-8H,4-5H2	InChI=1S/C8H8O/c1-2-6-3-4-7-5-9-8(6)7/h1,3,7-8H,4-5H2/t7-,8-/m0/s1
