18
gdb 41238	3.02358	2.09105	1.71447	1.1934	74.44	-0.2369	0.0542	0.2911	848.6411	0.150961	-401.841029	-401.835011	-401.834067	-401.871	26.056	
C	-0.1095982001	 1.5348692736	 0.064981584	-0.238762
C	 1.4226538312	 1.4433755842	 0.0211613057	-0.055405
C	 1.7696147062	 0.7364397784	 1.3327681291	 0.145742
O	 1.0387216909	 0.8518670241	 2.592682211	-0.313651
C	 0.7183798704	-0.5726765673	 2.5288817504	-0.213666
C	 1.0284820653	-0.5512733972	 1.0218773022	 0.216089
C	 1.8215726763	-1.067947129	-0.1841582681	-0.257771
N	 1.2659055932	 0.160946789	-0.904106321	-0.16465
C	 0.0160949465	 0.0191137461	-0.0374395103	-0.01732
H	-0.5593823843	 1.9796817953	 0.9520694	 0.119835
H	-0.5256707595	 1.951079404	-0.8540981263	 0.112177
H	 2.0604034606	 2.2353799915	-0.3664382784	 0.076042
H	 2.8444431884	 0.6534072318	 1.5300522653	 0.074786
H	 1.4087918767	-1.1634476521	 3.1444655304	 0.106691
H	-0.3150283787	-0.7731130851	 2.8279227294	 0.111547
H	 2.908523461	-1.1511580451	-0.0968231089	 0.107711
H	 1.4153119747	-1.9402915728	-0.7029605863	 0.113353
H	-0.7727568089	-0.6477980896	-0.3905901784	 0.077253
247.383	270.5937	385.3905	427.0733	462.8926	554.9015	648.3984	699.9793	760.5976	785.207	843.9721	874.7327	882.8407	901.7236	941.664	953.9269	964.4141	991.0585	1000.0452	1029.5777	1037.7515	1066.1837	1096.534	1132.5365	1153.6461	1171.188	1187.5995	1205.1847	1226.7281	1242.2514	1256.3888	1271.2908	1288.7436	1315.6811	1346.2055	1365.4595	1471.268	1506.7805	1510.3135	3018.0069	3038.9924	3053.832	3083.9271	3084.7022	3099.9175	3113.2971	3138.9919	3154.4892
C1C2C3OCC33CN2C13	C1[C@H]2[C@H]3OC[C@@]43CN2[C@H]14	
InChI=1S/C7H9NO/c1-4-6-7(3-9-6)2-8(4)5(1)7/h4-6H,1-3H2	InChI=1S/C7H9NO/c1-4-6-7(3-9-6)2-8(4)5(1)7/h4-6H,1-3H2/t4-,5+,6+,7-/m0/s1
