18
gdb 33145	3.06708	1.24871	0.93499	4.5845	74.65	-0.187	0.0352	0.2222	1233.3198	0.149736	-439.107791	-439.099611	-439.098667	-439.140699	31.533	
N	-0.8939748316	 0.3148114274	 0.8162805456	-0.502615
H	-1.3419433748	-0.3798189808	 2.4132690949	 0.301385
H	-0.0649520649	-0.1905707915	 0.5154193882	 0.244153
H	-1.5818963222	 0.2110544978	 0.0769415166	 0.246136
C	-0.5656166636	 1.7384919475	 1.029017075	-0.15697
C	 0.250736552	 1.9209834985	 2.3182816662	-0.324723
C	-0.5211162059	 1.7427597184	 3.5950305422	 0.126382
C	-0.5960402153	 2.6360931255	 4.6203047963	-0.089182
O	-1.3291313189	 2.1560617014	 5.6480779542	-0.149006
C	-1.7601547796	 0.9082463271	 5.2796059577	-0.10535
C	-1.2967116886	 0.6010046043	 4.0354722072	 0.183219
O	-1.5130375109	-0.5524495725	 3.3711387798	-0.456214
H	-0.0080831119	 2.1634308664	 0.1813366834	 0.094797
H	-1.5074650501	 2.2898854251	 1.1109088109	 0.123365
H	 1.100702072	 1.2226310548	 2.2826213331	 0.106686
H	 0.6885657775	 2.9254226298	 2.3093904362	 0.108173
H	-0.1778370955	 3.6212829724	 4.7558024913	 0.123881
H	-2.3681468778	 0.3780779284	 5.9911424913	 0.125884
64.6578	165.6452	224.1646	242.7167	297.259	307.9259	370.5012	463.9133	482.303	609.6266	629.2801	664.2428	714.0569	732.4614	757.7194	840.2685	864.3624	884.6053	907.3248	972.1179	1022.4277	1074.7659	1076.4719	1147.3929	1184.9804	1213.0444	1244.4178	1270.6602	1327.9643	1332.9786	1371.8541	1381.08	1413.4259	1472.3808	1504.912	1508.205	1588.076	1650.4177	1695.3672	2989.3035	2996.1699	3064.7642	3083.2916	3257.8588	3291.6503	3302.326	3492.9239	3572.1451
[NH3+]CCC1=COC=C1[O-]	NCCc1cocc1O	
InChI=1S/C6H9NO2/c7-2-1-5-3-9-4-6(5)8/h3-4,8H,1-2,7H2	InChI=1S/C6H9NO2/c7-2-1-5-3-9-4-6(5)8/h3-4,8H,1-2,7H2
