15
gdb 97313	3.42642	0.6626	0.57963	5.4861	75.37	-0.2446	-0.0418	0.2028	1815.0587	0.111067	-453.942466	-453.932684	-453.93174	-453.979777	33.32	
N	-0.3488112615	 1.0566648231	 0.4878779781	-0.501679
C	-0.8480937121	-0.1773692418	 0.1687756738	 0.12116
N	-0.1702430651	-1.0293411712	-0.4877820454	-0.240087
H	-5.0258040495	-1.4382280084	-0.3057480232	 0.306262
C	-0.699807188	-2.364472999	-0.7133859842	-0.271255
C	-2.0855491723	-2.6332831888	-0.3163886693	 0.084961
C	-3.227328454	-2.8453498699	 0.0144514214	-0.104988
C	-4.5875714446	-3.1496253205	 0.4119964788	 0.346075
O	-4.9335827675	-4.1700599828	 0.937882694	-0.291235
O	-5.4804307543	-2.1639263028	 0.1404514083	-0.359111
H	-1.0026800436	 1.7929096852	 0.6944079401	 0.257906
H	 0.4916687932	 1.3365348195	 0.0044914392	 0.260475
H	-1.8524619227	-0.3606246254	 0.5686083711	 0.09228
H	-0.6070132076	-2.5944085279	-1.784234472	 0.147863
H	-0.0474092205	-3.0901410392	-0.2072811907	 0.151372
12.3732	56.9872	91.9399	140.1615	179.9797	248.6978	291.556	347.6143	391.9551	410.1746	511.1323	517.4512	582.4542	597.2717	679.1432	765.7452	778.0888	933.9106	959.264	1029.5846	1041.8321	1155.7362	1186.988	1260.3287	1299.2733	1313.0426	1342.9811	1411.9338	1465.4849	1629.5493	1766.5282	1849.6799	2329.136	3007.0219	3024.503	3054.7904	3585.2984	3710.8862	3792.5094
NC=[NH+]CC#CC([O-])=O	NC=NCC#CC(=O)O	
InChI=1S/C5H6N2O2/c6-4-7-3-1-2-5(8)9/h4H,3H2,(H2,6,7)(H,8,9)	InChI=1S/C5H6N2O2/c6-4-7-3-1-2-5(8)9/h4H,3H2,(H2,6,7)(H,8,9)
