21
gdb 70879	2.47261	1.58396	1.34802	1.8642	82.87	-0.2179	0.0847	0.3026	1098.948	0.180453	-387.04653	-387.037373	-387.036429	-387.079599	35.357	
C	-0.1218498377	 1.4675019332	 0.0408033136	-0.509317
C	 0.0129023578	-0.0231643262	-0.0424306233	 0.238858
C	 0.9473515047	-0.8467836306	-0.9284973724	-0.318456
C	 0.1183396587	-2.0754700585	-0.4648669353	 0.38
C	 0.0923974338	-3.3914234481	-1.1776531144	-0.505168
O	 0.4574185222	-2.1732640243	 0.9562050876	-0.337104
C	-0.2962304516	-0.9764679971	 1.1328330576	 0.003838
C	-1.0853880856	-1.0913391692	-0.1268393122	 0.187982
C	-2.538237973	-1.0613631625	-0.4733309979	-0.532239
H	 0.7968189133	 1.9272924956	 0.4237486868	 0.124179
H	-0.3316244152	 1.9107530482	-0.9397321749	 0.117706
H	-0.9377387973	 1.7566142117	 0.7130449386	 0.115917
H	 0.7889641286	-0.6258763666	-1.9887284464	 0.092233
H	 2.0186436768	-0.8729792408	-0.6986179945	 0.091
H	 1.0852044731	-3.8538926855	-1.1477268393	 0.132847
H	-0.6174660611	-4.0772559049	-0.7061747159	 0.128714
H	-0.1918863336	-3.2572238701	-2.2258057436	 0.120086
H	-0.5568472304	-0.6571046287	 2.1346638469	 0.097309
H	-3.0323936733	-0.2096555435	 0.0071401612	 0.124838
H	-2.697463916	-0.9638450623	-1.5538411308	 0.119936
H	-3.0514036843	-1.9708460699	-0.1403368715	 0.126839
164.8508	176.7491	177.3684	195.486	199.882	202.4454	269.8677	341.1809	390.3511	464.8831	555.5986	571.8843	638.7448	652.5269	757.7218	768.7494	827.3017	874.7576	901.2562	947.5056	958.4547	993.1221	1031.159	1040.4478	1096.5243	1123.1235	1136.1395	1161.2942	1172.9361	1186.1088	1224.0835	1257.9541	1336.1032	1340.0482	1409.9621	1413.7776	1417.0963	1457.0429	1477.7766	1483.4248	1487.3494	1489.9084	1493.3591	1495.5991	1507.8088	3017.5379	3019.5943	3031.6648	3036.4929	3077.0879	3078.4486	3084.6662	3088.9781	3092.7774	3105.0367	3115.7143	3191.9549
CC12CC3(C)OC1C23C	C[C@@]12C[C@@]3(C)O[C@@H]1[C@@]23C	
InChI=1S/C8H12O/c1-6-4-7(2)8(6,3)5(6)9-7/h5H,4H2,1-3H3	InChI=1S/C8H12O/c1-6-4-7(2)8(6,3)5(6)9-7/h5H,4H2,1-3H3/t5-,6+,7+,8-/m0/s1
