14
gdb 77349	2.58162	1.33597	1.18656	2.4026	61.72	-0.2676	-0.0609	0.2066	1060.7167	0.099883	-473.833897	-473.82566	-473.824716	-473.86771	29.212	
O	-0.0178633761	 1.5884037787	-0.3714713745	-0.42952
C	-0.0233240915	 0.2382026713	 0.0433939589	 0.024096
C	-1.4698157665	-0.2789679567	 0.0093133949	-0.074437
O	-1.6666331594	-0.8592758472	-1.2799854739	-0.239138
C	-0.447604597	-1.448162604	-1.7084250584	-0.189306
C	 0.6540810694	-0.6299948033	-1.0444933598	 0.345455
O	 1.8183097395	-0.5807959233	-1.3324057141	-0.292774
C	-1.7151347361	-1.2748118771	 1.0722768879	 0.271459
N	-1.893933598	-2.0666265084	 1.8941737769	-0.310075
H	 0.8923538405	 1.8161681894	-0.5991881005	 0.304569
H	 0.4579787207	 0.0975531085	 1.0188896047	 0.123943
H	-2.1782313016	 0.5463394611	 0.1122872553	 0.159743
H	-0.3655826646	-2.5006206238	-1.393609059	 0.146911
H	-0.3922835891	-1.4017255853	-2.7982174383	 0.159074
37.1335	112.2176	151.1002	230.6537	245.2578	356.3524	372.2605	449.4209	479.3152	550.0434	594.348	644.9543	745.1829	812.1442	923.7201	961.5755	985.8836	1012.1639	1078.2517	1098.9622	1165.2169	1205.1992	1226.3792	1266.2888	1313.6502	1333.5112	1353.3982	1411.3035	1473.1628	1865.7934	2359.0288	2991.9574	3037.9649	3100.1647	3113.3639	3786.2388
OC1C(OCC1=O)C#N	O[C@H]1[C@@H](OCC1=O)C#N	
InChI=1S/C5H5NO3/c6-1-4-5(8)3(7)2-9-4/h4-5,8H,2H2	InChI=1S/C5H5NO3/c6-1-4-5(8)3(7)2-9-4/h4-5,8H,2H2/t4-,5+/m0/s1
