18
gdb 30738	3.15938	1.22817	0.9077	1.6598	77.63	-0.1627	0.054	0.2168	1278.1054	0.148622	-435.270932	-435.26135	-435.260406	-435.305121	35.218	
C	-0.1748677519	 1.4241970389	 0.1967719529	-0.328424
N	 0.3339109219	 0.0900518459	-0.1043443111	-0.386905
C	 0.781593099	-0.6958866227	 0.93633309	 0.444079
C	 0.7213839769	-2.0506198372	 1.1157157175	-0.019738
N	 0.0442961441	-2.9452961437	 0.2408537781	-0.628278
C	 1.4434328123	-2.3133486039	 2.3401786951	 0.184125
N	 1.5453890104	-3.5832461775	 2.9260359074	-0.611102
C	 1.8711485585	-1.1096227707	 2.8030298376	-0.140025
O	 1.4626904829	-0.1030135554	 1.9334497059	-0.197706
H	 0.6071500851	 2.0069923171	 0.6876676898	 0.147729
H	-0.4319770548	 1.9214664567	-0.7415336402	 0.121576
H	-1.060713967	 1.4221771727	 0.8504052044	 0.111955
H	-0.2765597493	-0.4607026505	-0.6955550825	 0.246182
H	 0.6814139491	-3.5322723736	-0.2904499823	 0.23165
H	-0.581721565	-3.5632698714	 0.7483372332	 0.238346
H	 1.6884661625	-4.3085050825	 2.2332618101	 0.231957
H	 2.2775372104	-3.640824013	 3.6219661243	 0.242575
H	 2.4046885149	-0.781166009	 3.6770019797	 0.112003
72.3312	132.1045	172.7019	189.6411	207.6191	235.7541	270.2318	301.8253	349.5601	380.85	555.7078	558.1323	566.5048	637.3339	691.6145	726.6171	739.7769	781.9496	788.0064	825.3719	995.7908	1072.4333	1088.4626	1143.5759	1154.6047	1173.333	1215.285	1232.1181	1301.2467	1377.2386	1443.4786	1466.3088	1488.185	1501.454	1519.7844	1629.4789	1643.5709	1660.0453	1715.4654	2985.2049	3091.931	3134.6525	3290.9809	3475.8963	3524.2372	3543.494	3567.7471	3617.874
CNC1=C(N)C(N)=CO1	CNc1c(N)c(N)co1	
InChI=1S/C5H9N3O/c1-8-5-4(7)3(6)2-9-5/h2,8H,6-7H2,1H3	InChI=1S/C5H9N3O/c1-8-5-4(7)3(6)2-9-5/h2,8H,6-7H2,1H3
