23
gdb 100349	1.69795	1.29117	0.99622	4.2025	82.79	-0.2667	0.0114	0.278	1386.1806	0.202233	-425.464061	-425.452881	-425.451936	-425.500362	40.266	
C	-0.0035816243	 1.5598532487	 0.1565743427	-0.399368
C	-0.0595310244	 0.0370967855	-0.0017715614	-0.198705
C	 0.6784337683	-0.5444443329	-1.2266047715	 0.346619
C	 0.5793993213	-2.0761498846	-1.2300776631	-0.433819
C	 0.1439112773	 0.0551019714	-2.5402947466	-0.18829
C	 0.7880958199	-0.4885987165	-3.8195618247	-0.401469
O	 2.0831206337	-0.1195394863	-1.2099800051	-0.228243
C	 2.9189131083	-0.541780422	-0.2515056335	 0.164112
O	 4.0682309595	-0.20714461	-0.2115156197	-0.285776
H	 1.0277784159	 1.92315982	 0.1487092246	 0.139219
H	-0.5468800851	 2.0763754361	-0.6393510226	 0.123454
H	-0.4577000754	 1.8552871926	 1.1068778014	 0.116839
H	 0.3463702208	-0.4345354909	 0.9013818162	 0.097493
H	-1.1035476407	-0.2939736646	-0.0632280769	 0.104516
H	-0.4427507767	-2.3770850889	-1.479443004	 0.126143
H	 1.2540324799	-2.5115363663	-1.9703052341	 0.13754
H	 0.8168882145	-2.506375531	-0.2533406642	 0.120021
H	-0.9404828832	-0.1084861041	-2.5644597461	 0.095702
H	 0.2990386934	 1.1370501215	-2.5013953098	 0.115428
H	 1.8757290745	-0.3881540715	-3.7777230081	 0.141431
H	 0.5473002138	-1.5420387502	-3.9901569459	 0.115259
H	 0.4304800261	 0.0719980057	-4.6881919963	 0.115531
H	 2.4568919325	-1.2174240621	 0.4892617888	 0.07636
63.8491	90.7752	118.65	133.2615	170.9973	212.7806	230.1369	246.7191	264.4957	301.2455	351.5556	366.7177	390.2192	488.5924	547.708	567.3598	745.0333	778.6174	809.0315	897.7652	925.0261	988.9656	1010.59	1012.6631	1046.4329	1049.9264	1089.6828	1092.0856	1171.4671	1200.743	1209.9895	1243.5702	1312.3363	1326.2581	1377.7993	1379.4099	1406.5035	1411.2802	1417.3903	1432.8194	1473.4391	1481.2849	1491.6566	1500.8383	1503.2934	1506.8177	1510.4575	1513.526	1847.7293	2982.9759	3028.6459	3036.0542	3044.527	3048.109	3049.1784	3061.0344	3087.8997	3110.0455	3112.9241	3114.7601	3123.668	3126.7706	3133.724
CCC(C)(CC)OC=O	CCC(C)(CC)OC=O	
InChI=1S/C7H14O2/c1-4-7(3,5-2)9-6-8/h6H,4-5H2,1-3H3	InChI=1S/C7H14O2/c1-4-7(3,5-2)9-6-8/h6H,4-5H2,1-3H3
