21
gdb 111750	2.61723	1.23109	1.0129	1.5635	79.21	-0.2227	0.0666	0.2893	1292.4459	0.18083	-424.16931	-424.159721	-424.158777	-424.204106	34.891	
C	-0.0389186089	 1.5476498785	-0.2163201227	-0.372667
C	 0.1872079041	 0.0290780604	-0.18006589	-0.301245
C	 0.6785721381	-0.4513293195	 1.1572464614	 0.220063
C	 2.0954256007	-0.2543800059	 1.7075925734	-0.122543
O	 2.0924138402	-1.5626430434	 2.3394001468	-0.289466
C	 0.7955246892	-1.8289933977	 1.8133822267	-0.025807
C	-0.2053438475	-0.8242054062	 2.3173705309	 0.050411
O	-0.0654802821	-0.1792784675	 3.5375397733	-0.239528
C	-0.221091682	-1.0466638928	 4.6477638253	-0.234993
H	 0.8887528342	 2.09143497	-0.0083142625	 0.119674
H	-0.3996701467	 1.8684355212	-1.1983089532	 0.112446
H	-0.7755923997	 1.8516329448	 0.5339743371	 0.127135
H	-0.7482549947	-0.4877196115	-0.4271241658	 0.099697
H	 0.9080858431	-0.2558433775	-0.9577508438	 0.100401
H	 2.8577615743	-0.2141831235	 0.9207357712	 0.101952
H	 2.2461029206	 0.5532190039	 2.4296901654	 0.117523
H	 0.5790042451	-2.83760902	 1.4757790958	 0.099673
H	-1.2363756321	-1.0505669321	 2.0296637922	 0.081897
H	-1.2215189283	-1.5043043952	 4.6675287879	 0.101291
H	 0.5356728049	-1.8407226551	 4.6369553916	 0.128756
H	-0.0949605825	-0.438359431	 5.5464834989	 0.125333
65.4117	89.7617	122.8368	180.6437	203.0773	225.3709	262.0604	313.8801	321.1382	394.0152	491.6337	641.646	680.7515	786.0321	802.0651	847.1596	906.3518	941.7674	986.0427	994.1438	1002.0051	1033.2624	1038.2653	1065.4692	1093.7817	1120.3638	1157.8677	1171.5172	1185.9371	1228.0386	1241.7415	1274.2707	1281.2171	1331.909	1350.6701	1361.7882	1410.9099	1454.6121	1482.7187	1487.5658	1489.8664	1499.3734	1502.5129	1507.2673	1509.0612	2989.7994	3017.507	3030.2437	3035.1102	3051.693	3058.6336	3063.8491	3093.6863	3103.4919	3110.3814	3120.2375	3162.6769
CCC12COC1C2OC	CC[C@]12CO[C@H]1[C@H]2OC	
InChI=1S/C7H12O2/c1-3-7-4-9-6(7)5(7)8-2/h5-6H,3-4H2,1-2H3	InChI=1S/C7H12O2/c1-3-7-4-9-6(7)5(7)8-2/h5-6H,3-4H2,1-2H3/t5-,6+,7-/m1/s1
