20
gdb 120104	4.06697	0.87715	0.81026	2.5323	78.9	-0.2189	0.0655	0.2844	1451.8718	0.170951	-403.036484	-403.027885	-403.026941	-403.070381	32.719	
O	-0.1246450104	 1.4196842941	 1.1093634974	-0.421391
C	-0.2202218789	 0.0083452886	 1.0201047378	-0.097173
C	-1.3741534651	-0.3220751807	 0.0760124718	-0.218595
C	-1.5600484275	-1.8340389734	-0.0395042983	-0.006108
C	-2.7543323336	-2.6918867826	 0.2844975694	-0.114611
C	-4.059441826	-2.2667983614	-0.4177982798	-0.03435
C	-3.9781552595	-1.1205347874	-1.3521552887	-0.25017
N	-3.4588573704	-2.4304945022	-1.7877965819	-0.141387
C	-2.1433077866	-2.743025657	-1.103627528	-0.048471
H	 0.5961936034	 1.6373016845	 1.7073430466	 0.286737
H	 0.7127690602	-0.4336558335	 0.6324473152	 0.087259
H	-0.4111606604	-0.4460438028	 2.0063053066	 0.089423
H	-2.2699340597	 0.1660028363	 0.4691464803	 0.122345
H	-1.1563402595	 0.1320031585	-0.8975938638	 0.118429
H	-0.6695590612	-2.3548047201	 0.3213844141	 0.090181
H	-2.7514455693	-3.4460850648	 1.0612322995	 0.090884
H	-5.0057914771	-2.7428905464	-0.1808988369	 0.098845
H	-4.899698277	-0.868661345	-1.8716162001	 0.119899
H	-3.3138389627	-0.2836759889	-1.2046304416	 0.129474
H	-1.5433973287	-3.5100820959	-1.5782030697	 0.098779
53.1728	106.9525	137.4362	210.1835	255.0078	284.6972	374.4778	433.6554	477.2779	673.6447	675.7301	711.2184	730.1533	776.2756	819.5585	881.239	896.6476	925.2211	971.2258	1005.9068	1023.1055	1037.6285	1055.9077	1072.1704	1087.7331	1090.1483	1104.5302	1126.935	1143.332	1204.5877	1233.3383	1236.5563	1248.6971	1279.2941	1318.5192	1324.5566	1338.4548	1365.9946	1452.686	1459.1724	1495.0081	1507.6598	1528.2219	2956.5797	2984.4196	3039.7835	3074.98	3094.8688	3130.5641	3156.578	3178.5268	3191.6802	3266.6998	3830.2347
OCCC1C2C3CN3C12	OCC[C@H]1[C@H]2[C@H]3CN3[C@@H]12	
InChI=1S/C7H11NO/c9-2-1-4-6-5-3-8(5)7(4)6/h4-7,9H,1-3H2	InChI=1S/C7H11NO/c9-2-1-4-6-5-3-8(5)7(4)6/h4-7,9H,1-3H2/t4-,5+,6-,7-,8?/m0/s1
