20
gdb 111421	2.11087	1.71094	1.22388	1.9637	75.14	-0.2189	0.0713	0.2902	1109.7554	0.170136	-440.202443	-440.193278	-440.192333	-440.236293	33.698	
C	-0.1781153414	 0.5649607453	 0.4135825156	-0.230245
O	 0.2137220929	 0.7690112854	-0.9398543222	-0.26269
C	 0.6062188115	-0.3430581042	-1.6865381209	 0.111332
C	 1.4575030286	-1.4850107479	-1.1179118834	-0.111775
N	 0.62680967	-2.2493816645	-0.1560307576	-0.322717
C	 0.4727740669	-2.5084143945	-1.6008307024	-0.101254
C	-0.4575057028	-1.4401910067	-2.1556678945	 0.111061
O	-1.7439812352	-1.4213170388	-1.6121876834	-0.236381
C	-2.5854588375	-0.4633192085	-2.2278321509	-0.244228
H	-0.963846489	-0.1882854862	 0.5034466933	 0.143718
H	 0.6708357205	 0.258696268	 1.03646395	 0.108203
H	-0.5418429953	 1.5349622456	 0.7636879823	 0.109081
H	 1.0943257845	 0.0677060735	-2.5760635697	 0.087577
H	 2.5385965176	-1.5482341517	-1.0877320129	 0.094169
H	 1.2174800709	-2.9922951963	 0.2164610121	 0.231158
H	 0.6606114854	-3.4914412194	-2.013635253	 0.095871
H	-0.5012771465	-1.4716262601	-3.2553139761	 0.062909
H	-3.5604326921	-0.5327451082	-1.7398096801	 0.124887
H	-2.1937348355	 0.5546078178	-2.1116902859	 0.128635
H	-2.7112433833	-0.6735535286	-3.3020505802	 0.100689
109.0177	124.8812	134.0897	168.7648	209.8563	236.386	240.3658	334.658	346.79	488.9776	563.5336	652.0689	743.213	780.5576	836.0169	854.9206	890.5186	966.5981	998.7895	1007.6844	1026.3116	1051.5318	1105.0004	1119.2371	1162.798	1172.3806	1177.5937	1184.1624	1193.9661	1227.6879	1235.7244	1265.6186	1300.0184	1336.0135	1380.6384	1389.7363	1412.8806	1475.645	1483.6321	1487.9047	1490.6694	1502.0784	1514.5682	2975.4386	2982.6026	3022.6783	3055.2476	3061.4404	3093.9466	3119.5686	3132.0244	3182.8992	3198.1194	3473.4361
COC1C2NC2C1OC	CO[C@H]1[C@H]2N[C@H]2[C@H]1OC	
InChI=1S/C6H11NO2/c1-8-5-3-4(7-3)6(5)9-2/h3-7H,1-2H3	InChI=1S/C6H11NO2/c1-8-5-3-4(7-3)6(5)9-2/h3-7H,1-2H3/t3-,4+,5-,6+
