13
gdb 47961	2.49991	0.81296	0.65658	2.6263	77.71	-0.2706	-0.0796	0.191	1610.9166	0.084305	-419.361627	-419.351847	-419.350903	-419.398871	31.877	
O	-0.9096603993	 1.2548308418	 0.5325261535	-0.21944
C	 0.0167398966	 1.1356164092	-0.2339608195	 0.03048
C	 1.2412878343	 1.8960676665	-0.1492397413	 0.014132
C	 2.2842766406	 2.5021027852	-0.1075962238	 0.133098
C	 3.5004476745	 3.307882916	-0.032880827	-0.417782
C	 3.0996146999	 4.7928107382	 0.228117932	 0.178067
O	 3.3697950478	 5.6788920085	-0.5267121771	-0.21951
C	 4.3843330079	 2.876825175	 1.0490057301	 0.309888
C	 5.1084427183	 2.5841126373	 1.9607927388	-0.419116
H	-0.0121851516	 0.4161668978	-1.0763481518	 0.108453
H	 4.0306294248	 3.2939385334	-0.9927338976	 0.162068
H	 2.5506934466	 4.9397115535	 1.1788412184	 0.122518
H	 5.7533297095	 2.3056811175	 2.7581129652	 0.217146
22.6819	57.0445	79.3669	88.2837	178.9501	201.2013	236.1309	348.6482	411.6703	445.6758	475.9413	531.0258	655.3086	660.7277	666.712	848.2111	943.9187	983.8044	1020.3967	1036.0926	1155.6679	1213.833	1304.725	1399.0398	1421.4456	1771.2704	1849.2599	2242.5417	2331.6225	2930.9469	2948.1353	3044.9587	3500.522
O=CC#CC(C=O)C#C	O=CC#C[C@@H](C=O)C#C	
InChI=1S/C7H4O2/c1-2-7(6-9)4-3-5-8/h1,5-7H	InChI=1S/C7H4O2/c1-2-7(6-9)4-3-5-8/h1,5-7H/t7-/m0/s1
