16
gdb 43221	2.96819	1.87568	1.66346	2.809	67.63	-0.2387	-0.0305	0.2082	857.0719	0.126605	-437.838134	-437.831906	-437.830962	-437.868552	25.703	
O	 0.077732395	 0.0259773846	 0.1723121706	-0.314285
C	 0.0265940755	 1.2147768273	 0.0804252969	 0.482423
C	-1.087835064	 2.2693725563	-0.0278699153	-0.16311
C	-1.3157361035	 2.8000699898	 1.3935869681	-0.10308
O	-0.0484491884	 3.0316049179	 2.0146312568	-0.269943
C	 0.9280817833	 3.4077936234	 1.0602230046	 0.105597
C	 0.3204486592	 4.3493917041	 0.003436191	-0.199194
N	-0.1041964282	 3.1516110661	-0.8032921238	-0.158167
C	 1.0141567559	 2.347833237	-0.1131051517	-0.171099
H	-2.0148310012	 2.037701688	-0.5550932397	 0.10844
H	-1.9108964183	 3.7229994228	 1.3651269771	 0.113297
H	-1.8488024498	 2.0691554541	 2.0081761314	 0.135254
H	 1.8347806362	 3.6672662912	 1.6093009577	 0.096329
H	-0.4626381892	 5.0439537624	 0.3187197791	 0.116107
H	 1.0729119425	 4.8972477844	-0.5697321389	 0.121992
H	 1.9719469649	 2.2220267607	-0.620496654	 0.09944
145.6522	287.6143	349.159	425.682	483.6439	516.2506	544.3853	647.9683	712.7045	769.1839	812.5199	826.3302	849.5534	878.5078	923.6548	972.7985	992.3657	1021.1356	1041.5931	1066.9157	1103.7289	1117.2137	1154.0745	1191.1531	1198.318	1220.4279	1244.143	1251.6883	1272.6958	1291.6029	1345.6967	1393.7633	1492.1034	1524.4723	1909.023	3012.26	3061.5908	3091.6707	3098.8733	3105.7794	3110.7451	3114.5281
O=C1C2COC3CN2C13	O=C1[C@H]2CO[C@@H]3CN2[C@H]13	
InChI=1S/C6H7NO2/c8-6-3-2-9-4-1-7(3)5(4)6/h3-5H,1-2H2	InChI=1S/C6H7NO2/c8-6-3-2-9-4-1-7(3)5(4)6/h3-5H,1-2H2/t3-,4-,5+/m1/s1
