19
gdb 38901	2.71221	1.78347	1.46474	0.5262	73.29	-0.225	0.0547	0.2796	966.9734	0.160411	-422.976465	-422.968915	-422.967971	-423.009905	29.583	
C	 0.1884154925	 1.6289976078	 0.0932308942	-0.382029
C	 1.373774021	 0.6841805368	-0.0238035062	 0.084961
O	 2.2776028335	 0.4706932519	 1.0208699102	-0.262309
C	 1.7701011268	 0.0100844984	 2.2567998973	 0.091021
C	 1.3670748219	 1.0867622981	 3.3077713353	-0.25108
C	-0.07524783	 0.5019015475	 3.3606476267	-0.2511
C	 0.3193157152	-0.5782569539	 2.3100353624	 0.091043
O	-0.4420381237	-0.6323970455	 1.1206522054	-0.262304
C	-0.0096768785	 0.1230680015	 0.0269585	 0.08496
H	 0.022931257	 2.1229509315	 1.0427128338	 0.123747
H	-0.0843731311	 2.2232124317	-0.7728088719	 0.116146
H	 1.9126939273	 0.6606101959	-0.9652274947	 0.104738
H	 2.5153703414	-0.6972473129	 2.6308757409	 0.088751
H	 1.928672838	 1.0327512893	 4.2429516011	 0.10261
H	 1.4410434871	 2.105893856	 2.9234523265	 0.112373
H	-0.3807887873	 0.0963412107	 4.3276221363	 0.10261
H	-0.8613095014	 1.1722728071	 3.0077918162	 0.112373
H	 0.3017225251	-1.5949311161	 2.712201453	 0.088752
H	-0.4381265147	-0.2928556357	-0.8789702667	 0.10474
18.1793	84.1694	268.8521	366.5948	375.1293	379.6887	536.4364	538.5055	653.2339	720.951	725.718	759.7577	784.1006	792.3091	880.2283	905.8284	946.4513	958.9239	973.6561	1015.73	1024.0704	1066.1254	1082.1797	1126.2935	1130.196	1137.4821	1180.753	1210.5381	1210.663	1233.8172	1262.845	1279.2435	1288.5528	1294.6171	1358.4424	1384.02	1400.1148	1423.1635	1470.2012	1473.0459	1488.7662	3052.4497	3066.1222	3069.007	3076.9657	3115.6762	3131.7894	3137.7333	3155.6	3165.0214	3232.2702
C1C2OC3CCC3OC12	C1[C@H]2O[C@H]3CC[C@H]3O[C@@H]12	
InChI=1S/C7H10O2/c1-2-5-4(1)8-6-3-7(6)9-5/h4-7H,1-3H2	InChI=1S/C7H10O2/c1-2-5-4(1)8-6-3-7(6)9-5/h4-7H,1-3H2/t4-,5+,6+,7-
