21
gdb 64323	2.47904	1.42029	1.17119	1.8676	78.69	-0.2393	-0.015	0.2243	1157.9519	0.181749	-424.265156	-424.256093	-424.255149	-424.298504	35.18	
C	 0.0403093997	 1.5070880299	 0.0643836311	-0.414262
C	-0.0595095865	-0.0164394518	 0.0003077226	 0.339888
C	-1.5335370048	-0.4552497562	-0.0044110114	-0.424501
C	 0.6782310509	-0.5579879279	-1.256096742	-0.310869
C	 0.8858843045	-2.0609939637	-1.172820666	 0.371015
O	 0.5715728806	-2.82504821	-2.0558155044	-0.312085
C	 1.5012411689	-2.5080482626	 0.1416286524	-0.29853
C	 0.7335533379	-1.8750454746	 1.3184505593	-0.095715
O	 0.6193313258	-0.4729906161	 1.1792024704	-0.280304
H	 1.0864432955	 1.8126688291	 0.1519712853	 0.121222
H	-0.3851626095	 1.961575908	-0.8349823737	 0.115888
H	-0.5009497781	 1.8862340744	 0.9359788112	 0.122331
H	-2.071676456	 0.0440190116	-0.8154676822	 0.12259
H	-1.6518171204	-1.5320662834	-0.1555014127	 0.127111
H	-2.0065264775	-0.183122745	 0.9435431389	 0.124525
H	 0.133780065	-0.3189424562	-2.1728025991	 0.115242
H	 1.6651398947	-0.080242166	-1.3014274002	 0.116149
H	 1.4991343601	-3.5991955628	 0.1986689595	 0.118561
H	 2.5393891171	-2.1538472711	 0.1741753728	 0.123281
H	-0.2536015423	-2.3497880535	 1.4142324053	 0.102981
H	 1.2683426444	-2.0404964122	 2.257774403	 0.115479
90.2231	115.8426	204.4556	235.5865	274.7399	296.9626	324.3404	385.3868	395.3772	460.7307	475.2908	507.6729	532.0888	659.9569	768.0733	778.1814	856.4542	861.3209	913.432	936.3033	944.2024	994.5921	1014.8565	1050.78	1101.9795	1138.2193	1195.2035	1206.44	1220.1761	1253.2826	1274.1756	1274.5471	1324.8105	1332.1814	1399.8211	1403.8354	1416.9623	1451.8605	1462.9851	1478.2081	1484.5291	1495.5625	1504.4422	1520.3601	1817.8992	3003.1662	3030.5111	3037.2083	3041.0939	3045.9249	3087.5457	3109.0217	3112.993	3114.157	3116.931	3121.3313	3124.3116
CC1(C)CC(=O)CCO1	CC1(C)CC(=O)CCO1	
InChI=1S/C7H12O2/c1-7(2)5-6(8)3-4-9-7/h3-5H2,1-2H3	InChI=1S/C7H12O2/c1-7(2)5-6(8)3-4-9-7/h3-5H2,1-2H3
