20
gdb 119237	1.97384	1.55382	1.04403	2.088	77.09	-0.2383	-0.0269	0.2114	1218.7793	0.167769	-440.245517	-440.235273	-440.234329	-440.2815	35.957	
C	-0.234615503	 0.8142548906	-0.2371887069	-0.232831
O	-0.0093985947	 0.4384551134	 1.1082762901	-0.236086
C	 1.0589521073	-0.4647238654	 1.3165208078	-0.189717
C	 0.7108419601	-1.9158511204	 1.0122755128	 0.210498
C	 0.9871314903	-2.9778682223	 2.0560635058	-0.281063
N	-0.3670259858	-2.6409754531	 1.7051499866	-0.112722
C	-1.1891512138	-1.9395465325	 2.6873297088	-0.308153
C	 0.8787025141	-2.3772791465	-0.4018534691	 0.133925
O	 1.471977764	-1.7702839828	-1.2590898599	-0.275148
H	-0.6381982737	-0.0066916496	-0.8439654117	 0.116644
H	-0.9649686822	 1.6271149641	-0.2156175213	 0.122514
H	 0.6879774441	 1.1694348608	-0.7166630311	 0.118178
H	 1.9289337764	-0.1927612048	 0.7020745742	 0.12044
H	 1.3363599027	-0.3542432837	 2.3678287877	 0.105271
H	 1.3377983158	-3.9646616851	 1.7620137283	 0.123661
H	 1.3957830154	-2.6092839721	 2.9972448629	 0.119349
H	-0.6253266617	-1.2833188802	 3.3645552247	 0.11152
H	-1.9322610949	-1.3327329886	 2.1669167779	 0.141484
H	-1.7051818809	-2.6930587824	 3.2901888265	 0.124986
H	 0.4112359802	-3.3684106294	-0.5928997741	 0.087248
32.0656	96.2134	107.9017	158.1575	194.618	207.621	240.6292	254.231	313.071	357.3672	421.1208	433.1734	507.4825	600.9208	744.6205	793.3801	900.8561	917.4193	952.8132	996.7701	1046.6132	1068.948	1116.1326	1119.3332	1150.4716	1157.084	1179.7799	1200.983	1221.8552	1293.3777	1329.3835	1360.4688	1389.324	1419.6077	1453.3417	1469.5307	1479.8748	1483.8398	1498.0191	1498.4064	1503.9583	1513.8067	1815.6262	2896.1153	2998.7873	3005.1966	3014.1738	3055.4694	3080.4112	3083.5348	3092.2346	3113.0312	3134.8655	3168.035
COCC1(CN1C)C=O	COC[C@]1(CN1C)C=O	
InChI=1S/C6H11NO2/c1-7-3-6(7,4-8)5-9-2/h4H,3,5H2,1-2H3	InChI=1S/C6H11NO2/c1-7-3-6(7,4-8)5-9-2/h4H,3,5H2,1-2H3/t6-,7?/m0/s1
