27
gdb 121108	4.44681	0.67816	0.62156	0.1564	96.75	-0.2924	0.0814	0.3738	1954.7755	0.253012	-353.590441	-353.579875	-353.578931	-353.626551	39.595	
C	 0.0362667373	 1.5929807334	 0.1540087823	-0.378746
C	-0.0000812313	 0.0667771151	 0.0351225365	-0.166822
C	 0.6874428076	-0.4530857058	-1.2333449983	-0.18821
C	 0.6919999202	-1.9781726011	-1.3682192026	 0.046457
C	-0.714485383	-2.6233540587	-1.5275340382	-0.214796
C	-0.5304731074	-3.8411241422	-2.4760655187	-0.214592
C	 0.9900440013	-3.9567031377	-2.7360733139	 0.053446
C	 1.3506881457	-4.6244705873	-4.0613063108	-0.408055
C	 1.4750786811	-2.5070118393	-2.5825355987	-0.223086
H	 1.0673505921	 1.9637274084	 0.173633066	 0.111932
H	-0.4672864509	 2.0682117713	-0.6953980534	 0.112148
H	-0.4583447417	 1.9365675779	 1.0680991484	 0.108789
H	 0.4821975393	-0.3806022958	 0.9147576462	 0.091357
H	-1.0423162733	-0.2757239771	 0.0544500393	 0.098022
H	 0.1970678636	-0.0179655429	-2.1166738	 0.086026
H	 1.7235433675	-0.0867942956	-1.2512516543	 0.085905
H	 1.1612363431	-2.3970185789	-0.4659818083	 0.062969
H	-1.1356832208	-2.9134113831	-0.560897486	 0.095524
H	-1.4123988117	-1.8996392392	-1.9640887898	 0.092673
H	-0.9478611326	-4.7651913974	-2.0648873068	 0.091453
H	-1.0476614669	-3.6626670227	-3.4264956489	 0.092112
H	 1.4350459653	-4.543150393	-1.9192960381	 0.066165
H	 0.9337159533	-4.0639163017	-4.9066185731	 0.109491
H	 2.4357637952	-4.6798407678	-4.2008843885	 0.108706
H	 0.9571879583	-5.6455484057	-4.1148252704	 0.1095
H	 1.2058274037	-1.9313224423	-3.4806333162	 0.085131
H	 2.5603110649	-2.4251154608	-2.4591409339	 0.086503
55.4491	81.446	97.5108	110.6652	187.2464	239.3791	253.1441	274.5937	305.4501	373.4303	429.0504	444.0153	545.8095	617.3577	746.3099	786.0994	835.8337	843.7351	877.6026	902.5135	925.4372	929.4516	964.148	999.3857	1026.4172	1034.9431	1045.7634	1071.9173	1089.5537	1122.1971	1152.1593	1172.0459	1209.6224	1232.3416	1260.9412	1270.6865	1289.6416	1300.6107	1306.4059	1321.0363	1334.4339	1351.8137	1357.1008	1377.0732	1388.9976	1400.0124	1411.8488	1413.3273	1481.1037	1488.9545	1490.4792	1494.2595	1497.2019	1500.45	1500.9338	1510.0108	1515.7862	2988.1823	2992.1449	2996.8644	3008.3478	3015.9421	3022.0687	3027.6635	3028.4076	3028.7085	3043.2403	3055.2519	3070.0744	3070.3065	3087.4837	3091.9978	3093.656	3094.5645	3099.3321
CCCC1CCC(C)C1	CCC[C@H]1CC[C@@H](C)C1	
InChI=1S/C9H18/c1-3-4-9-6-5-8(2)7-9/h8-9H,3-7H2,1-2H3	InChI=1S/C9H18/c1-3-4-9-6-5-8(2)7-9/h8-9H,3-7H2,1-2H3/t8-,9+/m1/s1
