16
gdb 123417	4.86619	0.90633	0.87521	2.9336	70.	-0.2997	-0.0678	0.2319	1332.8349	0.124282	-434.002014	-433.994251	-433.993307	-434.035802	28.063	
C	-0.0706617126	 1.5724644874	-0.1731524394	-0.331906
C	-0.1349742874	 0.0549228162	-0.244897783	 0.021835
C	-0.1596607516	-0.7578083337	 1.0237500751	-0.253498
C	-1.3964700329	-0.6587232115	 0.1643425927	-0.275483
C	 1.3241668604	 2.0697631998	 0.0075830494	 0.426539
N	 1.7878199479	 2.6596939997	 1.0720679632	-0.150977
O	 3.0900253588	 2.9084821053	 0.7908455923	-0.139269
N	 3.370098102	 2.4375826633	-0.4878546433	 0.047199
N	 2.3163928914	 1.937687393	-0.953744753	-0.2037
H	-0.4799234182	 2.0093707293	-1.0916216082	 0.136835
H	-0.672684923	 1.9398651089	 0.6627145499	 0.134561
H	 0.4140389703	-0.3689149088	-1.0803059215	 0.108254
H	 0.3826277779	-1.6961656822	 1.0435367755	 0.120863
H	-0.154104206	-0.2226853191	 1.9678166961	 0.122266
H	-2.2229195838	-0.0593646878	 0.5323265673	 0.116094
H	-1.7011343831	-1.5280421899	-0.4072455632	 0.120386
45.3601	63.6322	115.9348	282.9128	313.1608	359.6141	420.8553	671.489	698.6282	703.8435	774.4787	779.9776	815.2683	847.9818	894.8007	955.2425	961.6726	1001.3182	1060.1435	1062.9717	1080.5859	1083.959	1134.9325	1145.7857	1197.6339	1225.7543	1249.6743	1315.0421	1336.156	1412.1738	1465.7524	1474.3192	1485.7226	1508.5606	1597.2459	3043.5784	3100.6667	3132.8957	3137.4909	3157.669	3211.9702	3226.7038
C(C1CC1)C1=NON=N1	C(C1CC1)c1nonn1	
InChI=1S/C5H7N3O/c1-2-4(1)3-5-6-8-9-7-5/h4H,1-3H2	InChI=1S/C5H7N3O/c1-2-4(1)3-5-6-8-9-7-5/h4H,1-3H2
