17
gdb 74116	2.3923	1.77171	1.12742	5.1754	76.11	-0.2293	-0.0505	0.1788	1074.4764	0.136455	-421.842188	-421.834393	-421.833449	-421.874675	29.187	
C	-0.1465143299	 1.5366503444	 0.0472443964	-0.492832
C	-0.0664504028	 0.0469379434	-0.0118889944	 0.32074
C	-0.0959940258	-0.7284298446	-1.1112173973	-0.289699
C	 0.0071474828	-2.1631420985	-0.7735601851	 0.397443
O	-0.0191457391	-3.1101910307	-1.5238497649	-0.330729
C	 0.1844774065	-2.2284054414	 0.7556389716	 0.000934
O	 1.5892074314	-2.3088786242	 1.1198648251	-0.282992
C	 1.5584401477	-0.9982486977	 1.7144114038	-0.075437
C	 0.0947887483	-0.7732291766	 1.2460638931	-0.184642
H	 0.742667073	 1.9535377706	 0.5369412036	 0.141507
H	-0.234749697	 1.9824556109	-0.9458648196	 0.138684
H	-1.0072326795	 1.8535800734	 0.6495278873	 0.140534
H	-0.1869333879	-0.3800960162	-2.1329964438	 0.113327
H	-0.4133769906	-3.012698809	 1.2280718261	 0.095071
H	 1.6798651556	-1.0462511504	 2.8034389078	 0.108159
H	 2.3177543581	-0.3297186861	 1.2919049399	 0.108193
H	-0.6204064609	-0.5141209574	 2.0292324403	 0.091739
104.7033	140.8685	176.0491	231.0151	247.232	304.058	448.2169	559.5706	566.0672	597.6449	727.7152	793.9195	849.0728	864.9364	894.9768	927.888	961.2663	1012.8362	1017.0827	1027.6199	1042.764	1083.8114	1157.7586	1166.3468	1194.4747	1226.997	1247.6795	1283.9372	1292.6216	1341.4358	1357.0232	1411.0522	1477.2574	1478.4092	1517.2644	1668.1578	1817.0952	3016.8179	3022.7	3064.2065	3070.7027	3074.9758	3093.7176	3125.8971	3210.892
CC1=CC(=O)C2OCC12	CC1=CC(=O)[C@H]2OC[C@@H]12	
InChI=1S/C7H8O2/c1-4-2-6(8)7-5(4)3-9-7/h2,5,7H,3H2,1H3	InChI=1S/C7H8O2/c1-4-2-6(8)7-5(4)3-9-7/h2,5,7H,3H2,1H3/t5-,7-/m0/s1
