16
gdb 69223	2.77337	1.63936	1.16496	2.4136	74.21	-0.2526	-0.0222	0.2304	1045.0442	0.125049	-434.077238	-434.06932	-434.068376	-434.10946	30.367	
C	-0.089382085	 1.5197613315	 0.0237154614	-0.489402
C	 0.1392222759	 0.0401740098	-0.0016560391	 0.36383
O	-0.6989601852	-0.7925614589	 0.8233634523	-0.28131
C	 0.7159231765	-0.7987300829	 1.0652439599	-0.112625
C	 1.3890696046	-1.9711024158	 0.4144564647	 0.41444
N	 2.0746098535	-2.841116698	 1.0323776549	-0.539766
N	 1.1095426444	-1.8453984175	-0.949556253	-0.403648
C	 0.4470496118	-0.6677832829	-1.3007903524	 0.360176
N	 0.1482838062	-0.2076050045	-2.4443062229	-0.537738
H	 0.7996123366	 2.0527417834	-0.3251286345	 0.136072
H	-0.9162415351	 1.779299852	-0.6424041034	 0.155728
H	-0.3295634645	 1.844970649	 1.0382334034	 0.132816
H	 1.0553313336	-0.4424119463	 2.0306602612	 0.123196
H	 2.4605304423	-3.5460999996	 0.4008121155	 0.212967
H	 1.3335374177	-2.5646236721	-1.6199780844	 0.251364
H	 0.4429581666	-0.8271860472	-3.2014789036	 0.2139
133.0437	143.6246	178.4604	257.7341	312.8515	337.584	417.4889	471.3682	515.0612	560.5069	631.642	691.0022	723.2132	740.195	826.6451	859.5953	882.3998	902.6044	940.5242	1016.8897	1061.7738	1093.3198	1098.6268	1114.6786	1205.8807	1258.4335	1326.7408	1375.505	1394.9325	1408.895	1452.9766	1477.5045	1492.7014	1757.5231	1777.3896	3053.3887	3124.2265	3139.4541	3197.8444	3451.3912	3456.0808	3628.5864
CC12OC1C(=N)NC2=N	C[C@]12O[C@H]1[C]([NH])N[C]2[NH]	
InChI=1S/C5H7N3O/c1-5-2(9-5)3(6)8-4(5)7/h2H,1H3,(H3,6,7,8)	InChI=1S/C5H7N3O/c1-5-2(9-5)3(6)8-4(5)7/h2H,1H3,(H3,6,7,8)/t2-,5-/m0/s1
