18
gdb 6764	3.26028	1.45575	1.13602	2.932	65.78	-0.2403	-0.0378	0.2025	1083.6533	0.151769	-422.077472	-422.068364	-422.067419	-422.112062	32.035	
C	 0.2327528208	 0.6628278917	-0.5065194369	-0.473124
C	-0.0877487184	-0.5675272716	 0.3031876336	 0.397598
O	 0.7757929545	-1.3212727145	 0.7064439114	-0.308541
C	-1.5777254486	-0.8721314081	 0.5255598469	-0.170262
O	-2.0156197772	-1.6317034368	-0.5940259372	-0.263071
C	-2.3516682024	-2.9929413706	-0.3343615051	-0.075223
C	-1.1663302302	-3.9138951992	-0.0415708795	-0.076751
O	-0.6038511647	-3.7220333015	 1.2389592742	-0.432144
H	 1.3031249305	 0.729412329	-0.7021451577	 0.146191
H	-0.3261825895	 0.6271969953	-1.4485931359	 0.161982
H	-0.1062807698	 1.5583109421	 0.0278719845	 0.146512
H	-1.7003144405	-1.4189684015	 1.4645044553	 0.134428
H	-2.1614517784	 0.0568161756	 0.5594184196	 0.10204
H	-3.0650110349	-3.051522097	 0.5008576135	 0.101584
H	-2.8567418189	-3.332544684	-1.2457174985	 0.106009
H	-1.5367731843	-4.9468797263	-0.0825395204	 0.101835
H	-0.4181887574	-3.8022052786	-0.840450993	 0.096264
H	 0.0260654194	-2.985240104	 1.1832602653	 0.304674
32.0731	106.8722	128.2278	172.8538	196.3934	240.5348	316.573	334.004	403.0717	512.0022	527.1369	604.4011	676.0142	795.7652	814.022	901.0262	923.7215	971.7858	1046.5784	1072.4638	1090.7745	1121.7238	1133.2537	1229.3927	1248.4925	1289.2537	1320.9855	1379.6866	1393.8375	1402.1382	1409.7582	1458.8994	1462.3646	1472.3856	1477.0618	1486.3656	1494.6071	1793.994	2994.6009	3000.7606	3017.1129	3035.5168	3048.6372	3074.6545	3096.0501	3100.056	3157.8885	3652.9587
CC(=O)COCCO	CC(=O)COCCO	
InChI=1S/C5H10O3/c1-5(7)4-8-3-2-6/h6H,2-4H2,1H3	InChI=1S/C5H10O3/c1-5(7)4-8-3-2-6/h6H,2-4H2,1H3
