25
gdb 120750	3.31331	0.72167	0.6426	0.0951	94.66	-0.2425	0.0887	0.3311	1882.3106	0.228493	-352.336377	-352.326069	-352.325125	-352.372728	38.375	
C	 0.001333902	 1.5439625195	-0.1951408664	-0.381382
C	 0.1722474818	 0.0247267021	-0.1152535997	-0.156752
C	 0.4613742235	-0.4744359398	 1.3071470558	-0.187584
C	 0.6292687505	-1.9784925886	 1.3799829266	-0.003189
C	 1.9744592495	-2.625851999	 1.1381048857	-0.309297
C	 1.3510835107	-2.6740367195	 2.5147361563	-0.021852
C	 1.954699491	-1.9375602877	 3.6700288311	 0.02912
C	 1.2869476544	-1.9705526043	 5.0241296658	-0.268483
C	 2.5861037826	-2.7066125904	 4.8056480236	-0.275989
H	 0.9069360797	 2.0623754068	 0.1398142824	 0.111636
H	-0.20879686	 1.8705749012	-1.2185193336	 0.109715
H	-0.8251948689	 1.8840495378	 0.4390279024	 0.11244
H	-0.7344319935	-0.467000669	-0.4920970686	 0.092081
H	 0.9862328991	-0.2927769301	-0.7792390383	 0.097837
H	 1.3641460039	 0.023233253	 1.6822471837	 0.089826
H	-0.3549492473	-0.1607027807	 1.972879554	 0.093498
H	-0.2253074154	-2.5249867196	 0.9851551297	 0.075456
H	 2.0303349321	-3.5368686508	 0.5519403089	 0.104783
H	 2.8253666209	-1.9631803266	 1.0056318755	 0.104905
H	 0.9285138119	-3.6349772071	 2.8020428322	 0.072709
H	 2.4465306791	-1.004675069	 3.4114019345	 0.077504
H	 1.297434751	-1.071338379	 5.6304116187	 0.107888
H	 0.3815399809	-2.560640438	 5.1235060014	 0.108507
H	 2.5533775542	-3.7904501048	 4.7588604329	 0.108981
H	 3.4872894263	-2.3110807163	 5.2613411054	 0.10764
47.7635	71.3911	84.5595	106.3209	184.8584	242.5048	248.0843	289.8339	324.4125	395.2592	450.4949	561.2938	735.903	743.9512	796.8506	812.465	823.975	854.9247	861.7063	898.4175	919.6953	937.7314	975.7246	988.8906	1030.4644	1052.7279	1058.6479	1062.904	1075.7658	1088.7137	1122.0466	1134.1963	1146.4962	1197.2114	1199.8923	1213.9462	1222.7619	1255.934	1269.6534	1302.6823	1320.5177	1328.9852	1382.9328	1408.9215	1417.0362	1451.1759	1470.3513	1480.2898	1492.088	1495.7464	1499.4341	1509.6394	1510.3616	3007.0598	3017.9892	3027.5509	3039.1561	3059.3374	3093.9042	3099.7138	3113.1753	3119.3385	3124.2426	3126.8387	3131.9022	3149.7001	3204.0133	3204.3567	3220.0637
CCCC1CC1C1CC1	CCC[C@H]1C[C@H]1C1CC1	
InChI=1S/C9H16/c1-2-3-8-6-9(8)7-4-5-7/h7-9H,2-6H2,1H3	InChI=1S/C9H16/c1-2-3-8-6-9(8)7-4-5-7/h7-9H,2-6H2,1H3/t8-,9-/m0/s1
