23
gdb 118113	3.45458	0.73596	0.66482	0.342	82.69	-0.2555	0.0731	0.3286	1762.7923	0.20351	-425.407314	-425.396237	-425.395293	-425.444128	39.783	
C	 0.0354530189	 1.5452279587	-0.2336057973	-0.39854
C	 0.0422357809	 0.0469674871	-0.0176317792	-0.004683
C	 1.3183289088	-0.7548090372	-0.096498095	-0.302564
C	 0.6070845279	-0.5941748272	 1.2289455768	-0.013745
C	 1.2158636568	 0.217619673	 2.3526650853	 0.101332
O	 0.2186138013	 0.9478261815	 3.0763416401	-0.437306
C	 2.0553609597	-0.6587186025	 3.2898325508	-0.181392
C	 2.73673847	 0.1326906423	 4.3980510256	-0.080639
O	 3.4603543591	-0.785690837	 5.2065639284	-0.424783
H	 0.9690315335	 2.0103115912	 0.0949652889	 0.115577
H	-0.089139962	 1.7799089121	-1.2964140591	 0.110599
H	-0.7796391788	 2.0222358643	 0.3195172377	 0.125783
H	-0.8390415397	-0.4516467237	-0.4141948427	 0.080777
H	 1.3102636672	-1.7255736548	-0.5798681333	 0.109188
H	 2.2441261279	-0.2026970388	-0.2322555753	 0.108738
H	 0.0738304954	-1.4759296925	 1.5835687167	 0.071873
H	 1.8601137849	 0.9977259577	 1.9304098225	 0.081132
H	-0.4400585794	 0.3129234013	 3.3795108442	 0.274924
H	 1.4144304662	-1.4254181673	 3.7466567067	 0.092003
H	 2.8148835061	-1.1926788487	 2.7071935651	 0.109176
H	 3.4085602228	 0.8866101458	 3.9541785456	 0.080257
H	 1.9778796865	 0.6746597552	 4.9788501352	 0.098259
H	 3.8472965759	-0.2969206405	 5.9385171525	 0.284033
51.0166	88.3984	98.0133	101.925	167.6987	209.6782	221.185	246.0638	269.9304	335.0426	370.3502	391.561	399.6123	524.1501	598.4492	778.3562	798.564	836.888	858.8207	900.339	932.2426	992.28	1023.6	1033.5581	1066.5901	1070.7109	1086.7253	1103.5292	1113.8023	1148.5453	1151.1257	1197.8247	1211.5006	1237.1714	1245.3224	1278.4808	1304.8527	1322.3167	1365.8426	1396.72	1413.9705	1423.4847	1437.2183	1459.0349	1485.4227	1490.4958	1495.2061	1504.1762	1531.1852	2961.0206	3018.0588	3023.2749	3034.8797	3044.8144	3075.5705	3096.6706	3104.2603	3108.6927	3123.2298	3134.826	3207.4448	3797.9514	3830.8288
CC1CC1C(O)CCO	C[C@H]1C[C@H]1[C@@H](O)CCO	
InChI=1S/C7H14O2/c1-5-4-6(5)7(9)2-3-8/h5-9H,2-4H2,1H3	InChI=1S/C7H14O2/c1-5-4-6(5)7(9)2-3-8/h5-9H,2-4H2,1H3/t5-,6+,7-/m0/s1
