16
gdb 55492	4.87554	0.65779	0.60349	3.2272	76.06	-0.2448	0.009	0.2539	1765.6545	0.122525	-437.865225	-437.855662	-437.854717	-437.902176	32.947	
N	-0.3709110842	-0.4176085951	-1.1219036227	-0.523072
C	-0.5568236237	 0.1960813758	 0.071509127	 0.426934
O	-0.6791212222	 1.3949910394	 0.2120433437	-0.357971
C	-0.6115229837	-0.7353794993	 1.3061630653	-0.486505
C	-0.4595122501	-2.1582444265	 1.0492389266	 0.052056
C	-0.3344212868	-3.3268839172	 0.7802592568	 0.136244
C	-0.1546091165	-4.7141395061	 0.4469060086	-0.115997
C	-1.2534669377	-5.5267016515	-0.1119414286	-0.159537
O	-0.2059649377	-5.0550308554	-0.9505872454	-0.218032
H	-0.3234288695	 0.1520224562	-1.9500498551	 0.263753
H	-0.2682221156	-1.4161585348	-1.1924512879	 0.276806
H	 0.1669715714	-0.3782945047	 1.9897198448	 0.166721
H	-1.5662589484	-0.5256911093	 1.8017186879	 0.165437
H	 0.6289604166	-5.2340954536	 0.9965901663	 0.122207
H	-1.264047117	-6.6000010262	 0.072677591	 0.124177
H	-2.2252945648	-5.0620190317	-0.2655592482	 0.126779
25.2435	35.655	59.1062	133.1616	201.1618	292.0416	304.82	381.966	400.7841	507.0047	527.6218	539.8748	592.3644	679.5759	750.7319	833.3062	839.98	909.7802	947.5939	999.62	1085.8502	1100.5355	1149.4886	1159.7029	1184.7342	1214.5742	1276.9679	1300.4535	1349.6399	1407.2959	1446.0503	1518.5615	1610.0659	1811.1504	2360.6962	3047.0042	3080.6415	3088.2278	3118.6111	3182.4547	3596.1849	3732.0815
NC(=O)CC#CC1CO1	NC(=O)CC#C[C@H]1CO1	
InChI=1S/C6H7NO2/c7-6(8)3-1-2-5-4-9-5/h5H,3-4H2,(H2,7,8)	InChI=1S/C6H7NO2/c7-6(8)3-1-2-5-4-9-5/h5H,3-4H2,(H2,7,8)/t5-/m0/s1
