18
gdb 5575	3.22933	1.81347	1.18081	1.4613	76.45	-0.1638	0.0524	0.2162	1026.4731	0.154791	-344.013976	-344.00544	-344.004496	-344.047069	31.34	
C	-0.094892098	 1.4550128829	-0.0399661736	-0.317098
N	-0.1298659735	 0.003542469	-0.0303582723	-0.389651
C	 0.5889601335	-0.6644610368	-1.0427798067	 0.226363
C	 0.705062835	-2.0397795549	-1.151680701	 0.221366
C	 0.166037788	-3.1231264617	-0.2801670567	-0.516748
N	 1.4576913422	-2.287804169	-2.2828370367	-0.290363
C	 1.797865193	-1.114734972	-2.8967980401	-0.094278
C	 1.278525181	-0.0817164727	-2.1486980022	-0.229819
H	 0.9202361301	 1.8843056102	 0.0136306066	 0.101701
H	-0.5653918286	 1.8292795515	-0.9554145195	 0.128969
H	-0.6722970159	 1.8321138004	 0.8086667676	 0.113003
H	 0.087057819	-0.3613419326	 0.887269837	 0.225428
H	-0.7021798003	-2.7505470333	 0.2725218735	 0.13696
H	-0.1692642485	-3.9868791843	-0.8670601479	 0.117663
H	 0.8907088779	-3.4960106574	 0.4579612393	 0.119126
H	 1.6957060554	-3.2052607697	-2.6154464615	 0.252342
H	 2.3755383909	-1.1062801396	-3.8067620754	 0.109505
H	 1.3798701889	 0.9687020299	-2.3697403105	 0.085531
56.0124	125.2788	192.8685	207.2503	229.9696	290.8481	315.1115	418.5493	477.9934	576.6276	628.9453	639.2399	675.1161	706.2391	767.6826	798.6801	915.9522	974.0202	1056.7899	1059.8847	1107.4683	1114.3464	1152.5133	1156.7415	1210.2077	1277.2543	1335.5039	1410.4049	1433.9004	1456.1069	1472.439	1483.9256	1487.3315	1496.0067	1503.5158	1521.62	1532.2349	1640.0467	2956.0205	2996.4788	3050.3415	3060.8274	3098.4398	3107.7058	3253.1049	3272.6518	3560.4718	3684.7967
CNC1=C(C)NC=C1	CNc1c(C)[nH]cc1	
InChI=1S/C6H10N2/c1-5-6(7-2)3-4-8-5/h3-4,7-8H,1-2H3	InChI=1S/C6H10N2/c1-5-6(7-2)3-4-8-5/h3-4,7-8H,1-2H3
