18
gdb 112657	2.33174	1.48145	1.29749	1.8895	69.23	-0.2609	0.0177	0.2786	1079.3723	0.14725	-476.238261	-476.229393	-476.228449	-476.272222	32.529	
C	 0.4122510669	 1.4488162212	-0.2859161591	-0.403519
C	 0.0443580525	-0.0003641182	 0.0147783238	 0.03921
O	 0.3498047057	-0.8663222079	-1.0790335774	-0.277393
C	 1.3387366859	-1.7906166633	-0.7033951118	 0.206415
C	 2.6699239095	-1.5424219066	-1.4148835086	-0.099287
O	 3.2633320885	-0.319985085	-1.0331420314	-0.408273
O	 1.5349995549	-1.6582430975	 0.7088592339	-0.259328
C	 0.8234752101	-0.588204797	 1.172733978	 0.370208
N	 0.8161147618	-0.163889714	 2.3583030564	-0.534655
H	 1.4697045045	 1.5144344897	-0.5515479821	 0.141787
H	-0.1862030004	 1.8204889506	-1.121761334	 0.12391
H	 0.2158710057	 2.0645887539	 0.5956490327	 0.140112
H	-1.0286858916	-0.0806419706	 0.2277310443	 0.114205
H	 0.9830183393	-2.8110718518	-0.9051663011	 0.094646
H	 3.3344230582	-2.3996865989	-1.2279097116	 0.099873
H	 2.4775180768	-1.4876228401	-2.4902770477	 0.130329
H	 3.5016134527	-0.3968807575	-0.1027946191	 0.295589
H	 1.4204437391	-0.7257100971	 2.9589233548	 0.226172
65.75	84.7735	137.8675	241.8937	249.0963	254.8835	314.6777	389.7001	401.6522	469.6753	625.8194	632.7792	691.2183	790.1023	826.3521	858.692	883.5933	893.4049	942.3736	1024.2303	1035.5756	1086.5233	1094.7205	1106.6091	1128.3888	1186.5209	1215.3343	1285.2934	1337.2821	1363.9531	1371.1539	1383.9128	1398.8964	1411.5246	1419.831	1483.0171	1486.8232	1505.5579	1792.3098	2992.947	3013.8293	3034.0344	3051.783	3098.7502	3130.5167	3144.4813	3484.0565	3813.1759
CC1OC(CO)OC1=N	C[C@H]1O[C@@H](CO)O[C]1[NH]	
InChI=1S/C5H9NO3/c1-3-5(6)9-4(2-7)8-3/h3-4,6-7H,2H2,1H3	InChI=1S/C5H9NO3/c1-3-5(6)9-4(2-7)8-3/h3-4,6-7H,2H2,1H3/t3-,4-/m1/s1
