15
gdb 8022	3.40415	2.13917	1.59512	3.5145	62.67	-0.2595	0.0036	0.2631	819.7325	0.118617	-399.771385	-399.764411	-399.763467	-399.802424	26.34	
C	-0.1752027647	 1.5866994569	 0.0231925162	-0.485822
C	 0.0640814793	 0.1078909864	 0.0914983446	 0.385113
C	-1.075814213	-0.9192037857	 0.1950754245	-0.121522
O	-0.3562372644	-1.6737544374	 1.2024276612	-0.285038
C	 0.7390909579	-0.7345819407	 1.2028890255	-0.07088
C	 1.7658664217	-1.0550874473	 0.1328234343	 0.436816
N	 2.8361052814	-1.7023978248	 0.0889891148	-0.54663
O	 1.0896648382	-0.3497772547	-0.8555452783	-0.299224
H	 0.7609193486	 2.1374991501	 0.148737465	 0.139496
H	-0.6022685572	 1.8584262067	-0.9481175564	 0.141241
H	-0.874785761	 1.898806024	 0.8039461903	 0.133914
H	-2.015971677	-0.52355342	 0.5975897675	 0.111328
H	-1.2672827811	-1.495397557	-0.7156859787	 0.122
H	 1.0567025187	-0.4255633566	 2.1985305797	 0.107918
H	 3.2352738526	-1.70675197	-0.8518182902	 0.231291
121.6543	204.5341	225.0169	284.3556	318.2463	402.3099	451.7888	619.8692	645.6796	740.6072	825.755	840.7949	874.9969	914.3663	969.3856	976.424	992.6232	1015.2535	1026.5839	1131.681	1154.4224	1173.6462	1209.1641	1270.7233	1286.6571	1301.7233	1376.7786	1419.6677	1482.4567	1490.7158	1504.1479	1827.2266	3027.828	3041.5055	3089.2424	3110.3057	3123.9364	3124.6437	3470.1984
CC12COC1C(=N)O2	C[C@]12CO[C@H]1[C]([NH])O2	
InChI=1S/C5H7NO2/c1-5-2-7-3(5)4(6)8-5/h3,6H,2H2,1H3	InChI=1S/C5H7NO2/c1-5-2-7-3(5)4(6)8-5/h3,6H,2H2,1H3/t3-,5-/m0/s1
