18
gdb 67525	2.43896	1.77179	1.47609	1.2086	74.99	-0.23	-0.0295	0.2005	975.6905	0.146969	-401.896055	-401.888209	-401.887264	-401.928116	30.766	
C	-0.0459193765	 1.531940615	-0.0317581395	-0.501195
C	 0.0186482829	 0.0228128927	 0.0180936907	 0.216451
C	-1.1729290799	-0.7056026956	 0.6884365846	-0.064202
C	-1.093096818	-2.1761578365	 0.6638164326	-0.263896
N	-0.2768779945	-1.4526635232	 1.6594820809	-0.141912
C	 0.9225744261	-0.8240887171	 0.9644661159	-0.035445
C	 1.5858487568	-1.5354021402	-0.2445845013	-0.375821
C	 0.6376676071	-0.7408557532	-1.1770763631	 0.346559
O	 0.4833160453	-0.6949487519	-2.3622352367	-0.298859
H	 0.9238768204	 1.9654393948	-0.2954986474	 0.124833
H	-0.7712372555	 1.8567608279	-0.7856799651	 0.139336
H	-0.3526680492	 1.9434933919	 0.9355737529	 0.1287
H	-2.0573504101	-0.1735311302	 1.0279053167	 0.100943
H	-1.9082670334	-2.7199873778	 1.1321312553	 0.128366
H	-0.6316739033	-2.7073649438	-0.1621896086	 0.127932
H	 1.5861893123	-0.3712850248	 1.6990952526	 0.092037
H	 2.6226973493	-1.2088549558	-0.3842311125	 0.138203
H	 1.5628743501	-2.6261714223	-0.3082776179	 0.137968
102.986	187.5632	197.7074	253.6205	272.1894	344.5555	461.5428	476.5316	539.1649	610.2127	663.7811	735.0247	737.8634	754.0372	873.0667	878.1936	904.0573	974.919	982.699	1016.2936	1027.0895	1050.5196	1105.5627	1111.6303	1123.7073	1146.6366	1176.3347	1195.6772	1217.0653	1228.9215	1269.3967	1305.499	1367.8992	1408.842	1427.2329	1489.6248	1490.3604	1516.4287	1885.7395	3030.7845	3051.5212	3100.0502	3104.0203	3109.2567	3125.4507	3127.9024	3146.4365	3206.252
CC12C3CN3C1CC2=O	C[C@]12[C@H]3CN3[C@H]1CC2=O	
InChI=1S/C7H9NO/c1-7-4(2-6(7)9)8-3-5(7)8/h4-5H,2-3H2,1H3	InChI=1S/C7H9NO/c1-7-4(2-6(7)9)8-3-5(7)8/h4-5H,2-3H2,1H3/t4-,5+,7+,8?/m0/s1
