18
gdb 12692	2.90623	1.97886	1.38387	1.5957	67.39	-0.241	-0.0247	0.2163	945.0359	0.152972	-384.972473	-384.964187	-384.963243	-385.005235	30.298	
C	-0.2731862817	 1.5740296232	 0.0731648654	-0.407031
C	 0.1242981891	 0.1057888991	-0.0288883305	-0.101978
C	 1.1304255658	-0.2842853227	-1.1172744086	-0.106532
O	 1.7413210889	-1.4949424091	-0.66492781	-0.265806
C	 1.8783744178	-1.4415407326	 0.7510885667	 0.024057
C	 3.2868716236	-1.0454591141	 1.2015671451	-0.397859
C	 0.82786958	-0.4276480047	 1.2217814868	 0.369338
O	 0.6268013386	-0.0957188795	 2.3609861204	-0.320388
H	 0.6118520316	 2.2172023894	 0.1188517262	 0.12187
H	-0.8754462791	 1.8858158577	-0.7849162212	 0.11894
H	-0.8527981409	 1.7408255209	 0.984911255	 0.142828
H	-0.7733540437	-0.5184501022	-0.1504117532	 0.113971
H	 0.6778458837	-0.4900829371	-2.0899023335	 0.116549
H	 1.8809189936	 0.5122702759	-1.2499021289	 0.094905
H	 1.6306091207	-2.4330269327	 1.150179325	 0.110079
H	 3.5709443844	-0.068177663	 0.7988626526	 0.119746
H	 3.3209913346	-0.9899254982	 2.293216554	 0.138815
H	 4.0136903931	-1.7845539404	 0.855889599	 0.128495
64.5738	162.9635	187.7091	213.8734	219.9777	256.7998	344.3242	422.8862	496.44	555.9532	646.7972	660.101	776.6057	866.8344	902.2653	944.6912	970.9689	1002.959	1056.3282	1093.6175	1112.461	1134.5182	1159.9201	1173.3131	1234.5341	1288.1843	1308.8129	1313.8043	1350.1472	1390.118	1398.2003	1412.1022	1486.6863	1494.039	1496.2253	1497.9781	1520.6741	1850.4292	2970.9317	3007.8315	3033.1982	3041.1327	3044.2243	3099.0215	3109.0749	3118.4663	3123.3542	3130.9508
CC1COC(C)C1=O	C[C@H]1CO[C@@H](C)C1=O	
InChI=1S/C6H10O2/c1-4-3-8-5(2)6(4)7/h4-5H,3H2,1-2H3	InChI=1S/C6H10O2/c1-4-3-8-5(2)6(4)7/h4-5H,3H2,1-2H3/t4-,5-/m0/s1
