14
gdb 35588	3.50275	1.10076	0.95053	3.1102	75.9	-0.2511	-0.0438	0.2073	1202.5218	0.101596	-395.714184	-395.70617	-395.705226	-395.747193	29.264	
C	 0.1309642971	-1.1137339601	-0.138115289	-0.363336
C	-0.0014212288	 0.0780871869	-0.0601734099	 0.25867
C	-0.1012908915	 1.4971124422	 0.0244161845	 0.236553
N	-1.1916172311	 2.1605841403	-0.0791984541	-0.28991
C	-0.8421447158	 3.5710641302	 0.0890426779	-0.186222
C	 0.7261801297	 3.6379404839	 0.0267377645	-0.150754
N	 1.063325569	 2.2347770916	 0.2905386318	-0.347909
C	 1.2312239492	 4.0980469664	-1.2765081707	 0.268857
N	 1.642159746	 4.4535918356	-2.2967283615	-0.312415
H	 0.2256905945	-2.1699841301	-0.2075626356	 0.212824
H	-1.3160117	 4.1884939343	-0.6768674104	 0.142593
H	-1.1907675613	 3.9207047638	 1.0679192881	 0.132363
H	 1.1349915166	 4.2939550861	 0.7999636392	 0.137165
H	 1.9371748864	 1.8793778991	-0.0724047548	 0.261523
67.7632	137.8116	163.2656	198.4533	260.8262	383.0356	460.5234	507.387	550.6476	599.3011	618.9382	659.099	674.5583	720.6772	802.2964	813.245	941.3126	994.1972	1022.6004	1038.7758	1083.7767	1214.0916	1228.0696	1250.6155	1330.7433	1360.6341	1428.7485	1487.7228	1676.1945	2247.7254	2352.1827	3040.1877	3074.3287	3108.3088	3497.6913	3599.5811
C#CC1=NCC(N1)C#N	C#C[C]1[N]C[C@@H](N1)C#N	
InChI=1S/C6H5N3/c1-2-6-8-4-5(3-7)9-6/h1,5H,4H2,(H,8,9)	InChI=1S/C6H5N3/c1-2-6-8-4-5(3-7)9-6/h1,5H,4H2,(H,8,9)/t5-/m0/s1
