13
gdb 128740	2.81771	1.60652	1.02982	2.0856	67.45	-0.2689	-0.0908	0.1781	1066.0854	0.087543	-485.958089	-485.95026	-485.949316	-485.991047	27.971	
C	 0.0371029891	 1.3961077044	 0.0270891995	-0.245072
O	 0.0869943722	-0.0392802196	 0.0083784645	-0.221008
C	 0.6038024221	-0.6103836042	-1.0684912907	 0.44877
N	 1.0372080797	 0.1120916197	-2.0458110424	-0.176288
O	 1.5648275211	-0.560045093	-3.1398428616	-0.237985
N	 1.6309411741	-1.9648688704	-3.1954318243	 0.076034
N	 1.2129476054	-2.6426190351	-2.2540539628	-0.180376
C	 0.6493555636	-2.0710328097	-1.0764006618	 0.302724
N	 0.2257254317	-2.7898315589	-0.1204590579	-0.464303
H	 1.0433446985	 1.8159686159	-0.0517333977	 0.151526
H	-0.5701790059	 1.7696620707	-0.8015745753	 0.151527
H	-0.4149508822	 1.652879707	 0.9839728605	 0.149643
H	 0.3641629206	-3.7767158068	-0.3575228601	 0.244809
58.7339	135.8865	182.5601	213.8295	310.3249	351.308	414.5326	504.6554	547.2768	559.025	612.0445	651.4204	754.7881	798.8199	927.9666	948.0907	987.1499	1034.9415	1084.5523	1175.2025	1215.7721	1300.5558	1423.5836	1480.6941	1491.3684	1501.1734	1609.9739	1626.4205	1732.0287	3051.1282	3126.6427	3170.6722	3443.8029
COC1=NON=NC1=N	COC1=NO[N]N=C1[NH]	
InChI=1S/C3H4N4O2/c1-8-3-2(4)5-7-9-6-3/h4H,1H3	InChI=1S/C3H4N4O2/c1-8-3-2(4)5-7-9-6-3/h4H,1H3
