18
gdb 18131	4.11794	1.86322	1.42691	0.1434	65.86	-0.2463	0.0674	0.3137	877.5497	0.15757	-384.944126	-384.93751	-384.936566	-384.975606	25.319	
C	 0.0269918307	 1.5605258794	-0.0578541854	-0.103202
O	 1.4008543925	 1.9203132758	-0.0769104349	-0.240277
C	 2.0588561346	 1.0393148738	 0.8220558495	-0.103203
C	 1.3834911013	-0.3355942579	 0.6442072293	-0.033744
C	 1.028189217	-1.1244812729	 1.9207594715	-0.10321
O	-0.2869779095	-1.6227357754	 1.7222964719	-0.240263
C	-1.0037163887	-0.6029881761	 1.0413654845	-0.103212
C	-0.0106226795	 0.0220196488	 0.0407224636	-0.033744
H	-0.4788312155	 2.0136639443	 0.8121240189	 0.08606
H	-0.4323148932	 1.9597881615	-0.9655261987	 0.110871
H	 3.1231815433	 1.0478546532	 0.5743029553	 0.110872
H	 1.9443481433	 1.3919369314	 1.8615774618	 0.086052
H	 1.9551300339	-0.9583763768	-0.0460584814	 0.086572
H	 1.6809284806	-1.9798991722	 2.1116117851	 0.110873
H	 1.0612074678	-0.4623596216	 2.8031212844	 0.08606
H	-1.875005051	-1.0672428425	 0.5727952394	 0.110874
H	-1.3615034685	 0.1595673762	 1.7545006151	 0.086052
H	-0.1294730092	-0.4238864689	-0.9482860698	 0.086572
44.9193	206.4945	230.9934	367.7658	391.0058	568.5635	608.4167	624.7336	722.1423	817.9889	933.4491	943.2668	953.3907	960.9755	973.8739	1041.2084	1044.2804	1050.9162	1092.7874	1111.5655	1115.144	1153.4044	1214.4089	1241.3187	1244.6725	1276.8592	1302.9515	1305.4338	1313.7379	1330.448	1359.4408	1379.7152	1382.7074	1415.0757	1504.6963	1513.6899	1514.207	1525.8566	2950.0198	2954.4337	2957.9437	2967.8626	3074.9243	3084.1043	3091.5108	3093.8062	3098.9665	3109.3097
C1OCC2COCC12	C1OC[C@H]2COC[C@@H]12	
InChI=1S/C6H10O2/c1-5-2-8-4-6(5)3-7-1/h5-6H,1-4H2	InChI=1S/C6H10O2/c1-5-2-8-4-6(5)3-7-1/h5-6H,1-4H2/t5-,6+
