21
gdb 104058	2.85467	1.27406	1.16388	2.1872	77.65	-0.2414	0.0635	0.3049	1182.3951	0.181612	-424.192503	-424.18348	-424.182535	-424.22617	34.563	
C	 0.1408386889	 1.4249037543	 0.2632904169	-0.406629
C	 0.0546466464	-0.0823625629	 0.0016071547	-0.216299
C	 0.706854734	-0.508821558	-1.3082308419	 0.383514
O	 0.0406798377	 0.0262066238	-2.44448891	-0.48673
C	 2.2702593198	-0.3845711869	-1.4372412739	-0.304351
C	 2.3640392562	-1.8863782197	-1.8221419251	-0.078688
C	 2.4991857939	-2.8364293382	-0.6228156461	-0.078879
O	 1.0703338787	-2.8120638996	-0.3832168753	-0.292118
C	 0.8377080595	-2.0326103071	-1.5727302634	 0.089449
H	 1.1802013543	 1.7700454452	 0.3034830068	 0.116818
H	-0.3753763825	 1.999618659	-0.514447096	 0.107357
H	-0.3294264115	 1.6837211417	 1.2162349539	 0.120632
H	 0.5240287481	-0.6385474569	 0.8187328915	 0.109874
H	-0.9966935925	-0.3935501508	-0.027971369	 0.102851
H	 0.1869310365	 0.9780784877	-2.4558300426	 0.278373
H	 2.5662883151	 0.2991431184	-2.2360408538	 0.099584
H	 2.8058217681	-0.1151620855	-0.5220633709	 0.095572
H	 2.8699512049	-2.1485275289	-2.7491648793	 0.079443
H	 2.8365732411	-3.8496808277	-0.8761115149	 0.102228
H	 3.0742984885	-2.4717289104	 0.2379255174	 0.098603
H	 0.1013227048	-2.4757093578	-2.2476917889	 0.079398
77.2577	99.4598	171.0359	218.9775	269.7916	272.8963	308.5747	356.964	409.8653	435.5994	508.5946	634.3191	759.0576	781.1245	791.7522	843.699	895.5613	909.1766	933.0151	989.984	995.6848	1004.9069	1019.5742	1021.6625	1056.1266	1105.3735	1138.4581	1155.4724	1178.3372	1197.8895	1216.2427	1233.0099	1264.9293	1277.6153	1299.2075	1314.7261	1346.1175	1357.6395	1390.0625	1411.1711	1464.032	1479.2623	1501.5639	1510.5848	1520.4879	3006.5059	3027.4344	3037.8928	3049.8961	3053.3748	3077.6221	3083.3879	3099.6394	3106.138	3111.7512	3131.4244	3806.7581
CCC1(O)CC2COC12	CC[C@@]1(O)C[C@H]2CO[C@@H]12	
InChI=1S/C7H12O2/c1-2-7(8)3-5-4-9-6(5)7/h5-6,8H,2-4H2,1H3	InChI=1S/C7H12O2/c1-2-7(8)3-5-4-9-6(5)7/h5-6,8H,2-4H2,1H3/t5-,6+,7+/m0/s1
