22
gdb 26098	3.04364	1.17476	1.04231	1.8448	88.19	-0.2	0.0507	0.2507	1273.9297	0.194213	-367.2608	-367.251305	-367.250361	-367.294738	37.121	
C	-0.027542311	 1.5410332803	 0.0233871897	-0.395101
C	-0.0093990084	-0.0036094405	 0.0091231504	 0.148159
C	 0.7374410356	-0.5112992887	 1.2624832535	-0.395112
C	-1.4588582785	-0.5188513353	 0.0505728623	-0.410233
C	 0.7020909273	-0.4917008207	-1.2385962825	 0.301742
C	 0.188907434	-1.2876720102	-2.2408912021	-0.206396
N	 1.1703002974	-1.4892574387	-3.1805142398	-0.24866
C	 2.3129622343	-0.8349424427	-2.8015936639	-0.072568
C	 2.0562810101	-0.2091991632	-1.606159095	-0.257029
H	 0.9872078924	 1.9500870773	 0.0020229473	 0.109408
H	-0.5626243137	 1.933050741	-0.8473045563	 0.110544
H	-0.5223165519	 1.915975383	 0.9268555047	 0.100434
H	 0.2495597679	-0.1548316548	 2.1771084401	 0.100436
H	 0.7562913337	-1.6053903808	 1.2890486264	 0.110546
H	 1.7738673766	-0.1603991136	 1.2762414334	 0.109409
H	-2.0315003459	-0.167143504	-0.8140398147	 0.108701
H	-1.4924304063	-1.6133705753	 0.0591068416	 0.108702
H	-1.9651138945	-0.1622746083	 0.9537299331	 0.103119
H	-0.7873510728	-1.7261331569	-2.3648775754	 0.113235
H	 1.0639413919	-2.0341974079	-4.0173602068	 0.257755
H	 3.2031813557	-0.8698549458	-3.4089830053	 0.114815
H	 2.7619753161	 0.3892746558	-1.0499922709	 0.088096
46.1114	149.7661	204.8173	224.4308	271.5799	292.63	327.2026	335.1976	338.0485	433.1955	456.7371	464.1749	579.4952	638.7146	683.2388	697.2035	777.908	822.9048	830.2616	904.8744	926.3508	935.6545	952.8744	956.9576	1040.0856	1049.1893	1082.2246	1096.8754	1164.9891	1194.2712	1221.5015	1228.2284	1283.1338	1327.4823	1391.4524	1394.6373	1400.4159	1426.3501	1467.798	1476.9694	1483.3904	1487.3638	1500.7732	1501.9839	1515.2031	1525.4745	1602.5253	3023.1148	3024.0656	3031.7273	3090.935	3092.7419	3097.2144	3100.0122	3104.5979	3107.3449	3239.3739	3266.0198	3269.8129	3689.9332
CC(C)(C)C1=CNC=C1	CC(C)(C)c1c[nH]cc1	
InChI=1S/C8H13N/c1-8(2,3)7-4-5-9-6-7/h4-6,9H,1-3H3	InChI=1S/C8H13N/c1-8(2,3)7-4-5-9-6-7/h4-6,9H,1-3H3
