15
gdb 12753	3.27325	1.83582	1.50393	5.99	65.54	-0.2215	0.0189	0.2404	866.3341	0.119881	-358.793862	-358.786439	-358.785495	-358.825413	28.034	
N	 0.2323304232	 1.4470254754	-0.1400912473	-0.604586
C	 0.017635468	 0.0527386295	-0.0447101924	 0.307391
C	-0.2755862965	-0.8494799311	-1.212985816	-0.303502
C	-1.1702436911	-0.9235436771	-0.0103181186	-0.071848
N	-0.5092629933	-1.7920991449	 0.9883782717	-0.317146
C	 0.6096043676	-0.7923644534	 1.1074209777	-0.16771
C	 1.9548541078	-1.3426721576	 0.9355859152	 0.306204
N	 3.0212212517	-1.7601451282	 0.7789626518	-0.330402
H	 0.192481327	 1.7903438736	-1.0900017838	 0.242083
H	-0.3892708263	 1.9957431072	 0.4417892174	 0.237075
H	-0.6992391925	-0.3276596904	-2.0664351394	 0.113562
H	 0.3721740067	-1.6869724845	-1.4588568909	 0.138434
H	-2.2432762081	-0.7786694413	-0.0343620256	 0.10252
H	-1.0317568162	-1.8202775024	 1.8582934699	 0.229719
H	 0.5720102819	-0.2316685748	 2.0471224802	 0.118205
118.6701	137.7855	190.2927	289.1127	349.2482	374.1614	446.5941	535.5526	563.3208	646.3344	706.2879	746.5667	818.2573	841.9979	900.0939	931.1842	960.6192	1004.4542	1023.6472	1063.1175	1071.7817	1103.5705	1166.7911	1181.6492	1264.1583	1302.1693	1350.8958	1376.9931	1415.1584	1490.9242	1655.6451	2355.2493	3058.0011	3112.4925	3191.8991	3204.8689	3520.126	3529.1682	3622.7241
NC12CC1NC2C#N	N[C@]12C[C@H]1N[C@H]2C#N	
InChI=1S/C5H7N3/c6-2-4-5(7)1-3(5)8-4/h3-4,8H,1,7H2	InChI=1S/C5H7N3/c6-2-4-5(7)1-3(5)8-4/h3-4,8H,1,7H2/t3-,4+,5-/m1/s1
