19
gdb 35895	3.11353	1.33586	1.04319	2.0546	80.67	-0.2569	0.0532	0.31	1168.8679	0.160182	-385.856079	-385.847993	-385.847049	-385.888644	31.755	
C	 0.0016932851	-1.2118220262	-0.1287108224	-0.441735
C	 0.0053799958	-0.0125368826	-0.0494781029	 0.307603
C	 0.0132539399	 1.4449502797	 0.0574144736	-0.199375
C	-0.7684754209	 1.9435883993	 1.2947407661	-0.206258
C	-0.6878905413	 3.4701191578	 1.4010284498	-0.217293
C	 0.7517369505	 3.9667222737	 1.6217263688	-0.221564
C	 1.7814875105	 3.2099494577	 0.8010546684	 0.036741
O	 2.1461127316	 1.9087887559	 1.2909796728	-0.248378
C	 1.4406925451	 1.9853521154	 0.0567027875	 0.057502
H	 0.0006725616	-2.2712522719	-0.1992742602	 0.193537
H	-0.4740016108	 1.8548171069	-0.8406945022	 0.105137
H	-1.8084137273	 1.6151243912	 1.2112085328	 0.105651
H	-0.3479634932	 1.4730190526	 2.1886946706	 0.125436
H	-1.0858305547	 3.9093496855	 0.4763609243	 0.097182
H	-1.3302238818	 3.8264587657	 2.2128708099	 0.098384
H	 0.8198396877	 5.0342660987	 1.3852723034	 0.100427
H	 1.0317010408	 3.8635349741	 2.6771652391	 0.119399
H	 2.6363506205	 3.7910413437	 0.4535842395	 0.091944
H	 2.0310981609	 1.7137485628	-0.8189728889	 0.095659
86.5384	136.4482	186.0664	272.3782	330.8561	356.131	434.6294	444.4195	516.1736	617.5213	629.3116	638.8437	644.2767	776.0083	786.9601	867.6395	879.4801	888.8822	941.6002	981.4086	1040.2946	1046.4059	1062.637	1081.2251	1144.3451	1162.3485	1182.6602	1224.7314	1282.9043	1290.6939	1311.9353	1336.243	1349.5909	1372.6805	1382.7776	1398.2492	1462.6239	1481.348	1487.0949	1497.0953	2236.8362	2990.2324	3017.6375	3032.8758	3055.536	3069.037	3078.627	3098.0958	3102.8757	3111.0678	3505.302
C#CC1CCCC2OC12	C#C[C@H]1CCC[C@H]2O[C@@H]12	
InChI=1S/C8H10O/c1-2-6-4-3-5-7-8(6)9-7/h1,6-8H,3-5H2	InChI=1S/C8H10O/c1-2-6-4-3-5-7-8(6)9-7/h1,6-8H,3-5H2/t6-,7+,8-/m0/s1
