21
gdb 75895	2.26132	1.52294	1.15457	3.2579	77.83	-0.2367	-0.0136	0.2231	1153.3614	0.180599	-424.270536	-424.260915	-424.259971	-424.304478	36.823	
C	-0.6927872885	 1.3032677755	 0.0165666536	-0.423691
C	 0.0725029698	-0.0144069461	 0.0075447068	-0.091777
C	 1.1182708578	-0.1312106279	-1.1017567693	 0.398451
O	 1.0805735642	 0.4338202802	-2.1648759404	-0.324246
C	 2.2335656456	-1.0730073883	-0.6287370861	-0.328983
C	 1.7774580983	-1.5544170646	 0.7575620465	-0.271677
C	 0.823944263	-0.447034638	 1.2862365182	 0.35917
C	 1.6032201185	 0.6969500011	 1.9453377757	-0.437393
O	-0.1464663595	-0.9626699597	 2.1924890752	-0.478826
H	-0.0271800093	 2.1559416946	 0.1792099733	 0.119401
H	-1.1814318412	 1.4534849847	-0.9492797046	 0.133821
H	-1.4539698377	 1.3017417435	 0.8012794027	 0.125405
H	-0.6385079548	-0.8344271934	-0.1847199623	 0.114417
H	 2.3953989696	-1.873668218	-1.3555254588	 0.132092
H	 3.1653829804	-0.4967935472	-0.5890866274	 0.132848
H	 1.1939168675	-2.47654937	 0.6730493456	 0.111715
H	 2.6078569301	-1.7490465491	 1.4432593718	 0.092395
H	 2.317465135	 1.1587351723	 1.2553502765	 0.12277
H	 0.923667916	 1.4732558236	 2.3047181425	 0.132564
H	 2.1745515133	 0.3189656273	 2.8017267507	 0.106875
H	 0.296667482	-1.1626038703	 3.0241551796	 0.274669
66.266	148.7109	182.5117	210.0342	238.9682	273.7329	281.6458	315.3886	360.9201	394.7499	460.891	515.0334	541.7363	575.4078	622.0889	707.5279	757.1657	826.0526	918.1006	929.2431	967.5036	997.6547	1014.7292	1041.9713	1045.5162	1108.147	1139.275	1158.5949	1210.7459	1215.7501	1220.3949	1266.7183	1300.834	1320.8744	1348.7484	1387.3912	1404.2606	1411.0646	1451.4312	1486.0393	1488.6174	1496.3215	1498.7404	1509.0968	1842.3888	2987.0953	3027.2785	3046.6625	3047.8675	3050.6345	3088.1102	3091.1214	3103.7217	3116.5575	3124.7769	3127.6205	3803.3557
CC1C(=O)CCC1(C)O	C[C@H]1C(=O)CC[C@]1(C)O	
InChI=1S/C7H12O2/c1-5-6(8)3-4-7(5,2)9/h5,9H,3-4H2,1-2H3	InChI=1S/C7H12O2/c1-5-6(8)3-4-7(5,2)9/h5,9H,3-4H2,1-2H3/t5-,7-/m0/s1
