15
gdb 105613	2.3807	1.34283	1.22214	2.2943	63.6	-0.2653	-0.0747	0.1906	1080.6496	0.109131	-494.887499	-494.87861	-494.877666	-494.921722	31.122	
O	 0.1630824386	 1.3723746151	-0.333868787	-0.417646
C	 0.0165070835	-0.0205882036	-0.2160170761	-0.098222
C	-1.4396857711	-0.4776280653	-0.0212123671	 0.144238
O	-2.2529923102	-0.5438773494	-1.2167053137	-0.314877
C	-2.452820641	-1.9719091069	-1.1463948918	-0.190303
C	-1.5956739698	-2.0210783882	 0.1168763676	 0.298161
O	-1.1744323415	-2.8502980864	 0.8575835952	-0.253452
C	-2.155928179	 0.3171506608	 1.0567614255	 0.1371
O	-1.5868087684	 0.9232316148	 1.9295304827	-0.256827
H	-0.0250835024	 1.7465633236	 0.5351052872	 0.30249
H	 0.3925828117	-0.4622444524	-1.1431846867	 0.125189
H	 0.5964982484	-0.4339977809	 0.6221232038	 0.122973
H	-3.5042818144	-2.2511253409	-1.0016034826	 0.14442
H	-2.0493817307	-2.5082849233	-2.0139371558	 0.14778
H	-3.2618618436	 0.3042923331	 0.9642269989	 0.108975
78.9654	87.7484	124.7041	144.4601	218.207	251.9333	323.3332	387.0528	489.0822	493.1982	519.908	566.4641	692.0998	783.8802	863.4658	915.4972	951.6434	1009.8981	1023.9744	1092.5913	1102.2968	1105.7111	1135.1478	1171.1468	1259.9176	1300.6987	1380.6471	1400.938	1430.8479	1476.865	1478.9657	1803.672	1924.6741	2923.104	3004.9605	3022.1165	3071.4922	3095.8664	3795.7528
OCC1(OCC1=O)C=O	OC[C@]1(OCC1=O)C=O	
InChI=1S/C5H6O4/c6-2-5(3-7)4(8)1-9-5/h2,7H,1,3H2	InChI=1S/C5H6O4/c6-2-5(3-7)4(8)1-9-5/h2,7H,1,3H2/t5-/m1/s1
