19
gdb 99201	3.827	0.62565	0.59376	3.646	82.9	-0.2374	0.0438	0.2812	1957.2065	0.157381	-419.220229	-419.208919	-419.207975	-419.260013	37.353	
C	-0.5965736401	 1.0906658775	-0.1705094723	-0.322423
N	 0.1486695133	-0.1456183473	-0.0192237121	-0.355525
C	 0.7097615075	-0.7532109988	-1.1226802066	 0.495834
O	 0.4710097335	-0.4110274602	-2.2682462944	-0.401361
N	 1.5819806177	-1.7854813544	-0.8050527783	-0.360338
C	 2.0144274965	-2.6983991724	-1.8612100859	-0.29131
C	 1.3783801384	-4.0130492183	-1.7869564393	 0.073981
C	 0.8614489755	-5.0966807315	-1.6936868446	 0.033313
C	 0.2288474234	-6.4047060374	-1.6025341742	-0.495528
H	 0.0366533387	 1.9833411263	-0.0775507942	 0.118879
H	-1.0410739267	 1.0907384386	-1.1657236726	 0.16833
H	-1.3903223276	 1.1432700606	 0.5803569911	 0.119427
H	 0.5982953356	-0.2986525487	 0.8695391781	 0.235291
H	 1.4716490679	-2.2096295449	 0.1038591321	 0.234966
H	 1.7695820504	-2.1998743724	-2.8039294456	 0.173698
H	 3.1053691238	-2.8120710261	-1.8232494865	 0.126049
H	-0.0785767534	-6.7650362468	-2.5904037713	 0.151875
H	 0.9066430334	-7.1505571102	-1.172819149	 0.146157
H	-0.6668051877	-6.3680280635	-0.9725557643	 0.148684
16.3976	26.8961	54.4312	78.9601	124.2097	174.5106	186.3895	235.3562	303.5318	336.1921	373.4529	395.5219	463.452	508.0795	578.2161	708.3307	762.2328	779.5473	917.3811	1031.874	1048.9116	1054.8762	1063.2559	1150.284	1159.4348	1170.6409	1183.6949	1239.0044	1276.2865	1375.6698	1414.9474	1440.8617	1473.3654	1477.5998	1479.3	1488.9082	1497.529	1514.1834	1560.1477	1786.2908	2371.4012	3011.9404	3019.6921	3026.7886	3083.8356	3087.0964	3088.3767	3091.1494	3157.7794	3609.0313	3624.8897
CNC(=O)NCC#CC	CNC(=O)NCC#CC	
InChI=1S/C6H10N2O/c1-3-4-5-8-6(9)7-2/h5H2,1-2H3,(H2,7,8,9)	InChI=1S/C6H10N2O/c1-3-4-5-8-6(9)7-2/h5H2,1-2H3,(H2,7,8,9)
