21
gdb 57999	4.0401	0.64068	0.60704	3.4239	81.57	-0.2497	-0.0228	0.2269	1882.968	0.17833	-424.265468	-424.254471	-424.253527	-424.303291	37.798	
C	 0.2428400617	 1.5846873761	 0.1606110918	-0.388818
C	 0.0270232269	 0.0644507445	-0.0017016795	-0.064284
C	 0.5078950722	-0.4272319701	-1.3703472652	-0.385999
C	 0.7650457491	-0.6456698245	 1.1338152174	 0.391374
O	 1.9181911662	-0.9955155118	 1.030489785	-0.312578
C	-0.0313517702	-0.8855027687	 2.4155178503	-0.325542
C	 0.8501032005	-1.2337827557	 3.6195101154	-0.268928
C	 0.061372871	-1.8926090754	 4.7241231104	 0.158114
O	 0.0264819966	-1.5262963173	 5.8699389238	-0.238653
H	 1.304599222	 1.830497014	 0.0610915118	 0.137479
H	-0.3083146078	 2.127303031	-0.6129657893	 0.124948
H	-0.1007524713	 1.9486767556	 1.134188204	 0.119522
H	-1.0458285207	-0.1387495657	 0.1113437479	 0.08052
H	 1.5876600023	-0.2885821639	-1.4644846279	 0.140584
H	 0.2967112611	-1.4918774664	-1.5086219305	 0.11701
H	 0.0108008429	 0.1259428598	-2.1728366096	 0.111487
H	-0.6720131068	-0.01986213	 2.6195627006	 0.131043
H	-0.7252835184	-1.7115466394	 2.1922845925	 0.131801
H	 1.6214285104	-1.9367803189	 3.2769954456	 0.146562
H	 1.3579020776	-0.3517726768	 4.017367416	 0.127433
H	-0.5172315152	-2.7894519064	 4.3928773195	 0.066923
36.1463	53.723	67.6589	93.3233	156.8334	200.6413	229.3645	242.9816	275.8954	300.0771	344.3965	424.9767	518.8107	581.7776	642.7023	770.159	811.3237	854.4747	885.1054	933.9087	971.4279	1012.0478	1034.2468	1057.2983	1102.6533	1120.4265	1131.9795	1190.1993	1198.181	1253.931	1304.4413	1327.3567	1360.7522	1381.2401	1395.6944	1416.0062	1432.4782	1450.0534	1466.9567	1486.4523	1487.7942	1501.6205	1510.8093	1807.0477	1838.3664	2835.2431	2999.7628	3023.6795	3034.6309	3036.2389	3043.9331	3065.6695	3106.5897	3110.4905	3112.7298	3115.2911	3129.6252
CC(C)C(=O)CCC=O	CC(C)C(=O)CCC=O	
InChI=1S/C7H12O2/c1-6(2)7(9)4-3-5-8/h5-6H,3-4H2,1-2H3	InChI=1S/C7H12O2/c1-6(2)7(9)4-3-5-8/h5-6H,3-4H2,1-2H3
