17
gdb 112061	2.17227	1.55304	0.99459	2.7948	73.02	-0.2755	-0.0077	0.2678	1184.8793	0.13649	-418.033705	-418.025104	-418.02416	-418.067905	30.682	
C	 0.0261021602	 1.5892539197	 0.0168078028	-0.39324
C	 0.0949308395	 0.0611192222	 0.058115735	-0.178609
C	 0.6872995686	-0.528847552	-1.2246927007	-0.006336
N	 2.0921318632	-0.130427909	-1.4161626911	-0.250696
C	 2.7562737957	-1.1878537192	-1.5975597421	 0.123518
O	 2.125762791	-2.3959296507	-1.5956801135	-0.219194
C	 0.7415878151	-2.104375079	-1.2986682641	-0.063268
C	 0.358963841	-2.8076831985	-0.0696050139	 0.290697
N	 0.0315316056	-3.3607467042	 0.8902410435	-0.320761
H	 1.0201105706	 2.0186779569	-0.1293709696	 0.144743
H	-0.6134625641	 1.9349388638	-0.8030469025	 0.11403
H	-0.3871853017	 1.9817127643	 0.9501203896	 0.118579
H	 0.6993743421	-0.2683411656	 0.9106133574	 0.12113
H	-0.9073908188	-0.3576867184	 0.2063334804	 0.11293
H	 0.1099209221	-0.1593166615	-2.0805807058	 0.103328
H	 3.8245119406	-1.2520565526	-1.7690286855	 0.15746
H	 0.1335006495	-2.4935063962	-2.1195166098	 0.145691
43.9236	102.7271	129.4513	205.6164	218.3376	259.6627	360.7363	382.0103	495.1966	555.462	598.7076	758.431	794.9831	811.936	871.9335	920.8726	956.7714	961.4077	993.309	1035.3143	1075.0548	1110.4806	1124.5453	1151.4271	1262.7046	1285.2951	1305.0685	1331.5379	1348.5283	1362.2206	1392.773	1412.4484	1478.3798	1496.9394	1508.2061	1719.3739	2361.5887	3030.7044	3037.7812	3039.6774	3077.1008	3081.1444	3106.876	3130.0774	3225.5456
CCC1N=COC1C#N	CC[C@H]1N=CO[C@H]1C#N	
InChI=1S/C6H8N2O/c1-2-5-6(3-7)9-4-8-5/h4-6H,2H2,1H3	InChI=1S/C6H8N2O/c1-2-5-6(3-7)9-4-8-5/h4-6H,2H2,1H3/t5-,6+/m1/s1
