14
gdb 80092	2.53857	1.8605	1.48201	3.5929	62.62	-0.2628	-0.0248	0.2381	895.5488	0.101674	-473.843082	-473.835846	-473.834902	-473.874884	27.184	
O	-0.1129110238	 1.3936087629	-0.1617696558	-0.405194
C	-0.0755908329	 0.0152175876	-0.0160739476	 0.086831
C	-0.4712454334	-0.6187840125	 1.2945333922	-0.067534
N	-0.8357187071	 0.2464603431	 2.35892042	-0.246798
C	-1.8661277311	 0.9629013172	 2.2175693561	 0.137247
O	-2.7720045265	 0.9619268624	 1.1941228191	-0.208738
C	-2.6634071756	 0.0584211579	 0.1454330418	 0.465688
O	-3.5930500744	-0.0638216196	-0.5951265893	-0.315611
C	-1.4015353576	-0.7105725336	 0.0707991284	-0.26027
H	 0.5186060248	 1.7823193821	 0.4546991406	 0.303081
H	 0.6924975471	-0.4980624189	-0.5928606396	 0.116206
H	 0.0606864544	-1.5113536225	 1.6044893351	 0.117811
H	-2.1668812983	 1.6814084717	 2.974472666	 0.146137
H	-1.5009412856	-1.6378263778	-0.4793327969	 0.131143
105.0485	162.1205	191.8697	244.6882	409.8545	440.6853	457.7862	541.5965	589.963	675.2444	737.8358	761.0024	813.6797	855.6222	910.4398	960.0192	974.6968	986.8615	1029.1757	1108.8551	1127.6526	1171.5121	1194.1188	1234.23	1306.0315	1353.7301	1370.7154	1416.0634	1424.7698	1728.1841	1872.7593	3115.4662	3173.2817	3189.8069	3198.8107	3795.5263
OC1C2N=COC(=O)C12	O[C@H]1[C@H]2N=COC(=O)[C@@H]12	
InChI=1S/C5H5NO3/c7-4-2-3(4)6-1-9-5(2)8/h1-4,7H	InChI=1S/C5H5NO3/c7-4-2-3(4)6-1-9-5(2)8/h1-4,7H/t2-,3+,4-/m1/s1
