20
gdb 66097	2.5379	1.48564	1.30994	1.2097	83.73	-0.238	0.0554	0.2934	1087.8322	0.171372	-365.972096	-365.963559	-365.962615	-366.00468	34.056	
C	 0.0050234791	 1.5284677494	 0.023116249	-0.439105
C	-0.0019614623	-0.0107514317	-0.0028051608	 0.110503
C	 0.8224984912	-0.5827928599	-1.2055864469	-0.250004
C	 1.3762908306	-1.945621547	-0.7350879708	-0.217636
C	 1.5368324437	-1.7742720459	 0.7639275342	-0.021099
N	 2.1821428576	-0.4905121432	 1.1325883934	-0.354343
C	 0.7136772421	-0.628328893	 1.2084976056	-0.05721
C	-1.376156824	-0.518088358	-0.0332991705	 0.332575
C	-2.5051461156	-0.9326911147	-0.052068703	-0.498078
H	 1.0338286457	 1.8820748628	 0.1330496835	 0.13178
H	-0.4135311253	 1.935846502	-0.9018125219	 0.120092
H	-0.5904358681	 1.9099248887	 0.8578462087	 0.116367
H	 0.214051229	-0.6582225777	-2.1086397168	 0.103609
H	 1.6484956447	 0.1022587083	-1.4062601139	 0.117842
H	 0.6551711672	-2.7488618482	-0.9240562183	 0.108935
H	 2.310964966	-2.2074304991	-1.2406085399	 0.102115
H	 1.6980063632	-2.6393146162	 1.3991821147	 0.083732
H	 2.5694586539	-0.5667483497	 2.0695751034	 0.230322
H	 0.2214696872	-0.601541904	 2.1750727306	 0.088169
H	-3.5023350159	-1.296852043	-0.0723738805	 0.191435
109.3281	145.3429	198.7218	244.1678	260.7056	325.8812	380.2482	450.2979	471.9752	525.7136	607.8448	624.6991	627.8592	668.9314	730.247	820.4586	832.7814	866.5397	906.3909	921.6379	933.1948	969.5957	998.0404	1021.6365	1073.4192	1115.3642	1132.4208	1134.4378	1172.3885	1199.4504	1228.7386	1260.0143	1268.1297	1324.8305	1340.5842	1372.7583	1401.4489	1424.6865	1476.9419	1489.2369	1492.8076	1497.9997	2228.2756	3039.6075	3043.7529	3076.0421	3088.0916	3111.8068	3122.3321	3128.463	3159.09	3170.7135	3501.7561	3505.7659
CC1(CCC2NC12)C#C	C[C@]1(CC[C@H]2N[C@@H]12)C#C	
InChI=1S/C8H11N/c1-3-8(2)5-4-6-7(8)9-6/h1,6-7,9H,4-5H2,2H3	InChI=1S/C8H11N/c1-3-8(2)5-4-6-7(8)9-6/h1,6-7,9H,4-5H2,2H3/t6-,7-,8-/m1/s1
