20
gdb 59348	2.63256	1.21026	1.12389	2.451	75.69	-0.238	-0.0288	0.2092	1226.0052	0.168748	-440.28265	-440.272785	-440.271841	-440.317753	36.235	
C	 0.1779711972	 1.120993645	 0.8521431373	-0.423068
C	-0.286172739	 0.4482696384	-0.4401749733	 0.135712
O	 0.6259768682	-0.5600547642	-0.8638821298	-0.435602
C	-1.7075616535	-0.1219132856	-0.2994899916	-0.109923
N	-2.3049619295	-0.6659167055	-1.5499082666	-0.334062
C	-2.5392409457	-2.0193654047	-0.9617957872	-0.073796
C	-1.930963148	-3.1775637631	-1.741142663	-0.384984
C	-1.7704389062	-1.5463391675	 0.2809206631	 0.382102
O	-1.3054079698	-2.0802008333	 1.2467959165	-0.31125
H	 1.2070164938	 1.4727530622	 0.7414568503	 0.127751
H	-0.4562070649	 1.976485929	 1.1065944036	 0.115481
H	 0.1387830023	 0.4132795237	 1.6884171909	 0.135054
H	-0.301247437	 1.174318191	-1.2610924873	 0.097412
H	 0.8049146347	-1.1253730128	-0.1030254455	 0.288455
H	-2.3485361317	 0.5857549933	 0.2455529549	 0.08945
H	-3.1556525456	-0.1919715042	-1.8288625339	 0.220906
H	-3.5918478246	-2.2237100592	-0.7143719358	 0.093564
H	-0.8874708033	-2.9523539188	-1.9750259321	 0.141101
H	-1.9782050423	-4.0988724842	-1.15207865	 0.125194
H	-2.469739245	-3.3363988696	-2.6800125705	 0.120505
47.7168	73.1157	133.4718	202.9744	217.2476	227.7365	256.3781	343.7978	375.8209	399.6367	450.773	496.8053	545.3328	626.6258	649.8687	749.1327	834.0199	860.1145	917.1019	945.1554	991.0522	1020.3373	1053.1492	1063.1997	1073.9863	1084.5595	1124.4065	1152.1774	1193.6094	1251.618	1291.4823	1314.7931	1332.9169	1364.4161	1377.016	1400.0687	1403.656	1426.3501	1483.7467	1492.8049	1500.1319	1501.5746	1891.8507	2993.9394	3005.5785	3032.7123	3041.2129	3049.639	3102.4241	3113.927	3120.7857	3130.6241	3547.2713	3791.9694
CC(O)C1NC(C)C1=O	C[C@@H](O)[C@H]1N[C@@H](C)C1=O	
InChI=1S/C6H11NO2/c1-3-6(9)5(7-3)4(2)8/h3-5,7-8H,1-2H3	InChI=1S/C6H11NO2/c1-3-6(9)5(7-3)4(2)8/h3-5,7-8H,1-2H3/t3-,4+,5+/m0/s1
