18
gdb 86504	6.16877	0.60103	0.59893	0.9013	97.86	-0.2218	-0.0152	0.2067	1876.351	0.146009	-364.732375	-364.723087	-364.722143	-364.766878	34.102	
C	 0.0167971173	 1.488052697	-0.0832477056	-0.31882
N	-0.0261531953	 0.05595325	 0.1080144897	-0.067544
C	-1.2772778105	-0.5498907602	 0.5953848602	-0.171285
C	-0.4199895167	-1.5665645898	 1.4122024918	-0.23102
C	 0.7282595232	-0.5250356818	 1.2319358259	-0.17129
C	-0.8378157256	-1.9301505325	 2.7427349115	 0.458291
C	-1.1890777813	-2.2353560566	 3.8611895692	-0.299353
C	-1.5839299427	-2.5727366561	 5.118199301	 0.302308
C	-1.9345649406	-2.8728892482	 6.2344298873	-0.569369
H	 1.0302587529	 1.7942453467	-0.3633205475	 0.123655
H	-0.6562616153	 1.7733221642	-0.8986695949	 0.123655
H	-0.2769561806	 2.0560891323	 0.8199672885	 0.093671
H	-1.8536158479	 0.1090974995	 1.2644732989	 0.097637
H	-1.9388708044	-0.9511529019	-0.1783280127	 0.111438
H	-0.2188549122	-2.459478957	 0.8134013418	 0.119055
H	 1.7237500978	-0.9057739303	 0.984172624	 0.111437
H	 0.798342309	 0.1419490077	 2.1061976092	 0.097637
H	-2.2427337771	-3.1366152728	 7.215466942	 0.189896
56.6819	83.2147	141.4231	211.3426	238.8946	265.9378	335.6318	347.3355	423.5037	481.6593	522.4454	548.3894	568.1685	598.3935	603.9202	727.0566	881.2549	891.6754	972.401	978.6575	1004.3885	1089.7234	1124.1039	1143.1749	1190.1687	1204.4303	1228.9543	1229.5856	1235.7973	1296.5418	1336.089	1366.4713	1451.7079	1485.5326	1499.25	1501.1111	1528.054	2180.9133	2358.0541	2927.5852	2972.187	2981.8523	3057.873	3062.394	3071.8944	3079.6764	3099.7424	3505.093
CN1CC(C1)C#CC#C	CN1CC(C1)C#CC#C	
InChI=1S/C8H9N/c1-3-4-5-8-6-9(2)7-8/h1,8H,6-7H2,2H3	InChI=1S/C8H9N/c1-3-4-5-8-6-9(2)7-8/h1,8H,6-7H2,2H3
