25
gdb 122521	4.18164	0.56115	0.54365	1.6651	91.08	-0.2558	0.0931	0.3489	2215.7713	0.226987	-389.488398	-389.477213	-389.476269	-389.526068	39.839	
C	-0.5780058239	 1.4422334178	 0.4292447614	-0.380111
C	 0.0390532119	 0.096568655	 0.0387362806	-0.166697
C	 0.7424593636	-0.6023551455	 1.2063199373	-0.150674
C	 1.3656582231	-1.9518756708	 0.8215242433	-0.231028
C	 2.0494015878	-2.6132859195	 1.9940126271	 0.056156
O	 1.2110313473	-3.1930760854	 3.0044187659	-0.269685
C	 2.0833272025	-4.0604843249	 2.2660339154	 0.075619
C	 1.441285706	-5.1331957395	 1.4187842693	-0.213329
C	 0.872011837	-6.2691808702	 2.2783040853	-0.37399
H	 0.1861517891	 2.1359115681	 0.7973766247	 0.113203
H	-1.0755646641	 1.9167744176	-0.4223582573	 0.110417
H	-1.321839198	 1.3200435379	 1.2243217697	 0.115885
H	-0.7430421496	-0.5635194587	-0.3594992232	 0.095117
H	 0.7550947467	 0.2449889279	-0.7808580688	 0.092095
H	 1.5234216291	 0.0577652382	 1.6090724457	 0.090594
H	 0.0290830992	-0.7653901164	 2.0239799178	 0.112159
H	 0.589428418	-2.6095665669	 0.4182324081	 0.101841
H	 2.1059160835	-1.804197375	 0.0228303881	 0.096047
H	 2.8728457531	-2.0250358274	 2.4095481401	 0.081318
H	 2.9291169411	-4.4203788963	 2.8594916173	 0.080188
H	 0.6452659312	-4.7008432366	 0.8060767649	 0.105041
H	 2.1978053857	-5.5286271589	 0.72816753	 0.098926
H	 1.6564808115	-6.7451029669	 2.8769163388	 0.114545
H	 0.1134998364	-5.8845141727	 2.9664299347	 0.134317
H	 0.4103217914	-7.0419142108	 1.6566478537	 0.112044
41.965	66.6167	80.3872	99.729	132.5253	178.9673	216.7938	244.675	262.525	285.5247	396.0651	445.8601	485.4205	569.3314	732.1598	746.6719	787.7143	819.1801	828.0827	903.1655	926.1408	954.3049	979.5178	1020.235	1039.0738	1065.6965	1073.6999	1096.1997	1140.3421	1141.2933	1184.9264	1190.6123	1244.8225	1274.9621	1290.5695	1304.0997	1318.2389	1332.3675	1341.0897	1360.0996	1398.5722	1408.231	1413.8149	1421.063	1466.3679	1476.9627	1486.3256	1496.4421	1498.5129	1499.5145	1499.9914	1509.8081	1512.502	3008.1521	3013.3175	3018.4172	3027.2559	3029.9548	3036.0567	3036.6201	3053.6282	3059.2501	3068.1085	3080.7048	3091.4238	3096.9286	3101.4071	3108.1978	3116.7
CCCCC1OC1CC	CCCC[C@H]1O[C@H]1CC	
InChI=1S/C8H16O/c1-3-5-6-8-7(4-2)9-8/h7-8H,3-6H2,1-2H3	InChI=1S/C8H16O/c1-3-5-6-8-7(4-2)9-8/h7-8H,3-6H2,1-2H3/t7-,8+/m0/s1
