16
gdb 31290	2.10848	1.57585	0.95173	3.3209	79.42	-0.2441	-0.0303	0.2138	1205.222	0.126287	-396.996688	-396.988348	-396.987404	-397.030501	30.022	
C	 0.0091738975	 1.612887236	-0.1860404392	-0.371734
C	-0.0217179993	 0.1077968052	 0.1267504533	-0.301988
C	-1.4103199286	-0.4454289592	 0.1539465572	 0.214918
C	-2.0885611778	-1.0130051784	 1.2208425657	 0.143287
N	-3.3395925645	-1.3535254656	 0.7269444624	-0.319821
C	-3.3576589124	-0.9864580255	-0.5761208544	 0.020578
N	-2.2203967884	-0.4398015636	-0.9514227917	-0.296584
C	-1.7035888944	-1.2477641624	 2.5552733011	 0.208443
N	-1.3857846522	-1.4407554466	 3.6538490964	-0.35201
H	 1.0407262111	 1.9711945466	-0.2477892875	 0.116095
H	-0.4859763065	 1.8147074053	-1.1393592882	 0.139993
H	-0.5048958804	 2.1860061723	 0.5916901405	 0.120865
H	 0.5515539326	-0.4305147209	-0.6376110545	 0.124722
H	 0.462972987	-0.0911681585	 1.0879556277	 0.12094
H	-4.0795183617	-1.7936891682	 1.249304851	 0.284356
H	-4.2216209819	-1.1415252965	-1.2052548498	 0.147939
42.3636	132.114	155.8355	176.879	220.873	333.9808	384.0496	510.1009	535.8587	557.2838	594.2595	672.3289	683.3624	758.003	798.5636	844.7599	949.6684	984.5048	1049.5474	1083.4219	1118.0075	1159.9475	1254.6958	1276.7043	1319.4997	1356.0284	1379.2033	1405.3365	1465.0011	1478.865	1495.8493	1500.284	1515.2531	1589.0665	2333.9287	3036.1131	3043.3634	3081.729	3114.1895	3127.4293	3254.2456	3660.867
CCC1=C(NC=N1)C#N	CCc1c([nH]cn1)C#N	
InChI=1S/C6H7N3/c1-2-5-6(3-7)9-4-8-5/h4H,2H2,1H3,(H,8,9)	InChI=1S/C6H7N3/c1-2-5-6(3-7)9-4-8-5/h4H,2H2,1H3,(H,8,9)
