18
gdb 41678	3.75821	1.66549	1.51027	0.3221	75.42	-0.2065	0.0079	0.2144	917.2795	0.150788	-401.88848	-401.88216	-401.881216	-401.918741	27.02	
C	 0.0195706417	 1.3522453472	 0.1134099943	-0.081956
C	 1.4492677349	 1.8959377008	-0.0180419869	-0.182654
N	 2.2526328322	 1.1710109218	-1.0213543367	-0.113618
C	 1.3832525443	 0.5230006416	-2.1034347849	-0.113978
C	 2.4229032578	-0.3046267742	-2.8364116424	-0.083223
C	 3.1257837415	-0.8475548615	-1.8351259642	-0.080093
C	 2.4296200645	-0.2922908281	-0.6106051059	-0.090087
C	 0.9185312865	-0.5159395159	-1.0013927844	 0.15894
O	-0.0151175337	-0.0618031555	-0.0653506559	-0.275517
H	-0.4122549156	 1.5611530947	 1.0962901367	 0.109712
H	-0.6284930372	 1.8221730518	-0.6408907727	 0.098002
H	 1.4117528401	 2.9568171806	-0.2934437192	 0.105065
H	 1.9892843277	 1.8307495441	 0.9338919527	 0.10906
H	 0.6990966078	 1.1544542362	-2.6697302804	 0.072003
H	 2.5201710062	-0.4134036155	-3.9064975616	 0.108028
H	 3.9631406376	-1.5292641102	-1.8526457512	 0.10823
H	 2.8121517157	-0.4923308521	 0.3905169408	 0.068388
H	 0.609777168	-1.5169471457	-1.316343448	 0.083697
207.956	276.8362	336.6111	379.522	492.234	520.3831	545.8942	670.3284	680.4627	721.9843	808.7368	835.8906	870.1789	910.9514	914.2081	922.3889	930.3565	958.3139	958.9505	1002.0056	1030.655	1104.488	1124.6303	1139.5022	1146.6565	1153.6216	1195.5851	1222.4452	1239.4845	1265.2428	1278.3343	1288.5743	1331.3635	1352.7407	1371.3143	1411.3835	1486.9736	1514.6472	1615.8	2993.5019	3025.1742	3063.9719	3071.8427	3086.2656	3120.6634	3125.4611	3228.9871	3254.6933
C1CN2C3C=CC2C3O1	C1CN2[C@H]3C=C[C@@H]2[C@H]3O1	
InChI=1S/C7H9NO/c1-2-6-7-5(1)8(6)3-4-9-7/h1-2,5-7H,3-4H2	InChI=1S/C7H9NO/c1-2-6-7-5(1)8(6)3-4-9-7/h1-2,5-7H,3-4H2/t5-,6+,7-
