16
gdb 32466	2.99844	1.30198	0.94394	2.1657	68.09	-0.1706	0.0426	0.2133	1182.0403	0.124393	-475.041667	-475.032769	-475.031825	-475.074907	33.368	
O	 0.6496812013	-0.1120539437	 0.6421480484	-0.419966
C	-0.1853655217	 0.3097585278	-0.4551313883	-0.203805
C	-1.5516066579	-0.2791972065	-0.34531443	 0.131794
C	-2.7862258149	 0.299032209	-0.5411214943	-0.209194
N	-3.7421813401	-0.673764824	-0.3373405139	-0.306143
C	-3.1331246723	-1.8515902774	 0.0123464014	 0.306217
O	-3.893317133	-2.9447233985	 0.2829020004	-0.445735
C	-1.7779281142	-1.6455910775	 0.0111353321	 0.115894
O	-0.8363175086	-2.5975792343	 0.3082337468	-0.477032
H	 0.2133928908	 0.181465578	 1.4504551854	 0.286288
H	-0.2247512959	 1.4056448101	-0.5215389964	 0.103368
H	 0.3445626813	-0.052652675	-1.3436376589	 0.122939
H	-3.0619725311	 1.2997447288	-0.8291890732	 0.118995
H	-4.7374733108	-0.5542996308	-0.3991370884	 0.266895
H	-3.288650134	-3.6487654465	 0.5434473304	 0.313366
H	-0.0388917189	-2.1090869894	 0.5630643686	 0.29612
96.0959	144.2253	208.0833	253.0012	254.2523	270.4382	316.5585	342.5943	411.61	441.5361	526.0126	579.8327	603.192	627.0612	644.3541	685.7601	744.582	798.4809	964.1277	1007.1656	1039.5022	1095.7471	1172.3083	1185.8067	1242.0897	1280.6803	1337.1248	1363.9748	1405.8128	1413.3043	1440.9491	1502.9833	1561.3128	1580.0639	1708.9164	3010.1513	3056.6974	3269.6734	3693.5378	3707.2737	3795.0301	3820.2277
OCC1=CNC(O)=C1O	OCc1c[nH]c(O)c1O	
InChI=1S/C5H7NO3/c7-2-3-1-6-5(9)4(3)8/h1,6-9H,2H2	InChI=1S/C5H7NO3/c7-2-3-1-6-5(9)4(3)8/h1,6-9H,2H2
