14
gdb 27704	2.87355	1.34878	0.9232	1.5943	77.87	-0.207	-0.0198	0.1872	1198.8761	0.099439	-436.699948	-436.691467	-436.690523	-436.733183	30.865	
C	-0.0072421193	 1.4041270255	 0.0985599668	-0.497783
C	 0.0153923593	-0.0739842665	-0.0411807304	 0.385923
N	 0.0073551994	-0.7736798671	-1.1421178208	-0.376451
C	 0.037043544	-2.0792011289	-0.7190206177	 0.220183
O	 0.0386481533	-3.1037252508	-1.58085817	-0.415076
C	 0.0630823002	-2.1400497059	 0.6483149572	 0.09021
O	 0.0483271768	-0.8136760385	 1.0784113836	-0.204677
C	 0.0976866002	-3.1751835013	 1.584097836	 0.242565
C	 0.1275506247	-4.0760094961	 2.384860435	-0.411125
H	 0.8791656099	 1.7586929717	 0.6343719923	 0.15366
H	-0.0320480278	 1.8569974804	-0.8925654575	 0.157978
H	-0.885945079	 1.7291101243	 0.6649899474	 0.153663
H	 0.016195141	-2.7236442965	-2.4679835612	 0.309713
H	 0.1537883674	-4.8729940703	 3.0856160993	 0.191217
87.553	131.758	133.9148	221.5037	283.8709	338.9023	391.7075	394.353	440.8909	510.9648	547.1759	597.3879	654.597	680.139	699.2021	742.7532	815.5326	997.7746	1038.7938	1064.0528	1116.6282	1172.2628	1321.9345	1332.8089	1410.4948	1433.5737	1474.2724	1478.1048	1600.4095	1695.7575	2225.4555	3046.4764	3101.9668	3160.3541	3503.318	3801.8861
CC1=NC(O)=C(O1)C#C	Cc1nc(O)c(o1)C#C	
InChI=1S/C6H5NO2/c1-3-5-6(8)7-4(2)9-5/h1,8H,2H3	InChI=1S/C6H5NO2/c1-3-5-6(8)7-4(2)9-5/h1,8H,2H3
