20
gdb 113903	3.83997	0.78337	0.70836	4.8765	76.82	-0.2336	0.0422	0.2758	1618.3944	0.169139	-440.292594	-440.282339	-440.281395	-440.328939	36.423	
C	-0.3046984717	 1.1850604519	 0.0110820382	-0.232462
O	 0.7643645722	 0.2619694245	 0.0816242438	-0.233292
C	 0.6304420186	-0.649558057	 1.1218296266	 0.112471
C	-0.2202443366	-1.8813687152	 0.9140875367	-0.34006
C	 1.3038627387	-1.9760359798	 0.9527663491	-0.080304
C	 2.0990849683	-2.2738300778	-0.3011313277	-0.300715
C	 2.28392319	-3.7493103227	-0.6637670605	 0.380449
N	 1.3263826021	-4.6012469133	-0.1940497487	-0.514056
O	 3.2183152616	-4.1286232123	-1.3422293281	-0.364949
H	-0.3798476231	 1.7856747068	 0.9299547051	 0.109039
H	-0.0996619302	 1.8497868654	-0.8308860163	 0.131757
H	-1.2671606153	 0.6794040022	-0.1518634252	 0.109925
H	 0.6311680507	-0.19753079	 2.1151921529	 0.089468
H	-0.8016439137	-2.2683829768	 1.7444410575	 0.11459
H	-0.6923789848	-1.9746447871	-0.0592260492	 0.123987
H	 1.7235909434	-2.3948279516	 1.8635926841	 0.100003
H	 1.6323978344	-1.7795039461	-1.1598209929	 0.137704
H	 3.106385466	-1.853779049	-0.2282745876	 0.134904
H	 0.5235655568	-4.2711819114	 0.3116737815	 0.26497
H	 1.3747819426	-5.5669071304	-0.4735678995	 0.25657
40.6682	62.3621	113.4925	120.0919	191.1685	207.3864	211.2967	284.9218	322.6888	442.5693	475.18	516.6934	556.4452	608.1893	675.5703	776.1452	829.7686	873.3929	894.2092	902.3206	997.6677	1020.8689	1047.1941	1086.0063	1105.1175	1129.5993	1148.3094	1174.29	1185.1316	1221.5348	1247.3198	1262.6611	1305.9377	1353.1424	1386.2883	1416.0875	1464.0593	1474.9242	1486.7793	1492.4418	1508.7649	1606.7369	1799.4026	2985.5317	3037.2838	3061.4232	3084.4455	3099.8926	3122.9706	3124.1067	3144.2495	3214.118	3602.9555	3741.7157
COC1CC1CC(N)=O	CO[C@H]1C[C@H]1CC(=O)N	
InChI=1S/C6H11NO2/c1-9-5-2-4(5)3-6(7)8/h4-5H,2-3H2,1H3,(H2,7,8)	InChI=1S/C6H11NO2/c1-9-5-2-4(5)3-6(7)8/h4-5H,2-3H2,1H3,(H2,7,8)/t4-,5-/m0/s1
