14
gdb 45520	4.50647	1.37285	1.10607	4.6104	62.89	-0.2909	-0.0201	0.2708	1023.5418	0.10345	-473.876107	-473.869685	-473.868741	-473.907124	24.718	
O	 0.048943087	 0.0067753237	-0.1019186543	-0.332478
C	-0.020239406	 1.1840482752	-0.0308139233	 0.491922
O	-1.1527260559	 1.9272707574	-0.1465266322	-0.258766
C	-0.780237158	 3.317672442	-0.1998393541	 0.018642
C	-1.3915311199	 4.3620461981	 0.7303627679	-0.272647
C	-0.1039315468	 5.1962684329	 1.0651197291	-0.170265
N	 1.0326220841	 4.2330818295	 1.0445429718	-0.285658
C	 0.5998774899	 3.2647239651	 0.3675453358	 0.40494
O	 1.0877543064	 2.0069955246	 0.2129256545	-0.243221
H	-0.8078536466	 3.6292724551	-1.2513551978	 0.127807
H	-2.1933991527	 4.9500865954	 0.2819566974	 0.122464
H	-1.7664434994	 3.8781823316	 1.6371715458	 0.13783
H	 0.0624681756	 5.9933619397	 0.3304074333	 0.125998
H	-0.1541535374	 5.6646355298	 2.0502690461	 0.13343
129.698	177.8156	294.5917	350.2291	426.6396	544.6685	592.3072	678.4558	723.8986	763.314	774.4599	846.7552	851.579	910.076	915.2092	984.1376	1008.0445	1056.5464	1102.3207	1116.5076	1181.6711	1205.9118	1278.4664	1292.5942	1331.1736	1357.7923	1378.7228	1486.5866	1505.1263	1781.3565	1966.4064	3036.118	3041.6499	3072.1376	3109.0468	3137.4544
O=C1OC2CCN=C2O1	O=C1O[C@H]2CC[N][C]2O1	
InChI=1S/C5H5NO3/c7-5-8-3-1-2-6-4(3)9-5/h3H,1-2H2	InChI=1S/C5H5NO3/c7-5-8-3-1-2-6-4(3)9-5/h3H,1-2H2/t3-/m0/s1
