19
gdb 121273	3.96024	1.00081	0.88233	1.0769	72.22	-0.2543	0.0817	0.3359	1355.3324	0.158672	-460.128797	-460.120131	-460.119186	-460.162912	31.312	
C	 0.5806980943	 1.3922688748	-0.3024553242	-0.224354
O	 0.7755295114	-0.0018651936	-0.290803216	-0.243895
C	-0.2583056301	-0.7064262161	-0.9426495554	-0.079879
C	 0.1058984258	-2.1841004405	-0.9025447153	 0.08324
O	-0.9935385617	-2.9176549085	-1.4424790401	-0.278143
C	-0.5250339413	-4.0484104439	-2.1697219204	-0.105953
C	 0.9016236765	-3.7246684717	-2.5528511176	 0.026613
O	 1.0339321534	-2.4343386418	-3.1588890452	-0.251959
C	 1.2997786153	-2.5639705594	-1.7559907894	 0.013938
H	 0.5421465067	 1.7902225062	-1.3284353637	 0.108879
H	-0.3509793925	 1.6777295458	 0.2110411254	 0.105293
H	 1.4256721736	 1.8456309447	 0.2215424217	 0.126247
H	-1.2266928735	-0.550078888	-0.4416801469	 0.096965
H	-0.3624544593	-0.3908737255	-1.9916559321	 0.109439
H	 0.3089594955	-2.4780048252	 0.1402036953	 0.080645
H	-0.5424056476	-4.9624140135	-1.5540850879	 0.096708
H	-1.1880624917	-4.1934107851	-3.0290558304	 0.12017
H	 1.5858348009	-4.4968082418	-2.8933944265	 0.10343
H	 2.3129649445	-2.3566353568	-1.4282781012	 0.112616
64.9179	96.5683	116.5365	182.4367	232.7515	255.6714	360.8749	364.4573	419.3716	582.7674	681.1987	774.516	839.7491	854.0353	892.0848	940.788	946.6448	998.8556	1022.9811	1047.2205	1084.2486	1114.7329	1122.197	1135.4702	1171.3359	1187.0152	1227.0406	1231.4672	1238.9392	1258.5334	1304.9809	1310.9322	1364.2755	1387.0589	1417.0767	1442.1434	1481.4315	1485.4967	1503.522	1506.6706	1528.5624	2969.7174	2973.9727	2980.3575	2982.3439	3017.8453	3023.5045	3072.1938	3113.7854	3157.2874	3180.4773
COCC1OCC2OC12	COC[C@H]1OC[C@H]2O[C@@H]12	
InChI=1S/C6H10O3/c1-7-2-4-6-5(9-6)3-8-4/h4-6H,2-3H2,1H3	InChI=1S/C6H10O3/c1-7-2-4-6-5(9-6)3-8-4/h4-6H,2-3H2,1H3/t4-,5-,6+/m1/s1
