15
gdb 97486	10.10812	0.42619	0.42065	1.3015	93.24	-0.2434	-0.0329	0.2105	2474.4561	0.110451	-420.538887	-420.529349	-420.528405	-420.575998	32.154	
O	 0.2194498704	 1.1450850214	 0.7150285082	-0.395536
C	 0.004081009	 0.1366659792	-0.2598540867	-0.225763
C	-1.367477429	-0.3634128623	-0.2918595386	 0.277751
C	-2.5040043149	-0.782493165	-0.2651026951	-0.23535
C	-3.7783414896	-1.2499010358	-0.2450445167	-0.167857
C	-4.9125668196	-1.6755550053	-0.2283053851	 0.345527
C	-6.2700918366	-2.1352870628	-0.2034660662	-0.183953
C	-6.6789778835	-3.3833718994	-0.8833909205	-0.157698
O	-6.5531514574	-3.3401556317	 0.5299289625	-0.207384
H	-0.0797070754	 0.8001789203	 1.5631297341	 0.291955
H	 0.2571150768	 0.5932115826	-1.2236471383	 0.149663
H	 0.6914847926	-0.7140565286	-0.123354055	 0.128099
H	-7.0238568492	-1.3583457005	-0.0792363683	 0.125612
H	-7.6947906654	-3.4618951232	-1.2685777174	 0.124786
H	-5.9249077182	-3.9680246589	-1.4064007669	 0.130149
13.215	58.8046	71.0906	133.9614	174.2426	260.7505	294.376	350.5383	393.6088	493.3944	539.2149	556.3612	587.2131	664.5731	820.5859	845.9383	942.355	981.6295	1022.3197	1056.3506	1087.3821	1154.8143	1161.5697	1211.8797	1254.6236	1296.1841	1355.8554	1404.0667	1419.6849	1482.6194	1517.945	2270.4445	2370.5968	2974.0596	3060.1332	3087.6394	3115.3523	3182.9078	3814.2336
OCC#CC#CC1CO1	OCC#CC#C[C@H]1CO1	
InChI=1S/C7H6O2/c8-5-3-1-2-4-7-6-9-7/h7-8H,5-6H2	InChI=1S/C7H6O2/c8-5-3-1-2-4-7-6-9-7/h7-8H,5-6H2/t7-/m0/s1
