21
gdb 103296	2.58409	1.32601	1.27967	2.3035	79.16	-0.2459	0.0603	0.3062	1140.6818	0.181951	-424.173991	-424.164953	-424.164009	-424.207159	35.642	
C	-0.0656495471	 1.4583711449	 0.0665972214	-0.522242
C	 0.0527882786	-0.0413171229	-0.0052441633	 0.277217
C	 0.8462188712	-0.9052144672	-1.0367571119	-0.282466
C	 0.1865202706	-1.9351520875	-0.0772974015	-0.118889
C	 0.641681852	-1.0035485164	 1.084688677	-0.269658
C	-1.1189594332	-1.0652434416	-0.1377867308	 0.472082
O	-1.9717520098	-1.0922251666	 0.9850929247	-0.508713
C	-2.002528908	-1.0829985983	-1.382193954	-0.187338
O	-2.8797136962	-2.2051618651	-1.2279220691	-0.435099
H	 0.9110656595	 1.9223911603	 0.2408126564	 0.117805
H	-0.470921723	 1.8747163254	-0.8628864631	 0.111248
H	-0.7309134532	 1.7517413287	 0.8854435614	 0.131586
H	 0.5363690927	-0.8838907396	-2.0830369661	 0.084877
H	 1.9338035354	-0.8296668312	-0.9607579318	 0.090962
H	 0.2610450879	-3.0219870164	-0.1223565249	 0.069984
H	 1.7215389215	-0.9290794381	 1.2400015634	 0.079626
H	 0.0946409082	-1.0789879405	 2.0219389441	 0.115276
H	-2.6865450912	-1.6979953014	 0.7488842993	 0.284634
H	-2.5783196335	-0.1465986249	-1.4174041788	 0.096885
H	-1.4304174191	-1.1722496474	-2.3108385192	 0.097776
H	-3.6101654632	-2.109169144	-1.8448356333	 0.294446
95.6463	154.0615	190.8528	211.7145	251.5956	290.9264	340.3597	359.5381	427.3785	487.4092	496.0695	560.7554	597.9823	647.1277	700.8468	796.0303	816.1188	898.1208	903.7363	947.8259	990.4408	998.8759	1011.1833	1025.4325	1054.8798	1088.933	1094.7393	1133.0239	1172.0569	1182.3181	1189.6612	1215.2096	1224.8515	1235.5755	1254.6514	1293.2442	1314.6337	1406.4324	1412.7861	1451.3592	1488.5447	1491.7271	1498.2939	1509.8557	1545.4021	2997.4635	3026.0417	3059.0933	3063.1365	3072.6428	3089.546	3100.8672	3111.1528	3123.1185	3162.4561	3759.8882	3843.5868
CC12CC(C1)C2(O)CO	C[C@@]12C[C@@H](C1)[C@]2(O)CO	
InChI=1S/C7H12O2/c1-6-2-5(3-6)7(6,9)4-8/h5,8-9H,2-4H2,1H3	InChI=1S/C7H12O2/c1-6-2-5(3-6)7(6,9)4-8/h5,8-9H,2-4H2,1H3/t5-,6+,7-/m1/s1
