16
gdb 28166	5.05297	1.2758	1.03166	1.6848	78.06	-0.2021	-0.0103	0.1917	1128.6424	0.125727	-400.79054	-400.783207	-400.782263	-400.822441	27.876	
C	-0.0160165984	 1.4358343294	 0.1006491907	-0.494233
C	-0.0076718427	-0.0401943331	-0.0618381716	 0.337648
N	-0.0839983258	-0.7348482357	-1.1593617221	-0.385069
C	-0.0304624908	-2.0477010996	-0.7157621575	 0.240721
C	 0.0756790521	-2.0689094258	 0.6313343037	 0.283119
C	 0.1383715878	-3.4507323765	 1.1773621485	-0.418077
C	 0.04680316	-4.2411961089	-0.1323436224	-0.089802
C	-0.0491282848	-3.4259002904	-1.2045965822	-0.189892
O	 0.0937506983	-0.7936461695	 1.0928070341	-0.22552
H	 0.9027493908	 1.787358696	 0.5819958305	 0.144374
H	-0.0998950252	 1.8962023024	-0.8840446018	 0.157716
H	-0.8580015997	 1.7622454999	 0.7202593426	 0.144376
H	 1.0678517371	-3.6726837604	 1.7171058118	 0.140382
H	-0.6886865436	-3.6978913297	 1.8551552517	 0.14038
H	 0.0609698891	-5.3224118424	-0.148906337	 0.103691
H	-0.1259691741	-3.7331405858	-2.2386201991	 0.110186
94.2666	128.251	254.9599	273.3688	288.1137	435.9891	490.6484	557.3755	642.5391	689.0102	730.784	754.0717	771.1176	872.0707	915.4785	925.2513	931.9106	941.2438	1027.1148	1063.1352	1083.6434	1123.8356	1156.9421	1221.9787	1231.9606	1297.7203	1380.887	1412.4852	1436.0032	1451.0408	1474.1959	1481.9213	1562.7175	1600.5058	1635.1324	3033.7469	3041.3412	3064.047	3094.1344	3156.6561	3219.355	3240.7997
CC1=NC2=C(CC=C2)O1	Cc1nc2c(CC=C2)o1	
InChI=1S/C7H7NO/c1-5-8-6-3-2-4-7(6)9-5/h2-3H,4H2,1H3	InChI=1S/C7H7NO/c1-5-8-6-3-2-4-7(6)9-5/h2-3H,4H2,1H3
