16
gdb 125011	3.37027	1.28318	0.93649	3.1071	82.77	-0.1996	0.	0.1996	1207.0606	0.124459	-396.922042	-396.912961	-396.912017	-396.955688	33.294	
C	-0.0538026894	 1.5236832786	 0.1161584112	-0.519869
C	 0.0006639899	 0.0404373173	-0.027632956	 0.336564
C	-0.0186997773	-0.7628958436	-1.1529001317	 0.009617
N	-0.1515918077	-0.3598216316	-2.4903441882	-0.62547
C	 0.0443254309	-2.0964182649	-0.6561146169	 0.184806
N	 0.097332016	-2.1159952015	 0.6856858844	-0.307958
N	 0.0819006176	-0.8247882859	 1.0270703582	-0.266494
C	 0.0438241249	-3.2694847751	-1.4471837807	 0.249062
C	 0.0468149658	-4.2196596169	-2.1883906989	-0.429473
H	 0.9420385878	 1.9833014288	 0.1549747165	 0.135578
H	-0.5854314953	 1.9556928889	-0.7368092872	 0.150225
H	-0.5877295618	 1.8193272247	 1.0254261612	 0.131009
H	 0.5410194871	 0.3234948052	-2.7715098171	 0.243372
H	-0.095913696	-1.1562958753	-3.1146232612	 0.248473
H	 0.114567626	-0.5846769544	 2.003788628	 0.271344
H	 0.0443789517	-5.0748378043	-2.8174154415	 0.189213
94.7844	115.4008	131.4474	189.393	239.0319	262.4451	313.8406	386.9549	466.641	518.8106	527.873	548.1851	575.8182	663.547	673.772	723.4629	745.2062	755.564	808.2703	993.3897	1009.2771	1061.2146	1193.0329	1239.6035	1257.5388	1299.2734	1407.4132	1427.8907	1464.0089	1481.8599	1492.3431	1535.629	1642.6602	1654.7003	2227.8678	3020.1133	3076.795	3110.8848	3503.218	3521.0497	3605.5362	3665.6471
CC1=C(N)C(=NN1)C#C	Cc1c(N)c(n[nH]1)C#C	
InChI=1S/C6H7N3/c1-3-5-6(7)4(2)8-9-5/h1H,7H2,2H3,(H,8,9)	InChI=1S/C6H7N3/c1-3-5-6(7)4(2)8-9-5/h1H,7H2,2H3,(H,8,9)
