18
gdb 99560	2.1892	1.30696	0.86825	3.4031	78.64	-0.2755	0.0128	0.2883	1331.1709	0.144125	-401.915722	-401.90533	-401.904386	-401.951366	36.487	
C	 0.1639700411	 1.3699538455	 0.1659186945	-0.253008
O	-0.1355166381	 0.0105796369	-0.1082018834	-0.2338
C	 0.5750154733	-0.5335370639	-1.192089395	-0.007368
C	 2.018468365	-0.6388675103	-0.8743335203	 0.27974
N	 3.1362876279	-0.6837478993	-0.5858345237	-0.326274
C	-0.0395811942	-1.9222112049	-1.5094178586	-0.173708
C	-1.5410643989	-1.7905296167	-1.8271638837	-0.402241
C	 0.6870203788	-2.5571207662	-2.6047679239	 0.312833
C	 1.2678940572	-3.0613067109	-3.5276589193	-0.451053
H	 1.213299137	 1.5008045535	 0.459989417	 0.14005
H	-0.0444922542	 2.0069355726	-0.7058843728	 0.115856
H	-0.4816367482	 1.6703380235	 0.992882212	 0.140905
H	 0.4794151471	 0.1058271742	-2.0849573535	 0.119854
H	 0.0778774024	-2.5274237787	-0.6018709175	 0.133587
H	-1.6928066307	-1.1867336926	-2.7271772043	 0.125973
H	-1.970225712	-2.7786504662	-2.0072047859	 0.132692
H	-2.0619682376	-1.3194440184	-0.9925420206	 0.140888
H	 1.7955565842	-3.5167419181	-4.3291075509	 0.205073
56.8483	99.3246	111.5262	162.542	181.3969	206.3684	228.607	258.3819	296.9599	338.4927	421.5935	467.9951	521.4814	572.2403	619.3728	642.8148	663.5806	854.4539	886.8205	979.4684	990.0741	1084.1053	1093.5637	1134.8084	1155.2782	1185.0988	1218.4633	1280.0957	1328.77	1352.368	1360.8124	1403.6683	1479.9207	1488.5945	1493.8056	1498.7052	1508.4051	2241.4418	2355.2578	2978.4449	2996.6136	3037.7953	3052.6011	3060.1887	3124.9943	3135.4394	3150.5423	3503.2994
COC(C#N)C(C)C#C	CO[C@@H](C#N)[C@@H](C)C#C	
InChI=1S/C7H9NO/c1-4-6(2)7(5-8)9-3/h1,6-7H,2-3H3	InChI=1S/C7H9NO/c1-4-6(2)7(5-8)9-3/h1,6-7H,2-3H3/t6-,7-/m0/s1
