16
gdb 127447	3.99431	1.10613	0.87265	3.9691	83.65	-0.2098	0.0044	0.2142	1281.4475	0.124437	-396.917275	-396.908355	-396.907411	-396.950826	32.718	
C	-0.0395173852	 1.3856161253	-0.0460412473	-0.335794
N	-0.0122579284	-0.0576470076	 0.0218462819	 0.005602
N	 0.0245998559	-0.7910929553	-1.1138918291	-0.34094
C	 0.0333101175	-2.0613902308	-0.6924036919	 0.225689
C	 0.0253925864	-2.1422934894	 0.7235022077	-0.410241
C	 0.0020684973	-0.8279802543	 1.1444573454	 0.384402
N	-0.0895595288	-0.2474944072	 2.413327548	-0.61831
C	 0.0547885085	-3.1436469314	-1.608379593	 0.265026
C	 0.0742401382	-4.0870244119	-2.3556676453	-0.423015
H	 0.9633437942	 1.8175967478	 0.0578581672	 0.133334
H	-0.443415165	 1.6661709255	-1.0184393141	 0.165141
H	-0.6808326472	 1.7737453176	 0.7494817189	 0.149833
H	 0.0407379105	-3.0297374303	 1.3339266576	 0.103724
H	-0.1032669815	-0.9501249853	 3.1405949397	 0.257373
H	 0.6525511289	 0.4149740752	 2.6095874425	 0.252806
H	 0.0896764887	-4.9107236677	-3.0249899984	 0.18537
91.5699	124.4439	143.3228	184.5674	215.2306	280.6319	304.0033	413.581	483.8921	533.5074	568.8012	586.3015	650.6217	656.9667	664.3338	720.9389	761.0759	794.6791	818.8376	1017.5178	1063.2059	1105.6554	1150.1423	1179.7754	1253.2498	1316.8965	1395.4153	1442.3679	1466.2507	1487.2199	1505.3636	1528.935	1597.902	1659.1226	2237.8111	3027.7285	3103.3231	3162.0939	3271.136	3506.0206	3523.6864	3623.476
CN1N=C(C=C1N)C#C	Cn1nc(cc1N)C#C	
InChI=1S/C6H7N3/c1-3-5-4-6(7)9(2)8-5/h1,4H,7H2,2H3	InChI=1S/C6H7N3/c1-3-5-4-6(7)9(2)8-5/h1,4H,7H2,2H3
