21
gdb 80547	2.52929	1.48572	1.23555	0.698	78.14	-0.2286	0.0697	0.2983	1123.1362	0.182662	-424.201447	-424.192745	-424.191801	-424.234035	34.43	
C	-0.13444946	 1.6225248718	-0.0309152404	-0.446334
C	-0.0157522798	 0.1067934046	 0.0042289143	 0.043566
C	 1.1032008171	-0.6061707715	-0.7936196934	 0.032869
O	 2.3225657035	-0.083191044	-0.2403638415	-0.301288
C	 2.0984489593	-0.2236591612	 1.1958155597	 0.157959
C	 2.4405238728	 1.0431637685	 1.9643560555	-0.425066
C	 0.6469611063	-0.7282451081	 1.1671556666	-0.134908
C	 0.8365394341	-1.8547726097	 0.1010148045	 0.125872
O	-0.3454841806	-2.5820237383	-0.1351584627	-0.441306
H	 0.8397115702	 2.1049712066	-0.1305510113	 0.133008
H	-0.7432679944	 1.9272524169	-0.8894380144	 0.11027
H	-0.6246719007	 2.0128786224	 0.8677042985	 0.114018
H	-0.9752621021	-0.360127445	-0.2198149658	 0.096028
H	 1.1703623902	-0.6281641053	-1.8821453173	 0.068642
H	 2.7617702275	-1.0208150513	 1.5616634449	 0.074683
H	 1.7538838867	 1.8659436964	 1.7672354621	 0.12471
H	 2.4267158577	 0.8344405706	 3.0396343752	 0.112743
H	 3.4517562278	 1.3674569408	 1.6991008344	 0.126568
H	 0.148827256	-0.916896094	 2.1178657677	 0.072648
H	 1.6998436463	-2.5174435696	 0.2463273792	 0.069128
H	-0.2279559979	-3.0845507504	-0.947768006	 0.286191
166.0537	188.9378	207.1986	233.5737	256.4453	282.6571	302.9007	317.7607	374.3726	483.356	508.6422	627.6045	690.4557	733.781	804.7573	826.3338	884.9746	903.3865	931.3462	964.6425	1027.8698	1039.0961	1052.4721	1069.0027	1085.3632	1121.4636	1127.2287	1153.9278	1163.0841	1192.078	1218.629	1246.0669	1275.048	1284.3714	1321.2374	1336.2392	1393.9879	1406.7978	1409.7794	1416.5765	1434.1715	1488.0627	1491.7764	1499.7749	1515.9165	2986.1539	3017.0662	3032.9839	3045.2056	3086.9979	3104.6442	3106.4455	3114.2372	3125.0536	3130.1992	3157.8191	3813.2405
CC1C2OC(C)C1C2O	C[C@H]1[C@H]2O[C@@H](C)[C@@H]1[C@H]2O	
InChI=1S/C7H12O2/c1-3-5-4(2)9-7(3)6(5)8/h3-8H,1-2H3	InChI=1S/C7H12O2/c1-3-5-4(2)9-7(3)6(5)8/h3-8H,1-2H3/t3-,4+,5-,6-,7-/m1/s1
