16
gdb 71047	3.27661	2.13395	1.68698	3.9768	71.4	-0.2067	-0.0511	0.1556	822.7299	0.123716	-400.623187	-400.61666	-400.615716	-400.653494	27.434	
C	 0.0712842896	 1.4322626619	-0.1593028809	-0.490503
C	-0.062260445	-0.0490377396	 0.0369989553	 0.446142
O	 0.0557598783	-0.7984677951	-1.3034680792	-0.318507
C	-0.5603095456	-1.787655185	-0.5386597702	 0.21425
N	 0.1402412426	-2.7248014773	-0.0207799177	-0.205442
C	 0.2301184792	-2.2448633669	 1.3370304165	-0.023582
C	-0.8064258973	-1.2103781055	 1.7583407596	-0.104521
C	 0.5804313939	-0.7252360004	 1.3270919576	-0.166261
C	-1.3388021054	-0.8171266236	 0.3970223505	-0.184135
H	 1.1040595889	 1.6937098294	-0.4092902921	 0.14443
H	-0.5808945095	 1.7627329468	-0.9712360967	 0.141001
H	-0.2045785135	 1.9553739569	 0.7608861828	 0.137158
H	 0.7097052151	-2.8748269909	 2.0770208932	 0.108889
H	-1.2975734922	-1.1738594741	 2.7191515277	 0.104636
H	 1.3861766439	-0.3118936277	 1.9177306891	 0.098939
H	-2.335870533	-0.4775542489	 0.1368301646	 0.097505
216.524	234.9557	275.4646	382.5237	460.8172	535.3992	592.8621	623.8063	677.0291	716.2919	734.8033	766.7096	793.1191	819.2154	849.615	907.1233	933.3853	940.6282	978.4037	1006.8429	1031.3172	1037.2027	1053.4144	1094.4877	1124.8949	1159.9672	1212.5232	1217.8824	1255.4412	1298.526	1349.9822	1404.0954	1474.1989	1489.3812	1553.7494	3045.1609	3117.7455	3131.4411	3173.5221	3190.2477	3213.039	3231.2299
CC12OC3=NC4C(C14)C23	C[C@@]12O[C]3[N][C@@H]4[C@@H]([C@H]14)[C@@H]23	
InChI=1S/C7H7NO/c1-7-3-2-4(7)6(9-7)8-5(2)3/h2-5H,1H3	InChI=1S/C7H7NO/c1-7-3-2-4(7)6(9-7)8-5(2)3/h2-5H,1H3/t2-,3-,4+,5+,7+/m0/s1
