23
gdb 103411	2.34792	1.377	1.21462	1.506	84.92	-0.2496	0.0743	0.3239	1191.0812	0.204716	-388.261428	-388.25169	-388.250746	-388.295183	37.773	
C	-0.1408438737	 1.5691994728	-0.0754167034	-0.415799
C	 0.040614267	 0.0599761454	 0.0402241461	-0.01396
C	 1.0210013516	-0.6435424917	-0.9104405301	-0.052961
C	 2.4416964702	-0.2386264837	-0.6339847488	-0.304219
C	 1.7850354699	-1.2386570246	 0.2734289882	-0.090245
C	 0.8230221244	-0.5665458508	 1.2720916227	 0.316263
C	 1.4294031581	 0.3765923256	 2.3100135278	-0.454491
C	-0.0363985357	-1.6247278727	 1.9576054947	-0.128221
O	-1.1280418623	-0.9753993126	 2.5974322535	-0.4279
H	 0.8103740956	 2.1092850406	-0.050345263	 0.109507
H	-0.6361382412	 1.8220772639	-1.0197628588	 0.109447
H	-0.7638336557	 1.9502184166	 0.7403075919	 0.121886
H	-0.9460861267	-0.4088135838	-0.0131158811	 0.075798
H	 0.7453110195	-1.1219023883	-1.843293258	 0.076838
H	 3.1781354458	-0.6554176035	-1.3141573473	 0.107874
H	 2.6876255504	 0.7613627843	-0.2888154326	 0.104453
H	 2.1815490371	-2.2420442765	 0.3900336476	 0.074265
H	 2.0273134285	 1.168501971	 1.8523538436	 0.107129
H	 0.644487561	 0.8438546963	 2.9108010329	 0.131668
H	 2.0855144835	-0.1797226302	 2.9902603888	 0.10436
H	-0.3911237112	-2.3484489613	 1.2064685307	 0.081982
H	 0.5761780313	-2.1797827506	 2.6881125393	 0.079334
H	-1.6667590571	-1.6444929563	 3.0287562253	 0.286993
115.7943	132.3933	202.2352	211.412	217.4175	242.8179	251.8187	284.2888	335.0286	373.8437	427.0228	515.0829	535.7585	644.6924	711.6314	785.7252	803.776	875.9229	917.2111	939.9049	956.8562	989.0098	999.2681	1011.4639	1048.9817	1067.212	1071.2353	1084.4377	1099.9982	1123.9713	1156.307	1177.3871	1205.015	1217.2411	1249.9011	1266.3019	1307.411	1313.7779	1363.2734	1378.2832	1404.907	1412.1899	1453.2985	1486.9586	1491.5511	1492.003	1501.6218	1512.5454	1521.6636	2954.476	2988.5137	3030.6875	3033.8912	3058.6635	3093.6408	3099.8807	3106.2021	3118.7714	3124.1963	3156.2473	3171.946	3199.4983	3835.3975
CC1C2CC2C1(C)CO	C[C@H]1[C@H]2C[C@H]2[C@]1(C)CO	
InChI=1S/C8H14O/c1-5-6-3-7(6)8(5,2)4-9/h5-7,9H,3-4H2,1-2H3	InChI=1S/C8H14O/c1-5-6-3-7(6)8(5,2)4-9/h5-7,9H,3-4H2,1-2H3/t5-,6+,7+,8+/m0/s1
