14
gdb 133584	2.85527	1.14139	0.99696	3.1171	56.03	-0.2585	-0.0308	0.2277	1149.0677	0.096235	-568.192541	-568.184273	-568.183328	-568.226577	29.49	
F	 0.1536303071	 0.0681571395	-0.0829730706	-0.082538
C	-0.0708351737	 1.3948373139	-0.0449562968	 0.285142
F	 1.1000527298	 2.0031540704	-0.2818571936	-0.072089
F	-0.8885490667	 1.6888559817	-1.0660830062	-0.07094
C	-0.6780675088	 1.8449966865	 1.2560826358	-0.173405
C	-1.3783715558	 0.8796741121	 2.1521066024	-0.307108
C	-0.063681549	 1.4976669141	 2.6060345235	-0.109285
C	 1.1460192242	 0.639754728	 2.741399521	 0.155205
O	 1.9801519112	 0.8146785731	 3.5940179452	-0.263303
H	-1.0725735685	 2.8517164705	 1.175226813	 0.134341
H	-2.2850613065	 1.1964640827	 2.6524807558	 0.140937
H	-1.3524864517	-0.1659068919	 1.8664884176	 0.148218
H	-0.1098080916	 2.2829411562	 3.3524285254	 0.121992
H	 1.2264689801	-0.1923403068	 2.0134291475	 0.092835
39.5808	100.146	166.964	211.4133	278.5308	312.3142	397.3941	412.6201	507.2913	528.289	604.6467	662.6141	781.041	850.5956	862.2062	906.9526	1002.1815	1049.4834	1064.2726	1086.5804	1136.7969	1175.6499	1186.7289	1192.5817	1208.211	1287.648	1346.2297	1428.3843	1453.6682	1489.3535	1819.0039	2938.1996	3149.7185	3178.2551	3185.8252	3240.9394
FC(F)(F)C1CC1C=O	FC(F)(F)[C@H]1C[C@H]1C=O	
InChI=1S/C5H5F3O/c6-5(7,8)4-1-3(4)2-9/h2-4H,1H2	InChI=1S/C5H5F3O/c6-5(7,8)4-1-3(4)2-9/h2-4H,1H2/t3-,4-/m0/s1
