20
gdb 121096	4.74091	0.83938	0.77327	0.7335	77.38	-0.2354	0.0272	0.2625	1529.5962	0.170341	-440.298138	-440.28844	-440.287496	-440.333885	33.818	
C	 0.8071249921	 0.9627441724	-0.2140256253	-0.237921
O	 0.9714392151	 0.3744207939	 1.0574887604	-0.23308
C	-0.129538901	-0.4037357029	 1.4860110392	-0.075859
C	-0.1222720648	-1.8191655541	 0.8900376415	-0.01648
C	 1.128104537	-2.6416967529	 1.2956523705	-0.120542
O	 0.5888576076	-3.7205778655	 2.0929640921	-0.254049
C	-0.7639512921	-3.5727059697	 2.0596985472	 0.406466
C	-1.5255664136	-4.6180994067	 2.8004541003	-0.472427
N	-1.2573427068	-2.5898650387	 1.420201381	-0.31711
H	-0.0901858465	 1.5993671986	-0.2503444943	 0.109221
H	 1.6878062175	 1.5835558042	-0.3967571928	 0.128751
H	 0.7323204279	 0.2197816329	-1.0218289312	 0.106979
H	-0.0494492762	-0.4767084249	 2.5766016204	 0.106198
H	-1.084040879	 0.0888408385	 1.2503371042	 0.101803
H	-0.2155391475	-1.7476660023	-0.199347103	 0.084379
H	 1.660570698	-3.0772602808	 0.4454106672	 0.113579
H	 1.8367798189	-2.072473534	 1.9030491341	 0.127951
H	-1.2226920419	-4.6321433084	 3.8521132891	 0.145628
H	-2.5934260713	-4.415862834	 2.7280313617	 0.15131
H	-1.3086933735	-5.6081470655	 2.3873172276	 0.145203
49.9835	59.8634	108.9842	145.929	149.6227	197.2815	252.6783	323.9628	377.385	438.4987	476.6204	620.6136	676.6702	758.2329	854.802	922.3676	929.1506	961.2508	996.2658	1014.1793	1064.	1073.8904	1096.7453	1125.5217	1156.7023	1181.4741	1209.9913	1232.3142	1256.0251	1291.5662	1308.8718	1363.8892	1378.0579	1400.9155	1416.5579	1475.6908	1475.9165	1477.141	1490.2896	1495.5842	1509.9574	1524.6787	1733.8309	2978.7326	3003.5978	3025.2671	3037.1635	3051.5118	3056.6859	3071.2736	3104.2566	3108.7247	3112.506	3167.2895
COCC1COC(C)=N1	COC[C@H]1COC(=N1)C	
InChI=1S/C6H11NO2/c1-5-7-6(3-8-2)4-9-5/h6H,3-4H2,1-2H3	InChI=1S/C6H11NO2/c1-5-7-6(3-8-2)4-9-5/h6H,3-4H2,1-2H3/t6-/m0/s1
