22
gdb 36965	5.74455	0.56211	0.53818	1.7868	84.11	-0.2316	0.0916	0.3232	2071.1101	0.19346	-404.291684	-404.282069	-404.281124	-404.327592	34.728	
C	 0.0700991076	 1.481264553	-0.1241889803	-0.173812
C	-0.0252459555	-0.0244344043	-0.401799369	-0.223106
C	-1.4115357862	-0.5650717098	-0.1509122157	 0.101128
C	-1.6516702492	-1.9052775317	 0.3964284577	-0.181916
O	-1.7873161214	-0.74487725	 1.2190535868	-0.23695
C	 1.4757488698	 2.038153641	-0.3464387701	-0.144603
N	 1.5066854876	 3.4790285709	-0.1222795606	-0.059887
C	 1.7682961006	 3.9121405662	 1.2468763316	-0.218666
C	 2.8070543465	 4.0587744818	 0.190228256	-0.221235
H	-0.6293137063	 2.0285134547	-0.7675334602	 0.106809
H	-0.2394952979	 1.6736185012	 0.9098800355	 0.116297
H	 0.2524581971	-0.2320781167	-1.4444587541	 0.099263
H	 0.6842819385	-0.5697343552	 0.2325207505	 0.101036
H	-2.2010312583	-0.1235460482	-0.7633625375	 0.089937
H	-2.5788392921	-2.4298738138	 0.1688540567	 0.112778
H	-0.803104604	-2.5473065213	 0.6310630117	 0.110342
H	 2.1948715912	 1.5048323626	 0.3047537615	 0.075607
H	 1.7906929149	 1.8554123611	-1.3820117094	 0.099088
H	 1.2012326018	 4.7722207991	 1.5910377628	 0.116689
H	 1.9347303997	 3.1443074456	 2.0015845821	 0.109062
H	 3.6655685791	 3.3902881133	 0.2439654213	 0.106622
H	 3.0132022063	 5.0282874602	-0.2544323473	 0.115518
50.6432	61.8468	101.0379	119.399	151.0363	229.699	282.6472	384.9834	392.6139	447.2865	515.64	750.6043	768.6187	794.9427	839.7582	857.8011	890.7353	902.9116	951.5026	1009.2986	1027.7371	1038.0245	1061.3667	1073.342	1109.959	1114.2858	1118.7926	1146.8279	1158.3791	1168.0968	1176.9686	1194.9349	1240.2605	1269.6763	1296.0611	1312.1599	1320.9432	1328.8984	1365.1612	1409.0886	1449.5027	1472.8095	1486.2994	1493.8031	1506.629	1524.8491	1531.3149	2918.0098	3014.1909	3032.6004	3036.7653	3053.786	3078.5661	3080.7881	3090.3679	3091.1091	3095.5738	3164.6577	3174.4252	3188.8965
C(CC1CO1)CN1CC1	C(C[C@H]1CO1)CN1CC1	
InChI=1S/C7H13NO/c1(2-7-6-9-7)3-8-4-5-8/h7H,1-6H2	InChI=1S/C7H13NO/c1(2-7-6-9-7)3-8-4-5-8/h7H,1-6H2/t7-/m0/s1
