24
gdb 88594	2.63399	1.0652	0.90995	1.4251	90.77	-0.2066	0.0794	0.2861	1444.1708	0.216013	-368.369696	-368.359221	-368.358277	-368.405606	38.805	
C	-0.5945656556	 1.7825245536	 0.4030040161	-0.403386
C	 0.0582313709	 0.538960653	-0.1621304949	-0.003743
C	 1.4180080924	 0.5902767505	-0.8100156619	-0.30824
C	 1.2361109121	-0.1562847222	 0.4969042177	-0.003697
C	 1.8595070704	 0.369562556	 1.7528345131	-0.023101
C	 1.8106179814	-0.365282011	 3.059314815	-0.009143
C	 1.1142099686	-1.698362296	 3.2371517004	-0.413887
N	 3.0791411514	-0.1987457691	 2.3426773314	-0.115295
C	 3.7421751778	-1.337946987	 1.7278639249	-0.309286
H	 0.1393438358	 2.4950900101	 0.7888964637	 0.119795
H	-1.1702726994	 2.2987399471	-0.373193748	 0.115718
H	-1.2825277563	 1.5386555566	 1.2202917731	 0.116977
H	-0.6494920594	-0.1426582886	-0.628000527	 0.082133
H	 1.5986037866	 0.0223815313	-1.716336689	 0.10742
H	 1.9524686446	 1.5349905349	-0.7659062146	 0.111476
H	 1.2201978333	-1.2361930787	 0.4060822869	 0.07782
H	 1.8555731153	 1.4578119835	 1.8051850813	 0.078134
H	 1.766229586	 0.2466251217	 3.9615655334	 0.081477
H	 1.0846539594	-2.3014042398	 2.3281700261	 0.118837
H	 1.6078495639	-2.2915927505	 4.0151429114	 0.120617
H	 0.0792934796	-1.5347720308	 3.5566288407	 0.121734
H	 3.0863466352	-2.1094606848	 1.3003101443	 0.095974
H	 4.3924063195	-0.9737933616	 0.9259172982	 0.123229
H	 4.3765522465	-1.8200311182	 2.4792291577	 0.118438
30.2469	110.1663	151.0181	159.9555	178.3949	199.433	221.6185	266.483	297.2509	379.6978	423.5546	474.737	503.563	581.8999	722.6842	766.8105	779.4258	834.4555	867.3529	899.9092	938.5829	980.313	1021.9931	1033.7797	1048.3548	1072.448	1104.9502	1119.8889	1138.5885	1148.0768	1155.569	1171.3854	1191.1968	1200.0544	1212.9781	1252.6377	1320.6813	1354.0752	1398.381	1401.8613	1416.2007	1424.3729	1450.8786	1467.2569	1485.8921	1492.1444	1494.5171	1495.8243	1504.5352	1505.916	1510.7906	2996.7251	3030.7917	3036.2304	3064.6599	3080.766	3087.5848	3090.3855	3096.646	3097.5377	3110.8333	3123.3757	3129.4095	3132.7175	3169.9608	3208.1301
CC1CC1C1C(C)N1C	C[C@H]1C[C@H]1[C@H]1[C@@H](C)N1C	
InChI=1S/C8H15N/c1-5-4-7(5)8-6(2)9(8)3/h5-8H,4H2,1-3H3	InChI=1S/C8H15N/c1-5-4-7(5)8-6(2)9(8)3/h5-8H,4H2,1-3H3/t5-,6+,7+,8+,9?/m0/s1
