18
gdb 70510	2.38023	1.92213	1.23886	5.2925	79.19	-0.2072	-0.022	0.1852	1025.1712	0.149074	-401.979015	-401.970995	-401.970051	-402.011133	31.516	
C	-0.0454410413	 1.5038958172	 0.0090227889	-0.458726
C	 0.0171698145	-0.0079617081	-0.0014907119	 0.189955
C	-0.8146508827	-0.7795841178	 1.0137040288	-0.336975
C	 0.6850938291	-0.7448638775	 1.1503298625	-0.036892
N	 1.4703782735	-1.9021701433	 0.8414351267	-0.299517
C	 1.3853697503	-2.4927498948	-0.3791295225	 0.018567
C	 0.7675776289	-1.9365508278	-1.4517880823	-0.236932
C	 0.1455839161	-0.6254037537	-1.3812685525	 0.328026
O	-0.2381209593	-0.0058654092	-2.3628364664	-0.368758
H	 0.8732718218	 1.9395479986	-0.3963802114	 0.125132
H	-0.8737666869	 1.8428515973	-0.6174906621	 0.144894
H	-0.189852361	 1.8865702944	 1.0241952049	 0.100861
H	-1.3987062197	-0.1988333265	 1.7191161953	 0.120663
H	-1.2720972555	-1.7090468718	 0.6934473612	 0.126971
H	 1.1127598596	-0.1451133675	 1.9474769746	 0.105962
H	 1.7930585112	-2.4590174535	 1.6156169814	 0.25292
H	 1.8877667244	-3.4526946758	-0.4538541577	 0.123365
H	 0.7990622268	-2.4284860903	-2.4149052074	 0.100486
108.4687	180.9077	225.4095	257.7484	303.6239	340.7121	414.6548	455.6937	492.5064	527.4923	536.6699	657.0436	738.8673	785.2391	826.6735	834.8888	887.4559	904.0773	962.8364	976.8401	1025.2602	1043.0992	1046.5713	1106.8859	1120.1446	1146.0232	1185.7582	1259.8299	1290.9621	1331.3226	1410.2721	1416.1945	1426.1314	1475.3105	1482.2934	1497.4271	1533.2099	1661.2531	1737.1753	3038.9828	3104.4774	3126.6815	3133.8378	3156.7763	3176.4329	3222.4176	3225.2742	3638.1898
CC12CC1NC=CC2=O	C[C@]12C[C@H]1NC=CC2=O	
InChI=1S/C7H9NO/c1-7-4-5(7)8-3-2-6(7)9/h2-3,5,8H,4H2,1H3	InChI=1S/C7H9NO/c1-7-4-5(7)8-3-2-6(7)9/h2-3,5,8H,4H2,1H3/t5-,7+/m1/s1
