22
gdb 17070	5.78211	0.95801	0.92078	0.0659	82.6	-0.2672	0.0914	0.3586	1357.1684	0.201306	-313.049144	-313.040796	-313.039852	-313.082584	31.695	
C	-0.1755735152	 1.5766574967	-0.0849457673	-0.241802
C	-0.2210242209	 0.067292046	-0.2105903911	 0.042524
C	-0.1862524299	-0.8027834381	 1.0218384791	-0.254771
C	-1.4488756622	-0.7037824126	 0.1993164497	-0.27812
C	 1.2409177923	 2.1316893442	 0.0136814598	 0.075776
C	 2.1737350257	 2.0664883363	-1.2322388076	-0.217347
C	 2.7089948891	 3.4746140606	-0.8577241427	-0.209652
C	 1.4500776708	 3.6727507172	 0.0286833825	-0.237757
H	-0.6807381123	 2.034800646	-0.9476510618	 0.087482
H	-0.7492970475	 1.8814204375	 0.8018113465	 0.086763
H	 0.3116412263	-0.3235414847	-1.0744904796	 0.082032
H	 0.3774351584	-1.7288023778	 0.9920928058	 0.107752
H	-0.1741747301	-0.3091885663	 1.9886675103	 0.107389
H	-2.2808803014	-0.1446417419	 0.6156017875	 0.10765
H	-1.7460283392	-1.5617381763	-0.3938939544	 0.107858
H	 1.7496567538	 1.6806793493	 0.8741037105	 0.068733
H	 2.8916595486	 1.2449178865	-1.2958914486	 0.092505
H	 1.5930121728	 2.0919555264	-2.1611717157	 0.094209
H	 3.6210686446	 3.4135650979	-0.2567897335	 0.099674
H	 2.8779638066	 4.1870908172	-1.6686997947	 0.093137
H	 0.6502538092	 4.1844644032	-0.5178125647	 0.094761
H	 1.5742494507	 4.1631309928	 0.9977776901	 0.091202
67.3174	79.5874	124.2842	161.0259	297.6714	326.6362	414.5035	425.8006	634.217	755.9102	780.2832	785.3159	805.458	834.9086	873.8209	897.4778	934.0418	934.1886	955.809	976.3487	983.4422	1023.3406	1056.9923	1076.8308	1107.6016	1127.4318	1143.4773	1182.868	1198.8265	1205.1134	1224.5464	1236.1729	1255.9296	1261.6154	1272.8286	1276.8497	1302.1208	1325.8025	1384.0554	1416.1564	1468.8828	1477.5957	1481.5817	1487.0085	1507.2719	1510.7511	2995.3768	3023.1162	3037.559	3039.5339	3045.5078	3055.1504	3091.4694	3095.5071	3112.9128	3125.1499	3128.7222	3132.9244	3202.4537	3217.8543
C(C1CC1)C1CCC1	C(C1CC1)C1CCC1	
InChI=1S/C8H14/c1-2-7(3-1)6-8-4-5-8/h7-8H,1-6H2	InChI=1S/C8H14/c1-2-7(3-1)6-8-4-5-8/h7-8H,1-6H2
