16
gdb 81119	2.63778	1.71758	1.27475	1.8714	76.34	-0.2342	-0.0038	0.2304	993.8177	0.124553	-400.662235	-400.654819	-400.653875	-400.693749	30.262	
O	 0.2064953611	 1.3247459547	-0.1760665208	-0.435346
C	 0.0993514132	-0.041356875	-0.049926177	 0.184312
C	 0.0270599933	-0.6335362776	 1.4204210095	-0.130869
N	-1.3824472271	-0.1142500246	 1.4144135403	-0.367282
C	-1.3975472018	-0.6481950505	-0.0008686366	 0.176183
C	-1.0496260595	-2.1323597269	 0.1539498128	-0.143091
C	-0.1047428279	-2.1184622415	 1.1022238621	-0.100074
C	-2.4443137322	-0.2327691854	-0.8945759963	 0.053013
C	-3.3058154758	 0.1248750065	-1.6530633011	-0.336639
H	-0.4377511763	 1.6983601185	 0.4437816509	 0.292883
H	 0.786731944	-0.5193580017	-0.747653466	 0.099074
H	 0.6893653315	-0.2943897399	 2.2155990213	 0.079822
H	-2.0030567084	-0.6454285507	 2.0279730545	 0.210669
H	-1.4435497684	-2.9389196644	-0.4464491746	 0.118937
H	 0.4963161428	-2.9257720347	 1.4950753868	 0.114244
H	-4.0673071487	 0.4420948933	-2.3217557658	 0.184163
124.7328	158.1305	275.5531	317.5566	465.7292	471.4748	505.289	540.1425	564.5504	598.3175	622.5988	643.4501	659.5915	703.9248	734.3477	850.444	865.4353	894.4197	905.6648	939.8974	980.0598	1007.1711	1067.4721	1084.3095	1160.2424	1175.064	1193.8954	1249.8658	1270.999	1302.9373	1315.0309	1318.22	1438.3734	1603.1499	2239.853	3130.0388	3135.9449	3229.3768	3256.5812	3438.1443	3502.4755	3732.1189
OC1C2NC1(C=C2)C#C	O[C@H]1[C@H]2N[C@@]1(C=C2)C#C	
InChI=1S/C7H7NO/c1-2-7-4-3-5(8-7)6(7)9/h1,3-6,8-9H	InChI=1S/C7H7NO/c1-2-7-4-3-5(8-7)6(7)9/h1,3-6,8-9H/t5-,6-,7+/m0/s1
