13
gdb 9204	7.48922	0.88869	0.80235	2.955	56.4	-0.2941	-0.0084	0.2857	1301.1826	0.093037	-435.759354	-435.750625	-435.74968	-435.794399	28.308	
O	 0.0655935163	 1.3247711208	 0.0069649065	-0.391592
C	-0.0510735335	-0.0719536971	 0.0027899635	-0.188684
C	-1.5253498124	-0.4309256475	 0.014473626	 0.450819
O	-2.4555030926	 0.3229112638	 0.026834896	-0.31966
O	-1.6511848358	-1.7857344793	 0.0089129384	-0.242206
C	-3.0063357168	-2.2441402785	 0.0193842112	-0.200487
C	-2.9890099297	-3.7052915743	 0.0108149751	 0.268109
N	-3.0122268323	-4.8593107629	 0.0043407963	-0.287273
H	 1.0015521434	 1.5452199518	-0.0002665771	 0.300169
H	 0.3952999836	-0.544155527	-0.8865842044	 0.130226
H	 0.4106857116	-0.5506488029	 0.8807977654	 0.13022
H	-3.5282652541	-1.8771392375	 0.9090664059	 0.175155
H	-3.5453437678	-1.8669741795	-0.855738513	 0.175203
26.4856	66.7801	113.4759	151.2136	207.804	237.2131	307.6857	376.0652	406.4991	561.8132	586.8983	694.7318	899.8294	983.8651	1015.7765	1037.5817	1038.7585	1137.1742	1188.4912	1246.6988	1249.0855	1254.4366	1389.3702	1459.6259	1484.2981	1496.4591	1859.2523	2377.2526	2981.1317	3007.5684	3057.6657	3097.0073	3840.4984
OCC(=O)OCC#N	OCC(=O)OCC#N	
InChI=1S/C4H5NO3/c5-1-2-8-4(7)3-6/h6H,2-3H2	InChI=1S/C4H5NO3/c5-1-2-8-4(7)3-6/h6H,2-3H2
