17
gdb 54617	3.70352	1.0362	0.82193	4.4612	78.32	-0.2473	-0.0894	0.1579	1345.7428	0.134698	-421.887902	-421.879128	-421.878184	-421.922443	31.383	
C	-0.0093280904	 1.5007027805	-0.0039842893	-0.491021
C	-0.0082351773	-0.0141598467	 0.030110832	 0.309396
O	-0.0128311467	-0.6322209148	 1.0733848559	-0.286586
C	-0.0012487113	-0.7378833023	-1.2839584064	 0.225742
C	 0.000328252	-2.077561798	-1.3800937316	-0.263348
C	 0.0076343209	-2.5049251277	-2.7993898589	 0.398435
O	 0.0110252162	-3.6386177613	-3.216688665	-0.321622
C	 0.0100969969	-1.2247171941	-3.6505946861	-0.339492
C	 0.004891895	-0.0594116647	-2.6415065352	-0.341201
H	 0.8723681172	 1.8754603372	-0.5362595268	 0.143487
H	-0.8870313479	 1.8739166209	-0.5439052371	 0.143514
H	-0.0141396952	 1.8867529382	 1.0153195367	 0.148754
H	-0.00309287	-2.7672595096	-0.5467613504	 0.141778
H	 0.8901392801	-1.2245260449	-4.3000192094	 0.140592
H	-0.8648696308	-1.2260625307	-4.3068744472	 0.140616
H	-0.8698150098	 0.5905464212	-2.7608361441	 0.125459
H	 0.8803906511	 0.590979507	-2.752498607	 0.125496
40.8562	93.9087	134.5128	149.9768	177.155	338.0307	365.1498	439.38	500.137	545.243	602.3097	611.2637	639.6271	826.5932	832.2142	849.2918	924.522	971.6477	998.1388	1016.0063	1043.7693	1048.3214	1157.82	1164.4908	1231.2589	1234.0783	1263.4014	1287.4658	1339.8519	1382.2524	1448.6239	1459.2797	1473.539	1483.0448	1652.6171	1783.6777	1813.2192	3033.1173	3038.0348	3061.5294	3068.4521	3095.027	3109.2824	3158.6129	3238.8761
CC(=O)C1=CC(=O)CC1	CC(=O)C1=CC(=O)CC1	
InChI=1S/C7H8O2/c1-5(8)6-2-3-7(9)4-6/h4H,2-3H2,1H3	InChI=1S/C7H8O2/c1-5(8)6-2-3-7(9)4-6/h4H,2-3H2,1H3
