17
gdb 108905	3.60294	1.05691	0.91927	3.0124	70.38	-0.2216	-0.02	0.2016	1278.8209	0.136109	-455.165473	-455.156656	-455.155712	-455.19979	31.016	
C	 0.2387850447	 1.4033482031	 0.2623025515	-0.234572
O	 0.0093865306	 0.0110442557	 0.0195326865	-0.259419
C	 0.5507903898	-0.4695318188	-1.0972524811	 0.493744
N	 1.2601577082	 0.1886255534	-1.9403156589	-0.391041
C	 1.5964175057	-0.7844948331	-2.9917380594	-0.071303
C	 1.1922583972	-2.1835292909	-2.4503195963	-0.19949
N	 0.2848728091	-1.7971332958	-1.3652032466	-0.362772
C	 0.8550135898	-0.4081601051	-4.2737162557	 0.159249
O	 0.3332933893	-1.1935596646	-5.0223005407	-0.243035
H	 1.3097262475	 1.6085297811	 0.3369747377	 0.142603
H	-0.1796310472	 2.0066536175	-0.5472268768	 0.143563
H	-0.2623209283	 1.6244300472	 1.2049289265	 0.132543
H	 2.6677791406	-0.7286294325	-3.2314084664	 0.103047
H	 0.687388279	-2.773680935	-3.218634471	 0.140602
H	 2.0607689394	-2.7402355547	-2.0776866953	 0.103944
H	 0.1400008906	-2.4180324635	-0.5836202426	 0.24941
H	 0.8341262442	 0.6866665158	-4.4622395715	 0.092925
59.9742	104.4694	132.1874	142.368	198.6627	255.9737	291.2193	413.2149	487.6212	499.502	604.6896	725.8454	731.0012	736.7204	826.4827	934.3228	992.5802	1024.2936	1051.7479	1065.4593	1100.6386	1116.9814	1182.8755	1209.683	1227.9294	1250.8599	1303.6087	1323.0225	1348.6159	1404.2774	1453.9694	1477.4559	1495.5296	1505.1257	1541.7212	1695.0481	1828.7786	2909.5767	3002.6744	3026.4584	3051.0517	3103.5644	3126.8602	3157.5013	3622.5931
COC1=NC(CN1)C=O	CO[C]1[N][C@@H](CN1)C=O	
InChI=1S/C5H8N2O2/c1-9-5-6-2-4(3-8)7-5/h3-4H,2H2,1H3,(H,6,7)	InChI=1S/C5H8N2O2/c1-9-5-6-2-4(3-8)7-5/h3-4H,2H2,1H3,(H,6,7)/t4-/m0/s1
