17
gdb 83703	2.74047	1.72412	1.25409	0.3685	69.13	-0.234	0.0202	0.2542	998.7578	0.138705	-455.141675	-455.134207	-455.133263	-455.173486	29.583	
N	-0.0439448929	 1.3354253867	 0.206516322	-0.562119
C	-0.0730350804	-0.0256174475	 0.1068456168	 0.335318
N	-1.1366298087	-0.7425422323	 0.1180041609	-0.291364
C	-0.7581159246	-2.140283418	-0.0392985759	-0.044731
C	-0.814303265	-2.6247436984	-1.5047079029	-0.077616
O	 0.6252320362	-2.4604325313	-1.6490115307	-0.311679
C	 0.7795923366	-2.1974714536	-0.2317767176	 0.066982
C	 1.2674099304	-0.7618013289	 0.0013966927	 0.02604
O	 2.0862188071	-0.2643461772	-1.0372884751	-0.439517
H	 0.7691188946	 1.771017044	-0.2037468082	 0.264961
H	-0.9176348997	 1.8103932496	 0.0338096443	 0.257641
H	-1.2305725482	-2.7811310944	 0.7071620765	 0.082659
H	-1.0994072805	-3.6740074415	-1.6438201382	 0.10474
H	-1.3768817137	-1.9843206257	-2.1903676039	 0.113958
H	 1.3689910963	-2.9733408637	 0.2631331125	 0.078693
H	 1.8353045347	-0.6611368568	 0.9339585225	 0.101006
H	 1.7630723277	-0.7037354909	-1.8393040556	 0.295026
101.7651	175.7434	252.5892	267.1207	384.7653	433.8247	483.4497	509.3833	544.1097	577.2182	663.0789	668.5408	742.9429	814.4075	864.8061	884.7095	893.3123	964.6524	991.2537	1023.7089	1062.1152	1084.0489	1111.058	1156.0367	1182.8118	1226.4476	1248.4612	1266.7854	1298.396	1318.2503	1328.8868	1346.4919	1414.1399	1441.8999	1511.0255	1625.4261	1721.5359	3030.0847	3042.5915	3077.338	3091.5348	3099.4776	3568.5967	3681.0135	3708.6552
NC1=NC2COC2C1O	NC1=N[C@H]2CO[C@H]2[C@H]1O	
InChI=1S/C5H8N2O2/c6-5-3(8)4-2(7-5)1-9-4/h2-4,8H,1H2,(H2,6,7)	InChI=1S/C5H8N2O2/c6-5-3(8)4-2(7-5)1-9-4/h2-4,8H,1H2,(H2,6,7)/t2-,3+,4+/m0/s1
