24
gdb 76638	2.72265	1.13159	0.93878	1.2642	90.48	-0.2104	0.0767	0.2872	1391.6614	0.216598	-368.376192	-368.366167	-368.365222	-368.411663	37.372	
C	-1.1093630267	 0.9710804442	-1.3417328323	-0.415292
C	-0.4036106556	-0.1754892809	-0.6478519521	-0.003087
C	 1.0752653774	-0.3966852294	-0.7136376355	-0.003104
C	 2.0220497962	 0.502614955	-1.4811288183	-0.415316
N	 0.431612462	-0.0120234207	 0.5509184393	-0.115252
C	 0.6529136798	 1.2970750447	 1.1284701588	 0.099973
C	-0.3311074935	 1.717861379	 2.2529371484	-0.232454
C	 0.8817681244	 2.27074354	 3.0501427949	-0.214093
C	 1.8079453636	 1.3968972539	 2.1608343352	-0.232495
H	-0.4818319866	 1.8537989592	-1.4755732467	 0.11947
H	-1.4461458107	 0.6517460214	-2.3340561212	 0.119454
H	-1.9971756562	 1.2764706271	-0.7768365513	 0.124949
H	-1.0265387934	-1.068922717	-0.5909995944	 0.082519
H	 1.412596409	-1.4337493522	-0.6994542009	 0.082528
H	 1.6704939815	 1.5317447789	-1.5717191536	 0.119493
H	 3.0058732946	 0.5281910437	-0.999437092	 0.124937
H	 2.1634434012	 0.1115338923	-2.4946200109	 0.119468
H	 0.7434900361	 2.1107998032	 0.3952412408	 0.049158
H	-1.1403668072	 2.4057204079	 1.9949193887	 0.088664
H	-0.7538994518	 0.8279543073	 2.7270416716	 0.107647
H	 1.0346134816	 3.3395922801	 2.8753776903	 0.098772
H	 0.9013041123	 2.0919599207	 4.1271967164	 0.097759
H	 1.9897678573	 0.4162552619	 2.6088694988	 0.10765
H	 2.7585226347	 1.8207139096	 1.8270497263	 0.088653
41.115	111.2938	115.399	140.9736	167.1683	194.5346	264.2167	287.7285	381.2623	467.5716	475.2347	560.8347	613.0757	727.4977	759.202	787.8875	799.7776	879.368	912.8	929.4305	949.5049	955.053	988.9233	1017.5564	1052.5748	1068.9715	1082.6819	1125.1673	1133.9175	1161.2416	1191.2943	1193.8979	1200.7275	1244.873	1249.5567	1259.5491	1274.5384	1295.8158	1342.8254	1377.5241	1380.193	1412.9618	1420.5858	1439.0009	1474.6507	1486.0938	1486.3477	1487.0347	1499.6249	1508.4912	1509.7747	2990.0991	3034.2715	3038.0696	3055.5042	3055.8117	3062.8468	3081.6857	3089.9077	3091.0429	3092.8164	3101.0719	3111.707	3123.4957	3123.5166	3136.2501
CC1C(C)N1C1CCC1	C[C@H]1[C@@H](C)N1C1CCC1	
InChI=1S/C8H15N/c1-6-7(2)9(6)8-4-3-5-8/h6-8H,3-5H2,1-2H3	InChI=1S/C8H15N/c1-6-7(2)9(6)8-4-3-5-8/h6-8H,3-5H2,1-2H3/t6-,7+,9?
