17
gdb 41254	2.99632	2.12929	1.71718	2.9957	70.59	-0.245	0.0544	0.2994	833.4011	0.138381	-421.727036	-421.721123	-421.720179	-421.756992	25.35	
C	 0.0870869081	 1.5099332214	-0.1361711046	-0.206893
O	 1.4863303223	 1.389813534	 0.2675698592	-0.304808
C	 1.2353567968	 0.0526814168	 0.7545629783	 0.167294
C	 1.8416334623	-1.2219118946	 0.1550261966	-0.008791
O	 1.8944530252	-0.9339464233	-1.2601737158	-0.268687
C	 0.4718742265	-0.9743155002	-1.193954081	 0.089306
C	 0.4295303081	-1.9954771249	-0.0447366529	-0.086169
C	-0.7817455375	-1.2233656087	 0.5796171543	-0.348368
C	-0.060747511	-0.0125335977	-0.0403381921	 0.193429
H	-0.4910870401	 2.0922532037	 0.5931033722	 0.105069
H	-0.0112683965	 1.9553123229	-1.1314858704	 0.113246
H	 1.1488094191	 0.0265465456	 1.8473917512	 0.075164
H	 2.7437495348	-1.6894112742	 0.5465542668	 0.084772
H	-0.054869328	-1.0311879298	-2.1457865627	 0.089226
H	 0.4532406693	-3.0738004484	-0.1897822354	 0.08897
H	-1.7001995868	-1.5388660247	 0.0749592026	 0.108504
H	-0.9356479225	-1.2154807278	 1.6610074438	 0.108736
235.36	264.432	398.0569	411.9766	508.4875	605.6191	694.9433	722.0877	759.5028	789.3408	841.988	864.6698	898.6402	919.2584	943.4532	958.6557	975.0472	987.8069	1021.7197	1043.0608	1048.2879	1067.2863	1119.9344	1140.7122	1146.5938	1183.8336	1197.9359	1212.0368	1239.1995	1244.6073	1270.0476	1291.5921	1317.2817	1352.1848	1353.2493	1500.998	1508.8508	3013.829	3035.9862	3053.5051	3076.9695	3112.4039	3129.4515	3134.6519	3146.7511
C1OC2C3OC4C3CC124	C1O[C@@H]2[C@@H]3O[C@H]4[C@@H]3C[C@@]124	
InChI=1S/C7H8O2/c1-3-4-6-7(1,2-8-6)5(3)9-4/h3-6H,1-2H2	InChI=1S/C7H8O2/c1-3-4-6-7(1,2-8-6)5(3)9-4/h3-6H,1-2H2/t3-,4-,5+,6-,7+/m1/s1
