17
gdb 36641	5.91837	0.78668	0.76667	1.4807	75.47	-0.2425	0.0249	0.2675	1474.6847	0.133665	-421.697432	-421.689081	-421.688137	-421.731454	30.898	
C	-0.0974985926	-1.1977370155	-0.1358936968	-0.411372
C	 0.0108072914	-0.015642813	 0.0437423404	 0.278614
C	 0.1136465764	 1.4169140227	 0.281053104	-0.216815
O	 1.2959549084	 1.9230364916	-0.3242331998	-0.261063
C	 1.4160419044	 3.3072511447	-0.207028912	 0.177296
C	 2.091034719	 3.9720778971	 1.0412107211	 0.005783
C	 3.443017934	 3.34593922	 0.6271214459	-0.224207
C	 2.7604269021	 3.9359187956	-0.6305365763	-0.001324
O	 2.3748676618	 5.126442573	 0.1620583191	-0.307947
H	-0.1886866635	-2.2430718158	-0.2999037918	 0.203694
H	-0.7714180733	 1.9286450543	-0.13114585	 0.126666
H	 0.1202823141	 1.6149930273	 1.3648272348	 0.125917
H	 0.5308598227	 3.8475704072	-0.5650651188	 0.08506
H	 1.692515014	 4.1862065713	 2.0330754616	 0.093688
H	 4.3242344607	 3.8894919078	 0.9690520352	 0.108393
H	 3.5426668025	 2.2617020828	 0.6859265466	 0.118297
H	 3.157229158	 4.100825499	-1.6318759932	 0.099321
44.9167	81.5817	107.6124	227.9483	306.2738	337.2099	392.9081	466.7192	559.1462	613.0617	659.8606	680.7461	744.6594	829.2285	870.6381	893.172	922.3187	937.5133	989.2812	1017.5178	1029.8875	1042.7903	1075.823	1108.6681	1127.8843	1172.0128	1178.2333	1204.5103	1229.9305	1255.4158	1262.3194	1291.1511	1353.3879	1426.2553	1478.8799	1499.9212	2249.7403	2968.5407	2991.9681	3041.4804	3084.3397	3117.8366	3128.6541	3165.1507	3505.2295
C#CCOC1C2CC1O2	C#CCO[C@H]1[C@H]2C[C@@H]1O2	
InChI=1S/C7H8O2/c1-2-3-8-7-5-4-6(7)9-5/h1,5-7H,3-4H2	InChI=1S/C7H8O2/c1-2-3-8-7-5-4-6(7)9-5/h1,5-7H,3-4H2/t5-,6+,7+
