20
gdb 77402	2.25269	1.99347	1.27368	1.4249	79.21	-0.2172	0.0748	0.292	1057.5985	0.168197	-403.044123	-403.035291	-403.034346	-403.07678	34.317	
C	 0.0238867277	 1.520628185	-0.1524540745	-0.33617
N	 0.0158015603	 0.0652896458	-0.0327014225	-0.175912
C	-1.136971321	-0.5081335949	 0.733854468	 0.328539
C	-2.562769968	-0.4854928343	 0.2793195514	-0.539511
C	-0.2674689014	-1.7116345167	 1.2068813391	-0.023931
O	-0.6209083315	-1.5817463605	 2.6125194154	-0.33411
C	-0.5279636534	-0.2009163223	 2.1578634148	-0.02704
C	 0.6879203156	-0.4807176368	 1.1901804479	 0.32854
C	 2.1585925823	-0.4145649355	 1.4599270984	-0.539511
H	 1.0122272731	 1.8525240691	-0.4862153714	 0.121531
H	-0.7000005772	 1.8268025216	-0.9144334885	 0.121531
H	-0.2180825108	 2.0558322317	 0.7829132673	 0.093449
H	-2.6635744458	-0.955746735	-0.7039974576	 0.132676
H	-3.1846739303	-1.0327732812	 0.9945410409	 0.139814
H	-2.9447151822	 0.5384765759	 0.2090751009	 0.125152
H	-0.1443751263	-2.7040657019	 0.7742430727	 0.095525
H	-0.7222967232	 0.5858693365	 2.8877500733	 0.091787
H	 2.3859518634	-0.9490861644	 2.387513795	 0.139815
H	 2.7235183599	-0.8748200577	 0.6430815309	 0.132676
H	 2.4995402589	 0.6202636056	 1.5704454184	 0.125152
177.945	204.0308	209.8812	214.4412	218.8757	224.1308	263.4776	288.108	386.6841	551.2262	592.2166	592.6591	698.5011	737.8981	763.7586	797.2711	797.6815	843.362	885.9024	915.2893	1018.0414	1066.4157	1078.8953	1099.2786	1116.7241	1121.7831	1143.4647	1163.8199	1177.157	1190.798	1252.4925	1276.6975	1291.7871	1387.8291	1403.6679	1437.7824	1451.9251	1480.9153	1482.4395	1488.959	1491.9849	1496.774	1497.0091	2949.721	3034.0995	3034.5001	3064.3826	3099.2526	3101.5243	3102.349	3109.1455	3113.0762	3113.1529	3128.6208
CN1C2(C)C3OC2C13C	CN1[C@@]2(C)[C@@H]3O[C@H]2[C@]13C	
InChI=1S/C7H11NO/c1-6-4-7(2,8(6)3)5(6)9-4/h4-5H,1-3H3	InChI=1S/C7H11NO/c1-6-4-7(2,8(6)3)5(6)9-4/h4-5H,1-3H3/t4-,5+,6-,7+
