17
gdb 10411	2.61264	1.94735	1.38494	1.2387	69.95	-0.2309	0.0365	0.2674	948.0866	0.140674	-363.784742	-363.776231	-363.775287	-363.817821	30.961	
C	-0.0078787643	 1.5008810249	 0.1087094593	-0.332691
N	-0.1201877747	 0.0582447208	-0.0882725061	-0.322984
C	 0.6496483753	-0.4733007631	-1.2046232973	 0.055118
C	 2.2082539936	-0.5628829882	-1.01501581	-0.114122
O	 2.127474193	-1.9739532782	-0.7437221851	-0.269811
C	 0.7446879557	-2.0244034995	-1.1354547565	-0.11752
C	 0.2066041199	 0.0922503268	-2.4709856334	 0.347912
C	-0.1255759702	 0.541359838	-3.5352706365	-0.468582
H	 1.0255219272	 1.8645896058	 0.2407205788	 0.098968
H	-0.4373014247	 2.0177210481	-0.7537258638	 0.142021
H	-0.5832492314	 1.7823912463	 0.9946317012	 0.122962
H	 0.1692735396	-0.4272608962	 0.7552769172	 0.226249
H	 2.7931848587	-0.3477445445	-1.9169893642	 0.106598
H	 2.6128574058	 0.002769675	-0.1673256245	 0.103601
H	 0.103251591	-2.4847348144	-0.3751378271	 0.109454
H	 0.5998131653	-2.5288756512	-2.0972654186	 0.112768
H	-0.4292898099	 0.9391187397	-4.4721255034	 0.200058
68.5039	124.2359	168.3788	183.8616	205.411	271.9431	385.3733	420.4084	526.3106	541.214	622.1112	629.7225	653.3865	766.0047	839.9004	906.3082	944.206	985.1416	1030.7385	1041.247	1078.924	1110.3861	1155.4393	1163.1854	1163.4102	1203.2474	1295.5742	1299.7897	1363.8835	1455.0907	1484.5881	1494.7873	1504.8673	1521.2878	1532.3936	2236.926	2959.9319	3015.3665	3027.9994	3070.8684	3078.5776	3079.5281	3122.7005	3500.6428	3514.76
CNC1(COC1)C#C	CNC1(COC1)C#C	
InChI=1S/C6H9NO/c1-3-6(7-2)4-8-5-6/h1,7H,4-5H2,2H3	InChI=1S/C6H9NO/c1-3-6(7-2)4-8-5-6/h1,7H,4-5H2,2H3
