17
gdb 47938	2.4397	1.60566	1.10935	4.0574	65.01	-0.2559	-0.0073	0.2486	1079.2371	0.136892	-496.102055	-496.0941	-496.093155	-496.135051	29.47	
O	-0.0160692842	 0.1915436521	 1.0267822526	-0.301708
C	-0.0361802868	 1.1528433823	 0.3113496113	 0.397759
C	-1.3469813036	 1.902818181	 0.0033084075	-0.210666
O	-1.7989062972	 1.7035382319	-1.3190796745	-0.240514
C	-1.3065903621	 2.5548639819	-2.3410387065	-0.10746
C	 0.0534763214	 2.135842919	-2.9076947683	-0.078031
O	 1.207574122	 2.7270392007	-2.3142726301	-0.232721
C	 1.2457545293	 2.8165881734	-0.9346290185	 0.025508
O	 1.123030551	 1.5544895233	-0.280788262	-0.222302
H	-2.0889660617	 1.4425980856	 0.6573657207	 0.147187
H	-1.2864063459	 2.9717076212	 0.2535899768	 0.113813
H	-2.0418255796	 2.4692768336	-3.1476280971	 0.126259
H	-1.2948467424	 3.6070330668	-2.0174666753	 0.106286
H	 0.1176387597	 1.0411368883	-2.8550717056	 0.127674
H	 0.1121618601	 2.430050542	-3.9595306403	 0.120909
H	 2.2428195344	 3.185188622	-0.6856506137	 0.136204
H	 0.4942779256	 3.5108877847	-0.5403080769	 0.091803
61.2002	134.0963	187.0154	248.2409	292.1899	359.845	418.4841	458.5901	493.6426	513.9636	607.1026	718.7393	798.9022	824.8373	894.0595	993.4789	1008.5653	1028.5124	1047.6738	1087.0893	1138.7685	1157.9228	1163.7017	1240.9911	1266.8623	1315.7113	1324.4781	1347.05	1384.9582	1396.7325	1417.5363	1450.3879	1479.9992	1483.5085	1492.9532	1528.307	1847.7707	2994.1575	2998.9262	3029.529	3037.3781	3079.0691	3095.5172	3114.4887	3125.8442
O=C1COCCOCO1	O=C1COCCOCO1	
InChI=1S/C5H8O4/c6-5-3-7-1-2-8-4-9-5/h1-4H2	InChI=1S/C5H8O4/c6-5-3-7-1-2-8-4-9-5/h1-4H2
