18
gdb 37382	2.9286	2.06817	1.88323	2.0225	72.58	-0.2185	0.0871	0.3056	830.5177	0.15213	-401.908472	-401.902636	-401.901692	-401.938228	25.859	
C	-0.0056013605	 1.4706374321	-0.1783289742	-0.257368
C	 1.280744776	 0.7388378595	-0.0037148824	-0.012587
C	 2.0385462783	 0.6835124266	 1.3170605634	 0.043253
C	 1.239776017	 1.2802450792	 2.4873625659	-0.254322
C	 0.1772354526	 0.2033061832	 2.6589949524	-0.129446
C	 0.8529249648	-1.0510258192	 2.1452592571	 0.093683
O	 2.133391766	-0.7171754972	 1.6565930848	-0.259628
C	-0.2999258765	-0.4722182493	 1.3664329806	-0.053102
N	-0.0052845713	 0.0201194807	 0.0387218641	-0.088703
H	-0.3713026898	 2.1117092892	 0.6167706855	 0.118055
H	-0.3048279978	 1.7744707229	-1.1774545249	 0.116003
H	 1.8852899003	 0.5247232597	-0.8824571398	 0.096101
H	 3.0558090079	 1.0654709096	 1.2211707712	 0.083082
H	 1.8679766498	 1.3306190231	 3.3834181529	 0.10882
H	 0.8641744035	 2.2833351489	 2.2806419805	 0.108223
H	-0.4639784169	 0.1987282652	 3.5325140774	 0.088439
H	 0.8260595807	-2.0256897707	 2.6150131164	 0.1032
H	-1.250180734	-0.9930753234	 1.4263314892	 0.096296
268.6422	325.8351	410.655	482.2247	544.0263	575.795	624.1094	709.078	730.9582	769.3324	787.3437	818.6152	871.4376	895.8661	920.9634	939.3076	962.242	998.3287	1035.1147	1048.235	1063.2057	1086.0377	1090.8262	1111.6337	1112.6279	1122.8079	1163.4716	1164.7671	1185.3398	1253.0249	1295.8204	1305.7075	1329.0857	1345.0245	1359.2141	1401.6014	1407.4211	1491.542	1513.2003	3049.4209	3104.6582	3111.7332	3120.8845	3127.7557	3156.4326	3178.7366	3199.9331	3207.4145
C1C2C3CC4C(O3)C4N12	C1[C@H]2[C@H]3C[C@@H]4[C@H](O3)[C@@H]4N12	
InChI=1S/C7H9NO/c1-3-6-7(3)9-5(1)4-2-8(4)6/h3-7H,1-2H2	InChI=1S/C7H9NO/c1-3-6-7(3)9-5(1)4-2-8(4)6/h3-7H,1-2H2/t3-,4-,5+,6+,7-,8?/m0/s1
