20
gdb 108034	4.06067	1.32068	1.17305	1.6553	82.65	-0.2081	0.0054	0.2135	1119.0071	0.172594	-365.979872	-365.972163	-365.971219	-366.012043	30.903	
C	 0.2749899667	 1.4756131814	-0.2649435432	-0.382749
C	-0.1402183207	 0.0532291892	 0.1323493752	-0.288979
C	 0.5725454346	-0.480855843	 1.3480282891	 0.342643
C	 0.7199206795	 0.2470461485	 2.6787309953	-0.303141
C	 2.0774713631	-0.5167038598	 2.8294150949	-0.053109
C	 1.8226564841	-1.8096839476	 3.5632757625	-0.085826
C	 1.1241551873	-2.6045734112	 2.7515204433	-0.07585
C	 1.000602988	-1.9308875668	 1.4306158249	-0.125796
N	 2.0339231855	-0.8685601518	 1.3346446797	-0.171197
H	 1.3587914372	 1.5337283032	-0.404141329	 0.134102
H	-0.2054785975	 1.7717822712	-1.2022896968	 0.11168
H	-0.009601156	 2.2090282072	 0.4960335231	 0.114998
H	-1.2230501875	 0.0158226758	 0.3147517363	 0.101432
H	 0.0529860014	-0.6264593729	-0.7060754594	 0.103941
H	 0.8895182174	 1.3124325896	 2.5112641761	 0.11314
H	-0.0402095898	 0.1128623251	 3.4544885959	 0.094713
H	 2.9519909084	 0.0621138279	 3.1233520778	 0.077989
H	 2.0437950793	-1.967815999	 4.6111117634	 0.102393
H	 0.6883232103	-3.5681708749	 2.9802008412	 0.103429
H	 0.8610920784	-2.5178263219	 0.5271785597	 0.086188
70.2506	155.0796	222.7617	272.3986	338.8304	367.4463	463.1708	551.6291	598.6353	724.0642	730.0922	753.5792	772.6072	813.2696	824.1807	865.8598	873.1628	932.7702	940.5494	970.3667	980.7215	1018.1777	1039.8969	1081.9401	1085.5922	1090.2436	1118.2141	1149.8514	1208.6434	1224.7367	1246.0094	1277.8653	1295.4162	1340.0158	1352.8531	1371.2966	1398.5738	1408.6267	1471.8804	1487.814	1499.4213	1508.3191	1656.1929	3016.0638	3038.6298	3050.5713	3055.8998	3105.5885	3113.0327	3114.6144	3122.7432	3150.8175	3206.8199	3232.3476
CCC12CC3C=CC1N23	CC[C@@]12C[C@H]3C=C[C@@H]1N23	
InChI=1S/C8H11N/c1-2-8-5-6-3-4-7(8)9(6)8/h3-4,6-7H,2,5H2,1H3	InChI=1S/C8H11N/c1-2-8-5-6-3-4-7(8)9(6)8/h3-4,6-7H,2,5H2,1H3/t6-,7+,8-,9?/m1/s1
