19
gdb 90560	2.78889	1.18802	1.03409	4.0383	76.22	-0.2668	0.0027	0.2694	1227.9802	0.158504	-423.017313	-423.008563	-423.007619	-423.051561	32.115	
C	-0.2389205783	 1.6443784088	 0.0151618678	-0.417504
C	 0.1228113954	 0.1638653993	 0.0040474742	 0.04134
C	 1.4362064248	-0.3266777197	-0.6950396997	-0.261791
C	 1.8219796591	-1.0937597351	 0.5769391441	-0.110354
C	 1.9425650559	-0.1643592011	 1.7389600125	 0.10938
O	 2.4208790774	 1.1691512678	 1.6175019355	-0.190122
C	 3.7532507522	 1.3116949752	 1.4539901164	 0.175228
O	 4.2784455655	 2.3802322132	 1.3624724762	-0.275932
C	 0.5683029474	-0.5297370013	 1.303496761	-0.125815
H	 0.5781879325	 2.2548745607	 0.4030642386	 0.148319
H	-0.477102202	 1.9878028312	-0.9977726154	 0.111929
H	-1.1217420373	 1.8226123911	 0.6393836965	 0.112514
H	-0.7142019541	-0.4083257115	-0.4088479743	 0.08153
H	 1.2455023792	-0.9791295404	-1.5485276651	 0.108746
H	 2.1384420211	 0.4536844267	-1.0028569138	 0.110931
H	 2.2451365178	-2.091129501	 0.6048535439	 0.094446
H	 2.2510389718	-0.6257865441	 2.6739512714	 0.112755
H	 4.286230119	 0.3428909579	 1.4164193313	 0.08203
H	-0.1039960277	-1.0227886178	 1.9970310791	 0.09237
41.3526	115.6646	128.1411	212.9353	219.8282	246.1076	317.1143	394.8836	501.6563	540.2184	692.4717	718.9196	733.8799	788.5874	865.6404	873.7355	948.4379	978.6172	997.7394	1008.3192	1030.6542	1052.2953	1076.1475	1106.4648	1123.9865	1148.6724	1170.276	1201.5531	1205.9311	1250.109	1278.7048	1301.7004	1349.9469	1377.779	1410.0623	1415.0766	1442.4342	1492.1802	1495.1511	1507.3639	1866.309	2963.2276	3033.3088	3048.5829	3060.7373	3090.7213	3119.7217	3138.9307	3142.0015	3168.7504	3181.9906
CC1CC2C(OC=O)C12	C[C@H]1C[C@H]2[C@@H](OC=O)[C@@H]12	
InChI=1S/C7H10O2/c1-4-2-5-6(4)7(5)9-3-8/h3-7H,2H2,1H3	InChI=1S/C7H10O2/c1-4-2-5-6(4)7(5)9-3-8/h3-7H,2H2,1H3/t4-,5+,6-,7+/m0/s1
