19
gdb 74081	2.94926	1.35408	1.0133	4.0303	84.7	-0.2321	-0.0358	0.1962	1208.8541	0.1593	-385.931948	-385.923523	-385.922579	-385.964958	32.231	
C	-0.0162085413	 1.4799798542	 0.0422525646	-0.483975
C	-0.0002285538	-0.0116974283	-0.0168862763	 0.313503
C	-0.0225804936	-0.7830701655	-1.1168818663	-0.290378
C	 0.0044043009	-2.2148486348	-0.7585449365	 0.350974
O	-0.0058929338	-3.1729309751	-1.5040003029	-0.366708
C	 0.0478385278	-2.2752223355	 0.7473364812	 0.228943
C	-0.6676687757	-3.4255026009	 1.4258238916	-0.29514
C	 0.8269522815	-3.4082780406	 1.3833995261	-0.295148
C	 0.0456403779	-0.8409593301	 1.2524161177	-0.409937
H	 0.8715928715	 1.857932939	 0.5646890552	 0.137269
H	-0.0476104849	 1.9275204366	-0.9538513071	 0.134762
H	-0.8842758842	 1.8371433038	 0.610519821	 0.137357
H	-0.0558217791	-0.4382120352	-2.1428618307	 0.108585
H	-1.1634504154	-3.2175598382	 2.3681013591	 0.112056
H	-1.1816888403	-4.1184743189	 0.7681828174	 0.135394
H	 1.3186701081	-4.0896598961	 0.6972135063	 0.135389
H	 1.3704555427	-3.1883543292	 2.296177871	 0.112051
H	 0.9386085495	-0.5926993414	 1.8418014218	 0.117505
H	-0.8176708579	-0.613068194	 1.8920699568	 0.117498
81.1238	138.4375	180.8159	235.4776	246.3417	292.5724	361.3356	442.9735	460.4986	527.4094	621.3625	722.1259	737.569	791.8621	852.9314	871.6417	877.1963	906.6468	956.1825	996.7988	999.5615	1014.4619	1064.1968	1066.8316	1093.7633	1140.3264	1160.671	1188.4909	1204.1638	1249.6627	1297.6153	1333.8206	1371.1284	1410.8789	1454.3381	1472.2432	1477.1424	1479.2288	1486.9683	1676.8582	1796.0891	3011.7669	3022.9326	3038.9174	3070.6157	3121.7811	3129.1048	3130.6333	3214.4636	3215.1511	3229.6594
CC1=CC(=O)C2(CC2)C1	CC1=CC(=O)C2(CC2)C1	
InChI=1S/C8H10O/c1-6-4-7(9)8(5-6)2-3-8/h4H,2-3,5H2,1H3	InChI=1S/C8H10O/c1-6-4-7(9)8(5-6)2-3-8/h4H,2-3,5H2,1H3
