14
gdb 74238	2.77059	1.39915	1.01225	2.2585	69.11	-0.2679	-0.0287	0.2392	1140.4575	0.099133	-436.703005	-436.694752	-436.693807	-436.736189	29.826	
C	 0.0317206604	 1.4834292344	 0.0823546199	-0.478074
C	-0.0327299312	 0.0019935267	 0.0045073391	 0.415225
N	-1.0669236436	-0.7307246718	 0.0766454407	-0.276013
C	-0.593518153	-2.1164290632	-0.0514083229	-0.310932
C	-1.211566993	-2.8420979818	-1.151630308	 0.355337
C	-1.7064782225	-3.4423745842	-2.0651826634	-0.443396
C	 0.9384575796	-1.9868810254	-0.2165823887	 0.418524
O	 1.7885014311	-2.8045178291	-0.3452209693	-0.302139
O	 1.1927579085	-0.6252707557	-0.1645081538	-0.228526
H	 0.6630438792	 1.7912493816	 0.921699794	 0.157747
H	 0.4808729489	 1.8879124871	-0.8301130408	 0.159452
H	-0.9735317401	 1.8839169658	 0.2088894794	 0.162782
H	-0.7828811351	-2.6501578148	 0.8904289754	 0.159593
H	-2.1480854393	-3.9756896696	-2.8707445916	 0.21042
80.931	133.3092	156.5796	162.1698	281.1123	301.3267	395.2297	460.4528	547.0963	607.1463	624.2449	639.1757	667.8902	692.9319	748.2354	879.5569	930.686	966.3856	1027.6443	1065.3336	1068.9098	1136.8375	1225.04	1286.9964	1296.2889	1413.6761	1471.3196	1471.8129	1741.3579	1928.6755	2250.2426	3018.8557	3052.6662	3112.4468	3168.6585	3503.0797
CC1=NC(C#C)C(=O)O1	CC1=N[C@@H](C#C)C(=O)O1	
InChI=1S/C6H5NO2/c1-3-5-6(8)9-4(2)7-5/h1,5H,2H3	InChI=1S/C6H5NO2/c1-3-5-6(8)9-4(2)7-5/h1,5H,2H3/t5-/m0/s1
