13
gdb 130697	3.36346	1.79438	1.17879	6.9102	64.96	-0.2712	-0.0396	0.2316	938.5844	0.092699	-448.957889	-448.951342	-448.950398	-448.989135	24.265	
O	 0.0251173671	-0.0691985888	 0.0239099281	-0.351325
C	-0.0099722218	 1.1265656523	 0.0284653758	 0.507702
N	-1.0872078734	 1.9771046017	 0.0574789124	-0.373932
C	-0.7647783607	 3.4028319509	 0.0536856139	-0.293503
C	 0.7328044523	 3.3411596963	 0.0178823665	 0.350468
C	 1.9187211416	 4.0223264959	-0.0096056665	-0.215624
N	 2.9324270962	 3.0939324297	-0.037591784	-0.172054
N	 2.4427630386	 1.8878993405	-0.0292213114	-0.135557
N	 1.1031938162	 2.0377388017	 0.0046744037	-0.035383
H	-2.0226780059	 1.6086574315	 0.0785763642	 0.276902
H	-1.1839472124	 3.9120159303	-0.8225609683	 0.152781
H	-1.1424447091	 3.9071898714	 0.951271716	 0.152756
H	 2.1266420614	 5.0790986266	-0.0111242202	 0.13677
114.261	160.0537	250.6095	306.7003	403.2808	563.7638	640.5812	656.4602	670.5975	704.3671	758.6146	788.5854	841.9533	1003.1727	1024.4057	1046.6786	1104.5831	1125.8903	1191.4398	1193.237	1233.2867	1284.0944	1317.5632	1355.6129	1431.0701	1457.9526	1511.7628	1600.7633	1903.9495	3027.4057	3057.2062	3282.5071	3677.7445
O=C1NCC2=CN=NN12	O=C1NCc2cnnn12	
InChI=1S/C4H4N4O/c9-4-5-1-3-2-6-7-8(3)4/h2H,1H2,(H,5,9)	InChI=1S/C4H4N4O/c9-4-5-1-3-2-6-7-8(3)4/h2H,1H2,(H,5,9)
