19
gdb 82502	2.67607	1.75459	1.43538	2.3042	74.22	-0.2456	0.0709	0.3165	969.461	0.160909	-422.99177	-422.984456	-422.983512	-423.022932	30.753	
O	 0.0739748521	 1.4859114424	-0.0761044179	-0.444291
C	 0.0385682992	 0.0789604417	 0.0177565605	 0.139419
C	 0.137079176	-0.6278369743	 1.4087586154	-0.110507
C	-0.9184747007	 0.1434808068	 2.2202497211	-0.272014
C	-2.1070369952	-0.3076027174	 1.3406008769	 0.416962
O	-3.3167381186	 0.3704439188	 1.415943225	-0.491286
C	-2.108400645	-1.8312341361	 1.5784109788	-0.270518
C	-0.7847174062	-1.7729013368	 0.7971550226	-0.04059
C	-1.3339412041	-0.5707233998	-0.0404019199	-0.131348
H	 0.9920303081	 1.7723295926	-0.0358369512	 0.282231
H	 0.7185746934	-0.3859776388	-0.7101538228	 0.064863
H	 1.0990393817	-0.8451414572	 1.8734412353	 0.057219
H	-1.0232775129	-0.1867523436	 3.2570091844	 0.091173
H	-0.7443876836	 1.2221521041	 2.1941445544	 0.095506
H	-3.1403847004	 1.3099615182	 1.2948875105	 0.281776
H	-2.12548323	-2.1895555523	 2.6124676303	 0.089793
H	-2.8813295417	-2.3357427949	 0.9918261714	 0.103215
H	-0.3052844129	-2.6421393807	 0.3529491928	 0.069418
H	-1.9395747893	-0.6782812131	-0.9390619377	 0.068978
159.3239	269.4952	285.9515	299.7961	358.4698	385.7783	469.019	485.111	548.1879	614.8467	697.22	707.8953	791.1921	817.577	848.8067	892.0053	908.3627	954.6082	981.2601	984.3285	1004.6608	1023.2972	1041.4959	1080.4602	1109.4252	1126.3888	1138.0692	1145.7441	1193.3954	1213.6957	1231.807	1238.1623	1258.8934	1265.2829	1284.0103	1322.1101	1349.4518	1392.4252	1433.778	1483.4113	1511.0497	3002.0375	3045.1249	3060.1509	3105.4052	3107.8455	3112.9489	3129.0375	3142.5453	3803.6352	3815.8426
OC1C2CC3(O)CC2C13	O[C@H]1[C@H]2C[C@]3(O)C[C@H]2[C@H]13	
InChI=1S/C7H10O2/c8-6-4-2-7(9)1-3(4)5(6)7/h3-6,8-9H,1-2H2	InChI=1S/C7H10O2/c8-6-4-2-7(9)1-3(4)5(6)7/h3-6,8-9H,1-2H2/t3-,4+,5-,6+,7-/m1/s1
