22
gdb 103436	2.19789	1.47984	1.40818	1.7225	81.65	-0.2286	0.0786	0.3073	1126.7915	0.192356	-404.298572	-404.288857	-404.287913	-404.332571	36.694	
C	 0.5945537333	-0.5261147493	 1.2370764687	-0.25501
O	 0.0431505543	-0.0658153246	 0.0212610623	-0.281751
C	 0.7095812117	-0.4972352795	-1.1532291288	 0.38993
C	 2.062754172	 0.1841940261	-1.3272994038	-0.463861
C	 0.7320542754	-2.0142038799	-1.3981599159	-0.08991
C	-0.6361195939	-2.5639452323	-1.4227974255	-0.253479
N	-0.1390315352	-1.8991642393	-2.6398558957	-0.14179
C	-0.219829672	-0.4057149306	-2.4051486315	 0.002928
C	-1.6018533292	 0.2099241447	-2.2953216955	-0.401764
H	 0.690202826	-1.6216117719	 1.2492685772	 0.111775
H	 1.579979791	-0.0874463243	 1.4472736842	 0.108581
H	-0.0930306012	-0.2248267525	 2.0312104197	 0.126804
H	 2.756959309	-0.082979578	-0.5240062278	 0.116663
H	 2.5236839213	-0.1154290973	-2.2729454681	 0.127442
H	 1.9399945371	 1.2717393093	-1.3271894089	 0.123792
H	 1.6213660758	-2.637000405	-1.3939517102	 0.087154
H	-0.7396274023	-3.6369761195	-1.5517568918	 0.118504
H	-1.4115499229	-2.0992431168	-0.8222192116	 0.124441
H	 0.3195360689	 0.0632830215	-3.2333494412	 0.080816
H	-2.1572230649	-0.1564521653	-1.4303326595	 0.127051
H	-1.5223430203	 1.2969072871	-2.1947400833	 0.12114
H	-2.1759621037	-0.0087207226	-3.2018252329	 0.120544
90.9299	136.5424	166.6891	181.4196	201.3804	226.3282	285.3568	300.6531	320.5755	367.6938	482.2328	534.4227	555.8753	646.9087	737.8212	773.3143	791.3194	890.68	903.5629	935.0486	981.4599	1019.3818	1057.3305	1098.8	1102.5039	1111.7739	1118.2389	1144.8892	1176.4821	1179.2525	1190.1312	1214.0426	1243.2361	1248.2963	1289.0085	1359.7497	1392.7808	1402.7691	1407.5672	1472.662	1481.6478	1483.9405	1488.3792	1491.4795	1503.476	1507.4132	1508.4186	2988.5747	3034.8702	3041.5634	3042.7304	3058.9874	3105.4694	3106.7834	3112.471	3116.1866	3122.5062	3136.6271	3154.3455	3209.6554
COC1(C)C2CN2C1C	CO[C@@]1(C)[C@H]2CN2[C@H]1C	
InChI=1S/C7H13NO/c1-5-7(2,9-3)6-4-8(5)6/h5-6H,4H2,1-3H3	InChI=1S/C7H13NO/c1-5-7(2,9-3)6-4-8(5)6/h5-6H,4H2,1-3H3/t5-,6+,7+,8?/m0/s1
