18
gdb 55146	3.49031	1.33883	1.25158	12.4995	72.08	-0.1728	0.0018	0.1746	1042.6403	0.151159	-439.039805	-439.032721	-439.031777	-439.07177	28.056	
O	 0.1576604625	 0.4381064354	 0.961033065	-0.479346
C	 0.0862550198	 1.2667760019	 0.0172423765	 0.35854
O	 0.8925021625	 1.6123506855	-0.8461381028	-0.455531
C	-1.282256649	 2.0809884615	-0.0028505421	-0.120849
C	-2.4210814288	 1.3457973856	 0.7441397925	-0.210469
N	-2.6171751452	 2.3112593904	 1.9104531156	-0.106264
H	-3.3143088342	 2.0591341242	 2.6096791628	 0.285393
C	-2.6413819096	 3.6699618546	 1.2216692625	-0.202259
C	-1.1605605634	 3.3208288043	 0.92100382	-0.017813
C	-1.1705093173	 2.6437791048	 2.3174771275	-0.192001
H	-1.5495997127	 2.3708070235	-1.0197092088	 0.088376
H	-3.3713113957	 1.2544940751	 0.2154935088	 0.123654
H	-2.0520375827	 0.3964915936	 1.1354432388	 0.178423
H	-3.3621819367	 3.7308267161	 0.4047038048	 0.146682
H	-2.7992673873	 4.4523838055	 1.9666760961	 0.140653
H	-0.4283600624	 4.0750690169	 0.6543554135	 0.123304
H	-1.1912001849	 3.324118421	 3.1693685945	 0.129505
H	-0.5469549948	 1.7537048299	 2.431924375	 0.210001
59.7385	184.3081	211.9956	346.835	399.8224	458.7863	530.5959	660.6424	668.8357	764.2059	787.7812	810.7051	824.2188	843.9245	861.0937	899.0787	942.9979	958.2911	1018.8446	1030.3925	1039.3858	1090.7737	1110.6156	1142.7295	1158.2561	1211.95	1231.1711	1237.3977	1248.7933	1271.287	1283.4676	1300.1928	1317.0014	1344.1633	1365.0901	1465.8578	1486.227	1520.3526	1785.0087	3058.1036	3075.9617	3078.095	3104.9706	3152.9874	3158.0314	3163.2623	3195.0445	3492.0096
[O-]C(=O)C1C[NH+]2CC1C2	[O]C(=O)[C@H]1C[N@@H]2C[C@H]1C2	
InChI=1S/C6H9NO2/c8-6(9)5-3-7-1-4(5)2-7/h4-5H,1-3H2,(H,8,9)	InChI=1S/C6H9NO2/c8-6(9)5-3-7-1-4(5)2-7/h4-5,7H,1-3H2/t5-/m0/s1
