20
gdb 92270	2.26506	1.69227	1.49517	1.408	78.04	-0.2424	0.0199	0.2622	1031.8044	0.171511	-403.165999	-403.157661	-403.156717	-403.198665	32.394	
C	 0.1305794665	 1.5836022325	-0.0469600752	-0.403372
C	 0.0445050058	 0.0672794095	 0.0321687114	-0.001282
C	 0.9156931236	-0.7766656414	-0.9541851491	-0.271501
C	 1.4097027618	-1.6457240617	 0.2240648459	 0.047085
O	 2.824183895	-1.5355687512	 0.4962168311	-0.229236
C	 2.9169525465	-0.4986870437	 1.3682715032	 0.100258
N	 1.8698411616	 0.0609220288	 1.8146940766	-0.297615
C	 0.7244360118	-0.6720305679	 1.2357357516	 0.291348
C	-0.1812669986	-1.1996567396	 2.3349669469	-0.458501
H	 1.1644201465	 1.9242676768	 0.0575054861	 0.125345
H	-0.2567909964	 1.9413749842	-1.007346365	 0.109242
H	-0.4539816674	 2.0578309606	 0.7482038448	 0.118561
H	-1.004013596	-0.2451774499	-0.0276284116	 0.068609
H	 0.3778797571	-1.3038591729	-1.7452834162	 0.104261
H	 1.7349897976	-0.2116441243	-1.4066884813	 0.110901
H	 1.143694044	-2.703281422	 0.2186270308	 0.087347
H	 3.9340992225	-0.2267248521	 1.6299479162	 0.137936
H	-0.6191779777	-0.3685272208	 2.8968491866	 0.130264
H	-0.9958835829	-1.8004961676	 1.9172550333	 0.109278
H	 0.3805852088	-1.8211305374	 3.0396188738	 0.121071
75.9083	197.7225	218.8644	229.2447	234.4461	311.5858	318.8196	417.2937	478.8162	576.2388	614.2069	634.063	763.7025	820.5071	855.115	876.2157	902.5028	923.4942	931.4878	969.0715	1008.5338	1029.9359	1089.1021	1093.8022	1123.687	1171.6799	1181.3621	1189.3739	1210.3826	1240.2039	1270.5097	1312.7527	1324.0161	1348.645	1376.9381	1404.5717	1410.4606	1475.8695	1484.4755	1490.1472	1491.859	1496.8358	1683.4282	3031.1977	3032.3633	3040.5809	3063.5403	3096.4266	3103.367	3104.3998	3108.0234	3114.5515	3122.6064	3209.6563
CC1CC2OC=NC12C	C[C@H]1C[C@H]2OC=N[C@@]12C	
InChI=1S/C7H11NO/c1-5-3-6-7(5,2)8-4-9-6/h4-6H,3H2,1-2H3	InChI=1S/C7H11NO/c1-5-3-6-7(5,2)8-4-9-6/h4-6H,3H2,1-2H3/t5-,6+,7-/m0/s1
