19
gdb 46797	2.67718	1.65514	1.28941	3.1957	74.47	-0.2328	-0.0242	0.2086	1024.5306	0.160877	-423.02697	-423.019454	-423.01851	-423.059066	29.885	
O	 0.0217719685	-0.0136386192	 0.5472049741	-0.293614
C	-0.0228894196	 1.1229489516	 0.1378463206	 0.359405
C	-1.3846698432	 1.8152126657	-0.0604387368	-0.163969
O	-1.6942380427	 2.2450561318	-1.3729993936	-0.263698
C	-0.7760712751	 3.0814259969	-2.0557452157	 0.135308
C	 0.5165714649	 2.3536393827	-2.5252519119	-0.246438
C	 1.2394318567	 2.9161705027	-1.2651749794	-0.019544
C	 0.1211136325	 3.995339493	-1.1759026316	-0.26555
C	 1.2588715948	 1.9254651071	-0.0973927365	-0.313549
H	-2.1531832319	 1.0873460708	 0.2053579663	 0.131877
H	-1.4415960179	 2.6528258958	 0.6551432229	 0.101683
H	-1.3708734743	 3.5704982742	-2.8303201609	 0.085811
H	 0.4490124258	 1.267822814	-2.6360715352	 0.112454
H	 0.903843195	 2.782584236	-3.4532612539	 0.102968
H	 2.2511141867	 3.2992322422	-1.4190795313	 0.075628
H	 0.393128317	 4.8981747584	-1.7284806802	 0.107368
H	-0.2427507544	 4.2963121122	-0.1903795777	 0.102436
H	 1.4606128287	 2.4668761423	 0.8394905156	 0.123624
H	 2.0643458084	 1.1947803417	-0.2161392248	 0.127799
65.7331	172.3188	291.2168	298.9182	349.2319	411.1321	458.2608	474.983	486.0717	628.0616	765.3089	786.37	803.1568	821.897	866.4343	883.5676	918.868	956.6502	970.3779	1036.7295	1067.3811	1082.3201	1095.566	1131.2786	1158.5518	1192.504	1220.9435	1241.6991	1259.228	1274.782	1285.1654	1300.336	1321.7343	1370.2571	1378.2523	1395.5085	1451.2619	1464.7565	1484.5931	1500.9013	1806.9695	2964.3329	3005.5593	3056.415	3062.4038	3074.4528	3085.3625	3090.86	3113.2614	3115.1266	3119.6143
O=C1COC2CC(C2)C1	O=C1CO[C@@H]2C[C@@H](C2)C1	
InChI=1S/C7H10O2/c8-6-1-5-2-7(3-5)9-4-6/h5,7H,1-4H2	InChI=1S/C7H10O2/c8-6-1-5-2-7(3-5)9-4-6/h5,7H,1-4H2/t5-,7+
