18
gdb 45300	3.28894	1.46249	1.25215	3.2801	77.58	-0.251	0.0114	0.2624	1041.8487	0.150739	-401.989568	-401.982468	-401.981524	-402.021404	28.204	
N	-0.0439899511	 1.3169982645	-0.0057638416	-0.541083
C	-0.0388299313	 0.0545998164	-0.022221193	 0.411764
C	-1.2632692102	-0.8333784701	-0.0446369314	-0.316201
C	-0.7137251431	-2.2095223192	-0.4520388989	-0.08586
C	-0.675507599	-2.481322125	-1.9392906637	-0.070009
C	 0.5509301237	-2.75811737	-2.377676516	-0.063582
C	 1.5722861274	-2.738888468	-1.2657392776	-0.273691
C	 0.7954353935	-2.1229180045	-0.0869587188	 0.09649
O	 1.0898875894	-0.7148743022	-0.0038960418	-0.250204
H	 0.9116471269	 1.6766314018	 0.0279547403	 0.218686
H	-1.7019195497	-0.8574114627	 0.9587597335	 0.129714
H	-2.0194729967	-0.43449485	-0.7223082705	 0.135924
H	-1.2246121516	-3.017051403	 0.0836085592	 0.087269
H	-1.5719013492	-2.4544591723	-2.549201761	 0.099796
H	 0.8101870491	-2.9940205794	-3.4036584678	 0.099773
H	 1.9230447087	-3.7513834347	-1.0259261006	 0.110458
H	 2.4603300749	-2.1403606765	-1.4937842798	 0.125571
H	 1.0475398383	-2.5732388152	 0.8775285094	 0.085183
80.8825	119.1954	263.1979	340.4665	433.0005	472.4586	522.9989	602.4206	654.8689	737.6109	783.4229	817.0345	830.5547	872.6955	889.1388	904.296	929.3226	955.086	977.2648	1014.7593	1026.0617	1060.1705	1063.3223	1106.1914	1133.1815	1172.3666	1203.5535	1242.5954	1257.3271	1289.9107	1312.198	1330.5555	1335.2657	1385.4896	1389.3375	1471.4115	1473.7067	1685.194	1774.8787	3023.3703	3040.1128	3058.2471	3068.1172	3076.9569	3123.5069	3184.249	3209.3882	3469.4821
N=C1CC2C=CCC2O1	[NH][C]1C[C@H]2C=CC[C@H]2O1	
InChI=1S/C7H9NO/c8-7-4-5-2-1-3-6(5)9-7/h1-2,5-6,8H,3-4H2	InChI=1S/C7H9NO/c8-7-4-5-2-1-3-6(5)9-7/h1-2,5-6,8H,3-4H2/t5-,6-/m1/s1
