18
gdb 69787	2.57542	1.87855	1.29745	3.3323	75.27	-0.2265	-0.0236	0.2028	999.1262	0.148669	-401.935186	-401.927511	-401.926567	-401.967051	30.393	
C	-0.0002270963	 1.5447540875	-0.0075177819	-0.470452
C	 0.0663868283	 0.03703304	 0.0367102081	 0.196569
C	-0.8356573658	-0.7385269205	 0.9895410915	-0.325573
C	 0.6521165056	-0.7836912512	 1.1776003993	-0.08431
C	 1.3762822451	-1.9827975344	 0.5689031069	-0.048164
N	 0.48357183	-2.9272269788	-0.1228409035	-0.336265
C	 1.2515446025	-1.9221311759	-0.9101887852	-0.159522
C	 0.4870380866	-0.6531881226	-1.244487925	 0.387879
O	 0.3890724868	-0.1793766916	-2.3506623823	-0.32984
H	 0.9577695988	 1.9794598205	-0.3111377617	 0.122507
H	-0.7523976663	 1.8716786354	-0.7318830608	 0.138832
H	-0.2663002449	 1.9522077234	 0.9723752247	 0.111122
H	-1.4067601485	-0.1212786184	 1.6754960717	 0.112469
H	-1.3315888022	-1.6368629263	 0.6477921258	 0.151081
H	 1.1066590832	-0.2990198509	 2.0337965952	 0.091307
H	 2.2710480794	-2.357440949	 1.0527278403	 0.095865
H	 0.9495460062	-3.8262435012	-0.2259681891	 0.239942
H	 2.0058510515	-2.2582165961	-1.612322534	 0.106553
123.1726	166.2085	211.1058	259.1473	289.7329	377.1572	452.4285	526.8587	585.184	612.8249	676.1396	765.0448	800.8503	825.1925	848.3527	867.2006	890.1309	930.281	969.3106	989.2975	1006.1506	1056.5949	1063.8238	1085.9448	1111.4085	1120.4888	1150.8784	1168.1143	1236.5648	1279.4196	1308.6218	1353.2618	1387.6916	1396.6706	1414.3484	1479.4991	1483.1781	1497.9422	1823.5099	3035.9762	3101.8298	3112.1816	3141.2282	3172.0033	3181.3818	3187.6495	3244.2006	3492.149
CC12CC1C1NC1C2=O	C[C@]12C[C@H]1[C@H]1N[C@H]1C2=O	
InChI=1S/C7H9NO/c1-7-2-3(7)4-5(8-4)6(7)9/h3-5,8H,2H2,1H3	InChI=1S/C7H9NO/c1-7-2-3(7)4-5(8-4)6(7)9/h3-5,8H,2H2,1H3/t3-,4+,5+,7-/m0/s1
