19
gdb 99901	2.06289	1.37158	1.11449	2.6026	76.83	-0.2638	0.0261	0.2899	1208.6757	0.155348	-422.962095	-422.951982	-422.951038	-422.997088	37.129	
C	 0.1359849312	 1.1537379482	 0.4019993934	-0.416595
C	 0.5108021977	-0.2707072565	-0.0111272904	-0.205076
C	 0.7964945526	-0.4153470861	-1.5238011877	 0.142874
O	-0.3185622533	 0.0464931917	-2.2968197346	-0.458134
C	 2.0130690307	 0.3201734657	-1.9053655817	 0.330669
C	 2.9931516612	 0.9394459793	-2.2248722791	-0.500206
C	 0.9668130017	-1.8744805582	-1.9555430668	 0.085816
C	 1.6430889418	-2.8962145084	-1.1536708452	-0.187138
O	 0.2165372528	-2.8694172313	-1.2688867748	-0.230989
H	 0.9267394748	 1.8666255378	 0.1461889683	 0.124896
H	-0.7909980183	 1.4742299877	-0.0833442306	 0.11952
H	-0.0263689079	 1.2073792258	 1.4820481544	 0.120222
H	 1.3973244287	-0.5913274495	 0.5462808472	 0.10232
H	-0.2982498301	-0.9659819405	 0.2269249155	 0.129885
H	-0.299563884	 1.0090984573	-2.2966788232	 0.289004
H	 3.8618951036	 1.4808926643	-2.5090805564	 0.20328
H	 0.9668427855	-1.9767617787	-3.0400306704	 0.111135
H	 2.1379950409	-3.7247163666	-1.6576641301	 0.11943
H	 2.0361491405	-2.6526672221	-0.1691536478	 0.119087
57.3838	104.3949	144.9161	162.4891	197.4985	235.3839	252.0233	307.5936	314.4279	397.9811	439.674	499.7104	565.21	586.0401	641.233	662.437	688.3848	792.0998	866.3974	892.2551	959.8892	966.3878	998.0944	1043.3315	1095.6489	1106.0158	1147.45	1163.7591	1171.463	1187.175	1304.5315	1305.57	1332.6273	1377.1601	1404.5477	1427.1249	1481.6273	1500.4366	1514.2924	1531.3502	2226.4525	3039.1228	3049.5224	3093.2459	3097.9998	3112.6412	3118.4764	3124.381	3180.8349	3498.4908	3822.6105
CCC(O)(C#C)C1CO1	CC[C@@](O)(C#C)[C@H]1CO1	
InChI=1S/C7H10O2/c1-3-7(8,4-2)6-5-9-6/h1,6,8H,4-5H2,2H3	InChI=1S/C7H10O2/c1-3-7(8,4-2)6-5-9-6/h1,6,8H,4-5H2,2H3/t6-,7+/m1/s1
