18
gdb 98990	3.42708	0.82814	0.71356	1.6091	71.53	-0.2537	-0.0447	0.209	1575.4839	0.145209	-476.271121	-476.260841	-476.259897	-476.30805	35.136	
C	-0.8819174188	 1.3621454087	 0.3060102969	-0.333485
N	-1.0674249103	-0.0722800229	 0.4142042865	-0.30024
C	-0.6849061518	-0.9268104254	-0.5650550539	 0.396578
O	-0.1157055585	-0.6039494537	-1.5906098379	-0.366812
C	-0.967091833	-2.4177882293	-0.2722338099	-0.417287
C	-2.3181251806	-2.7408705636	 0.3246369088	 0.352158
O	-2.7699685409	-2.167252194	 1.3000899285	-0.341113
C	-3.1369010097	-3.8363149869	-0.3307113253	-0.126489
O	-4.3335624757	-4.0709818995	 0.3428582675	-0.416331
H	-0.2726834128	 1.5527401033	-0.577878342	 0.169
H	-1.8395354795	 1.8842214795	 0.1969276329	 0.129856
H	-0.3695287847	 1.7552795404	 1.1900304475	 0.128095
H	-1.6153534675	-0.4533441402	 1.1733013853	 0.26628
H	-0.8028594223	-2.9615831167	-1.2035811886	 0.144064
H	-0.2114252623	-2.7567848704	 0.4486224198	 0.164627
H	-3.3084808014	-3.5332771721	-1.3790321907	 0.129578
H	-2.5158237688	-4.7467494674	-0.3785327552	 0.125183
H	-4.3568251814	-3.4208385199	 1.0622544799	 0.296338
35.5266	64.6653	70.9379	122.6915	137.412	200.6978	254.3212	306.1221	369.8661	389.2106	397.4664	484.64	556.4648	656.121	671.7636	746.9854	825.4152	869.354	934.0456	1016.6127	1063.4081	1107.4461	1148.7192	1154.0831	1180.048	1191.4092	1248.5504	1258.1085	1300.4288	1336.7839	1439.7519	1445.062	1451.5107	1484.5035	1497.5921	1500.9353	1585.9114	1770.8725	1793.8258	2961.7653	2983.1736	3030.2498	3040.7519	3084.5433	3130.1226	3155.8281	3582.7459	3700.7286
CNC(=O)CC(=O)CO	CNC(=O)CC(=O)CO	
InChI=1S/C5H9NO3/c1-6-5(9)2-4(8)3-7/h7H,2-3H2,1H3,(H,6,9)	InChI=1S/C5H9NO3/c1-6-5(9)2-4(8)3-7/h7H,2-3H2,1H3,(H,6,9)
