18
gdb 127428	2.37347	1.59692	0.9703	1.7194	77.13	-0.1935	0.0398	0.2333	1205.6767	0.147013	-435.284476	-435.274367	-435.273423	-435.31951	35.411	
C	-0.0598637417	 1.3887558487	-0.0482518754	-0.331216
N	 0.0083104753	-0.0509167764	 0.0187233765	-0.000206
N	-0.0660732703	-0.7965010556	-1.1113120241	-0.347945
C	-0.0104751306	-2.0657950422	-0.7048319204	 0.270851
C	-0.0490512876	-3.1982236421	-1.6795711314	-0.506272
C	 0.0884672154	-2.1300673958	 0.7021287035	 0.070448
O	 0.1156675545	-3.220274277	 1.5405999043	-0.458504
C	 0.0911467011	-0.8182847141	 1.1386360702	 0.304165
N	 0.2333771195	-0.2762876828	 2.4232082247	-0.617488
H	 0.5415744306	 1.8140483195	 0.7591049859	 0.147498
H	 0.3399251626	 1.7018499737	-1.0133188938	 0.153924
H	-1.0897398924	 1.7566892439	 0.0422027811	 0.127571
H	 0.8881489849	-3.7697719777	-1.6849224698	 0.114795
H	-0.8558008755	-3.9022665457	-1.4457174629	 0.127869
H	-0.2092478334	-2.8100612162	-2.6876571734	 0.143084
H	 0.7419211105	-3.8631955181	 1.1934005424	 0.297139
H	 0.4399651718	-1.0228787988	 3.0779620742	 0.256061
H	-0.6037008946	 0.1994230864	 2.7466065185	 0.248226
87.5646	103.1632	124.7314	139.4404	169.2854	232.4638	250.076	265.9564	285.1389	335.6648	352.5028	576.3913	590.0103	619.9862	644.7611	699.6731	756.8671	838.9038	910.5473	1003.6997	1061.7229	1064.8075	1108.0559	1151.3999	1232.7658	1249.2576	1285.5607	1349.3968	1407.1505	1421.6003	1447.2453	1482.8441	1486.6371	1496.1527	1507.9864	1524.1639	1565.984	1638.8812	1672.602	3019.1372	3022.0754	3069.311	3101.2019	3129.7129	3153.3595	3495.7049	3584.9526	3814.6999
CN1N=C(C)C(O)=C1N	Cn1nc(C)c(O)c1N	
InChI=1S/C5H9N3O/c1-3-4(9)5(6)8(2)7-3/h9H,6H2,1-2H3	InChI=1S/C5H9N3O/c1-3-4(9)5(6)8(2)7-3/h9H,6H2,1-2H3
