14
gdb 7231	4.81734	1.28532	1.02091	2.4085	62.9	-0.2429	-0.0779	0.165	1089.8646	0.105646	-415.904753	-415.896201	-415.895257	-415.938658	28.82	
C	 0.1313317536	 1.4899444662	 0.007911857	-0.472132
C	 0.0180072626	-0.0080504477	 0.001493183	 0.314401
O	 0.9599287211	-0.7694879087	-0.0118158096	-0.305102
C	-1.4308593833	-0.564632838	 0.0128167655	 0.319592
O	-2.3890339376	 0.1704638354	 0.0257868195	-0.308187
N	-1.4179325231	-1.9400756188	 0.0049910009	-0.320986
C	-2.4841772668	-2.8340590826	 0.0103274042	 0.084898
N	-3.7004989611	-2.4811651385	 0.0241908739	-0.394842
H	 1.1805551963	 1.784370677	-0.0017051892	 0.142549
H	-0.3953322778	 1.9040791471	-0.8576817661	 0.165735
H	-0.3766521121	 1.8950556604	 0.8888233619	 0.16571
H	-0.4802840491	-2.3225549813	-0.00617854	 0.272098
H	-2.1171471841	-3.8678959233	 0.0008710145	 0.102824
H	-4.2975821885	-3.3068345872	 0.0253174846	 0.233442
65.0899	83.4447	113.6077	160.9764	176.3064	271.353	334.1119	421.2086	501.5872	549.8723	656.0043	708.5022	735.4382	831.5453	927.6547	936.5421	1032.0951	1047.5018	1068.0401	1159.7652	1255.0174	1268.3915	1386.1142	1428.8252	1449.7975	1456.7141	1552.0834	1727.7968	1804.124	1821.0435	3039.859	3052.2598	3112.9956	3166.1924	3499.1799	3572.1649
CC(=O)C(=O)NC=N	CC(=O)C(=O)NC=N	
InChI=1S/C4H6N2O2/c1-3(7)4(8)6-2-5/h2H,1H3,(H2,5,6,8)	InChI=1S/C4H6N2O2/c1-3(7)4(8)6-2-5/h2H,1H3,(H2,5,6,8)
