18
gdb 67895	2.42379	1.82629	1.33857	4.1962	75.4	-0.2204	-0.0137	0.2067	1001.977	0.147098	-401.899726	-401.892012	-401.891067	-401.931638	30.804	
C	-0.0241831139	 1.5415833194	-0.0146212479	-0.494695
C	 0.0030466147	 0.0309133869	 0.0154319752	 0.348961
C	-1.3473663994	-0.7507876608	-0.0237661931	-0.411408
C	-0.9023391569	-1.5248019411	 1.2360453008	 0.441309
O	-1.4293221117	-2.3365557016	 1.9371485019	-0.307159
C	 0.4420165708	-0.7621226037	 1.3080053935	-0.220762
C	 1.6097024783	-1.3678506474	 0.4962598262	-0.04399
N	 1.0177844035	-2.101517352	-0.6499671915	-0.342704
C	 1.1957768328	-0.6339162156	-0.7289233922	-0.104856
H	 0.964011776	 1.960540796	 0.2072977282	 0.118842
H	-0.3268477493	 1.9118176015	-1.0016161591	 0.122054
H	-0.7298237361	 1.9405351205	 0.72174568	 0.12062
H	-2.2200338103	-0.1186480594	 0.1743538198	 0.120034
H	-1.5411987463	-1.3753018224	-0.8973711206	 0.137906
H	 0.7079815715	-0.2635338628	 2.2410486527	 0.088453
H	 2.5911994992	-1.6291683329	 0.870900401	 0.101033
H	 1.7852157195	-2.5329228656	-1.1631357678	 0.234637
H	 1.7904937178	-0.187901679	-1.5182407672	 0.091725
93.3503	229.0304	237.1865	257.8025	304.4485	346.2358	431.1265	486.8084	566.7682	599.2276	644.5267	757.3668	805.1207	814.0127	834.7578	869.5007	891.6284	933.9091	951.8827	966.1904	1004.2299	1046.3077	1063.9338	1087.1873	1100.8577	1132.8454	1157.8395	1182.4994	1210.7809	1225.4876	1277.4835	1298.6546	1324.4335	1373.9355	1413.9223	1423.7891	1491.6393	1496.4353	1892.8811	3020.8766	3053.019	3082.7834	3094.9394	3111.6531	3128.9359	3172.3439	3195.0827	3483.0109
CC12CC(=O)C1C1NC21	C[C@]12CC(=O)[C@H]1[C@H]1N[C@@H]21	
InChI=1S/C7H9NO/c1-7-2-3(9)4(7)5-6(7)8-5/h4-6,8H,2H2,1H3	InChI=1S/C7H9NO/c1-7-2-3(9)4(7)5-6(7)8-5/h4-6,8H,2H2,1H3/t4-,5+,6+,7-/m0/s1
