16
gdb 43340	3.09087	1.85053	1.40239	2.8173	74.08	-0.2373	-0.0555	0.1817	912.2494	0.126722	-400.722232	-400.715755	-400.714811	-400.752999	26.289	
O	 0.0173187222	-0.0568539303	 0.1052405268	-0.340827
C	-0.0127726019	 1.1580352996	 0.0589444178	 0.37241
C	-1.2797780204	 1.9203915827	 0.0226361222	-0.161869
C	-1.2739764554	 3.2581071807	 0.0995118323	-0.042002
N	-0.0721465448	 4.0209475827	 0.2097547689	-0.151981
C	 0.6012635366	 3.8439380599	 1.5613442871	-0.19113
C	 1.7337226846	 3.0899704269	 0.8879554514	-0.089265
C	 1.1202136205	 3.4217536244	-0.4465583691	-0.047449
C	 1.2391761331	 1.9793628751	-0.0558256372	-0.149008
H	-2.1973298501	 1.3477142077	-0.0539653872	 0.113651
H	-2.195253284	 3.8362983754	 0.1368667273	 0.115772
H	 0.9118097533	 4.815944568	 1.9548671702	 0.123278
H	-0.0004825196	 3.31676097	 2.3075670149	 0.118464
H	 2.7741943185	 3.1022953621	 1.184276677	 0.107758
H	 1.5274167236	 3.8660928868	-1.34713016	 0.10652
H	 2.0674885337	 1.4263545884	-0.4883781824	 0.115678
114.3532	250.1673	306.6675	404.0419	444.3183	500.0893	549.143	672.9013	715.7005	755.0765	790.068	825.7437	835.9565	883.4994	914.871	953.9047	983.9022	996.9452	1025.5781	1031.6939	1061.4855	1063.9545	1105.9967	1114.7968	1168.7948	1234.8794	1251.0232	1263.2683	1307.108	1330.1934	1387.8294	1405.218	1505.832	1651.6704	1770.2403	3047.1687	3101.5459	3143.5806	3165.8996	3180.0501	3202.6086	3206.7626
O=C1C=CN2CC3C2C13	O=C1C=CN2C[C@@H]3[C@H]2[C@H]13	
InChI=1S/C7H7NO/c9-5-1-2-8-3-4-6(5)7(4)8/h1-2,4,6-7H,3H2	InChI=1S/C7H7NO/c9-5-1-2-8-3-4-6(5)7(4)8/h1-2,4,6-7H,3H2/t4-,6-,7-/m0/s1
