20
gdb 110590	3.18463	1.35698	1.12271	1.2234	80.26	-0.2294	0.0765	0.3059	1162.6079	0.169872	-403.042508	-403.033945	-403.033	-403.075702	32.428	
C	 0.0179884089	 1.3817520305	-0.2593382979	-0.237286
O	-0.0471898015	 0.1248699487	 0.380686432	-0.260966
C	-1.2799009298	-0.5163198488	 0.2253164978	 0.100851
C	-1.5330776336	-1.3654984777	-1.029065477	-0.058007
C	-0.5985757303	-2.5192673091	-0.5629520408	-0.099181
C	-1.7541112335	-3.4928459104	-0.7537537418	-0.195573
N	-2.5098706424	-2.2722068387	-0.2308357588	-0.200115
C	-1.3068959524	-1.9608492314	 0.7222905797	 0.324144
C	-1.2469568534	-2.4648578195	 2.131756735	-0.529897
H	 0.9991389662	 1.8082031694	-0.0380069189	 0.12855
H	-0.0932205381	 1.2954210751	-1.3503135297	 0.108846
H	-0.7599040479	 2.0655865748	 0.1134533751	 0.108496
H	-2.1214928991	 0.1183541079	 0.543196796	 0.072965
H	-1.7755552749	-1.0785327399	-2.0535387085	 0.076592
H	 0.4736967416	-2.6352688168	-0.7421195558	 0.071612
H	-2.0348384868	-3.7670018486	-1.7762086799	 0.098536
H	-1.8216554019	-4.3662206994	-0.0969358515	 0.099101
H	-1.306696413	-3.5572125743	 2.1719998137	 0.124185
H	-0.3067504055	-2.1564541453	 2.6001406776	 0.135885
H	-2.0744578025	-2.0552973164	 2.7200013736	 0.131262
77.9751	155.1533	163.4343	196.1061	233.0579	260.4497	325.2144	369.6606	519.9519	556.3042	642.2996	706.6751	803.0518	818.9284	863.4083	881.388	914.5941	943.7269	954.9753	1023.042	1031.6105	1075.3835	1078.7996	1100.2013	1142.0136	1156.0042	1170.0197	1183.4688	1185.4784	1209.2213	1232.1	1248.4434	1268.8589	1298.4409	1319.36	1395.129	1421.0713	1482.6642	1483.2734	1485.7376	1489.616	1508.6853	1521.8993	2979.13	2994.7703	3028.9848	3033.3446	3036.9717	3068.6238	3091.5239	3104.0055	3105.6062	3108.1393	3117.1584
COC1C2C3CN2C13C	CO[C@H]1[C@H]2[C@@H]3CN2[C@]13C	
InChI=1S/C7H11NO/c1-7-4-3-8(7)5(4)6(7)9-2/h4-6H,3H2,1-2H3	InChI=1S/C7H11NO/c1-7-4-3-8(7)5(4)6(7)9-2/h4-6H,3H2,1-2H3/t4-,5+,6-,7-/m0/s1
