16
gdb 34624	3.44351	1.22973	0.92237	5.1574	79.52	-0.248	-0.0337	0.2143	1208.1645	0.126155	-396.937808	-396.929642	-396.928697	-396.971108	29.73	
N	 0.0036580699	-1.1956180942	-0.3036180325	-0.325773
C	-0.0334419236	-0.0598188173	-0.0911649426	 0.270498
C	-0.0343284506	 1.3748741078	 0.1870190194	 0.262836
N	-1.1648633792	 1.9452972622	 0.0899877783	-0.291652
C	-1.4367492799	 3.3540816853	 0.2037369171	-0.21375
C	-0.4571608124	 4.3609680917	 0.7342562811	-0.045154
C	 0.7834182405	 4.2093593906	 1.1845000505	-0.066576
C	 1.5961175345	 2.9592198058	 1.3128000958	-0.22257
N	 1.2410212978	 1.8352482763	 0.4554906862	-0.356912
H	-1.7495099391	 3.6844789655	-0.800824511	 0.139093
H	-2.3579736244	 3.4513293357	 0.7988997808	 0.134688
H	-0.8738279001	 5.3675434008	 0.7527149696	 0.095817
H	 1.3003269913	 5.0882199345	 1.5623972247	 0.099813
H	 2.6418207665	 3.1997813121	 1.087595104	 0.12822
H	 1.5823251313	 2.6474401252	 2.3719926228	 0.131226
H	 1.9269596376	 1.0946446181	 0.4774836258	 0.260194
71.4052	95.1648	161.7986	170.5768	346.1579	365.4286	396.8607	410.8566	538.2884	573.0883	628.7331	668.3438	711.6016	780.6752	867.4743	916.6779	932.0176	964.9763	1015.3527	1017.435	1094.2496	1127.1897	1242.0808	1274.2651	1277.8121	1292.5097	1369.4374	1400.8642	1426.133	1445.0114	1490.1206	1559.0232	1757.4497	1769.4191	2351.874	2951.9021	2979.4233	2997.0804	3047.4274	3128.7414	3160.8963	3599.7373
N#CC1=NCC=CCN1	N#CC1=NCC=CCN1	
InChI=1S/C6H7N3/c7-5-6-8-3-1-2-4-9-6/h1-2H,3-4H2,(H,8,9)	InChI=1S/C6H7N3/c7-5-6-8-3-1-2-4-9-6/h1-2H,3-4H2,(H,8,9)
