22
gdb 120777	3.37022	0.80826	0.71873	1.647	83.25	-0.2103	0.0774	0.2877	1636.2269	0.193299	-404.287388	-404.277558	-404.276614	-404.323098	36.169	
O	-5.2164942452	-1.0533713374	-2.0265213868	-0.421095
C	-4.409240928	-1.9901751721	-1.3294619822	-0.075229
C	-2.9569724607	-1.5436966576	-1.4646356851	-0.200922
C	-2.0158248007	-2.4455076232	-0.6937774962	 0.010307
C	-1.3932328606	-3.639769078	-1.3367061696	-0.261216
N	-0.5750181622	-2.495415342	-0.9531325697	-0.105467
C	 0.016803911	-1.6303202394	-1.9456621901	 0.071577
C	 1.2519623151	-2.069881931	-2.6733849341	-0.280725
C	-0.0272009069	-1.8263734579	-3.4469931156	-0.278124
H	-6.1345797381	-1.326552337	-1.9426767669	 0.28567
H	-4.6862303429	-2.0394272877	-0.2633625209	 0.084836
H	-4.5250064558	-3.0053616615	-1.7418926234	 0.08821
H	-2.6918395572	-1.5181679432	-2.5249650743	 0.119053
H	-2.8805158664	-0.5143572216	-1.0921047549	 0.108892
H	-2.244702155	-2.5117467508	 0.3705473861	 0.085767
H	-1.2153882925	-4.5546776762	-0.7770000449	 0.111907
H	-1.6185185091	-3.7933124657	-2.3904596481	 0.10878
H	 0.0082372516	-0.5978122631	-1.6075220975	 0.095502
H	 2.0749224197	-1.371631896	-2.7777851816	 0.111964
H	 1.5556228124	-3.1030326308	-2.5404819505	 0.11704
H	-0.5298070739	-2.6961709901	-3.8539392238	 0.111752
H	-0.1021094045	-0.9435198878	-4.0733353697	 0.111518
53.4921	81.5911	88.386	105.2304	214.4727	263.5852	268.1078	311.5242	364.7577	457.5223	494.1367	558.6153	677.5023	775.7967	802.9236	810.1786	847.9386	892.4282	932.0904	939.4093	974.3296	1020.161	1032.8179	1054.1402	1072.9544	1077.4291	1112.1977	1117.29	1137.2573	1162.6544	1165.2642	1189.4284	1196.2901	1222.0529	1235.5987	1246.252	1308.3008	1327.8248	1346.0526	1400.4574	1426.2348	1461.7086	1462.338	1492.6719	1500.4835	1509.4515	1527.8685	2961.0005	2988.2517	3035.8214	3087.2548	3094.8795	3107.6438	3131.8344	3134.8617	3145.1252	3175.9645	3210.5229	3225.4316	3830.5749
OCCC1CN1C1CC1	OCC[C@H]1CN1C1CC1	
InChI=1S/C7H13NO/c9-4-3-7-5-8(7)6-1-2-6/h6-7,9H,1-5H2	InChI=1S/C7H13NO/c9-4-3-7-5-8(7)6-1-2-6/h6-7,9H,1-5H2/t7-,8?/m0/s1
