19
gdb 99651	2.47245	1.27199	0.93464	2.4537	78.14	-0.2286	0.0246	0.2532	1277.6222	0.156561	-422.953674	-422.943944	-422.943	-422.988389	35.983	
C	-1.2239268727	 1.3827748039	 0.1552907203	-0.247065
O	-1.3346215579	 0.0158461441	 0.5163688142	-0.25185
C	-1.849490845	-0.8226319064	-0.521805487	-0.083547
C	-0.9405391375	-0.8717916178	-1.6753484652	 0.340365
C	-0.2042483001	-0.9222285302	-2.6240757319	-0.462374
C	-2.0976176813	-2.2155359588	 0.0420309844	-0.079197
C	-1.2150548093	-2.7781553672	 1.1424032301	-0.327551
C	-2.651293231	-2.4177943394	 1.4321011846	 0.122873
O	-3.0067464314	-1.3568959508	 2.2607029914	-0.433387
H	-0.8354999853	 1.9089384666	 1.0294455119	 0.135391
H	-0.5337615189	 1.5150309691	-0.6862154751	 0.133344
H	-2.2023973158	 1.8046451037	-0.1161904846	 0.115874
H	-2.8124704658	-0.4031956204	-0.8610856439	 0.104396
H	 0.4470100765	-0.9697227373	-3.4619778223	 0.202891
H	-2.4334353554	-2.9027124453	-0.7287111945	 0.100475
H	-0.9202982411	-3.820835807	 1.0925819872	 0.10891
H	-0.4605617383	-2.1093758046	 1.5416597039	 0.128279
H	-3.354562978	-3.2352001775	 1.5592019765	 0.102298
H	-2.4443097517	-0.6104468248	 2.0107928801	 0.289873
59.3905	105.5246	135.5488	184.6757	190.5569	245.3718	259.4226	321.8598	396.6007	437.5228	513.0466	544.7636	597.1172	625.819	639.7689	682.0674	770.8412	802.0768	892.7568	912.3226	974.3707	1008.5913	1040.5314	1070.2751	1101.1798	1127.6488	1146.0382	1149.8153	1185.071	1217.8126	1236.3595	1324.7123	1346.5831	1367.7535	1389.5489	1456.5622	1480.7636	1485.7187	1495.8406	1511.4953	2230.658	2952.5981	2999.3777	3069.3428	3131.0805	3134.0543	3150.772	3160.9079	3226.2088	3500.9778	3732.4147
COC(C#C)C1CC1O	CO[C@@H](C#C)[C@H]1C[C@H]1O	
InChI=1S/C7H10O2/c1-3-7(9-2)5-4-6(5)8/h1,5-8H,4H2,2H3	InChI=1S/C7H10O2/c1-3-7(9-2)5-4-6(5)8/h1,5-8H,4H2,2H3/t5-,6+,7-/m0/s1
