19
gdb 77914	2.19391	1.42141	1.38627	2.0047	76.18	-0.2346	0.0083	0.2429	1100.0201	0.15686	-422.986034	-422.976269	-422.975324	-423.021365	34.995	
C	 0.4394914785	 1.445462025	-1.3229386786	-0.448684
C	 0.353799702	-0.037642869	-0.9739618707	-0.00224
C	 1.5774442659	-1.0412352427	-0.9656114134	-0.233525
C	 2.0277785441	-0.4962508443	 0.4387668952	-0.013723
C	 2.8479809727	 0.7872526008	 0.5983518913	-0.451206
C	 0.4385481825	-0.5442383195	 0.5152453619	 0.238594
O	-0.3678011484	-0.1565839242	 1.5564246438	-0.472415
C	 0.6266323584	-1.9165369931	-0.1349314179	 0.383222
O	 0.2375593033	-3.0398762173	-0.0201476372	-0.340274
H	 0.7992390432	 1.582338966	-2.3485011301	 0.121108
H	-0.5675338283	 1.8721623367	-1.2726534281	 0.128985
H	 1.0678206344	 2.0323363647	-0.6571903586	 0.131337
H	-0.5032018456	-0.4571376795	-1.5137851187	 0.088814
H	 2.2103654422	-1.3231166677	-1.8011914968	 0.096242
H	 2.4784743859	-1.2733255643	 1.0655985529	 0.087256
H	 2.4343635283	 1.4246578683	 1.3870455271	 0.13425
H	 3.8683043763	 0.5259255851	 0.8945694673	 0.120286
H	 2.9249638199	 1.3756003206	-0.3153449206	 0.130825
H	-0.7083696153	-0.9489651357	 1.9882500409	 0.301149
30.6132	113.4837	121.1266	158.466	175.7566	203.2213	250.4823	326.6651	348.7153	417.4628	550.2682	565.9669	631.0482	728.3534	763.7761	766.8369	790.6711	830.374	888.7298	996.4666	1024.3174	1042.6016	1058.0604	1091.0887	1096.6266	1134.759	1156.0783	1176.165	1223.3317	1237.482	1301.9711	1376.8365	1403.2254	1417.8453	1422.2873	1468.8962	1493.1221	1497.5425	1500.9966	1522.9024	1908.8116	3030.3239	3036.3562	3045.1049	3046.8468	3096.7341	3100.95	3141.5806	3174.8658	3175.593	3792.0014
CC1C2C(C)C1(O)C2=O	C[C@H]1[C@H]2[C@@H](C)[C@]1(O)C2=O	
InChI=1S/C7H10O2/c1-3-5-4(2)7(3,9)6(5)8/h3-5,9H,1-2H3	InChI=1S/C7H10O2/c1-3-5-4(2)7(3,9)6(5)8/h3-5,9H,1-2H3/t3-,4+,5-,7-
