21
gdb 63369	2.32355	1.32444	1.26452	1.5097	79.12	-0.2252	-0.0248	0.2004	1181.3135	0.178663	-424.245471	-424.235002	-424.234057	-424.280508	38.742	
C	-0.3083686843	 1.5041286914	 0.1347060215	-0.43972
C	-0.0643118278	-0.004581174	-0.014007113	 0.197934
C	-1.3534581374	-0.8062201193	 0.1630823715	-0.44696
C	 0.8314590208	-0.3743634023	-1.2513240525	-0.31355
C	 2.063688343	-0.6287033951	-0.337183096	 0.294186
C	 2.8281711675	-1.9338021343	-0.4699451176	-0.456426
O	 2.9251230923	 0.5082047217	-0.4079527414	-0.467705
C	 1.1049959505	-0.4750779474	 0.8755151011	 0.333512
O	 1.2367666654	-0.6662511078	 2.0519560799	-0.319333
H	 0.6206858205	 2.0668475344	 0.0105483904	 0.134258
H	-1.0228251245	 1.8479078911	-0.6216355622	 0.116299
H	-0.7200595625	 1.7317636158	 1.1231748841	 0.126583
H	-2.098696343	-0.5058920886	-0.5818848132	 0.118078
H	-1.1800892152	-1.881599364	 0.0519875046	 0.113564
H	-1.7783393727	-0.6364862243	 1.1573513678	 0.132066
H	 0.4965928235	-1.2769937608	-1.7678066669	 0.101903
H	 0.9871061057	 0.4250199288	-1.9770062885	 0.115258
H	 3.4004699501	-1.9416204632	-1.4027803736	 0.128845
H	 3.523930532	-2.0549541935	 0.3680247062	 0.124039
H	 2.1516601262	-2.7941328799	-0.4655559706	 0.119947
H	 3.5100027299	 0.4750289312	 0.3586644084	 0.287221
43.9521	148.5098	173.4844	196.8264	209.3535	234.2815	258.4291	267.1256	287.0265	309.3571	360.9754	388.748	416.199	568.3786	589.2593	698.1409	749.7104	784.6655	863.5368	899.1278	922.0847	958.2046	965.6677	990.0681	1019.9119	1035.0878	1109.2706	1170.5743	1201.697	1220.7526	1238.5007	1258.1595	1297.367	1364.1609	1390.7775	1402.3413	1412.7327	1471.1508	1482.3239	1485.5316	1486.1858	1488.3111	1499.3095	1509.6827	1878.2141	3027.2674	3030.4938	3031.1422	3071.6456	3095.2044	3099.8261	3100.5984	3106.9222	3112.7539	3118.5607	3135.5206	3788.8829
CC1(C)CC(C)(O)C1=O	CC1(C)C[C@@](C)(O)C1=O	
InChI=1S/C7H12O2/c1-6(2)4-7(3,9)5(6)8/h9H,4H2,1-3H3	InChI=1S/C7H12O2/c1-6(2)4-7(3,9)5(6)8/h9H,4H2,1-3H3/t7-/m1/s1
