18
gdb 6783	5.30488	0.86758	0.76937	3.8505	66.79	-0.2407	0.0618	0.3025	1460.3443	0.153342	-418.28797	-418.278458	-418.277514	-418.323415	32.954	
C	-0.121924295	 1.4082417943	-0.1898735977	-0.226816
O	-0.0493074182	 0.0105839048	-0.0332255465	-0.24151
C	 0.702404195	-0.6254078858	-1.0503232865	-0.066856
C	 0.6480377053	-2.1216236411	-0.7969715219	-0.149531
N	-0.7261064951	-2.5843833376	-0.8224922744	-0.338897
C	-1.0270092447	-3.8750012211	-1.1874698248	 0.454379
N	-2.3554381789	-4.2280979357	-0.9615693376	-0.564488
O	-0.2120096004	-4.6521781403	-1.6506981136	-0.395979
H	 0.8756304292	 1.8731543304	-0.1568101035	 0.108348
H	-0.5987286763	 1.6880262497	-1.1424139611	 0.106555
H	-0.7211923711	 1.8006543998	 0.6352690657	 0.128161
H	 0.2792434043	-0.3910776796	-2.0407006969	 0.093297
H	 1.7478434309	-0.2766712632	-1.0355222448	 0.091166
H	 1.1954257758	-2.6650696081	-1.5694689985	 0.142651
H	 1.1296021425	-2.3402930037	 0.1671025072	 0.110687
H	-1.3592883417	-2.085968247	-0.2169662599	 0.246179
H	-3.04771452	-3.4967377591	-1.0308408052	 0.244598
H	-2.6097291518	-5.0739206467	-1.4493321899	 0.258057
33.5465	73.4222	109.2678	127.2049	222.873	234.0287	284.2684	331.7083	386.6112	458.0901	519.6723	545.7721	569.9194	662.6321	777.7028	834.083	904.1705	1008.2575	1058.868	1094.2399	1115.6967	1154.746	1178.9865	1188.2627	1217.7029	1256.099	1276.4012	1325.8901	1393.7065	1424.3556	1479.8626	1485.7733	1496.164	1501.3412	1522.609	1536.4932	1627.2867	1800.9679	2963.1416	2976.9129	2993.5316	3013.5908	3019.8906	3114.8655	3123.6695	3569.9375	3631.2217	3684.0556
COCCNC(N)=O	COCCNC(=O)N	
InChI=1S/C4H10N2O2/c1-8-3-2-6-4(5)7/h2-3H2,1H3,(H3,5,6,7)	InChI=1S/C4H10N2O2/c1-8-3-2-6-4(5)7/h2-3H2,1H3,(H3,5,6,7)
