23
gdb 98188	2.91302	0.95052	0.86822	3.6866	82.19	-0.2363	-0.0073	0.2291	1477.7224	0.201692	-425.440114	-425.428677	-425.427733	-425.476899	41.425	
C	-0.0417334617	 1.5308569238	-0.1481578641	-0.410533
C	 0.0911217299	 0.0125212742	 0.0074857291	-0.17365
C	 0.7148937915	-0.4910195606	 1.3338631805	 0.147063
C	 2.1821487762	-0.0389481234	 1.4599058611	-0.43542
C	-0.0922721471	 0.0177281339	 2.5540742103	-0.413071
C	 0.5753219513	-2.0328406795	 1.3603517744	 0.372389
O	-0.3370078012	-2.5982422457	 0.8104649905	-0.297375
C	 1.6122119388	-2.8284831226	 2.1565839021	-0.188
O	 1.2080089436	-4.1709281474	 2.2309020369	-0.395211
H	 0.9221872139	 2.0461260848	-0.0845258914	 0.112905
H	-0.4690880316	 1.7667099542	-1.1277671212	 0.117641
H	-0.7041759389	 1.9664884667	 0.6059493614	 0.118073
H	-0.8911066686	-0.4555685856	-0.0951436105	 0.12303
H	 0.6942905607	-0.3802381303	-0.8211558211	 0.092449
H	 2.2439156041	 1.0529656933	 1.4487285964	 0.121655
H	 2.6404313042	-0.3705964094	 2.3964087605	 0.114096
H	 2.7922589266	-0.4115142922	 0.6300754145	 0.117544
H	-1.1491819103	-0.2471413356	 2.4581545188	 0.133491
H	 0.2805185313	-0.4126855056	 3.4894710933	 0.112742
H	-0.014029836	 1.1050645212	 2.6420366477	 0.120994
H	 2.58458335	-2.7091111452	 1.6496601354	 0.111819
H	 1.7238486651	-2.3659783265	 3.1516799022	 0.106864
H	 1.8960820081	-4.6602387126	 2.6910397035	 0.290505
33.224	75.956	116.7803	176.8743	209.1983	220.7556	247.8975	262.2793	281.4794	288.6597	327.4099	344.5086	357.5531	372.8543	477.6306	576.5169	619.6693	743.1088	783.3999	807.0901	918.2971	945.7508	987.5126	997.4192	1006.7794	1034.727	1069.1899	1088.5041	1145.9766	1207.6512	1220.9208	1244.6524	1254.5875	1262.6606	1325.6505	1369.6691	1395.1152	1410.5087	1424.0082	1436.3886	1481.2066	1483.346	1485.7663	1495.0002	1508.4842	1509.1464	1511.9323	1515.9256	1815.1041	2960.4105	2983.251	3027.9453	3034.5496	3036.8085	3041.1535	3088.5659	3100.8123	3103.3889	3104.2694	3108.5695	3114.0879	3118.793	3835.2551
CCC(C)(C)C(=O)CO	CCC(C)(C)C(=O)CO	
InChI=1S/C7H14O2/c1-4-7(2,3)6(9)5-8/h8H,4-5H2,1-3H3	InChI=1S/C7H14O2/c1-4-7(2,3)6(9)5-8/h8H,4-5H2,1-3H3
