18
gdb 52119	4.1425	0.91211	0.83298	2.3983	73.71	-0.2517	0.0277	0.2795	1388.2084	0.147396	-439.073105	-439.064459	-439.063514	-439.108028	31.334	
O	-0.0530899824	 0.5160001685	-0.8405265311	-0.322882
C	 0.0970495289	 1.2965090317	 0.0757128561	 0.157245
N	 1.2793329383	 1.5685685244	 0.6901614866	-0.271961
C	 2.5420880375	 0.9706072206	 0.2818034841	-0.281598
C	 3.5283137072	 2.0114850098	-0.145116859	 0.418163
C	 3.5778288877	 2.8453425773	-1.4382277182	-0.286289
C	 5.1334129684	 2.9498215026	-1.2514839718	-0.236067
C	 4.9871400357	 2.1245534927	 0.0339119549	-0.043914
O	 4.0881358462	 2.8395991468	 0.8934014297	-0.299608
H	-0.7364254617	 1.8766333604	 0.5184951658	 0.077489
H	 1.299521149	 2.2607581825	 1.4227168776	 0.259477
H	 2.9694977881	 0.3868423772	 1.1056823686	 0.118183
H	 2.3077786674	 0.2913317852	-0.541311548	 0.152794
H	 3.2979068763	 2.2765388842	-2.32766028	 0.118294
H	 3.0117647596	 3.7784548152	-1.4078470043	 0.111553
H	 5.6851664313	 2.4290409749	-2.0373092877	 0.110634
H	 5.5502479186	 3.9494359114	-1.1110665416	 0.114717
H	 5.698689754	 1.4601603048	 0.5119748383	 0.103771
28.4973	56.3157	131.3411	230.0338	238.9288	292.2095	343.9683	435.8164	494.8399	555.1899	696.7068	727.0333	766.9771	777.1167	876.2774	915.5237	919.2694	958.2788	962.2998	1003.613	1032.2239	1038.4781	1074.5104	1151.6971	1183.2677	1206.3303	1213.2131	1219.4304	1257.3686	1265.8071	1317.3496	1367.1126	1429.5678	1453.3307	1464.7246	1474.5228	1493.5245	1528.5546	1804.3291	2941.312	3036.6148	3068.8796	3076.183	3118.0391	3121.1024	3137.0744	3180.5982	3634.0614
O=CNCC12CCC1O2	O=CNC[C@]12CC[C@H]1O2	
InChI=1S/C6H9NO2/c8-4-7-3-6-2-1-5(6)9-6/h4-5H,1-3H2,(H,7,8)	InChI=1S/C6H9NO2/c8-4-7-3-6-2-1-5(6)9-6/h4-5H,1-3H2,(H,7,8)/t5-,6-/m1/s1
