19
gdb 109627	2.07027	1.26278	1.01489	3.9463	78.38	-0.2277	0.0334	0.261	1275.7625	0.157353	-419.192414	-419.182079	-419.181135	-419.227794	36.766	
C	-0.2327850181	 1.2656286306	 0.0074990269	-0.320634
N	 0.4753002285	 0.0046116653	 0.1697261962	-0.274251
C	 1.0168457407	-0.5352585938	-1.0284284359	-0.051665
C	 1.7571969652	-1.8287578561	-0.9586553989	 0.033992
O	 1.9120442962	-2.3810585299	 0.3059894365	-0.415025
C	 0.3662056378	-1.8231793924	-1.6170595414	 0.085789
C	-0.7966050779	-2.4675227615	-0.8856328656	-0.46346
C	 0.357221427	-1.9299699072	-3.0489628098	 0.236029
N	 0.3646642142	-2.0091707612	-4.2046266384	-0.352113
H	 0.3733299067	 2.0632590384	-0.4554440481	 0.104487
H	-1.1163140875	 1.1135594616	-0.621282375	 0.13332
H	-0.5749304408	 1.6172370109	 0.9844186843	 0.124901
H	 1.1770888849	 0.0472579486	 0.8976149963	 0.238281
H	 1.3740450675	 0.1720020857	-1.780511797	 0.100023
H	 2.6057218307	-1.9509814563	-1.6301936371	 0.112665
H	 2.0197714792	-3.3337603083	 0.2150708061	 0.299755
H	-0.7535626594	-2.1989295571	 0.1695666221	 0.153817
H	-1.7481222437	-2.1184237206	-1.2961475735	 0.133136
H	-0.7677152711	-3.5572720967	-0.9841487376	 0.120952
66.2452	109.4941	132.4294	157.4486	179.4755	190.515	224.4398	272.9625	288.5978	329.5614	461.2864	464.5567	557.7113	569.8949	597.8269	637.5086	729.4871	832.4865	888.1615	953.7765	1024.1093	1055.6563	1094.628	1119.5929	1147.1851	1177.4912	1189.4679	1234.7193	1251.0248	1271.0102	1312.4704	1380.8422	1405.4872	1457.6966	1470.808	1479.0246	1491.1539	1494.3899	1503.6552	1519.0925	2336.4287	2959.2662	3047.2724	3064.6749	3070.5548	3108.7358	3114.3587	3115.5001	3159.1799	3558.5219	3812.1073
CNC1C(O)C1(C)C#N	CN[C@H]1[C@@H](O)[C@]1(C)C#N	
InChI=1S/C6H10N2O/c1-6(3-7)4(8-2)5(6)9/h4-5,8-9H,1-2H3	InChI=1S/C6H10N2O/c1-6(3-7)4(8-2)5(6)9/h4-5,8-9H,1-2H3/t4-,5+,6+/m0/s1
