19
gdb 36510	4.12703	0.95096	0.81413	0.8738	83.6	-0.2451	0.0179	0.263	1398.8381	0.1592	-385.859316	-385.850698	-385.849754	-385.89284	32.773	
C	-0.0690172513	-1.2365189937	-0.0488611598	-0.438437
C	-0.0555211573	-0.0345165386	-0.0324795222	 0.299077
C	-0.0066477835	 1.4218716087	-0.0145219417	-0.370648
C	 1.4353437168	 1.9860630128	 0.0385223567	-0.04795
C	 1.412513771	 3.5154534161	-0.0846661466	-0.097916
O	 2.690756482	 4.0730350884	 0.1486906003	-0.250396
C	 3.1398775649	 3.874797733	 1.475938357	-0.115485
C	 2.8983103963	 2.4791811119	 1.9800821225	-0.090911
C	 2.1453649095	 1.6072662353	 1.3141923793	-0.053159
H	-0.0941969883	-2.2978554269	-0.0657522617	 0.195723
H	-0.5109304481	 1.8120211482	-0.9085753953	 0.130207
H	-0.5729688435	 1.7975382225	 0.8478789304	 0.132323
H	 1.981375605	 1.5717528781	-0.8198448202	 0.102133
H	 1.1221929628	 3.8272395334	-1.0926884759	 0.108021
H	 0.6737877685	 3.929266448	 0.624243729	 0.085089
H	 4.213107265	 4.1000495859	 1.4692108916	 0.118597
H	 2.6675530505	 4.6072298711	 2.1575170235	 0.09685
H	 3.374531933	 2.2122238856	 2.9200211348	 0.093533
H	 2.0043887567	 0.59378385	 1.6795341584	 0.103348
71.0944	98.5388	143.1279	271.2809	287.5853	319.5306	349.4621	399.455	484.7311	529.0649	571.2053	620.798	639.7621	712.3809	774.0234	852.0644	897.9246	934.1336	954.8324	1000.7755	1004.682	1031.8579	1063.4978	1087.4035	1103.8796	1147.2928	1209.5081	1221.26	1245.2633	1280.7794	1312.135	1345.8739	1358.5757	1379.5448	1408.5653	1427.3602	1470.5539	1485.9792	1498.5454	1723.9184	2237.5397	2929.5901	2952.3401	3011.1751	3017.5203	3049.0232	3049.3798	3078.2865	3154.6577	3177.0309	3506.1136
C#CCC1COCC=C1	C#CC[C@H]1COCC=C1	
InChI=1S/C8H10O/c1-2-4-8-5-3-6-9-7-8/h1,3,5,8H,4,6-7H2	InChI=1S/C8H10O/c1-2-4-8-5-3-6-9-7-8/h1,3,5,8H,4,6-7H2/t8-/m1/s1
