17
gdb 28938	2.91548	1.28506	1.02373	3.7875	79.7	-0.2149	0.0195	0.2344	1180.229	0.136056	-380.872384	-380.863703	-380.862759	-380.906238	31.743	
C	-0.1518178127	 1.4832062888	 0.093241193	-0.510502
C	-0.0313874829	 0.0021707166	-0.0263277467	 0.273305
C	 0.0257905873	-0.8309920576	-1.1143544403	-0.159787
N	 0.1409412633	-2.1486438574	-0.7326150028	-0.275084
C	 0.1509878099	-2.1209858346	 0.5764670019	-0.000611
N	 0.0555776305	-0.8465913552	 1.0673659643	-0.028676
C	 0.0133988847	-0.4736435234	 2.4727087046	-0.338963
C	-1.3162127046	-0.0807674675	 2.9396755796	 0.327637
C	-2.4043393489	 0.2487034665	 3.3262934326	-0.446043
H	 0.7157511098	 1.9342907671	 0.5920347307	 0.126769
H	-0.2200325234	 1.923081814	-0.9043305789	 0.140127
H	-1.043631256	 1.7811872875	 0.6562419382	 0.143318
H	-0.0062952576	-0.546866748	-2.1559747318	 0.104404
H	 0.2275900036	-2.9750643601	 1.2342655116	 0.124557
H	 0.3729162939	-1.3312921203	 3.0508605805	 0.155506
H	 0.7235134516	 0.3422503021	 2.651871194	 0.153325
H	-3.3694936785	 0.5325958716	 3.6674287997	 0.210717
50.9481	94.4638	159.3068	225.5946	246.8108	268.1404	325.5276	396.5305	467.5656	631.9456	634.3691	673.681	675.7247	678.9353	767.0691	797.6701	839.6194	922.2816	951.9065	977.3986	1008.5159	1066.8461	1145.7006	1180.7117	1230.9589	1270.1653	1291.1599	1373.5708	1396.7826	1417.3497	1422.2898	1467.8215	1481.0774	1489.6018	1529.794	1605.8492	2244.0021	3019.3285	3037.8385	3070.0834	3078.8246	3124.0023	3238.2485	3242.9164	3502.7756
CC1=CN=CN1CC#C	Cc1cncn1CC#C	
InChI=1S/C7H8N2/c1-3-4-9-6-8-5-7(9)2/h1,5-6H,4H2,2H3	InChI=1S/C7H8N2/c1-3-4-9-6-8-5-7(9)2/h1,5-6H,4H2,2H3
