17
gdb 78818	3.72328	1.29871	1.14499	3.3646	76.04	-0.2576	0.0284	0.286	1085.1785	0.136988	-380.817068	-380.809577	-380.808633	-380.848987	29.005	
C	 0.0359908377	 1.5960273	-0.094707757	-0.425121
C	 0.087054741	 0.0798465683	-0.083838841	 0.072494
C	 0.7116146459	-0.7584515598	-1.222116319	-0.098149
C	 1.1983693631	-1.7097597717	-0.06381721	-0.039364
C	 2.319483598	-0.7621472491	 0.1286988024	-0.038898
C	 2.1746617635	-0.209534463	-1.3020339531	-0.191101
C	 2.9973338109	-0.9421297439	-2.252845985	 0.270288
N	 3.6541129823	-1.5161835929	-3.0118761651	-0.324627
N	 1.0365253945	-0.5765101531	 0.8855371323	-0.159618
H	 1.0162612721	 2.0511389358	-0.2566152217	 0.125943
H	-0.6424168747	 1.9518305055	-0.8775062741	 0.125839
H	-0.3385130496	 1.9580130196	 0.8677865613	 0.137242
H	-0.9036562188	-0.3226435376	 0.1521228964	 0.093825
H	 0.1814792243	-1.019872438	-2.1349890018	 0.098072
H	 1.0516747091	-2.7518090683	 0.1821682899	 0.114581
H	 3.2262910067	-0.8599961428	 0.7086310467	 0.121221
H	 2.3022869342	 0.8639239509	-1.4679288613	 0.117373
125.9834	153.2497	181.5676	249.5039	281.6304	422.736	508.8713	539.5407	565.3835	694.2099	766.9037	798.7259	827.6631	863.7651	882.8747	905.1031	929.3359	965.5428	1007.1546	1023.6392	1049.0772	1079.7656	1102.6752	1130.9745	1149.3251	1163.1562	1202.7619	1222.6051	1244.8428	1275.4588	1324.9863	1345.6243	1395.0899	1413.9556	1485.8804	1502.344	2355.0914	3041.5166	3054.1054	3071.5023	3109.1365	3123.2916	3148.4115	3216.2838	3229.6308
CC1C2C3C(C2C#N)N13	C[C@H]1[C@@H]2[C@H]3[C@@H]([C@H]2C#N)N13	
InChI=1S/C7H8N2/c1-3-5-4(2-8)6-7(5)9(3)6/h3-7H,1H3	InChI=1S/C7H8N2/c1-3-5-4(2-8)6-7(5)9(3)6/h3-7H,1H3/t3-,4-,5-,6+,7-,9?/m0/s1
