15
gdb 45041	2.50345	1.78134	1.13675	4.0929	66.68	-0.2526	-0.0119	0.2407	1017.8394	0.115617	-454.02027	-454.013086	-454.012142	-454.052134	27.719	
O	-0.0325725729	-0.0853369322	 0.059675334	-0.386683
C	-0.0459363098	 1.1258053642	 0.014203719	 0.454074
N	-1.1893400498	 1.8726997616	-0.0979345687	-0.353121
C	-1.2616991309	 3.294561307	 0.0510728805	 0.017183
C	-0.813199277	 3.9499013286	 1.327053582	-0.311421
C	 0.0495052826	 4.036319037	 0.0716926085	-0.157914
C	 1.311843149	 3.2463654481	-0.0151054192	 0.432852
O	 2.4079927321	 3.7433387478	-0.1414934873	-0.352652
N	 1.1409181692	 1.8704545175	 0.0561371672	-0.401307
H	-2.0319501349	 1.331346698	 0.0195103782	 0.262896
H	-2.0816542339	 3.7397399665	-0.5017254841	 0.120885
H	-1.3010581874	 4.8635946061	 1.6459837559	 0.134977
H	-0.4713389579	 3.3044389231	 2.1284694705	 0.140524
H	 0.1198014745	 4.9982085431	-0.4194091013	 0.128897
H	 1.9835271872	 1.3122104037	 0.0354588247	 0.270809
104.5792	127.2403	219.1754	378.9504	406.4819	487.7576	509.2755	518.1609	532.7084	663.0814	702.5271	757.3944	762.8806	786.4684	827.9672	889.9201	976.6032	983.8108	1035.7652	1054.3588	1072.9239	1120.4697	1152.7097	1222.2853	1278.8074	1360.3309	1389.4403	1409.2751	1431.9256	1465.1895	1490.2898	1811.8114	1825.3884	3140.5923	3168.1752	3202.8122	3235.0458	3614.1718	3633.3297
O=C1NC2CC2C(=O)N1	O=C1N[C@H]2C[C@H]2C(=O)N1	
InChI=1S/C5H6N2O2/c8-4-2-1-3(2)6-5(9)7-4/h2-3H,1H2,(H2,6,7,8,9)	InChI=1S/C5H6N2O2/c8-4-2-1-3(2)6-5(9)7-4/h2-3H,1H2,(H2,6,7,8,9)/t2-,3+/m1/s1
