15
gdb 128557	4.02228	1.17661	0.91574	6.6947	76.09	-0.2113	-0.0533	0.158	1211.2121	0.112735	-450.085471	-450.077099	-450.076155	-450.11971	29.827	
C	-0.0211596116	 1.425687579	 0.0524351159	-0.274151
O	-0.0222958087	 0.0046613065	-0.0038494588	-0.251444
C	 0.57707964	-0.6274647415	-1.0292611115	 0.579836
C	 0.6328381329	-1.9733783634	-1.0975712718	-0.347908
C	 1.2871682607	-2.5882990185	-2.2300694292	 0.393525
N	 1.3927344532	-3.8541429001	-2.3822806647	-0.531819
N	 1.8412521282	-1.7002420414	-3.222655558	-0.240337
N	 1.7728418516	-0.4548585777	-3.128799906	-0.048211
N	 1.1496679084	 0.1062784622	-2.0428600742	-0.349501
H	 0.9979731398	 1.829334144	 0.0958379033	 0.140053
H	-0.564287238	 1.8660943973	-0.7931759904	 0.138803
H	-0.5412524737	 1.6842292801	 0.9746719033	 0.163512
H	 0.1970192463	-2.5849334355	-0.3209283636	 0.130257
H	 1.8930036023	-4.0388025176	-3.2538984908	 0.218327
H	 1.1455812886	 1.1102454966	-2.0750878735	 0.279059
28.8668	76.8777	176.8892	218.8118	232.9735	344.7804	388.3552	476.6158	489.5583	551.605	567.9927	661.0298	744.3639	747.2078	849.5624	892.8763	902.7895	1001.8946	1045.0085	1055.6133	1125.6739	1169.9385	1206.3837	1263.1112	1325.3851	1356.3724	1444.4325	1488.3788	1499.5759	1506.9015	1612.7786	1679.1647	1719.3707	3010.0316	3075.948	3152.1275	3242.6628	3464.5505	3688.6765
COC1=CC(=N)N=NN1	COc1cc([NH])nn[nH]1	
InChI=1S/C4H6N4O/c1-9-4-2-3(5)6-8-7-4/h2H,1H3,(H2,5,6,7)	InChI=1S/C4H11N4O/c1-9-4-2-3(5)6-8-7-4/h3-8H,2H2,1H3
