14
gdb 44897	4.13231	1.19552	1.10952	3.1416	66.31	-0.2582	-0.0466	0.2115	1062.9183	0.101541	-436.68104	-436.674027	-436.673083	-436.712738	26.56	
O	 0.0313162025	 0.04436986	 0.039052472	-0.303984
C	-0.0011620308	 1.239279092	 0.0212546477	 0.444838
C	-1.2049002896	 2.2120701988	 0.0426350538	-0.354875
C	-0.3675539047	 3.5008376387	 0.0208277753	 0.073776
O	 0.6194345148	 3.195528526	-1.0160429346	-0.287442
C	 1.157660416	 2.2572025246	-0.0388502478	-0.040476
C	 0.738031351	 3.2483445375	 1.0958307199	-0.190345
C	 1.659968308	 4.3518972476	 1.293640874	 0.285227
N	 2.3901935856	 5.2279237502	 1.4796635213	-0.308537
H	-1.8171549818	 2.114992503	-0.8565418457	 0.154623
H	-1.8349408261	 2.0681441272	 0.9242251094	 0.139613
H	-0.8530483633	 4.467371622	-0.0925784599	 0.121923
H	 2.1761606906	 1.9196243098	-0.210005359	 0.128274
H	 0.4279230678	 2.8255243627	 2.0557539438	 0.137384
113.7106	146.9032	179.7721	350.5818	421.1237	441.9498	527.7914	553.4681	611.9593	641.6525	774.4558	843.2997	855.3521	904.6325	931.9552	940.0657	976.5923	985.4208	1049.9725	1120.7418	1141.6517	1155.5494	1175.3265	1218.3663	1236.6459	1280.6074	1299.549	1365.5876	1450.0324	1893.9013	2363.5053	3075.158	3079.665	3131.1886	3156.3298	3176.7967
O=C1CC2OC1C2C#N	O=C1C[C@@H]2O[C@H]1[C@H]2C#N	
InChI=1S/C6H5NO2/c7-2-3-5-1-4(8)6(3)9-5/h3,5-6H,1H2	InChI=1S/C6H5NO2/c7-2-3-5-1-4(8)6(3)9-5/h3,5-6H,1H2/t3-,5-,6-/m0/s1
