17
gdb 11522	5.23384	1.11284	0.97457	2.0891	71.28	-0.2353	0.0314	0.2667	1182.659	0.140055	-363.783052	-363.774368	-363.773423	-363.816457	31.644	
O	 0.1984573943	 1.4889506493	-0.1295308837	-0.413223
C	 0.0712769193	 0.071425746	-0.0480669062	-0.052555
C	 0.7134679701	-0.6387789281	-1.2546576097	-0.149594
N	 0.0051087421	-0.3017217334	-2.4765699213	-0.060101
C	 0.4684331278	 0.8730474166	-3.205268225	-0.19973
C	 0.7356633823	-0.4946044021	-3.7263991995	-0.231754
C	 0.6157851325	-0.4472902319	 1.2091877115	 0.297131
C	 1.1138657494	-0.851939589	 2.2259206341	-0.451049
H	 1.0935932792	 1.7139911394	 0.1475657343	 0.284217
H	-1.0071031303	-0.1189224796	-0.0922878011	 0.130677
H	 1.7880609038	-0.3771825742	-1.2892530119	 0.078267
H	 0.6457111863	-1.7216089494	-1.1006343433	 0.116067
H	-0.308938732	 1.4921628689	-3.6424541544	 0.119481
H	 1.3101978989	 1.4258657132	-2.7947578947	 0.105159
H	 1.7604728967	-0.8588012365	-3.667082685	 0.107981
H	 0.157261477	-0.8999810362	-4.5515627178	 0.117715
H	 1.5311973626	-1.2125712629	 3.1336782035	 0.201311
67.735	104.1842	131.2103	200.6592	258.2462	297.9037	333.738	368.9684	462.7218	544.2363	574.4744	637.9379	676.2479	770.0261	837.2788	864.627	914.9023	961.9983	1028.52	1030.1037	1087.1587	1096.1697	1117.311	1119.0153	1169.7472	1178.0129	1245.6328	1274.1079	1320.225	1333.1536	1385.8129	1420.8553	1479.4436	1494.3481	1522.8484	2232.5284	2926.0466	3054.3832	3065.7421	3095.5274	3108.1468	3179.7322	3196.9963	3502.904	3805.3224
OC(CN1CC1)C#C	O[C@@H](CN1CC1)C#C	
InChI=1S/C6H9NO/c1-2-6(8)5-7-3-4-7/h1,6,8H,3-5H2	InChI=1S/C6H9NO/c1-2-6(8)5-7-3-4-7/h1,6,8H,3-5H2/t6-/m1/s1
