18
gdb 39005	2.91861	2.18313	1.51907	1.4333	82.36	-0.2086	-0.0064	0.2022	889.896	0.150673	-364.743815	-364.737427	-364.736483	-364.774104	27.113	
C	-0.0836299186	 1.4485399258	-0.02649117	-0.243961
N	 1.4264604648	 1.6405589159	 0.0103985006	-0.124099
C	 2.1131849296	 1.6635203367	 1.3303455916	-0.208799
C	 2.3905632573	 0.19695663	 1.6973377206	-0.165323
C	 2.0916925587	-0.6006103367	 0.6706669697	 0.185006
C	 1.2991634012	-1.9066517124	 0.5633781094	-0.329485
C	-0.0717531949	-1.2331520675	 0.2608702983	-0.171486
C	 0.1456755867	-0.03917944	-0.3061328058	 0.19035
C	 1.6134872117	 0.2424419758	-0.4798541997	-0.075772
H	-0.6179246587	 1.6753236209	 0.9039862495	 0.111712
H	-0.5101920613	 2.0469750605	-0.8371237717	 0.119171
H	 3.0185879987	 2.282359154	 1.2601059064	 0.110881
H	 1.4747327745	 2.1324644416	 2.0912597568	 0.106418
H	 2.5739847037	-0.1144072707	 2.7198894816	 0.090889
H	 1.6579563592	-2.5778341808	-0.2256985546	 0.115932
H	 1.259356806	-2.4761208532	 1.4957953567	 0.11478
H	-0.9863334978	-1.5731477988	 0.7341099313	 0.097064
H	 2.1114264091	 0.133289559	-1.4481925907	 0.076723
191.6442	283.0356	317.6905	377.8986	394.6092	563.3696	628.9078	671.5799	687.3748	746.5826	804.0392	813.3061	825.0667	873.6167	897.5018	914.7378	939.5371	950.5911	979.5848	999.7032	1036.5999	1047.6876	1068.337	1129.2462	1147.5455	1186.9926	1215.574	1220.6849	1242.2676	1247.7309	1276.6647	1296.8556	1315.061	1325.5206	1481.4589	1486.1853	1499.858	1663.4961	1686.9442	2999.7598	3028.1963	3032.5496	3035.7052	3053.0624	3077.8995	3096.7512	3189.195	3189.717
C1N2CC=C3CC=C1C23	C1N2C[CH][C]3C[CH][C]1[C@@H]23	
InChI=1S/C8H9N/c1-2-7-5-9-4-3-6(1)8(7)9/h2-3,8H,1,4-5H2	InChI=1S/C8H9N/c1-2-7-5-9-4-3-6(1)8(7)9/h2-3,8H,1,4-5H2/t8-/m0/s1
