20
gdb 47924	2.16414	1.67185	1.15963	4.1558	75.98	-0.2341	0.0322	0.2663	1119.365	0.17383	-440.318757	-440.310594	-440.30965	-440.351407	31.858	
O	 0.0736825744	 0.0405181028	-0.184766283	-0.370974
C	-0.0074857013	 1.242674879	-0.0146002435	 0.384287
C	-1.3638712371	 1.946332543	 0.0188850924	-0.300935
C	-1.85429052	 2.3978829026	-1.3709362113	-0.189292
C	-1.0805063982	 3.5645916544	-1.9845761788	-0.07928
O	 0.2665693174	 3.2027993265	-2.2641578301	-0.233059
C	 1.261915585	 3.8271818346	-1.4882942915	-0.066228
C	 1.2170009763	 3.4334180515	 0.0004995301	-0.202961
N	 1.1176314065	 2.0037908498	 0.2137042212	-0.274241
H	-2.0579519564	 1.1981415918	 0.4084236227	 0.128933
H	-1.3685298409	 2.7925035499	 0.7147980623	 0.100732
H	-1.8026474466	 1.5452909559	-2.0570161864	 0.130739
H	-2.909856347	 2.687768597	-1.2989207751	 0.097708
H	-1.5470375406	 3.8486380028	-2.9364591072	 0.107647
H	-1.120602293	 4.4473095496	-1.3294137297	 0.088839
H	 2.2125131452	 3.5045566371	-1.9270834773	 0.111043
H	 1.209835943	 4.9258789925	-1.5700863735	 0.090948
H	 2.1217045798	 3.8060921498	 0.493588896	 0.114334
H	 0.3750445039	 3.9266706986	 0.493879474	 0.120533
H	 1.9639629894	 1.4652180809	 0.081622219	 0.241228
91.1002	146.8594	228.4331	236.5028	267.063	365.5773	411.4906	462.6693	488.3519	515.5034	575.1509	630.8002	727.473	761.663	832.0255	867.6691	889.0388	920.9824	926.9398	1011.6605	1038.5796	1056.2083	1109.509	1136.7291	1180.6389	1212.6737	1239.2914	1277.0226	1290.6648	1311.9074	1329.2597	1370.3563	1384.7358	1400.6193	1405.6828	1418.5166	1467.0624	1474.1384	1481.9224	1493.9291	1496.59	1508.6083	1785.3935	2969.1914	2994.6217	3030.8932	3042.836	3046.9848	3050.9353	3066.4957	3083.9883	3097.1083	3110.2836	3582.0139
O=C1CCCOCCN1	O=C1CCCOCCN1	
InChI=1S/C6H11NO2/c8-6-2-1-4-9-5-3-7-6/h1-5H2,(H,7,8)	InChI=1S/C6H11NO2/c8-6-2-1-4-9-5-3-7-6/h1-5H2,(H,7,8)
