19
gdb 111170	4.05607	1.02914	0.95029	1.7188	76.61	-0.2363	0.0669	0.3031	1287.8376	0.15827	-422.920242	-422.911877	-422.910933	-422.953315	32.266	
O	 0.0622045399	 1.4347643497	-0.1423613493	-0.421032
C	 0.0385424059	 0.0459181679	 0.1713851607	-0.119511
C	-1.3682040686	-0.5219664369	 0.1148351676	 0.012427
C	-1.9853927313	-0.8790664488	-1.2743506687	-0.077415
O	-1.0268301409	-2.0076647154	-1.3843779585	-0.312208
C	-1.5554440611	-2.0643318733	 0.0057231725	-0.081704
C	-2.9586268332	-1.8280196231	-0.5659403067	 0.477208
C	-4.3243057221	-1.7005286864	 0.0126012739	-0.358487
C	-4.0130651027	-2.7447235249	-1.0599751685	-0.365108
H	-0.1198549804	 1.5223757593	-1.0830447549	 0.282697
H	 0.6995381868	-0.5331999386	-0.4838471901	 0.110515
H	 0.4233543175	-0.0300528882	 1.1943690757	 0.106979
H	-2.0442967585	-0.0083604433	 0.8044847344	 0.083318
H	-2.1392224503	-0.2586319168	-2.1591621724	 0.090522
H	-1.1876457677	-2.8615169573	 0.6531394444	 0.095771
H	-4.4958626677	-2.0494474542	 1.0260564668	 0.118263
H	-4.9324538757	-0.8473534308	-0.2709705494	 0.118401
H	-4.4159456751	-2.5845109935	-2.0547800806	 0.119481
H	-3.9781849047	-3.7863242053	-0.7576342668	 0.119884
79.8295	125.2059	173.2044	249.3883	275.8252	297.4197	325.9782	418.3905	503.0423	614.8447	716.1081	735.2061	760.0372	774.0079	836.3366	877.0052	900.3423	923.6544	952.2419	1006.8158	1016.2862	1049.3126	1065.8161	1079.7067	1104.0859	1113.4158	1118.3638	1135.8279	1174.9663	1180.7685	1190.5082	1206.7761	1233.3164	1260.9328	1357.8471	1404.6185	1417.0962	1428.7631	1461.267	1505.2821	1524.5095	3033.9015	3069.8183	3085.9871	3101.9134	3113.4767	3124.3635	3129.2752	3202.0128	3216.2504	3821.0634
OCC1C2OC1C21CC1	OC[C@H]1[C@H]2O[C@@H]1C12CC1	
InChI=1S/C7H10O2/c8-3-4-5-7(1-2-7)6(4)9-5/h4-6,8H,1-3H2	InChI=1S/C7H10O2/c8-3-4-5-7(1-2-7)6(4)9-5/h4-6,8H,1-3H2/t4-,5+,6-
