21
gdb 86150	2.03763	1.69042	1.14668	1.7057	78.07	-0.2416	-0.023	0.2186	1167.8528	0.180833	-424.264421	-424.254775	-424.253831	-424.298722	35.969	
C	 0.7044969958	 1.3149055982	-0.4915723373	-0.39866
C	 0.0453406957	 0.0684653545	 0.0983628138	 0.094449
O	 0.0092101325	-1.0015962823	-0.8682248167	-0.28434
C	 1.1072135418	-1.8896560189	-0.6921932609	 0.032375
C	 2.1250429537	-1.8262817511	-1.82995115	-0.39871
C	 1.7102104229	-1.5319206343	 0.6682522018	 0.358122
O	 2.7433065422	-1.9549970464	 1.1189334017	-0.321978
C	 0.760552896	-0.5327368314	 1.3246106099	-0.109224
C	 1.4335524361	 0.3952643722	 2.3295256748	-0.412549
H	 1.7744899435	 1.1659875876	-0.6719954051	 0.120688
H	 0.2292020418	 1.5567278313	-1.4457340748	 0.128756
H	 0.5907630323	 2.1736108385	 0.1776858637	 0.118761
H	-1.0010794084	 0.2968753331	 0.3252022531	 0.085515
H	 0.7099059833	-2.9138977622	-0.6282172175	 0.106535
H	 2.5472043763	-0.8224380756	-1.929172735	 0.121748
H	 2.9406860154	-2.525994676	-1.6264698376	 0.136357
H	 1.6500928862	-2.0958503333	-2.7765054853	 0.126198
H	 0.0218770133	-1.1588593797	 1.8485336622	 0.112361
H	 2.162360482	 1.0513830943	 1.8465483164	 0.12743
H	 0.7011516557	 1.0202196107	 2.8488198187	 0.11651
H	 1.9714331717	-0.1997194594	 3.0722537341	 0.139656
66.455	102.0532	191.8964	201.7726	212.6114	250.5423	261.4913	277.9051	368.8721	405.626	474.0531	515.0048	540.49	653.8913	692.7042	771.6128	819.4449	862.4487	919.6746	969.9855	1004.9064	1015.8387	1060.2291	1072.429	1108.5356	1115.9824	1141.6221	1180.1229	1190.1374	1268.7948	1307.0747	1323.8055	1355.324	1363.4738	1384.8833	1397.1059	1407.3893	1413.3928	1481.9943	1486.7599	1491.6002	1494.3819	1500.3984	1505.7828	1848.9443	2991.6005	2995.8956	3036.621	3046.9102	3047.9715	3051.0248	3106.9091	3118.5407	3121.5161	3124.8594	3125.9198	3129.3229
CC1OC(C)C(=O)C1C	C[C@H]1O[C@@H](C)C(=O)[C@H]1C	
InChI=1S/C7H12O2/c1-4-5(2)9-6(3)7(4)8/h4-6H,1-3H3	InChI=1S/C7H12O2/c1-4-5(2)9-6(3)7(4)8/h4-6H,1-3H3/t4-,5+,6-/m0/s1
