23
gdb 89054	4.23819	0.71629	0.66611	0.8273	87.64	-0.2395	0.0931	0.3325	1792.0346	0.204546	-388.254944	-388.245013	-388.244069	-388.290834	36.645	
C	 0.1634136582	 1.5576035628	-0.1248346328	-0.395545
C	 0.082726054	 0.0532312561	 0.0106606707	-0.028399
C	 1.3475892883	-0.7748182829	 0.1533836911	-0.323295
C	 0.3923033154	-0.6181231136	 1.3151459571	 0.133865
O	 0.7465913714	 0.1981594752	 2.3849864179	-0.250623
C	 1.593983269	-0.4453873027	 3.3259459999	-0.0682
C	 1.9564451992	 0.5325783949	 4.4080793575	 0.010814
C	 1.0097850966	 0.7716741675	 5.554827506	-0.246356
C	 2.297260202	 0.0215288165	 5.7857330292	-0.272888
H	 0.9299184787	 1.9667850758	 0.5368843759	 0.127128
H	 0.4031051712	 1.8458806965	-1.1539901013	 0.110856
H	-0.7886205471	 2.0285362578	 0.1431135401	 0.116374
H	-0.7169839217	-0.4098289681	-0.5618487261	 0.082782
H	 1.4193787127	-1.7326683438	-0.35062526	 0.106625
H	 2.281181511	-0.22512701	 0.2203610945	 0.113494
H	-0.2036456906	-1.4875674238	 1.5999364805	 0.076835
H	 1.0792702446	-1.3180242435	 3.7636930673	 0.079031
H	 2.4963159816	-0.8224757658	 2.819214426	 0.090583
H	 2.5171725807	 1.3935793543	 4.0559178899	 0.087531
H	 0.9217402989	 1.7789522552	 5.9458293561	 0.11234
H	 0.0829962239	 0.2078548439	 5.5675415305	 0.113895
H	 2.2380144392	-1.047992207	 5.960402204	 0.110688
H	 3.0944630129	 0.5138266849	 6.3311212462	 0.112465
50.4887	59.2865	96.9314	135.7171	194.4446	212.5286	267.0982	335.9735	374.9016	414.7672	485.4196	573.7574	754.3571	773.7993	812.6262	828.624	843.9257	883.1266	920.2765	927.9194	949.4657	987.294	1016.8453	1042.9118	1057.8132	1066.2903	1078.6834	1094.1516	1116.1226	1134.7957	1149.4798	1182.0069	1194.3333	1196.4724	1204.2733	1227.9064	1252.4382	1279.8586	1358.7238	1380.6253	1408.2778	1419.047	1449.2018	1471.0411	1486.2939	1494.9109	1504.4281	1505.5993	1518.3605	2955.0538	2994.0285	3034.6747	3076.1901	3091.6208	3121.8333	3127.7845	3131.2279	3136.8011	3141.3777	3151.2976	3209.5168	3215.4899	3224.9706
CC1CC1OCC1CC1	C[C@H]1C[C@H]1OCC1CC1	
InChI=1S/C8H14O/c1-6-4-8(6)9-5-7-2-3-7/h6-8H,2-5H2,1H3	InChI=1S/C8H14O/c1-6-4-8(6)9-5-7-2-3-7/h6-8H,2-5H2,1H3/t6-,8+/m0/s1
