16
gdb 81208	3.41625	1.37741	1.26843	3.1733	70.21	-0.2504	-0.0006	0.2498	1010.3442	0.124633	-437.776046	-437.768914	-437.76797	-437.807349	28.767	
O	-0.1551019807	 1.4064786225	-0.1553443891	-0.44473
C	-0.0112181538	 0.025272624	 0.0382140147	 0.124982
C	-0.0097830913	-0.5622243994	 1.4641395071	-0.142251
C	-1.5487113351	-0.1303757862	 1.5731841303	-0.30894
C	-1.3366598969	-0.7784729442	 0.1611302889	 0.284956
N	-1.7683705528	-1.6789285095	-0.9098938277	-0.419898
C	-0.665901524	-2.5449144548	-0.6204322907	 0.337003
O	-0.1754285414	-3.4286492105	-1.2529322668	-0.318935
C	-0.5594748264	-1.9025332627	 0.8257425088	-0.169891
H	 0.7043065049	 1.821692324	-0.0325722243	 0.289457
H	 0.7274337227	-0.412044375	-0.6465472743	 0.081848
H	 0.7457513676	-0.4459138735	 2.2422849657	 0.088935
H	-2.1544506876	-0.6948022191	 2.2830377434	 0.111159
H	-1.7382738274	 0.9412786972	 1.6125101096	 0.125264
H	-2.0058286998	-1.3991443281	-1.8559476393	 0.24783
H	-1.138836648	-2.5123136546	 1.5220634938	 0.11321
130.3163	245.9555	272.7611	288.5085	344.0648	449.0719	495.8866	542.6812	596.6467	620.5561	668.5902	756.0314	784.7531	823.6925	871.1404	909.5594	939.063	956.7657	1022.5372	1041.776	1046.2774	1079.0884	1116.9907	1133.9474	1159.4404	1180.8074	1195.0319	1208.6559	1228.1321	1296.9442	1305.0755	1331.7207	1435.7329	1501.241	1894.4735	3020.9248	3085.8411	3088.4449	3108.6077	3168.2277	3540.7509	3820.7961
OC1C2CC11NC(=O)C21	O[C@H]1[C@H]2C[C@]31NC(=O)[C@@H]23	
InChI=1S/C6H7NO2/c8-4-2-1-6(4)3(2)5(9)7-6/h2-4,8H,1H2,(H,7,9)	InChI=1S/C6H7NO2/c8-4-2-1-6(4)3(2)5(9)7-6/h2-4,8H,1H2,(H,7,9)/t2-,3+,4-,6-/m0/s1
