19
gdb 78605	3.22182	1.42608	1.19813	2.6944	75.12	-0.247	0.0609	0.3079	1083.0218	0.158682	-422.95288	-422.944742	-422.943797	-422.984967	32.653	
C	-0.1825895452	 1.5983740065	-0.0033929568	-0.432609
C	-0.0454641603	 0.0834865382	 0.0030348864	-0.06102
C	 1.1957722987	-0.5815478296	-0.6501660418	-0.07024
C	 2.1394419982	-0.2749071372	 0.5619620561	-0.174254
C	 2.5763696289	-1.7536084458	 0.6737698499	 0.141925
O	 2.9766793214	-2.2564661311	 1.9200530149	-0.456473
C	 1.0902404785	-1.8483252752	 0.2672825167	-0.133151
C	 0.7125663796	-0.6201689659	 1.149478001	 0.369129
O	 0.3784998765	-0.7567037478	 2.4936691937	-0.482601
H	 0.7587375539	 2.0928265734	 0.2593958851	 0.11427
H	-0.4826297472	 1.9622880005	-0.9918542484	 0.122
H	-0.9474919542	 1.9286346789	 0.7090232144	 0.114405
H	-0.9946158274	-0.4009432774	-0.2591212657	 0.069093
H	 1.4921200349	-0.5831774437	-1.6966064855	 0.081595
H	 2.720632043	 0.6331867282	 0.7267897059	 0.070879
H	 3.3090785277	-2.1028791792	-0.0599259917	 0.077765
H	 2.3068905363	-1.9914688729	 2.5636040461	 0.286229
H	 0.4584780618	-2.7195611352	 0.0881351838	 0.074463
H	 0.3765628347	 0.1169556955	 2.9010985058	 0.288594
166.9397	175.7392	201.5523	216.0286	299.0087	338.6267	400.0598	427.8075	503.1497	520.4132	566.4183	665.8412	737.0707	758.8487	830.4964	874.4427	886.6275	909.1781	918.7786	959.6047	1024.4653	1042.6795	1075.1839	1083.7591	1098.3365	1107.208	1118.2159	1142.2753	1173.4875	1214.8138	1216.5358	1234.4842	1270.3807	1284.7924	1324.6743	1365.2823	1406.364	1416.8183	1462.6241	1494.826	1501.8376	3026.0755	3029.323	3068.7091	3088.4977	3097.4517	3106.0573	3109.5178	3145.3023	3768.8783	3798.0668
CC1C2C3C(O)C2C13O	C[C@H]1[C@H]2[C@@H]3[C@@H](O)[C@H]2[C@]13O	
InChI=1S/C7H10O2/c1-2-3-4-6(8)5(3)7(2,4)9/h2-6,8-9H,1H3	InChI=1S/C7H10O2/c1-2-3-4-6(8)5(3)7(2,4)9/h2-6,8-9H,1H3/t2-,3-,4+,5-,6+,7-/m0/s1
