21
gdb 64423	2.41461	1.6235	1.28489	1.9671	77.7	-0.2374	0.0671	0.3045	1081.7108	0.182821	-424.217724	-424.209223	-424.208279	-424.2501	34.414	
C	-0.0196296034	 1.5586256701	-0.0235001719	-0.428664
C	 0.0260750953	 0.0280682664	-0.0217524348	 0.328678
O	-1.3069524316	-0.4951159577	 0.1119159572	-0.47291
C	 0.6561764724	-0.5311315401	-1.3140227314	-0.242586
C	 0.9311283816	-2.0242194587	-1.1595996682	-0.070264
O	 1.9383352059	-2.2499064189	-0.1807987423	-0.265553
C	 1.647803222	-1.7184390603	 1.0809850455	 0.090524
C	 2.2382669837	-0.3731942639	 1.419295488	-0.33084
C	 0.7474736711	-0.5157624781	 1.2035075345	-0.027388
H	 0.9865454076	 1.986219333	-0.0550981019	 0.119226
H	-0.5689232128	 1.9283599836	-0.8985947077	 0.09963
H	-0.5243119348	 1.9218836466	 0.8764731556	 0.12191
H	-1.8354722487	-0.1288551581	-0.6055442474	 0.273778
H	-0.0294651939	-0.3485639052	-2.15136066	 0.082723
H	 1.5945612873	-0.0146759459	-1.5467457643	 0.102353
H	-0.0001583449	-2.5423383661	-0.8906752431	 0.103786
H	 1.3186702726	-2.4582697964	-2.0853083705	 0.101311
H	 1.6021356714	-2.4805708291	 1.8556186011	 0.091598
H	 2.5919781107	-0.1834734929	 2.4268435381	 0.110037
H	 2.8319949213	 0.087689235	 0.6369796744	 0.115805
H	 0.126625557	-0.4691931331	 2.092640789	 0.096846
113.4707	197.6563	253.0259	261.3499	305.6116	319.4317	330.2801	401.3998	439.534	482.6333	504.1851	518.2188	670.3748	701.5762	787.0292	828.2851	844.3451	900.0657	936.7985	983.3889	986.7706	1013.9772	1040.9798	1053.2461	1068.9013	1071.7572	1122.7731	1128.5229	1167.2469	1184.5292	1217.9198	1239.0357	1241.3099	1291.2156	1338.5901	1367.1447	1380.9394	1405.7854	1413.1134	1419.1905	1469.6165	1481.1976	1492.1102	1496.8762	1503.4764	3010.4001	3022.2835	3027.5175	3071.6592	3092.4624	3094.4468	3119.6643	3124.1936	3131.602	3157.9942	3219.0988	3802.9141
CC1(O)CCOC2CC12	C[C@@]1(O)CCO[C@H]2C[C@@H]12	
InChI=1S/C7H12O2/c1-7(8)2-3-9-6-4-5(6)7/h5-6,8H,2-4H2,1H3	InChI=1S/C7H12O2/c1-7(8)2-3-9-6-4-5(6)7/h5-6,8H,2-4H2,1H3/t5-,6+,7-/m1/s1
