20
gdb 59001	3.73098	1.08314	0.91386	0.6429	81.09	-0.2249	0.0137	0.2386	1312.644	0.17139	-403.128662	-403.120023	-403.119079	-403.161992	33.56	
C	 0.3950229351	 0.9485833279	-0.816683503	-0.404934
C	-0.0813688958	 0.0976699904	 0.3603286605	 0.012382
O	 0.0129280368	 0.8205786973	 1.5934040249	-0.436036
C	-1.5036753629	-0.370194308	 0.2515173183	 0.351592
C	-2.3033173717	-0.3410556028	-0.8206994143	-0.185364
C	-3.596008272	-1.0286846899	-0.5419828592	-0.079818
N	-3.4109472521	-2.474958618	-0.2138731111	-0.338443
C	-3.5269649632	-1.4798193769	 0.8748691067	-0.0512
C	-2.1881523944	-1.0292188374	 1.4422250579	-0.29301
H	 1.429989376	 1.2701445667	-0.6561297268	 0.100717
H	 0.3666421909	 0.3824480153	-1.7524273397	 0.122717
H	-0.2298021436	 1.8398614902	-0.9212772202	 0.12796
H	 0.5585112355	-0.8014766718	 0.4224798941	 0.076291
H	 0.9406285249	 1.0333353785	 1.7357887277	 0.281705
H	-2.0522078427	 0.0751947974	-1.7882381666	 0.09026
H	-4.5175251574	-0.7196188868	-1.0237149939	 0.08449
H	-4.3126200146	-2.9408030591	-0.3087829197	 0.223443
H	-4.4045869959	-1.5068819056	 1.5116862739	 0.084396
H	-1.6025528413	-1.8711478672	 1.8307887909	 0.112387
H	-2.3080956716	-0.3163449304	 2.2652829497	 0.120465
61.5507	129.2478	194.3492	255.2994	274.7925	297.5004	351.3204	392.1936	463.3899	489.5072	546.3899	650.293	707.4714	803.6754	828.7383	846.9408	878.3596	896.2888	919.3259	954.871	967.2075	1003.4267	1024.4252	1069.5981	1099.9332	1112.9099	1130.2231	1153.2647	1171.3364	1187.7331	1238.0294	1257.2145	1281.3156	1330.1524	1358.6175	1374.2709	1401.8673	1409.9212	1428.0495	1465.5368	1490.9486	1500.8508	1699.5079	2930.3543	3034.7669	3038.0311	3074.4421	3100.9507	3123.7246	3162.0536	3171.7823	3209.3446	3469.4189	3818.7133
CC(O)C1=CC2NC2C1	C[C@@H](O)C1=C[C@H]2N[C@H]2C1	
InChI=1S/C7H11NO/c1-4(9)5-2-6-7(3-5)8-6/h2,4,6-9H,3H2,1H3	InChI=1S/C7H11NO/c1-4(9)5-2-6-7(3-5)8-6/h2,4,6-9H,3H2,1H3/t4-,6-,7+/m1/s1
