19
gdb 19354	3.86677	1.73524	1.50314	1.3059	74.8	-0.2165	0.073	0.2896	928.8111	0.165547	-327.844122	-327.836614	-327.83567	-327.875732	29.555	
C	-0.1352829691	 1.4994012542	 0.0208256301	-0.376477
C	 0.0794805424	-0.0198894584	 0.0234517831	-0.269461
C	 0.7049314331	-0.5040768135	-1.2502084887	 0.394718
C	-0.0519183982	-0.8935184366	-2.4903034531	-0.348358
C	 0.8936434991	-1.8801336429	-1.8485351207	-0.150544
C	 2.3685101657	-1.5005631103	-2.063741772	-0.026509
C	 2.5986899211	-0.2656371099	-2.8394400657	-0.253152
N	 2.1834541327	-0.1487165593	-1.4267708247	-0.18101
H	 0.8144822539	 2.0167314913	-0.1446078335	 0.1355
H	-0.8260231947	 1.7987913018	-0.7743460888	 0.112083
H	-0.5471013394	 1.8412325721	 0.975139448	 0.10828
H	 0.7295292561	-0.2963392071	 0.8624494478	 0.106224
H	-0.874286329	-0.5403738638	 0.1731180115	 0.093208
H	-1.0974125126	-1.1090033931	-2.2887050533	 0.11485
H	 0.1090158256	-0.47333863	-3.4770938417	 0.110926
H	 0.5758565395	-2.8447339237	-1.4746911996	 0.092459
H	 3.1810471393	-2.1468495804	-1.7463435293	 0.097347
H	 3.6332345792	 0.0382945027	-2.9755398459	 0.120604
H	 1.9439828251	 0.0452147069	-3.6449446736	 0.119311
88.9301	145.2195	203.0635	289.9151	347.4734	403.7524	458.5775	519.8909	626.5669	702.5128	749.2834	774.6263	819.514	831.9104	905.5981	915.9962	955.9547	966.9627	995.1386	1010.042	1031.9965	1048.8877	1062.0177	1093.6529	1106.3936	1121.2891	1140.9341	1194.8546	1229.5813	1267.5903	1298.1662	1350.7567	1353.0612	1402.8794	1410.713	1475.3099	1480.4611	1496.913	1509.5816	1525.1675	3026.2269	3036.6785	3062.841	3105.8094	3114.5812	3119.1973	3131.4897	3154.4475	3193.1166	3199.424	3211.6598
CCC12CC1C1CN21	CC[C@]12C[C@H]1[C@H]1CN21	
InChI=1S/C7H11N/c1-2-7-3-5(7)6-4-8(6)7/h5-6H,2-4H2,1H3	InChI=1S/C7H11N/c1-2-7-3-5(7)6-4-8(6)7/h5-6H,2-4H2,1H3/t5-,6+,7-,8?/m0/s1
