23
gdb 118953	2.94052	0.90585	0.84017	2.0916	82.1	-0.2557	0.0636	0.3194	1509.556	0.203538	-425.41396	-425.403291	-425.402347	-425.449695	39.372	
C	-0.0660363248	 1.5473413439	-0.0527839873	-0.410624
C	 0.0649593272	 0.0340718732	 0.0063489875	 0.023638
C	 1.0990125846	-0.683481935	-0.9056764644	-0.237603
C	 1.4009914972	-1.6573105973	 0.2633157011	-0.272564
C	 0.7552958091	-0.6281434347	 1.2416441899	 0.37992
O	 1.7285226441	 0.2928005839	 1.7349188214	-0.484755
C	-0.1466516602	-1.1388205697	 2.361731143	-0.225645
C	 0.5910270163	-1.9229584322	 3.441063237	-0.091257
O	-0.3692284189	-2.3724242026	 4.3848929156	-0.41746
H	 0.8970922126	 2.0268727946	 0.1372471899	 0.13109
H	-0.4213554157	 1.8627508863	-1.0401512941	 0.106561
H	-0.7794483195	 1.9191334083	 0.690874306	 0.112302
H	-0.9176584241	-0.4340085039	-0.1237842441	 0.067545
H	 0.7343297115	-1.114282745	-1.8408582349	 0.092289
H	 1.9534127556	-0.0374538151	-1.122890454	 0.106478
H	 0.8167598045	-2.5799542663	 0.19706493	 0.099101
H	 2.447150494	-1.9174538013	 0.4514497856	 0.085122
H	 2.4045880731	-0.206934168	 2.2029027399	 0.277592
H	-0.6531389285	-0.2877204135	 2.831845684	 0.110143
H	-0.9231806401	-1.7858229889	 1.9379079938	 0.099818
H	 1.1282158733	-2.7728536286	 2.9872365299	 0.085109
H	 1.342077429	-1.2762015798	 3.9230128735	 0.078676
H	 0.0929765395	-2.8447914581	 5.0834366008	 0.284524
73.162	81.7608	121.6625	130.8469	205.2997	239.9371	255.6944	268.3694	291.2728	332.1565	370.477	404.2092	436.4104	553.9577	644.5083	740.417	788.1278	800.9233	890.0399	910.5295	933.7136	954.6236	967.1678	1009.02	1034.2384	1064.626	1087.1645	1123.1449	1161.5991	1185.4704	1200.7298	1214.9379	1240.9945	1248.9029	1262.8255	1277.5188	1310.6337	1317.9101	1324.9049	1355.5053	1386.1636	1406.303	1460.7063	1469.0348	1480.5035	1490.0445	1491.5884	1502.0979	1530.6078	2954.6931	2981.7546	3031.0688	3034.4246	3039.7435	3046.1857	3063.3929	3081.9039	3091.0251	3095.0296	3118.8973	3125.7411	3818.286	3828.2116
CC1CCC1(O)CCO	C[C@H]1CC[C@]1(O)CCO	
InChI=1S/C7H14O2/c1-6-2-3-7(6,9)4-5-8/h6,8-9H,2-5H2,1H3	InChI=1S/C7H14O2/c1-6-2-3-7(6,9)4-5-8/h6,8-9H,2-5H2,1H3/t6-,7-/m0/s1
