16
gdb 29028	2.65161	1.71243	1.16541	2.4762	82.07	-0.2437	-0.0798	0.1639	1046.2029	0.12583	-396.950562	-396.942763	-396.941819	-396.982928	29.154	
C	-0.0212715783	 1.5172570713	 0.3215194509	-0.475689
C	-0.0233339362	 0.0463037351	 0.0382665683	 0.275436
C	-1.1610834553	-0.654794082	-0.174385438	-0.167356
C	-1.2420781569	-2.0545355545	-0.5307813239	 0.025876
N	-0.4323883063	-3.0236658002	-0.258004185	-0.243291
C	 0.6999123934	-2.8120788989	 0.5086281997	 0.07018
N	 1.4929617434	-1.8097532518	 0.5871516146	-0.251122
C	 1.3064098768	-0.6095222444	-0.1082570374	 0.238579
N	 2.2310812593	-0.002146879	-0.7410839967	-0.499649
H	 0.5870514227	 2.0306122749	-0.4286836101	 0.173302
H	-1.0317565058	 1.9314890329	 0.330903935	 0.123328
H	 0.4516012106	 1.7149795417	 1.2908905052	 0.148152
H	-2.1060914951	-0.1164274445	-0.1800426348	 0.106405
H	-2.1408486438	-2.3414159658	-1.0830548515	 0.1235
H	 0.9650958921	-3.6869874303	 1.1045975676	 0.128523
H	 3.0832152494	-0.5680881146	-0.724241924	 0.223825
84.8474	158.8449	181.8819	292.0801	306.9999	327.2105	359.3868	453.1257	538.3084	611.3796	663.3919	735.236	780.3183	867.6713	873.8975	924.6262	942.4217	971.1564	1019.8082	1026.4222	1060.3354	1067.2789	1137.7886	1185.7585	1319.9686	1395.9548	1401.377	1432.8798	1441.158	1465.0245	1480.6212	1579.9638	1671.4698	1674.9598	1704.7582	3037.1586	3094.1156	3099.8225	3122.0333	3135.4186	3156.585	3449.7277
CC1=CC=NC=NC1=N	CC1=CC=NC=N[C]1[NH]	
InChI=1S/C6H7N3/c1-5-2-3-8-4-9-6(5)7/h2-4,7H,1H3	InChI=1S/C6H7N3/c1-5-2-3-8-4-9-6(5)7/h2-4,7H,1H3
