18
gdb 77830	2.54737	1.52277	1.3491	3.9925	72.38	-0.2468	-0.002	0.2448	1045.705	0.14734	-439.101815	-439.093404	-439.09246	-439.134498	31.68	
C	-0.1911387949	 1.4893007225	-0.0239927943	-0.341096
N	 0.0650272825	 0.0550576289	 0.0805552265	-0.124863
C	 1.3542227183	-0.5340865981	-0.2955439019	-0.24578
C	 2.536169296	 0.3916566136	-0.3546791999	 0.446763
O	 3.2702140081	 0.6110859707	-1.2731905154	-0.338327
O	 2.6796286726	 1.0123962989	 0.8585442686	-0.227819
C	 1.8363432409	 0.4129744641	 1.8534414274	-0.148348
C	 0.8811672602	-0.5285402334	 1.1273232799	 0.292893
C	 0.3312859786	-1.7176872583	 1.8729947388	-0.477158
H	 0.6445450447	 2.1416793591	 0.2614255988	 0.133142
H	-0.4626709359	 1.7132854345	-1.0592024949	 0.139892
H	-1.051487978	 1.7271503033	 0.6089313683	 0.128564
H	 1.3373512055	-1.3808522745	-0.9727509051	 0.116046
H	 2.4657270638	-0.1373761405	 2.5612733551	 0.12522
H	 1.3239807993	 1.2150820992	 2.3949129923	 0.125022
H	-0.2651534193	-1.3948213287	 2.7340878472	 0.127853
H	-0.3168611706	-2.302681073	 1.217339358	 0.141835
H	 1.1370238082	-2.3601641783	 2.2428050706	 0.126159
123.4946	172.1205	194.856	217.1187	225.2697	260.1294	301.6197	429.9152	479.9246	496.3003	564.9708	681.2352	704.2845	766.2038	802.0876	884.952	923.9456	959.1476	987.8353	1049.4182	1070.8263	1124.4184	1148.0466	1155.3817	1169.6983	1171.874	1234.1651	1261.3879	1285.9199	1371.6642	1411.6111	1431.0283	1460.5294	1488.05	1492.6293	1495.9283	1502.2628	1516.2948	1879.1084	3011.6486	3033.8348	3042.4609	3083.0016	3085.7023	3096.3088	3114.8127	3133.5138	3177.7772
CN1C2C(=O)OCC12C	CN1[C@H]2C(=O)OC[C@@]12C	
InChI=1S/C6H9NO2/c1-6-3-9-5(8)4(6)7(6)2/h4H,3H2,1-2H3	InChI=1S/C6H9NO2/c1-6-3-9-5(8)4(6)7(6)2/h4H,3H2,1-2H3/t4-,6+,7?/m0/s1
