15
gdb 125062	2.70085	1.55598	0.99426	2.4141	71.12	-0.2427	-0.0413	0.2014	1120.3065	0.112354	-450.127953	-450.119457	-450.118513	-450.161488	30.851	
C	 0.1384695258	 1.5295511876	-0.0426084607	-0.501456
C	-0.0372536903	 0.0569040363	-0.0519766699	 0.329448
C	-1.13483574	-0.7632598452	-0.0181104647	 0.209358
N	-0.6605524913	-2.0551412186	-0.0523495971	-0.201207
N	 0.5936820398	-2.0793463734	-0.1016353964	-0.020348
O	 1.0441891552	-0.7185282425	-0.1041809975	-0.207263
C	-2.5747625328	-0.4594905644	 0.0481704034	 0.257362
N	-3.3732247783	-1.5735022494	-0.0507197411	-0.553283
N	-2.9480761313	 0.7634760884	 0.1528976965	-0.539977
H	 0.722079683	 1.8373654596	 0.8312542884	 0.152906
H	 0.6839720333	 1.8537086197	-0.9347253713	 0.152034
H	-0.8446718683	 1.9983383905	-0.0125170913	 0.192276
H	-2.9429911955	-2.476412877	 0.0744294475	 0.273777
H	-4.3396329873	-1.4898451052	 0.217374952	 0.252164
H	-3.9653389122	 0.8402142036	 0.1814859524	 0.204208
70.0278	81.0463	197.3943	205.6039	269.3852	307.7903	359.7642	420.1411	469.4406	506.7723	637.8714	654.2675	670.3062	681.2707	704.5503	782.9693	837.7415	1003.9499	1032.9062	1071.544	1089.7272	1130.6887	1189.7281	1238.4765	1359.3471	1402.3764	1435.9744	1471.4732	1478.7196	1489.9894	1623.5879	1649.4108	1710.4	3044.3435	3102.5642	3167.2178	3467.6927	3588.8007	3712.5904
CC1=C(N=NO1)C(N)=N	Cc1c(nno1)C(=N)N	
InChI=1S/C4H6N4O/c1-2-3(4(5)6)7-8-9-2/h1H3,(H3,5,6)	InChI=1S/C4H6N4O/c1-2-3(4(5)6)7-8-9-2/h1H3,(H3,5,6)
