17
gdb 101292	2.39911	1.17098	0.91395	2.6752	68.85	-0.2676	0.006	0.2736	1272.6957	0.135511	-455.11311	-455.103927	-455.102983	-455.147791	33.265	
O	-0.1965255473	 1.2052503653	 0.3236514415	-0.425451
C	-0.794507139	-0.0612877751	 0.600697964	-0.10919
C	-1.3022227581	-0.6702487708	-0.7129762131	 0.09729
O	-0.2579286133	-0.6483886262	-1.6711873263	-0.449855
C	-1.7544119569	-2.1170877424	-0.6087374869	-0.020003
N	-1.581999468	-2.8321872925	 0.6541888753	-0.311938
C	-2.9512111109	-2.5675452049	 0.1703013111	-0.20184
C	-3.7496924376	-1.6449750532	 0.9421864161	 0.340414
N	-4.4040565885	-0.8942164737	 1.5299411704	-0.341588
H	-0.9028011052	 1.8479390727	 0.1970881189	 0.292733
H	-0.0017926523	-0.6923805059	 1.0078695213	 0.1334
H	-1.5914467653	 0.0193911538	 1.3472240191	 0.126055
H	-2.1562439459	-0.0665968414	-1.0728060937	 0.072606
H	 0.2158570505	 0.1790053917	-1.5059351634	 0.290854
H	-1.5816533238	-2.6635983959	-1.5336015758	 0.118886
H	-1.3446488517	-3.8091273465	 0.505916444	 0.251552
H	-3.5254643467	-3.3906885951	-0.2464658025	 0.136074
46.8804	87.7339	140.5611	185.1792	231.6504	281.7398	329.9022	336.3034	389.4456	505.8277	542.0107	550.6043	589.1	647.1603	807.7494	850.225	883.5978	905.3686	960.0347	1018.9561	1030.339	1068.2553	1088.5641	1121.0315	1187.0044	1198.3101	1216.8361	1248.3665	1295.0373	1357.4608	1370.4844	1393.6586	1403.0166	1442.6284	1461.3195	1487.6532	2357.149	2927.5189	3056.6152	3125.8416	3136.1974	3149.531	3515.9282	3744.1869	3809.6165
OCC(O)C1NC1C#N	OC[C@@H](O)[C@H]1N[C@H]1C#N	
InChI=1S/C5H8N2O2/c6-1-3-5(7-3)4(9)2-8/h3-5,7-9H,2H2	InChI=1S/C5H8N2O2/c6-1-3-5(7-3)4(9)2-8/h3-5,7-9H,2H2/t3-,4+,5-/m0/s1
