14
gdb 46658	2.4126	1.76705	1.51185	4.8291	67.08	-0.265	-0.0073	0.2577	919.7098	0.100934	-436.660597	-436.653228	-436.652284	-436.692662	27.566	
O	-0.0363437028	-0.0121307976	 0.0760551968	-0.329863
C	-0.0150986872	 1.1759752924	 0.0401311839	 0.468383
O	-1.1386200869	 1.9496190458	 0.0492641711	-0.225748
C	-0.813312633	 3.3417132739	 0.0115148918	-0.113836
C	 0.7066302746	 3.3796780382	 0.0136622258	-0.056421
C	 1.4224227682	 2.7972364718	 1.1878234958	-0.219194
C	 0.7390039837	 2.5159354456	 2.4156468651	 0.36413
C	 0.1749022013	 2.2905175222	 3.4528824888	-0.442762
N	 1.1683341242	 1.9929716167	-0.058479779	-0.194729
H	-1.2187825269	 3.7767779913	-0.906490179	 0.132385
H	-1.2663658491	 3.8324743504	 0.8780541329	 0.139424
H	 1.2145751291	 4.1028095344	-0.6158671921	 0.122731
H	 2.477627137	 3.0337450918	 1.2916878995	 0.139023
H	-0.321580772	 2.0762456732	 4.3676227086	 0.216478
99.9992	124.9517	172.1257	255.3179	333.987	492.1097	534.6694	563.399	633.1538	685.5175	697.1752	723.2665	755.3044	815.8908	842.2814	867.261	975.0781	984.0438	1048.3036	1062.1959	1090.3728	1121.1359	1150.1449	1228.6156	1270.3229	1358.122	1372.5271	1408.0429	1515.0369	1911.1527	2240.2644	3054.6117	3100.4077	3150.663	3168.9816	3498.5279
O=C1OCC2C(C#C)N12	O=C1OC[C@H]2[C@@H](C#C)N12	
InChI=1S/C6H5NO2/c1-2-4-5-3-9-6(8)7(4)5/h1,4-5H,3H2	InChI=1S/C6H5NO2/c1-2-4-5-3-9-6(8)7(4)5/h1,4-5H,3H2/t4-,5+,7?/m1/s1
