21
gdb 105471	2.27325	1.08057	0.853	1.8346	88.32	-0.2438	0.048	0.2918	1469.0551	0.181072	-387.056494	-387.046205	-387.045261	-387.092791	36.914	
C	 0.2692932819	 1.5852368899	-0.2965272423	-0.502381
C	 0.1481146799	 0.1402431157	-0.1575146019	 0.108591
C	 0.0239352675	-1.0530248309	-0.0276623606	-0.042263
C	-0.0842463834	-2.4973873202	 0.1070727438	 0.121276
C	 0.7383424885	-3.17838342	-1.0037906287	-0.09721
O	 2.1105600903	-2.8511720827	-0.9404121779	-0.423867
C	 0.2301183678	-3.1061836007	 1.5169758539	-0.246196
C	-1.0240405111	-4.0105439887	 1.3840766393	-0.219109
C	-1.5198251311	-3.1164696305	 0.2157382929	-0.258809
H	 1.1004777007	 1.9755894497	 0.3012354664	 0.149086
H	 0.4460933413	 1.8741209935	-1.3384958926	 0.148239
H	-0.6431661288	 2.092343686	 0.036240514	 0.150273
H	 0.6773294068	-4.2662369144	-0.8922901766	 0.102592
H	 0.3006378345	-2.9157912866	-1.9802627853	 0.088607
H	 2.1645366897	-1.8874593561	-0.94998681	 0.283007
H	 1.2073736912	-3.5847814426	 1.6080298801	 0.115804
H	 0.1239026142	-2.3617271517	 2.308544626	 0.105715
H	-0.7806682943	-5.0263333778	 1.0628364347	 0.106325
H	-1.6749787657	-4.0780597868	 2.2578801816	 0.100876
H	-2.2533889464	-2.3740288428	 0.5360770842	 0.109368
H	-1.8947509834	-3.6135285421	-0.6838876812	 0.100077
36.5971	77.5576	99.7606	116.6734	158.4309	219.8577	284.6982	308.6519	324.0284	404.2297	439.0054	482.8796	531.5171	612.1827	697.408	795.7141	845.7346	871.8635	900.3826	942.8051	971.0242	1020.8097	1044.9092	1054.0725	1054.4476	1068.1447	1104.8342	1159.0938	1196.0909	1208.2099	1249.671	1253.0894	1265.8072	1272.9911	1331.3864	1374.0134	1414.5458	1429.7627	1476.4237	1478.4115	1479.1368	1485.0702	1500.098	1509.4097	2353.0971	2976.0285	3026.4015	3056.0516	3065.7458	3070.1058	3074.1589	3086.8493	3087.5113	3105.3305	3121.073	3132.7195	3775.0222
CC#CC1(CO)CCC1	CC#CC1(CO)CCC1	
InChI=1S/C8H12O/c1-2-4-8(7-9)5-3-6-8/h9H,3,5-7H2,1H3	InChI=1S/C8H12O/c1-2-4-8(7-9)5-3-6-8/h9H,3,5-7H2,1H3
