14
gdb 28759	5.73513	0.94405	0.81062	5.3636	68.01	-0.1925	0.0032	0.1957	1298.2569	0.102052	-470.062127	-470.053906	-470.052962	-470.09609	29.573	
O	 0.07407755	 1.3406775395	 0.2677718655	-0.427285
C	 0.0670288254	 0.0169138416	 0.0339075252	 0.450236
N	 0.081836471	-0.5873981176	-1.1150156922	-0.352752
C	 0.0652246206	-1.9467838107	-0.8123469347	-0.162806
C	 0.0403382478	-2.1216975715	 0.5416880972	 0.40631
N	 0.0165626441	-3.246817651	 1.3694989811	-0.42046
C	 0.0140932215	-4.5403069993	 0.9211840585	 0.141035
O	 0.0319761512	-4.8707384326	-0.2423828769	-0.297998
N	 0.0414840235	-0.8419824285	 1.0929651569	-0.40075
H	 0.0928697659	 1.765417753	-0.5992817337	 0.316191
H	 0.0719619818	-2.7084009024	-1.5703734086	 0.144967
H	 0.000067789	-3.1056589925	 2.3673019498	 0.251899
H	-0.0065799533	-5.2556323276	 1.765182526	 0.083224
H	 0.0272696615	-0.5805219603	 2.063940616	 0.26819
20.3825	160.8919	168.824	257.0919	288.9954	347.3533	365.7763	404.8333	471.5086	491.9534	589.9193	651.5562	719.6529	734.397	825.6542	868.7123	997.2844	1001.1247	1048.1743	1138.2346	1153.4133	1207.5309	1234.4498	1285.4472	1388.1703	1428.9316	1540.1557	1569.6718	1618.6407	1646.151	1803.6059	2953.2358	3311.1852	3630.0737	3669.3396	3803.2905
OC1=NC=C(NC=O)N1	Oc1ncc(NC=O)[nH]1	
InChI=1S/C4H5N3O2/c8-2-6-3-1-5-4(9)7-3/h1-2H,(H,6,8)(H2,5,7,9)	InChI=1S/C4H5N3O2/c8-2-6-3-1-5-4(9)7-3/h1-2H,(H,6,8)(H2,5,7,9)
