20
gdb 98317	4.13371	0.82461	0.70496	0.3423	84.8	-0.2249	0.0074	0.2322	1633.8014	0.169189	-436.472751	-436.461984	-436.46104	-436.509339	36.903	
C	-0.3014102127	 1.3068989451	-0.0988766226	-0.224273
O	-0.1937681424	-0.1118837096	-0.2229296492	-0.244815
C	 0.6876527156	-0.5577788046	-1.1385897039	 0.496285
N	 1.3260663755	 0.2504873699	-1.885871889	-0.587937
N	 0.7362883539	-1.9551597107	-1.0938836159	-0.168128
C	 0.1952993621	-2.6845200539	 0.0551127438	-0.33518
C	 1.2078296716	-2.6702306767	-2.1822086111	 0.114983
N	 1.3088983607	-3.9333350162	-2.188342936	-0.246975
C	 1.7888353245	-4.5586115027	-3.4017611285	-0.312005
H	 0.6692181018	 1.750063116	 0.1374220057	 0.140411
H	-0.6674158544	 1.749383233	-1.0285626109	 0.141833
H	-1.011338305	 1.4740566358	 0.7122228383	 0.126936
H	 2.0177891427	-0.2122675927	-2.4652617905	 0.222013
H	-0.8962479255	-2.7484207615	 0.0074099935	 0.134075
H	 0.6141323899	-3.6890506105	 0.0272336031	 0.161303
H	 0.476093995	-2.1802400949	 0.9794521291	 0.136833
H	 1.4587068383	-2.0390840471	-3.0419900337	 0.095306
H	 1.0347081414	-5.2572379898	-3.7833023011	 0.126786
H	 2.0330361172	-3.8440650965	-4.2050961601	 0.096278
H	 2.6859747397	-5.1500515725	-3.183864181	 0.126271
46.3107	85.2458	107.7721	137.3897	168.2624	175.4995	183.5562	211.3757	281.0657	358.6272	376.3951	404.1302	430.2337	545.8729	725.5715	739.8649	776.4587	861.9048	968.9625	991.0572	1046.9869	1094.0292	1105.8848	1139.8979	1151.1615	1156.9972	1182.9026	1213.2257	1248.8519	1334.0945	1373.7455	1428.2489	1446.6466	1452.1472	1475.0223	1479.5047	1483.919	1493.5633	1501.294	1504.0096	1518.3355	1713.4421	1752.8725	2966.7503	3050.698	3051.275	3053.0191	3055.8012	3070.9387	3126.726	3130.116	3151.8306	3175.3608	3560.4342
COC(=N)N(C)C=NC	COC(=N)N(C)C=NC	
InChI=1S/C5H11N3O/c1-7-4-8(2)5(6)9-3/h4,6H,1-3H3	InChI=1S/C5H11N3O/c1-7-4-8(2)5(6)9-3/h4,6H,1-3H3
