18
gdb 22890	2.27885	1.59378	1.01991	1.9225	78.77	-0.2199	-0.0325	0.1874	1172.1984	0.148155	-435.252609	-435.243582	-435.242637	-435.286713	34.023	
C	 0.0348091854	 1.5680690706	 0.0351300341	-0.393407
C	 0.0296597608	 0.0331313269	 0.0547178773	-0.075014
C	 0.784774573	-0.6074207774	-1.1458562741	-0.179609
N	 1.9478168855	-1.3245087489	-0.6308289676	-0.288458
C	 1.9597925769	-1.2679202887	 0.6540722315	 0.310028
N	 2.9580017965	-1.7907579294	 1.4242617306	-0.579724
C	 0.7996333101	-0.5318514292	 1.2316236099	 0.332116
N	 0.3968469143	-0.354585156	 2.4293604202	-0.241566
O	 1.2333736639	-0.9480931646	 3.3935899211	-0.395962
H	 1.0585530005	 1.952510624	-0.0260826916	 0.122847
H	-0.5199241837	 1.9434639073	-0.8306855621	 0.115528
H	-0.4253513467	 1.9676194247	 0.9430329803	 0.129591
H	-1.0072481983	-0.3146236241	 0.0965857896	 0.09681
H	 0.1453284147	-1.3025309719	-1.7049625799	 0.105353
H	 1.1112196914	 0.1550087137	-1.8649072718	 0.104665
H	 3.5829860125	-2.4285644851	 0.9573174014	 0.254302
H	 2.7585310484	-1.9486889715	 2.3968073144	 0.270116
H	 0.7821395048	-0.7329112802	 4.2159093667	 0.312384
28.1462	165.1838	208.7515	246.2897	272.7695	283.9497	328.7853	373.6264	410.1164	433.6071	459.4495	515.177	552.8142	659.6809	725.6098	736.599	787.707	891.8604	935.8028	971.9945	974.6714	1021.0381	1100.9039	1125.2652	1162.4571	1204.0436	1233.4278	1278.7144	1323.706	1347.1059	1391.1428	1408.6395	1421.7354	1494.3105	1498.5531	1504.2365	1610.0265	1697.8715	1728.1235	3015.4942	3033.6508	3037.5002	3057.8094	3104.9754	3117.5212	3594.6635	3727.4103	3829.8001
CC1CN=C(N)C1=NO	C[C@H]1CN=C(N)C1=NO	
InChI=1S/C5H9N3O/c1-3-2-7-5(6)4(3)8-9/h3,9H,2H2,1H3,(H2,6,7)	InChI=1S/C5H9N3O/c1-3-2-7-5(6)4(3)8-9/h3,9H,2H2,1H3,(H2,6,7)/t3-/m0/s1
