18
gdb 5828	2.8954	1.66808	1.38222	2.7488	74.38	-0.258	-0.0555	0.2025	989.1757	0.149584	-347.794788	-347.785173	-347.784229	-347.828725	34.984	
C	-0.0245406575	 1.5506953107	 0.0274765672	-0.405022
C	 0.0025009522	 0.017157829	 0.0037543947	 0.138357
C	 0.7619384908	-0.5282719815	 1.2329303862	-0.417636
C	-1.4349772869	-0.5476486216	-0.0106174998	-0.417544
C	 0.7250836837	-0.4526605968	-1.2669467637	 0.233749
O	 1.1842731889	 0.3050566173	-2.0937494608	-0.303737
C	 0.8449737589	-1.8956171566	-1.4530319219	 0.27491
C	 0.956106655	-3.0817225003	-1.6284368937	-0.412742
H	 0.9871257278	 1.9641934815	 0.0229757208	 0.124704
H	-0.5455377866	 1.9505697669	-0.8460559469	 0.124817
H	-0.5384676645	 1.899965032	 0.9285526108	 0.104998
H	 0.2474711156	-0.2213328129	 2.1492387041	 0.119747
H	 0.813171128	-1.6203972018	 1.2217045282	 0.127814
H	 1.7839073879	-0.1379400356	 1.2729172941	 0.123795
H	-2.0005345627	-0.1705711968	-0.8687017964	 0.123839
H	-1.437053201	-1.6402235281	-0.0529541528	 0.127817
H	-1.959617424	-0.241589742	 0.900202023	 0.119751
H	 1.0605380243	-4.1265174533	-1.7945160533	 0.212382
45.411	145.8533	176.7681	194.9695	252.085	252.3979	284.9501	294.0149	346.9341	364.8834	376.1975	495.2912	580.8021	642.9315	686.7348	701.5295	765.2699	830.4274	940.7215	947.9972	966.7705	1023.5333	1040.3226	1094.0614	1221.5334	1243.0922	1289.3492	1395.6996	1401.4911	1430.7644	1475.3213	1481.7684	1486.8592	1497.0802	1502.5219	1519.3636	1761.2678	2205.8543	3034.4074	3036.472	3045.4314	3103.8027	3105.2711	3115.9982	3116.3074	3119.6839	3125.1674	3494.3886
CC(C)(C)C(=O)C#C	CC(C)(C)C(=O)C#C	
InChI=1S/C7H10O/c1-5-6(8)7(2,3)4/h1H,2-4H3	InChI=1S/C7H10O/c1-5-6(8)7(2,3)4/h1H,2-4H3
