19
gdb 49309	3.16785	1.14119	0.87926	2.5454	80.76	-0.25	-0.0558	0.1942	1299.316	0.16012	-423.044521	-423.036187	-423.035243	-423.07801	31.217	
O	-0.1985090797	 0.0441385556	-0.2720822421	-0.275396
C	-0.0164144405	 1.2398625107	-0.2651772513	 0.104667
C	 1.274315326	 1.8995345722	 0.0467331303	 0.208649
C	 1.274191287	 3.2409062982	-0.0044425119	-0.133182
C	 2.4194985784	 4.1923365431	 0.2346641301	-0.1415
O	 3.2742976418	 3.8938946134	 1.312476656	-0.233173
C	 4.1233410019	 2.7710233238	 1.1426060849	-0.070466
C	 3.4233138474	 1.4409510563	 1.4171312362	-0.202419
C	 2.4445229574	 0.989400941	 0.3278559909	-0.312485
H	-0.8429962385	 1.9470267019	-0.5022754849	 0.070499
H	 0.3374531736	 3.7235325716	-0.2861778657	 0.100155
H	 2.9987373464	 4.2844346549	-0.7045138559	 0.108098
H	 2.0155112993	 5.1865157869	 0.4509274259	 0.121942
H	 4.5641661837	 2.7758494219	 0.1308566828	 0.083775
H	 4.9389403126	 2.9144589658	 1.858755813	 0.109297
H	 4.1919213647	 0.6665461094	 1.532335607	 0.099386
H	 2.9053017253	 1.5228475374	 2.3794973342	 0.112663
H	 2.0384995284	 0.0038563516	 0.5738063892	 0.134097
H	 2.9990135346	 0.8491188642	-0.6125695789	 0.115392
52.3554	116.1835	199.422	226.7134	279.5565	345.9989	368.9829	382.9723	460.4866	531.4872	593.1617	713.3456	744.1145	833.8683	862.725	886.6963	928.7298	958.9934	1025.5313	1041.3071	1057.3201	1074.7048	1111.1273	1133.4967	1207.418	1215.5423	1275.3583	1287.2857	1332.0137	1348.8426	1383.6873	1400.235	1405.269	1422.8382	1436.4422	1471.2114	1472.0004	1482.4679	1496.5937	1707.6412	1792.1454	2875.6246	2921.9817	2962.4869	2999.4154	3029.1189	3070.8344	3073.7296	3076.8032	3088.3273	3120.1705
O=CC1=CCOCCC1	O=CC1=CCOCCC1	
InChI=1S/C7H10O2/c8-6-7-2-1-4-9-5-3-7/h3,6H,1-2,4-5H2	InChI=1S/C7H10O2/c8-6-7-2-1-4-9-5-3-7/h3,6H,1-2,4-5H2
