19
gdb 106707	2.44743	1.49016	1.19286	2.911	74.85	-0.2441	0.0651	0.3092	1123.6733	0.157536	-422.96427	-422.955537	-422.954592	-422.997651	33.332	
C	 0.1478848159	 1.4555063917	 0.2565384468	-0.378717
C	-0.1490850235	-0.0000237298	-0.1275150819	-0.285227
C	 0.6065655312	-0.4658741305	-1.3410034882	 0.263973
C	 2.0453991213	-0.9524074064	-1.320102833	-0.404938
C	 0.9525691938	-1.9073217604	-1.7494122397	 0.321356
O	 0.6284389587	-3.0409741202	-1.0294890704	-0.4597
C	 0.5209523888	-1.6005826466	-3.1687301479	-0.057675
O	-0.8291313671	-1.103588389	-3.1573068948	-0.244362
C	 0.2233225757	-0.2065994352	-2.7890805724	-0.037542
H	 1.2095910891	 1.5953511259	 0.4856642903	 0.114872
H	-0.1088771056	 2.1413437494	-0.5579979095	 0.116079
H	-0.4296662627	 1.7547172716	 1.136572017	 0.113594
H	 0.0904495995	-0.6637388652	 0.7119450422	 0.106054
H	-1.221400818	-0.1248650178	-0.3197953827	 0.116311
H	 2.7796207539	-0.5762541895	-2.0278667088	 0.107106
H	 2.4415454205	-1.1506590459	-0.3274652625	 0.116035
H	 1.3767136324	-3.6466275517	-1.0539684517	 0.288976
H	 0.8889585321	-1.9958399166	-4.1086758721	 0.101722
H	 0.3462864241	 0.6932175162	-3.3806808708	 0.102082
68.2886	130.3128	183.1915	227.561	253.504	270.2229	287.2029	408.3071	443.1237	571.3306	592.2009	634.173	738.2026	783.7881	800.9643	819.8873	868.5746	878.4525	927.438	966.0676	977.7544	991.7601	1014.174	1059.3897	1079.281	1096.502	1146.2657	1194.8265	1226.0335	1246.1561	1271.318	1318.9831	1333.8642	1351.2038	1376.5696	1407.5461	1413.7116	1481.3537	1497.9076	1499.4514	1507.0889	3029.8132	3032.8437	3063.2281	3101.3686	3105.6976	3106.9431	3178.2643	3192.1069	3193.1095	3802.7953
CCC12CC1(O)C1OC21	CC[C@@]12C[C@]1(O)[C@H]1O[C@@H]21	
InChI=1S/C7H10O2/c1-2-6-3-7(6,8)5-4(6)9-5/h4-5,8H,2-3H2,1H3	InChI=1S/C7H10O2/c1-2-6-3-7(6,8)5-4(6)9-5/h4-5,8H,2-3H2,1H3/t4-,5+,6+,7+/m1/s1
