17
gdb 68152	3.50678	1.28473	1.10892	3.0721	68.78	-0.2552	-0.0358	0.2194	1091.4878	0.134672	-458.942271	-458.934189	-458.933245	-458.975419	30.785	
O	-0.0759910098	 1.3944858993	 0.0007633229	-0.474838
C	-0.0311614875	 0.0095531886	 0.0202042049	 0.345586
C	 0.1775946103	-0.8616512073	 1.3070441658	-0.331187
C	-0.4291238752	-1.9288379026	 0.352049221	 0.343586
C	-1.3351208196	-0.7960729794	-0.2108665083	-0.296892
O	 0.5833676819	-2.0906766401	-0.6581482143	-0.320378
C	 0.9156878265	-0.7209159667	-0.9578691061	-0.137713
C	-0.9517681821	-3.2491005767	 0.8243196544	 0.069619
O	-1.8367557965	-3.3577222028	 1.6347546778	-0.260771
H	 0.8120569409	 1.7384357542	 0.1494687039	 0.286199
H	 1.19364103	-1.0464875827	 1.6637454316	 0.102629
H	-0.4973221261	-0.5883384617	 2.1176662428	 0.129275
H	-2.1347166262	-0.5204598914	 0.4759256671	 0.131074
H	-1.6991346087	-0.9158269006	-1.233210947	 0.110223
H	 0.7015333532	-0.4896389606	-2.0073554873	 0.111804
H	 1.9781777223	-0.5330772636	-0.75542192	 0.096458
H	-0.4511314734	-4.1295879859	 0.3664909507	 0.095326
37.7665	159.1091	200.1433	260.1673	305.8741	353.2291	434.5882	452.0123	476.3752	547.4235	594.5648	676.6389	715.1996	801.5452	875.0727	917.0164	937.8927	949.4098	1000.6379	1005.0565	1028.2843	1095.9472	1113.156	1140.5161	1155.6162	1162.4919	1178.5653	1213.7878	1273.3155	1304.0719	1347.5605	1393.516	1408.0546	1471.2168	1507.1283	1533.0663	1827.414	2903.6717	3015.0366	3066.2169	3073.6984	3082.9958	3155.7961	3163.4725	3799.7234
OC12CC(C1)(OC2)C=O	O[C@@]12C[C@@](C1)(OC2)C=O	
InChI=1S/C6H8O3/c7-3-6-1-5(8,2-6)4-9-6/h3,8H,1-2,4H2	InChI=1S/C6H8O3/c7-3-6-1-5(8,2-6)4-9-6/h3,8H,1-2,4H2/t5-,6-
