19
gdb 39253	2.93148	1.78437	1.30185	1.4565	80.59	-0.2209	0.0205	0.2414	997.2902	0.162001	-385.887987	-385.881035	-385.88009	-385.919141	28.666	
C	-0.2525890853	 1.4330662894	-0.0341946343	-0.380048
C	 1.1982996338	 1.0522059931	 0.0904529554	 0.047057
O	 1.7349140901	 1.0010431545	 1.3882186937	-0.262866
C	 1.5221965902	-0.3214394623	 1.8971324185	-0.08404
C	 0.1886964903	-0.803446745	 1.2917848597	-0.086803
C	 0.100106482	-2.3002389169	 0.8836277463	-0.30477
C	-0.0182739548	-2.2679694068	-0.6254528437	-0.075014
C	-0.0007909493	-1.0268025181	-1.1172779333	-0.181929
C	 0.1504620172	-0.0263629786	-0.0415653741	 0.329738
H	-0.7496237785	 1.8248600814	 0.847918802	 0.114927
H	-0.5751501319	 1.8692000695	-0.975583472	 0.109866
H	 1.9102471271	 1.2935446361	-0.6937730361	 0.093945
H	 2.3442859901	-0.9844839585	 1.5829318731	 0.090014
H	 1.5251096365	-0.258695245	 2.9888582794	 0.107412
H	-0.6427490655	-0.5239457294	 1.9452663893	 0.078271
H	 0.9874737622	-2.8638552389	 1.2043986963	 0.106301
H	-0.7575862109	-2.8021892974	 1.3466515702	 0.109532
H	-0.0919004098	-3.1722429234	-1.2192953017	 0.093459
H	-0.0710499036	-0.7616846138	-2.1661736587	 0.094949
128.7714	192.347	249.1821	361.3402	419.9911	454.785	540.5474	596.2677	618.6946	740.6153	791.1348	798.3447	834.8006	880.3857	909.3495	936.3618	945.8691	963.203	974.0221	1007.8102	1029.3169	1040.1399	1052.6444	1084.1289	1086.7369	1125.1502	1137.8845	1195.6657	1236.8539	1255.8485	1257.8982	1278.7203	1318.1667	1323.9822	1347.6216	1392.9157	1416.5805	1471.0088	1485.9568	1513.7551	1670.0296	2975.5047	3012.3541	3042.3409	3061.4892	3092.0557	3114.7998	3146.7849	3184.3686	3206.7484	3208.7712
C1C2OCC3CC=CC123	C1[C@H]2OC[C@@H]3CC=C[C@]123	
InChI=1S/C8H10O/c1-2-6-5-9-7-4-8(6,7)3-1/h1,3,6-7H,2,4-5H2	InChI=1S/C8H10O/c1-2-6-5-9-7-4-8(6,7)3-1/h1,3,6-7H,2,4-5H2/t6-,7+,8+/m0/s1
