15
gdb 48451	1.94269	1.65219	1.26282	1.9427	74.03	-0.2481	-0.057	0.1911	1059.0609	0.109015	-420.605652	-420.596802	-420.595858	-420.639583	31.837	
O	-0.4471334677	 0.538871604	 0.6794193503	-0.244444
C	 0.2302968775	 0.9315574167	-0.2331461444	 0.117642
C	 1.336296872	 1.9786558496	-0.0796533348	-0.0905
C	 1.338349251	 2.6408177873	 1.3364649742	-0.273002
C	 2.399472287	 1.6254685186	 1.8489076866	-0.336493
C	 2.6490837151	 1.2051253349	 0.4054945833	 0.366602
O	 3.5056772614	 0.6354247237	-0.1882457782	-0.263941
C	 1.4671906912	 2.7889903745	-1.264811225	 0.226284
C	 1.5755838466	 3.4485690971	-2.2644062936	-0.386674
H	 0.1268106533	 0.5373675209	-1.2634597104	 0.112647
H	 1.7101219298	 3.6641565804	 1.2964249554	 0.129583
H	 0.3711046468	 2.6018751786	 1.8351063814	 0.138938
H	 3.2722760797	 2.0022880981	 2.3858758984	 0.141596
H	 1.9539269601	 0.8053485879	 2.4209361551	 0.159142
H	 1.6780076863	 4.0373465077	-3.1425106384	 0.202622
82.3456	89.3047	116.7047	159.628	222.8206	275.761	363.6743	466.1489	497.4362	510.9988	595.2698	614.1401	629.746	658.8233	716.9418	753.519	820.8796	935.5845	942.9219	1030.6801	1039.345	1089.7307	1134.4677	1198.4901	1220.392	1244.1034	1270.2764	1405.8228	1433.3372	1473.8577	1810.4943	1909.9651	2233.1387	2941.3294	3065.7946	3101.9513	3127.2287	3168.7261	3500.1505
O=CC1(CCC1=O)C#C	O=C[C@]1(CCC1=O)C#C	
InChI=1S/C7H6O2/c1-2-7(5-8)4-3-6(7)9/h1,5H,3-4H2	InChI=1S/C7H6O2/c1-2-7(5-8)4-3-6(7)9/h1,5H,3-4H2/t7-/m1/s1
