21
gdb 95557	2.37736	1.59072	1.02087	0.9375	89.94	-0.208	-0.0196	0.1884	1218.3451	0.182586	-387.100453	-387.091564	-387.09062	-387.133733	34.478	
C	-0.4404811952	 1.358314328	-0.0282178111	-0.408717
C	 0.05409324	-0.0830214998	 0.0405879152	 0.010643
O	 0.8503417229	-0.300476681	-1.1350609525	-0.250924
C	 0.6831269048	-1.5599031167	-1.7355433522	-0.133624
C	 0.9242401661	-2.7518052534	-0.8568764205	-0.092703
C	 1.2565027203	-2.7815340968	 0.4434110143	-0.067987
C	 1.3722475472	-1.6831607277	 1.3943346988	-0.14765
C	 0.8520810383	-0.4478188786	 1.2861119008	 0.299471
C	 1.047581273	 0.5713182991	 2.3751186558	-0.490449
H	 0.4007012605	 2.0563981079	-0.062993444	 0.127963
H	-1.0298674031	 1.4960665684	-0.9380338856	 0.119205
H	-1.0675485491	 1.6098891457	 0.8315663725	 0.113586
H	-0.8170119256	-0.7566542339	-0.0040635062	 0.084604
H	-0.3160729963	-1.654108143	-2.2032926855	 0.091057
H	 1.4038700421	-1.5782061219	-2.5653077683	 0.119898
H	 0.8520414849	-3.7006820301	-1.3868063376	 0.088606
H	 1.4614845081	-3.7629489364	 0.8676718466	 0.084263
H	 1.9148865187	-1.9245247685	 2.3064578572	 0.07862
H	 1.6509249582	 0.1606498612	 3.1886428026	 0.119088
H	 1.5523206824	 1.4711543254	 2.0025487854	 0.130633
H	 0.0938042815	 0.9070640923	 2.8016584146	 0.124417
65.4912	169.1006	204.3257	251.8356	264.2019	305.3129	314.8458	367.9039	384.4768	427.9951	482.5557	590.1387	634.709	727.9367	743.9464	827.6743	876.4428	885.5327	907.3706	982.2688	1006.424	1016.5817	1032.9884	1067.9191	1069.6451	1094.4248	1130.9618	1172.721	1217.0002	1266.5504	1274.139	1330.967	1366.7233	1388.4378	1403.2359	1406.3395	1415.9006	1442.1372	1474.5615	1477.6274	1481.1546	1497.7429	1503.4314	1680.0387	1709.5516	2913.0361	2967.9558	3017.721	3022.515	3047.8591	3062.9719	3111.3904	3122.3031	3123.9616	3124.7379	3137.8386	3152.4061
CC1OCC=CC=C1C	C[C@H]1OCC=CC=C1C	
InChI=1S/C8H12O/c1-7-5-3-4-6-9-8(7)2/h3-5,8H,6H2,1-2H3	InChI=1S/C8H12O/c1-7-5-3-4-6-9-8(7)2/h3-5,8H,6H2,1-2H3/t8-/m1/s1
