18
gdb 126673	6.56223	0.72141	0.65793	1.4998	74.72	-0.2307	0.003	0.2337	1686.4187	0.148852	-435.268978	-435.260119	-435.259175	-435.30365	31.33	
C	-0.0331498225	 1.5037635139	 0.0383766089	-0.384327
C	 0.0275315655	-0.0238994408	-0.0435948533	-0.190783
C	 0.7426742471	-0.4976476614	-1.2980548546	-0.04505
O	 0.7483338788	-1.9316726951	-1.284010811	-0.273674
C	 1.3410493016	-2.5321653823	-2.3207892481	 0.390469
N	 1.9122532026	-1.8947550503	-3.3405059348	-0.307381
N	 2.3519166032	-2.9046777501	-4.0996595678	-0.084039
N	 2.1133557264	-4.1272988009	-3.6578614106	-0.188385
C	 1.463280413	-3.9241652405	-2.5134753589	-0.145518
H	 0.9701355693	 1.9432547768	 0.0539377818	 0.119989
H	-0.5678218766	 1.92894717	-0.8179698658	 0.119986
H	-0.5508163032	 1.8255496677	 0.94618604	 0.120339
H	 0.5453437536	-0.431430387	 0.8321417129	 0.110244
H	-0.9839680202	-0.4456880077	-0.0342746251	 0.110241
H	 0.2383542709	-0.1456503123	-2.2069450022	 0.114704
H	 1.7763691472	-0.1310476149	-1.3356517159	 0.114682
H	 2.8394535363	-2.7372002713	-4.9633003027	 0.291035
H	 1.1222219371	-4.7389578536	-1.8975232328	 0.127469
54.9637	73.069	111.7032	144.729	235.3681	290.6248	338.0893	351.6047	416.4706	511.9228	703.6844	736.1595	765.0448	770.5324	851.1503	896.2769	914.5872	982.8482	1009.4113	1048.4004	1068.8115	1144.6414	1167.3291	1189.3356	1202.924	1259.18	1268.3758	1314.054	1334.6055	1382.6564	1407.6546	1417.0681	1430.5307	1492.2411	1501.8341	1505.1012	1513.5848	1524.317	1598.3112	3018.2489	3034.565	3041.0165	3052.5179	3077.9863	3103.853	3112.1895	3284.3354	3684.5348
CCCOC1=NNN=C1	CCCOc1n[nH]nc1	
InChI=1S/C5H9N3O/c1-2-3-9-5-4-6-8-7-5/h4H,2-3H2,1H3,(H,6,7,8)	InChI=1S/C5H9N3O/c1-2-3-9-5-4-6-8-7-5/h4H,2-3H2,1H3,(H,6,7,8)
