22
gdb 76556	2.49489	1.23568	1.13199	1.8923	82.89	-0.2246	0.074	0.2986	1255.3984	0.191857	-404.303384	-404.293348	-404.292404	-404.338097	36.848	
C	-0.1009748533	 1.5925107694	 0.2465125349	-0.419954
C	 0.0407225486	 0.0918805283	 0.1045201966	-0.066706
N	 1.3044097061	-0.573887351	-0.2520623059	-0.148401
C	 2.5123929664	 0.2041133692	-0.4882738195	-0.322123
C	 0.8040531518	-0.7133708742	 1.0943477044	 0.256266
C	 1.4205055726	-0.2659377779	 2.4210053433	-0.150686
O	 0.9944601012	-1.4923669287	 3.0461468672	-0.300284
C	 0.4844830077	-2.0353041376	 1.7959342142	 0.094861
C	-0.9566054296	-2.4885558032	 1.9035109043	-0.407666
H	 0.7127480917	 2.044302614	 0.8190272323	 0.122249
H	-0.1349080168	 2.079411378	-0.73421444	 0.125666
H	-1.037170132	 1.8277881961	 0.7637299642	 0.126973
H	-0.8186618394	-0.3812967761	-0.3709509378	 0.089519
H	 2.6504054863	 1.0673685844	 0.1793089602	 0.103539
H	 3.3803693762	-0.4522981751	-0.3696610314	 0.127568
H	 2.5074449945	 0.569209232	-1.5199400658	 0.124819
H	 2.5146159209	-0.16103784	 2.4175068316	 0.09953
H	 0.982596186	 0.6169082479	 2.9039896273	 0.10244
H	 1.1247755888	-2.8564494494	 1.4427754398	 0.078033
H	-1.6018585058	-1.6632943493	 2.2192318662	 0.116787
H	-1.3118545631	-2.8649631954	 0.9380249839	 0.120447
H	-1.0456861487	-3.2967079915	 2.63617657	 0.127123
79.6916	124.517	162.0456	165.2166	186.2998	192.3858	227.6682	257.4346	292.2961	412.0575	461.0941	501.7593	527.7768	586.9984	737.2588	792.9578	817.3872	874.5104	957.1995	1002.8942	1016.1796	1025.2821	1059.1334	1085.4773	1105.4938	1124.7478	1148.4917	1151.7275	1157.1338	1173.0657	1201.2349	1218.429	1280.0676	1332.0883	1373.4608	1380.3506	1402.151	1406.9567	1444.2618	1474.8678	1484.4927	1486.8547	1490.9052	1495.4489	1503.3914	1509.4807	1521.1679	2988.0537	2996.0154	3003.6811	3034.3679	3036.6151	3038.7731	3070.0182	3094.5679	3095.455	3103.0628	3106.6146	3114.6052	3121.9745
CC1N(C)C11COC1C	C[C@H]1N(C)[C@]21CO[C@H]2C	
InChI=1S/C7H13NO/c1-5-7(8(5)3)4-9-6(7)2/h5-6H,4H2,1-3H3	InChI=1S/C7H13NO/c1-5-7(8(5)3)4-9-6(7)2/h5-6H,4H2,1-3H3/t5-,6+,7+,8?/m1/s1
