20
gdb 7351	4.07345	1.10094	0.95592	1.859	72.4	-0.2618	0.0196	0.2814	1309.1892	0.174457	-386.192824	-386.182764	-386.181819	-386.22903	34.724	
C	-0.9206435042	 1.1066634784	-0.3843755783	-0.391139
C	 0.0957271157	 0.049016376	 0.0009458168	-0.041941
O	 0.5958067427	-0.5400156505	-1.2153181095	-0.251067
C	 1.518803513	-1.5134534423	-1.063672636	 0.44826
O	 1.9314308469	-1.8763139526	 0.0102059993	-0.362914
C	 1.9277594198	-2.087335493	-2.41243042	-0.082959
C	 3.2544398557	-2.8413393585	-2.3017651099	-0.382425
C	 0.7940439956	-2.9854700695	-2.9472759775	-0.390508
H	-0.4617105811	 1.8819467882	-1.0044236714	 0.129146
H	-1.7504827332	 0.665867075	-0.9441052502	 0.12836
H	-1.3247636834	 1.5794647512	 0.5157081657	 0.122729
H	 0.9356995998	 0.4719652143	 0.5610923026	 0.121348
H	-0.3453943641	-0.737443693	 0.621686894	 0.120408
H	 2.0346578236	-1.239245677	-3.0987707941	 0.097508
H	 4.0586738259	-2.185600286	-1.9571044191	 0.120909
H	 3.1712670425	-3.6633769205	-1.585992781	 0.133484
H	 3.5388747847	-3.2528132262	-3.2749372768	 0.107656
H	-0.1433238521	-2.4300414959	-3.0312065822	 0.127766
H	 1.0552291719	-3.3734774808	-3.9363144755	 0.118595
H	 0.6308060003	-3.8402381774	-2.2822638169	 0.126784
22.1905	58.4078	116.5727	146.4758	202.8498	230.4277	250.8245	285.0231	301.9221	337.2151	380.5186	476.4843	645.0584	759.7861	807.6721	855.2525	879.3748	933.5132	942.4885	972.4026	1054.0893	1113.6333	1129.1496	1139.8545	1183.0642	1186.4777	1217.5073	1290.6568	1328.8539	1367.4771	1393.2614	1402.9173	1418.1782	1425.6374	1486.0101	1486.4771	1488.2683	1496.3352	1499.9844	1512.6116	1520.4935	1813.0548	3036.8194	3042.1603	3044.9224	3045.3022	3049.6929	3086.8007	3106.8067	3114.6526	3119.499	3123.0979	3124.5907	3124.9144
CCOC(=O)C(C)C	CCOC(=O)C(C)C	
InChI=1S/C6H12O2/c1-4-8-6(7)5(2)3/h5H,4H2,1-3H3	InChI=1S/C6H12O2/c1-4-8-6(7)5(2)3/h5H,4H2,1-3H3
