14
gdb 127773	3.49433	1.7356	1.16821	3.7957	69.76	-0.2276	-0.0111	0.2165	975.4295	0.103236	-432.85411	-432.847212	-432.846267	-432.88568	25.699	
C	-0.011772625	 1.4323338278	 0.0096679656	-0.346814
N	-0.0066160822	-0.0112436368	 0.0757924637	-0.126588
N	-0.043432268	-0.7718815085	-1.0841339846	-0.159626
N	-0.0299780809	-2.0370912669	-0.77462547	-0.289416
C	 0.0161060539	-2.1366076627	 0.5847497179	 0.235913
C	 0.0303465806	-0.8674978535	 1.1049903231	 0.462652
O	 0.0750589408	-0.8214641993	 2.4427925908	-0.220792
C	 0.0906010677	-2.1764332768	 2.8046469579	-0.013523
C	 0.0567291349	-3.0088416302	 1.730940862	-0.29801
H	 0.8972334192	 1.8443983278	 0.4572698209	 0.151354
H	-0.0535390766	 1.7019922863	-1.0457510641	 0.17401
H	-0.8846441261	 1.8408032834	 0.5269757049	 0.151364
H	 0.1266642938	-2.345000574	 3.8676683815	 0.146355
H	 0.0607880281	-4.0861238465	 1.7714359306	 0.133119
97.7781	153.7247	249.5769	250.6608	362.5543	529.0633	585.497	623.8746	651.2071	701.3657	723.278	779.6112	831.3065	839.2424	906.1845	949.4788	1002.5101	1132.7099	1150.795	1154.0653	1205.3411	1272.7682	1301.1141	1336.5578	1441.866	1468.0054	1483.285	1503.6901	1531.7468	1573.9063	1641.2358	3047.2448	3111.8351	3161.6155	3266.312	3294.4892
CN1N=NC2=C1OC=C2	Cn1nnc2c1occ2	
InChI=1S/C5H5N3O/c1-8-5-4(6-7-8)2-3-9-5/h2-3H,1H3	InChI=1S/C5H5N3O/c1-8-5-4(6-7-8)2-3-9-5/h2-3H,1H3
