23
gdb 58350	1.79722	1.38028	0.91865	3.1523	82.47	-0.2376	-0.0165	0.221	1387.9717	0.201601	-425.442436	-425.430938	-425.429994	-425.479889	41.047	
C	 0.2415885954	 1.6394236874	 0.1752356711	-0.402528
C	 0.0103881644	 0.1257007822	 0.3034242368	 0.029679
C	 0.610817331	-0.3990854034	 1.6152803019	-0.406435
C	-1.5012319613	-0.2069654536	 0.1600222411	-0.055258
C	-1.9635509275	 0.1751905994	-1.2365524938	 0.156548
O	-2.7912585863	 1.0160608456	-1.4848531815	-0.267619
C	-1.8356410641	-1.6890780267	 0.4318238626	 0.096036
C	-3.3191035976	-2.0123597413	 0.2417050293	-0.417569
O	-1.0132772539	-2.4639232969	-0.4403223014	-0.435503
H	 1.3111593713	 1.8699132119	 0.2045678863	 0.111574
H	-0.1628100139	 2.0429042116	-0.757894204	 0.127304
H	-0.2388354635	 2.1793076986	 0.9998502028	 0.116255
H	 0.5312131074	-0.3764521331	-0.5210639838	 0.094911
H	 0.6060175944	-1.490859039	 1.6567830468	 0.125302
H	 1.6510749041	-0.0707407284	 1.7091225793	 0.111719
H	 0.066152508	-0.0157160185	 2.4866499497	 0.11028
H	-2.0767684927	 0.4020236317	 0.86741926	 0.083911
H	-1.4623306155	-0.3936753679	-2.0506234598	 0.090325
H	-1.5724870463	-1.9009706941	 1.478916817	 0.074143
H	-3.5138315857	-3.0636125527	 0.4837861462	 0.106253
H	-3.9398522171	-1.3995102513	 0.902838193	 0.128446
H	-3.6392621459	-1.8350183236	-0.7891717434	 0.136765
H	-1.2559616047	-3.3893491379	-0.3374816961	 0.285461
28.8172	58.0473	80.3217	168.7819	199.6377	227.8495	238.3711	250.8558	269.2916	288.9654	315.202	367.8016	389.9501	424.2375	465.0618	514.7023	609.4543	839.6129	846.6678	920.6262	931.0667	940.617	968.68	983.0726	1036.7031	1054.5786	1093.3429	1145.6643	1163.3308	1174.9627	1187.5365	1227.0906	1268.7502	1327.8978	1348.4372	1371.654	1386.631	1397.441	1407.6688	1412.2206	1424.1332	1429.566	1486.7032	1490.8235	1493.8425	1495.4986	1504.9996	1513.6025	1823.8372	2890.8457	2985.0281	3027.0051	3028.8193	3030.4749	3033.7105	3049.7968	3090.2193	3097.5157	3098.1752	3108.3698	3117.7242	3118.4154	3821.7603
CC(C)C(C=O)C(C)O	CC(C)[C@@H](C=O)[C@@H](C)O	
InChI=1S/C7H14O2/c1-5(2)7(4-8)6(3)9/h4-7,9H,1-3H3	InChI=1S/C7H14O2/c1-5(2)7(4-8)6(3)9/h4-7,9H,1-3H3/t6-,7-/m1/s1
