16
gdb 85577	2.84897	1.44899	1.09227	2.7662	65.19	-0.2598	-0.0454	0.2143	1083.2327	0.124602	-475.084811	-475.076564	-475.075619	-475.118375	30.116	
C	-0.0634611016	 1.4433827212	-0.1667632716	-0.394685
C	 0.0324750494	-0.0774297064	 0.0522813875	-0.090564
N	 0.6723279887	-0.8000696827	-1.0459453792	-0.368381
C	 2.0375554348	-0.8021329962	-1.2333572219	 0.446003
O	 2.5860805256	-0.9280755157	-2.2948562224	-0.370556
O	 2.7574193112	-0.6588621723	-0.0813703332	-0.234118
C	 2.1364081105	-1.0397092654	 1.1458804383	-0.181359
C	 0.7838113503	-0.3756940091	 1.3476751167	 0.384234
O	 0.3390366936	-0.108819695	 2.4344677273	-0.29863
H	 0.9307793617	 1.8817964941	-0.2947711732	 0.141792
H	-0.654035798	 1.6618359704	-1.0610677248	 0.126605
H	-0.5455769288	 1.9097895659	 0.6961617421	 0.148886
H	-0.9776430115	-0.4821344678	 0.1784834847	 0.12683
H	 0.1719176994	-0.8207858949	-1.9231009115	 0.260821
H	 1.996979473	-2.1300493132	 1.17948426	 0.146087
H	 2.8160286118	-0.7534684429	 1.9495687111	 0.157032
44.1234	103.6719	178.7111	232.7453	251.5994	375.862	426.1713	441.9811	459.5083	557.9751	596.7646	635.9456	719.7403	784.217	803.2623	870.2067	928.1622	989.3397	1031.267	1091.546	1101.0822	1146.0617	1213.283	1244.3084	1274.6666	1310.2525	1360.1205	1394.0193	1404.0637	1455.4129	1470.3506	1491.7354	1500.6196	1839.6222	1862.9237	3011.906	3043.1254	3053.693	3119.6555	3132.1758	3132.5902	3609.2774
CC1NC(=O)OCC1=O	C[C@H]1NC(=O)OCC1=O	
InChI=1S/C5H7NO3/c1-3-4(7)2-9-5(8)6-3/h3H,2H2,1H3,(H,6,8)	InChI=1S/C5H7NO3/c1-3-4(7)2-9-5(8)6-3/h3H,2H2,1H3,(H,6,8)/t3-/m1/s1
