18
gdb 12741	2.72947	2.07752	1.7103	1.4285	66.64	-0.2371	0.0644	0.3015	858.7537	0.153378	-384.908843	-384.901003	-384.900059	-384.940679	30.379	
O	 0.5499990064	 0.8560260135	-0.8720834773	-0.433846
C	 0.102987933	-0.212340806	-0.0745355942	 0.075216
C	 0.1788046318	-0.1369944518	 1.480131567	-0.289477
C	-1.2472208551	-0.7584460276	 1.576380101	-0.055923
C	-2.3623992581	 0.2810038508	 1.8262942587	-0.215359
C	-2.3586633615	 0.6450448181	 0.3094577098	-0.301961
C	-1.4012697827	-0.5566177679	 0.027401388	 0.387694
O	-1.9025696824	-1.5843982032	-0.7786424624	-0.485563
H	 0.1688619063	 1.6693297128	-0.5248327996	 0.280107
H	 0.6275770846	-1.0999039674	-0.442683059	 0.09622
H	 0.991009135	-0.7049254006	 1.9373578306	 0.109066
H	 0.2252736009	 0.8899935597	 1.8596284597	 0.090655
H	-1.3204205624	-1.7385227741	 2.0457812451	 0.073828
H	-3.3056482975	-0.1764771322	 2.1345008708	 0.107293
H	-2.1226758043	 1.0850738594	 2.5280651376	 0.094826
H	-3.3240170129	 0.5313126657	-0.1873081192	 0.110205
H	-1.9628820528	 1.6353068348	 0.059433337	 0.07672
H	-1.8685321084	-1.2869938641	-1.6954687937	 0.2803
87.989	184.6415	218.8199	260.7042	294.452	341.4542	391.2877	447.2413	525.1182	577.5036	650.2846	742.0163	774.1799	836.3301	878.6968	918.5983	944.0166	972.2568	1014.9045	1025.1389	1048.7504	1108.7954	1133.795	1157.7277	1173.5223	1204.7109	1221.7373	1242.6205	1252.7852	1274.5945	1290.6472	1308.448	1322.4367	1366.1983	1431.5432	1469.9498	1481.4015	1495.2726	3041.321	3044.6066	3054.3986	3065.215	3099.3697	3109.7576	3116.8533	3125.8431	3787.492	3809.5207
OC1CC2CCC12O	O[C@H]1C[C@H]2CC[C@@]12O	
InChI=1S/C6H10O2/c7-5-3-4-1-2-6(4,5)8/h4-5,7-8H,1-3H2	InChI=1S/C6H10O2/c7-5-3-4-1-2-6(4,5)8/h4-5,7-8H,1-3H2/t4-,5+,6+/m1/s1
