20
gdb 55168	3.04128	1.28678	1.18837	1.258	78.43	-0.2176	-0.0215	0.1961	1147.3582	0.170569	-403.120497	-403.111764	-403.11082	-403.154754	32.405	
C	 0.3611989808	 0.8595342238	 0.764992634	-0.479595
C	-0.0560527851	 0.1158614916	-0.4883090767	 0.368121
O	 0.61282205	 0.1093731151	-1.4974617185	-0.300392
C	-1.3677631176	-0.6462562497	-0.3876974213	-0.033025
C	-1.8509947575	-1.4754737034	-1.5964027821	-0.290518
C	-1.9974776995	-2.6643007722	-0.6151192224	 0.049315
C	-0.8606736983	-3.7008374333	-0.5937056084	-0.240749
C	-0.1130143409	-2.7279190647	 0.3548978135	-0.184332
N	-1.3449386496	-1.8669161549	 0.5104809005	-0.164886
H	 1.3966519079	 1.1916856285	 0.6813321581	 0.139946
H	-0.2876029829	 1.733667209	 0.8992319653	 0.144623
H	 0.2268789484	 0.2286482637	 1.6496586872	 0.153874
H	-2.1340258985	 0.0369916597	 0.0001784972	 0.087717
H	-2.765658742	-1.1285130948	-2.080700529	 0.10389
H	-1.0742352735	-1.6086171681	-2.3532967699	 0.124818
H	-3.0174287714	-3.0162844134	-0.4384232374	 0.075164
H	-1.1411935958	-4.6424028285	-0.116497185	 0.108848
H	-0.3852612292	-3.9186978676	-1.5529831097	 0.109206
H	 0.2074700065	-3.1464960079	 1.3125846179	 0.108443
H	 0.7425948982	-2.2225541629	-0.1040392533	 0.119532
47.9599	72.1687	131.1954	157.6165	228.6468	339.	355.9296	407.7646	535.0129	594.7598	661.1173	722.8257	746.8026	782.5038	862.8741	902.2642	912.8111	923.2335	938.5256	974.0109	986.5891	1020.4402	1060.0833	1084.3741	1117.9956	1153.5537	1184.4206	1197.5201	1210.7449	1237.019	1253.6788	1259.4951	1274.9804	1312.3318	1344.6604	1372.7313	1388.8142	1463.8816	1471.6105	1480.9084	1489.2618	1510.468	1805.272	3018.6772	3036.3169	3046.4644	3060.723	3068.1004	3072.5161	3090.3981	3098.9575	3120.482	3127.738	3152.7548
CC(=O)C1CC2CCN12	CC(=O)[C@H]1C[C@H]2CCN12	
InChI=1S/C7H11NO/c1-5(9)7-4-6-2-3-8(6)7/h6-7H,2-4H2,1H3	InChI=1S/C7H11NO/c1-5(9)7-4-6-2-3-8(6)7/h6-7H,2-4H2,1H3/t6-,7-/m1/s1
