15
gdb 124245	2.67687	1.5893	1.00421	2.0309	72.99	-0.2251	-0.0609	0.1643	1112.8646	0.112205	-453.964195	-453.955835	-453.95489	-453.99752	30.429	
C	-0.0362730556	 1.5017979669	-0.0699365739	-0.484608
C	 0.0069787159	-0.0059780093	 0.0277683732	 0.300942
O	 0.0037912587	-0.6012611406	 1.1005462433	-0.35158
C	 0.0444062165	-0.7762373518	-1.2018713821	 0.265557
C	 0.060587347	-2.1453542291	-1.3640599234	 0.129943
N	 0.1463551711	-3.096273872	-0.3867392536	-0.607729
C	 0.039244738	-2.300410933	-2.7817193761	-0.026675
N	 0.0164280458	-1.1431830377	-3.3998683861	-0.1193
O	 0.0254266628	-0.1759658091	-2.4282968068	-0.225076
H	 0.8477576573	 1.8740351343	-0.598485786	 0.151736
H	-0.9078834775	 1.8229589943	-0.6497163786	 0.151013
H	-0.076884077	 1.9262752978	 0.9334368758	 0.142086
H	-0.0237587991	-2.738192123	 0.5445898862	 0.280046
H	-0.2323687339	-4.0075779288	-0.5877919611	 0.257884
H	 0.0412734198	-3.2119582588	-3.3625123406	 0.135762
74.1759	105.7252	170.9099	172.7607	301.7539	329.2741	381.3277	437.4646	486.9935	559.0583	595.3679	643.1024	647.0884	720.7946	734.6414	883.6303	934.5602	965.7892	991.0237	1042.9756	1060.9781	1124.4626	1234.3086	1240.3824	1326.3979	1387.2677	1459.6256	1469.7121	1472.8085	1521.5473	1594.1925	1670.808	1733.0322	3044.1308	3105.8679	3158.5378	3244.44	3544.5875	3680.8776
CC(=O)C1=C(N)C=NO1	CC(=O)c1c(N)cno1	
InChI=1S/C5H6N2O2/c1-3(8)5-4(6)2-7-9-5/h2H,6H2,1H3	InChI=1S/C5H6N2O2/c1-3(8)5-4(6)2-7-9-5/h2H,6H2,1H3
