17
gdb 38913	3.61107	1.55417	1.22418	1.801	73.96	-0.2333	-0.0009	0.2324	1003.2174	0.137947	-421.803891	-421.797165	-421.796221	-421.835082	26.856	
C	-0.0628244929	 1.4547658256	 0.0160544855	-0.11405
O	 1.2810259283	 1.922156961	 0.1989764068	-0.278085
C	 2.1525565712	 0.8669244495	-0.1623805785	 0.088403
C	 3.3879205199	 0.5862563375	 0.7267322863	-0.284909
C	 3.4883621223	-0.9470850232	 0.6892250082	 0.044141
O	 2.5856376078	-1.5986370832	 1.5843448841	-0.235176
C	 2.2202202246	-1.5368095457	 0.1908166421	-0.124171
C	 1.3168138933	-0.3872022749	-0.0694553269	 0.32832
C	 0.0348805229	-0.0588223933	 0.0145219139	-0.267929
H	-0.6815263133	 1.835149189	 0.8386361987	 0.118018
H	-0.4850361846	 1.8503712125	-0.9239428283	 0.101985
H	 2.506150689	 1.0118828835	-1.2009289297	 0.075014
H	 4.2956709723	 1.0668642474	 0.3536486372	 0.103449
H	 3.2082070484	 0.9210972897	 1.7522112314	 0.130051
H	 4.4504956903	-1.4384918045	 0.5674018496	 0.099466
H	 2.1505075989	-2.4931772559	-0.318227289	 0.104128
H	-0.8226991384	-0.7090513951	 0.1284510286	 0.111346
123.4813	150.4959	295.2817	373.4729	412.0086	445.2888	595.4655	664.0981	690.3783	764.4136	808.8279	824.9935	851.7275	864.3166	928.1733	930.7738	970.968	1006.4917	1028.0625	1046.5344	1062.8109	1110.8814	1121.287	1181.3169	1185.6485	1203.0011	1235.308	1258.7042	1270.3053	1307.2448	1335.2689	1370.1084	1382.1789	1399.2453	1478.8089	1513.865	1747.1221	2912.8247	2954.0259	3038.2687	3064.2792	3115.9739	3144.3993	3163.2617	3220.3024
C1OC2CC3OC3C2=C1	C1O[C@H]2C[C@H]3O[C@H]3[C]2[CH]1	
InChI=1S/C7H8O2/c1-2-8-5-3-6-7(9-6)4(1)5/h1,5-7H,2-3H2	InChI=1S/C7H8O2/c1-2-8-5-3-6-7(9-6)4(1)5/h1,5-7H,2-3H2/t5-,6+,7-/m0/s1
