21
gdb 115290	2.71993	1.18465	0.89382	3.0907	82.33	-0.2254	0.0209	0.2463	1352.9961	0.181196	-424.241034	-424.231083	-424.230139	-424.275996	36.104	
C	 0.1521222215	 1.429531475	-0.0991391474	-0.498298
C	-0.0309232797	-0.0533506041	-0.0590483576	 0.185531
C	-1.146130957	-0.7759995264	 0.0793657112	 0.190871
C	-2.5597469882	-0.3174583518	 0.2519387303	-0.505502
C	-0.8014862771	-2.2444179374	 0.043933735	 0.015561
C	-1.4009750172	-3.023311749	-1.1335611122	-0.054966
O	-0.8673923017	-4.3291780387	-1.1940254313	-0.424172
O	 0.6263285761	-2.2974642626	-0.081205744	-0.292936
C	 1.1531064288	-0.9781942226	-0.1771092391	-0.155319
H	 0.8239911382	 1.7664932552	 0.7005519293	 0.130425
H	 0.610836668	 1.7447961118	-1.0451031862	 0.130899
H	-0.7931021606	 1.9665501658	 0.0080441751	 0.128577
H	-2.6337359477	 0.7708348645	 0.3114513186	 0.127038
H	-3.194856673	-0.6493702421	-0.5786745265	 0.135309
H	-2.9985834115	-0.7353938531	 1.1667558094	 0.131735
H	-1.087059032	-2.7613528	 0.9751238584	 0.082389
H	-2.4854904046	-3.1233720674	-1.0141910553	 0.101077
H	-1.21023175	-2.4606779689	-2.0629243077	 0.078698
H	 0.088877554	-4.2179106707	-1.1205839844	 0.289911
H	 1.6892048255	-0.8507908003	-1.1319813033	 0.100783
H	 1.8898720183	-0.8138387673	 0.6261133076	 0.102391
69.8112	121.0664	138.2701	148.0139	170.2029	194.0465	271.262	293.7727	323.2006	393.2751	482.339	491.2657	549.1066	618.2938	645.723	807.2128	862.2054	933.4031	973.4615	996.4606	1020.2286	1054.1967	1075.8633	1085.8691	1094.1271	1098.8113	1153.9029	1195.5172	1204.5352	1224.9221	1267.3436	1316.9451	1359.4677	1383.7623	1389.3716	1412.9475	1422.6724	1437.8312	1479.369	1482.5345	1488.0485	1493.0491	1500.602	1525.0528	1754.9677	2957.2865	2964.9773	2973.1901	2979.8757	3019.0766	3022.2218	3062.7498	3065.3141	3069.6226	3116.4457	3120.5786	3779.9798
CC1=C(C)C(CO)OC1	CC1=C(C)[C@@H](CO)OC1	
InChI=1S/C7H12O2/c1-5-4-9-7(3-8)6(5)2/h7-8H,3-4H2,1-2H3	InChI=1S/C7H12O2/c1-5-4-9-7(3-8)6(5)2/h7-8H,3-4H2,1-2H3/t7-/m1/s1
