19
gdb 120588	3.26912	0.90534	0.86968	0.9044	80.46	-0.229	0.0298	0.2588	1444.7815	0.155042	-422.961361	-422.951144	-422.9502	-422.99677	37.236	
C	-0.1738863866	 1.3652280534	-0.0534893341	-0.386373
C	-0.3625029742	-0.1028128693	-0.3901288323	-0.039836
O	-1.2499293926	-0.6664611237	 0.5748214658	-0.244283
C	-1.4774319041	-2.0136227525	 0.3914775775	 0.090769
C	-2.789984161	-2.5437948247	 0.8712251534	-0.383182
C	-2.5236642324	-2.4588091658	-0.6326502295	 0.155779
O	-3.1246718087	-1.4099419495	-1.3385570188	-0.437214
C	-2.30498787	-3.6725081145	-1.3716618458	 0.309667
C	-2.138763437	-4.6886006743	-1.9950036333	-0.481634
H	 0.5072753343	 1.8337532886	-0.7700759431	 0.114957
H	-1.1320951233	 1.8908644395	-0.0901000165	 0.130383
H	 0.2441095419	 1.4812607702	 0.9506242825	 0.124446
H	-0.7864607718	-0.2267799751	-1.3946324729	 0.116727
H	 0.6012141096	-0.6364467054	-0.3624716207	 0.086455
H	-0.5975825376	-2.653738975	 0.4733451487	 0.098605
H	-2.8317652169	-3.5183469781	 1.3426579289	 0.125439
H	-3.4797081455	-1.796400653	 1.2471986964	 0.133158
H	-4.0237853095	-1.6789638441	-1.5575820654	 0.289716
H	-1.9820800846	-5.5804032565	-2.5496677107	 0.196423
58.1796	86.5146	110.6826	152.172	215.7441	234.7753	262.0167	270.7143	349.7732	368.981	466.7831	514.2833	556.9989	573.1772	597.02	678.5657	727.4465	799.9143	822.0313	867.3785	910.0184	932.4026	1042.9322	1059.2	1073.4759	1123.419	1150.1804	1186.3758	1204.4295	1243.1761	1252.9085	1300.121	1341.7671	1384.593	1405.0831	1434.5041	1475.9208	1483.0402	1500.5849	1524.8582	2226.3933	2977.53	3044.8101	3045.7942	3092.2037	3119.6881	3123.1648	3141.6925	3241.5982	3502.223	3798.1876
CCOC1CC1(O)C#C	CCO[C@H]1C[C@]1(O)C#C	
InChI=1S/C7H10O2/c1-3-7(8)5-6(7)9-4-2/h1,6,8H,4-5H2,2H3	InChI=1S/C7H10O2/c1-3-7(8)5-6(7)9-4-2/h1,6,8H,4-5H2,2H3/t6-,7+/m0/s1
