17
gdb 87276	2.4338	1.32884	1.14168	2.7034	70.95	-0.2385	-0.0511	0.1874	1141.8875	0.133636	-455.147396	-455.137881	-455.136937	-455.182358	34.168	
C	-0.303994349	 1.4337755552	-0.0683125595	-0.334881
N	 0.024110708	 0.0104780162	 0.0131244353	-0.118457
C	 1.3928731393	-0.3933707441	-0.1691091281	-0.254837
C	 0.7744573809	-0.5197785698	 1.1947306722	 0.101128
C	 1.2820198046	 0.3870721757	 2.2693233513	 0.088074
O	 1.7749770762	 1.4756843544	 2.0816494857	-0.265489
C	 0.2728714506	-1.8957805416	 1.6045351373	 0.342247
N	-0.6149458739	-1.8866941441	 2.6490444493	-0.527129
O	 0.6463373362	-2.9172077035	 1.0680268501	-0.344779
H	 0.4758285666	 2.1003330785	 0.3139129142	 0.151449
H	-0.4874536773	 1.658305647	-1.1234058702	 0.134535
H	-1.2320551651	 1.6174623982	 0.481781223	 0.120132
H	 1.5519848396	-1.3201862458	-0.7112449974	 0.152143
H	 2.1498399901	 0.381612169	-0.2721077661	 0.134618
H	 1.1778516898	-0.0190138047	 3.2976295563	 0.094304
H	-1.1286887768	-1.0493454235	 2.87053934	 0.261913
H	-1.0711006198	-2.7639000572	 2.8514378067	 0.265029
26.799	133.9644	156.7477	188.147	211.0871	230.4866	273.3224	356.6266	400.4084	407.4021	440.6809	504.1267	556.8887	646.8978	708.0644	753.4389	793.2834	891.5971	925.9647	1032.7137	1054.5353	1100.291	1116.6684	1132.2012	1149.3557	1205.8719	1221.4926	1321.1005	1388.2314	1435.3726	1443.1334	1480.0972	1487.5511	1508.6538	1622.9252	1788.4057	1810.0956	2909.8021	3030.4283	3105.5803	3106.2396	3108.9956	3211.5832	3577.3733	3704.8457
CN1CC1(C=O)C(N)=O	CN1C[C@]1(C=O)C(=O)N	
InChI=1S/C5H8N2O2/c1-7-2-5(7,3-8)4(6)9/h3H,2H2,1H3,(H2,6,9)	InChI=1S/C5H8N2O2/c1-7-2-5(7,3-8)4(6)9/h3H,2H2,1H3,(H2,6,9)/t5-,7?/m0/s1
