18
gdb 110187	2.0208	1.33889	0.89876	1.3926	75.3	-0.2509	-0.0433	0.2076	1304.9494	0.145783	-439.118981	-439.109527	-439.108583	-439.154671	32.863	
C	-0.0087861643	 1.5635886033	 0.1154415585	-0.381001
C	-0.0290009591	 0.0655249665	-0.2003685846	-0.167933
N	-1.3435158512	-0.5326566717	-0.0724779585	-0.080317
C	-2.2251286885	-0.7435563777	 1.0826997713	-0.064662
C	-3.3007030092	-1.262123213	 0.0692350835	-0.408978
C	-2.2556002001	-0.9383106288	-1.0221516266	 0.417309
O	-2.1989318189	-0.9926834544	-2.2205309443	-0.362712
C	-1.7296516865	-1.79930408	 2.0483390718	 0.156122
O	-1.7981019583	-1.7141875252	 3.2458541378	-0.238038
H	 1.0037258882	 1.9598877803	-0.0062259991	 0.127286
H	-0.6761149358	 2.1110850267	-0.5562050595	 0.135019
H	-0.321390498	 1.7586357543	 1.1461361393	 0.127169
H	 0.2771673954	-0.1137432268	-1.2354594435	 0.146728
H	 0.6782412687	-0.4682621108	 0.4465015466	 0.117789
H	-2.5019532475	 0.1615691785	 1.6315779487	 0.104645
H	-3.5540863299	-2.3215698634	 0.1522218815	 0.140896
H	-4.2138700322	-0.6672646538	 0.0296213106	 0.147204
H	-1.2935197329	-2.6925380941	 1.5419575764	 0.083474
43.3337	75.5288	84.3657	116.0606	191.171	265.1794	286.7204	339.6909	412.3282	452.9712	516.8384	564.7969	685.393	767.5279	816.1474	860.0391	929.1384	966.9474	1016.5782	1043.9707	1060.0342	1081.2296	1109.7286	1159.3001	1193.2141	1224.0175	1245.9032	1299.456	1339.098	1387.1989	1404.53	1411.5721	1415.4977	1460.332	1479.3307	1494.4319	1502.937	1836.3273	1885.3632	2862.0575	3029.7506	3041.3804	3070.9587	3085.0362	3091.2668	3115.1755	3123.0855	3148.1876
CCN1C(CC1=O)C=O	CCN1[C@@H](CC1=O)C=O	
InChI=1S/C6H9NO2/c1-2-7-5(4-8)3-6(7)9/h4-5H,2-3H2,1H3	InChI=1S/C6H9NO2/c1-2-7-5(4-8)3-6(7)9/h4-5H,2-3H2,1H3/t5-/m0/s1
