21
gdb 95478	2.53793	1.66116	1.23796	1.3806	84.61	-0.2346	0.0203	0.2549	1088.7757	0.184906	-387.092572	-387.084634	-387.083689	-387.124592	32.318	
O	 0.171686292	 1.4283613178	-0.0509237877	-0.439294
C	 0.0787631756	 0.0087631648	-0.0121550976	 0.087913
C	 0.7556137099	-0.5737715075	 1.2478951471	-0.223131
C	 0.0995292533	-0.0872025463	 2.5645775906	-0.250908
C	-1.4014892435	 0.0890276694	 2.4690752426	-0.248301
C	-2.034810855	-0.1668078357	 1.3302869563	 0.337577
C	-3.3580315497	 0.1576285473	 0.6676598626	-0.320595
C	-2.5536168635	 0.2758929919	-0.6748428577	-0.257035
C	-1.3721843999	-0.4845632969	 0.0053515858	-0.053426
H	-0.3433117111	 1.7670234101	 0.6912303804	 0.280334
H	 0.6072575116	-0.330365806	-0.9091024145	 0.079725
H	 0.6982566659	-1.6674095316	 1.1895409032	 0.098048
H	 1.8169717136	-0.3077593199	 1.2492748284	 0.100859
H	 0.3565988315	-0.7797360392	 3.3763135205	 0.10927
H	 0.5427606586	 0.8734853719	 2.8646030941	 0.109305
H	-1.9213826131	 0.4898792711	 3.3369865661	 0.082138
H	-4.0452394439	-0.695963453	 0.6502449242	 0.109968
H	-3.9063953343	 1.0354145189	 1.0208721022	 0.106331
H	-2.9971050991	-0.1805433889	-1.5620759034	 0.097532
H	-2.2765926812	 1.3084640401	-0.8964500422	 0.116609
H	-1.4022567477	-1.5538730984	-0.2372046009	 0.077081
118.9595	174.63	226.4158	261.0163	347.3112	358.9123	384.0417	434.9246	538.3658	584.0113	666.9926	699.53	750.2398	781.525	837.5218	859.9168	885.1174	911.9813	926.1555	974.8878	996.1794	1010.4393	1064.3607	1075.3444	1090.3453	1100.1138	1130.4482	1189.0858	1195.2578	1205.7298	1226.6806	1254.293	1265.6207	1274.4636	1306.5859	1319.9962	1363.1261	1366.956	1377.0612	1432.2749	1473.5864	1475.6489	1489.3346	1491.747	1764.3254	3002.5368	3024.1809	3028.5551	3038.078	3040.7209	3059.8683	3071.9889	3085.747	3089.8422	3132.5659	3145.0222	3783.724
OC1CCC=C2CCC12	O[C@H]1CCC=C2CC[C@@H]12	
InChI=1S/C8H12O/c9-8-3-1-2-6-4-5-7(6)8/h2,7-9H,1,3-5H2	InChI=1S/C8H12O/c9-8-3-1-2-6-4-5-7(6)8/h2,7-9H,1,3-5H2/t7-,8+/m1/s1
