18
gdb 43049	2.43221	2.21166	1.63989	2.0936	73.88	-0.2154	-0.0112	0.2042	887.0591	0.151553	-401.943913	-401.937507	-401.936563	-401.974508	26.707	
O	 0.0055090678	 0.0367474199	 0.1556628607	-0.348357
C	-0.047954241	 1.2336059286	 0.0652615181	 0.441742
C	-1.2425754123	 2.1716336059	 0.0142119325	-0.167592
C	-0.7616640505	 3.1544350836	 1.1198240732	-0.192098
N	 0.3403624401	 3.5486545168	 0.1631098628	-0.137081
C	-0.6570150087	 3.2693916436	-0.9529667615	 0.023314
C	 0.1439606816	 2.8262898971	-2.1794877341	-0.256979
C	 1.4724232626	 2.3223398595	-1.5417648714	-0.220615
C	 1.0977773585	 2.2674990726	-0.0524802363	-0.10775
H	-2.2370962064	 1.7323116983	-0.0495137947	 0.083197
H	-1.4353479936	 3.9990230028	 1.2811638929	 0.117759
H	-0.4331320773	 2.7492832625	 2.0812096372	 0.116062
H	-1.3388994598	 4.1089931388	-1.1016566146	 0.086585
H	-0.3760282136	 2.041591912	-2.7365722584	 0.117789
H	 0.3108822742	 3.6612860264	-2.8639071962	 0.114283
H	 1.7948746989	 1.3492316476	-1.9177172707	 0.122189
H	 2.2816317339	 3.0403855923	-1.69703562	 0.11668
H	 1.9246722257	 2.1264442018	 0.6438450404	 0.090871
141.0363	222.0184	324.9093	407.1747	455.7692	550.4756	643.3277	664.2979	754.4412	776.3035	794.9115	805.0453	840.0829	873.2091	912.8233	922.1683	960.3171	995.2825	1019.7191	1028.6446	1048.3474	1070.7167	1101.7308	1152.5572	1164.4015	1177.0998	1202.7205	1218.2534	1242.3862	1249.5487	1259.9539	1300.2947	1316.7255	1324.7926	1355.8947	1479.8783	1499.4102	1519.3808	1870.1557	3057.079	3061.5958	3069.5604	3091.4822	3105.2622	3116.9725	3119.8986	3125.0692	3131.0372
O=C1C2CN3C2CCC13	O=C1[C@H]2CN3[C@H]2CC[C@H]13	
InChI=1S/C7H9NO/c9-7-4-3-8-5(4)1-2-6(7)8/h4-6H,1-3H2	InChI=1S/C7H9NO/c9-7-4-3-8-5(4)1-2-6(7)8/h4-6H,1-3H2/t4-,5-,6+/m0/s1
