19
gdb 70422	2.83932	1.48308	1.26793	2.5552	74.62	-0.2379	0.0732	0.3111	1066.6065	0.158133	-422.961924	-422.953655	-422.952711	-422.994818	31.544	
C	-0.0794886587	 1.5892914443	 0.019273216	-0.4983
C	 0.0314197817	 0.0932431182	 0.0169502305	 0.186896
C	-0.8876746754	-0.8305902726	 0.8055200075	-0.348784
C	 0.5938528336	-0.899867507	 1.0045372547	 0.056974
O	 1.1883102556	-1.7011658407	-0.0246871077	-0.32511
C	 0.7449635241	-0.7649605551	-1.0304995612	 0.329441
C	 0.0934938601	-1.3031292812	-2.3149666423	-0.131045
O	 1.0453813503	-0.5919399109	-3.1350173884	-0.275311
C	 1.814499672	-0.1958669778	-1.9810003558	-0.140355
H	 0.8840068728	 2.0695883662	-0.1811834735	 0.125238
H	-0.7915459588	 1.9383106968	-0.7379869821	 0.129253
H	-0.4327839163	 1.9492060739	 0.9905190858	 0.123911
H	-1.4508332315	-0.3322196691	 1.5893526715	 0.113646
H	-1.3984613311	-1.6641055822	 0.3305500999	 0.116033
H	 1.1279272717	-0.7978602736	 1.9417780704	 0.107189
H	 0.1812105832	-2.3917782162	-2.4212976374	 0.111386
H	-0.9404370606	-0.9941786717	-2.5105373392	 0.103822
H	 1.9936395813	 0.885099171	-1.9551327007	 0.103877
H	 2.769904726	-0.7305279822	-1.905774358	 0.111237
80.9375	137.0238	179.0274	191.3962	256.7766	333.5603	399.7892	448.6293	477.1833	528.5312	633.6742	804.1932	816.403	866.8252	889.6331	896.9532	933.0781	975.5161	990.1572	1001.417	1027.3978	1030.5637	1072.3302	1090.4853	1099.3035	1130.5365	1140.6166	1149.3387	1179.0199	1203.5688	1270.9758	1296.8568	1313.2274	1379.7883	1394.7292	1425.0308	1483.6161	1488.0196	1494.0191	1499.809	1521.732	3009.9052	3021.9134	3026.9775	3064.6242	3068.1375	3086.724	3102.3042	3111.5249	3184.7729	3203.8262
CC12CC1OC21COC1	C[C@]12C[C@H]1OC12COC1	
InChI=1S/C7H10O2/c1-6-2-5(6)9-7(6)3-8-4-7/h5H,2-4H2,1H3	InChI=1S/C7H10O2/c1-6-2-5(6)9-7(6)3-8-4-7/h5H,2-4H2,1H3/t5-,6+/m1/s1
