13
gdb 12430	3.80699	2.09647	1.42466	2.9288	61.56	-0.2699	-0.0614	0.2084	814.8254	0.09654	-398.628726	-398.622061	-398.621117	-398.660215	23.976	
O	-0.0628318224	 0.1443577511	-0.811364413	-0.30349
C	 0.0012490337	 1.1154341687	-0.111710913	 0.403455
O	-1.1568345801	 1.4993931223	 0.5458393796	-0.227334
C	-1.393707738	 2.7062330227	 1.1691086506	 0.135187
N	-0.671606757	 3.4032469948	 1.9202868525	-0.221395
C	 0.683660449	 2.9908627204	 2.2736366398	-0.22674
C	 1.5698972478	 2.6637392982	 1.1030372508	-0.064877
C	 1.2416825829	 1.8918177942	 0.0641987742	-0.164569
H	-2.4208459605	 3.0035321117	 0.96768364	 0.142938
H	 1.1324510579	 3.8032774638	 2.8503642022	 0.128606
H	 0.6321820316	 2.1246516147	 2.9513681412	 0.142856
H	 2.5693760558	 3.0918704328	 1.1214709734	 0.123704
H	 1.9667396695	 1.6829183645	-0.7148139482	 0.131659
65.8533	104.9159	297.4715	352.8886	375.2123	499.3696	523.7832	659.5339	718.2973	779.2652	816.2969	849.895	926.824	965.9788	991.4679	1018.3195	1030.5055	1105.8308	1168.2906	1240.9931	1267.8725	1383.2765	1410.609	1420.5916	1487.6981	1705.1969	1767.8816	1835.1521	2994.4016	3087.0568	3159.4608	3166.2485	3199.8701
O=C1OC=NCC=C1	O=C1OC=NCC=C1	
InChI=1S/C5H5NO2/c7-5-2-1-3-6-4-8-5/h1-2,4H,3H2	InChI=1S/C5H5NO2/c7-5-2-1-3-6-4-8-5/h1-2,4H,3H2
