17
gdb 41324	3.48697	1.69851	1.34742	0.9315	72.02	-0.228	0.0096	0.2376	941.4964	0.138666	-417.966335	-417.959658	-417.958714	-417.99739	26.491	
C	 0.1358892308	 1.4766720066	 0.0632720315	-0.138735
O	 1.5025774041	 1.3938716386	-0.4197865204	-0.291602
C	 1.4064922804	-0.0245376297	-0.6272067977	 0.04243
C	 1.8683320777	-0.8566281687	 0.5951932043	-0.206756
N	 0.4732764008	-0.7906637911	 1.1591150678	-0.131028
C	-0.3045868938	-1.9551526036	 1.1620090625	 0.036154
N	-1.3106931512	-2.0205527785	 0.379490957	-0.236391
C	-1.3090247719	-0.7846929978	-0.4300279512	-0.288243
C	-0.0322615416	-0.0433600128	-0.0327794257	 0.29395
H	 0.0644575855	 1.9031010032	 1.0694556072	 0.116659
H	-0.4934120321	 2.0486742152	-0.6310474974	 0.107074
H	 1.7173491612	-0.333221876	-1.628207397	 0.090068
H	 2.1874567726	-1.8772650302	 0.3600960026	 0.115989
H	 2.6150125651	-0.362402703	 1.220028133	 0.126913
H	-0.043098279	-2.7536844936	 1.8519188662	 0.124977
H	-1.3627747673	-1.0328984063	-1.4957674346	 0.119867
H	-2.1985208614	-0.1844617122	-0.1972981781	 0.118674
114.2991	219.6391	246.387	349.067	404.5221	453.6393	523.6093	689.6236	724.7071	804.6563	819.1988	836.7964	867.5782	937.7771	962.5039	966.3898	989.3687	1011.1801	1043.631	1065.6143	1113.1267	1127.7747	1149.0864	1162.4721	1176.5796	1228.1841	1237.3324	1253.2303	1299.4319	1301.4549	1324.2565	1338.3456	1374.1931	1483.8224	1490.67	1508.808	1669.7974	3013.6496	3022.1154	3047.0279	3061.0683	3077.5795	3083.233	3119.1324	3174.5636
C1OC2CN3C=NCC123	C1O[C@H]2CN3[CH][N]C[C@]123	
InChI=1S/C6H8N2O/c1-5-6(3-9-5)2-7-4-8(1)6/h4-5H,1-3H2	InChI=1S/C6H8N2O/c1-5-6(3-9-5)2-7-4-8(1)6/h4-5H,1-3H2/t5-,6-/m0/s1
