25
gdb 56138	3.0561	0.74402	0.69823	2.5289	89.72	-0.2413	-0.0066	0.2347	1791.9408	0.224426	-389.53112	-389.519239	-389.518295	-389.569796	42.773	
C	 0.0438066257	 1.5435813107	 0.0100045043	-0.472589
C	 0.1234040324	 0.0253050595	 0.0008945524	 0.381736
O	 1.1849767725	-0.5546675119	-0.0125368708	-0.290578
C	-1.2095950356	-0.7158581993	 0.0096738952	-0.326134
C	-1.0573031751	-2.2376963654	 0.0001291928	-0.172555
C	-2.3658945707	-3.065541339	 0.0081750721	 0.254277
C	-3.2166551169	-2.7665786295	-1.2406755589	-0.401463
C	-1.9744870279	-4.5553957126	-0.0035070641	-0.401701
C	-3.1926745596	-2.7800187206	 1.2761305943	-0.401462
H	 1.0487215729	 1.9672097624	 0.0021883014	 0.141374
H	-0.5141478774	 1.9030537812	-0.8620039647	 0.136143
H	-0.4963140293	 1.893341982	 0.8970673339	 0.136165
H	-1.7711863003	-0.3687066032	 0.8876145915	 0.118156
H	-1.7877620753	-0.3594600847	-0.8536825992	 0.118169
H	-0.4652613146	-2.5187507996	-0.8786020455	 0.103407
H	-0.4486837596	-2.5280275078	 0.8644013988	 0.103396
H	-2.645298786	-2.9408391559	-2.1594222065	 0.108924
H	-4.0997842669	-3.4142028687	-1.2715254852	 0.109066
H	-3.573604957	-1.7316281364	-1.2580585091	 0.106511
H	-1.371262625	-4.8120677973	 0.8741251067	 0.109757
H	-2.8631644631	-5.1959344929	 0.001549262	 0.105143
H	-1.3881316265	-4.8026299421	-0.8951691576	 0.109758
H	-3.5491133315	-1.7453457498	 1.311372358	 0.106511
H	-4.0751289837	-3.4280157711	 1.3168789598	 0.109066
H	-2.6039384915	-2.9640356481	 2.1819106085	 0.108922
14.1622	60.0198	85.3789	120.2205	128.0386	223.137	233.8275	261.7924	267.6969	293.0703	331.7232	372.1142	405.7911	448.3652	481.4243	486.5322	586.724	735.9938	744.6876	837.6235	901.2802	907.8996	935.148	936.539	957.8371	966.3776	1011.5501	1031.88	1087.8664	1090.8347	1176.1072	1178.011	1225.6385	1270.1479	1272.2864	1321.8605	1339.451	1382.4419	1391.0395	1399.294	1402.5959	1433.6057	1452.0879	1466.527	1476.0832	1478.861	1481.2428	1486.3402	1487.1417	1508.8715	1509.0095	1518.2977	1811.1992	3018.7959	3022.0996	3022.7679	3029.6153	3036.6462	3037.8885	3045.2423	3074.3011	3088.8025	3089.4053	3092.8225	3096.5841	3096.692	3096.7191	3098.1692	3151.2966
CC(=O)CCC(C)(C)C	CC(=O)CCC(C)(C)C	
InChI=1S/C8H16O/c1-7(9)5-6-8(2,3)4/h5-6H2,1-4H3	InChI=1S/C8H16O/c1-7(9)5-6-8(2,3)4/h5-6H2,1-4H3
