19
gdb 37909	3.00807	1.88677	1.40739	0.6507	86.18	-0.2116	-0.0154	0.1962	955.8691	0.161917	-348.703106	-348.696368	-348.695424	-348.733648	28.858	
C	-0.016437235	 1.4263762837	 0.2669236138	-0.302928
C	 1.4758615683	 1.5160597161	-0.1553254426	-0.082415
C	 2.357294072	 0.2772861933	 0.0920810774	 0.002751
C	 2.2674266302	-0.7962188974	 1.1952827292	-0.296029
C	 1.7345709781	-2.1380969647	 0.6936284637	-0.043694
C	 0.4868568261	-2.3209829698	 0.230322494	-0.091132
C	-0.4169999016	-1.1554802918	 0.2400702256	-0.219702
C	 0.024841661	 0.0007265297	-0.2579323431	 0.250666
C	 1.3334572704	 0.2463837059	-0.9893363533	-0.158207
H	-0.2921003991	 1.5689271004	 1.3178057565	 0.097191
H	-0.5967516628	 2.1205645307	-0.3521863344	 0.109619
H	 1.9590106889	 2.44694803	-0.4309833257	 0.086503
H	 3.3696643052	 0.4738514117	-0.2584487644	 0.083111
H	 3.2572277281	-0.9395923517	 1.6391017834	 0.094255
H	 1.6197444438	-0.4440505253	 2.0055407404	 0.121293
H	 2.4134147222	-2.9865961097	 0.7437193974	 0.087782
H	 0.1403060078	-3.3129572301	-0.0515992198	 0.08546
H	-1.3025848406	-1.1847534849	 0.8754363923	 0.088183
H	 1.528647417	 0.0616634441	-2.0384269902	 0.087291
205.5073	239.9017	327.6659	341.4599	425.3498	441.7186	518.2293	624.9319	685.5946	713.6949	767.5676	777.8221	784.7447	846.6971	864.2002	879.1389	944.6462	955.9275	976.8971	982.7613	994.8883	1022.9257	1047.6094	1063.9332	1071.6708	1093.4002	1127.2555	1173.2154	1204.6154	1236.6204	1245.2017	1253.5579	1313.7133	1328.1493	1336.2697	1398.5629	1414.3106	1479.9048	1488.6462	1652.851	1721.9614	3024.0679	3043.0197	3070.8346	3078.8066	3115.7229	3116.5053	3136.0773	3159.9203	3168.9094	3185.9511
C1C2C3CC=CC=C1C23	C1[C@H]2[C@H]3CC=C[CH][C]1[C@@H]23	
InChI=1S/C9H10/c1-2-4-7-8-5-6(3-1)9(7)8/h1-3,7-9H,4-5H2	InChI=1S/C9H10/c1-2-4-7-8-5-6(3-1)9(7)8/h1-3,7-9H,4-5H2/t7-,8+,9-/m1/s1
