14
gdb 61707	2.3483	1.2023	0.98501	1.9367	64.79	-0.295	-0.0779	0.2171	1199.6141	0.096253	-473.849847	-473.840226	-473.839282	-473.88512	32.168	
C	-0.0299227495	 1.6999169226	 0.0208865878	-0.416105
C	 0.0398920313	 0.1753879689	 0.0861223046	 0.111441
O	 0.7016115223	-0.2876720705	 1.2737663202	-0.229444
C	 2.0630735527	-0.2453587841	 1.3437959204	 0.175047
O	 2.6391685272	-0.5215485018	 2.3466262321	-0.24763
C	-1.3791791788	-0.4547385666	 0.2140541714	 0.155468
O	-2.37936637	 0.1243518458	-0.0882159976	-0.212451
C	 0.6450683413	-0.3990904978	-1.1306360709	 0.250491
N	 1.0833385673	-0.8588340494	-2.0964977666	-0.30717
H	 0.9612806876	 2.1289759812	-0.1402034894	 0.14281
H	-0.6907935237	 2.0018848448	-0.7934849204	 0.1691
H	-0.4387958083	 2.0736222295	 0.9619872558	 0.15723
H	 2.5409089468	 0.0478193471	 0.3938731539	 0.118085
H	-1.3562974061	-1.4834488197	 0.6225627785	 0.133128
64.8319	81.4475	125.8511	148.9544	170.2821	201.2729	245.6041	267.3465	373.7415	399.0165	463.8985	529.4347	560.8466	721.2391	753.896	924.5415	942.582	1003.6761	1037.3557	1115.3094	1133.334	1187.4255	1200.4993	1386.5721	1409.6933	1425.6877	1478.1462	1483.5869	1857.0178	1879.3317	2347.1732	2960.7375	3005.1325	3062.995	3147.0063	3154.7223
CC(OC=O)(C=O)C#N	C[C@@](OC=O)(C=O)C#N	
InChI=1S/C5H5NO3/c1-5(2-6,3-7)9-4-8/h3-4H,1H3	InChI=1S/C5H5NO3/c1-5(2-6,3-7)9-4-8/h3-4H,1H3/t5-/m0/s1
