14
gdb 129566	3.3283	1.16499	1.05554	4.7519	66.75	-0.2666	-0.0147	0.2519	1135.2592	0.104059	-429.071563	-429.063635	-429.062691	-429.105407	28.036	
N	-0.0199297765	 1.4864813852	 0.0649225031	-0.501437
C	 0.0270354536	 0.0249036316	 0.0355064571	-0.209779
C	 0.6646686801	-0.5211567006	-1.1894101037	 0.254572
N	 1.1506932724	-0.8946801636	-2.1697152638	-0.325889
C	 0.7300828627	-0.5031751701	 1.2595253116	 0.389625
N	 1.8349944511	 0.0553523889	 1.7253798065	-0.264518
N	 2.1139274824	-0.7241880356	 2.7931151085	-0.170045
C	 1.1895335578	-1.6963553344	 2.9177833676	 0.020099
N	 0.2917539461	-1.586745619	 1.9573960883	-0.299126
H	 0.9248308465	 1.8477653812	 0.160990983	 0.257342
H	-0.3886684467	 1.8363127033	-0.8142461185	 0.245828
H	-0.9953944686	-0.3656077113	 0.0654833031	 0.154574
H	 2.9205971659	-0.5259362141	 3.3628211533	 0.290592
H	 1.2078261933	-2.4375371115	 3.7021577239	 0.158162
25.804	105.4451	188.4325	215.8492	273.9361	341.0529	423.3634	473.7737	565.2863	597.8212	683.4788	745.6951	811.3892	860.036	865.142	957.9806	997.3804	1010.3297	1107.9221	1112.7132	1163.2459	1199.2467	1280.7874	1316.1321	1362.8875	1396.4894	1471.0993	1492.8656	1553.2714	1654.8406	2345.5646	3069.3263	3265.6383	3499.0181	3582.2896	3660.931
NC(C#N)C1=NNC=N1	N[C@@H](C#N)c1n[nH]cn1	
InChI=1S/C4H5N5/c5-1-3(6)4-7-2-8-9-4/h2-3H,6H2,(H,7,8,9)	InChI=1S/C4H5N5/c5-1-3(6)4-7-2-8-9-4/h2-3H,6H2,(H,7,8,9)/t3-/m0/s1
