14
gdb 130634	3.21518	1.61879	1.09116	2.5631	68.98	-0.2533	-0.0399	0.2134	1016.2032	0.103028	-436.70923	-436.70257	-436.701626	-436.740662	25.198	
O	-0.0562030348	-0.0542694862	 0.0045788317	-0.321629
C	 0.0024288135	 1.1503034997	 0.0097983866	 0.277788
C	-1.2290054629	 2.1046043733	 0.0315014207	-0.319358
C	-0.6993224199	 3.571684377	 0.0315584495	-0.374281
C	 0.7722828262	 3.3350403067	 0.0101094245	 0.414253
C	 1.1744071874	 2.034961075	-0.0019244957	 0.053762
C	 2.5941286712	 2.1359097132	-0.020965468	-0.117767
N	 2.9881094812	 3.3845958163	-0.0201669055	-0.127545
O	 1.7960813338	 4.1702449113	 0.0001885453	-0.226601
H	-1.8550910021	 1.890065191	-0.8388058377	 0.145393
H	-1.8309660854	 1.8812821936	 0.9164953599	 0.145391
H	-1.0327029096	 4.1430640801	-0.8407300201	 0.146071
H	-1.0084768796	 4.1342482915	 0.9183789019	 0.146072
H	 3.345387051	 1.3591302076	-0.0351906433	 0.158451
99.7563	170.0362	235.4661	303.1805	506.0928	548.3213	601.7136	627.3254	631.9959	671.64	734.3568	818.7533	841.3282	925.6998	961.9688	968.2243	1007.3826	1024.1666	1129.9445	1154.7476	1198.8579	1225.2621	1257.0247	1283.3085	1381.572	1430.6089	1455.0339	1481.6803	1519.5001	1620.5098	1827.5356	3053.4447	3073.2816	3086.2682	3117.4909	3250.5511
O=C1CCC2=C1C=NO2	O=C1CCc2c1cno2	
InChI=1S/C6H5NO2/c8-5-1-2-6-4(5)3-7-9-6/h3H,1-2H2	InChI=1S/C6H5NO2/c8-5-1-2-6-4(5)3-7-9-6/h3H,1-2H2
