18
gdb 133776	3.00632	1.00857	0.92024	2.1856	65.09	-0.2949	0.0779	0.3728	1317.4022	0.143357	-533.457221	-533.448051	-533.447107	-533.492214	33.33	
C	-0.098465986	 1.6155542377	-0.2717794643	-0.379399
C	-0.0049771175	 0.1606024066	 0.2016589915	-0.20847
C	-1.3558849903	-0.5295685845	 0.1774655214	 0.014706
C	-1.8859759946	-1.2084294367	-1.0602309307	-0.300533
C	-1.5420815447	-2.0298967219	 0.1583918451	-0.193066
C	-0.392885348	-2.9927125406	 0.1351149804	 0.285585
F	 0.5293620314	-2.698037918	-0.800339715	-0.084105
F	 0.2458629287	-3.0324513414	 1.3181586628	-0.083443
F	-0.822052425	-4.2414384156	-0.1180317543	-0.078652
H	 0.8797315743	 2.1043605337	-0.2362538705	 0.115017
H	-0.4668991917	 1.6724539764	-1.3013891427	 0.119086
H	-0.7834650562	 2.1947188236	 0.3574292655	 0.11388
H	 0.7065843763	-0.3868359564	-0.4216633992	 0.114034
H	 0.3948736789	 0.1305930699	 1.2230103234	 0.106651
H	-2.1069731946	-0.0197364952	 0.7773461939	 0.0923
H	-2.9321245015	-1.1056806873	-1.3241001262	 0.120093
H	-1.2122357913	-1.2914777962	-1.9059633257	 0.132146
H	-2.3605526782	-2.4295327941	 0.7475955047	 0.114172
40.3514	75.8576	130.9509	191.2833	238.0853	253.5239	303.5592	366.5287	432.1516	495.6316	527.8339	600.0705	674.7276	761.442	783.6739	800.0577	856.6931	938.0239	968.466	992.9611	1046.3306	1079.48	1080.8489	1115.9755	1148.179	1172.0083	1177.6778	1205.6573	1229.099	1285.6483	1304.6611	1346.8942	1409.5154	1418.6057	1440.8643	1487.3024	1498.3789	1499.1073	1507.9387	3031.8671	3033.7954	3087.0902	3107.3622	3107.9588	3129.9667	3141.6698	3171.6439	3229.1645
CCC1CC1C(F)(F)F	CC[C@H]1C[C@H]1C(F)(F)F	
InChI=1S/C6H9F3/c1-2-4-3-5(4)6(7,8)9/h4-5H,2-3H2,1H3	InChI=1S/C6H9F3/c1-2-4-3-5(4)6(7,8)9/h4-5H,2-3H2,1H3/t4-,5+/m0/s1
