16
gdb 127170	4.23937	1.10541	0.88169	2.6578	75.71	-0.2235	-0.0172	0.2062	1250.5154	0.12537	-434.05918	-434.050936	-434.049992	-434.09278	29.617	
C	 0.0578429165	 1.4795998426	-0.0189399813	-0.356004
N	 0.0078562178	 0.0232617621	 0.007482083	-0.169908
C	-0.0454516183	-0.6525788338	 1.2169392291	 0.087906
N	-0.0526749006	-0.0368119457	 2.3312924974	-0.486337
C	 0.0141811385	-0.6740560516	-1.1873169135	 0.515344
N	-0.0291061606	-1.9932256646	-1.2315445831	-0.240267
O	-0.0062697615	-2.3174650296	-2.5898236073	-0.17063
C	 0.0495399187	-1.1914976957	-3.3049568021	 0.093337
C	 0.0661136633	-0.1032024579	-2.4976556131	-0.377552
H	 0.9738622006	 1.8296998118	-0.5066440171	 0.131219
H	-0.8077496511	 1.8901541566	-0.5497448515	 0.131216
H	 0.0444381749	 1.8231750055	 1.0137474797	 0.182077
H	-0.0785579018	-1.7341564018	 1.0778568636	 0.145889
H	-0.09454533	-0.7047114008	 3.0972326488	 0.230113
H	 0.0721998298	-1.3132357936	-4.377088791	 0.155555
H	 0.1079948636	 0.9335010066	-2.7810255014	 0.128041
52.0728	109.0579	150.3931	195.4247	246.0018	336.3897	355.2947	459.3938	485.82	592.5437	723.0034	760.242	780.9597	808.2462	867.8195	916.7247	942.0518	948.1396	1033.8621	1062.9495	1092.4365	1145.6595	1158.8915	1176.6579	1224.3326	1338.8752	1364.9515	1414.4131	1438.3332	1458.3563	1503.5564	1507.9205	1540.7357	1626.7542	1715.4782	3030.8118	3087.6804	3125.9744	3172.3248	3262.374	3297.4619	3520.4811
CN(C=N)C1=NOC=C1	CN(C=N)c1nocc1	
InChI=1S/C5H7N3O/c1-8(4-6)5-2-3-9-7-5/h2-4,6H,1H3	InChI=1S/C5H7N3O/c1-8(4-6)5-2-3-9-7-5/h2-4,6H,1H3
