19
gdb 65061	2.18373	1.70899	1.13567	1.1359	81.65	-0.2362	0.0456	0.2818	1119.7403	0.156787	-385.824612	-385.815523	-385.814578	-385.857994	35.841	
O	 0.0695688999	 1.3543966159	-0.0960130425	-0.454563
C	 0.0794497489	-0.0499577548	-0.0480730777	 0.30566
C	 1.158933706	-0.6891985176	-0.868505432	-0.296831
C	 1.2429557851	-0.7063905517	 0.6472914449	-0.337517
C	-1.3099796895	-0.6686158109	-0.0007309426	 0.153794
C	-2.4224964902	 0.0895326213	 0.7161450069	-0.308214
C	-2.4165953195	 0.0270620106	-0.7827456352	-0.291252
C	-1.3595270444	-2.1045550052	 0.067296024	 0.206758
C	-1.3980822718	-3.3063769363	 0.1230550348	-0.429407
H	 0.0118060658	 1.6810323178	 0.8081526445	 0.286006
H	 0.9339011917	-1.6205948463	-1.3744692243	 0.12733
H	 1.8184124961	-0.013627759	-1.400103956	 0.120392
H	 1.9676210948	-0.0474199927	 1.1134947391	 0.108231
H	 1.0754449337	-1.6478669892	 1.1570013059	 0.128447
H	-3.148537183	-0.5010845672	 1.2613263111	 0.126288
H	-2.1628529725	 1.0343043075	 1.1794440879	 0.104443
H	-2.1238975522	 0.9231036371	-1.3162392915	 0.136597
H	-3.1452912321	-0.6015220734	-1.279607331	 0.123784
H	-1.4372049469	-4.3662655959	 0.1706706639	 0.190054
59.4796	145.9751	200.6237	242.9637	260.0346	319.9299	340.8055	386.1324	422.0283	484.578	532.7075	569.5262	570.358	592.0686	652.5209	774.2396	783.7467	829.0273	869.5023	913.8921	922.0776	930.9232	971.0118	981.1708	1003.1566	1055.1171	1066.4457	1082.0845	1088.8243	1190.2276	1191.9958	1197.2582	1255.3082	1303.9747	1348.6681	1357.398	1446.3825	1451.8077	1483.1839	1494.5746	2229.1821	3135.0427	3143.319	3144.7413	3149.5118	3224.979	3229.6696	3240.536	3247.2863	3502.7729	3802.86	59.48	145.975	200.6236	242.9636	260.0346	319.9299	340.8056	386.1324	422.0283	484.5778	532.7073	569.5257	570.3576	592.0687	652.5202	774.2396	783.7467	829.0273	869.5021	913.8921	922.0777	930.9231	971.0119	981.1707	1003.1565	1055.1171	1066.4457	1082.0843	1088.8244	1190.2275	1191.9955	1197.2584	1255.3082	1303.9747	1348.6681	1357.3979	1446.3821	1451.8079	1483.184	1494.5744	2229.182	3135.0427	3143.319	3144.7413	3149.5118	3224.9791	3229.6696	3240.5361	3247.2863	3502.7729	3802.86
OC1(CC1)C1(CC1)C#C	OC1(CC1)C1(CC1)C#C	
InChI=1S/C8H10O/c1-2-7(3-4-7)8(9)5-6-8/h1,9H,3-6H2	InChI=1S/C8H10O/c1-2-7(3-4-7)8(9)5-6-8/h1,9H,3-6H2
