19
gdb 46906	3.21648	1.34793	1.04243	4.495	75.31	-0.2559	0.0157	0.2716	1150.4913	0.161428	-423.051146	-423.043371	-423.042427	-423.083824	30.372	
O	 0.0451022486	 0.3184355513	-0.9487884259	-0.314359
C	 0.0285354723	 1.24736803	-0.1854969617	 0.379213
C	-1.3291268935	 1.8389223683	 0.2320049105	-0.302729
C	-1.4695542202	 2.9010744286	 1.3312956162	-0.263029
C	-0.7117395868	 4.1703502712	 0.9981817769	 0.012077
C	 0.136087699	 4.873092442	 2.0242188029	-0.321152
C	 0.7925878573	 4.0682722834	 0.92443426	-0.025062
C	 1.3999786769	 2.731454604	 1.2514826702	-0.092722
O	 1.223544361	 1.7490583179	 0.2156578986	-0.226408
H	-1.7359269942	 2.2404280542	-0.7051246628	 0.141638
H	-1.949180091	 0.9664602172	 0.4598515045	 0.137509
H	-2.5362097987	 3.1235565541	 1.4506286043	 0.107507
H	-1.1468884422	 2.4993820581	 2.2971418036	 0.10602
H	-1.1838320501	 4.797094962	 0.2466117342	 0.09195
H	 0.2180241384	 5.9529354923	 1.9785103597	 0.120394
H	 0.1557172291	 4.4700497467	 3.0323438509	 0.115451
H	 1.2974245606	 4.6188458336	 0.136927481	 0.098045
H	 2.4859043684	 2.8071665575	 1.3490354387	 0.125397
H	 1.0175178152	 2.3400646877	 2.1993198382	 0.11026
49.9811	154.1119	260.7166	264.0861	336.4714	361.7401	428.9136	494.6713	522.5302	614.0217	673.7491	718.9613	783.8243	821.7173	859.444	895.0389	936.242	973.5142	991.6827	1032.662	1062.1761	1068.9277	1087.7169	1124.4586	1136.0683	1176.2492	1213.1805	1222.5846	1244.1549	1272.6509	1293.2394	1351.0666	1365.8644	1385.089	1416.1897	1437.6918	1455.2329	1491.167	1494.6056	1520.1824	1821.2425	3036.8353	3038.4701	3053.058	3075.2804	3089.0998	3100.6052	3130.3488	3143.4841	3160.6945	3217.1522
O=C1CCC2CC2CO1	O=C1CC[C@H]2C[C@H]2CO1	
InChI=1S/C7H10O2/c8-7-2-1-5-3-6(5)4-9-7/h5-6H,1-4H2	InChI=1S/C7H10O2/c8-7-2-1-5-3-6(5)4-9-7/h5-6H,1-4H2/t5-,6-/m0/s1
