17
gdb 84478	3.88718	1.17048	1.02027	2.3147	74.89	-0.2475	-0.0229	0.2246	1155.701	0.135725	-421.828234	-421.820206	-421.819262	-421.860793	30.72	
O	 0.0909960575	 1.4683181106	-0.1837395646	-0.426328
C	 0.0330038129	 0.0576474003	-0.0409174745	 0.079432
C	 0.703160274	-0.4760225233	 1.2150062823	-0.137049
C	-0.0754353629	-1.3209242726	 1.8900914567	-0.148979
C	-1.4182995898	-1.4644467586	 1.2487277698	 0.230789
C	-2.2437559601	-0.1720518828	 1.2052166644	-0.33377
C	-1.3880013968	-0.5251157999	 0.0362548044	-0.111093
C	-2.1331555908	-2.7533199383	 1.2233670879	 0.076579
O	-1.7400332432	-3.7659676818	 1.7506155018	-0.266417
H	-0.3241056164	 1.8591390003	 0.5932683502	 0.278885
H	 0.5367298582	-0.3199731191	-0.9388688272	 0.104795
H	 1.7013486024	-0.1610413997	 1.4956525101	 0.109976
H	 0.1791971944	-1.8526534532	 2.7982731171	 0.123644
H	-3.3171886526	-0.272401377	 1.0765356887	 0.128862
H	-1.940576683	 0.6047388745	 1.8993636134	 0.121202
H	-1.8836769836	-0.8083989662	-0.8844978347	 0.105475
H	-3.1018009501	-2.7264567233	 0.6710535241	 0.063996
89.1662	151.167	189.8137	253.0894	281.166	334.0593	387.8302	454.1592	494.797	589.4898	667.9123	741.2222	762.0904	789.9796	821.1666	880.5852	957.507	965.2795	972.0851	999.2522	1030.9053	1051.3017	1076.9312	1082.183	1094.5557	1141.924	1243.2869	1255.4396	1282.9846	1316.7933	1351.8831	1399.9199	1426.4838	1436.4918	1476.7251	1673.8982	1808.1651	2856.0167	3039.5658	3124.0572	3184.3662	3200.4996	3213.3813	3225.9385	3800.9452
OC1C=CC2(CC12)C=O	O[C@H]1C=C[C@]2(C[C@@H]12)C=O	
InChI=1S/C7H8O2/c8-4-7-2-1-6(9)5(7)3-7/h1-2,4-6,9H,3H2	InChI=1S/C7H8O2/c8-4-7-2-1-6(9)5(7)3-7/h1-2,4-6,9H,3H2/t5-,6-,7-/m0/s1
