19
gdb 71285	2.6217	1.95567	1.41694	1.2118	78.84	-0.2345	0.0215	0.2561	962.0675	0.160913	-385.868862	-385.861617	-385.860673	-385.899939	30.452	
O	-0.0039810859	 1.3487329517	-0.0537137252	-0.501929
C	 0.0265448661	-0.0600864082	 0.0211442268	 0.386351
C	 0.3148243723	-0.7817013537	-1.3550683164	-0.292178
C	-1.0613718708	-1.4450162673	-1.2673921792	-0.073307
C	-1.291184041	-2.1248435128	 0.0657611546	-0.033734
C	-0.2295267889	-2.8047580143	 0.9320992021	-0.298237
C	 0.734539413	-1.8403931927	 1.5769275803	-0.063602
C	 0.8456130767	-0.5764293205	 1.1752841972	-0.126773
C	-1.404883348	-0.6314454801	-0.0248877705	-0.106062
H	 0.902823884	 1.6605468488	-0.1492478857	 0.273192
H	 0.3489838827	-0.0310170815	-2.1489440237	 0.104208
H	 1.1965455501	-1.4279048695	-1.4167716582	 0.086495
H	-1.6903336503	-1.6783878257	-2.1184756913	 0.081194
H	-2.2562690466	-2.6239653555	 0.0960900461	 0.088079
H	-0.7309268894	-3.3802050944	 1.7214399687	 0.107591
H	 0.3237225896	-3.5510720409	 0.3433793101	 0.11375
H	 1.3350640294	-2.2163000925	 2.4011037032	 0.087783
H	 1.5326779426	 0.115862326	 1.6563792834	 0.078101
H	-2.2863875358	-0.059696857	 0.2354992779	 0.089076
146.6001	261.9621	269.2698	328.6317	375.6637	410.5604	484.4601	499.7852	568.6003	627.3294	693.9942	725.7002	765.6994	822.1819	870.9752	879.4105	933.3851	942.173	962.1318	976.3423	993.3493	1014.9445	1024.3064	1050.6575	1075.1837	1105.8273	1145.2584	1162.2471	1200.0628	1216.1092	1229.0851	1243.257	1266.7204	1329.9872	1350.1293	1377.2358	1405.2148	1426.4484	1471.3822	1484.9042	1712.6223	3000.2293	3029.6674	3040.9634	3105.3339	3142.0802	3144.6208	3169.5986	3174.5082	3197.9427	3798.0644
OC12CC3C(CC=C1)C23	O[C@@]12C[C@H]3[C@@H](CC=C1)[C@@H]23	
InChI=1S/C8H10O/c9-8-3-1-2-5-6(4-8)7(5)8/h1,3,5-7,9H,2,4H2	InChI=1S/C8H10O/c9-8-3-1-2-5-6(4-8)7(5)8/h1,3,5-7,9H,2,4H2/t5-,6+,7-,8-/m1/s1
