19
gdb 65500	3.57478	1.08315	0.97174	2.4158	77.05	-0.2626	-0.0339	0.2287	1256.4933	0.15756	-423.012385	-423.003741	-423.002797	-423.045726	33.388	
O	 0.4757992978	 1.4489813569	-0.5530521089	-0.487253
C	 0.0002712566	 0.267555414	 0.0033641727	 0.348302
C	 0.1127728824	 0.1146906906	 1.5626415247	-0.371794
C	-1.3330569427	-0.3900042108	 1.5775256845	 0.394378
C	-1.7871270679	-1.7215593841	 2.1077805898	-0.321181
C	-2.2980506691	-0.4346157983	 2.7190838395	-0.333684
C	-1.5567211465	 0.1221087864	 0.1516651213	-0.371793
C	 0.5954405421	-0.921191471	-0.707095165	 0.117203
O	 1.3716841471	-0.7958346233	-1.6249875632	-0.284792
H	 1.0779719841	 1.1825447332	-1.2669609954	 0.289782
H	 0.8946786166	-0.542711016	 1.9550322057	 0.104146
H	 0.2255685969	 1.1100574896	 2.0012874178	 0.124207
H	-2.4747572988	-2.3074673249	 1.5055324646	 0.114294
H	-1.0817551841	-2.3136613435	 2.682838599	 0.114294
H	-1.9367569657	-0.1594619109	 3.7049571568	 0.116109
H	-3.3289045629	-0.1532657124	 2.5283720197	 0.116109
H	-2.0028630726	 1.1199595158	 0.1179230441	 0.124208
H	-2.0773354051	-0.529507307	-0.5567709641	 0.104148
H	 0.2806504116	-1.9187158645	-0.3397557735	 0.10332
64.8539	106.3904	232.8935	259.8965	273.5601	334.6767	344.4373	392.7009	414.4681	449.168	513.82	629.6746	777.1284	783.1507	835.746	839.1412	877.0361	895.3561	915.5966	924.9687	982.5872	998.4933	1052.8643	1077.3868	1080.707	1083.3775	1101.2391	1178.5073	1188.4194	1223.8658	1229.0347	1254.2793	1314.6286	1384.0581	1389.7617	1441.1772	1465.4316	1466.929	1491.0153	1505.9151	1805.6429	2936.7775	3046.8852	3050.1261	3106.3317	3106.7497	3119.7181	3125.23	3198.3901	3213.567	3676.9068
OC1(CC2(CC2)C1)C=O	OC1(CC2(CC2)C1)C=O	
InChI=1S/C7H10O2/c8-5-7(9)3-6(4-7)1-2-6/h5,9H,1-4H2	InChI=1S/C7H10O2/c8-5-7(9)3-6(4-7)1-2-6/h5,9H,1-4H2
