16
gdb 66494	3.04347	1.73949	1.41001	3.3233	73.34	-0.2362	-0.0184	0.2179	940.3234	0.123315	-400.656523	-400.64899	-400.648045	-400.688433	28.945	
C	-0.3605822385	 1.6324827006	-0.0706537708	-0.511057
C	-0.5012004491	 0.1580548532	-0.1832055243	 0.358047
C	 0.526691059	-0.894894974	-0.5921356511	-0.176972
C	 1.5661213843	-1.3398018064	 0.4236686264	-0.136804
C	 0.7617224724	-2.1542761551	 1.2558330406	 0.327002
N	 1.1069982881	-1.2251725526	 2.0277592454	-0.291457
C	-1.4916921494	-0.7235234776	 0.0331947211	-0.203788
C	-0.68626252	-1.9319733422	-0.3436461278	 0.051279
O	-0.3244970723	-2.8048215687	 0.8126154817	-0.261151
H	 0.4207876738	 1.8861979997	 0.6545717468	 0.158393
H	-0.0609098455	 2.0729761814	-1.0295153051	 0.132883
H	-1.2949946953	 2.1012774491	 0.2489207622	 0.134963
H	 0.9273368562	-0.8322520725	-1.6082489857	 0.084296
H	 2.6189378227	-1.4760371907	 0.2246103366	 0.119102
H	-2.512812332	-0.6246451882	 0.3804844086	 0.112143
H	-1.0187305845	-2.600898036	-1.1371006247	 0.103123
111.4637	142.2476	161.5165	267.3472	353.1676	420.8313	488.525	531.715	577.9781	628.4765	710.5737	735.4751	797.3176	813.5885	857.7037	876.9241	926.6243	980.4981	996.5057	1001.3175	1023.999	1057.9081	1146.2954	1175.4377	1208.7501	1222.1111	1246.9548	1302.735	1310.4064	1361.803	1407.718	1474.4876	1479.8262	1694.612	1782.7038	3027.9861	3071.5712	3083.5442	3118.7671	3121.1836	3209.2889	3221.0391
CC12C3C1C1=NC2C3O1	CC1=C[C@H]2[C@@H]1[C@@H]1[C]([N]1)O2	
InChI=1S/C7H7NO/c1-7-2-3(7)6-8-5(7)4(2)9-6/h2-5H,1H3	InChI=1S/C7H7NO/c1-3-2-4-5(3)6-7(8-6)9-4/h2,4-6H,1H3/t4-,5+,6+/m0/s1
