21
gdb 94556	2.3943	1.51572	1.222	1.7651	77.69	-0.242	0.0728	0.3149	1136.2471	0.18115	-424.192489	-424.183208	-424.182263	-424.226431	34.794	
C	-1.0831309435	 1.0553662249	 0.3255655236	-0.431788
C	-0.2289385759	-0.1860012452	 0.1122986565	-0.027999
C	 0.9875325427	-0.0882297572	-0.8314878584	-0.079793
O	 1.8523116308	-0.7038549702	 0.147891545	-0.289767
C	 0.833159111	-0.6409466254	 1.1650393134	 0.049365
C	 1.1910383814	 0.3102395506	 2.292314954	 0.391794
C	 0.2721590087	 0.2840412727	 3.4947288058	-0.476492
C	 2.5945679264	 0.7238828736	 2.4434714415	-0.222421
O	 1.6260853455	 1.6099004503	 1.8676277144	-0.279616
H	-0.4798336979	 1.9103552045	 0.6386321609	 0.152744
H	-1.5938886865	 1.3207232879	-0.607061774	 0.114283
H	-1.8595352541	 0.8863831079	 1.0793643067	 0.115431
H	-0.8657960157	-1.0324565072	-0.1604206123	 0.08216
H	 0.9452614056	-0.6679622073	-1.7603553147	 0.098336
H	 1.3022569094	 0.938834356	-1.0538535967	 0.108848
H	 0.6477611719	-1.6338712778	 1.5983314745	 0.072086
H	 0.2965047761	-0.6976421637	 3.9800245209	 0.123921
H	 0.5805319172	 1.0394074451	 4.2212886546	 0.131684
H	-0.7639018155	 0.4911773417	 3.2089688452	 0.12866
H	 2.9591247897	 1.0132308732	 3.4285032578	 0.105103
H	 3.3345300328	 0.3428076058	 1.7458022214	 0.133459
73.4332	108.1658	166.522	189.3422	240.414	244.2138	302.9377	341.1828	363.3701	398.173	507.6447	542.737	697.8559	756.1362	837.0649	863.9663	893.5095	928.7807	934.0187	948.0159	1002.7522	1020.9711	1052.1179	1067.273	1113.7815	1135.8714	1142.3262	1160.5289	1176.48	1188.3922	1250.5713	1264.4194	1282.1011	1346.7439	1377.6675	1389.0583	1395.7973	1411.7278	1414.97	1482.0291	1494.6588	1496.9141	1507.147	1514.3618	1523.8683	3002.032	3019.8589	3033.2774	3039.9457	3055.5386	3074.5341	3089.078	3091.4378	3104.0709	3126.5414	3131.9676	3197.3951
CC1COC1C1(C)CO1	C[C@H]1CO[C@H]1[C@@]1(C)CO1	
InChI=1S/C7H12O2/c1-5-3-8-6(5)7(2)4-9-7/h5-6H,3-4H2,1-2H3	InChI=1S/C7H12O2/c1-5-3-8-6(5)7(2)4-9-7/h5-6H,3-4H2,1-2H3/t5-,6+,7+/m0/s1
