15
gdb 33307	7.85098	0.67203	0.62548	2.6854	96.18	-0.2248	-0.0533	0.1715	1707.627	0.1131	-379.627042	-379.618692	-379.617748	-379.660499	30.506	
C	 0.133761948	-3.7193759199	-0.0762533438	-0.573341
C	 0.0649982485	-2.5140535132	-0.0432894161	 0.256481
C	-0.0074970334	-1.1583512872	-0.0063763015	 0.085084
C	-0.0807753182	 0.0503328526	 0.0249017616	 0.261461
C	-0.1184447824	 1.472870924	 0.0527843969	 0.0947
N	-1.1888913047	 2.1658839173	-0.1035708557	-0.300436
C	-0.7771294687	 3.5739467525	 0.022947901	-0.17697
C	 0.7728544722	 3.5744347661	-0.0507309594	-0.191662
N	 1.0617845094	 2.1783782295	 0.3040397582	-0.357532
H	 0.1891064509	-4.7796092347	-0.104843154	 0.198346
H	-1.2438013949	 4.1822098799	-0.7563977676	 0.11689
H	-1.1294509832	 3.9568673653	 0.9900604649	 0.119635
H	 1.1295602483	 3.8146071862	-1.0621918505	 0.106402
H	 1.2374151559	 4.2691151948	 0.6534959039	 0.115534
H	 1.9232736023	 1.7668822667	-0.025218178	 0.245407
74.3206	79.7201	174.4541	219.057	225.3322	390.481	426.243	482.9117	523.1061	549.4964	561.3162	604.5007	607.4392	702.2169	749.3163	865.7148	897.9972	947.7289	991.9725	1039.1025	1082.245	1106.2505	1197.5559	1238.5696	1280.3725	1312.7363	1353.3978	1454.8158	1491.6148	1525.2436	1652.9531	2183.3356	2353.2936	3001.3851	3019.6182	3082.9864	3092.5456	3502.0226	3601.8912
C#CC#CC1=NCCN1	C#CC#C[C]1[N]CCN1	
InChI=1S/C7H6N2/c1-2-3-4-7-8-5-6-9-7/h1H,5-6H2,(H,8,9)	InChI=1S/C7H6N2/c1-2-3-4-7-8-5-6-9-7/h1H,5-6H2,(H,8,9)
