21
gdb 124437	3.08648	1.20303	1.07032	2.7832	84.1	-0.2283	0.0308	0.2591	1234.6019	0.183215	-383.305457	-383.296188	-383.295244	-383.339843	35.44	
C	 0.0258804728	 1.5353219522	 0.0082594365	-0.431871
C	-0.0015744155	-0.0047957235	 0.0079425534	 0.131341
C	 0.7161991646	-0.5226596685	 1.2739865374	-0.395505
C	-1.4702324468	-0.4834320726	 0.0208573251	-0.395517
C	 0.6913527669	-0.5619738691	-1.2184725862	 0.404601
C	 0.9044143303	-1.8672655916	-1.6323079044	-0.316023
C	 1.604894133	-1.7594300167	-2.8503764211	-0.005196
N	 1.8225266965	-0.4917972151	-3.1882532123	-0.242274
N	 1.2594112137	 0.2092798174	-2.1834972962	-0.271338
H	 1.0507903155	 1.9223257117	 0.0217787351	 0.116288
H	-0.4931053832	 1.9500184811	-0.8629852989	 0.116326
H	-0.4786065153	 1.9176127469	 0.9005821874	 0.120534
H	 0.220106156	-0.1470555296	 2.1757672623	 0.109395
H	 0.7070482898	-1.6155721601	 1.3125000486	 0.119701
H	 1.7603074187	-0.1959095711	 1.29598419	 0.119138
H	-2.0078182447	-0.1282172995	-0.8635822373	 0.119148
H	-1.5283578837	-1.5754684885	 0.031210659	 0.119699
H	-1.9873745101	-0.1075563106	 0.9106179403	 0.109396
H	 0.5964039522	-2.7670331837	-1.1245402477	 0.097356
H	 1.9588294456	-2.5522022057	-3.4934297267	 0.107392
H	 1.2973601237	 1.2131072167	-2.2167971443	 0.26741
24.0458	148.7081	206.9582	222.3887	267.4941	301.2545	323.2382	333.3663	339.0877	427.7207	463.7694	544.9015	584.1949	686.9095	727.9877	805.6702	828.0656	895.5433	929.6316	934.7867	940.8764	961.1269	1010.4108	1041.1896	1050.8426	1066.3646	1136.5624	1188.1576	1228.7925	1229.1701	1276.3405	1307.6744	1360.0127	1396.3745	1398.6906	1426.2394	1437.2816	1478.3635	1482.7227	1488.9887	1492.0347	1500.7074	1506.8461	1522.8468	1590.4051	3025.7135	3028.9973	3035.2244	3093.4069	3099.2257	3100.6178	3107.5166	3111.3378	3115.0306	3240.7582	3264.5702	3684.8627
CC(C)(C)C1=CC=NN1	CC(C)(C)c1ccn[nH]1	
InChI=1S/C7H12N2/c1-7(2,3)6-4-5-8-9-6/h4-5H,1-3H3,(H,8,9)	InChI=1S/C7H12N2/c1-7(2,3)6-4-5-8-9-6/h4-5H,1-3H3,(H,8,9)
