18
gdb 31795	4.83372	0.97469	0.81938	0.7144	83.01	-0.2378	-0.0172	0.2207	1391.2541	0.148296	-402.010931	-402.00204	-402.001095	-402.045561	31.912	
C	-0.013784803	 1.5250071505	-0.0187353519	-0.498022
C	 0.002870068	 0.0189094575	 0.0167174455	 0.268496
C	-0.0678104924	-0.7403042926	-1.1537244201	-0.075707
N	-0.0577556391	-2.0724212202	-1.1952691246	-0.32093
C	 0.0257572214	-2.7328801912	-0.0364069708	 0.287395
C	 0.0324519053	-4.2390058966	-0.1538969865	-0.152581
O	 0.1244457431	-4.8214485511	 1.1338448816	-0.419818
C	 0.1014703881	-2.0829537389	 1.1946993189	-0.145313
C	 0.0893825825	-0.6943961994	 1.2135322867	-0.16018
H	 0.895445898	 1.9465765416	 0.4244247508	 0.132775
H	-0.0867752734	 1.8956462905	-1.0448975419	 0.126935
H	-0.8626788148	 1.929960703	 0.5435571975	 0.132747
H	-0.1368293631	-0.2352418158	-2.1163236109	 0.096377
H	-0.8851157481	-4.5493875805	-0.677760586	 0.109798
H	 0.8777065879	-4.5323159171	-0.7959511425	 0.109806
H	 0.1248668219	-5.7765447192	 1.0306863457	 0.292565
H	 0.1676100554	-2.6642116661	 2.104778529	 0.119377
H	 0.1472449825	-0.1627424244	 2.1597099995	 0.096278
47.835	54.536	125.1555	200.6045	212.6183	313.6907	332.7456	421.0361	424.1934	501.797	547.5213	656.9659	731.3732	755.0752	850.5689	851.1877	957.1004	992.5637	1007.9789	1042.6192	1047.562	1069.0047	1095.3511	1154.8271	1196.9467	1240.9396	1241.1959	1259.8585	1313.107	1331.0897	1412.4799	1416.0579	1450.9555	1485.2075	1496.0301	1502.6487	1526.4814	1608.5475	1643.9008	2976.2556	3001.0859	3030.316	3083.8019	3111.6722	3134.5359	3163.7818	3226.2981	3847.4536
CC1=CN=C(CO)C=C1	Cc1cnc(CO)cc1	
InChI=1S/C7H9NO/c1-6-2-3-7(5-9)8-4-6/h2-4,9H,5H2,1H3	InChI=1S/C7H9NO/c1-6-2-3-7(5-9)8-4-6/h2-4,9H,5H2,1H3
