14
gdb 50203	2.81214	1.51721	1.34886	5.7696	62.72	-0.2527	-0.047	0.2057	963.3647	0.100067	-473.806896	-473.799365	-473.798421	-473.839701	27.171	
O	-0.2296588067	 0.1067990865	-0.5169590416	-0.229852
C	-0.0318834124	 1.1800756055	-0.0152518	 0.140737
C	 1.2721347495	 1.9352871652	-0.0879590732	 0.02971
O	 2.4060087199	 1.1757949308	-0.5255948676	-0.278743
C	 2.6814241477	 2.0873927266	-1.6103656317	-0.039456
C	 1.4139904234	 2.9274205486	-1.2945025852	-0.075581
N	 0.8640169725	 2.4755893115	-2.5622731583	-0.321289
C	 1.9368318108	 1.6574844577	-2.9096386882	 0.43663
O	 2.1318369997	 0.9198210036	-3.8286766432	-0.333374
H	-0.833129358	 1.7373465825	 0.5255432699	 0.078916
H	 1.4715956474	 2.4311030868	 0.8730105783	 0.104186
H	 3.7120066081	 2.4390347197	-1.6430459794	 0.116384
H	 1.379877098	 3.9978510781	-1.1023469477	 0.111275
H	-0.0965822397	 2.427407147	-2.8747138721	 0.260457
60.3733	97.5668	196.6707	225.4952	287.9605	423.131	481.617	501.2581	665.685	723.159	749.3232	794.5056	819.4313	904.3341	914.8248	958.291	975.4738	1031.2663	1059.7842	1109.3282	1129.0952	1165.2412	1203.5134	1230.1145	1277.3321	1329.3935	1353.5304	1363.9842	1417.6608	1839.6457	1914.9077	2854.3969	3010.5837	3127.7371	3138.5643	3589.3345
O=CC1OC2C1NC2=O	O=C[C@H]1O[C@@H]2[C@H]1NC2=O	
InChI=1S/C5H5NO3/c7-1-2-3-4(9-2)5(8)6-3/h1-4H,(H,6,8)	InChI=1S/C5H5NO3/c7-1-2-3-4(9-2)5(8)6-3/h1-4H,(H,6,8)/t2-,3+,4-/m1/s1
