18
gdb 13986	4.82182	1.23876	1.12459	1.5154	68.9	-0.2492	0.0797	0.3289	1114.6559	0.152512	-384.888721	-384.880562	-384.879617	-384.921834	29.463	
C	-0.2109948818	 1.3695670617	-0.3182166182	-0.220501
O	-0.4724339711	 0.0174037413	-0.6107844068	-0.236901
C	-0.9431372353	-0.7025429339	 0.508511173	-0.187745
C	-1.106968005	-2.1344295867	 0.1132486048	 0.423836
C	-0.1047135711	-3.0563717951	-0.6001455862	-0.289187
C	-1.3277017589	-3.8591003494	-1.1712101616	-0.236221
C	-2.2530028966	-2.8884778852	-0.4255863156	-0.034235
O	-1.9073451567	-2.9604731535	 0.9669328335	-0.298368
H	 0.1563537108	 1.8368865971	-1.2348826477	 0.128605
H	-1.1183735686	 1.8993134793	 0.0124110834	 0.106153
H	 0.5531005044	 1.4767940594	 0.4680270296	 0.106138
H	-0.2281331395	-0.6223278086	 1.3468063551	 0.093782
H	-1.9092303665	-0.3110393051	 0.8659803805	 0.100319
H	 0.4576847093	-2.5386244327	-1.3787901834	 0.12173
H	 0.5793483476	-3.5956632281	 0.0594580257	 0.103403
H	-1.4085740282	-3.7821904697	-2.2577483933	 0.108151
H	-1.4176708274	-4.9048979156	-0.8688455197	 0.110498
H	-3.2622895254	-2.5725161854	-0.6646664132	 0.100543
76.9687	85.3246	126.5237	226.4777	253.6056	329.5159	337.8081	450.6696	489.1006	689.133	750.4565	776.2146	869.459	902.3848	922.0975	955.8857	987.2996	997.9005	1040.5349	1077.6117	1143.49	1159.6585	1177.7629	1199.4809	1211.8851	1214.8982	1228.314	1248.8216	1273.825	1300.6583	1392.3978	1464.0062	1466.8798	1481.972	1485.5699	1497.6129	1504.1611	1521.5999	2946.6508	2971.4695	2991.3446	3015.1876	3067.2237	3074.3434	3116.4519	3121.345	3139.6375	3183.3294
COCC12CCC1O2	COC[C@]12CC[C@H]1O2	
InChI=1S/C6H10O2/c1-7-4-6-3-2-5(6)8-6/h5H,2-4H2,1H3	InChI=1S/C6H10O2/c1-7-4-6-3-2-5(6)8-6/h5H,2-4H2,1H3/t5-,6-/m1/s1
