18
gdb 99825	2.02438	1.49989	1.12213	6.0073	72.88	-0.2576	0.0094	0.267	1163.4755	0.146648	-435.302265	-435.29215	-435.291206	-435.337116	36.566	
C	-0.1695306372	 1.442325596	-0.0729546122	-0.339157
N	-0.2074896643	-0.0066729236	 0.1519341896	-0.318048
C	 0.6606564544	-0.5234324596	 1.2190514907	-0.007564
C	 2.1348952459	-0.1230800253	 0.9947417091	-0.407086
C	 0.2204829307	-0.0348087835	 2.5471191669	 0.290421
N	-0.1810891806	 0.4321872483	 3.5252565345	-0.347156
C	 0.6265282494	-2.0840991972	 1.2385763826	 0.40583
N	 0.2255716198	-2.6321054198	 0.067449766	-0.534364
O	 0.9785975186	-2.7054233769	 2.217314345	-0.35899
H	 0.7839527248	 1.7303559099	-0.5216992861	 0.13721
H	-0.9597740134	 1.6975786449	-0.7830999797	 0.131703
H	-0.3206850293	 2.0331446523	 0.8423722476	 0.134951
H	-1.163153255	-0.2723446841	 0.3719008712	 0.239859
H	 2.2785975495	 0.9517842983	 1.117438055	 0.139646
H	 2.7582258849	-0.6423043459	 1.7244447309	 0.163754
H	 2.4383902575	-0.4144225401	-0.0143066043	 0.131841
H	 0.0070462158	-2.031959979	-0.7117299782	 0.269085
H	 0.2571248486	-3.6330174445	-0.0338752483	 0.268063
58.2397	116.4057	153.2989	172.7309	223.8248	227.8683	244.149	316.5993	331.7407	375.0247	393.8976	444.5209	458.5702	579.3618	631.3106	662.9807	671.4285	777.2045	839.2941	909.5692	928.3531	1055.1107	1086.1732	1101.1908	1154.6911	1185.4143	1195.8902	1229.712	1349.1446	1401.429	1460.0728	1482.9216	1491.9043	1499.4542	1504.3157	1523.9354	1579.7687	1815.4766	2348.1646	3001.8418	3057.3138	3094.6079	3127.6178	3139.8475	3151.7641	3510.0729	3580.9342	3725.8652
CNC(C)(C#N)C(N)=O	CN[C@@](C)(C#N)C(=O)N	
InChI=1S/C5H9N3O/c1-5(3-6,8-2)4(7)9/h8H,1-2H3,(H2,7,9)	InChI=1S/C5H9N3O/c1-5(3-6,8-2)4(7)9/h8H,1-2H3,(H2,7,9)/t5-/m0/s1
