17
gdb 125881	3.73563	1.13387	1.06158	0.9026	74.2	-0.266	-0.0236	0.2424	1180.7958	0.13702	-418.002253	-417.99441	-417.993466	-418.03538	29.076	
C	-0.1013419042	 1.5218551855	-0.1725008256	-0.419856
C	-0.0053503823	 0.0251639525	 0.0069171813	 0.011719
C	 1.2861303221	-0.7059116355	-0.2020258035	-0.298639
C	 0.71740701	-0.6117865735	 1.198663672	-0.125972
C	 1.375330268	 0.1930377867	 2.2372391419	 0.381573
N	 2.3132683155	 1.0803583566	 2.0070232131	-0.196987
O	 2.6113016831	 1.5888215645	 3.2802322568	-0.152234
C	 1.821213362	 0.9346641819	 4.1293330391	 0.10503
N	 1.0377330701	 0.0676728952	 3.5767452175	-0.31571
H	 0.8080904916	 2.0238497756	 0.1667869725	 0.147864
H	-0.2489831303	 1.7682589198	-1.2295414834	 0.119489
H	-0.946729232	 1.9350054347	 0.388309739	 0.118569
H	-0.9025427508	-0.5182358516	-0.2780688976	 0.094531
H	 1.2774063093	-1.6792446785	-0.6798370665	 0.11656
H	 2.1704592448	-0.1100541273	-0.4009042227	 0.140724
H	 0.2486184663	-1.4967622507	 1.6123025278	 0.108364
H	 1.9104768668	 1.1851258139	 5.1765032285	 0.164975
46.9276	127.9184	176.5592	218.7704	285.0708	352.022	432.9564	483.3538	626.079	662.1475	756.2878	794.8996	857.5829	884.4173	904.4406	910.5981	943.2578	980.5756	995.9469	1030.7357	1080.2735	1094.1802	1121.0605	1147.9095	1152.6159	1203.5607	1225.7933	1257.1217	1319.173	1393.5478	1426.1394	1435.1364	1485.6009	1500.3011	1502.9812	1531.1644	1597.1497	3034.2703	3092.8388	3120.1422	3135.7588	3144.2812	3183.6349	3225.5438	3264.199
CC1CC1C1=NOC=N1	C[C@H]1C[C@H]1c1nocn1	
InChI=1S/C6H8N2O/c1-4-2-5(4)6-7-3-9-8-6/h3-5H,2H2,1H3	InChI=1S/C6H8N2O/c1-4-2-5(4)6-7-3-9-8-6/h3-5H,2H2,1H3/t4-,5+/m0/s1
