17
gdb 16030	3.30613	1.74137	1.41466	4.4661	74.04	-0.2652	0.0197	0.2849	932.3373	0.143228	-326.721329	-326.713825	-326.712881	-326.752883	28.493	
C	-0.0345341616	 1.5481938525	 0.0368431698	-0.421506
C	 0.0929299369	 0.0409379338	 0.0551709829	-0.048591
C	 1.3400682068	-0.7407421168	-0.2274511442	-0.11035
C	 2.5968417478	-0.0566825237	 0.3239884346	-0.229507
C	 1.9714358519	-0.0553477358	 1.7541597461	-0.294872
C	 0.7145797628	-0.7504093601	 1.1944379147	 0.199511
C	 0.0076485725	-1.7960760165	 1.8560396647	 0.186172
N	-0.5601389714	-2.6452172771	 2.4024611736	-0.354934
H	 0.8556335204	 2.052711335	 0.4191316091	 0.125701
H	-0.1992504774	 1.9006992468	-0.9868220556	 0.127921
H	-0.8869580101	 1.8708244466	 0.6430271856	 0.132084
H	-0.78853862	-0.468442267	-0.3285678747	 0.1114
H	 1.3408192564	-1.5574622494	-0.9389556932	 0.109538
H	 3.4788877559	-0.6963303912	 0.2662884015	 0.118167
H	 2.8447117173	 0.9149426463	-0.1123700082	 0.108897
H	 2.5184896618	-0.6969677352	 2.4457900015	 0.12877
H	 1.80361389	 0.9129948418	 2.2328311718	 0.111599
135.7671	168.4251	178.6048	244.6681	271.5452	376.8222	489.4444	533.68	560.4765	600.4708	720.8381	756.9846	801.9808	882.2889	928.1716	950.6764	975.8398	1005.6186	1053.853	1076.3143	1113.055	1126.1199	1145.4055	1220.6512	1230.2427	1246.3993	1260.6205	1295.3419	1338.928	1415.9563	1451.5086	1478.6118	1501.2688	1502.4042	1511.175	2338.9056	3041.4322	3062.7105	3071.3167	3101.6377	3114.799	3120.1007	3134.8767	3142.2323	3191.4572
CC1C2CCC12C#N	C[C@H]1[C@H]2CC[C@@]12C#N	
InChI=1S/C7H9N/c1-5-6-2-3-7(5,6)4-8/h5-6H,2-3H2,1H3	InChI=1S/C7H9N/c1-5-6-2-3-7(5,6)4-8/h5-6H,2-3H2,1H3/t5-,6+,7+/m0/s1
