16
gdb 5762	5.88905	1.51022	1.28409	1.7436	72.3	-0.1812	0.0516	0.2328	942.5965	0.132812	-342.784262	-342.777358	-342.776414	-342.815749	26.485	
C	 0.959501612	-0.3780661555	-0.8007613858	-0.218382
C	-0.2517065784	-1.1697226057	-1.1426812579	-0.231028
N	-0.2773637256	-0.1632145257	-0.0643805077	-0.16939
C	-0.3340899977	-0.6114503008	 1.2656665253	 0.333319
C	 0.6277762939	-0.8437755386	 2.2256361014	-0.221944
C	-0.0551430516	-1.2095975676	 3.4242863259	-0.136949
C	-1.4012773142	-1.1913239352	 3.1603181574	-0.098093
N	-1.5613680897	-0.8234783797	 1.8423551149	-0.292988
H	 1.7643680801	-0.9071325958	-0.297214919	 0.126496
H	 1.2743079175	 0.449097097	-1.4297532336	 0.121098
H	-0.8436751271	-0.9228383002	-2.0186186639	 0.119242
H	-0.259439209	-2.2161268301	-0.8483932246	 0.124076
H	 1.6933280851	-0.743657867	 2.0932277328	 0.085386
H	 0.3997889726	-1.4598334063	 4.3703640991	 0.089302
H	-2.2540879369	-1.4064595293	 3.7830599858	 0.111246
H	-2.4354157711	-0.6755986695	 1.3688900799	 0.258608
53.5301	159.4312	216.0584	366.2649	465.9265	476.852	571.6897	626.9659	672.0742	711.0927	772.2922	817.6732	838.2479	868.0857	886.4455	919.9588	990.2848	1035.8934	1056.2367	1105.5447	1109.0485	1133.0253	1140.5063	1175.536	1179.8865	1221.4799	1282.1047	1338.5235	1430.1966	1465.6624	1486.2517	1512.3078	1516.7357	1615.0247	3109.0203	3113.7324	3193.3615	3207.8431	3242.6537	3257.6573	3273.3328	3683.1134
C1CN1C1=CC=CN1	C1CN1c1ccc[nH]1	
InChI=1S/C6H8N2/c1-2-6(7-3-1)8-4-5-8/h1-3,7H,4-5H2	InChI=1S/C6H8N2/c1-2-6(7-3-1)8-4-5-8/h1-3,7H,4-5H2
