14
gdb 20671	3.38138	2.32033	1.38769	4.8602	69.63	-0.2206	-0.0508	0.1699	840.3487	0.108768	-374.884952	-374.87797	-374.877026	-374.916152	26.031	
C	-0.0061813488	 1.5278683678	-0.0263599991	-0.478486
C	-0.0152991213	 0.0341032239	-0.0190147933	 0.219856
C	-1.1318056363	-0.7116168958	-0.1259284834	-0.042067
N	-1.040615302	-2.0825813841	-0.1093559834	-0.246843
N	 0.1192112716	-2.7639584013	 0.008913648	-0.035072
N	 1.1993189383	-2.1217176823	 0.1128581016	-0.263548
C	 1.2459618332	-0.6905167551	 0.1103510389	 0.30889
N	 2.3646079154	-0.0777590119	 0.2185197299	-0.517885
H	 0.6202097061	 1.8985192938	-0.8445357446	 0.152391
H	-1.0147139031	 1.938141233	-0.1284386868	 0.110303
H	 0.4482256811	 1.908115674	 0.8945155464	 0.152429
H	-2.1309418485	-0.3035207524	-0.2273127553	 0.13776
H	-1.847475409	-2.6789971448	-0.1875050702	 0.2814
H	 3.1130126235	-0.7702919849	 0.2965881811	 0.220872
86.7245	183.4514	271.2996	284.8492	392.6307	451.4097	460.1565	525.3744	602.7509	607.0728	750.2332	786.6276	877.5465	912.6869	912.9424	957.9219	1043.5352	1065.6028	1070.6663	1201.7452	1232.6401	1316.5514	1391.6498	1416.3092	1454.6737	1462.3773	1482.9451	1584.5806	1676.705	1712.7899	3036.7108	3095.8857	3119.2472	3198.0701	3454.8124	3662.6768
CC1=CNN=NC1=N	Cc1c[nH]nnc1[NH]	
InChI=1S/C4H6N4/c1-3-2-6-8-7-4(3)5/h2H,1H3,(H2,5,6,7)	InChI=1S/C4H11N4/c1-3-2-6-8-7-4(3)5/h3-8H,2H2,1H3
