20
gdb 120512	3.28083	0.9181	0.75726	0.9644	79.21	-0.2458	0.029	0.2748	1529.2168	0.169065	-440.26822	-440.258171	-440.257227	-440.304424	34.756	
C	 0.0512062008	 0.915203525	-0.5230964024	-0.241724
O	-0.1556750026	 0.2190656776	 0.6937291025	-0.236022
C	-1.3144200427	-0.5781844693	 0.7227299419	-0.084134
C	-1.1703320553	-1.9106444419	 0.0077500291	 0.116782
C	-2.4147372744	-2.8243372673	-0.0219157531	-0.406953
C	-2.3326795778	-2.629377175	-1.5197864636	 0.468324
O	-1.2219175203	-1.7951124039	-1.4567480204	-0.277798
N	-2.9851970799	-3.0420803329	-2.5012519459	-0.324394
C	-2.5911779724	-2.6327892886	-3.8421621671	-0.338814
H	 0.9225693287	 1.5568799608	-0.3720853974	 0.125707
H	 0.2390315863	 0.2388792868	-1.3649153047	 0.132351
H	-0.8156065128	 1.5459810763	-0.7731107363	 0.105395
H	-1.515586405	-0.7889502324	 1.7808188833	 0.113762
H	-2.1841590452	-0.0383861037	 0.3120147638	 0.093171
H	-0.236287557	-2.398411566	 0.3015533469	 0.102442
H	-2.2713094668	-3.8492748188	 0.3227774757	 0.138725
H	-3.3127560645	-2.4079610861	 0.4413383635	 0.134042
H	-2.3942578279	-3.526250644	-4.4446626437	 0.127983
H	-3.4273912985	-2.1070895832	-4.3163518974	 0.12733
H	-1.7065455329	-1.9860499135	-3.8728667847	 0.123824
58.5821	68.6583	84.1567	111.6095	157.5987	206.4507	227.0163	272.0328	362.3831	389.2363	476.0027	540.2922	563.2854	712.6357	824.388	884.9975	935.2849	956.9479	1011.1763	1026.5286	1065.6887	1091.8248	1116.2812	1133.936	1144.1586	1171.3727	1184.9971	1189.8665	1223.1178	1247.0609	1292.7634	1312.2146	1368.1988	1416.1621	1439.7552	1465.99	1468.3947	1483.8212	1492.8363	1494.7965	1497.8225	1512.6448	1851.3681	2971.2106	2989.7331	3017.2383	3052.1324	3064.8073	3076.6837	3078.9368	3082.8662	3087.2036	3119.9113	3136.0519
COCC1CC(O1)=NC	COC[C@H]1CC(=NC)O1	
InChI=1S/C6H11NO2/c1-7-6-3-5(9-6)4-8-2/h5H,3-4H2,1-2H3	InChI=1S/C6H11NO2/c1-7-6-3-5(9-6)4-8-2/h5H,3-4H2,1-2H3/t5-/m1/s1
