21
gdb 96024	2.39816	1.27745	1.01972	3.3343	82.47	-0.2344	0.0282	0.2626	1261.9823	0.183773	-383.292343	-383.282955	-383.282011	-383.327674	34.098	
C	-0.1052482491	 1.4627966644	 0.0160176216	-0.417806
C	 0.0168356576	-0.0536906243	-0.0928180063	 0.07575
C	 0.858766645	-0.5261364732	-1.2951608928	-0.217953
C	 1.5300288403	-1.8476316493	-0.8343948066	-0.222161
C	 1.0801402125	-2.0180322668	 0.6280286867	-0.163799
N	 0.7311629903	-0.6574480187	 1.0452055117	-0.059615
C	 0.0846236029	-0.5687546005	 2.3362440014	-0.302816
C	-1.2387523716	-1.2389332174	 2.414128289	 0.255419
N	-2.2659271418	-1.7695608372	 2.4237240668	-0.318902
H	 0.8807217935	 1.915020206	 0.1642778599	 0.121957
H	-0.5391721118	 1.8697337013	-0.9024784868	 0.122888
H	-0.7558762836	 1.7695274576	 0.8412669776	 0.117467
H	-0.9972602612	-0.4872125606	-0.1763171537	 0.076244
H	 0.2369905862	-0.6538005528	-2.1844305146	 0.105336
H	 1.6161248975	 0.2268743293	-1.5328797249	 0.103764
H	 1.2287753643	-2.7043424055	-1.441174905	 0.107608
H	 2.6178147084	-1.7701026144	-0.8990297993	 0.109338
H	 0.2101670527	-2.6957204364	 0.686175005	 0.103049
H	 1.8607359342	-2.4256007313	 1.2791264815	 0.10131
H	 0.734095356	-1.0164972891	 3.0966820712	 0.150765
H	-0.0521356022	 0.4804373688	 2.6162285776	 0.152158
34.9715	67.974	96.3153	165.3035	231.0626	282.1733	299.558	365.4003	389.1951	452.7518	507.7409	631.3058	689.5814	750.6422	809.2643	875.7354	892.9019	901.2007	921.4942	977.9722	1002.5386	1025.8712	1066.6049	1125.7906	1141.8156	1154.5185	1193.9773	1225.9038	1256.0598	1266.8862	1305.2536	1323.4677	1327.3711	1355.86	1374.3115	1384.4805	1404.653	1410.735	1455.8883	1487.8554	1492.5535	1501.0376	1507.309	1524.0746	2344.079	2924.8058	2950.0034	3034.7743	3048.9616	3054.7043	3058.8765	3074.1518	3088.9719	3096.4784	3102.886	3112.2907	3118.7516
CC1CCCN1CC#N	C[C@H]1CCCN1CC#N	
InChI=1S/C7H12N2/c1-7-3-2-5-9(7)6-4-8/h7H,2-3,5-6H2,1H3	InChI=1S/C7H12N2/c1-7-3-2-5-9(7)6-4-8/h7H,2-3,5-6H2,1H3/t7-/m0/s1
