17
gdb 34629	2.4549	1.68323	1.09312	1.1356	84.68	-0.2134	-0.0254	0.188	1099.9948	0.134479	-384.648571	-384.640315	-384.63937	-384.681607	31.638	
C	 0.0897749939	-1.1637587762	-0.1360127674	-0.444049
C	 0.0029409446	 0.0362990166	-0.0733992794	 0.245
C	-0.0379689688	 1.4471210442	-0.0051048303	 0.14681
C	-1.1058941122	 2.2418601542	 0.1409081089	-0.252379
C	-0.668702573	 3.67638695	 0.1609675881	-0.125717
O	 0.7491167182	 3.639487345	 0.0136962581	-0.308122
C	 1.1844954682	 2.3004189279	-0.0920471218	 0.36012
C	 2.507965226	 1.9314274189	 0.5187324304	-0.328593
C	 2.3526782756	 2.0000240301	-0.9897874508	-0.328607
H	 0.1466960778	-2.2227819789	-0.1902904848	 0.197407
H	-2.1349068449	 1.9226091639	 0.2322827468	 0.114
H	-1.114989094	 4.2628669035	-0.6580145564	 0.11316
H	-0.9340984049	 4.1831219696	 1.1025778802	 0.113165
H	 3.0499688945	 2.7358628974	 1.0029904247	 0.125313
H	 2.6057652291	 0.9572087887	 0.9853307122	 0.123598
H	 2.3445617726	 1.0725905726	-1.5520872601	 0.123585
H	 2.7923108071	 2.8496802325	-1.4998820587	 0.125309
61.0139	130.0983	149.1975	249.8784	299.2823	344.0818	449.5343	474.25	538.8983	593.7836	625.5373	645.7077	650.1746	763.6519	781.7397	818.8225	866.5509	892.9787	932.0783	951.3774	980.0996	1040.0663	1051.0166	1067.3765	1090.9163	1139.3307	1192.6991	1194.3255	1233.4367	1297.1819	1374.8637	1383.8907	1444.6096	1486.1336	1518.1713	1674.9405	2227.0487	2970.7053	2985.2375	3133.5705	3134.925	3220.6559	3233.2977	3234.6755	3501.5601
C#CC1=CCOC11CC1	C#CC1=CCOC21CC2	
InChI=1S/C8H8O/c1-2-7-3-6-9-8(7)4-5-8/h1,3H,4-6H2	InChI=1S/C8H8O/c1-2-7-3-6-9-8(7)4-5-8/h1,3H,4-6H2
