19
gdb 105118	3.44325	1.09827	0.95158	1.8224	70.3	-0.2498	0.0678	0.3176	1255.1441	0.158806	-460.108179	-460.09944	-460.098495	-460.14214	32.188	
O	 0.0954362192	 1.4634489791	 0.194452692	-0.417064
C	 0.0482463222	 0.0822961039	 0.4639226682	-0.128984
C	-1.3079638517	-0.5254871666	 0.11886311	 0.340427
C	-2.5084433421	 0.3065887154	 0.2545730982	-0.230088
O	-1.9087615794	 0.0867241918	-1.0370601513	-0.278904
C	-1.3794323391	-2.0298095468	 0.1848865574	-0.117437
C	-2.6202641596	-2.754884935	-0.3818778883	-0.09612
O	-1.800005779	-3.5884761362	-1.224856383	-0.270528
C	-0.6162621844	-2.8386584675	-0.8951713834	-0.083731
H	-0.3027113291	 1.5704904478	-0.6800737215	 0.293377
H	 0.8307632248	-0.4639207736	-0.0901304846	 0.097614
H	 0.2528488177	-0.0525836671	 1.5322328679	 0.117636
H	-3.4811679325	-0.1617757675	 0.3917667401	 0.118923
H	-2.4081936884	 1.319153992	 0.6362950568	 0.1343
H	-1.128639331	-2.3551188606	 1.1990401223	 0.090127
H	-3.2136995065	-3.3425482653	 0.327039279	 0.103064
H	-3.2809889075	-2.1102471471	-0.9737774823	 0.114255
H	-0.2659128062	-2.2344146476	-1.7427044957	 0.107612
H	 0.1986644426	-3.484081579	-0.5492063217	 0.105521
74.3041	91.7381	127.5765	174.3405	250.2925	278.1787	356.4549	385.5731	462.842	506.0916	588.7456	676.0728	786.223	853.8582	881.1519	890.4935	922.8403	973.5822	1010.1263	1043.3078	1048.6001	1058.2157	1110.1647	1118.9469	1133.6489	1170.6352	1177.5551	1185.0158	1201.1668	1240.2548	1259.9093	1316.7685	1356.5653	1361.7825	1399.4811	1419.8168	1442.2509	1502.5444	1504.0438	1519.0239	1532.6169	2960.3347	3008.932	3025.5904	3053.969	3062.2871	3067.1695	3078.8958	3101.2188	3196.1393	3760.506
OCC1(CO1)C1COC1	OC[C@]1(CO1)C1COC1	
InChI=1S/C6H10O3/c7-3-6(4-9-6)5-1-8-2-5/h5,7H,1-4H2	InChI=1S/C6H10O3/c7-3-6(4-9-6)5-1-8-2-5/h5,7H,1-4H2/t6-/m0/s1
