19
gdb 84541	3.68272	1.24746	1.06436	2.9303	81.39	-0.2286	-0.02	0.2086	1164.4277	0.159644	-385.916469	-385.908496	-385.907552	-385.949131	31.058	
C	-0.3331327087	 1.4505870271	-0.0865124927	-0.402293
C	 0.0450991628	-0.0384273056	-0.0377487732	-0.028097
C	 0.9844192386	-0.4303504898	-1.1581342059	-0.066768
C	 2.2027976141	-0.7723679535	-0.7356676202	-0.088801
C	 2.3174344214	-0.7432062683	 0.7657160092	-0.189934
C	 0.8430143749	-0.4379180021	 1.2258230139	-0.024943
C	 0.6841787324	-1.9118366139	 1.713165563	-0.373642
C	 2.1757513837	-2.1407253657	 1.4144434575	 0.40768
O	 2.9453394366	-3.0236123608	 1.6530305566	-0.294658
H	 0.5579423654	 2.081425209	-0.0005911777	 0.120207
H	-0.8297146075	 1.701931207	-1.0294730514	 0.114954
H	-1.0145139916	 1.708343412	 0.7313235051	 0.11435
H	-0.8834941086	-0.6251529688	-0.0898189305	 0.078821
H	 0.6806369971	-0.3940394317	-2.1996082786	 0.095815
H	 3.031065271	-1.0679421041	-1.3695514891	 0.107521
H	 3.1560720008	-0.1472406359	 1.1395662226	 0.094033
H	 0.7487418794	 0.2880439476	 2.0345393767	 0.07534
H	 0.4167419934	-2.0580213317	 2.7633907823	 0.129829
H	 0.0166048549	-2.5262332308	 1.0999196924	 0.130586
66.0622	128.5064	228.4098	254.1757	295.3103	325.5715	432.7924	485.4973	547.0428	623.0799	711.5435	730.9545	775.7358	794.9632	850.4694	864.4151	919.5294	961.552	976.1837	1002.9568	1005.7587	1038.2161	1066.0462	1083.6856	1100.9623	1134.7852	1154.0523	1177.3618	1210.1005	1230.9023	1256.4594	1295.0469	1302.0788	1337.5008	1375.017	1408.9285	1434.4087	1495.7266	1498.9185	1668.8531	1889.5185	2997.7169	3028.7268	3052.6537	3062.0355	3095.7557	3099.9634	3102.7022	3111.659	3178.0306	3207.5061
CC1C=CC2C1CC2=O	C[C@H]1C=C[C@H]2[C@@H]1CC2=O	
InChI=1S/C8H10O/c1-5-2-3-6-7(5)4-8(6)9/h2-3,5-7H,4H2,1H3	InChI=1S/C8H10O/c1-5-2-3-6-7(5)4-8(6)9/h2-3,5-7H,4H2,1H3/t5-,6-,7+/m0/s1
