17
gdb 18045	3.56658	2.27623	1.69489	2.2815	67.87	-0.2449	0.0321	0.2771	798.2202	0.145183	-363.864295	-363.857783	-363.856838	-363.89513	25.252	
C	-0.0359591735	 1.5432782229	-0.1685648828	-0.23961
C	 1.4898758632	 1.543825676	 0.1250415455	-0.227788
C	 1.3380945579	 0.1301013738	 0.7332583566	 0.114553
O	 1.2188241764	 0.215406811	 2.1616065172	-0.245959
C	 0.026087246	-0.0578596877	 2.7466034564	 0.130671
N	-1.0657987338	-0.4486338965	 2.2468378144	-0.266868
C	-1.1255892164	-0.6912244917	 0.8096075181	-0.186302
C	-0.0273707073	-0.0048393567	 0.0098178329	-0.023509
H	-0.6089125645	 2.0400217664	 0.6191674218	 0.118901
H	-0.3652888187	 1.9274735586	-1.1359505136	 0.100935
H	 2.0888321698	 1.5208775111	-0.7894802164	 0.105733
H	 1.8892633102	 2.3049547766	 0.79773197	 0.111932
H	 2.1150935961	-0.6103585027	 0.5277260346	 0.084392
H	 0.1120958186	 0.112410265	 3.8188159479	 0.120772
H	-1.0806080426	-1.7780042859	 0.6527725634	 0.112494
H	-2.1135116735	-0.3767294967	 0.4512940863	 0.110702
H	 0.1153784021	-0.4964707433	-0.9570821823	 0.078951
89.9221	144.0743	308.3447	367.1922	475.5829	495.4592	603.3681	675.1129	746.1882	807.0898	863.64	875.037	911.2187	939.1288	951.283	963.8485	985.75	1047.3801	1096.2839	1111.9726	1134.0043	1164.1509	1204.4937	1247.5476	1250.1578	1266.474	1284.4312	1305.3734	1338.3976	1364.1182	1386.4187	1419.1004	1472.1815	1481.1256	1496.6086	1737.1038	3009.2045	3043.3713	3059.1955	3063.1491	3066.4052	3078.3922	3115.5225	3130.7567	3152.2785
C1CC2OC=NCC12	C1C[C@H]2OC=NC[C@@H]12	
InChI=1S/C6H9NO/c1-2-6-5(1)3-7-4-8-6/h4-6H,1-3H2	InChI=1S/C6H9NO/c1-2-6-5(1)3-7-4-8-6/h4-6H,1-3H2/t5-,6-/m1/s1
