16
gdb 45835	2.39609	1.71518	1.05831	2.3189	74.53	-0.2344	-0.0034	0.231	1085.9126	0.127758	-434.125573	-434.117941	-434.116997	-434.157941	29.233	
N	-0.0997428729	 1.3823190578	-0.301037359	-0.504592
C	-0.0392559822	 0.1476406172	 0.0009621419	 0.384838
C	-1.2943708359	-0.6915093364	 0.0098232706	-0.326011
C	-1.5406876798	-1.3583968423	 1.3368409405	-0.111428
C	-0.7017988459	-2.2610099201	 1.8400681115	 0.015121
N	 0.5111058299	-2.6266477094	 1.2439545105	-0.34432
C	 1.4703091773	-1.8416376873	 0.6305969161	 0.42809
O	 2.5911647218	-2.2694126137	 0.4313976548	-0.38944
N	 1.1557707711	-0.523953159	 0.2988379939	-0.3837
H	 0.8174840684	 1.8325896012	-0.2593321977	 0.20694
H	-2.1164210305	-0.0339312063	-0.2682905634	 0.141621
H	-1.1943494532	-1.4613239414	-0.7695323625	 0.131946
H	-2.4267513301	-1.0938942772	 1.9004313466	 0.110582
H	-0.9140191685	-2.7884178663	 2.7646405455	 0.118084
H	 0.9152785885	-3.51044936	 1.5159591726	 0.264358
H	 2.000529912	-0.0388326667	 0.0272683381	 0.257911
100.4278	121.2439	158.4446	323.0575	366.92	414.2831	485.1555	546.4718	564.894	595.55	621.5844	668.4024	729.4954	761.3478	830.3995	885.2489	887.0046	942.1015	957.5901	970.7767	1018.586	1125.5491	1155.143	1216.5543	1259.8474	1323.3422	1342.6777	1414.2839	1438.2343	1442.1159	1469.0157	1482.5188	1721.7622	1739.3321	1796.0722	3006.1125	3146.3734	3177.3134	3213.152	3441.5727	3595.9762	3623.35
N=C1CC=CNC(=O)N1	[NH][C]1CC=CNC(=O)N1	
InChI=1S/C5H7N3O/c6-4-2-1-3-7-5(9)8-4/h1,3H,2H2,(H3,6,7,8,9)	InChI=1S/C5H7N3O/c6-4-2-1-3-7-5(9)8-4/h1,3H,2H2,(H3,6,7,8,9)
