18
gdb 63789	3.5336	1.2996	1.2218	3.2165	73.4	-0.2582	0.0063	0.2646	1090.8094	0.146313	-439.065641	-439.057285	-439.056341	-439.098315	32.02	
C	 0.4037964173	 1.3924132605	 0.0032946604	-0.432172
C	 0.0689620466	-0.0855901617	 0.0551279033	 0.374953
C	-1.3963813949	-0.3836931938	-0.2335390179	-0.426914
O	 0.9154737349	-0.8676048661	-0.8649029428	-0.337784
C	 1.3630780917	-1.7347693986	 0.1913738962	-0.016336
C	 0.6086749672	-0.9099535141	 1.2486611838	 0.004381
O	 1.8728182364	-0.4272683418	 1.7861690801	-0.269857
C	 2.6051487484	-1.2061360678	 0.891613675	 0.435519
N	 3.8389911557	-1.3695156148	 0.7719957798	-0.543363
H	 1.446490003	 1.567528679	 0.2725934373	 0.139262
H	 0.235647406	 1.770930065	-1.0096940845	 0.130237
H	-0.2341931476	 1.9572819878	 0.6906190372	 0.120242
H	-1.6507270276	-0.0566084331	-1.2458229113	 0.134906
H	-1.6017236898	-1.4562587283	-0.1630899739	 0.122454
H	-2.0447720607	 0.1416894349	 0.4756248949	 0.120639
H	 1.279819812	-2.7974767343	-0.0341431248	 0.109585
H	-0.0619185255	-1.2635671508	 2.0294399021	 0.101593
H	 4.362781337	-0.8041725421	 1.4429931052	 0.232655
90.8646	179.2304	187.965	230.3561	243.4905	318.9691	364.3401	398.7664	423.3076	511.0009	620.0184	698.8346	755.1153	814.7636	852.8029	872.4674	915.032	936.7415	951.7673	961.1851	994.1913	1000.5878	1018.996	1039.1316	1164.0611	1173.8718	1211.3199	1218.7332	1253.4758	1293.4277	1299.5955	1336.8697	1402.0609	1415.9159	1473.5452	1478.9324	1495.2986	1502.8534	1829.0919	3035.7103	3045.7552	3107.358	3112.2391	3118.4974	3121.917	3138.5955	3142.7644	3472.1961
CC1(C)OC2C1OC2=N	CC1(C)O[C@@H]2[C@H]1O[C]2[NH]	
InChI=1S/C6H9NO2/c1-6(2)4-3(9-6)5(7)8-4/h3-4,7H,1-2H3	InChI=1S/C6H9NO2/c1-6(2)4-3(9-6)5(7)8-4/h3-4,7H,1-2H3/t3-,4-/m1/s1
