21
gdb 57312	2.54545	1.04822	0.94418	2.4587	80.08	-0.2468	-0.0417	0.2052	1369.6143	0.177977	-424.263087	-424.252225	-424.251281	-424.299861	38.74	
C	-0.168569535	 1.5263177467	 0.0407104166	-0.398503
C	 0.0837615696	 0.0122151201	 0.0127060755	 0.144186
C	 0.5685342906	-0.4632494226	 1.400566393	-0.417632
C	-1.2132119359	-0.7328399232	-0.3761660834	-0.424169
C	 1.1636563412	-0.3009053754	-1.0340143129	 0.364903
O	 1.6858391493	 0.5545820895	-1.7112379667	-0.319429
C	 1.5625736732	-1.7671891351	-1.2641999354	-0.373504
C	 1.1553802585	-2.1866189411	-2.6697315488	 0.163463
O	 0.4951987727	-3.1607587591	-2.9157737553	-0.234227
H	 0.7395001212	 2.073665581	 0.3058214904	 0.123739
H	-0.4955534842	 1.8897866986	-0.9364228387	 0.125346
H	-0.9434559677	 1.7622556543	 0.7768856868	 0.106365
H	-0.1821842013	-0.2099978906	 2.1561039415	 0.124829
H	 0.7233936263	-1.5450197232	 1.4412097713	 0.120602
H	 1.5053784634	 0.027367655	 1.6840224633	 0.124941
H	-1.5901614754	-0.3911318051	-1.3455262489	 0.128107
H	-1.0746102683	-1.8161997753	-0.4313824234	 0.131453
H	-1.9876837937	-0.5345385456	 0.371770161	 0.123975
H	 2.6580425959	-1.7976370216	-1.2203004202	 0.150914
H	 1.1474277546	-2.4735964094	-0.5466308295	 0.127693
H	 1.5164382749	-1.5000080879	-3.4637464362	 0.106948
29.4745	56.6626	100.465	176.4523	202.2595	238.8445	249.8531	262.0107	280.5213	345.4425	349.681	376.4213	448.859	483.4988	571.0763	650.8368	748.1291	820.6281	861.6622	939.2781	943.9213	964.1877	966.7247	1018.1655	1053.6334	1066.2097	1092.528	1189.194	1224.1169	1241.4434	1254.113	1305.2653	1399.1945	1403.1185	1408.3995	1433.4563	1452.9336	1479.1209	1481.0322	1484.9021	1501.7876	1507.0939	1517.8244	1784.289	1836.6016	2922.7209	3035.2914	3036.7752	3046.1504	3048.5746	3103.3066	3104.0902	3112.6187	3116.9132	3117.8151	3127.3112	3150.0504
CC(C)(C)C(=O)CC=O	CC(C)(C)C(=O)CC=O	
InChI=1S/C7H12O2/c1-7(2,3)6(9)4-5-8/h5H,4H2,1-3H3	InChI=1S/C7H12O2/c1-7(2,3)6(9)4-5-8/h5H,4H2,1-3H3
