17
gdb 48711	3.60799	1.40312	1.19257	4.0967	73.18	-0.2413	-0.0188	0.2225	1044.3913	0.135822	-421.799213	-421.791911	-421.790967	-421.830941	28.924	
O	-0.0866462459	 0.0155139997	 0.1586996234	-0.265935
C	 0.033016018	 1.1937514056	-0.0561154431	 0.100958
C	 1.3041537894	 1.9478161601	-0.040414737	 0.333367
C	 1.2861660459	 3.4439047544	 0.2460964358	-0.35823
C	 1.6438827193	 2.9771973476	-1.1315094839	-0.115897
C	 3.0740299748	 2.6704159551	-1.5086500418	-0.071505
C	 4.1861335416	 2.8606172519	-0.4924501174	-0.327047
C	 3.4980865165	 1.5296999347	-0.6151515405	 0.093447
O	 2.4551410251	 1.2272385834	 0.2831053685	-0.280154
H	-0.8436915788	 1.8412332084	-0.2977788982	 0.064254
H	 0.3115894908	 3.9056075299	 0.3704832066	 0.12624
H	 2.0497019672	 3.8207711921	 0.914561796	 0.135302
H	 0.9472789927	 3.1689093408	-1.9391043021	 0.107906
H	 3.3160417089	 2.6896366815	-2.5637962239	 0.101918
H	 5.194256777	 2.9280387866	-0.8880895786	 0.120437
H	 4.0152175585	 3.4633871996	 0.3912534728	 0.124381
H	 4.034755339	 0.6492400685	-0.9505755965	 0.110558
98.2639	179.568	221.8969	288.7619	338.4566	450.6787	495.2621	538.2119	669.3719	697.0822	728.6448	778.1368	803.0804	831.1888	859.1	928.35	960.6547	968.8854	994.0833	1012.0584	1044.2224	1058.9268	1068.7592	1087.2138	1098.2114	1108.7496	1155.6859	1197.2307	1228.5502	1292.396	1346.9891	1357.9671	1386.0269	1437.6551	1465.0644	1490.0691	1826.859	2844.9348	3135.6618	3140.5549	3173.6016	3179.5356	3193.8851	3225.0406	3233.5471
O=CC12CC1C1CC1O2	O=C[C@]12C[C@H]1[C@H]1C[C@H]1O2	
InChI=1S/C7H8O2/c8-3-7-2-5(7)4-1-6(4)9-7/h3-6H,1-2H2	InChI=1S/C7H8O2/c8-3-7-2-5(7)4-1-6(4)9-7/h3-6H,1-2H2/t4-,5+,6-,7-/m1/s1
