16
gdb 15336	3.94882	1.01902	0.87671	2.4173	70.65	-0.2504	0.0227	0.273	1317.4035	0.128067	-383.686499	-383.677363	-383.676418	-383.721999	30.965	
C	 0.1579843453	 1.5040523044	 0.1558787193	-0.501667
C	 0.0419112241	 0.0549129206	 0.1027757672	 0.111058
C	-0.0626031905	-1.1446645491	 0.0646836264	 0.079779
C	-0.1259294299	-2.5800140219	 0.0040155806	-0.16091
O	-0.7863635522	-3.2766706354	 1.0793898062	-0.253429
C	-1.3810050231	-3.3304001891	-0.2219577342	 0.048212
C	-2.7284350476	-2.6631702251	-0.3346644833	-0.096249
O	-3.7233403095	-3.4181561467	 0.3369021947	-0.417691
H	 1.2013806877	 1.8218847497	 0.0558693679	 0.154197
H	-0.4154130724	 1.9798283962	-0.647168643	 0.153346
H	-0.2182577838	 1.8922996631	 1.10857943	 0.156999
H	 0.7966167933	-3.0641981851	-0.3168721009	 0.113833
H	-1.3028069444	-4.3072718009	-0.7021424888	 0.101588
H	-2.6611781388	-1.6370159868	 0.0505800034	 0.105013
H	-3.0343763871	-2.6138244519	-1.3852743465	 0.112539
H	-3.4443888211	-3.4851659321	 1.2572273508	 0.293382
29.3034	65.8469	85.5719	126.8545	203.9933	268.349	333.6718	377.9601	413.2168	468.7988	537.1376	585.7719	743.1763	802.4686	906.7346	925.9683	1038.8599	1050.8458	1054.0543	1072.2667	1104.3946	1137.8433	1188.7001	1229.7784	1286.2772	1351.9416	1385.742	1413.303	1425.4817	1461.3777	1475.0377	1476.7924	1493.8486	2369.1605	3019.6785	3029.8971	3077.5457	3091.964	3093.8371	3099.5373	3110.769	3801.2782
CC#CC1OC1CO	CC#C[C@H]1O[C@H]1CO	
InChI=1S/C6H8O2/c1-2-3-5-6(4-7)8-5/h5-7H,4H2,1H3	InChI=1S/C6H8O2/c1-2-3-5-6(4-7)8-5/h5-7H,4H2,1H3/t5-,6+/m1/s1
