13
gdb 74243	2.91091	1.31681	0.90741	11.4032	73.29	-0.1831	-0.0107	0.1724	1171.5363	0.090571	-448.972918	-448.964645	-448.963701	-449.005803	30.219	
N	-0.0327299645	 1.3804623124	 0.1425500981	-0.599396
C	 0.0131810416	 0.0148865402	 0.0295170306	 0.491325
N	-1.0326965756	-0.7975416979	 0.016337354	-0.352277
H	-1.9954251725	-0.5080765244	 0.0475833926	 0.288136
C	-0.6120880746	-2.1597605443	-0.0047606124	-0.004651
C	-1.5386170727	-3.198328344	-0.0233133355	 0.184852
N	-2.3499350955	-4.0332376213	-0.0391164852	-0.37937
C	 0.8053683921	-2.1767953921	-0.014454776	 0.311005
O	 1.6734756833	-3.0231463718	-0.033540341	-0.393834
N	 1.1216446582	-0.7323461994	 0.0025994878	-0.374455
H	 0.7534570338	 1.8706192266	-0.2599328898	 0.278867
H	-0.9137380147	 1.8075155428	-0.1065808626	 0.274522
H	 2.0678823612	-0.3909857666	 0.0472717796	 0.275275
113.301	139.4079	171.4303	184.2177	303.3567	319.6757	409.3567	443.1547	534.1375	540.6684	546.3528	582.6616	601.33	675.3617	683.6672	725.4679	809.2129	931.8565	1078.4814	1106.2231	1200.2116	1244.5433	1318.7798	1458.8662	1598.1835	1641.6148	1687.9773	1835.1716	2298.8714	3565.2502	3664.4261	3665.1061	3677.9536
NC1=[NH+][C-](C#N)C(=O)N1	N[C]1N[C](C#N)C(=O)N1	
InChI=1S/C4H4N4O/c5-1-2-3(9)8-4(6)7-2/h7H,6H2,(H,8,9)	InChI=1S/C4H4N4O/c5-1-2-3(9)8-4(6)7-2/h(H4,6,7,8,9)
