20
gdb 111538	2.68426	1.47577	1.09768	2.2851	78.57	-0.2317	0.0726	0.3043	1147.9796	0.170902	-403.077633	-403.069147	-403.068203	-403.110512	32.766	
C	 0.0223968352	 1.5026227974	 0.1219859429	-0.506797
C	-0.0668525353	 0.0100776364	 0.0627725469	 0.353129
C	 0.1163812949	-1.018199804	 1.1192667402	-0.114412
C	-0.467713968	-2.0566292769	 0.0845240162	-0.07244
C	 0.9530474296	-2.0834106046	-0.4933535305	-0.163258
N	 1.2310866187	-0.7590845834	 0.1576921315	-0.199226
C	-1.0998848991	-0.8549879826	-0.6729521339	-0.044865
C	-2.5292800148	-0.5619078701	-0.2574127299	-0.108408
O	-3.3464656288	-1.6177819164	-0.7469642139	-0.424329
H	 0.8118370337	 1.8085441145	 0.8136225898	 0.134977
H	 0.2607875289	 1.9198386476	-0.8631424986	 0.124383
H	-0.9216519777	 1.9466199782	 0.4564558491	 0.116809
H	 0.2232465186	-0.9765917913	 2.195742964	 0.092166
H	-1.0584131305	-2.9478824427	 0.2826740204	 0.083379
H	 1.6030781954	-2.8321590616	-0.0330694438	 0.105607
H	 1.0709509245	-2.1081522107	-1.5836926877	 0.094776
H	-1.0393221167	-0.8972202649	-1.767815082	 0.069135
H	-2.587354966	-0.4871235568	 0.8409562829	 0.086429
H	-2.849220421	 0.4081294454	-0.6704085799	 0.08645
H	-4.2581779117	-1.4281191136	-0.5072301837	 0.286494
104.4135	154.2472	185.456	214.5788	255.9553	275.9755	290.697	430.8139	469.1482	520.5508	624.0863	737.2274	768.3073	797.7675	829.6581	878.0913	939.9868	943.5055	976.6245	993.8215	1016.2659	1037.1672	1059.9534	1073.8548	1090.1057	1121.4885	1150.3131	1165.5493	1179.6801	1208.4789	1228.6157	1256.4143	1260.126	1289.8785	1305.5166	1372.3016	1395.2304	1431.3297	1461.4056	1485.4139	1491.8489	1510.2569	1520.0122	2961.5503	2989.3939	3025.2455	3029.681	3034.8791	3089.0327	3097.9018	3116.6795	3146.14	3195.0829	3829.6914
CC12C3C(CN13)C2CO	C[C@]12[C@H]3[C@H](CN13)[C@H]2CO	
InChI=1S/C7H11NO/c1-7-5(3-9)4-2-8(7)6(4)7/h4-6,9H,2-3H2,1H3	InChI=1S/C7H11NO/c1-7-5(3-9)4-2-8(7)6(4)7/h4-6,9H,2-3H2,1H3/t4-,5-,6-,7+,8?/m1/s1
