22
gdb 59542	2.64883	1.14024	1.06998	1.4117	81.59	-0.2222	0.0627	0.2848	1285.4137	0.193447	-404.297938	-404.288345	-404.287401	-404.332292	36.438	
C	 0.4923939756	 1.2811105148	 0.5864131176	-0.404299
C	 0.4441479795	-0.2339852918	 0.3844370205	 0.104776
O	 1.1073134351	-0.9249009211	 1.4427800335	-0.432189
C	-0.988841674	-0.7464472597	 0.2382125856	 0.019905
C	-1.8926403595	-0.4194547867	-0.9816799114	-0.212583
N	-2.2900404655	-1.8653159263	-1.1524851004	-0.157552
C	-1.0658585161	-2.6274679232	-1.4787555171	 0.037477
C	-0.0025334406	-2.2014086602	-2.4661089866	-0.427955
C	-1.2575469215	-2.2180994383	-0.0700725277	-0.082458
H	 1.5251725535	 1.6151002964	 0.7170855743	 0.125158
H	 0.060949379	 1.8114917839	-0.2691494168	 0.119693
H	-0.0774181235	 1.5714049879	 1.4785680038	 0.105552
H	 1.0267210908	-0.4926689026	-0.5048693163	 0.089105
H	 0.6578233574	-0.6978937018	 2.2648645502	 0.274678
H	-1.5290340812	-0.4748994986	 1.1548311016	 0.069887
H	-2.7738141624	 0.1758601124	-0.7371225442	 0.110437
H	-1.4097048003	 0.0245315345	-1.8581373432	 0.100651
H	-1.3486263102	-3.6697789374	-1.6279041755	 0.095396
H	 0.2784722845	-1.1506639985	-2.3945897989	 0.123098
H	 0.9039342464	-2.7968340287	-2.315068471	 0.129177
H	-0.3533049825	-2.3812007061	-3.4884564839	 0.123475
H	-1.4810988244	-2.9575007288	 0.6935675158	 0.088571
60.831	110.2019	145.3856	203.9507	242.7766	287.7201	294.7735	308.0115	343.7217	412.6255	462.5076	483.7635	601.7824	694.263	744.0821	769.4053	838.2193	898.1963	904.0665	952.1281	978.0867	1014.5484	1022.6643	1053.5407	1076.8781	1080.1512	1105.1502	1119.3952	1139.0174	1183.3084	1204.157	1254.3224	1266.7881	1269.55	1295.975	1330.7227	1372.3032	1401.4714	1404.5446	1411.8298	1421.579	1449.0992	1490.0752	1492.8241	1495.6002	1501.4442	1515.9701	3012.3986	3022.6199	3039.2862	3051.907	3069.5212	3094.1414	3096.2636	3102.7911	3111.2283	3117.8972	3142.4379	3149.7278	3793.9041
CC(O)C1CN2C(C)C12	C[C@@H](O)[C@H]1CN2[C@@H](C)[C@@H]12	
InChI=1S/C7H13NO/c1-4-7-6(5(2)9)3-8(4)7/h4-7,9H,3H2,1-2H3	InChI=1S/C7H13NO/c1-4-7-6(5(2)9)3-8(4)7/h4-7,9H,3H2,1-2H3/t4-,5+,6+,7-,8?/m0/s1
