17
gdb 19178	3.52902	1.88571	1.44578	2.4807	65.34	-0.2166	0.066	0.2826	883.2357	0.141452	-400.905574	-400.897999	-400.897055	-400.936911	29.535	
C	-0.0483719725	 1.4658813612	-0.1107415312	-0.335073
N	-0.0656307663	 0.0081296734	 0.0094987153	-0.147804
C	-1.152067628	-0.7094487195	 0.7944382377	-0.1365
C	-0.1945560031	-1.9475870544	 0.7065150893	 0.198337
O	 0.0365053861	-2.5170990188	-0.5306629883	-0.445295
C	 0.6682781978	-0.7076880149	 1.1340166499	-0.106574
C	-0.4499264068	-0.3956949736	 2.154532054	 0.147219
O	-0.4616359379	 0.8891769157	 2.7162227357	-0.428815
H	-0.2283737275	 2.0173804515	 0.8149218319	 0.130956
H	 0.9270465632	 1.7594454932	-0.514169399	 0.1181
H	-0.8038808195	 1.7508233256	-0.8517449042	 0.114463
H	-2.2063895487	-0.6400914698	 0.5189305951	 0.079686
H	-0.329744463	-2.7373414832	 1.446023555	 0.086891
H	 0.1441704283	-1.744907659	-1.113349641	 0.27945
H	 1.7496383625	-0.6347060619	 1.2590999858	 0.085813
H	-0.5948522836	-1.1624100568	 2.9316325373	 0.070984
H	-1.2892060211	 0.9986028215	 3.1954452166	 0.288164
147.9597	231.393	240.3977	258.5308	281.8508	300.1095	404.1527	461.0792	530.1019	654.7387	691.3792	708.763	781.6882	804.7221	837.0349	901.4422	921.991	1052.4928	1073.4878	1099.533	1121.6566	1131.2014	1143.9271	1181.6994	1199.1086	1201.7259	1216.7885	1224.6285	1285.5827	1315.5372	1324.5478	1434.8711	1446.5233	1474.5256	1489.622	1517.1877	2974.2056	3027.244	3087.9298	3096.7531	3109.1154	3115.4778	3121.3948	3650.5893	3815.4157
CN1C2C(O)C1C2O	CN1[C@H]2[C@@H](O)[C@@H]1[C@H]2O	
InChI=1S/C5H9NO2/c1-6-2-4(7)3(6)5(2)8/h2-5,7-8H,1H3	InChI=1S/C5H9NO2/c1-6-2-4(7)3(6)5(2)8/h2-5,7-8H,1H3/t2-,3+,4+,5-
