13
gdb 131241	5.56415	1.32396	1.06948	0.8174	66.04	-0.2007	0.0061	0.2068	1012.9565	0.092863	-448.953136	-448.946566	-448.945622	-448.983838	25.728	
O	 0.0898367027	 1.3206313237	-0.0202376085	-0.428505
C	 0.0661067213	-0.0236294871	-0.0665536745	 0.35481
C	 0.0206384956	-0.7871603845	-1.2130450275	-0.271894
N	 0.0134225574	-2.0975671961	-0.7227231236	-0.019851
C	-0.0197940521	-3.4362113431	-1.0205508034	 0.014095
N	-0.0019074503	-4.1689145956	 0.0650468868	-0.212249
N	 0.0438614626	-3.2740296381	 1.1004198823	-0.360456
C	 0.0537984353	-1.9945997088	 0.6480195001	 0.522505
N	 0.0872083932	-0.7583567525	 1.0989396569	-0.488764
H	 0.1214908362	 1.5597009367	 0.9141580247	 0.30464
H	-0.0038015569	-0.5392192758	-2.2568805076	 0.136737
H	-0.0551097811	-3.8400698808	-2.0179291924	 0.159556
H	 0.0638846061	-3.6032887481	 2.0482864765	 0.289376
163.3056	286.3281	337.4066	345.8091	377.0981	388.0202	551.4548	574.7785	586.3079	650.3404	705.9716	751.797	804.7327	809.024	871.0842	984.4292	1010.1812	1080.8028	1164.0789	1205.5847	1245.7513	1270.2087	1354.5888	1392.38	1414.6743	1438.9195	1567.0841	1638.1408	1670.8722	3292.1192	3314.9047	3709.8362	3804.2539
OC1=CN2C=NNC2=N1	Oc1cn2cn[nH]c2n1	
InChI=1S/C4H4N4O/c9-3-1-8-2-5-7-4(8)6-3/h1-2,9H,(H,6,7)	InChI=1S/C4H4N4O/c9-3-1-8-2-5-7-4(8)6-3/h1-2,9H,(H,6,7)
