16
gdb 43376	3.49513	1.17602	0.91787	6.9691	75.17	-0.2519	-0.0601	0.1918	1213.9122	0.124965	-400.799133	-400.791006	-400.790061	-400.832802	29.426	
O	-0.1334316337	 0.0256896262	 0.3388966316	-0.317317
C	-0.1266632915	 1.2138019446	 0.1243239726	 0.378985
C	-1.2879926452	 2.0947436707	-0.1338839369	-0.163675
C	-0.9022630251	 3.3755659685	-0.143775381	-0.050722
C	 0.5769988677	 3.5521294712	 0.0972763998	-0.305019
C	 1.13192181	 2.1115542927	 0.1018513621	-0.107553
C	 2.1073883532	 1.802149801	 1.2537360981	-0.355955
C	 2.8234252517	 0.5368089035	 1.0971328972	 0.281038
N	 3.440117216	-0.4319578901	 0.9731925682	-0.306285
H	-2.293018742	 1.710849291	-0.2497060284	 0.125256
H	-1.5594905962	 4.2266287215	-0.287115575	 0.123936
H	 1.0423233952	 4.1859331616	-0.6655243548	 0.128895
H	 0.74530263	 4.0590353768	 1.0573420236	 0.127388
H	 1.6407703243	 1.9129821651	-0.8481998654	 0.131208
H	 2.8574171089	 2.5984735738	 1.3223146158	 0.153315
H	 1.5702203768	 1.7888731915	 2.2091181424	 0.156504
45.4867	86.5064	148.3835	229.6126	284.6156	364.1542	384.492	467.616	493.5642	635.5278	677.3443	757.107	763.0167	803.1355	896.7029	934.7824	969.1215	984.6132	1003.4676	1048.562	1096.2615	1115.6138	1173.4998	1183.0299	1200.1546	1281.5441	1292.0822	1344.1656	1355.1899	1369.463	1464.6635	1476.1127	1650.9864	1818.9948	2367.3588	3021.2299	3039.8918	3049.595	3068.0629	3081.19	3193.4871	3233.0304
O=C1C=CCC1CC#N	O=C1C=CC[C@H]1CC#N	
InChI=1S/C7H7NO/c8-5-4-6-2-1-3-7(6)9/h1,3,6H,2,4H2	InChI=1S/C7H7NO/c8-5-4-6-2-1-3-7(6)9/h1,3,6H,2,4H2/t6-/m0/s1
