13
gdb 28395	3.22513	1.47048	1.01091	4.7349	68.81	-0.2052	-0.0532	0.152	1070.6922	0.089733	-489.937097	-489.92953	-489.928586	-489.969064	28.82	
N	 0.0879136554	 1.3526734756	 0.1909802669	-0.563251
C	-0.0714216749	-0.0087134242	 0.0656248384	 0.41079
C	-1.2321204774	-0.7114857924	 0.0238201054	-0.173414
N	-1.2216343837	-2.083732692	-0.0128672555	-0.317534
C	-0.0960923487	-2.7063415072	-0.0188096073	 0.263203
O	-0.0331436752	-4.0511432994	-0.0529334262	-0.392019
C	 1.2173817092	-2.0444294341	 0.0027964902	 0.373017
O	 2.3026135181	-2.5474436263	-0.0197232682	-0.315809
O	 1.1168837421	-0.65357103	 0.049581513	-0.23463
H	 0.9611736008	 1.704168738	-0.1758138082	 0.269732
H	-0.7117289436	 1.9044774403	-0.0802111836	 0.267215
H	-2.1941322397	-0.21665724	 0.0280974996	 0.109616
H	-0.9488166024	-4.3635414984	-0.0652552245	 0.303086
102.6775	173.6138	272.4623	322.0711	338.3961	394.3193	432.9184	493.5162	530.3563	541.9583	567.0343	596.4028	683.2072	717.1951	785.2135	797.5629	802.6222	1025.348	1047.1978	1105.039	1170.7892	1281.629	1322.2626	1422.9145	1444.6822	1607.3114	1635.0344	1683.1546	1857.9781	3212.3093	3570.4756	3680.7605	3769.6851
NC1=CN=C(O)C(=O)O1	Nc1cnc(O)c(=O)o1	
InChI=1S/C4H4N2O3/c5-2-1-6-3(7)4(8)9-2/h1H,5H2,(H,6,7)	InChI=1S/C4H4N2O3/c5-2-1-6-3(7)4(8)9-2/h1H,5H2,(H,6,7)
