18
gdb 18977	4.28523	2.16124	1.79277	1.2545	71.3	-0.2431	0.0978	0.3409	783.0467	0.157336	-347.757669	-347.751774	-347.750829	-347.78738	24.519	
C	-0.0696864934	 1.6134100719	 0.0100282404	-0.232853
C	 1.4407306051	 1.2639626458	-0.0053933681	-0.059181
C	 1.1362127945	 0.1674985377	 1.0610873568	 0.000895
C	 2.0954327389	-1.0107807958	 1.1562070254	-0.113875
O	 2.0962688452	-1.7888043441	-0.027663425	-0.246079
C	 2.0742934883	-0.9981055894	-1.2029004843	-0.113875
C	 1.1170359465	 0.1789854357	-1.0779556331	 0.000895
C	-0.0115438115	 0.0625527849	 0.001176234	-0.054205
H	-0.4538441198	 2.0821929315	 0.9207682552	 0.087944
H	-0.4700679692	 2.0919118848	-0.8885886559	 0.087944
H	 2.28531976	 1.9565206223	-0.0092474263	 0.064647
H	 0.8470530059	 0.5436603911	 2.04793296	 0.062517
H	 3.1129919131	-0.6486301575	 1.3904157571	 0.083547
H	 1.7970448919	-1.6917326111	 1.9605158218	 0.106622
H	 3.0875251258	-0.6333486256	-1.4513924283	 0.083546
H	 1.7614909065	-1.670408182	-2.0090061607	 0.106622
H	 0.8102635363	 0.5656929281	-2.0553617864	 0.062517
H	-0.8503026041	-0.6347496081	 0.0049517376	 0.072372
195.92	253.0123	350.4389	427.4883	477.8378	605.0667	755.2493	772.0193	786.407	835.9546	854.6228	891.1335	904.9726	985.8868	986.2184	1005.6542	1023.1132	1050.4226	1065.5825	1069.4206	1105.7595	1114.7542	1144.4974	1174.9791	1178.084	1206.3919	1234.775	1246.3479	1260.1574	1262.5376	1310.253	1339.6558	1380.9092	1396.1016	1430.2794	1499.0315	1506.9866	1513.6072	2938.3948	2945.2707	3041.6984	3051.0323	3051.4746	3064.8853	3067.8817	3087.655	3105.5382	3107.1029
C1C2C3COCC2C13	C1[C@H]2[C@@H]3COC[C@H]2[C@H]13	
InChI=1S/C7H10O/c1-4-6-2-8-3-7(4)5(1)6/h4-7H,1-3H2	InChI=1S/C7H10O/c1-4-6-2-8-3-7(4)5(1)6/h4-7H,1-3H2/t4-,5+,6-,7+
