17
gdb 96679	4.795	0.70895	0.6226	16.7373	72.04	-0.1667	-0.0277	0.1391	1721.3005	0.13283	-492.271777	-492.261109	-492.260165	-492.309476	35.944	
C	 0.1620833489	 1.3981300247	 0.0053911502	-0.354436
N	-0.0477193967	-0.0383052853	 0.0018931907	-0.334423
H	 0.7409196383	-0.667764353	-0.0104080892	 0.30188
C	-1.2348180284	-0.6515125178	 0.0106975725	 0.611871
N	-2.3708573985	 0.0524089242	 0.025653551	-0.549349
O	-1.2089341801	-1.929757854	 0.0037414152	-0.176898
C	-2.4691505887	-2.7533068189	 0.0125598217	-0.280172
C	-2.1190569378	-4.3042339294	 0.0004790495	 0.36451
O	-0.9222449132	-4.5873991764	-0.0137319743	-0.455261
O	-3.1860565683	-4.9310271474	 0.00857692	-0.464948
H	 1.2351102149	 1.5881774407	-0.0032870659	 0.174949
H	-0.2711439707	 1.8707632638	-0.8837056565	 0.156109
H	-0.25515664	 1.8637997606	 0.9057320847	 0.156042
H	-2.3773271854	 1.0569956461	 0.0318734751	 0.290935
H	-3.2463994708	-0.4469508843	 0.032899518	 0.302327
H	-3.0111544497	-2.4899535788	 0.9246885469	 0.128431
H	-3.0302238637	-2.4802234647	-0.8850592295	 0.128434
23.6835	53.0637	95.0799	112.9479	124.2442	163.5091	226.6443	277.9901	283.1084	357.9239	458.3174	525.0397	564.6866	578.5167	597.0446	674.7087	752.3644	797.8404	845.1679	941.38	965.5773	1075.2877	1157.3221	1158.4897	1201.0805	1202.4028	1268.5168	1323.1745	1413.4631	1443.6828	1456.2568	1491.5525	1516.3344	1565.908	1666.2829	1684.0353	1848.2469	3026.0924	3049.3489	3083.7971	3134.1933	3155.9832	3598.2434	3634.4257	3732.4534
C[NH+]=C(N)OCC([O-])=O	CNC(=[NH2])OCC(=O)[O]	
InChI=1S/C4H8N2O3/c1-6-4(5)9-2-3(7)8/h2H2,1H3,(H2,5,6)(H,7,8)	InChI=1S/C4H8N2O3/c1-6-4(5)9-2-3(7)8/h6H,2,5H2,1H3
