21
gdb 90149	3.31002	1.4076	1.26534	1.5485	81.43	-0.2304	0.0794	0.3099	1093.5977	0.184315	-387.058616	-387.050764	-387.04982	-387.09046	31.788	
C	-0.1244188008	 1.5732752697	 0.0380576175	-0.402908
C	 0.0666421739	 0.0632594882	-0.0036485543	-0.025167
C	 1.1601581656	-0.545915163	-0.9507273994	-0.315025
C	 1.7844699433	-1.2690381535	 0.257326202	 0.232242
C	 2.2055925316	-0.3040912269	 1.3258390956	-0.370713
C	 0.7454569995	-0.6391606412	 1.1965005535	 0.214262
C	 0.2179636999	-1.7762998762	 2.0377545473	-0.159652
O	 1.1844498897	-2.8307084884	 1.8907012803	-0.261273
C	 1.7888785961	-2.741099796	 0.5907858327	-0.157059
H	 0.8178179786	 2.0939176234	 0.2389775031	 0.115218
H	-0.5096546318	 1.9453882232	-0.9177853251	 0.11322
H	-0.8354515928	 1.8586954367	 0.8211068706	 0.11589
H	-0.8967238036	-0.4191559727	-0.200273022	 0.074631
H	 0.7483716339	-1.226993005	-1.6993865418	 0.103056
H	 1.8165874332	 0.1688328435	-1.4580187788	 0.097283
H	 2.7064372058	-0.7384137386	 2.1845756824	 0.128182
H	 2.5654519677	 0.6809711193	 1.0446308083	 0.109358
H	 0.1397921588	-1.5846047426	 3.1129548313	 0.107112
H	-0.773242429	-2.0876298261	 1.6684300334	 0.086388
H	 1.2071253031	-3.2980702694	-0.1623336939	 0.086883
H	 2.7739295472	-3.2107590843	 0.6804570771	 0.108073
140.9705	208.0044	220.6476	238.6176	289.6428	333.2498	415.5062	434.8229	553.6697	628.9306	641.7105	706.6681	820.9842	828.0254	853.4417	881.2697	909.1673	934.8836	956.4377	980.8404	1012.4026	1034.264	1040.848	1079.8291	1082.4225	1102.9199	1168.8495	1177.721	1221.053	1229.3311	1235.7491	1255.4582	1280.6248	1306.0102	1349.1498	1363.0969	1383.8496	1391.5307	1413.6946	1471.552	1487.9711	1495.861	1496.6357	1511.2257	1519.6852	2964.9679	2970.7505	3027.7054	3042.8737	3044.4945	3065.0299	3067.2043	3093.7436	3097.9364	3104.561	3123.5565	3212.8572
CC1CC23CC12COC3	C[C@H]1C[C@@]23C[C@@]12COC3	
InChI=1S/C8H12O/c1-6-2-7-3-8(6,7)5-9-4-7/h6H,2-5H2,1H3	InChI=1S/C8H12O/c1-6-2-7-3-8(6,7)5-9-4-7/h6H,2-5H2,1H3/t6-,7-,8+/m0/s1
