16
gdb 55590	2.54694	1.20305	0.82127	4.8061	71.09	-0.2417	-0.0341	0.2076	1327.1668	0.123294	-471.269752	-471.260257	-471.259313	-471.305506	32.657	
C	-0.1295914511	 1.4959538402	-0.0948903373	-0.499309
C	 0.2274200018	 0.0163893154	-0.1124832774	 0.41282
O	 1.3551437615	-0.3962876221	-0.1955524549	-0.296221
N	-0.9126203194	-0.7911829238	-0.0215359044	-0.392224
C	-0.9699014033	-2.1731781904	-0.0112984043	 0.476801
N	 0.0369762538	-2.9406741754	-0.0855517529	-0.497446
N	-2.3129155888	-2.6583594974	 0.0936785872	-0.373629
C	-3.49644501	-1.9775786663	 0.1810601141	 0.182965
O	-3.6372857069	-0.7703376572	 0.1856308816	-0.322809
H	 0.7906365608	 2.0753547874	-0.1553871589	 0.151403
H	-0.7769737044	 1.7499494555	-0.9409072746	 0.145117
H	-0.6671800202	 1.7576516249	 0.8225360106	 0.14456
H	-1.816912758	-0.3322844753	 0.0449473433	 0.284824
H	-0.2329038271	-3.9223668375	-0.06070011	 0.212095
H	-2.3812831028	-3.6651093327	 0.1040848432	 0.260336
H	-4.3536936659	-2.6704529451	 0.2504336846	 0.110715
43.9103	79.4364	91.9575	113.0777	145.7584	261.9611	277.2061	355.4982	417.2856	487.1355	579.7423	588.9512	637.063	715.9313	738.2229	814.0617	819.3508	890.6311	983.296	1015.035	1028.5719	1051.316	1108.2347	1187.3533	1246.9256	1295.0265	1385.6992	1440.286	1470.1203	1481.5579	1489.5758	1596.4149	1746.9612	1795.324	1845.0559	2981.145	3042.98	3105.7516	3167.2022	3477.4267	3499.9194	3621.4926
CC(=O)NC(=N)NC=O	CC(=O)NC(=N)NC=O	
InChI=1S/C4H7N3O2/c1-3(9)7-4(5)6-2-8/h2H,1H3,(H3,5,6,7,8,9)	InChI=1S/C4H7N3O2/c1-3(9)7-4(5)6-2-8/h2H,1H3,(H3,5,6,7,8,9)
