13
gdb 129057	2.6247	1.83815	1.15588	2.6263	72.39	-0.2558	-0.0975	0.1583	977.9219	0.091212	-448.918054	-448.910901	-448.909957	-448.950211	26.25	
N	 0.0188364606	 1.1618508519	-0.6570862209	-0.422748
C	-0.0030456364	 0.0049819989	-0.1264255135	 0.161699
C	 1.1924592053	-0.6837239238	 0.4181559463	-0.053292
N	 1.5268326911	-1.9081107093	 0.2732003662	-0.200269
C	 0.7297235658	-2.8663938668	-0.3168532566	 0.089675
N	-0.5523778918	-3.0004922554	-0.3510701565	-0.186548
N	-1.3901665694	-2.0436118514	 0.1344041996	-0.276393
C	-1.3554365832	-0.6490663364	 0.0705525825	 0.402789
O	-2.3676431083	-0.0124267276	 0.2290448725	-0.313938
H	 0.9735734025	 1.535072615	-0.6727047399	 0.237949
H	 1.8892740112	-0.0381725167	 0.9598800789	 0.140569
H	 1.2770899263	-3.7107384682	-0.7241808918	 0.142662
H	-2.3450296139	-2.3790342902	 0.1810976732	 0.277845
63.1575	128.2	285.429	313.0482	362.3304	409.3329	438.6887	543.4421	630.41	678.6648	690.6428	787.3233	813.9242	852.31	902.2535	943.4624	975.4486	1062.8394	1074.037	1152.6693	1237.0672	1356.809	1400.1351	1417.2312	1464.1217	1604.1562	1677.4885	1696.3322	1802.6449	3094.2522	3187.0017	3419.4847	3572.9102
N=C1C=NC=NNC1=O	[NH][C]1C=NC=NNC1=O	
InChI=1S/C4H4N4O/c5-3-1-6-2-7-8-4(3)9/h1-2H,(H2,5,8,9)	InChI=1S/C4H4N4O/c5-3-1-6-2-7-8-4(3)9/h1-2H,(H2,5,8,9)
