14
gdb 36757	6.59287	0.49607	0.46404	4.4052	86.48	-0.258	-0.041	0.217	2171.555	0.097725	-399.480525	-399.47097	-399.470026	-399.516334	32.323	
C	 0.0239085105	-3.7557133335	-0.018509933	-0.545552
C	 0.0371857843	-2.5487266488	-0.012162305	 0.291954
C	 0.0498415025	-1.1885882882	-0.0049873369	-0.152726
C	 0.0681177356	 0.0200754553	 0.0013241939	 0.317618
C	 0.0423545376	 1.4708573491	 0.0093752	-0.240613
O	 1.3721971354	 1.9755377898	-0.0006042666	-0.234686
C	 1.3922849493	 3.3833542754	 0.0067348482	-0.176734
C	 2.7829965197	 3.842228514	-0.0040183023	 0.272147
N	 3.8667161148	 4.2394214598	-0.0121865541	-0.286676
H	 0.0160051708	-4.8176917555	-0.0241314601	 0.199293
H	-0.5128198747	 1.8405988592	-0.8697082393	 0.134063
H	-0.4958988718	 1.8310663841	 0.9028223077	 0.134065
H	 0.8766246622	 3.8016291744	-0.8734433341	 0.143924
H	 0.8934780838	 3.7921395049	 0.9009717216	 0.143923
53.6508	67.5293	79.5581	148.3793	154.8733	250.2717	322.165	346.0611	385.7694	427.4172	542.1932	543.8829	589.6017	595.9456	622.0138	761.7513	959.5048	1009.9167	1019.3163	1048.5032	1133.1087	1191.2153	1244.8832	1256.2075	1373.1965	1442.5774	1486.7915	1504.134	2187.3528	2371.5083	2376.3784	2953.7279	2971.2948	2975.3889	2997.0348	3503.3564
C#CC#CCOCC#N	C#CC#CCOCC#N	
InChI=1S/C7H5NO/c1-2-3-4-6-9-7-5-8/h1H,6-7H2	InChI=1S/C7H5NO/c1-2-3-4-6-9-7-5-8/h1H,6-7H2
