16
gdb 31063	2.29724	1.43616	0.89943	1.4359	68.81	-0.1638	0.0564	0.2202	1239.3251	0.124628	-471.226893	-471.217773	-471.216828	-471.260782	33.243	
C	-0.1128105241	 1.4558020048	-0.0864644046	-0.316116
N	-0.0460703337	 0.0665530117	 0.3540377852	-0.39496
C	-1.1950115527	-0.7082186136	 0.1922349926	 0.255608
C	-1.2793274324	-2.0568717393	-0.0078185826	 0.183043
O	-0.3353229697	-3.0171530743	-0.2236745011	-0.436269
N	-2.6569605413	-2.3524918835	-0.0073135355	-0.359886
C	-3.2835850759	-1.1700094193	 0.1655793047	 0.445003
O	-4.6280969095	-1.1130279857	 0.1814146188	-0.428516
N	-2.4651073017	-0.1599190737	 0.3015768327	-0.424577
H	 0.8320151922	 1.9481720403	 0.1588415884	 0.111798
H	-0.3028654437	 1.5729080194	-1.1652202917	 0.103119
H	-0.9173809015	 1.9617011292	 0.4500362714	 0.149142
H	 0.7615740339	-0.4162781517	-0.0177646747	 0.230668
H	-0.0341479364	-3.37061402	 0.623154813	 0.300702
H	-3.0807738223	-3.2397725578	-0.2160969306	 0.270685
H	-4.8521638013	-0.1829302564	 0.3115521641	 0.310557
64.6808	148.5674	177.3102	210.2855	262.2893	279.1537	299.0226	332.7917	379.8434	399.4658	439.0637	567.3047	612.7476	653.4473	680.8959	712.456	737.2093	856.7901	1051.2132	1066.0145	1128.8774	1155.6741	1172.2794	1204.3574	1224.0922	1280.8357	1330.6852	1434.6343	1469.4792	1477.0231	1495.3939	1521.7138	1574.7735	1621.1119	1704.3468	2976.9939	3085.7496	3136.8762	3567.8647	3680.2727	3727.7078	3804.0253
CNC1=C(O)NC(O)=N1	CNc1c(O)[nH]c(O)n1	
InChI=1S/C4H7N3O2/c1-5-2-3(8)7-4(9)6-2/h5,8H,1H3,(H2,6,7,9)	InChI=1S/C4H7N3O2/c1-5-2-3(8)7-4(9)6-2/h5,8H,1H3,(H2,6,7,9)
