19
gdb 39327	2.88447	1.71808	1.29665	2.6009	73.35	-0.2424	0.0806	0.323	1002.6084	0.162139	-423.003257	-422.996183	-422.995239	-423.034798	28.362	
C	-0.0217373019	 1.4977105087	-0.2160404028	-0.091421
O	 1.369741429	 1.5961256365	 0.1574854817	-0.293237
C	 1.3994526773	 0.2195285032	 0.6022906079	 0.120916
C	 1.5482513213	 0.0799962373	 2.1186648135	-0.227149
C	 0.8601421007	-1.1915539358	 2.6389268542	-0.256596
C	-0.6046133273	-1.2257035737	 2.2473396539	 0.061545
O	-1.2802770083	 0.03809515	 2.2193584708	-0.253748
C	-1.0444566317	-0.6326089268	 0.973099029	 0.020936
C	-0.0264034227	-0.0264619977	 0.0435567523	-0.077727
H	-0.6687156075	 2.0697912995	 0.4597138818	 0.114332
H	-0.1939656123	 1.8206882671	-1.2487149342	 0.10121
H	 2.1882757815	-0.3395194542	 0.0830768106	 0.073981
H	 2.6061076944	 0.0833811817	 2.3985447446	 0.097851
H	 1.0813181526	 0.9496145124	 2.5870810427	 0.128343
H	 1.3448285258	-2.0973958588	 2.249315716	 0.104794
H	 0.9475535268	-1.2403077623	 3.730372815	 0.112223
H	-1.1964703839	-2.0371093369	 2.6719328519	 0.090352
H	-1.9536404046	-1.0139760798	 0.5068623203	 0.091227
H	-0.0109981192	-0.6045634205	-0.8844289093	 0.082169
96.3382	177.908	255.1326	335.4546	391.4565	421.6319	466.961	608.7618	663.8399	717.906	782.1272	801.2778	851.7059	884.0798	925.67	952.2062	978.2958	986.1463	1025.2454	1049.8785	1067.0879	1079.6173	1089.3535	1138.6299	1161.6983	1169.0643	1196.4036	1225.8463	1265.0236	1280.9199	1293.9976	1341.4488	1346.0143	1368.6846	1376.9418	1393.8031	1397.9959	1463.1971	1486.8493	1491.2047	1522.2964	3014.0527	3020.1828	3024.2052	3056.0907	3062.2436	3065.0697	3077.6526	3098.013	3111.035	3113.9316
C1OC2CCC3OC3C12	C1O[C@H]2CC[C@H]3O[C@H]3[C@@H]12	
InChI=1S/C7H10O2/c1-2-6-7(9-6)4-3-8-5(1)4/h4-7H,1-3H2	InChI=1S/C7H10O2/c1-2-6-7(9-6)4-3-8-5(1)4/h4-7H,1-3H2/t4-,5-,6+,7-/m0/s1
