18
gdb 106996	3.12507	1.32598	1.05183	3.0544	73.83	-0.2293	0.009	0.2383	1176.5326	0.145971	-439.058708	-439.049544	-439.0486	-439.09282	32.806	
C	 0.2611337464	 1.3808454549	-0.145266215	-0.264613
O	-0.053986411	-0.003330839	-0.0101685283	-0.277622
C	 0.4553765281	-0.5564426581	 1.1288179218	 0.30212
C	 1.8987548506	-1.0745454978	 1.2456900062	-0.358055
C	 0.727539864	-2.0082746353	 1.42251671	-0.110202
N	 0.1294740338	-1.8394607318	 2.7519682708	-0.092746
C	 0.5634107817	-2.4514033164	 3.9912065949	-0.347244
C	-0.1186829683	-0.4764496729	 2.5526039732	 0.339614
O	-0.5653304616	 0.3699562398	 3.2779857469	-0.367599
H	 1.3470028759	 1.5343972489	-0.207613225	 0.113491
H	-0.2063474104	 1.7178926147	-1.0721316286	 0.131589
H	-0.1348653189	 1.9592162031	 0.6972202282	 0.144614
H	 2.4102955447	-1.1309157914	 0.288236511	 0.128658
H	 2.5297487097	-0.819013562	 2.0919992625	 0.124364
H	 0.5093930924	-2.8725484535	 0.8095326075	 0.125333
H	 1.6579371017	-2.4556990631	 4.0908015104	 0.119637
H	 0.1372439544	-1.873144669	 4.8146649036	 0.157566
H	 0.2030217368	-3.4819828813	 4.0637040001	 0.131093
75.761	109.882	160.2128	166.4976	199.7725	218.1214	251.7235	319.2558	404.3881	480.7398	522.3245	638.6292	704.3032	782.2816	824.6198	906.4271	929.5028	946.8171	984.3123	1007.6212	1041.2017	1073.2184	1084.0168	1149.3332	1182.0399	1199.0355	1215.0286	1248.8574	1256.4242	1355.3409	1390.2748	1444.4463	1467.7683	1485.1787	1487.1466	1500.1239	1507.8983	1512.5577	1878.7749	3005.4088	3007.2916	3076.7825	3079.8135	3113.4565	3128.8045	3135.4317	3203.5002	3211.4677
COC12CC1N(C)C2=O	CO[C@]12C[C@H]1N(C)C2=O	
InChI=1S/C6H9NO2/c1-7-4-3-6(4,9-2)5(7)8/h4H,3H2,1-2H3	InChI=1S/C6H9NO2/c1-7-4-3-6(4,9-2)5(7)8/h4H,3H2,1-2H3/t4-,6-/m1/s1
