19
gdb 56991	2.90091	1.20335	0.95828	1.6271	80.69	-0.2473	0.0332	0.2805	1253.9408	0.158089	-385.815677	-385.806788	-385.805843	-385.849407	33.993	
O	 0.8377985001	-0.034746114	-1.1266740689	-0.418493
C	-0.0817179795	-0.0169509955	-0.0357155834	-0.068963
C	-1.3046005174	-0.7665824319	-0.3398867878	 0.300132
C	-2.2750386092	-1.433034687	-0.5857210917	-0.452568
C	 0.5724853174	-0.5348350731	 1.2521797446	 0.01096
C	 1.8214633741	 0.2295296557	 1.8063814968	-0.266111
C	 1.1039051527	 0.3782817462	 3.1553624255	-0.036696
C	-0.1733654389	 1.1422097113	 2.972000614	-0.275596
C	-0.1421838898	-0.3148904435	 2.5924625431	-0.061322
H	 0.9793926846	-0.9568093964	-1.3689091502	 0.282904
H	-0.3354965502	 1.0416302792	 0.09052235	 0.113952
H	-3.1449088397	-1.9995300455	-0.8103608567	 0.198345
H	 0.8068772403	-1.5952673471	 1.1112298385	 0.073122
H	 2.7111835547	-0.4015351134	 1.8429658137	 0.102918
H	 2.0794606689	 1.1636253826	 1.2973019951	 0.104726
H	 1.5643609238	 0.2536426732	 4.1275101964	 0.085729
H	-0.7252879653	 1.3577420526	 3.8812858086	 0.112153
H	-0.2436517286	 1.9260955136	 2.2212742198	 0.106863
H	-0.799183308	-1.0330743369	 3.0669791629	 0.087947
63.6365	117.2535	146.7834	203.7042	244.559	285.9167	362.765	417.4239	447.7836	517.4759	590.4531	628.4942	670.05	701.3184	779.5729	805.4569	836.462	925.9741	934.9193	965.2131	969.1117	1011.4236	1032.3395	1057.3542	1066.735	1074.6762	1086.7487	1124.8959	1151.2266	1196.5043	1236.1245	1255.0663	1262.0287	1293.2648	1302.6384	1364.9766	1382.0091	1417.0517	1483.3155	1499.6663	2228.7996	3041.1846	3053.4192	3057.5779	3108.3785	3114.402	3181.6525	3187.5165	3202.0228	3503.1183	3802.8127
OC(C#C)C1CC2CC12	O[C@@H](C#C)[C@H]1C[C@H]2C[C@@H]12	
InChI=1S/C8H10O/c1-2-8(9)7-4-5-3-6(5)7/h1,5-9H,3-4H2	InChI=1S/C8H10O/c1-2-8(9)7-4-5-3-6(5)7/h1,5-9H,3-4H2/t5-,6-,7+,8+/m1/s1
