18
gdb 30062	3.04306	1.45297	1.07172	2.2041	80.09	-0.2085	0.0357	0.2443	1138.0519	0.149519	-398.1369	-398.128635	-398.127691	-398.171667	30.228	
C	 0.1964091376	 1.436671514	 0.0587569269	-0.347922
N	 0.0578443014	-0.0047038103	-0.0156018055	-0.052788
C	 0.1463254194	-0.7869777869	-1.1504787739	-0.134515
C	-0.0500183409	-2.0741134088	-0.7301154275	-0.100484
N	-0.256085233	-2.1119786798	 0.628711366	-0.328299
C	-0.1851862163	-0.8584770324	 1.0233112566	 0.412924
N	-0.3267912363	-0.3501557683	 2.326200489	-0.209113
C	-1.2812924508	-1.0635755989	 3.1966334315	-0.216683
C	 0.1758622962	-1.2124665343	 3.4132014404	-0.216714
H	 1.1866059384	 1.7488538136	-0.2875526263	 0.136514
H	-0.5638215577	 1.9306417623	-0.5543159454	 0.136508
H	 0.0684950805	 1.7317766025	 1.0999002144	 0.167215
H	 0.3355509211	-0.3549688642	-2.119307394	 0.120993
H	-0.0547751388	-2.9745646613	-1.3254857207	 0.104805
H	-1.8711285932	-0.4215613955	 3.8440814341	 0.117664
H	-1.8010969561	-1.9051984684	 2.750014042	 0.146147
H	 0.6249122959	-2.1530917378	 3.1105738581	 0.146074
H	 0.6692459027	-0.6811603156	 4.2216356044	 0.117675
10.4941	125.1768	172.4215	192.8702	210.5026	304.0055	433.4402	504.1781	607.0516	638.8102	710.9896	727.1831	757.5234	828.8168	840.402	842.9412	908.1848	957.9729	1045.3971	1056.1094	1107.2536	1115.8709	1140.5086	1157.125	1165.403	1185.6633	1188.2314	1212.9878	1303.3605	1308.6107	1387.1798	1436.481	1473.7904	1484.2741	1498.2487	1501.1973	1509.6146	1529.7502	1561.6362	3040.2239	3098.4185	3116.9985	3119.608	3161.1439	3209.7056	3223.9008	3244.8549	3274.8978
CN1C=CN=C1N1CC1	Cn1ccnc1N1CC1	
InChI=1S/C6H9N3/c1-8-3-2-7-6(8)9-4-5-9/h2-3H,4-5H2,1H3	InChI=1S/C6H9N3/c1-8-3-2-7-6(8)9-4-5-9/h2-3H,4-5H2,1H3
