17
gdb 68560	2.59208	1.61246	1.35896	1.2914	77.69	-0.2388	-0.0063	0.2325	1013.584	0.13416	-384.611442	-384.603461	-384.602517	-384.643533	31.693	
C	 0.0072779534	 1.5099159216	-0.0594097597	-0.515421
C	-0.009708836	 0.0119698803	 0.0253204092	 0.366805
O	 0.3287689599	-0.7065458653	-1.2113356148	-0.31428
C	-0.2549519297	-1.8497558853	-0.5180073694	-0.000411
C	 0.6979687643	-2.0120018341	 0.6805435167	-0.07966
C	 0.8655142236	-0.7439311107	 1.052153017	-0.117159
C	-1.3345299581	-0.8584075504	 0.0482522019	-0.230284
C	-2.0681794123	-1.1167626416	 1.2671490625	 0.320752
C	-2.6987866114	-1.3179657039	 2.2712931156	-0.45025
H	 1.0219315629	 1.869871451	-0.2569186439	 0.136031
H	-0.6459683438	 1.8622442008	-0.8618426898	 0.131825
H	-0.3342336519	 1.9445518979	 0.8852657488	 0.133095
H	-0.5021848572	-2.6967567832	-1.1554226333	 0.087161
H	 1.0865256717	-2.9327447906	 1.0887134309	 0.114643
H	 1.4365992978	-0.3052895524	 1.8571498841	 0.111964
H	-1.9990108538	-0.5314664851	-0.757284437	 0.110257
H	-3.2505994096	-1.499454529	 3.1603655112	 0.19493
120.6019	146.9071	189.5312	277.8533	298.192	376.805	432.2858	539.7585	589.6055	599.325	627.0169	637.3299	645.3519	724.6208	784.2498	808.1244	832.3913	855.9587	892.7436	905.3927	921.3255	965.2424	1053.2203	1078.5923	1105.0237	1118.7909	1186.6274	1222.5473	1259.5861	1278.307	1322.4448	1365.1094	1415.4607	1479.1184	1491.267	1623.853	2232.6676	3041.8725	3070.6667	3112.4312	3122.7339	3142.643	3232.942	3261.051	3501.9223
CC12OC(C=C1)C2C#C	C[C@@]12O[C@@H](C=C1)[C@H]2C#C	
InChI=1S/C8H8O/c1-3-6-7-4-5-8(6,2)9-7/h1,4-7H,2H3	InChI=1S/C8H8O/c1-3-6-7-4-5-8(6,2)9-7/h1,4-7H,2H3/t6-,7+,8-/m1/s1
