18
gdb 117577	2.83301	1.00123	0.8136	4.2371	73.03	-0.2727	0.0322	0.3048	1432.252	0.145723	-439.056835	-439.047142	-439.046198	-439.092509	33.233	
C	 0.2485698875	 1.3895382302	 0.0944566011	-0.233941
O	 0.1008693773	-0.0132389858	 0.0585179169	-0.232099
C	 0.7302754204	-0.6604801027	 1.1319683806	-0.050587
C	 0.6055117385	-2.1778380359	 0.9102637086	-0.211386
C	 1.3242987105	-2.5878837745	-0.2992276544	 0.307391
N	 1.892756392	-2.9348925387	-1.2430340187	-0.335758
C	 1.0753695055	-2.9342033525	 2.1477737819	 0.073557
C	 1.8682827046	-4.166925628	 2.106702794	-0.187667
O	 2.4696990346	-2.9055852861	 2.4248835277	-0.227135
H	 1.3073681083	 1.6859951552	 0.0551803749	 0.116486
H	-0.2659638965	 1.7903726625	-0.7811777738	 0.137282
H	-0.1998575057	 1.8222721097	 1.0022141149	 0.107735
H	 1.7933203659	-0.3863942743	 1.2055954721	 0.123824
H	 0.2500331304	-0.4011821122	 2.0909156373	 0.094498
H	-0.458259257	-2.3998072791	 0.7549400682	 0.140018
H	 0.4387533721	-2.7586878085	 3.0166852615	 0.106348
H	 1.7975644741	-4.8696747254	 2.9349202047	 0.123042
H	 2.1591999076	-4.5879487038	 1.1474341626	 0.148392
58.7071	74.434	101.0412	131.015	166.0623	213.8924	240.1946	299.0259	351.898	415.4571	446.4214	603.7442	656.7592	790.7571	853.2168	895.9656	960.2303	998.7812	1008.724	1081.3882	1111.4211	1124.3413	1165.8949	1170.0964	1174.106	1184.449	1228.1089	1248.3447	1280.8458	1296.477	1359.0803	1409.8179	1429.9808	1481.4049	1487.6589	1502.4731	1526.8252	1528.8084	2364.4236	2960.5315	2980.0791	3014.0592	3028.9357	3042.8907	3094.747	3101.4091	3126.3078	3193.7449
COCC(C#N)C1CO1	COC[C@@H](C#N)[C@H]1CO1	
InChI=1S/C6H9NO2/c1-8-3-5(2-7)6-4-9-6/h5-6H,3-4H2,1H3	InChI=1S/C6H9NO2/c1-8-3-5(2-7)6-4-9-6/h5-6H,3-4H2,1H3/t5-,6-/m1/s1
