17
gdb 125378	2.90663	1.25612	0.97832	2.3232	79.56	-0.2329	0.0239	0.2568	1212.2808	0.1359	-380.865701	-380.8568	-380.855856	-380.899785	32.586	
C	 0.2848800184	 1.4867220641	 0.1186785769	-0.517286
C	 0.0934269879	 0.0041602779	 0.0286457456	 0.152384
C	-0.0531856174	-0.7670692818	-1.105482822	-0.108056
N	-0.2020328567	-2.0502471434	-0.692689503	-0.19211
N	-0.1614050673	-2.1777819497	 0.6457216206	-0.287266
C	 0.0174585051	-0.9366840791	 1.0908740658	 0.282372
C	 0.1004513325	-0.68139102	 2.5738421797	-0.450541
C	 1.3739490067	-0.1017658049	 2.9999215798	 0.313399
C	 2.4187423761	 0.3805395928	 3.3470327724	-0.470019
H	 1.1900120983	 1.7376405292	 0.6809091997	 0.145575
H	 0.3667442545	 1.9346985235	-0.8755448747	 0.118949
H	-0.5536896938	 1.9744220312	 0.6305031157	 0.125823
H	-0.0606302698	-0.500661659	-2.1512266625	 0.129925
H	-0.3284599177	-2.872153164	-1.257452133	 0.273316
H	-0.7149387795	-0.0141011592	 2.8857579142	 0.135779
H	-0.0641102904	-1.6347047863	 3.0873672998	 0.152457
H	 3.3441565433	 0.7969405688	 3.6589781949	 0.195296
52.8945	102.1039	108.7918	225.6192	248.853	303.1584	333.801	398.384	455.1251	482.8035	612.0329	628.7756	647.6394	667.0533	702.4003	781.0574	789.3215	925.9619	956.8202	961.4575	1009.8914	1068.8002	1087.664	1147.1423	1218.9614	1228.9432	1321.4836	1331.0023	1405.9679	1422.5103	1458.1235	1471.3504	1483.0004	1493.9359	1515.8499	1615.0384	2237.6244	3012.935	3027.8731	3073.8058	3082.2825	3112.1546	3254.6044	3506.5587	3681.7321
CC1=CNN=C1CC#C	Cc1c[nH]nc1CC#C	
InChI=1S/C7H8N2/c1-3-4-7-6(2)5-8-9-7/h1,5H,4H2,2H3,(H,8,9)	InChI=1S/C7H8N2/c1-3-4-7-6(2)5-8-9-7/h1,5H,4H2,2H3,(H,8,9)
