17
gdb 29658	2.37044	1.66811	0.99657	4.0398	72.05	-0.2011	0.0338	0.2348	1158.1625	0.135604	-455.206967	-455.197669	-455.196725	-455.240906	33.269	
C	-0.0257184986	 1.4491941503	 0.0040204237	-0.348255
N	 0.0058792094	 0.0046460258	 0.0605877842	-0.182107
C	 0.0273184502	-0.7822696641	-1.0727961397	 0.468478
O	 0.0242491874	-0.4432986785	-2.2291709123	-0.420742
O	 0.054091083	-2.0837615221	-0.6348152266	-0.236389
C	 0.048683035	-2.0784559522	 0.7664248025	 0.16874
N	 0.0723328061	-3.2805242186	 1.4650982143	-0.591364
C	 0.0193388976	-0.8101726876	 1.2032874213	 0.275096
C	 0.0024775895	-0.2801591198	 2.5918643555	-0.503411
H	 0.8535233276	 1.8876360178	 0.4878562968	 0.133973
H	-0.0279177775	 1.7258971636	-1.0512202753	 0.175002
H	-0.9269488495	 1.8484205958	 0.4813007488	 0.133971
H	-0.7341701243	-3.8619571192	 1.2554197606	 0.250161
H	 0.9046437353	-3.8264678	 1.2609479318	 0.250163
H	 0.0187937204	-1.1188284931	 3.2899267034	 0.157778
H	 0.8707972188	 0.3575264173	 2.7957247158	 0.134449
H	-0.8950243004	 0.3178827946	 2.7894350754	 0.134458
99.1036	126.332	158.1796	171.0834	227.9753	246.2229	262.4366	285.5625	345.1439	354.9367	567.2668	620.3406	636.9613	647.1049	724.7554	763.2123	806.1078	908.7789	980.1923	1024.0638	1068.8721	1147.861	1157.8377	1179.9634	1219.5865	1291.1723	1365.7991	1410.4887	1423.6851	1461.5046	1480.2283	1494.262	1496.9551	1514.2658	1658.2742	1784.944	1870.6235	3025.3496	3032.2383	3073.2036	3087.178	3141.2108	3150.4071	3485.6094	3546.1578
CN1C(=O)OC(N)=C1C	Cn1c(=O)oc(N)c1C	
InChI=1S/C5H8N2O2/c1-3-4(6)9-5(8)7(3)2/h6H2,1-2H3	InChI=1S/C5H8N2O2/c1-3-4(6)9-5(8)7(3)2/h6H2,1-2H3
