19
gdb 85988	1.95384	1.56925	1.2494	2.3216	77.2	-0.2427	-0.0488	0.1939	1134.8705	0.15602	-423.054128	-423.044316	-423.043372	-423.089189	34.971	
C	-0.583437383	 1.3438428994	 0.3306099446	-0.409088
C	-0.0705995291	-0.0566788377	-0.0173681045	-0.09645
C	 0.9166505017	-0.1651627394	-1.2256034421	-0.302411
C	 2.0971716605	-0.5446860332	-0.2861173882	 0.092473
C	 2.8270107968	-1.8732623058	-0.4939869549	-0.464108
C	 3.0819607069	 0.5839229187	-0.050571814	 0.123304
O	 2.9753253406	 1.7013194941	-0.4893897757	-0.250649
C	 1.0551340219	-0.5725104812	 0.8865440868	 0.360109
O	 1.1290128946	-0.9353311584	 2.0223926554	-0.293904
H	 0.2355986023	 2.0687107949	 0.3475384585	 0.144257
H	-1.3127074335	 1.6762696578	-0.414498854	 0.12544
H	-1.0683691606	 1.3448723905	 1.3111014143	 0.133907
H	-0.9074544954	-0.7631140553	-0.0519377977	 0.103216
H	 0.6631330622	-0.9550634125	-1.93462442	 0.106908
H	 1.0804631552	 0.772427741	-1.7584302236	 0.131808
H	 3.4148095756	-1.8597391621	-1.4176249834	 0.131662
H	 3.5026009259	-2.0767034885	 0.342832762	 0.140546
H	 2.1158694633	-2.7017575925	-0.5556875351	 0.130083
H	 3.9338041741	 0.3038239902	 0.6076808519	 0.092894
46.793	86.462	164.1129	177.1972	206.3157	225.3103	241.0554	250.0978	291.4517	377.3108	487.7693	564.8505	622.5452	700.891	744.4923	804.3416	847.6115	903.5105	938.5443	951.2238	994.4502	1014.7148	1085.8643	1090.4322	1133.9607	1187.0409	1203.5529	1235.2293	1245.2422	1274.7857	1317.5603	1399.827	1406.1423	1423.9994	1474.3351	1489.5806	1493.9028	1496.4736	1501.8906	1803.2549	1884.8429	2891.4977	3035.7352	3040.5105	3049.1439	3081.4378	3107.6645	3112.5876	3114.1199	3121.0754	3141.951
CC1CC(C)(C=O)C1=O	C[C@H]1C[C@@](C)(C=O)C1=O	
InChI=1S/C7H10O2/c1-5-3-7(2,4-8)6(5)9/h4-5H,3H2,1-2H3	InChI=1S/C7H10O2/c1-5-3-7(2,4-8)6(5)9/h4-5H,3H2,1-2H3/t5-,7-/m0/s1
