16
gdb 42718	2.52678	2.19197	1.75197	1.921	71.85	-0.223	-0.0111	0.212	839.9757	0.126763	-400.726015	-400.719758	-400.718814	-400.756292	26.215	
O	 0.0086652352	 0.0464859549	 0.1745496501	-0.329114
C	-0.0040313783	 1.2327320223	 0.052259611	 0.405939
C	-1.1725349043	 2.2625032776	-0.022679907	-0.190487
C	-0.7087816059	 3.0702013728	 1.1765760434	-0.08106
C	 0.6380492848	 3.0960433066	 1.1751338657	-0.062813
C	 1.1142072339	 2.3070329945	-0.0228409041	-0.13403
N	 0.7435386014	 3.1009268994	-1.2466974711	-0.099239
C	 0.066743723	 2.319741261	-2.308255875	-0.275625
C	-0.7331286881	 3.0375815682	-1.2801457353	-0.012444
H	-2.1863686313	 1.8692723408	-0.0096337162	 0.091866
H	-1.3709884899	 3.5162949268	 1.906929085	 0.114142
H	 1.2875901207	 3.5688527392	 1.898876686	 0.116507
H	 2.1488009369	 1.972709396	-0.0428219014	 0.09159
H	 0.1728624565	 2.7465717675	-3.3005838867	 0.123777
H	 0.1068065213	 1.2330916689	-2.2831985101	 0.13955
H	-1.2551252059	 3.9597424036	-1.5194123642	 0.101441
168.5262	307.0424	318.0637	410.0851	500.2142	505.7582	612.6204	642.4924	703.8163	745.7688	786.6781	825.8362	834.8593	859.9569	906.1013	940.5328	947.7539	978.0853	991.4206	1038.4883	1065.158	1092.8752	1106.9494	1126.8902	1152.7181	1195.9256	1208.3084	1238.2831	1255.5174	1265.0686	1338.0404	1359.3658	1511.5618	1601.8687	1893.4635	3111.8787	3143.2674	3151.0126	3153.1976	3199.2119	3212.021	3235.9985
O=C1C2C=CC1N1CC21	O=C1[C@H]2C=C[C@@H]1N1C[C@@H]21	
InChI=1S/C7H7NO/c9-7-4-1-2-5(7)8-3-6(4)8/h1-2,4-6H,3H2	InChI=1S/C7H7NO/c9-7-4-1-2-5(7)8-3-6(4)8/h1-2,4-6H,3H2/t4-,5-,6-,8?/m0/s1
