13
gdb 130038	3.44312	1.32182	0.96108	1.6855	76.43	-0.2434	-0.07	0.1734	1112.4992	0.089976	-448.94412	-448.936218	-448.935274	-448.976699	28.606	
N	-0.1941097132	 1.4228531504	 0.0722910365	-0.57137
C	-0.0751149333	 0.0787213413	 0.0197650114	 0.336216
N	-1.0224915068	-0.7891381577	 0.0082227723	-0.305488
C	-0.4527078972	-2.1319007465	-0.0053851407	-0.250476
C	 1.0521386467	-1.9166097257	-0.0133894624	 0.214093
C	 1.3313656286	-0.4921647356	-0.0043787021	 0.235542
O	 2.3624174804	 0.1477826501	-0.0243625339	-0.366133
N	 2.7659997743	-3.636475787	-0.0517388483	-0.225157
N	 1.9606377217	-2.8389703093	-0.0343819089	 0.124195
H	 0.6437603477	 1.9572367841	-0.0930756189	 0.275547
H	-1.0883640078	 1.8526649641	-0.0910661669	 0.268124
H	-0.788421459	-2.6947495308	 0.8752959751	 0.132809
H	-0.798201762	-2.6810935075	-0.8907833432	 0.132097
92.7371	139.5899	202.7338	265.5888	272.9748	298.4559	448.0487	466.1307	503.8916	544.0048	571.5522	618.2796	665.4317	765.3678	794.3017	966.4274	997.2734	1016.5386	1148.972	1178.8704	1199.5093	1294.5559	1403.8185	1424.2218	1491.7567	1601.878	1729.5442	1785.9048	2217.3368	3017.1009	3042.8074	3599.7004	3729.4102
NC1=NCC2=C1ON=N2	NC1=NC[C](C1=O)[N][N]	
InChI=1S/C4H4N4O/c5-4-3-2(1-6-4)7-8-9-3/h1H2,(H2,5,6)	InChI=1S/C4H4N4O/c5-4-3(9)2(8-6)1-7-4/h1H2,(H2,5,7)
