21
gdb 110132	1.82608	1.32078	0.91516	3.0034	81.3	-0.2389	-0.0174	0.2215	1381.1716	0.179889	-424.21382	-424.203499	-424.202555	-424.249629	36.553	
C	 0.0671742236	 1.4407392007	 0.4581007754	-0.379616
C	-0.0674329906	 0.1647693408	-0.3795561746	-0.20511
C	-1.4262011736	-0.4958550808	-0.2385237639	-0.071987
C	-1.6150149864	-1.9578509126	-0.3851282249	 0.079479
O	-0.4856898352	-2.7252515258	-0.6229884039	-0.231594
C	-0.6358933487	-4.0795808203	-0.2351015852	-0.24222
C	-1.8277242349	-1.3241572319	 1.0030383323	-0.168831
C	-0.8664519055	-1.5825196593	 2.0939635974	 0.16117
O	-1.1750514944	-1.6261298187	 3.2635527636	-0.286183
H	 1.039716328	 1.9148893642	 0.2953544451	 0.116207
H	-0.7078933935	 2.1698740107	 0.1977911642	 0.115606
H	-0.0279303755	 1.2269618548	 1.527734619	 0.129789
H	 0.0764849989	 0.4045918129	-1.4406691003	 0.105456
H	 0.7245458311	-0.5444492213	-0.127345508	 0.12057
H	-2.2476845899	 0.1108952531	-0.6121778439	 0.101553
H	-2.5184462137	-2.3270339188	-0.8739328311	 0.097846
H	 0.2876688939	-4.5937987614	-0.5083602561	 0.134873
H	-0.7974653959	-4.1738290981	 0.8477883398	 0.123644
H	-1.4796631636	-4.5536132524	-0.7569181357	 0.114544
H	-2.8507826656	-1.2218867711	 1.349659139	 0.102921
H	 0.1844339116	-1.7489294946	 1.777776652	 0.081885
67.6664	84.8995	112.2337	138.6496	174.2386	199.6798	230.6859	262.6116	273.6775	322.874	438.572	478.5186	584.5681	617.8316	725.3243	806.9971	832.7357	886.236	952.2019	1002.8139	1015.1172	1035.2192	1050.7563	1095.4864	1111.9944	1140.837	1175.5656	1182.6815	1188.4046	1231.6545	1265.0258	1287.1955	1327.3251	1346.2927	1389.2267	1415.7618	1432.5446	1453.0694	1486.4502	1488.2767	1493.9847	1498.2192	1506.8265	1510.1902	1797.2558	2909.4325	2992.3102	3032.7138	3034.3818	3046.8441	3083.3746	3089.5013	3108.6411	3109.8716	3128.2207	3137.2259	3171.465
CCC1C(OC)C1C=O	CC[C@H]1[C@@H](OC)[C@H]1C=O	
InChI=1S/C7H12O2/c1-3-5-6(4-8)7(5)9-2/h4-7H,3H2,1-2H3	InChI=1S/C7H12O2/c1-3-5-6(4-8)7(5)9-2/h4-7H,3H2,1-2H3/t5-,6+,7-/m1/s1
