18
gdb 72598	2.24879	1.59934	1.46172	3.0281	72.88	-0.2198	-0.0238	0.196	1017.4471	0.145592	-439.065382	-439.056424	-439.05548	-439.098741	33.623	
C	-0.1895902543	 1.6045247991	 0.2041701873	-0.474497
C	 0.021459771	 0.1156644594	 0.1275608965	 0.182893
N	 0.9885304982	-0.362028676	-0.9044198875	-0.348439
C	 1.7048101875	-1.2462598162	 0.0542300512	-0.226837
C	 0.752209641	-0.7979320132	 1.1875626975	 0.347865
O	 1.2761894598	-0.2223227474	 2.3424023025	-0.479528
C	-0.5141362689	-1.6920061779	 1.3182205793	-0.431927
C	-1.171543034	-0.8563118393	 0.2028167572	 0.374083
O	-2.1889544505	-0.9622023018	-0.4226978455	-0.310231
H	 0.7722432879	 2.122906748	 0.2381382506	 0.131839
H	-0.7396655695	 1.9513682041	-0.6770727177	 0.132705
H	-0.7674565904	 1.8743772504	 1.0936239288	 0.123129
H	 0.5668324271	-0.8251205605	-1.7031577499	 0.230154
H	 1.6924469881	-2.3180775089	-0.1768858354	 0.097003
H	 2.7419845461	-0.9251198044	 0.200572179	 0.11118
H	 1.6240820521	-0.9198153715	 2.9087490782	 0.284713
H	-0.4302867847	-2.772519473	 1.16899585	 0.11856
H	-1.0202497466	-1.4947563509	 2.2703699379	 0.137335
82.0952	160.0691	170.9024	188.7402	208.8211	272.1401	306.4245	384.482	405.1891	504.2252	555.8703	585.4497	612.8707	691.0737	727.0912	808.889	871.0952	894.4746	935.8256	984.1473	1003.0287	1041.6926	1072.9771	1111.6278	1157.9637	1171.7583	1184.6365	1217.3815	1249.5469	1279.2361	1317.8288	1365.8496	1378.144	1403.602	1429.7192	1479.7962	1483.3814	1506.9528	1874.7829	3019.739	3037.555	3042.8442	3067.8966	3103.7553	3107.0176	3121.6398	3525.1903	3802.2364
CC12NCC1(O)CC2=O	C[C@@]12NC[C@]1(O)CC2=O	
InChI=1S/C6H9NO2/c1-5-4(8)2-6(5,9)3-7-5/h7,9H,2-3H2,1H3	InChI=1S/C6H9NO2/c1-5-4(8)2-6(5,9)3-7-5/h7,9H,2-3H2,1H3/t5-,6+/m0/s1
