20
gdb 81839	2.38147	1.52469	1.13481	2.0163	79.6	-0.2317	-0.0246	0.2071	1151.0788	0.168747	-403.119483	-403.110094	-403.10915	-403.154018	34.536	
C	-0.2815202923	 1.4745729672	-0.1088145778	-0.397982
C	 0.1025089735	 0.0060844066	-0.0863619906	 0.05253
C	 1.23944558	-0.5804960456	-0.9845806854	-0.188269
C	 2.0990222642	 0.2756025361	-1.8757072796	 0.139677
O	 1.7813539098	 1.3341280562	-2.3577764929	-0.253285
C	 1.8995478213	-1.0692086157	 0.3163475932	 0.333803
C	 2.4791585672	-2.4362052129	 0.5269860523	-0.49633
C	 2.1292551749	 0.0868761803	 1.2100563735	-0.297934
N	 0.7768283032	-0.5054167973	 1.1668819383	-0.170165
H	 0.5745190502	 2.1431128392	-0.0009672992	 0.126738
H	-0.7670058007	 1.7247131025	-1.055513377	 0.132498
H	-0.9823175797	 1.6740247873	 0.7088469821	 0.12038
H	-0.8012015138	-0.5962475262	-0.2116248647	 0.090097
H	 0.8813596784	-1.4207485273	-1.5924368243	 0.105642
H	 3.1095600611	-0.1586973847	-2.0689199122	 0.075924
H	 3.4365653094	-2.5430133967	 0.0034993011	 0.12406
H	 2.6542176739	-2.6194821988	 1.5908729752	 0.134309
H	 1.8031270409	-3.2138985592	 0.1548441658	 0.123754
H	 2.6352350118	-0.104915812	 2.1512750183	 0.122678
H	 2.3021558064	 1.081498591	 0.8066187738	 0.121876
37.0459	130.8316	168.6544	188.3884	209.4057	221.6089	248.9003	338.1943	365.1552	471.9777	511.251	591.355	688.659	721.3286	749.6878	780.7198	845.6237	918.5929	960.7635	1000.1249	1008.9265	1039.2534	1073.8252	1098.6583	1115.2646	1118.1697	1131.094	1180.2248	1188.9664	1260.0114	1310.488	1315.8978	1375.137	1389.048	1413.8451	1419.6833	1428.375	1481.6387	1483.4851	1490.1085	1492.1243	1509.1059	1819.4065	2841.3217	3027.4868	3035.3059	3045.8075	3066.2092	3088.2732	3111.0896	3113.6167	3118.3498	3134.9427	3197.9101
CC1C(C=O)C2(C)CN12	C[C@H]1[C@@H](C=O)[C@@]2(C)CN12	
InChI=1S/C7H11NO/c1-5-6(3-9)7(2)4-8(5)7/h3,5-6H,4H2,1-2H3	InChI=1S/C7H11NO/c1-5-6(3-9)7(2)4-8(5)7/h3,5-6H,4H2,1-2H3/t5-,6+,7+,8?/m0/s1
