20
gdb 126606	5.07179	0.78121	0.72463	2.5981	83.74	-0.1895	0.0309	0.2205	1626.3646	0.172305	-399.349434	-399.339905	-399.33896	-399.384796	34.459	
C	 0.0459272321	 1.49000077	 0.1263822546	-0.380687
C	-0.0324946342	-0.0338550872	 0.2419787516	-0.16784
C	-1.4010450216	-0.5764263967	-0.1869018106	-0.142083
N	-1.4888542265	-2.0223565056	-0.1112856482	 0.063931
C	-1.9806561895	-2.7753297341	 0.9162040817	-0.11702
C	-1.7609913715	-4.0996420259	 0.581533244	 0.158885
N	-2.1692278169	-5.2538355233	 1.2748032554	-0.607553
C	-1.1196852698	-4.0335929873	-0.6755756027	-0.053329
N	-0.9552992151	-2.7739369207	-1.0828233872	-0.270244
H	 1.0287976094	 1.8579495967	 0.4343859063	 0.119069
H	-0.1241810327	 1.8196566497	-0.9044755706	 0.120652
H	-0.7044250021	 1.9789684893	 0.7580980718	 0.113968
H	 0.7323565246	-0.5051496713	-0.3839762011	 0.125372
H	 0.1669868729	-0.3464622026	 1.2740474292	 0.100954
H	-2.1950471319	-0.1610033953	 0.4425793626	 0.111869
H	-1.6122785195	-0.2915237385	-1.2219714425	 0.128451
H	-2.4487396162	-2.3229285241	 1.77604586	 0.114657
H	-2.1930653899	-5.1185562522	 2.2774570307	 0.240078
H	-1.5749986582	-6.0474760093	 1.0716091249	 0.242522
H	-0.7860032434	-4.8516595613	-1.2980871	 0.098349
40.3428	83.1489	87.0069	147.857	231.3877	265.0283	287.9122	310.2556	386.754	432.5699	626.8393	658.5835	672.9763	727.1151	752.3099	767.715	793.2655	843.5185	880.2855	899.7002	1008.7587	1032.121	1044.6512	1102.0103	1119.0471	1124.5948	1203.5257	1231.55	1263.6785	1314.9514	1329.965	1385.1709	1401.345	1407.0202	1414.1039	1441.0499	1478.6776	1490.8948	1493.3349	1500.7629	1510.398	1631.7143	1659.1308	3030.5086	3036.1561	3050.7188	3074.1566	3093.799	3108.4299	3109.5184	3235.2536	3256.1613	3534.4512	3620.9476
CCCN1C=C(N)C=N1	CCCn1cc(N)cn1	
InChI=1S/C6H11N3/c1-2-3-9-5-6(7)4-8-9/h4-5H,2-3,7H2,1H3	InChI=1S/C6H11N3/c1-2-3-9-5-6(7)4-8-9/h4-5H,2-3,7H2,1H3
