17
gdb 51894	4.49813	0.92543	0.80477	3.9811	66.84	-0.2574	-0.0015	0.2559	1368.6802	0.136049	-496.11502	-496.106838	-496.105894	-496.148542	29.555	
O	-0.01738033	 0.0165309995	-0.0094476841	-0.264219
C	 0.0025966321	 1.204704413	 0.0699402847	 0.179609
O	 1.1358571697	 1.9252388112	-0.1268498761	-0.186182
C	 1.0069746508	 3.3256443978	-0.0706797759	 0.196025
C	 2.3998563471	 3.9224012127	 0.1093743765	-0.116995
O	 2.3294482311	 5.3342035054	 0.0323805958	-0.249573
C	 1.7703334451	 5.7569985659	-1.2031888345	-0.079678
C	 0.3766922685	 5.1668358605	-1.3772057794	-0.084142
O	 0.4335914587	 3.7442907568	-1.2866921228	-0.258144
H	-0.868536254	 1.8382032801	 0.3175505601	 0.092922
H	 0.3540745767	 3.6224675343	 0.7697725527	 0.080376
H	 2.8052721426	 3.6692451736	 1.0917773991	 0.124749
H	 3.055919082	 3.507412576	-0.6708801458	 0.115363
H	 1.7326575964	 6.8496275423	-1.1751942918	 0.117467
H	 2.4129984148	 5.4437418898	-2.0410554197	 0.10498
H	-0.2964547026	 5.5692316796	-0.6039973623	 0.104512
H	-0.038453309	 5.3979329415	-2.3615290067	 0.122931
66.8221	107.8532	140.2639	238.8889	250.9978	348.0694	376.4457	434.2492	470.4904	525.5816	586.9797	739.2072	859.6818	897.2126	926.1859	1001.0974	1036.3091	1073.2336	1099.1298	1116.3064	1130.2038	1147.8258	1153.9965	1183.3574	1248.4482	1293.4473	1318.3433	1337.3511	1375.1105	1396.9973	1413.0669	1424.9696	1442.542	1480.9026	1487.613	1493.305	1879.9751	2946.3517	2978.2798	2984.4315	2994.5921	3002.3414	3096.4007	3102.9309	3110.6795
O=COC1COCCO1	O=CO[C@H]1COCCO1	
InChI=1S/C5H8O4/c6-4-9-5-3-7-1-2-8-5/h4-5H,1-3H2	InChI=1S/C5H8O4/c6-4-9-5-3-7-1-2-8-5/h4-5H,1-3H2/t5-/m0/s1
