18
gdb 118375	1.70252	1.21051	0.73826	1.0804	77.65	-0.2606	-0.0053	0.2553	1503.9672	0.146797	-398.146959	-398.136913	-398.135969	-398.182952	34.675	
C	 0.0042795127	 1.5632632868	-0.0324607588	-0.394021
C	 0.0078464215	 0.0471576255	-0.1929613541	-0.124879
N	-1.3091399211	-0.505031598	 0.1403464661	-0.300199
C	-1.3854722934	-1.9560382209	 0.0776782309	-0.113787
C	-2.7586361533	-2.4422654771	 0.6138308848	-0.348621
C	-2.9220759864	-2.1019841861	 2.0246254393	 0.258907
N	-3.0224956352	-1.8100759615	 3.1382191919	-0.299818
C	-1.2395811553	-2.41588779	-1.3153266246	 0.309409
N	-1.1255288259	-2.8016545573	-2.3978941945	-0.317832
H	 0.9773364738	 1.9791762673	-0.3075290009	 0.125908
H	-0.7617800958	 2.0165364859	-0.6673283571	 0.13581
H	-0.1988701515	 1.8509931601	 1.0053553899	 0.121337
H	 0.2283589207	-0.2172492944	-1.2333933161	 0.133454
H	 0.8100412667	-0.3963023697	 0.423997745	 0.090154
H	-1.5672110785	-0.2154967862	 1.0802142653	 0.240898
H	-0.5931336617	-2.4624260841	 0.660154523	 0.125293
H	-3.5553970543	-1.9689989933	 0.0323199481	 0.182383
H	-2.8454292031	-3.5253259968	 0.4892972518	 0.175603
64.6235	84.2689	86.2283	126.0645	156.7781	208.1036	251.4996	278.3189	383.1768	390.0521	395.5168	516.3731	570.7391	606.4963	751.3146	820.9574	845.6746	935.3607	944.6358	979.1444	1038.6699	1059.7797	1138.367	1156.0964	1186.136	1238.2311	1292.8096	1304.3433	1341.7136	1376.0492	1393.7595	1417.6818	1456.3005	1486.5977	1497.6361	1511.5508	1526.4501	2362.565	2365.479	2928.1997	2942.9303	3037.8232	3060.3522	3068.15	3107.1923	3116.0646	3126.6262	3503.753
CCNC(CC#N)C#N	CCN[C@@H](CC#N)C#N	
InChI=1S/C6H9N3/c1-2-9-6(5-8)3-4-7/h6,9H,2-3H2,1H3	InChI=1S/C6H9N3/c1-2-9-6(5-8)3-4-7/h6,9H,2-3H2,1H3/t6-/m0/s1
