18
gdb 44872	3.07626	1.54397	1.36462	3.1145	77.75	-0.252	0.0313	0.2833	1006.1548	0.149609	-401.921551	-401.914495	-401.913551	-401.952827	28.901	
N	-0.0752385925	 1.2128391131	 0.0198711809	-0.581317
C	-0.0711028215	-0.0456966744	 0.0038412152	 0.465178
O	 1.0360163948	-0.8747245083	-0.0126846839	-0.266627
C	 0.4115641535	-2.1978156703	-0.0063355898	-0.001073
C	-0.6977343362	-2.0356298863	-1.0711293708	-0.237812
C	-1.2291541458	-1.0162767432	 0.002741925	-0.227247
C	-0.6826385069	-2.0278794811	 1.0482827008	 0.438188
C	-1.4250436366	-3.0733250085	 1.8090667467	-0.365087
C	-0.6302393146	-1.9958136751	 2.5345177363	-0.357551
H	 0.8805803715	 1.5748093017	 0.0220097897	 0.222211
H	 1.180807616	-2.9669511286	-0.0034557065	 0.092503
H	-0.3977451783	-1.6434108233	-2.0449151382	 0.114124
H	-1.3382576262	-2.9125868257	-1.1668218825	 0.116199
H	-2.2336955248	-0.6034792251	 0.0128063546	 0.097737
H	-2.5084171661	-3.0164972408	 1.842680711	 0.121373
H	-1.0332077511	-4.0858287903	 1.8172840757	 0.118737
H	 0.2938342561	-2.2862017574	 3.0235721503	 0.122488
H	-1.1830516514	-1.2172740163	 3.0498209254	 0.127977
125.2437	211.4411	233.5472	292.0697	432.9658	439.6681	536.8456	590.5316	653.378	730.2703	771.6918	809.198	842.1957	865.0847	892.4717	899.5558	924.8031	939.0857	952.3801	996.2412	1009.8295	1027.9024	1053.1829	1082.2186	1091.6553	1097.9436	1118.1809	1180.8604	1201.1339	1211.1903	1230.1159	1237.4103	1274.6849	1340.3459	1410.7045	1464.0663	1486.7958	1514.018	1807.9437	3079.2856	3123.2283	3131.1761	3150.5158	3152.1134	3169.7678	3202.4904	3218.4779	3464.6645
N=C1OC2CC1C21CC1	[NH][C]1O[C@@H]2C[C@H]1C12CC1	
InChI=1S/C7H9NO/c8-6-4-3-5(9-6)7(4)1-2-7/h4-5,8H,1-3H2	InChI=1S/C7H9NO/c8-6-4-3-5(9-6)7(4)1-2-7/h4-5,8H,1-3H2/t4-,5-/m1/s1
