20
gdb 84400	3.17367	1.38549	1.10165	1.963	80.58	-0.2239	0.0123	0.2362	1146.1895	0.171482	-403.124766	-403.116278	-403.115334	-403.157596	33.252	
C	 0.3872483301	 1.586967259	-0.0211563983	-0.389498
C	-0.0315241737	 0.1123984846	-0.0265510204	-0.000462
C	 0.2815262857	-0.5593589711	-1.3420387657	-0.047689
C	 0.6599543965	-1.8312999667	-1.4317343796	-0.124818
C	 0.7939605839	-2.7345725202	-0.235353133	 0.052646
O	 1.9367362329	-3.5888172488	-0.3333372584	-0.432057
C	 0.9377186168	-1.9592376663	 1.0619024219	-0.013544
C	 1.9614729824	-0.8837648369	 1.1441242281	-0.24136
N	 0.5368717188	-0.5537257618	 1.1567454824	-0.111883
H	 1.4654923819	 1.6889248327	-0.1809205108	 0.120145
H	-0.1270666323	 2.1359234814	-0.8159551589	 0.112166
H	 0.1370533316	 2.0451438636	 0.9388253684	 0.127368
H	-1.1224627444	 0.0803864286	 0.1174718934	 0.094564
H	 0.1780296638	 0.0467920042	-2.2396407947	 0.089381
H	 0.874094226	-2.2817131271	-2.3989714369	 0.083927
H	-0.1154734937	-3.3557583224	-0.1597799093	 0.077041
H	 1.7820674053	-4.2085748901	-1.0541431665	 0.280434
H	 0.7222817051	-2.5438305078	 1.9533207732	 0.091371
H	 2.4900902894	-0.6998141157	 2.0751104233	 0.111533
H	 2.5359318739	-0.6904922891	 0.2417530419	 0.120736
68.1268	198.0399	229.576	243.006	264.8691	284.5411	346.9929	393.469	406.6191	551.5857	589.9696	622.9117	701.5776	743.0007	790.5417	839.3153	885.7109	930.2893	958.3122	986.9479	1005.778	1051.3089	1067.3167	1075.3165	1111.2072	1112.607	1130.5144	1157.2993	1168.4578	1202.9346	1237.9589	1313.2888	1327.3031	1344.5476	1347.403	1390.6856	1403.5559	1417.3322	1429.6524	1489.1159	1499.5049	1507.9743	1719.9118	2941.071	2980.5871	3039.765	3107.7812	3109.4057	3125.2063	3127.9972	3134.5396	3158.3986	3193.9401	3806.76
CC1C=CC(O)C2CN12	C[C@H]1C=C[C@@H](O)[C@H]2CN12	
InChI=1S/C7H11NO/c1-5-2-3-7(9)6-4-8(5)6/h2-3,5-7,9H,4H2,1H3	InChI=1S/C7H11NO/c1-5-2-3-7(9)6-4-8(5)6/h2-3,5-7,9H,4H2,1H3/t5-,6+,7+,8?/m0/s1
