19
gdb 40925	3.67411	1.34967	1.2056	1.256	74.53	-0.2294	0.056	0.2854	1080.8478	0.159936	-422.969639	-422.962003	-422.961058	-423.002272	29.374	
C	 0.2198579349	 1.5227497576	-0.2637924641	-0.078378
C	 1.6596074418	 1.3978219381	 0.2709009021	-0.347693
C	 1.2142424369	 0.0004946192	 0.7290183831	 0.445391
C	 1.9542151139	-1.3310747367	 0.4273718794	-0.322412
C	 1.9787394255	-1.6790351706	 1.9381620802	-0.079709
C	 3.1098762887	-1.0172297609	 2.7450249581	-0.079106
O	 2.3393143483	 0.1966605698	 2.9350280066	-0.287936
C	 1.2073716493	-0.363104461	 2.2408740651	 0.036385
O	-0.0741456651	 0.1546752505	 0.1031997024	-0.318819
H	-0.4205785548	 2.2342500685	 0.2715052649	 0.104503
H	 0.1090218098	 1.6848291297	-1.3416076943	 0.104675
H	 2.432707465	 1.3941534462	-0.5002625946	 0.10855
H	 1.9530808011	 2.0722839888	 1.075587325	 0.128406
H	 1.3060799534	-1.9948863249	-0.1506559804	 0.121805
H	 2.9230507448	-1.2532940689	-0.0754561732	 0.098802
H	 1.6541828358	-2.6723174521	 2.2424187983	 0.08152
H	 3.3294643639	-1.494817396	 3.7076901433	 0.104758
H	 4.0522017648	-0.8353928304	 2.2123265672	 0.100099
H	 0.263357112	-0.2618377868	 2.7832353609	 0.079159
73.7078	86.3429	197.3538	265.4843	350.6673	353.4279	462.4663	500.2613	737.9283	776.1255	791.7161	843.2994	857.6115	875.8511	904.4637	918.0594	949.8785	973.1993	998.6438	1015.0742	1018.4346	1048.2133	1129.8067	1138.0755	1147.4308	1159.5031	1173.8853	1197.4434	1209.156	1221.4053	1230.5148	1252.9063	1273.4996	1296.778	1321.6162	1351.9814	1356.9896	1460.0932	1489.9133	1522.8151	1529.7718	3010.6736	3021.6548	3050.4052	3055.2293	3064.9044	3077.1897	3080.8159	3110.9925	3128.951	3141.3898
C1CC2(CC3COC23)O1	C1C[C@]2(C[C@H]3CO[C@@H]23)O1	
InChI=1S/C7H10O2/c1-2-9-7(1)3-5-4-8-6(5)7/h5-6H,1-4H2	InChI=1S/C7H10O2/c1-2-9-7(1)3-5-4-8-6(5)7/h5-6H,1-4H2/t5-,6+,7+/m0/s1
