20
gdb 106556	1.99112	1.55876	1.16787	2.9998	75.37	-0.2454	0.066	0.3113	1164.8331	0.170503	-440.218403	-440.209377	-440.208432	-440.252015	34.667	
C	 0.0817821806	 1.5002376895	 0.0618670622	-0.391295
C	 0.0192278558	-0.0241113593	-0.0888414002	-0.320359
C	 0.6699198313	-0.5428905287	-1.3397598998	 0.270341
N	 2.1383884754	-0.2718793051	-1.6924142033	-0.398914
C	 1.6206987598	-1.138986047	-2.8263326144	-0.143514
C	 0.9904034586	-2.0319192815	-1.7195364102	 0.16603
O	 1.826297263	-2.7587121114	-0.8812993992	-0.457044
C	 0.3108878301	-0.2964414054	-2.825075519	 0.092657
O	-0.9111069195	-0.8302388394	-3.2646881213	-0.436038
H	 1.1181455241	 1.8520445597	 0.0991336585	 0.12094
H	-0.4166062916	 2.0049424797	-0.7724430034	 0.118946
H	-0.4093693527	 1.8209721932	 0.9851656874	 0.118555
H	 0.4998295344	-0.5082697455	 0.7700808886	 0.112518
H	-1.025261001	-0.3594597414	-0.0923358602	 0.116664
H	 2.2544525269	 0.695487683	-2.010670214	 0.208481
H	 2.2623587686	-1.4233346133	-3.6621582919	 0.077777
H	 0.145075971	-2.6518807419	-2.0086857598	 0.101342
H	 2.5575794617	-2.1578948068	-0.6742764715	 0.288413
H	 0.4583910045	 0.7416899702	-3.1572196484	 0.065741
H	-0.9451697209	-0.7696694988	-4.22456376	 0.288759
69.2729	149.6155	182.367	221.8074	246.5197	261.6658	270.2659	361.2703	422.8595	483.858	588.3228	601.0036	632.3037	688.5417	752.8885	811.4112	834.1955	896.4593	902.6777	928.5833	953.5428	1002.5565	1071.4523	1102.3445	1123.2876	1134.9393	1138.2285	1176.74	1179.4237	1203.5051	1233.795	1264.7776	1273.2565	1303.9681	1325.3457	1343.3166	1379.7676	1410.1721	1428.5458	1469.7108	1474.2904	1501.5308	1507.2876	2998.3991	3029.4907	3035.3973	3064.3194	3101.7046	3104.2177	3108.3177	3157.5006	3387.1194	3728.011	3819.8233
CCC12NC(C1O)C2O	CC[C@@]12N[C@@H]([C@H]1O)[C@H]2O	
InChI=1S/C6H11NO2/c1-2-6-4(8)3(7-6)5(6)9/h3-5,7-9H,2H2,1H3	InChI=1S/C6H11NO2/c1-2-6-4(8)3(7-6)5(6)9/h3-5,7-9H,2H2,1H3/t3-,4-,5-,6+/m1/s1
