21
gdb 101646	2.91844	0.82478	0.76033	1.5344	82.12	-0.2498	0.0347	0.2845	1607.315	0.178187	-424.180459	-424.16924	-424.168296	-424.217423	39.878	
C	-0.0056252415	 1.4168198204	-0.059231383	-0.23689
O	-0.0188696351	 0.0167114396	 0.0973951426	-0.250021
C	-1.3097893035	-0.5813417409	 0.013944146	 0.137528
C	-1.7640589358	-0.7426489911	-1.4387434048	-0.408229
C	-1.2045122449	-1.9277239892	 0.7308509329	-0.20684
C	-0.8822964431	-1.7668599347	 2.2287623454	-0.067706
O	-1.8812601485	-1.0043415211	 2.9081062808	-0.421042
C	-0.6751331038	-3.0674462344	 2.8697142272	 0.295618
C	-0.556375834	-4.1478937756	 3.3840529274	-0.4418
H	 1.0230508048	 1.7484795465	 0.1040511361	 0.125907
H	-0.3147644143	 1.7331125424	-1.0663133163	 0.104395
H	-0.6587776942	 1.9132857585	 0.674523597	 0.111302
H	-2.0310295887	 0.0460528641	 0.5594828122	 0.079976
H	-1.0635085437	-1.3785012069	-1.9893976053	 0.122544
H	-2.7575579982	-1.2003441916	-1.4836407307	 0.113804
H	-1.8222391847	 0.2233547635	-1.9484681353	 0.116876
H	-2.1447907232	-2.4810232763	 0.6221172061	 0.093524
H	-0.41737103	-2.5262166273	 0.2583991253	 0.116311
H	 0.0305020022	-1.1678347079	 2.3087986644	 0.134362
H	-2.6424114039	-1.5805898378	 3.0403136453	 0.283003
H	-0.4307040759	-5.0937545503	 3.8504694066	 0.197375
45.6341	68.6234	95.3257	121.8748	181.9303	206.5867	225.1013	247.5306	287.8413	308.331	340.0441	398.9188	461.3171	519.3089	564.9057	572.977	627.5551	671.4011	807.494	853.2571	916.2746	935.2905	1005.1282	1052.855	1091.6796	1120.0266	1126.3578	1166.0328	1183.0482	1193.5779	1249.2107	1269.1772	1304.3639	1345.4296	1389.0435	1391.9214	1405.7953	1425.0235	1463.4904	1479.6853	1483.3713	1494.2002	1501.5789	1512.2819	2231.448	2979.45	2995.0124	3027.8894	3035.3038	3040.5678	3068.3142	3087.7998	3109.0628	3109.8303	3113.9007	3503.0372	3802.436
COC(C)CC(O)C#C	CO[C@@H](C)C[C@@H](O)C#C	
InChI=1S/C7H12O2/c1-4-7(8)5-6(2)9-3/h1,6-8H,5H2,2-3H3	InChI=1S/C7H12O2/c1-4-7(8)5-6(2)9-3/h1,6-8H,5H2,2-3H3/t6-,7-/m0/s1
