15
gdb 81116	2.61462	1.76348	1.28758	3.7472	71.27	-0.2517	-0.0225	0.2292	969.2372	0.113401	-416.761676	-416.75436	-416.753415	-416.793198	29.038	
N	 0.2229450003	 1.4039995882	-0.0527997455	-0.513604
C	 0.1034383125	-0.0068125227	-0.0115091715	 0.022637
C	-0.0697526792	-0.6132368426	 1.4264228491	-0.014034
O	-1.4869887262	-0.223863723	 1.365259517	-0.317343
C	-1.3796136888	-0.6817712841	-0.0203219448	 0.258467
C	-1.0212414082	-2.1562469735	 0.1335098783	-0.128136
C	-0.1279978418	-2.1080980109	 1.1276591655	-0.087307
C	-2.4208969447	-0.2450681394	-0.9174499303	 0.154964
N	-3.2058195953	 0.1322768298	-1.6777061028	-0.333477
H	 0.2265082514	 1.7679858326	-0.9982163975	 0.248451
H	-0.5167163523	 1.851197707	 0.4788475015	 0.250236
H	 0.8273977002	-0.4872903129	-0.6719970826	 0.097948
H	 0.4620507003	-0.2263715929	 2.2927119477	 0.099745
H	-1.3921549797	-2.9739025822	-0.4649771685	 0.134551
H	 0.4517262714	-2.8921495733	 1.5902700945	 0.126902
122.6432	166.8062	265.1021	313.4055	380.1278	482.6476	489.5801	524.1487	549.1058	556.4044	666.6632	706.515	731.3333	790.5595	844.3197	853.8663	903.0444	915.9165	921.9487	979.9211	1007.2089	1077.5161	1119.9764	1172.7777	1207.3192	1234.4804	1258.7454	1295.5919	1313.0824	1417.8303	1602.1372	1647.217	2356.1654	3107.4177	3158.424	3243.8898	3269.3298	3516.3737	3607.6457
NC1C2OC1(C=C2)C#N	N[C@H]1[C@H]2O[C@@]1(C=C2)C#N	
InChI=1S/C6H6N2O/c7-3-6-2-1-4(9-6)5(6)8/h1-2,4-5H,8H2	InChI=1S/C6H6N2O/c7-3-6-2-1-4(9-6)5(6)8/h1-2,4-5H,8H2/t4-,5-,6-/m0/s1
