19
gdb 99855	2.11389	1.38253	1.05049	3.9635	71.51	-0.2697	0.0203	0.2899	1208.4758	0.157658	-456.341909	-456.331557	-456.330613	-456.376713	38.048	
C	-0.1929880057	 1.5602025214	-0.1127713102	-0.4289
C	-0.0267816471	 0.0389304381	-0.0256083095	 0.144158
O	 0.6305596493	-0.470177412	-1.1643790753	-0.433898
C	 0.7432250663	-0.4292413898	 1.2489032289	 0.017981
N	 2.1514383781	-0.0195551489	 1.1031072214	-0.538406
C	 0.0977621066	 0.0550809057	 2.5755231842	-0.104247
O	 0.786657545	-0.438272464	 3.7039143257	-0.419183
C	 0.7122955376	-1.9054507227	 1.2892346747	 0.306141
N	 0.6548641293	-3.0516244099	 1.4254554718	-0.344005
H	 0.7728142436	 2.0761771583	-0.0888922948	 0.116172
H	-0.6655725852	 1.7978127141	-1.0687285581	 0.141256
H	-0.8239305891	 1.9582644216	 0.6880242829	 0.120711
H	-1.0196934867	-0.424833257	-0.0064658268	 0.103019
H	 1.5779233438	-0.3646122602	-0.9882244269	 0.292028
H	 2.2197042291	 0.9796682287	 1.2786621867	 0.242047
H	 2.707378141	-0.4683794212	 1.8249742405	 0.256017
H	 0.1765844457	 1.1450928583	 2.6223814324	 0.117655
H	-0.9697385116	-0.2102225923	 2.5914964286	 0.109818
H	 0.6217373002	-1.3869926284	 3.7634839737	 0.301637
83.887	118.7978	151.299	158.8163	223.8335	229.2763	262.5004	300.242	318.2741	355.5711	408.3261	424.1094	449.4505	514.6796	530.1609	588.0058	666.4641	730.8566	881.1348	901.2782	928.9318	994.8426	1030.527	1056.7086	1102.7466	1111.5989	1130.4321	1165.7859	1244.0228	1283.1526	1334.1842	1381.1861	1385.7571	1404.0926	1424.3152	1439.844	1491.7339	1494.0335	1502.3097	1657.7614	2354.6554	2998.3905	3039.9096	3047.8915	3090.7905	3110.9438	3127.0375	3495.5973	3573.3054	3713.0819	3791.4167
CC(O)C(N)(CO)C#N	C[C@@H](O)[C@@](N)(CO)C#N	
InChI=1S/C5H10N2O2/c1-4(9)5(7,2-6)3-8/h4,8-9H,3,7H2,1H3	InChI=1S/C5H10N2O2/c1-4(9)5(7,2-6)3-8/h4,8-9H,3,7H2,1H3/t4-,5+/m1/s1
