20
gdb 41644	3.02011	1.94993	1.57442	1.9836	79.63	-0.2358	0.0754	0.3112	917.3584	0.175904	-365.976701	-365.970417	-365.969473	-366.006931	27.296	
C	-0.0336169105	 1.5342804689	-0.2405454905	-0.198638
C	 1.3678267456	 2.1305076262	-0.025979552	-0.231202
C	 1.9944220514	 1.6481144236	 1.2826583289	 0.006563
C	 1.1853926664	 1.6246073784	 2.5764262148	-0.06214
C	 0.3505222292	 0.3831912936	 2.5802147041	-0.062142
C	 0.6302463315	-0.3804415483	 1.2888796569	 0.006566
C	-0.0565579998	 0.0123816291	-0.0194939785	-0.231202
C	 2.073925292	 0.1223759638	 1.5139953549	-0.029996
N	 1.7835020539	 0.322312132	 3.0315082109	-0.174234
H	-0.7308416466	 2.0053005497	 0.462783108	 0.102686
H	-0.3963078893	 1.7751036005	-1.2454965943	 0.090664
H	 2.0288245835	 1.8409607049	-0.8549638147	 0.095013
H	 1.3161059585	 3.2257661453	-0.0431434758	 0.095697
H	 2.9692102231	 2.1105696891	 1.4646429421	 0.076847
H	 1.0121889407	 2.4353531352	 3.2758151952	 0.087657
H	-0.4637007858	 0.2407931273	 3.2825081798	 0.087656
H	 0.5701427027	-1.4568810817	 1.4755943851	 0.076849
H	-1.0904616126	-0.3529159954	-0.0321987764	 0.095695
H	 0.4585945567	-0.4940719717	-0.8478017036	 0.095012
H	 2.9387195795	-0.4601474404	 1.2000319053	 0.072647
221.6751	238.4699	356.918	369.4184	455.1179	590.0597	636.2304	730.9921	738.4556	788.5709	806.503	812.5068	852.5263	872.6168	889.8802	927.8297	951.4525	978.1278	985.365	1019.1959	1042.7386	1059.5711	1085.5233	1100.3825	1109.1696	1113.5222	1135.7817	1193.2655	1200.5304	1238.0258	1251.866	1268.7665	1314.3389	1325.4801	1348.2748	1354.6151	1374.268	1376.4636	1397.5637	1401.081	1479.2671	1483.2758	1497.4563	3010.1221	3011.5969	3029.5207	3052.8412	3055.7187	3065.1731	3066.2069	3075.5083	3127.5285	3166.7445	3178.7733
C1CC2C3C4C(C1)C2N34	C1C[C@H]2[C@H]3[C@H]4[C@@H](C1)[C@@H]2N34	
InChI=1S/C8H11N/c1-2-4-6-5(3-1)8-7(4)9(6)8/h4-8H,1-3H2	InChI=1S/C8H11N/c1-2-4-6-5(3-1)8-7(4)9(6)8/h4-8H,1-3H2/t4-,5+,6-,7+,8-,9?
