16
gdb 31933	6.5787	0.84837	0.75579	7.654	82.89	-0.2066	-0.0452	0.1614	1445.3188	0.125181	-434.104304	-434.095781	-434.094837	-434.137727	30.655	
C	 0.0675003063	 1.4082700957	 0.0157755917	-0.330492
N	 0.0213030096	-0.0446643028	 0.1087312294	-0.399961
C	-1.2205009168	-0.6434235353	 0.0338441205	 0.386034
C	-2.5117015424	-0.1214677348	 0.017329308	-0.155841
N	-3.4305616345	-1.1223391025	 0.0092193168	-0.264933
C	-2.7502679862	-2.2544384355	 0.0155403185	 0.246102
N	-1.3846812191	-1.9966830901	 0.0316971973	-0.37096
C	-3.2488383589	-3.6206954744	-0.0042545573	 0.082718
O	-4.4104886815	-3.956926786	-0.0077913764	-0.267307
H	 1.1047693381	 1.734697198	 0.1123048077	 0.134129
H	-0.3419597624	 1.7993780674	-0.9272293755	 0.126616
H	-0.5025361045	 1.8416978036	 0.842594603	 0.149693
H	 0.7329741289	-0.5020557824	-0.4449186207	 0.24234
H	-2.8005415103	 0.9178037352	 0.0080332417	 0.112344
H	-0.6501813092	-2.6826428552	 0.0997653646	 0.266362
H	-2.4275534469	-4.3798763908	-0.0144141493	 0.043156
73.0101	132.1136	152.5507	199.241	252.4405	259.256	336.9576	382.8359	478.1769	516.9035	596.0642	681.5927	700.6141	723.2906	803.1369	817.3794	989.6603	1009.6274	1034.05	1097.36	1142.3579	1160.9845	1182.4474	1237.279	1306.8597	1378.6044	1413.2261	1457.0217	1461.0845	1486.8462	1492.6811	1514.9579	1539.6672	1632.1364	1797.2506	2816.131	2997.0889	3086.1984	3132.8101	3256.4322	3570.9449	3648.9488
CNC1=CN=C(N1)C=O	CNc1cnc([nH]1)C=O	
InChI=1S/C5H7N3O/c1-6-4-2-7-5(3-9)8-4/h2-3,6H,1H3,(H,7,8)	InChI=1S/C5H7N3O/c1-6-4-2-7-5(3-9)8-4/h2-3,6H,1H3,(H,7,8)
