22
gdb 120964	3.39595	1.00108	0.9799	1.7174	82.31	-0.218	0.0835	0.3015	1361.8549	0.195163	-404.327422	-404.318604	-404.31766	-404.36132	33.654	
C	-0.0008940504	 1.4330237876	 0.8346694502	-0.385255
C	-0.0596292275	-0.0212376237	 0.3975691568	-0.041259
O	 0.776628555	-0.7788420721	 1.2512960167	-0.250148
C	 0.8560222341	-2.162126491	 0.9246207196	 0.091907
C	 2.0508870259	-2.7725952109	 1.6837375804	-0.244064
C	 1.4414132926	-3.3827631228	 2.9361309728	-0.016877
C	 0.4925051076	-2.5512710237	 3.7199240057	-0.248894
N	-0.0164256724	-3.5500463822	 2.761803745	-0.100563
C	-0.3516737059	-2.9873010979	 1.4421497097	-0.17726
H	 1.0262294731	 1.805793173	 0.7894430432	 0.12697
H	-0.6257768469	 2.0518928002	 0.1838625504	 0.115568
H	-0.3589559037	 1.5409227581	 1.8625756177	 0.126732
H	-1.0978170841	-0.3880603882	 0.4335264168	 0.089739
H	 0.2813968932	-0.1271737758	-0.646317322	 0.087019
H	 0.9707917457	-2.2616339696	-0.1646096061	 0.06689
H	 2.519526314	-3.5569583621	 1.0799809754	 0.104197
H	 2.8038080794	-2.0067504266	 1.8859058915	 0.118116
H	 1.9670696438	-4.2040437806	 3.415285966	 0.085005
H	 0.2967194709	-2.7952495258	 4.7604418979	 0.108043
H	 0.4129142016	-1.4995710436	 3.4637011671	 0.131891
H	-1.2656014617	-2.3884032558	 1.5002077555	 0.108854
H	-0.5465564643	-3.8273303664	 0.7651340395	 0.103391
66.9486	94.6343	132.3044	218.2149	253.8581	287.6903	342.5226	411.3059	426.6549	468.426	671.5228	737.0422	778.5566	816.431	823.8087	847.5927	870.0143	904.5136	931.2214	980.5086	999.8558	1018.747	1069.0472	1095.7233	1099.1334	1123.0384	1138.1691	1154.9646	1175.4337	1187.9608	1207.3641	1251.8203	1260.1647	1286.6951	1297.7257	1331.8555	1335.2518	1371.5931	1396.4992	1404.371	1437.8837	1474.1662	1482.8597	1484.086	1499.4399	1509.9654	1529.5183	2958.5821	2988.4172	2992.4803	3036.9503	3044.8352	3053.5913	3088.9694	3106.3458	3114.1237	3118.9718	3121.7848	3144.9514	3209.5771
CCOC1CC2CN2C1	CCO[C@H]1C[C@H]2CN2C1	
InChI=1S/C7H13NO/c1-2-9-7-3-6-4-8(6)5-7/h6-7H,2-5H2,1H3	InChI=1S/C7H13NO/c1-2-9-7-3-6-4-8(6)5-7/h6-7H,2-5H2,1H3/t6-,7-,8?/m0/s1
