15
gdb 27113	3.18532	1.32594	0.98771	2.0002	70.19	-0.2025	-0.0354	0.1671	1130.0028	0.112724	-453.981906	-453.973606	-453.972661	-454.01546	29.828	
N	-0.2024229422	 1.3259173996	-0.4183199438	-0.59729
C	-0.1010694967	-0.0117985231	-0.1047196072	 0.221459
C	-1.0731257751	-0.9695704063	-0.0067668728	 0.235885
C	-2.5610765194	-0.9397294662	-0.0999542846	-0.391852
C	-2.9183370278	-0.2784176146	-1.4230276444	 0.153653
O	-3.1238372173	 0.9048847677	-1.5362471158	-0.247108
O	-0.4289338848	-2.1724805192	 0.235933347	-0.177548
C	 0.8725658858	-1.8504854169	 0.2914731133	 0.06889
N	 1.1403630429	-0.5983159413	 0.0997288221	-0.299898
H	 0.5294650291	 1.9005225931	-0.0292823258	 0.258132
H	-1.1268044543	 1.7260424691	-0.3568349668	 0.263756
H	-2.9437696738	-1.9638253429	-0.0667933901	 0.134757
H	-3.0168551462	-0.3613872032	 0.7133063828	 0.131257
H	-2.9095561833	-0.9503822746	-2.3076154911	 0.095419
H	 1.5669836831	-2.6524194713	 0.4881830273	 0.150488
69.1282	76.8941	149.7804	231.1401	284.2722	334.8899	349.6708	438.1344	501.229	532.5166	629.6418	662.5994	739.3841	749.649	835.335	884.2263	952.4731	969.0538	1044.5789	1047.8197	1141.1039	1176.1018	1239.2668	1257.1758	1302.8057	1330.3966	1414.8648	1427.0408	1459.631	1552.9001	1625.2001	1691.0001	1812.1856	2907.2734	3025.3418	3103.4691	3273.1382	3573.0878	3685.6502
NC1=C(CC=O)OC=N1	Nc1c(CC=O)ocn1	
InChI=1S/C5H6N2O2/c6-5-4(1-2-8)9-3-7-5/h2-3H,1,6H2	InChI=1S/C5H6N2O2/c6-5-4(1-2-8)9-3-7-5/h2-3H,1,6H2
