12
gdb 21539	3.72727	1.94674	1.28038	3.5467	67.71	-0.2117	-0.0278	0.1839	865.52	0.084986	-373.670059	-373.663032	-373.662087	-373.701084	26.319	
N	 0.0693953583	 1.3945995043	 0.1584701083	-0.609495
C	-0.0106977937	 0.0229144525	 0.0506460729	 0.194898
C	-1.137732189	-0.7937989668	 0.019901709	 0.208692
N	-0.5902052977	-2.0526004967	-0.0228704062	-0.280497
N	 0.737318364	-2.0187872777	-0.0215764628	-0.107834
N	 1.0993799429	-0.7604390765	 0.0210356869	-0.237977
C	-2.5094461901	-0.5101332497	 0.0254755311	 0.2674
C	-3.6864866093	-0.2475350922	 0.0231255927	-0.44105
H	 0.963425922	 1.7601669857	-0.1379126841	 0.262678
H	-0.7093556877	 1.8985963816	-0.2398571192	 0.258767
H	-1.0730511534	-2.9365491335	-0.0572579314	 0.284868
H	-4.7230508963	-0.017101621	 0.0345980029	 0.199552
131.3198	163.3573	286.4289	315.1948	361.5238	472.2147	517.488	525.3653	540.1582	602.319	622.2912	694.0259	706.0778	752.5276	775.2801	1004.6508	1087.5015	1139.6862	1223.9742	1254.3364	1339.1439	1390.0917	1525.5977	1608.6349	1653.1808	2224.1347	3499.8543	3564.5536	3655.2266	3668.4084
NC1=C(NN=N1)C#C	Nc1c([nH]nn1)C#C	
InChI=1S/C4H4N4/c1-2-3-4(5)7-8-6-3/h1H,(H3,5,6,7,8)	InChI=1S/C4H4N4/c1-2-3-4(5)7-8-6-3/h1H,(H3,5,6,7,8)
