19
gdb 53195	3.80641	0.96345	0.86693	0.2226	89.12	-0.2256	0.0187	0.2443	1409.2938	0.159444	-348.726357	-348.717609	-348.716665	-348.761527	32.325	
C	 0.0522452669	 1.5575377928	-0.0856962783	-0.497043
C	 0.0462659662	 0.1025297332	-0.0259088215	 0.025892
C	 0.038618378	-1.1010598126	 0.0187799261	 0.109503
C	 0.0352334704	-2.5622940621	 0.0845212075	-0.222463
C	 0.6112423756	-3.1166347144	 1.3879351699	-0.082509
C	-0.201122574	-4.0068770157	 1.9574241402	-0.080098
C	-1.4782509276	-4.161351325	 1.202264812	-0.080658
C	-2.3340891767	-2.9091371254	 1.1381454902	-0.275355
C	-1.3644505016	-3.2052001354	 0.0282743145	-0.039475
H	 0.8011328805	 1.9256612735	-0.7959712654	 0.144876
H	-0.9218254262	 1.9471341796	-0.4023488239	 0.145959
H	 0.2806127421	 1.9968844081	 0.891893082	 0.145209
H	 0.6323184507	-2.9409461163	-0.7593405086	 0.10417
H	 1.5617067267	-2.7721869701	 1.7766944246	 0.101417
H	 0.0036285644	-4.5379809454	 2.8804055012	 0.096774
H	-1.9525282365	-5.1328055054	 1.1171861339	 0.085982
H	-3.3875641765	-3.032111696	 0.9089097958	 0.107904
H	-2.1078595824	-2.1042454111	 1.8293523915	 0.120495
H	-1.762714	-3.4597875422	-0.9459784617	 0.089419
17.6712	78.4919	93.8139	212.3351	265.1409	332.4331	368.1937	445.0859	472.2593	533.8965	682.7378	740.5163	767.0626	794.7302	822.9931	836.6644	916.032	945.1092	950.246	988.9643	1011.3211	1051.575	1053.5759	1055.1621	1066.8947	1087.9424	1102.4592	1135.2716	1178.751	1199.8002	1260.0061	1299.6929	1313.3419	1370.8408	1377.4376	1415.1512	1478.5214	1479.3117	1479.5554	1670.7761	2368.6187	2978.0465	3023.8099	3083.2672	3083.4669	3126.6031	3166.4609	3183.8866	3187.9718	3216.5131	3217.4786
CC#CC1C=CC2CC12	CC#C[C@H]1C=C[C@H]2C[C@@H]12	
InChI=1S/C9H10/c1-2-3-7-4-5-8-6-9(7)8/h4-5,7-9H,6H2,1H3	InChI=1S/C9H10/c1-2-3-7-4-5-8-6-9(7)8/h4-5,7-9H,6H2,1H3/t7-,8-,9-/m0/s1
