22
gdb 112431	1.91691	1.53418	0.95232	3.2962	83.6	-0.2519	0.0344	0.2864	1317.6707	0.194661	-404.388149	-404.378721	-404.377777	-404.422374	35.632	
C	 0.0960323196	 1.5620843048	-0.1480403326	-0.385436
C	 0.1136692387	 0.0351706544	-0.0314421866	-0.184939
C	-1.2907827994	-0.5717021391	-0.0261296	 0.102775
O	-1.9948975377	-0.187948866	-1.2321010497	-0.246495
C	-2.0318517182	-1.2190789461	-2.1308624699	 0.407879
N	-2.555621878	-1.1508102299	-3.2776564014	-0.545821
C	-1.3649034168	-2.4325750741	-1.525946983	-0.311863
C	-1.3726034305	-2.1193102806	-0.0222529457	 0.000143
C	-0.3234692337	-2.8541072853	 0.8080698455	-0.419179
H	 1.1125245009	 1.9658192343	-0.1608732321	 0.113248
H	-0.4097652905	 1.8750739929	-1.0647003774	 0.136386
H	-0.4333348708	 2.0157528852	 0.6973784259	 0.11434
H	 0.6952596579	-0.3944120538	-0.8568321318	 0.101529
H	 0.6191998789	-0.2603191159	 0.8953990485	 0.102961
H	-1.8610247734	-0.1423987085	 0.8054507598	 0.084468
H	-2.9289674839	-0.2138561908	-3.4420020945	 0.217827
H	-1.8903111247	-3.3478502726	-1.8006994474	 0.133762
H	-0.3403937841	-2.5143669835	-1.9094496395	 0.125638
H	-2.3655770511	-2.3773142855	 0.3663472834	 0.088818
H	 0.6895546241	-2.66847629	 0.4380944837	 0.122928
H	-0.3597773855	-2.5521484912	 1.8602735356	 0.118902
H	-0.4963656019	-3.9341558087	 0.7701388191	 0.122128
87.2768	111.4313	125.4691	189.13	230.086	245.7055	267.6145	332.0888	429.1844	479.4652	487.7419	526.2294	612.272	677.8506	776.3377	845.7052	856.5984	896.6393	903.6804	929.6785	961.1738	978.2794	1032.8744	1055.6819	1086.9762	1095.0431	1123.1727	1136.9694	1184.4528	1200.4739	1268.7238	1286.0578	1301.1435	1319.1304	1353.5871	1374.3432	1392.2569	1404.6154	1412.3277	1418.2587	1473.7284	1479.7271	1497.3211	1498.6955	1502.263	1509.9447	1777.2966	3020.0717	3027.2228	3034.9097	3038.3909	3042.3413	3045.6414	3069.8785	3100.3774	3104.2569	3108.3862	3127.0296	3127.2522	3465.86
CCC1OC(=N)CC1C	CC[C@H]1O[C]([NH])C[C@H]1C	
InChI=1S/C7H13NO/c1-3-6-5(2)4-7(8)9-6/h5-6,8H,3-4H2,1-2H3	InChI=1S/C7H13NO/c1-3-6-5(2)4-7(8)9-6/h5-6,8H,3-4H2,1-2H3/t5-,6-/m1/s1
