18
gdb 66483	3.00927	1.74949	1.40238	0.7757	74.73	-0.2142	0.0682	0.2824	969.587	0.147892	-401.854143	-401.846841	-401.845897	-401.885324	29.997	
C	 0.0401017247	 1.5383995964	 0.0527751527	-0.52978
C	-0.0386949371	 0.0478038546	 0.0121475299	 0.343788
C	 0.8734173846	-1.0064045292	-0.5468572432	-0.08134
C	 0.4981736691	-1.0424217284	 0.9340790898	-0.175799
C	-0.7602438177	-1.9293401585	 0.8150488098	 0.370771
O	-1.4372187135	-2.1656130484	 1.998876192	-0.478917
C	-0.4311093185	-2.9747292509	-0.2745855718	-0.241357
N	-0.207531578	-1.810620691	-1.2064470546	-0.153762
C	-1.1660312657	-0.9514520893	-0.3576159397	-0.162737
H	 1.0483625467	 1.8650054149	 0.3296283701	 0.123895
H	-0.1957958346	 1.9767768573	-0.9236192626	 0.126104
H	-0.6567107281	 1.9564488183	 0.7879209773	 0.125389
H	 1.881681054	-0.9412029047	-0.9368127972	 0.089568
H	 1.2005787065	-0.9776793353	 1.7540474385	 0.090487
H	-2.2408654636	-2.6571191887	 1.7975626236	 0.283525
H	 0.4228037718	-3.6457072642	-0.1415323692	 0.103527
H	-1.3090546645	-3.540140383	-0.6079254389	 0.094735
H	-2.168985336	-0.7543734698	-0.7348217766	 0.071905
182.4526	206.3392	247.3859	297.4342	333.4936	374.4817	456.9609	575.1311	583.8899	612.6546	732.1899	784.1852	813.8176	843.7109	859.3991	871.125	891.1632	927.4403	962.2362	1004.2787	1026.3505	1036.4702	1061.755	1088.8197	1102.7475	1118.6188	1148.4672	1162.3008	1177.6252	1224.4609	1243.7843	1252.1519	1308.6332	1397.5276	1410.9865	1460.6002	1484.7222	1494.1376	1497.2386	3023.5669	3035.1471	3085.7172	3093.8155	3099.0272	3119.9995	3186.7962	3210.7414	3805.0521
CC12C3C1C1(O)CN3C21	C[C@@]12[C@H]3[C@@H]1[C@]1(O)CN3[C@H]21	
InChI=1S/C7H9NO/c1-6-3-4(6)8-2-7(3,9)5(6)8/h3-5,9H,2H2,1H3	InChI=1S/C7H9NO/c1-6-3-4(6)8-2-7(3,9)5(6)8/h3-5,9H,2H2,1H3/t3-,4+,5+,6-,7+/m0/s1
