18
gdb 14980	4.26453	1.495	1.16356	2.2964	69.27	-0.2491	0.0185	0.2676	1022.6571	0.154976	-384.942682	-384.935073	-384.934129	-384.974584	28.947	
O	 0.0254592728	 1.4116520507	 0.0738193904	-0.427033
C	 0.0457762863	 0.0014595448	 0.0093904961	-0.067129
C	-1.3632184684	-0.5765076335	-0.027401647	 0.10162
C	-1.4094323615	-2.1048743421	-0.08862309	-0.265487
C	-2.7917157268	-2.5994267789	 0.2506704407	-0.064214
C	-3.6955555115	-1.8105163476	 0.8257373158	-0.06455
C	-3.378792799	-0.3945650469	 1.2194300568	-0.117356
O	-1.9940925205	-0.1057210612	 1.1648938179	-0.277977
H	-0.5986135849	 1.6259835686	 0.7779881272	 0.288117
H	 0.5855304742	-0.2765005944	-0.902082342	 0.105364
H	 0.5826677787	-0.4356769907	 0.8677657054	 0.088752
H	-1.8937098444	-0.1596206247	-0.8995497063	 0.074352
H	-1.1232655135	-2.4399402235	-1.0937646823	 0.1086
H	-0.6691306781	-2.5348168312	 0.6013871933	 0.113135
H	-3.0363065485	-3.6281309247	 0.0003968079	 0.092115
H	-4.7022677463	-2.1609523043	 1.0364145724	 0.093038
H	-3.9467339911	 0.311347098	 0.5855449192	 0.100524
H	-3.6871956974	-0.2062386585	 2.2549192146	 0.118129
105.9689	136.5872	199.6076	229.6652	378.6954	389.9286	454.8251	460.6767	526.2033	545.5285	669.6665	794.6081	838.4695	910.4575	927.367	965.0406	996.7317	1034.5739	1053.4552	1082.4059	1095.3804	1114.3671	1125.0405	1205.1448	1209.1414	1240.9855	1276.3154	1297.4143	1364.9352	1378.0751	1393.6869	1407.7003	1412.006	1444.7439	1469.7789	1488.8006	1498.4129	1727.9399	2936.5615	2963.3833	2976.4758	3008.0591	3047.2274	3048.1776	3076.0732	3154.6172	3177.6088	3788.0546
OCC1CC=CCO1	OC[C@H]1CC=CCO1	
InChI=1S/C6H10O2/c7-5-6-3-1-2-4-8-6/h1-2,6-7H,3-5H2	InChI=1S/C6H10O2/c7-5-6-3-1-2-4-8-6/h1-2,6-7H,3-5H2/t6-/m1/s1
