22
gdb 22825	2.08841	1.49591	0.94528	0.7938	85.6	-0.2374	0.0165	0.254	1296.1256	0.195285	-404.340804	-404.331713	-404.330769	-404.374307	35.527	
C	-0.1194946951	 1.5439296768	 0.0201398643	-0.396294
C	 0.0570857148	 0.0246835688	 0.0461308718	-0.042102
C	 0.7759598896	-0.4927197052	-1.2218934408	-0.184536
C	 0.9520151606	-2.0163360834	-1.2126680902	-0.201296
C	 1.6992341488	-2.4815478385	 0.0426502872	-0.191454
C	 1.0036262527	-1.9900100536	 1.3276867493	-0.293888
C	 0.77487833	-0.4982554106	 1.2756012648	 0.37079
N	 1.1432236516	 0.3515422705	 2.1548691602	-0.198085
O	 1.8007510935	-0.2389011041	 3.2504279739	-0.403189
H	 0.8496643403	 2.0509721432	 0.0050168873	 0.121952
H	-0.6777679222	 1.840784836	-0.8737427143	 0.099829
H	-0.6582334822	 1.8986758869	 0.9016101988	 0.122357
H	-0.9424674438	-0.4404534562	 0.0526570774	 0.079986
H	 0.2108568044	-0.1779295411	-2.1067793808	 0.092559
H	 1.760354903	-0.0092416004	-1.2894618089	 0.098621
H	-0.0359492134	-2.4967024818	-1.2475372323	 0.092113
H	 1.4862593411	-2.339658776	-2.1131523902	 0.093069
H	 1.7785774348	-3.57391404	 0.0631573487	 0.094361
H	 2.7250141091	-2.0915069318	 0.0212544638	 0.104124
H	 0.0250188997	-2.4839123516	 1.4125400958	 0.1068
H	 1.5792541259	-2.2537163447	 2.2144629737	 0.131585
H	 2.0069685266	 0.5299927768	 3.7914665307	 0.302696
75.558	148.8347	210.496	235.733	256.2448	296.2624	329.1932	355.27	415.8285	421.1297	453.5298	510.9758	594.8775	659.3576	752.5851	823.1523	836.6643	872.0168	905.6452	943.2156	974.189	991.0271	1006.1859	1074.1015	1093.5824	1103.088	1136.7514	1158.1601	1173.0897	1252.1994	1265.5576	1281.4995	1322.8205	1348.0418	1354.4855	1371.144	1379.5999	1380.1902	1405.8787	1417.4601	1479.0596	1483.7104	1487.2608	1489.3576	1496.8739	1502.0174	1731.0961	2969.706	3009.5834	3010.399	3015.6816	3026.1882	3040.9017	3061.0405	3063.924	3072.5039	3108.7394	3125.0076	3136.0177	3825.3438
CC1CCCCC1=NO	C[C@H]1CCCCC1=NO	
InChI=1S/C7H13NO/c1-6-4-2-3-5-7(6)8-9/h6,9H,2-5H2,1H3	InChI=1S/C7H13NO/c1-6-4-2-3-5-7(6)8-9/h6,9H,2-5H2,1H3/t6-/m0/s1
