20
gdb 112046	2.5599	1.43179	1.03892	1.5456	79.63	-0.2344	0.0226	0.257	1210.1079	0.171139	-403.154189	-403.145539	-403.144594	-403.188069	32.704	
C	 0.1282488634	 1.6219357566	 0.0818209991	-0.384121
C	 0.0707780254	 0.0927114328	 0.0794298748	-0.168817
C	 0.6014356105	-0.5187845616	-1.2231591235	-0.072501
N	 2.0236428402	-0.1697956312	-1.4357656526	-0.271991
C	 2.6431326446	-1.267971624	-1.5528197318	 0.104112
O	 1.9686809772	-2.4388197003	-1.4836525265	-0.248464
C	 0.5968646893	-2.0596699925	-1.2814756444	 0.419442
C	-0.2238066917	-3.0017116986	-0.4593942532	-0.331207
C	-0.425881545	-2.9083414826	-1.9633430167	-0.322802
H	 1.1544657033	 1.9687591884	-0.0605397882	 0.142929
H	-0.4806529656	 2.0403393014	-0.7275812885	 0.110654
H	-0.2485897518	 2.0265262923	 1.0260253192	 0.107475
H	 0.6508522254	-0.3105671114	 0.9181440881	 0.100849
H	-0.9652902925	-0.2385943957	 0.2251376751	 0.091863
H	 0.022077161	-0.1060299739	-2.0603822646	 0.087548
H	 3.7106765039	-1.3773426381	-1.7100410296	 0.138608
H	 0.2785836765	-3.8839210604	-0.0789219338	 0.128608
H	-0.9842409949	-2.59322081	 0.1964214241	 0.122622
H	-1.3205100611	-2.4195107656	-2.3368706619	 0.118581
H	-0.067296518	-3.7318480957	-2.5705168249	 0.126612
43.6122	100.0665	178.414	214.1759	266.4014	284.7309	320.1644	416.3259	507.0086	528.939	588.4099	757.6762	763.7013	809.7912	848.3019	880.5481	908.9477	942.2817	960.3772	963.9939	974.2728	991.7482	1053.1708	1072.2082	1076.5697	1118.6102	1147.2596	1157.5854	1188.7407	1227.7645	1275.1597	1291.7219	1335.1542	1344.6061	1364.2394	1386.4113	1408.4216	1452.1133	1481.0085	1495.1135	1498.0252	1509.3945	1705.1553	3004.6728	3022.5646	3036.6762	3063.3677	3100.8019	3127.1286	3128.3158	3139.9741	3211.978	3215.7422	3231.7768
CCC1N=COC11CC1	CC[C@H]1N=COC21CC2	
InChI=1S/C7H11NO/c1-2-6-7(3-4-7)9-5-8-6/h5-6H,2-4H2,1H3	InChI=1S/C7H11NO/c1-2-6-7(3-4-7)9-5-8-6/h5-6H,2-4H2,1H3/t6-/m1/s1
