17
gdb 6648	7.10781	0.74108	0.68232	5.795	69.72	-0.2579	-0.0227	0.2352	1572.8397	0.139714	-363.90733	-363.897876	-363.896931	-363.943333	31.606	
C	 0.0127841526	 1.5319434138	-0.043755467	-0.474201
C	-0.0064479585	 0.019572613	 0.0820102492	 0.376047
O	-0.0475398249	-0.536917893	 1.154305616	-0.282192
C	 0.029104655	-0.7668108162	-1.2264576966	-0.309674
C	 0.0072393758	-2.2799980019	-1.0185353792	-0.170039
C	 0.0441941214	-3.0394347151	-2.3586589824	-0.349608
C	 0.0240382375	-4.4905144826	-2.1842248677	 0.259313
N	 0.0077019058	-5.6360171052	-2.0337902544	-0.301282
H	 0.9140655856	 1.8604318176	-0.5735305461	 0.14013
H	-0.8445130422	 1.87794944	-0.6321345165	 0.140121
H	-0.0157054461	 1.9857801375	 0.9472982201	 0.148211
H	-0.8200484625	-0.4395717082	-1.8435359593	 0.123342
H	 0.923513932	-0.4568288973	-1.7858091937	 0.123337
H	 0.8574528539	-2.5803352942	-0.400173544	 0.137921
H	-0.8878622526	-2.5630756694	-0.4580924085	 0.137921
H	-0.811399915	-2.7561439436	-2.9835952872	 0.150325
H	 0.944771262	-2.7735323552	-2.9253123426	 0.150325
29.1219	74.659	93.3816	94.2484	123.9537	214.6892	296.4482	392.954	399.3782	478.5423	541.0338	606.148	724.505	810.2357	817.4927	936.9023	952.842	960.5646	1039.7162	1077.2567	1106.2594	1176.8015	1179.4381	1274.8614	1294.0094	1322.6417	1357.9932	1384.3497	1395.6553	1452.0648	1464.9783	1469.6336	1476.808	1494.8731	1815.2166	2364.0031	3010.4088	3035.1333	3037.6385	3038.6482	3069.1973	3073.4869	3097.2451	3116.9756	3154.7488
CC(=O)CCCC#N	CC(=O)CCCC#N	
InChI=1S/C6H9NO/c1-6(8)4-2-3-5-7/h2-4H2,1H3	InChI=1S/C6H9NO/c1-6(8)4-2-3-5-7/h2-4H2,1H3
