22
gdb 114550	2.61039	1.39256	1.09676	0.9633	81.07	-0.2241	0.0659	0.2899	1205.0419	0.195676	-404.31719	-404.308614	-404.30767	-404.350081	34.228	
C	-0.0158336849	 1.5310278972	-0.0253348002	-0.386982
C	 0.0627265573	 0.0008376361	-0.0416436958	-0.204909
C	 0.7048625154	-0.5748624134	 1.2212426871	 0.01722
C	-0.1363992861	-0.4947616457	 2.5388171592	-0.187535
N	-0.2061484118	-1.9233759158	 2.992359654	-0.124664
C	-0.5296600758	-2.5960459618	 1.6763595583	-0.24539
C	 0.8820107213	-2.1065233311	 1.2347871202	 0.362419
O	 1.6066289508	-2.58948977	 0.1506836772	-0.487329
C	 1.2252291146	-2.3462255703	 2.73336982	-0.240776
H	 0.9816136706	 1.9759918866	 0.0634450514	 0.114537
H	-0.4704544143	 1.9147109155	-0.9438569552	 0.112063
H	-0.6145204972	 1.8948126926	 0.8172107541	 0.115535
H	-0.9452291289	-0.4132426119	-0.173117979	 0.089565
H	 0.6453686621	-0.3302738673	-0.9090930593	 0.11257
H	 1.687289271	-0.1041521285	 1.3517452309	 0.069118
H	 0.3279395324	 0.111734676	 3.3200330069	 0.104507
H	-1.1505281635	-0.120002858	 2.3710601664	 0.104537
H	-0.5933838739	-3.6793198557	 1.8151608076	 0.095812
H	-1.4244682317	-2.2275561735	 1.1685462006	 0.102678
H	 1.6611023041	-3.5482328098	 0.2176309497	 0.282161
H	 1.9904490211	-1.7283871607	 3.2128359743	 0.099401
H	 1.3606820377	-3.3987305304	 2.9986979117	 0.095461
91.7748	157.6462	173.9877	251.4311	293.2606	303.0598	379.2338	416.5937	448.6777	491.9912	569.5408	612.0059	676.0977	775.6519	826.2495	841.0784	861.5262	889.4266	957.1234	960.4761	977.2241	992.0961	1017.9662	1027.9775	1062.5141	1094.0968	1122.5662	1143.5805	1180.3459	1211.1752	1212.9738	1214.8837	1247.9798	1261.563	1292.032	1318.3263	1326.1966	1345.3465	1383.2177	1409.871	1413.632	1486.2589	1496.9483	1499.3299	1500.8632	1507.6156	1533.9168	3018.3909	3027.1649	3030.634	3043.6064	3052.0819	3059.151	3062.2876	3095.6322	3102.2573	3104.2697	3109.4454	3114.6744	3814.8744
CCC1CN2CC1(O)C2	CC[C@H]1CN2C[C@]1(O)C2	
InChI=1S/C7H13NO/c1-2-6-3-8-4-7(6,9)5-8/h6,9H,2-5H2,1H3	InChI=1S/C7H13NO/c1-2-6-3-8-4-7(6,9)5-8/h6,9H,2-5H2,1H3/t6-/m0/s1
