14
gdb 25935	2.95355	1.66852	1.06839	5.9697	64.91	-0.2185	-0.0225	0.196	1028.5763	0.102801	-470.084584	-470.077085	-470.076141	-470.11671	28.504	
N	 0.0282167966	 1.3150501366	-0.0375293594	-0.562929
C	 0.0499172187	-0.0420185278	-0.1043180575	 0.522169
O	 1.0862667885	-0.6877752246	-0.2181825334	-0.417909
N	-1.1915247792	-0.6745582862	-0.0675906988	-0.182815
C	-2.4954606639	-0.1428924682	-0.0216792435	-0.147559
C	-3.3128209484	-1.2204183689	 0.0631272715	-0.077408
N	-2.6030728095	-2.4138731926	 0.0811093213	-0.355177
C	-1.3549361582	-2.0681347054	-0.003377043	 0.486744
O	-0.317388427	-2.8857824074	-0.0203724925	-0.403626
H	 0.9297806051	 1.7540444162	 0.0581127446	 0.281104
H	-0.7645850552	 1.8007122917	 0.3453300635	 0.275188
H	-2.6940906117	 0.9095105858	-0.1228795073	 0.130104
H	-4.3913029648	-1.2232470332	 0.1056329307	 0.122746
H	 0.483649679	-2.3221983359	-0.1264731462	 0.329368
85.345	136.6682	251.7754	308.0992	358.8418	395.6441	491.0505	515.8838	555.2166	601.1815	625.6242	696.7325	728.3126	740.2195	768.3322	779.0109	872.6242	911.9301	1079.8175	1115.7818	1130.9792	1212.5384	1240.9138	1283.3865	1363.6085	1450.1677	1501.6833	1569.8458	1615.6304	1659.6212	1784.1821	3252.1466	3288.9994	3413.2788	3607.6901	3731.6823
NC(=O)N1C=CN=C1O	NC(=O)n1ccnc1O	
InChI=1S/C4H5N3O2/c5-3(8)7-2-1-6-4(7)9/h1-2H,(H2,5,8)(H,6,9)	InChI=1S/C4H5N3O2/c5-3(8)7-2-1-6-4(7)9/h1-2H,(H2,5,8)(H,6,9)
