16
gdb 123460	5.07078	1.02675	0.88893	3.7926	69.76	-0.2547	0.0104	0.2651	1256.2674	0.126956	-434.071065	-434.063544	-434.0626	-434.104063	27.337	
C	 0.0989895867	 1.3278482082	 0.7432755108	-0.349801
C	-0.1141565401	-0.0339096779	 0.1146868886	 0.085594
C	-1.3656414278	-0.3930780222	-0.5611920674	-0.178928
O	-0.2029215033	-0.0404527608	-1.3182510949	-0.243533
C	 1.4267855045	 1.9123249912	 0.3732490924	 0.366783
N	 2.3011748995	 2.4918449089	 1.1792368818	-0.319302
C	 3.3034439042	 2.853369228	 0.3291761313	 0.02052
N	 3.111259574	 2.5353625013	-0.9400716223	-0.212075
N	 1.8986754226	 1.9354556388	-0.8922271814	-0.221676
H	-0.7053193901	 2.001340241	 0.4228189101	 0.127382
H	 0.0520095523	 1.2580096338	 1.8332253904	 0.144669
H	 0.5043571496	-0.8370457863	 0.5154281769	 0.113603
H	-1.6639083732	-1.437126293	-0.6332649274	 0.127355
H	-2.1807707306	 0.328148169	-0.5943155778	 0.123647
H	 4.1980196463	 3.3617023863	 0.6563950816	 0.124206
H	 1.4727173754	 1.5425704538	-1.7177315927	 0.291555
65.0469	86.1548	136.8457	293.6343	304.9611	365.4498	469.9171	626.3806	701.1319	717.8497	773.8969	793.5237	868.071	907.8558	930.7044	956.1611	983.7613	1052.16	1092.8075	1097.458	1129.3265	1160.4492	1170.9119	1205.4734	1233.6805	1291.687	1294.3174	1310.6286	1320.2774	1431.1049	1440.3086	1463.8779	1492.2715	1528.5508	1588.8174	3035.8496	3091.4227	3104.6025	3120.0285	3181.3175	3261.4962	3647.2426
C(C1CO1)C1=NC=NN1	C([C@H]1CO1)c1ncn[nH]1	
InChI=1S/C5H7N3O/c1(4-2-9-4)5-6-3-7-8-5/h3-4H,1-2H2,(H,6,7,8)	InChI=1S/C5H7N3O/c1(4-2-9-4)5-6-3-7-8-5/h3-4H,1-2H2,(H,6,7,8)/t4-/m0/s1
