20
gdb 72643	2.01176	1.95304	1.65784	1.6844	77.76	-0.2398	0.024	0.2638	988.5563	0.170851	-403.171177	-403.16272	-403.161776	-403.203908	33.03	
C	-0.3085542452	 1.4804777463	-0.0026755652	-0.469364
C	 0.0320547371	 0.0087280912	-0.0252522716	 0.36922
C	 1.185709971	-0.4681105965	-0.9457969193	-0.273206
C	 1.9354332655	-1.0590633531	 0.2869432462	-0.253137
C	 0.7219118814	-0.7114600736	 1.1967521738	 0.266658
C	 1.0024450654	 0.0357206895	 2.4883764814	-0.459884
N	-0.1408324066	-1.8833245481	 1.4479162546	-0.304873
C	-1.1147481209	-1.7887936575	 0.6410437528	 0.091351
O	-1.1900238708	-0.7552263612	-0.2318926037	-0.265311
H	 0.5901240591	 2.0798344373	 0.1703145268	 0.12123
H	-0.7404555237	 1.7876969633	-0.9606998433	 0.129939
H	-1.0315014399	 1.7044380747	 0.7872117051	 0.127411
H	 0.8556767648	-1.2069786013	-1.6786158557	 0.1126
H	 1.7088886947	 0.3335024847	-1.4729996963	 0.102419
H	 2.1672250761	-2.1246129187	 0.2413430258	 0.110789
H	 2.8438887553	-0.5113377645	 0.5521522748	 0.098655
H	 1.6177593926	 0.923380887	 2.3101823769	 0.108698
H	 0.0725336729	 0.3491624215	 2.973204677	 0.120061
H	 1.5378444116	-0.6179241368	 3.1839476498	 0.131769
H	-1.9441719904	-2.4856447042	 0.5782240299	 0.134975
63.4092	205.6377	219.2528	231.7228	281.3963	294.4444	337.1612	355.8828	466.2707	560.8912	589.3981	660.6244	674.325	739.4401	820.5579	851.5064	916.4342	926.2813	934.9353	945.4559	954.7045	970.3445	1020.1934	1092.0174	1159.3757	1174.0365	1195.6508	1208.635	1216.3803	1226.0241	1259.9661	1297.2995	1306.1999	1339.1523	1404.8547	1412.1455	1467.8929	1478.3199	1483.5866	1486.5011	1489.8341	1496.9381	1687.9999	3033.3731	3038.7341	3060.6949	3068.3037	3104.6974	3107.8882	3110.2533	3113.4615	3117.3179	3131.0833	3205.954
CC12CCC1(C)N=CO2	C[C@@]12CC[C@]1(C)N=CO2	
InChI=1S/C7H11NO/c1-6-3-4-7(6,2)9-5-8-6/h5H,3-4H2,1-2H3	InChI=1S/C7H11NO/c1-6-3-4-7(6,2)9-5-8-6/h5H,3-4H2,1-2H3/t6-,7+/m0/s1
