21
gdb 89642	3.95465	1.02888	0.95192	1.3762	83.15	-0.2329	0.0757	0.3085	1312.4399	0.182733	-387.043597	-387.034977	-387.034033	-387.07701	33.824	
O	-0.1358774248	 1.4434397996	-0.1759983061	-0.433416
C	 0.0025347526	 0.0590121411	 0.0688488974	 0.127207
C	 0.2088672185	-0.4244449761	 1.5489794115	-0.357658
C	-1.0880218589	-1.2412656076	 1.4282069579	 0.396614
C	-2.2131749975	-0.292038181	 1.1239767817	-0.332798
C	-1.3051672841	-0.7101684515	-0.0028030288	-0.11267
C	-1.3144686919	-2.6081224948	 1.9696734134	-0.105994
C	-0.1976136481	-3.6150180181	 2.1086583325	-0.277231
C	-0.8094306823	-2.9961485101	 3.3406053515	-0.267065
H	 0.7280107768	 1.8545120052	-0.0696379836	 0.280829
H	 0.7629816342	-0.38123555	-0.590113655	 0.067214
H	 1.1149767402	-1.0236100933	 1.6682346495	 0.099052
H	 0.1995770379	 0.3659342233	 2.3067896431	 0.09344
H	-3.2018111332	-0.7401914773	 1.0986918724	 0.105913
H	-2.1949694809	 0.732798059	 1.4847463595	 0.115411
H	-1.6795241398	-1.2261021447	-0.8790056216	 0.080436
H	-2.2804934332	-3.0247053996	 1.6951964716	 0.077804
H	-0.419585961	-4.6531834055	 1.887145677	 0.109797
H	 0.8072993481	-3.3119264274	 1.8352314348	 0.109458
H	-0.2176643627	-2.2655742285	 3.8822051524	 0.113412
H	-1.4438299798	-3.6086383026	 3.971777889	 0.110245
65.5808	106.9687	159.0374	224.4351	286.2337	322.4036	379.3583	426.6796	462.5468	547.6829	608.3222	693.4879	783.5178	804.6376	831.7399	859.8149	863.2247	918.6726	931.23	967.9269	981.7144	985.4551	1032.36	1047.7894	1060.8024	1072.6684	1077.2408	1088.9143	1116.5136	1134.54	1164.2149	1197.2142	1209.4987	1220.755	1235.4674	1240.992	1299.741	1330.94	1357.0302	1423.6925	1443.9064	1465.3078	1477.3937	1498.6173	1515.0211	3004.9048	3043.1697	3102.9354	3114.4239	3130.6061	3131.5045	3136.4805	3179.5558	3200.9147	3207.8759	3222.8939	3813.9103
OC1CC2(CC12)C1CC1	O[C@H]1C[C@]2(C[C@@H]12)C1CC1	
InChI=1S/C8H12O/c9-7-4-8(3-6(7)8)5-1-2-5/h5-7,9H,1-4H2	InChI=1S/C8H12O/c9-7-4-8(3-6(7)8)5-1-2-5/h5-7,9H,1-4H2/t6-,7-,8+/m0/s1
