17
gdb 53754	4.95436	0.6045	0.55583	3.0563	79.78	-0.2524	-0.0195	0.2329	1926.5897	0.135156	-417.979859	-417.969952	-417.969007	-418.017148	33.839	
N	 0.3377340079	 0.1799026182	-1.136995033	-0.520154
C	-0.2235811723	 0.2375122816	 0.106106674	 0.263548
O	 0.0755589995	 1.0716433673	 0.9385896419	-0.335268
C	-1.2140082467	-0.8028111593	 0.3478593598	 0.06823
C	-2.045213023	-1.638999579	 0.5983927405	 0.040065
C	-3.0478145446	-2.6602157332	 0.882776067	-0.39787
C	-3.2018457944	-3.6781881763	-0.2375534011	 0.045282
C	-4.5249959447	-4.291858501	-0.5009403148	-0.247174
N	-3.9388566058	-3.3356551805	-1.4590512251	-0.307438
H	 1.0030525298	 0.8906615747	-1.3935025233	 0.265779
H	 0.0318925759	-0.4879341665	-1.8227707981	 0.268281
H	-2.7816183527	-3.1773112288	 1.8145547042	 0.147839
H	-4.0151239189	-2.1747862194	 1.072180044	 0.133398
H	-2.3069957178	-4.2674910794	-0.4253529267	 0.105106
H	-4.5938717792	-5.3154057583	-0.8573491373	 0.124799
H	-5.3637151145	-3.9702557561	 0.1121309102	 0.113393
H	-4.3801826187	-2.4243177139	-1.3556611123	 0.232185
21.5753	49.7834	73.354	117.3963	148.2813	174.914	319.115	349.0166	382.2401	425.4208	549.6623	570.3489	590.1138	727.1627	773.4364	786.0834	828.8123	921.1198	931.5199	975.2406	1052.6967	1076.7105	1089.9526	1127.1569	1149.2527	1176.589	1245.5639	1264.8767	1311.4092	1320.8274	1349.4475	1420.0359	1453.9122	1512.6408	1608.1438	1774.6054	2350.4486	3011.7905	3045.0765	3107.1016	3134.1487	3193.2437	3489.946	3602.0789	3744.449
NC(=O)C#CCC1CN1	NC(=O)C#CC[C@H]1CN1	
InChI=1S/C6H8N2O/c7-6(9)3-1-2-5-4-8-5/h5,8H,2,4H2,(H2,7,9)	InChI=1S/C6H8N2O/c7-6(9)3-1-2-5-4-8-5/h5,8H,2,4H2,(H2,7,9)/t5-/m0/s1
