20
gdb 111819	2.2713	1.57019	1.116	3.6767	80.27	-0.2349	0.0341	0.269	1168.187	0.171747	-403.16147	-403.152769	-403.151825	-403.195519	32.25	
C	-0.0539805787	 1.5549342592	 0.1706890656	-0.379013
C	-0.0833124102	 0.0552414876	-0.142612415	-0.161759
N	-1.385176251	-0.5602991242	-0.0048015742	-0.066035
C	-2.2709207677	-0.7990483214	 1.1366948344	 0.00095
C	-3.2302799764	 0.3719913112	 1.5086781923	-0.236242
C	-4.2560928263	-0.1316074175	 0.4483585358	-0.231537
C	-3.3248561636	-1.3397226792	 0.116116974	-0.186806
C	-2.2686664287	-1.0193010706	-0.9599781107	 0.400421
O	-2.1896276687	-1.0827003967	-2.1604275704	-0.38297
H	 0.9541707969	 1.9511720761	 0.0136002979	 0.120552
H	-0.7427462431	 2.1024932555	-0.4792745215	 0.130678
H	-0.3310793806	 1.752734185	 1.2106945457	 0.122079
H	 0.215883965	-0.120887945	-1.1808140924	 0.140884
H	 0.6357391758	-0.4733219936	 0.4973412869	 0.107765
H	-1.832268134	-1.394531839	 1.9401879302	 0.080736
H	-3.6068515732	 0.2909289898	 2.5316375724	 0.10684
H	-2.8265476056	 1.3756390795	 1.3654972249	 0.107927
H	-5.2132032327	-0.4307702558	 0.8793738661	 0.111178
H	-4.4530037784	 0.5353135381	-0.3935536942	 0.118834
H	-3.7351678489	-2.3472474391	 0.1377262221	 0.095517
53.3148	97.8954	117.4771	199.8929	223.6018	284.3449	329.4374	403.6992	505.4476	655.057	676.7741	718.1932	779.4269	794.521	833.8311	855.3855	870.941	941.8734	956.7768	982.9968	1001.5398	1055.4197	1081.42	1105.0532	1119.7102	1145.0597	1183.4306	1217.3	1231.3328	1253.8116	1269.3594	1283.3283	1299.6702	1346.5515	1391.4745	1407.6732	1418.451	1470.1648	1480.1519	1492.9756	1494.5826	1504.1765	1865.635	3017.1575	3039.2115	3066.035	3074.8719	3084.2209	3087.3288	3110.8652	3115.5608	3119.6261	3131.757	3142.5977
CCN1C2CCC2C1=O	CCN1[C@H]2CC[C@H]2C1=O	
InChI=1S/C7H11NO/c1-2-8-6-4-3-5(6)7(8)9/h5-6H,2-4H2,1H3	InChI=1S/C7H11NO/c1-2-8-6-4-3-5(6)7(8)9/h5-6H,2-4H2,1H3/t5-,6+/m1/s1
