19
gdb 102731	2.76472	0.92915	0.76177	1.9718	77.08	-0.2547	0.0131	0.2678	1512.9831	0.158297	-419.176207	-419.166404	-419.165459	-419.212017	34.223	
C	-0.1979612871	 1.478015136	 0.1520222228	-0.251024
O	-0.0386433406	 0.1064467117	-0.1715308129	-0.23196
C	-1.2207256071	-0.651332884	-0.0813006113	-0.017106
C	-0.9468953474	-2.0271397172	-0.7115252942	-0.24708
C	-0.6657006195	-1.9193512947	-2.1922573452	 0.027283
C	-0.9836533095	-3.0465225045	-3.0994854644	-0.249951
N	-1.7751885409	-1.8024587797	-3.157288227	-0.319171
C	-1.663359928	-0.7936985565	 1.3264009772	 0.271526
N	-2.0055699837	-0.9010240352	 2.4249257083	-0.321562
H	 0.7765114743	 1.9479333416	 0.008678234	 0.141042
H	-0.9326161643	 1.9608350321	-0.5084072886	 0.118216
H	-0.5136024762	 1.6126650334	 1.1950950383	 0.135449
H	-2.0382061398	-0.1538113373	-0.6295783635	 0.117332
H	-0.0917883202	-2.4692470376	-0.1882278683	 0.135242
H	-1.8112755584	-2.677330627	-0.5342025144	 0.113955
H	 0.1799683391	-1.2834444478	-2.4387505377	 0.113277
H	-0.3638752399	-3.2370334371	-3.9706632959	 0.125112
H	-1.4404932292	-3.9340214981	-2.668092673	 0.113626
H	-2.6641504515	-1.949199108	-2.6824969041	 0.22579
55.4776	77.1519	96.6059	124.3109	165.9159	213.7318	275.8885	292.6825	338.6187	418.9422	483.7964	568.4951	599.2505	788.8238	816.381	854.6522	927.1049	945.8468	962.3779	1013.5016	1050.5884	1068.0896	1129.9673	1147.9512	1157.4744	1178.0478	1184.7075	1231.7285	1251.6986	1274.6135	1291.7294	1310.2869	1364.7068	1366.1058	1427.862	1463.8797	1480.7579	1488.103	1506.8822	1515.1534	2352.3737	2971.2226	2995.8624	3040.9891	3056.3316	3087.5922	3108.8351	3135.0098	3153.5986	3194.8345	3477.723
COC(CC1CN1)C#N	CO[C@@H](C[C@H]1CN1)C#N	
InChI=1S/C6H10N2O/c1-9-6(3-7)2-5-4-8-5/h5-6,8H,2,4H2,1H3	InChI=1S/C6H10N2O/c1-9-6(3-7)2-5-4-8-5/h5-6,8H,2,4H2,1H3/t5-,6-/m0/s1
