17
gdb 7106	6.30296	0.83581	0.75941	2.0851	67.61	-0.2872	-0.0254	0.2618	1470.0608	0.13989	-401.034163	-401.025048	-401.024104	-401.068956	31.101	
C	-0.134863211	 1.5279822346	 0.0989604929	-0.38644
C	 0.0411044361	 0.0150885312	-0.0521068798	-0.162348
C	-1.2942505553	-0.7282066551	-0.0086306372	-0.254661
C	-1.1852846551	-2.2169105347	-0.1661183425	 0.395979
N	-0.0971726267	-2.8451676616	-0.2656738368	-0.479179
O	-2.4613253237	-2.7894141988	-0.2270045156	-0.199704
C	-2.6962156085	-3.9599756413	 0.4296385765	 0.154929
O	-3.7170307707	-4.5601111744	 0.3071635382	-0.250858
H	 0.8311958762	 2.03992077	 0.0648581628	 0.118627
H	-0.7580915963	 1.9400244805	-0.702582692	 0.116375
H	-0.6122744784	 1.7826661001	 1.0519034128	 0.115362
H	 0.5473477748	-0.215484244	-0.995284759	 0.116503
H	 0.692989151	-0.3724167541	 0.7373974993	 0.116666
H	-1.8237137209	-0.5303667607	 0.933924239	 0.126801
H	-1.9721825039	-0.3663419175	-0.7933646263	 0.135516
H	-0.2214493979	-3.8453098981	-0.4195072346	 0.233383
H	-1.8593994996	-4.2513151862	 1.0874202625	 0.103051
53.7585	78.9608	102.4285	144.5887	183.7575	245.7293	269.3082	332.2166	387.8831	527.7703	560.6136	706.9694	747.6534	875.4921	896.2676	907.5495	944.1666	1037.7692	1052.1337	1053.9365	1111.5135	1131.7604	1144.4118	1233.378	1253.8555	1321.964	1334.4206	1405.8878	1416.9195	1420.5217	1459.0776	1488.1862	1500.9455	1508.6951	1756.0033	1874.285	2996.0712	3019.9334	3030.6168	3046.4355	3053.8397	3079.6765	3104.1464	3108.3015	3494.9339
CCCC(=N)OC=O	CCC[C]([NH])OC=O	
InChI=1S/C5H9NO2/c1-2-3-5(6)8-4-7/h4,6H,2-3H2,1H3	InChI=1S/C5H9NO2/c1-2-3-5(6)8-4-7/h4,6H,2-3H2,1H3
