17
gdb 128284	3.56547	1.15722	0.88441	4.0292	72.62	-0.1951	0.0461	0.2412	1287.8986	0.137004	-451.36867	-451.359456	-451.358512	-451.402839	32.592	
C	-0.0596491714	 1.4323537991	 0.1259028486	-0.317418
N	-0.0095713053	-0.0258945036	 0.1442165853	-0.391533
C	-1.2090069279	-0.6936711002	 0.0624617834	 0.50817
N	-2.3853571619	-0.1420670578	 0.1191803147	-0.344891
N	-3.2669168841	-1.2222379455	 0.0940201844	-0.070178
C	-4.6890249019	-1.0179052792	 0.1569594816	-0.324933
C	-2.6391582367	-2.4377845827	 0.0039196773	 0.468101
O	-3.1065934449	-3.558307506	-0.0355209999	-0.440604
N	-1.2834775641	-2.0627493677	-0.0345537378	-0.443098
H	 0.9545673226	 1.8164597816	 0.2516606258	 0.12453
H	-0.4923633891	 1.836376164	-0.7987434471	 0.129311
H	-0.6745403819	 1.7759515142	 0.960158097	 0.157507
H	 0.7102486462	-0.4192907237	-0.4463391751	 0.243337
H	-5.0352461191	-0.4125942159	-0.6872778275	 0.13335
H	-5.1553103591	-2.0037772257	 0.1157586086	 0.163531
H	-4.9713416099	-0.5174727135	 1.0891032351	 0.1338
H	-0.5320231715	-2.7274118374	 0.0237345255	 0.271017
91.8787	113.2123	140.9727	156.7392	184.8254	223.0808	291.8998	354.4587	391.214	411.2655	540.7673	564.1402	690.5031	696.0809	724.3539	754.8593	850.3889	1006.0346	1032.4992	1098.4231	1150.2637	1156.6177	1160.5096	1184.7225	1264.4226	1282.439	1421.8613	1426.7581	1445.8771	1453.7258	1480.8939	1481.5827	1512.143	1520.6064	1561.3038	1676.2796	1836.3996	3018.6175	3033.1545	3089.5434	3102.5678	3142.7401	3148.4903	3581.7604	3686.8461
CNC1=NN(C)C(=O)N1	CNc1nn(C)c(=O)[nH]1	
InChI=1S/C4H8N4O/c1-5-3-6-4(9)8(2)7-3/h1-2H3,(H2,5,6,7,9)	InChI=1S/C4H8N4O/c1-5-3-6-4(9)8(2)7-3/h1-2H3,(H2,5,6,7,9)
