19
gdb 100848	2.0147	1.21442	0.80055	1.28	79.23	-0.2532	-0.0376	0.2156	1428.2492	0.154454	-422.997382	-422.986537	-422.985593	-423.034464	37.954	
C	-0.0356173203	 1.5094701984	 0.1463079739	-0.389929
C	 0.0793807824	-0.0153152869	 0.079154983	-0.197548
C	 0.6882683617	-0.501742251	-1.2410108551	 0.133112
O	 1.9911424497	 0.0102823881	-1.444783448	-0.417501
C	 0.6793017731	-2.0668939267	-1.3391265583	-0.312577
C	-0.7613552107	-2.581066915	-1.4344262899	 0.162134
O	-1.371127671	-3.0591009312	-0.5163432778	-0.244284
C	 1.4212150468	-2.5472158776	-2.4970761626	 0.312668
C	 1.9709276724	-2.9775828491	-3.4753790637	-0.423611
H	 0.9374574881	 1.9787586088	-0.0192482331	 0.129992
H	-0.7215187193	 1.8863262233	-0.6202147154	 0.118073
H	-0.4148223386	 1.831241861	 1.1203765672	 0.116042
H	 0.7080795416	-0.3822712178	 0.9036796583	 0.092443
H	-0.9025459399	-0.4787560478	 0.2233693171	 0.122485
H	 0.1060122659	-0.1086347539	-2.0838016729	 0.100683
H	 2.5546365802	-0.3083250972	-0.7300162682	 0.282304
H	 1.1026158867	-2.472935279	-0.4114417327	 0.115654
H	-1.2126369683	-2.4625726134	-2.4436348821	 0.098018
H	 2.4826007095	-3.3445852232	-4.33063973	 0.201841
28.9349	66.5718	93.3248	121.8729	177.1364	205.5205	244.4753	257.264	286.9373	365.8832	388.696	431.0114	491.7867	515.266	593.5467	635.9786	653.4862	779.7041	872.1087	930.2353	966.0604	996.7591	1042.6924	1068.358	1087.2907	1112.7675	1139.5412	1202.4697	1263.559	1276.4448	1331.1141	1358.1952	1382.4581	1408.4051	1415.9598	1430.7881	1480.6573	1496.3156	1509.2511	1831.5719	2235.9253	2898.087	3006.0084	3028.5486	3040.1428	3045.254	3075.4114	3106.3058	3125.6551	3503.3727	3792.1727
CCC(O)C(C=O)C#C	CC[C@@H](O)[C@@H](C=O)C#C	
InChI=1S/C7H10O2/c1-3-6(5-8)7(9)4-2/h1,5-7,9H,4H2,2H3	InChI=1S/C7H10O2/c1-3-6(5-8)7(9)4-2/h1,5-7,9H,4H2,2H3/t6-,7-/m1/s1
