19
gdb 120715	2.61557	1.12444	0.85266	4.6033	73.15	-0.2298	0.0279	0.2577	1364.2912	0.159079	-456.333165	-456.323541	-456.322597	-456.368458	34.62	
C	 0.7490465065	 1.2609396036	-0.0499102758	-0.235205
O	 0.9266143463	-0.1184375868	-0.3009252121	-0.238297
C	-0.0433143825	-0.6448137413	-1.1985992753	-0.07815
C	 0.1305038391	-2.1405394417	-1.2755491407	-0.060215
N	-0.2268635099	-2.7431905917	-2.5691940523	-0.322954
C	 1.1669330914	-2.7974090115	-2.1197085426	-0.109332
C	 2.2081933094	-2.1003355026	-2.9841341204	 0.379621
N	 2.8485329155	-1.0656322048	-2.3743336411	-0.524364
O	 2.479776094	-2.5052921081	-4.0963834284	-0.365262
H	 0.8337676246	 1.857213872	-0.970845993	 0.114597
H	-0.233710397	 1.460467225	 0.4017421596	 0.117152
H	 1.5303845545	 1.5686525798	 0.6486443009	 0.132768
H	-1.055021189	-0.4009132368	-0.8378376953	 0.101447
H	 0.0689239257	-0.2056080257	-2.1997650104	 0.116586
H	-0.1461775458	-2.6696278542	-0.36510202	 0.091249
H	-0.681255219	-3.6427508106	-2.4438092418	 0.239931
H	 1.5349452522	-3.7565811693	-1.757691129	 0.112831
H	 2.5091490075	-0.6814416515	-1.5024554012	 0.273556
H	 3.5396366167	-0.5639409638	-2.9088155413	 0.254039
40.7023	85.4219	138.2671	156.5701	207.5731	239.2375	260.7875	323.3088	418.021	451.5337	461.721	507.3776	589.5711	663.5485	744.8325	823.212	852.3162	928.8618	942.1719	985.4593	1022.5677	1027.2536	1118.2104	1137.1971	1149.1173	1178.432	1193.5127	1221.338	1227.6997	1255.8267	1281.8613	1332.797	1390.0038	1428.9417	1471.6502	1482.8674	1486.429	1503.5295	1522.2665	1640.0489	1804.2147	2978.6066	2987.6153	3031.3587	3036.1758	3114.0782	3120.9821	3125.7052	3518.8213	3528.3964	3689.7804
COCC1NC1C(N)=O	COC[C@H]1N[C@H]1C(=O)N	
InChI=1S/C5H10N2O2/c1-9-2-3-4(7-3)5(6)8/h3-4,7H,2H2,1H3,(H2,6,8)	InChI=1S/C5H10N2O2/c1-9-2-3-4(7-3)5(6)8/h3-4,7H,2H2,1H3,(H2,6,8)/t3-,4-/m1/s1
