13
gdb 124169	6.72098	0.76465	0.68951	6.7273	73.51	-0.2506	-0.0468	0.2038	1544.5908	0.088501	-452.745799	-452.737432	-452.736488	-452.781233	28.661	
C	-0.0680610255	 1.4633652801	 0.0109585665	-0.51102
C	-0.0059801848	 0.0129342458	 0.0028752328	 0.247411
C	 0.0596472067	-1.1903451304	-0.0039170283	-0.064427
C	 0.1074251174	-2.5997902366	-0.011700246	 0.273682
N	 1.2013947367	-3.3050171702	-0.0220621678	-0.181485
O	 0.7742612661	-4.6486075035	-0.0266237226	-0.222147
C	-0.599109868	-4.7258767069	-0.0187304283	 0.477267
O	-1.2420342016	-5.7340822464	-0.0202001847	-0.386468
N	-1.0093684859	-3.4031665572	-0.0092296466	-0.428916
H	 0.9388592251	 1.8928703632	 0.0038356819	 0.172207
H	-0.602633439	 1.8387322667	-0.8680869632	 0.165993
H	-0.5861759795	 1.8295620477	 0.9036243025	 0.166014
H	-1.9702663277	-3.1087341924	-0.0018234562	 0.29189
11.32	84.539	90.2405	203.288	306.336	333.7391	444.3581	463.4291	469.5178	481.4286	581.2565	708.501	744.7242	772.3105	909.5388	951.3954	979.0116	1049.0615	1049.8271	1072.2746	1214.7406	1286.6556	1410.671	1469.6819	1470.0574	1478.3123	1601.412	1909.5991	2370.1421	3034.3884	3098.6541	3104.7475	3692.3523
CC#CC1=NOC(=O)N1	CC#Cc1noc(=O)[nH]1	
InChI=1S/C5H4N2O2/c1-2-3-4-6-5(8)9-7-4/h1H3,(H,6,7,8)	InChI=1S/C5H4N2O2/c1-2-3-4-6-5(8)9-7-4/h1H3,(H,6,7,8)
