15
gdb 113619	3.73345	0.66723	0.59991	1.8743	75.7	-0.2765	-0.0757	0.2007	1759.9559	0.109598	-457.703052	-457.693583	-457.692639	-457.739289	31.756	
O	-0.0329243777	 1.4249422791	-0.4030576638	-0.411127
C	-0.0056019679	 0.1945472778	 0.2962814146	-0.098277
C	-1.3487032697	-0.4890133038	 0.2272782364	 0.050829
O	-1.6617843762	-1.1166242224	-1.0169478532	-0.240634
C	-1.5104899656	-1.9607665785	 0.1361759899	-0.172413
C	-0.3950600415	-2.8630398191	 0.1659475515	 0.120699
C	 0.5091631396	-3.6631152454	 0.2225903432	 0.071174
C	 1.6069776841	-4.5965988349	 0.2527611963	 0.019645
O	 1.7481547147	-5.4545696019	 1.0929163311	-0.223609
H	-0.2177970558	 1.2238761344	-1.3273750627	 0.296023
H	 0.7712988562	-0.4816120274	-0.0853155066	 0.107207
H	 0.2340640693	 0.4351570222	 1.3373709647	 0.124056
H	-2.1784474184	 0.0690420022	 0.6633428516	 0.115661
H	-2.4457508339	-2.3817209818	 0.5034310622	 0.133567
H	 2.3327704727	-4.4657965906	-0.5748491451	 0.107198
42.9665	64.0932	84.207	104.4635	174.8274	234.4693	253.1121	372.9704	412.6044	456.6855	520.8881	575.7074	645.8866	794.71	807.4267	906.3525	933.0711	1019.0542	1032.0733	1076.1941	1100.9413	1128.1544	1179.0671	1228.7339	1282.6162	1351.4655	1381.1152	1418.6076	1420.7704	1458.4271	1490.8947	1767.1857	2321.6316	2927.1141	3018.8465	3082.5198	3110.1951	3122.9649	3804.8704
OCC1OC1C#CC=O	OC[C@H]1O[C@H]1C#CC=O	
InChI=1S/C6H6O3/c7-3-1-2-5-6(4-8)9-5/h3,5-6,8H,4H2	InChI=1S/C6H6O3/c7-3-1-2-5-6(4-8)9-5/h3,5-6,8H,4H2/t5-,6+/m0/s1
