18
gdb 52173	6.19888	0.64309	0.60505	3.7388	76.19	-0.2488	-0.0261	0.2227	1768.6111	0.145471	-439.086441	-439.077023	-439.076079	-439.123308	32.544	
N	-0.0417862892	 1.2034146285	-0.36133708	-0.434215
C	-0.0318176811	-0.0364877049	-0.1291709498	 0.131243
O	-1.1882412456	-0.7279979568	-0.1112285503	-0.18568
C	-1.0848809817	-2.1330977406	 0.1240846144	-0.090871
C	-2.4877956756	-2.6969235299	 0.1800768575	 0.003611
C	-3.3026789322	-2.6773515171	-1.1512871478	-0.347885
C	-3.5420562629	-4.1847032169	-0.9719915825	 0.406274
O	-4.2355925088	-4.9885711414	-1.5207023639	-0.281714
C	-2.5893977534	-4.2538299454	 0.2376909082	-0.378175
H	 0.9071130478	 1.5704624089	-0.3322528443	 0.230699
H	 0.8538022846	-0.6551971567	 0.0747272298	 0.084471
H	-0.5137125119	-2.6082952184	-0.6875247041	 0.104598
H	-0.5539073114	-2.3209102624	 1.0678768625	 0.11237
H	-3.035805725	-2.2184931084	 0.9948244916	 0.099648
H	-4.1997249834	-2.0547926469	-1.1843594137	 0.141451
H	-2.6996723682	-2.4509754284	-2.0376765224	 0.137557
H	-1.6546388948	-4.7729714759	-0.0051438591	 0.130009
H	-3.0047394273	-4.7011766673	 1.1439652841	 0.136606
23.9647	41.1169	62.1435	113.1864	159.6114	290.2599	310.604	409.8371	422.0108	482.682	622.1331	656.1076	677.5629	782.3438	824.3662	898.0764	917.973	952.5613	986.3261	1038.5264	1045.1042	1069.5407	1112.1674	1133.0985	1141.5224	1195.316	1203.39	1238.6619	1252.2045	1287.1877	1296.7098	1356.3411	1410.6026	1425.7475	1431.589	1446.6606	1510.9732	1750.7254	1898.8307	2984.6252	3017.8193	3030.8708	3046.1692	3057.3617	3087.3375	3113.8925	3119.2125	3519.2228
N=COCC1CC(=O)C1	[NH][CH]OCC1CC(=O)C1	
InChI=1S/C6H9NO2/c7-4-9-3-5-1-6(8)2-5/h4-5,7H,1-3H2	InChI=1S/C6H9NO2/c7-4-9-3-5-1-6(8)2-5/h4-5,7H,1-3H2
