19
gdb 84920	2.46284	1.66779	1.15403	1.9927	76.48	-0.2487	0.0132	0.2619	1090.3189	0.160802	-423.009884	-423.00186	-423.000916	-423.042568	31.305	
O	-0.3415389785	 1.4228921881	 0.7472160344	-0.431387
C	-0.0347079297	 0.2020512034	 0.0580180236	 0.03926
C	 1.1125456715	-0.476043524	 0.7630166681	-0.076889
C	 1.3057344032	-1.7304074555	 1.1692578667	-0.060394
C	 0.4289705522	-2.9440758443	 1.0244335898	-0.248108
C	-0.4304629781	-3.0277136049	-0.2415497725	-0.252197
C	-1.5242460089	-1.9854032996	-0.332611386	 0.043304
O	-1.9098674105	-1.3078642457	 0.872816158	-0.261897
C	-1.3291544452	-0.5390153041	-0.1927342907	 0.040022
H	-0.654488105	 1.1688760617	 1.6237679458	 0.286408
H	 0.3199910165	 0.5441475422	-0.9255299802	 0.09945
H	 1.893461536	 0.2479385077	 0.9888315909	 0.09747
H	 2.2366634829	-1.9178103936	 1.7025536735	 0.089136
H	 1.0672127842	-3.8341313021	 1.0591004384	 0.099468
H	-0.229947885	-3.0119027525	 1.9000370787	 0.132027
H	 0.2017496752	-2.9606855309	-1.1362568967	 0.110948
H	-0.9008817148	-4.0178239335	-0.2708297187	 0.105988
H	-2.3750385849	-2.2860613668	-0.9474932553	 0.089408
H	-2.051547951	 0.1092329243	-0.6926467077	 0.097983
58.4764	180.0606	211.454	267.2293	302.4279	346.6381	388.6424	461.8823	486.8727	593.9845	646.3589	683.6233	751.7275	800.8465	829.8598	863.2924	885.3987	951.694	968.8729	1015.9509	1025.1699	1042.2048	1084.4553	1095.2752	1145.648	1151.9597	1220.6023	1252.4951	1259.6471	1289.9595	1302.0718	1374.6402	1379.2054	1392.3354	1407.0845	1415.793	1440.6533	1464.7836	1482.7575	1500.8709	1741.2855	3002.2919	3023.6664	3024.9976	3058.3371	3063.0847	3082.9065	3097.1953	3125.7262	3151.5135	3789.9153
OC1C=CCCC2OC12	O[C@H]1C=CCC[C@H]2O[C@@H]12	
InChI=1S/C7H10O2/c8-5-3-1-2-4-6-7(5)9-6/h1,3,5-8H,2,4H2	InChI=1S/C7H10O2/c8-5-3-1-2-4-6-7(5)9-6/h1,3,5-8H,2,4H2/t5-,6+,7-/m0/s1
