20
gdb 83900	2.55877	1.42552	1.20101	1.9132	85.87	-0.2235	0.0418	0.2653	1141.8894	0.170835	-365.965147	-365.956242	-365.955298	-365.998467	34.156	
C	-0.0323515126	 1.6131589285	 0.0946676235	-0.432871
C	 0.0514842043	 0.1029101628	 0.111894828	-0.022148
N	 1.211896263	-0.6943987197	-0.3074441416	-0.144509
C	 2.5022324058	 0.0089992583	-0.3988483537	-0.155527
C	 2.8651779552	 0.6208936848	 0.9815778388	-0.238412
C	 1.866989912	-0.0100525728	 1.9823718983	-0.291863
C	 0.8043588926	-0.7094358719	 1.1273133122	 0.114713
C	 0.2237357387	-1.9121038477	 1.6617100593	 0.211892
C	-0.2654700834	-2.897864839	 2.1472532951	-0.379247
H	 0.794024525	 2.1124291799	 0.6009962573	 0.124451
H	-0.0668193482	 1.9795811587	-0.9377303877	 0.129371
H	-0.9604105389	 1.9289411611	 0.5823517235	 0.129617
H	-0.8691689305	-0.361618027	-0.2385743331	 0.097555
H	 3.2454472264	-0.7357562434	-0.6996134401	 0.11426
H	 2.4618299226	 0.7624584725	-1.1924246074	 0.107387
H	 3.8988777541	 0.393141467	 1.2548401985	 0.106296
H	 2.7811525012	 1.7100308729	 0.9680448663	 0.110547
H	 2.3531598379	-0.7602137475	 2.6107455042	 0.120264
H	 1.4254411368	 0.7321672308	 2.6541391659	 0.111838
H	-0.6970830018	-3.7753977583	 2.5604930726	 0.186385
109.9004	127.3475	157.0925	168.6003	188.7152	260.9119	372.057	479.6301	520.3861	537.0777	552.2625	599.4224	642.4494	691.9832	707.8024	761.0186	800.3572	835.3055	902.1641	916.4729	973.7878	1016.4181	1027.9165	1061.7336	1091.2741	1141.2009	1164.4468	1196.2531	1220.7982	1242.4301	1262.7619	1303.8418	1322.2404	1340.2182	1362.1839	1412.2913	1431.8818	1483.3745	1491.8005	1500.0259	1506.0035	1521.7486	2235.1975	3039.121	3045.2521	3056.6499	3067.9574	3076.3103	3093.2496	3094.2647	3110.5428	3112.8585	3147.5174	3503.4414
CC1N2CCCC12C#C	C[C@H]1N2CCC[C@@]12C#C	
InChI=1S/C8H11N/c1-3-8-5-4-6-9(8)7(8)2/h1,7H,4-6H2,2H3	InChI=1S/C8H11N/c1-3-8-5-4-6-9(8)7(8)2/h1,7H,4-6H2,2H3/t7-,8+,9?/m1/s1
