21
gdb 62670	2.96424	1.38125	1.18825	1.317	82.83	-0.2411	0.0772	0.3183	1139.7456	0.181294	-387.048424	-387.039591	-387.038646	-387.080971	35.492	
C	-0.0736880261	 1.5548645933	-0.0343898196	-0.461319
C	 0.0797827155	 0.0531107849	 0.0438505832	 0.397811
O	-1.0607549528	-0.6398905022	-0.4106437743	-0.473755
C	 1.3705565453	-0.6885195116	-0.2285149367	-0.131711
C	 2.5769597306	-0.0062716045	 0.3608637549	-0.129748
C	 3.1551397431	-0.8468462929	 1.471147196	-0.328208
C	 1.9220208587	-0.026590511	 1.7629325799	 0.342002
C	 1.8988631475	 1.0211032255	 2.8441742922	-0.49509
C	 0.7104348031	-0.7134639713	 1.1758973553	-0.164813
H	 0.8164603674	 2.077155884	 0.3197000676	 0.127681
H	-0.2455853112	 1.8625465522	-1.0741886259	 0.101178
H	-0.9344715483	 1.8821385023	 0.5576441245	 0.122973
H	-1.1703150723	-0.4398076551	-1.3468229205	 0.279371
H	 1.3862388678	-1.5035753267	-0.9445482366	 0.082612
H	 3.1406067777	 0.8012461412	-0.0943573227	 0.081848
H	 3.1040225756	-1.9311784054	 1.4142946304	 0.103242
H	 4.0718387901	-0.4661818591	 1.9136241644	 0.104099
H	 2.8673572913	 1.5251047267	 2.928894519	 0.114922
H	 1.1367532199	 1.7845291746	 2.6588974997	 0.118871
H	 1.6801307475	 0.5688158426	 3.819165106	 0.120209
H	 0.1632779196	-1.5363439574	 1.6233333333	 0.087826
164.2158	174.2223	196.2339	244.2346	264.3276	290.6705	336.4266	358.6579	389.9541	452.6502	502.2343	544.2586	610.4851	698.4511	767.779	813.773	866.5281	885.5123	908.3198	944.7058	969.0324	980.564	1002.0292	1011.6809	1053.3424	1065.0015	1085.87	1093.1805	1104.9647	1115.8791	1170.5128	1202.7403	1256.7536	1280.0086	1300.3424	1315.628	1372.652	1410.4295	1420.8297	1430.4544	1485.3697	1489.4567	1494.7543	1499.4654	1505.3347	3021.9194	3025.0061	3082.7624	3085.408	3101.0437	3107.6431	3138.2518	3159.5973	3164.9765	3173.7426	3192.5322	3796.0293
CC1(O)C2C3CC3(C)C12	C[C@@]1(O)[C@H]2[C@@H]3C[C@]3(C)[C@@H]12	
InChI=1S/C8H12O/c1-7-3-4(7)5-6(7)8(5,2)9/h4-6,9H,3H2,1-2H3	InChI=1S/C8H12O/c1-7-3-4(7)5-6(7)8(5,2)9/h4-6,9H,3H2,1-2H3/t4-,5-,6-,7-,8+/m0/s1
