22
gdb 122813	4.6738	0.51952	0.51518	2.9131	81.23	-0.2419	0.0367	0.2787	2227.9706	0.192298	-441.519922	-441.508473	-441.507528	-441.559249	39.038	
C	 0.5684609309	 1.154434906	 0.4471241421	-0.366477
C	-0.2215864421	 0.0929793662	-0.3194346158	-0.297282
C	 0.5492025882	-0.4324156172	-1.5306100373	 0.420927
O	 1.3361370889	 0.2597236863	-2.1534033369	-0.377046
N	 0.2618573466	-1.7229614898	-1.8761111142	-0.322799
C	 0.8725326007	-2.3947389946	-3.0097246579	-0.165458
C	 1.729833416	-3.5934273318	-2.592025673	-0.172768
C	 2.3673812711	-4.2949698906	-3.7843209864	-0.069651
O	 3.090313848	-5.4128950777	-3.2931772917	-0.420708
H	 1.45635132	 0.7215957487	 0.9178781753	 0.121022
H	 0.905121454	 1.9343420898	-0.2385764529	 0.145682
H	-0.0459104489	 1.6077213281	 1.2300152274	 0.107015
H	-0.5124732939	-0.7346282773	 0.3384818384	 0.095598
H	-1.1559662694	 0.5267545507	-0.7000377056	 0.128151
H	-0.3763585423	-2.2450887459	-1.2981087708	 0.239985
H	 0.0924366773	-2.7167797613	-3.7134038337	 0.101844
H	 1.4794212835	-1.6375274538	-3.5121545735	 0.150033
H	 2.5172528066	-3.2613270504	-1.9070765206	 0.119623
H	 1.1201207049	-4.3253337956	-2.046779253	 0.098554
H	 1.5848017407	-4.6079759145	-4.4959134634	 0.083553
H	 3.0281664332	-3.592732186	-4.3177623595	 0.093556
H	 3.5265324061	-5.8391752093	-4.036501077	 0.286645
20.9006	35.9681	69.1533	78.0475	113.3741	194.0051	209.8494	233.7933	265.1141	295.8741	331.0378	443.9432	464.2501	507.4471	601.277	687.3434	763.5947	809.0483	848.2587	921.7415	997.1394	1025.4311	1036.981	1063.3735	1085.3592	1096.8408	1121.0112	1168.4169	1217.5462	1233.174	1245.2943	1287.472	1310.4286	1316.9088	1327.3132	1374.803	1406.7154	1409.1403	1465.076	1465.53	1487.8984	1493.2155	1501.0059	1505.4755	1529.0692	1542.1944	1775.479	2956.6222	2985.5027	3008.2075	3022.0874	3030.0887	3047.4775	3058.4824	3082.0506	3113.406	3113.6408	3139.249	3639.4806	3830.5341
CCC(=O)NCCCO	CCC(=O)NCCCO	
InChI=1S/C6H13NO2/c1-2-6(9)7-4-3-5-8/h8H,2-5H2,1H3,(H,7,9)	InChI=1S/C6H13NO2/c1-2-6(9)7-4-3-5-8/h8H,2-5H2,1H3,(H,7,9)
