20
gdb 79856	2.98307	1.72177	1.27559	2.214	79.33	-0.1961	0.0703	0.2665	1033.3783	0.171527	-403.081353	-403.073423	-403.072479	-403.113151	32.106	
C	 0.0746084017	 1.4859863307	-0.3358946134	-0.335062
N	 0.0547732722	 0.0584789943	-0.0112353878	-0.11311
C	-1.042213254	-0.4847526632	 0.8652257597	-0.11509
C	-0.1284759906	-1.7163431911	 1.1353272041	 0.005046
C	-0.3937349773	-2.2861456872	 2.5235908302	-0.255395
C	-0.5770924261	-0.9687616822	 3.3188802995	-0.292223
C	-0.3754623146	 0.0557104285	 2.1994493202	 0.415428
O	-0.3994698915	 1.3975987763	 2.5821595128	-0.475554
C	 0.7530113912	-0.4306471763	 1.2296103235	-0.083176
H	 1.0597298473	 1.726180575	-0.7515282195	 0.111212
H	-0.6613192725	 1.6622628754	-1.1288587299	 0.108521
H	-0.1308802643	 2.1668084427	 0.4958385831	 0.126448
H	-2.093221079	-0.4785498473	 0.5644601289	 0.067114
H	 0.0636699045	-2.3760447135	 0.2924784174	 0.080709
H	-1.2839193275	-2.9222709729	 2.5438870322	 0.101703
H	 0.4449101695	-2.8853076448	 2.8908063501	 0.103999
H	-1.5713710091	-0.877977891	 3.7734119044	 0.089365
H	 0.1619257464	-0.8341124183	 4.1149562471	 0.106702
H	-1.1725121456	 1.5365120727	 3.1400683334	 0.28106
H	 1.8352799095	-0.3613036379	 1.362804474	 0.072303
163.6148	197.9033	219.0421	242.6648	270.1513	358.0873	403.1775	407.3274	495.8705	640.8699	687.1448	698.4887	720.6768	786.9611	818.2118	831.8108	904.7323	915.5862	955.1795	1014.6324	1025.7752	1045.6879	1070.7933	1099.6947	1114.8331	1134.2909	1161.7899	1178.3244	1197.7515	1199.4646	1214.4976	1228.4701	1250.8051	1276.1878	1294.3977	1320.8907	1333.1696	1399.3234	1444.0108	1486.3516	1487.8664	1509.8221	1515.4078	3021.5735	3027.8848	3051.587	3073.6115	3077.6396	3083.8073	3088.6199	3094.5045	3098.355	3153.0308	3799.1206
CN1C2C3CCC2(O)C13	CN1[C@H]2[C@@H]3CC[C@@]2(O)[C@H]13	
InChI=1S/C7H11NO/c1-8-5-4-2-3-7(5,9)6(4)8/h4-6,9H,2-3H2,1H3	InChI=1S/C7H11NO/c1-8-5-4-2-3-7(5,9)6(4)8/h4-6,9H,2-3H2,1H3/t4-,5-,6+,7-
