17
gdb 81632	4.37091	0.90707	0.82642	3.1029	71.15	-0.2715	0.0068	0.2783	1364.7226	0.135388	-458.925224	-458.917056	-458.916112	-458.959092	30.212	
O	-0.0584589651	 1.4463217209	-0.1174501048	-0.441999
C	 0.0617982246	 0.0545079184	 0.0055150856	 0.158625
C	 0.0393472165	-0.5926202692	 1.439052418	-0.149942
C	-1.4511445735	-0.14230124	 1.5211592905	-0.236308
C	-1.2865383226	-0.7115726812	 0.0763568569	-0.122302
C	-0.5033702971	-1.864421133	 0.7510498924	 0.170504
O	 0.4080558688	-2.6011357196	-0.0579178172	-0.209453
C	 0.3754830571	-3.9449684262	-0.0018330317	 0.160009
O	 1.1017049855	-4.6372856913	-0.649029285	-0.276801
H	 0.8255947153	 1.8238401698	-0.1406826526	 0.289683
H	 0.8060700586	-0.3507436564	-0.684051981	 0.098715
H	 0.7999005485	-0.5414017534	 2.2185021634	 0.080154
H	-2.0985791308	-0.7024405287	 2.201076645	 0.093197
H	-1.6158492191	 0.9297431007	 1.5860153178	 0.130275
H	-2.0444759128	-0.7941309061	-0.7021402641	 0.085975
H	-1.0907609878	-2.5422789861	 1.3776437914	 0.090876
H	-0.3885251462	-4.3271017585	 0.7031176853	 0.078792
30.2351	135.9536	146.7733	256.5131	313.3161	323.0402	379.1551	397.3169	445.0432	635.4439	727.0902	770.3161	821.9546	885.3119	904.1482	905.5701	941.7336	1021.0297	1036.5696	1044.3611	1063.	1092.7497	1116.7011	1125.9812	1157.3554	1192.8876	1198.0323	1202.1305	1227.356	1245.9945	1274.8912	1314.3245	1395.3709	1446.1405	1454.1416	1515.4771	1865.947	2947.3166	3064.4477	3070.9355	3084.1244	3115.4932	3124.8848	3178.5209	3833.5901
OC1C2CC1C2OC=O	O[C@H]1[C@H]2C[C@@H]1[C@H]2OC=O	
InChI=1S/C6H8O3/c7-2-9-6-3-1-4(6)5(3)8/h2-6,8H,1H2	InChI=1S/C6H8O3/c7-2-9-6-3-1-4(6)5(3)8/h2-6,8H,1H2/t3-,4+,5+,6+
