16
gdb 43770	5.12852	1.04081	0.97604	2.0327	70.26	-0.2479	-0.0361	0.2118	1192.6952	0.123757	-437.827208	-437.819513	-437.818569	-437.85985	28.966	
O	 0.4129770067	 0.0640252165	 0.0296167425	-0.291461
C	 0.1339172978	 1.2234664504	 0.0619011787	 0.437298
C	-1.1870623774	 2.0242000929	-0.1545865862	-0.424873
C	-0.3101223568	 3.2912295142	-0.1396365971	 0.428667
O	 0.3109280503	 3.3155139515	 1.1417957947	-0.279282
C	 0.9438619575	 2.5154831809	 0.1093040592	-0.187365
C	-0.510559965	 4.5719162588	-0.8570081004	-0.141683
C	-1.0740827611	 5.737861903	-0.124527988	-0.234874
N	 0.3399583473	 5.7230119402	-0.5334080188	-0.318084
H	-1.6222102891	 1.7787144836	-1.1282465565	 0.139383
H	-1.9507573413	 1.968672235	 0.6233288608	 0.138872
H	 1.9829333187	 2.7245378711	-0.1157048008	 0.129656
H	-0.7365676607	 4.458321301	-1.9149397446	 0.104363
H	-1.7005190167	 6.4503271789	-0.6527123034	 0.12666
H	-1.308006786	 5.6051077593	 0.9279754398	 0.127627
H	 0.9076101456	 5.4818031828	 0.2775423201	 0.245096
81.2193	98.6694	177.2957	230.8246	363.0704	408.9075	446.9849	508.7594	580.8818	656.6354	680.2561	774.9801	842.2983	857.4855	877.3877	957.9476	972.6919	974.5361	997.6566	1026.968	1044.633	1102.0484	1112.5174	1143.6296	1175.1077	1187.0931	1205.1409	1220.5489	1280.7933	1304.2537	1370.9939	1436.1601	1469.4558	1506.8902	1905.0462	3067.297	3115.9754	3131.612	3134.2429	3199.8904	3206.1298	3487.9339
O=C1CC2(OC12)C1CN1	O=C1C[C@]2(O[C@@H]12)[C@H]1CN1	
InChI=1S/C6H7NO2/c8-3-1-6(4-2-7-4)5(3)9-6/h4-5,7H,1-2H2	InChI=1S/C6H7NO2/c8-3-1-6(4-2-7-4)5(3)9-6/h4-5,7H,1-2H2/t4-,5+,6+/m1/s1
