17
gdb 53454	4.07814	0.54691	0.48658	3.2438	88.35	-0.2531	-0.0465	0.2066	2219.885	0.131508	-384.656768	-384.645717	-384.644773	-384.697053	35.909	
C	 0.1139360149	 1.5139625255	 0.0865976767	-0.496731
C	 0.0446276815	 0.0675001689	-0.0589723518	 0.080485
C	-0.019657638	-1.1272245826	-0.1777996549	 0.080644
C	-0.0957001846	-2.5813683102	-0.3228718543	-0.507492
C	-1.4355013044	-3.1311991366	-0.1145241864	 0.076862
C	-2.5408929011	-3.5826372244	 0.0576258398	 0.045062
C	-3.8701217889	-4.1286127642	 0.264281519	 0.250772
C	-3.9834099233	-5.6332752431	 0.1208029329	-0.477153
O	-4.8160231956	-3.4192655252	 0.5326301429	-0.274525
H	 0.8068099571	 1.8007694341	 0.8850201246	 0.15021
H	 0.4553382641	 1.9910554962	-0.8384089967	 0.150218
H	-0.8685364058	 1.9307440241	 0.3329810106	 0.156696
H	 0.2541943785	-2.8784633037	-1.3219674579	 0.16602
H	 0.5960508129	-3.0662292683	 0.3808856498	 0.166022
H	-3.3183343721	-6.1302339337	 0.8353650742	 0.145152
H	-5.0157395172	-5.9404828032	 0.2942107873	 0.142606
H	-3.6629808779	-5.9406605135	-0.8805615156	 0.145152
10.4955	21.5439	45.5086	117.2615	119.2075	141.0461	196.9057	226.2223	358.0392	362.473	380.4433	395.9463	488.5663	602.054	614.7474	687.6123	767.712	921.449	957.3032	1037.2588	1042.6243	1052.5211	1054.5289	1164.9929	1229.396	1244.1254	1336.1702	1381.1254	1414.6543	1442.6149	1460.7772	1469.0105	1477.4874	1477.8092	1769.5884	2336.9969	2384.7801	3002.5393	3025.1962	3029.8696	3038.4126	3091.436	3093.3723	3102.5047	3151.1158
CC#CCC#CC(C)=O	CC#CCC#CC(=O)C	
InChI=1S/C8H8O/c1-3-4-5-6-7-8(2)9/h5H2,1-2H3	InChI=1S/C8H8O/c1-3-4-5-6-7-8(2)9/h5H2,1-2H3
