19
gdb 81242	2.97782	1.51858	1.39876	1.3874	75.27	-0.2444	0.0659	0.3103	1018.0252	0.159664	-422.925322	-422.917728	-422.916783	-422.957229	30.189	
C	-0.0209576427	 1.5907995217	 0.0875291137	-0.439837
C	 0.0018956029	 0.0803960371	-0.0497929449	-0.004091
C	 1.2476523436	-0.6113847511	-0.633632674	-0.01813
O	 2.0152273039	-0.2334000706	 0.6090550982	-0.369768
C	 0.7094395554	-0.7773653381	 1.0491322978	 0.385123
C	 0.1060451726	-1.3626364254	 2.2946419012	-0.18997
O	-0.7376795141	-2.3916108803	 1.7341099543	-0.29068
C	-0.4191691372	-2.6971242563	 0.3381435362	-0.118837
C	 0.8787379803	-1.9497951446	 0.0859545804	-0.0432
H	 0.941833415	 1.9609916458	 0.4441113802	 0.140272
H	-0.242179585	 2.0628381843	-0.8758718468	 0.116299
H	-0.8005027856	 1.9043003681	 0.7902149434	 0.117804
H	-0.9547764387	-0.3130887603	-0.4016828086	 0.080455
H	 1.7740891625	-0.4513847667	-1.575609022	 0.094861
H	 0.8708721635	-1.791477899	 2.9563689913	 0.112224
H	-0.530880467	-0.6828957069	 2.8687495439	 0.113194
H	-0.3055972999	-3.781803521	 0.2550410212	 0.108956
H	-1.2633407286	-2.3904983374	-0.288262056	 0.109705
H	 1.7683945391	-2.5409721194	 0.3091249704	 0.095619
98.9243	200.4115	214.9601	239.457	331.0818	356.384	445.0982	537.6048	619.8699	661.191	699.5062	742.1699	790.7376	833.2528	852.2917	890.9353	926.5608	975.7509	996.4734	1022.3871	1047.2352	1072.451	1081.8352	1104.3879	1133.207	1157.6544	1189.8124	1193.3108	1199.9927	1207.8223	1253.7699	1288.906	1339.989	1362.0489	1380.4577	1399.0511	1424.9524	1493.6742	1505.5927	1512.3531	1524.7868	3011.6575	3036.9378	3039.5751	3077.4432	3078.6692	3084.2862	3093.1069	3103.8268	3111.6125	3138.8095
CC1C2OC11COCC21	C[C@H]1[C@H]2O[C@]31COC[C@@H]23	
InChI=1S/C7H10O2/c1-4-6-5-2-8-3-7(4,5)9-6/h4-6H,2-3H2,1H3	InChI=1S/C7H10O2/c1-4-6-5-2-8-3-7(4,5)9-6/h4-6H,2-3H2,1H3/t4-,5-,6+,7-/m0/s1
