23
gdb 119706	3.00084	0.93948	0.84016	1.8393	86.	-0.2274	0.0749	0.3023	1519.2664	0.204638	-388.256515	-388.246671	-388.245727	-388.291574	36.613	
C	 0.02762977	 1.5988990995	-0.0526437424	-0.38188
C	 0.1287577305	 0.071726746	-0.0559465903	-0.155313
C	 0.6122478674	-0.5013588015	 1.2864339603	-0.310674
C	 0.6984833824	-2.0017952223	 1.2953878235	 0.276874
C	-0.4937702546	-2.9496131979	 1.4451323326	-0.137165
O	 0.2833419109	-3.879213955	 2.2452047646	-0.286362
C	 1.4011497196	-2.9851178143	 2.2113780448	 0.011685
C	 1.9049807815	-2.7986628572	 0.8088127665	-0.074094
C	 1.8789630462	-3.891620943	-0.2361306785	-0.423519
H	 0.9993648756	 2.059301301	 0.1586236015	 0.113985
H	-0.3174647878	 1.9790391438	-1.0191368701	 0.112369
H	-0.674899747	 1.9478851053	 0.7124598268	 0.114582
H	-0.8502710681	-0.3602338911	-0.3017054484	 0.097187
H	 0.8118301252	-0.2547723596	-0.8500701104	 0.100449
H	 1.597677035	-0.0794957443	 1.5250920302	 0.095345
H	-0.0635100734	-0.1666748333	 2.0865858631	 0.094589
H	-1.3065042205	-2.5193511945	 2.0434859968	 0.103428
H	-0.9090404064	-3.4168955655	 0.5443522639	 0.101642
H	 1.9769798056	-2.8668397828	 3.1233494784	 0.097962
H	 2.7890253255	-2.162118495	 0.7811620693	 0.082834
H	 1.0823626856	-4.609728644	-0.0274728598	 0.136573
H	 1.7270240654	-3.4857295084	-1.2420686059	 0.112747
H	 2.8249170512	-4.4437348261	-0.2380291464	 0.116757
64.8587	94.3273	104.9457	168.5962	235.5991	247.2754	264.1113	303.0653	319.733	336.2232	459.4651	591.6021	700.2477	741.3031	760.8283	783.7644	866.8603	893.4402	930.0325	935.7876	979.9287	998.0541	1009.2968	1033.9246	1047.708	1071.0631	1095.298	1117.4753	1124.7113	1157.6138	1169.6723	1228.7053	1267.7058	1270.1412	1305.6002	1318.4157	1340.9821	1353.4392	1389.5815	1409.2231	1413.6685	1469.3694	1478.7076	1492.4416	1493.6005	1500.0677	1502.9164	1509.6037	1520.853	3000.6148	3015.5231	3019.6473	3029.1087	3034.2701	3035.126	3058.1043	3063.1123	3091.2456	3095.6483	3102.3202	3112.8416	3129.4648	3166.8472
CCCC12COC1C2C	CCC[C@]12CO[C@H]1[C@H]2C	
InChI=1S/C8H14O/c1-3-4-8-5-9-7(8)6(8)2/h6-7H,3-5H2,1-2H3	InChI=1S/C8H14O/c1-3-4-8-5-9-7(8)6(8)2/h6-7H,3-5H2,1-2H3/t6-,7+,8-/m1/s1
