18
gdb 14171	3.80395	1.72557	1.70904	1.2099	72.59	-0.216	0.0204	0.2364	864.919	0.153913	-347.800764	-347.793354	-347.79241	-347.8317	29.738	
C	-0.1073224779	 1.574017943	 0.0600310716	-0.460993
C	 0.0331757348	 0.0734545709	-0.0226241943	 0.402203
O	-1.1121690001	-0.6207368003	 0.41383669	-0.466302
C	 0.6891522504	-0.6533901821	-1.1584211802	-0.087348
C	 1.6418549979	 0.0874612521	-2.098692122	-0.28429
C	 2.7886762033	 0.5009914275	-1.1978525662	-0.079424
C	 2.6247448511	 0.0676215282	 0.0557037355	-0.080422
C	 1.3459444813	-0.6733412435	 0.2283322673	-0.156083
H	 0.802793532	 2.0904702993	-0.248746757	 0.129442
H	-0.9361953677	 1.9102259318	-0.5716011691	 0.12308
H	-0.3277570463	 1.878973545	 1.0911113977	 0.102449
H	-1.2384005206	-0.416791643	 1.3474829169	 0.277317
H	 0.1559510625	-1.5238401335	-1.521024804	 0.095122
H	 1.9835601657	-0.5633147532	-2.9144517356	 0.108342
H	 1.1665708337	 0.9528754162	-2.5801679712	 0.109143
H	 3.6200234759	 1.1004476989	-1.5517357389	 0.092117
H	 3.3168861345	 0.2419124534	 0.8722207083	 0.091403
H	 1.2880844594	-1.5435758607	 0.8736345914	 0.084245
191.7197	211.5661	224.886	279.7983	330.8781	378.467	404.3204	470.9	509.7394	665.3853	704.8274	751.4994	792.6235	853.9878	874.8664	931.6196	949.9812	963.5372	987.5033	996.5497	1012.7277	1052.1158	1073.4385	1099.1312	1130.4146	1168.0081	1190.1064	1270.555	1282.0704	1307.95	1313.9888	1376.7819	1412.6735	1434.8177	1476.087	1495.1802	1501.8546	1663.3707	3012.8948	3024.2217	3035.8381	3085.2724	3137.3063	3162.8073	3182.4189	3186.0924	3207.4006	3789.8928
CC1(O)C2CC=CC12	C[C@@]1(O)[C@H]2CC=C[C@@H]12	
InChI=1S/C7H10O/c1-7(8)5-3-2-4-6(5)7/h2-3,5-6,8H,4H2,1H3	InChI=1S/C7H10O/c1-7(8)5-3-2-4-6(5)7/h2-3,5-6,8H,4H2,1H3/t5-,6+,7+/m1/s1
