22
gdb 68224	3.0321	1.60837	1.36761	1.3897	84.86	-0.2149	0.0851	0.3	1045.6374	0.196843	-367.183714	-367.176157	-367.175213	-367.214983	32.039	
C	-0.0484368816	 1.578564687	-0.0177747913	-0.476089
C	 0.0391333716	 0.0630973984	 0.0259307559	 0.322716
C	 1.0899366368	-0.6648570042	-0.871852147	-0.252346
C	 1.126972558	-1.7541473538	 0.244809468	-0.04331
C	 0.7397817755	-0.6237190817	 1.2341109607	-0.270301
C	-0.0264395472	-2.698874317	-0.0392354046	 0.000306
C	-1.1746591159	-2.8774125441	 0.886481287	-0.259749
N	-1.323685881	-2.0635596223	-0.3234175613	-0.097705
C	-1.3405533489	-0.5916016218	-0.1999840837	-0.193784
H	 0.9346709606	 2.0325708808	 0.1462703878	 0.109346
H	-0.4214291509	 1.9284936369	-0.9874889382	 0.115521
H	-0.7263461449	 1.9614298486	 0.7546524416	 0.112994
H	 0.7872375566	-0.9742123562	-1.8765998047	 0.097682
H	 2.0235246038	-0.0976380603	-0.9244237708	 0.090855
H	 2.0585586457	-2.2974872995	 0.4182418887	 0.062609
H	 1.6271040871	-0.0618699638	 1.5422418862	 0.092731
H	 0.1519203033	-0.8575798555	 2.1247689562	 0.090295
H	 0.2245313374	-3.5134426921	-0.7190753564	 0.085224
H	-1.7381654049	-3.8077666955	 0.8785098365	 0.1081
H	-1.1485887784	-2.384383229	 1.8543239123	 0.108612
H	-2.0308221266	-0.2982560778	 0.6021987915	 0.09536
H	-1.7588758562	-0.2001567969	-1.1367556543	 0.100932
186.1982	214.808	263.9627	292.6173	352.9179	406.4479	437.9635	447.3887	502.29	588.5353	645.6179	749.6344	793.2577	845.358	860.0624	884.6435	887.6431	922.5074	936.8071	960.5626	993.8943	1016.9054	1031.5465	1060.1578	1085.4977	1107.2397	1119.0255	1126.9236	1152.9181	1172.0578	1204.2458	1210.8845	1244.2058	1273.336	1284.7355	1293.2674	1318.078	1351.5166	1379.0523	1404.8915	1410.4422	1476.1152	1488.8106	1493.2303	1497.3844	1505.3028	1523.7656	3004.7879	3019.7817	3040.734	3045.8225	3050.9233	3077.6316	3083.183	3091.4696	3094.6841	3099.5265	3105.0071	3106.0485	3179.8114
CC12CC(C1)C1CN1C2	C[C@@]12C[C@@H](C1)[C@H]1CN1C2	
InChI=1S/C8H13N/c1-8-2-6(3-8)7-4-9(7)5-8/h6-7H,2-5H2,1H3	InChI=1S/C8H13N/c1-8-2-6(3-8)7-4-9(7)5-8/h6-7H,2-5H2,1H3/t6-,7-,8+,9?/m1/s1
