17
gdb 34586	4.52245	1.00349	0.88346	1.7266	84.48	-0.2314	-0.0203	0.2112	1297.749	0.134858	-384.654312	-384.646181	-384.645237	-384.687266	31.288	
C	 0.0670938122	-1.1862209215	-0.0504097031	-0.40596
C	-0.011347537	 0.0155248576	-0.0048263732	 0.201693
C	-0.0431531953	 1.4292715992	 0.0502565211	 0.185912
C	-1.138270415	 2.2067431862	 0.0319430357	-0.176219
C	-0.8099497106	 3.6728665876	 0.0809744273	-0.336183
C	 0.7029790107	 3.6813949556	 0.328325286	 0.423339
C	 1.5377452964	 4.880300231	 0.2267742046	-0.254184
O	 1.1542309574	 4.3621457675	 1.5040865289	-0.264089
C	 1.2284446857	 2.2596017153	 0.1153509298	-0.398099
H	 0.1193523341	-2.2459415708	-0.0893897658	 0.192052
H	-2.1522145923	 1.8303007463	-0.0268931292	 0.104162
H	-1.0772891416	 4.1757661472	-0.8590580134	 0.118293
H	-1.3286549921	 4.2082084896	 0.8847310028	 0.130653
H	 2.5952225186	 4.7853553646	-0.0195606615	 0.11199
H	 1.0859495294	 5.8336744628	-0.0472544091	 0.110845
H	 1.8861077967	 1.9651051691	 0.9392858168	 0.134862
H	 1.8060907926	 2.1630015727	-0.8124420175	 0.120931
55.4006	141.0628	159.178	305.2371	345.2582	382.437	394.3677	459.8058	539.367	542.2596	598.0964	605.3698	638.6232	786.2999	811.7146	852.0971	875.7474	905.5598	957.559	962.8505	996.7971	1037.5957	1126.1554	1143.184	1159.1195	1175.2513	1205.7927	1223.7597	1273.4396	1294.7069	1317.3506	1425.9725	1467.5524	1474.6492	1534.7906	1670.8172	2222.9267	3010.1923	3030.9758	3059.613	3073.1936	3082.2349	3157.0813	3210.9128	3503.6197
C#CC1=CCC2(CO2)C1	C#CC1=CC[C@]2(CO2)C1	
InChI=1S/C8H8O/c1-2-7-3-4-8(5-7)6-9-8/h1,3H,4-6H2	InChI=1S/C8H8O/c1-2-7-3-4-8(5-7)6-9-8/h1,3H,4-6H2/t8-/m1/s1
