22
gdb 84099	2.51489	1.50415	1.09568	1.6039	88.52	-0.2217	0.0253	0.247	1213.9435	0.193928	-367.213382	-367.204088	-367.203143	-367.246649	36.112	
C	-0.0953552076	 1.5950994805	 0.0777655826	-0.390548
C	 0.0069895221	 0.0640044667	 0.0147049996	-0.027596
C	 0.7767076892	-0.4513709889	-1.1883077032	-0.184625
C	 1.784916457	-1.2682055737	-0.8689605513	 0.305174
C	 2.7567867551	-1.9259412569	-1.7969821919	-0.504099
C	 1.8676743893	-1.4172008909	 0.6304186448	 0.236505
C	 2.3480916283	-2.697805466	 1.262019695	-0.501893
N	 2.1989037615	-0.1041299381	 1.2652400538	-0.369027
C	 0.7877846575	-0.5554844404	 1.1753395992	-0.10265
H	 0.9025132846	 2.0329668696	 0.159396017	 0.138434
H	-0.5801729366	 1.9946263091	-0.819114514	 0.106211
H	-0.6845505978	 1.9130349481	 0.9446007607	 0.105589
H	-1.0125129813	-0.3505532494	 0.0114918421	 0.072596
H	 0.5404548197	-0.1303252884	-2.1985262924	 0.082042
H	 2.5304490065	-1.6923430477	-2.8407616758	 0.122871
H	 3.7836786977	-1.5980011216	-1.5901745112	 0.131112
H	 2.7487779665	-3.0176682697	-1.6866180893	 0.12148
H	 3.4092958392	-2.8747324885	 1.0517499146	 0.124848
H	 2.2241159223	-2.6674690702	 2.349603726	 0.113202
H	 1.7873316413	-3.560748738	 0.8859397456	 0.125383
H	 2.5205723732	-0.2800453438	 2.2171316063	 0.217841
H	 0.2715660323	-0.8064174715	 2.0970449418	 0.077149
139.6892	150.7502	193.8067	213.8221	228.7913	231.7423	250.5957	292.369	414.4423	430.7635	518.9646	550.4112	603.0338	662.0586	711.9076	817.4413	844.3946	862.6961	867.0072	935.8744	969.7414	996.4597	1026.9086	1041.4854	1056.0546	1075.5868	1099.3613	1115.6687	1125.858	1146.9386	1196.7857	1261.254	1305.6971	1321.0912	1348.046	1375.1749	1398.0701	1409.8482	1415.3933	1431.7969	1478.942	1482.6245	1491.4872	1494.4569	1502.3325	1504.769	1710.4867	2986.3415	3016.6767	3024.2077	3033.9241	3062.4693	3085.5492	3095.7388	3096.6692	3110.1239	3126.0607	3152.5107	3174.3145	3457.2708
CC1C=C(C)C2(C)NC12	C[C@H]1C=C(C)[C@@]2(C)N[C@@H]12	
InChI=1S/C8H13N/c1-5-4-6(2)8(3)7(5)9-8/h4-5,7,9H,1-3H3	InChI=1S/C8H13N/c1-5-4-6(2)8(3)7(5)9-8/h4-5,7,9H,1-3H3/t5-,7-,8+/m0/s1
