18
gdb 61663	4.0763	0.8455	0.73562	3.6012	73.15	-0.2603	0.0099	0.2702	1495.7903	0.145881	-439.058325	-439.048988	-439.048044	-439.093892	32.589	
C	 0.0622289876	 1.5173644982	 0.1065137965	-0.400193
C	 0.0000345658	-0.0106461339	-0.0286359457	-0.019331
O	 0.6311167559	-0.6965156859	 1.0388382324	-0.253657
C	 2.0363579601	-0.7076552136	 0.9961642993	 0.090332
C	 2.8211798274	 0.3450424797	 1.8180913106	-0.096877
O	 3.5389916929	-0.6963058601	 2.5078826618	-0.269596
C	 2.6719970045	-1.7152397034	 1.9664962569	-0.103083
C	-1.3983977157	-0.4724911254	-0.0651761818	 0.280097
N	-2.5022526606	-0.8060759472	-0.121383709	-0.31043
H	 1.1012968639	 1.8539592481	 0.0629997014	 0.133172
H	-0.4876100033	 1.993425433	-0.709797781	 0.144138
H	-0.375721863	 1.8290799812	 1.057341963	 0.15082
H	 0.463418587	-0.3073938303	-0.9837785127	 0.121566
H	 2.390802918	-0.8053987566	-0.0382673208	 0.086388
H	 3.4928091854	 1.0206829614	 1.2760837826	 0.105619
H	 2.1753490932	 0.9234682446	 2.491803779	 0.108172
H	 1.9520962726	-2.0904912403	 2.7049142934	 0.119575
H	 3.2307791881	-2.5516265695	 1.5347358941	 0.113289
38.6916	69.4466	88.9634	160.6672	199.5751	237.4835	299.1766	338.6267	390.3244	454.4613	567.1619	567.9404	737.8553	826.7594	874.4971	886.2985	930.8572	1001.9458	1027.1317	1037.0293	1067.7992	1098.6032	1129.0829	1146.9986	1154.9215	1170.9932	1201.4052	1268.9488	1301.9055	1334.5179	1345.5143	1365.9239	1403.9853	1429.1493	1486.6514	1491.846	1499.6863	1527.6795	2369.8931	2976.7897	3009.9851	3017.3029	3026.8089	3051.9233	3067.5983	3083.5922	3128.7263	3141.3492
CC(OC1COC1)C#N	C[C@@H](OC1COC1)C#N	
InChI=1S/C6H9NO2/c1-5(2-7)9-6-3-8-4-6/h5-6H,3-4H2,1H3	InChI=1S/C6H9NO2/c1-5(2-7)9-6-3-8-4-6/h5-6H,3-4H2,1H3/t5-/m1/s1
