23
gdb 77694	2.49454	1.30601	1.15108	1.2642	85.83	-0.2489	0.0761	0.3251	1225.8507	0.203827	-388.274976	-388.265212	-388.264268	-388.308759	38.487	
C	-0.7622274452	 1.0334843709	 0.0934741418	-0.429601
C	-0.0702649445	-0.3194826632	 0.0431775237	-0.06412
C	 0.8195632302	-0.7083748333	-1.1506885846	 0.380388
C	 0.4163479397	-1.0965702508	-2.537590606	-0.337481
C	 1.1946359621	 0.1809162331	-2.3029122304	-0.321355
C	 1.8098075051	-1.4038366431	-0.2108682692	-0.370768
C	 1.140354049	-0.6350667166	 0.9765283705	 0.40554
C	 1.9467444126	 0.5754211626	 1.4347213236	-0.45189
O	 0.7260399723	-1.4164622029	 2.0835722753	-0.483797
H	-0.0616584426	 1.8594781199	-0.063002433	 0.113885
H	-1.5357103628	 1.1046365744	-0.6798057137	 0.112767
H	-1.2533288109	 1.1845577321	 1.0605695388	 0.121784
H	-0.8054167474	-1.1147663981	 0.2146323989	 0.083562
H	 0.9289410962	-1.9307985308	-3.0065849816	 0.108372
H	-0.6306893985	-1.0087256939	-2.8123990836	 0.108202
H	 0.6693681857	 1.1229161987	-2.4248904461	 0.109745
H	 2.2355925555	 0.2101964082	-2.6104945239	 0.106519
H	 1.6229554545	-2.4784323985	-0.1240484844	 0.100235
H	 2.877294838	-1.2310619859	-0.3808428266	 0.087687
H	 2.2464853692	 1.202005678	 0.5895790452	 0.125154
H	 1.3695388384	 1.1865115174	 2.1351727775	 0.122102
H	 2.8644201563	 0.2487046616	 1.9407588045	 0.102001
H	 1.4917284573	-1.5691691099	 2.6481374332	 0.271069
69.1461	198.5835	222.0151	230.3383	238.4585	248.1924	280.6672	297.3734	341.3794	360.3234	402.5535	491.5452	519.7412	538.1359	707.3259	749.2926	780.5637	842.4816	869.0597	899.5164	914.3714	926.8371	963.0087	984.4035	1026.9426	1048.0221	1073.6355	1077.5712	1090.7985	1113.7203	1162.7761	1179.666	1187.1847	1203.4886	1223.1057	1261.1382	1298.4846	1363.841	1373.1966	1394.3034	1404.4775	1410.1081	1464.6779	1479.3081	1488.289	1489.693	1501.7181	1505.1746	1507.7097	3020.4845	3029.7543	3035.8229	3042.1057	3087.2842	3091.6512	3097.3836	3105.3452	3116.0527	3117.0867	3121.4309	3193.6463	3208.933	3798.3977
CC1C2(CC2)CC1(C)O	C[C@H]1C2(CC2)C[C@]1(C)O	
InChI=1S/C8H14O/c1-6-7(2,9)5-8(6)3-4-8/h6,9H,3-5H2,1-2H3	InChI=1S/C8H14O/c1-6-7(2,9)5-8(6)3-4-8/h6,9H,3-5H2,1-2H3/t6-,7+/m1/s1
