17
gdb 24656	4.38786	1.13036	0.96013	3.6885	82.58	-0.2393	-0.0184	0.2209	1214.1856	0.139692	-380.89976	-380.892567	-380.891623	-380.931986	27.637	
C	 0.1521118873	 1.5638990986	 0.0346231979	-0.229651
N	 1.2602417962	 0.617014422	-0.1165736149	-0.308878
C	-0.1058845408	 0.0909061058	 0.0374316163	-0.131837
C	-0.4249256343	-0.6614278049	 1.2818192779	 0.290323
C	 0.4401380542	-0.6750700425	 2.3818969047	-0.066514
N	 0.1856204647	-1.3124514092	 3.5265344681	-0.264419
C	-0.9672694162	-1.9812967219	 3.6162255711	-0.000112
C	-1.8964886264	-2.0469617413	 2.5821622186	-0.114505
C	-1.6171389088	-1.3762169545	 1.397746184	-0.172251
H	 0.139809889	 2.101614935	 0.9785945693	 0.12795
H	-0.1771759423	 2.1397503623	-0.8265879521	 0.117129
H	 1.5533830449	 0.5577225391	-1.0872595846	 0.238058
H	-0.596781276	-0.2962287138	-0.8541038911	 0.086356
H	 1.3888507101	-0.1506970123	 2.3137701809	 0.127651
H	-1.1536277132	-2.4933513629	 4.5574234515	 0.105482
H	-2.813853488	-2.6126523804	 2.7029371142	 0.098957
H	-2.3178820405	-1.406079189	 0.5677083881	 0.096263
59.1731	145.1162	198.8606	320.0015	405.6524	417.5075	546.9924	577.1539	637.6415	740.5797	774.1153	819.0031	868.1666	903.5563	918.0447	962.5924	972.6106	990.6247	1002.6879	1038.6657	1064.6784	1094.579	1118.2858	1140.9556	1162.5637	1220.8494	1226.0528	1253.6941	1287.359	1297.7696	1361.9202	1431.9193	1461.2069	1506.9866	1516.6874	1612.2637	1635.583	3106.5587	3116.3659	3153.0491	3163.2724	3177.6261	3195.6123	3196.7958	3516.5296
C1NC1C1=CN=CC=C1	C1N[C@H]1c1cnccc1	
InChI=1S/C7H8N2/c1-2-6(4-8-3-1)7-5-9-7/h1-4,7,9H,5H2	InChI=1S/C7H8N2/c1-2-6(4-8-3-1)7-5-9-7/h1-4,7,9H,5H2/t7-/m1/s1
