17
gdb 84970	2.91755	1.41877	1.00005	5.3389	79.82	-0.2294	-0.0736	0.1557	1165.1009	0.137496	-418.05008	-418.041872	-418.040928	-418.083374	30.928	
C	-0.3903944276	 1.574132584	 0.2483910108	-0.392456
C	 0.1362392676	 0.153974	-0.0369182293	-0.004476
N	 0.9895668584	 0.1576009343	-1.2046501969	-0.34949
C	 2.1747132063	-0.5185017983	-1.3674386509	 0.263778
N	 2.721861054	-0.6255988655	-2.5151757699	-0.521365
C	 2.8097596846	-1.0824469372	-0.1040766943	 0.322137
O	 3.8966656667	-1.6214728279	-0.1628286876	-0.330583
C	 2.0470801272	-0.9586024656	 1.1438295894	-0.164598
C	 0.826520724	-0.4129232322	 1.162339611	-0.043351
H	 0.4380135439	 2.2484252918	 0.4808212439	 0.138162
H	-0.9183390619	 1.9630665699	-0.6275415194	 0.125985
H	-1.0915316374	 1.565610752	 1.088277432	 0.123965
H	-0.7480876591	-0.4870872839	-0.215332203	 0.108594
H	 0.5844411923	 0.4878807534	-2.0691717595	 0.24697
H	 3.6099301369	-1.1157747224	-2.3929575915	 0.234459
H	 2.5130772871	-1.3629545414	 2.0364747204	 0.121215
H	 0.2587289871	-0.3621073708	 2.0878757647	 0.121055
51.8177	87.1759	228.0515	263.0831	324.8432	365.0587	402.2154	445.0222	481.7683	555.5393	572.0962	591.9577	695.897	746.737	805.1746	856.3675	892.8102	904.7108	985.3888	1016.5268	1036.6357	1084.0463	1123.5613	1162.5949	1217.5777	1245.2207	1326.2221	1361.6629	1400.2698	1410.2694	1444.1331	1469.5525	1496.5969	1498.471	1690.8486	1709.3988	1777.522	2915.559	3041.088	3113.9968	3128.5638	3164.7048	3194.276	3470.4495	3598.1944
CC1NC(=N)C(=O)C=C1	C[C@H]1N[C]([NH])C(=O)C=C1	
InChI=1S/C6H8N2O/c1-4-2-3-5(9)6(7)8-4/h2-4H,1H3,(H2,7,8)	InChI=1S/C6H8N2O/c1-4-2-3-5(9)6(7)8-4/h2-4H,1H3,(H2,7,8)/t4-/m1/s1
