24
gdb 97369	3.32081	0.74617	0.64534	2.8097	91.49	-0.243	0.0301	0.2731	1852.3009	0.213881	-405.559626	-405.548104	-405.54716	-405.59688	41.124	
C	-0.0222204762	 1.3884921571	-0.0451969683	-0.31384
N	 0.0506358182	-0.056935262	-0.0537261278	-0.213524
C	-1.0351046696	-0.689187611	 0.0132503469	 0.130321
O	-1.0528982131	-2.0341002978	 0.0497350751	-0.214948
C	-2.3377149819	-2.6796170106	-0.0371007049	 0.128219
C	-2.7064556997	-2.8484689999	-1.5098228167	-0.403151
C	-2.2226368613	-3.9950848544	 0.750664403	 0.031475
C	-1.8200870209	-3.7295340097	 2.2079613456	-0.400139
C	-3.5213329856	-4.8117661017	 0.6872389005	-0.401593
H	 0.4578517233	 1.7877254313	-0.9461932093	 0.125361
H	-1.0496178447	 1.7872000692	 0.0031708108	 0.092512
H	 0.5367835679	 1.7823318834	 0.8117355005	 0.125854
H	-2.031035157	-0.2185363223	 0.0656047797	 0.069582
H	-3.0840469731	-2.0382384575	 0.4578454745	 0.076804
H	-1.9958109245	-3.5152534333	-2.0081224265	 0.130988
H	-3.7128091026	-3.2589527142	-1.6238421738	 0.122986
H	-2.6787543735	-1.8815900376	-2.0211446788	 0.120772
H	-1.4219331286	-4.5762440515	 0.2733624664	 0.087352
H	-2.598487657	-3.1597233579	 2.7307571787	 0.106008
H	-1.6844149013	-4.6722250335	 2.7471465719	 0.110835
H	-0.888140977	-3.1641072174	 2.2647710132	 0.139609
H	-3.4300150693	-5.7127884711	 1.3012518847	 0.117893
H	-4.3703132731	-4.2358292829	 1.0756486321	 0.112806
H	-3.7666838294	-5.1299377347	-0.3293135573	 0.117819
43.1719	66.9485	87.6956	147.7983	203.0375	210.2068	218.174	238.5707	263.1097	303.1753	335.9597	343.905	381.0195	414.3982	493.2252	499.3303	622.6218	809.4461	897.6279	932.3686	944.0452	965.9864	986.1235	993.7514	1049.3184	1074.335	1125.3651	1141.6836	1151.2701	1156.6599	1190.2559	1211.8258	1257.368	1314.8934	1344.2363	1365.3269	1386.9949	1398.9574	1409.7949	1420.0293	1426.0116	1450.4142	1480.8258	1488.1527	1489.186	1493.7703	1499.6266	1505.3577	1507.7363	1518.3975	1775.3579	2960.2161	2972.7086	2984.7632	3018.7868	3028.0055	3034.0461	3043.5635	3054.003	3073.4135	3091.7425	3098.7719	3111.887	3114.7203	3127.6086	3133.7795
CN=COC(C)C(C)C	CN=CO[C@@H](C)C(C)C	
InChI=1S/C7H15NO/c1-6(2)7(3)9-5-8-4/h5-7H,1-4H3	InChI=1S/C7H15NO/c1-6(2)7(3)9-5-8-4/h5-7H,1-4H3/t7-/m0/s1
