19
gdb 72551	2.34726	1.94265	1.46803	3.4214	74.65	-0.2258	-0.016	0.2098	974.2567	0.160221	-423.064305	-423.056585	-423.055641	-423.096142	30.783	
C	 0.0198108157	 1.4999334002	 0.0771861261	-0.482753
C	 0.0053538024	 0.0017698545	-0.059961943	 0.313453
C	 0.6913398019	-0.6990196281	-1.2397100462	-0.282468
C	 0.4296936014	-2.1191945346	-0.6819714243	-0.06044
C	 1.0227509441	-1.9494138622	 0.7227296615	-0.07125
O	 0.6430696917	-0.6118445417	 1.095087872	-0.312178
C	-1.107005442	-2.1224499265	-0.5327526686	-0.337986
C	-1.383505166	-0.6780446845	-0.0714428663	 0.419567
O	-2.4377959256	-0.195251471	 0.2427655497	-0.332457
H	 1.043526887	 1.8658736531	 0.191887478	 0.121292
H	-0.4277398354	 1.966788668	-0.8048002378	 0.12362
H	-0.5649623831	 1.8011739704	 0.9500329398	 0.144376
H	 0.1978724172	-0.5101734482	-2.1977438693	 0.107128
H	 1.7517263609	-0.4446162051	-1.3172227897	 0.1099
H	 0.8427193393	-2.9526169787	-1.2502993503	 0.077313
H	 0.6136155671	-2.6601328143	 1.4502384353	 0.105195
H	 2.1171137769	-2.0365939024	 0.728157674	 0.10035
H	-1.6122258674	-2.2957992972	-1.4895946861	 0.128432
H	-1.4946840562	-2.8519093516	 0.183961145	 0.128906
118.4665	179.0267	221.1204	269.3718	312.156	376.8417	425.7134	499.8793	544.7618	595.37	625.7051	702.405	791.4577	828.8377	867.575	884.172	924.5577	941.0078	957.8939	974.7894	1015.0257	1045.7099	1061.025	1113.0128	1133.5989	1149.1648	1183.1627	1222.6301	1229.9302	1269.5648	1290.4299	1326.1732	1352.8567	1370.2718	1417.0333	1448.8273	1479.9489	1486.886	1490.1704	1530.9319	1860.4119	3013.0159	3049.1866	3049.986	3056.9842	3058.7697	3101.4694	3112.7507	3115.8487	3123.5395	3129.375
CC12CC(CO1)CC2=O	C[C@@]12C[C@@H](CO1)CC2=O	
InChI=1S/C7H10O2/c1-7-3-5(4-9-7)2-6(7)8/h5H,2-4H2,1H3	InChI=1S/C7H10O2/c1-7-3-5(4-9-7)2-6(7)8/h5H,2-4H2,1H3/t5-,7-/m0/s1
