18
gdb 61494	2.60892	0.91832	0.85255	5.0661	73.15	-0.2668	-0.0372	0.2296	1431.9939	0.144661	-439.105994	-439.09581	-439.094866	-439.141893	35.488	
C	-1.5755153578	-0.353310719	 0.2065623343	-0.420445
C	-0.1248244041	 0.1512746859	 0.0837423502	-0.080432
C	 0.7921622925	-0.4388581588	 1.1612917534	-0.212822
C	 2.145913943	 0.2924297017	 1.2602390668	-0.033306
O	 2.0073831897	 1.6873240328	 1.4834477511	-0.410606
C	 2.9843052336	-0.325364279	 2.3063995633	 0.258104
N	 3.6111175401	-0.7947650534	 3.1562259142	-0.316146
C	 0.3792211445	-0.1212163426	-1.3213129705	 0.161901
O	 1.3869406675	-0.7241826888	-1.5940100338	-0.247245
H	-2.0092656114	-0.0445096954	 1.1615014791	 0.13104
H	-2.2049154419	 0.0496210211	-0.5932090885	 0.127809
H	-1.6186683695	-1.4460517319	 0.1522620185	 0.134979
H	-0.1377936627	 1.2461966046	 0.1867589448	 0.118491
H	 0.2923834887	-0.3873543422	 2.1360158371	 0.105362
H	 0.9833127224	-1.496433503	 0.9519018816	 0.136056
H	 2.6685751045	 0.1968148452	 0.3050737626	 0.165803
H	 1.6647847961	 1.8194542447	 2.3752830919	 0.29478
H	-0.277535725	 0.2826630178	-2.1256376662	 0.086676
49.7751	91.2204	106.2036	122.4111	193.5773	227.1115	245.3388	302.3882	319.3807	347.8835	384.3325	451.9223	562.4454	589.6244	644.2439	829.0569	847.342	918.5535	927.5312	947.4565	1000.6792	1061.438	1102.4855	1130.7247	1166.5894	1201.9256	1276.9222	1302.4146	1315.402	1367.6817	1378.6807	1405.9173	1421.7039	1433.7171	1469.9146	1497.5499	1503.013	1822.8143	2355.4606	2873.2969	3015.9454	3035.9677	3039.4081	3088.03	3102.0201	3107.5798	3116.6608	3796.9618
CC(CC(O)C#N)C=O	C[C@@H](C[C@@H](O)C#N)C=O	
InChI=1S/C6H9NO2/c1-5(4-8)2-6(9)3-7/h4-6,9H,2H2,1H3	InChI=1S/C6H9NO2/c1-5(4-8)2-6(9)3-7/h4-6,9H,2H2,1H3/t5-,6+/m0/s1
