18
gdb 53127	5.81362	0.87259	0.84041	1.6879	86.89	-0.2259	0.0376	0.2635	1430.8829	0.147168	-364.686598	-364.678376	-364.677432	-364.721126	30.288	
C	 0.0398550498	 1.5545760685	-0.0703902011	-0.501337
C	 0.0637939183	 0.1002562225	-0.0213350543	 0.13158
C	 0.0805549127	-1.104290927	 0.011507145	 0.04393
C	 0.1080868826	-2.5505020904	 0.0618474047	-0.178305
C	 0.0499304269	-3.27261166	 1.4143105687	-0.064777
C	-1.4850607345	-3.0221112855	 1.4843386769	-0.001327
C	-1.8264911597	-4.4977918317	 1.7082605361	-0.259566
C	-0.6519952015	-4.4780021128	 0.7268333403	-0.007444
N	-1.2574325823	-3.2661398882	-0.0365762283	-0.162085
H	 0.9268929112	 1.9497403889	-0.5777189302	 0.149463
H	-0.8401878071	 1.9163164518	-0.6137174174	 0.152261
H	 0.0105581883	 1.9891994177	 0.9349558598	 0.147376
H	 0.8199210483	-2.9592098601	-0.6654886907	 0.093108
H	 0.7757144997	-3.280919	 2.2342223489	 0.069545
H	-1.996344665	-2.1223223053	 1.8251549455	 0.093353
H	-1.634066465	-4.9060353498	 2.7035340453	 0.10036
H	-2.7847361678	-4.8374983135	 1.3065980873	 0.110926
H	-0.1815990851	-5.2933429452	 0.1742293135	 0.082938
19.17	84.0396	102.0194	248.2974	286.1352	379.3859	405.679	462.286	524.0683	713.2188	792.5472	817.8334	826.2498	860.0493	868.208	902.4038	913.2615	950.6859	1020.0697	1026.115	1034.5395	1051.2026	1053.9404	1118.141	1128.591	1147.846	1172.928	1173.8264	1192.6501	1226.8472	1232.805	1259.3499	1313.9894	1376.891	1413.9585	1477.0074	1478.0628	1490.8521	2364.249	3026.6321	3032.8417	3049.0057	3057.822	3087.175	3088.3704	3100.5631	3122.9216	3124.7297
CC#CC1C2C3CC2N13	CC#C[C@H]1[C@H]2[C@@H]3C[C@H]2N13	
InChI=1S/C8H9N/c1-2-3-5-8-6-4-7(8)9(5)6/h5-8H,4H2,1H3	InChI=1S/C8H9N/c1-2-3-5-8-6-4-7(8)9(5)6/h5-8H,4H2,1H3/t5-,6-,7+,8-/m0/s1
