21
gdb 79741	2.31995	1.6898	1.31651	1.2478	80.98	-0.2364	0.0794	0.3158	1074.3329	0.183428	-387.062147	-387.053816	-387.052872	-387.094362	33.826	
C	-0.2411151259	 1.5289767635	 0.2071180888	-0.430287
C	 0.0468459419	 0.0555263982	-0.0185778832	-0.075756
C	 0.6376350282	-0.6614504667	-1.2428546307	-0.118386
C	 1.479396943	-0.0148513391	-2.3201910185	-0.028977
C	 1.8021178767	 1.4609146634	-2.3126464952	-0.305161
C	 2.7608432986	 0.4858938733	-1.6758065683	-0.026878
C	 2.6867187166	 0.1740486374	-0.1760890086	-0.321816
C	 1.3889176049	-0.6245727352	 0.0660592294	 0.364128
O	 1.5080724063	-1.7901279734	 0.8359431134	-0.463873
H	-0.9135340166	 1.9385969758	-0.5540060256	 0.125596
H	-0.7319471548	 1.6587595899	 1.177917394	 0.110259
H	 0.6607867541	 2.1443671274	 0.225485135	 0.126172
H	-0.7241835715	-0.5785974032	 0.4165831484	 0.086609
H	 0.1151750995	-1.5687823517	-1.5250490182	 0.089487
H	 1.4989600107	-0.525744615	-3.2763029757	 0.081136
H	 2.1165500957	 1.8861460335	-3.2608384761	 0.105665
H	 1.2265955064	 2.1455742193	-1.7075643041	 0.112114
H	 3.7199533015	 0.3449533728	-2.1621470686	 0.083036
H	 3.514437974	-0.4835797302	 0.1040501228	 0.113252
H	 2.7639546202	 1.0711288728	 0.45055628	 0.096003
H	 1.4046809804	-1.5475155928	 1.762335951	 0.277677
148.1556	175.964	205.4185	252.049	276.3056	308.9393	380.772	389.5152	463.9698	567.7871	624.3876	661.6503	682.7125	766.6694	786.5348	809.5512	859.7714	902.1261	918.8621	952.7514	985.0359	1002.8318	1035.8358	1061.5272	1069.4872	1076.6586	1099.4992	1108.579	1128.8852	1151.6884	1182.156	1221.2007	1232.1783	1278.782	1289.866	1332.4194	1346.7355	1367.1489	1383.9965	1414.2848	1455.0384	1482.174	1491.6027	1505.0682	1514.5891	3031.0412	3033.6417	3086.986	3088.8972	3107.8412	3122.3435	3142.5309	3159.4884	3166.349	3178.066	3251.2816	3795.7752
CC1C2C3CC3CC12O	C[C@H]1[C@H]2[C@H]3C[C@H]3C[C@@]12O	
InChI=1S/C8H12O/c1-4-7-6-2-5(6)3-8(4,7)9/h4-7,9H,2-3H2,1H3	InChI=1S/C8H12O/c1-4-7-6-2-5(6)3-8(4,7)9/h4-7,9H,2-3H2,1H3/t4-,5-,6-,7-,8+/m0/s1
