15
gdb 12400	3.05849	2.2056	1.36237	2.468	56.81	-0.2528	-0.0036	0.2492	863.0721	0.120703	-436.958614	-436.95132	-436.950376	-436.990404	26.581	
N	-0.1243886484	 1.4887359506	 0.0260447555	-0.508969
C	-0.0411785432	 0.0397470561	-0.0553909833	-0.1154
C	-1.4307017063	-0.5965755949	 0.0092444258	-0.103747
O	-1.3057402227	-1.9983423827	-0.1860956538	-0.215689
C	-0.8374161651	-2.2761381962	-1.4570376076	 0.016945
O	 0.4526822627	-1.7089025806	-1.7411922407	-0.229995
C	 0.7636696721	-0.4777339647	-1.2632600465	 0.39081
O	 1.6822281993	 0.1349117722	-1.7344605179	-0.324088
H	 0.8178044048	 1.8671537473	-0.0199393389	 0.250055
H	-0.5929491144	 1.8473721301	-0.8030607162	 0.230356
H	 0.5165520157	-0.3196020473	 0.8202948963	 0.131542
H	-1.8878723933	-0.4380257155	 0.9866767495	 0.13693
H	-2.0932627062	-0.1609953767	-0.7578379391	 0.098633
H	-0.7137535037	-3.3563642202	-1.5433533792	 0.137854
H	-1.5319252414	-1.9056923177	-2.228231114	 0.104764
83.2125	143.54	217.8278	288.3001	334.2113	385.2294	445.1991	462.5304	554.0179	645.5798	744.9458	802.0052	921.1566	977.9019	1001.1242	1026.9893	1049.7369	1097.6236	1152.6687	1182.0876	1219.6339	1254.7837	1261.7383	1320.1153	1343.8812	1382.3506	1416.3634	1457.4408	1501.6579	1523.6351	1672.6913	1843.2904	2969.2079	2978.167	3026.2963	3124.9189	3128.4557	3483.4634	3558.6309
NC1COCOC1=O	N[C@H]1COCOC1=O	
InChI=1S/C4H7NO3/c5-3-1-7-2-8-4(3)6/h3H,1-2,5H2	InChI=1S/C4H7NO3/c5-3-1-7-2-8-4(3)6/h3H,1-2,5H2/t3-/m0/s1
