23
gdb 81355	2.3979	1.42225	1.28258	1.668	84.32	-0.239	0.0807	0.3198	1174.0507	0.206221	-388.279714	-388.270753	-388.269809	-388.312582	35.559	
C	-0.0294784627	 1.5891946963	 0.0044553457	-0.423295
C	-0.0448502092	 0.0674539897	-0.0087887257	 0.026027
C	 1.1448579708	-0.6062661752	-0.7399934294	 0.058885
O	 1.9659963656	-0.358436425	 0.4459773284	-0.307034
C	 0.7132957226	-0.6184126708	 1.156870717	 0.058886
C	 0.528141819	-2.1356259364	 0.9193404815	 0.00522
C	-0.820040498	-2.7135443485	 1.3473843887	-0.415974
C	 0.879370651	-2.1257393505	-0.6244362784	 0.005219
C	-0.1493389043	-2.6946613381	-1.6005987422	-0.415974
H	 0.9718493894	 1.9610790556	 0.234617417	 0.135849
H	-0.3326176219	 1.9927680038	-0.9678478371	 0.110895
H	-0.7244783215	 1.9817325049	 0.7548076949	 0.110895
H	-1.0446069529	-0.3121969257	-0.2386784418	 0.062559
H	 1.5708353535	-0.2175139102	-1.6671999282	 0.06903
H	 0.6951457111	-0.2421622171	 2.1817625746	 0.06903
H	 1.3189369022	-2.6599772072	 1.4644622944	 0.077902
H	-1.6668783087	-2.2137830362	 0.8678769135	 0.115152
H	-0.8890194303	-3.7794974309	 1.1080867358	 0.118271
H	-0.95063033	-2.6144975727	 2.4307780583	 0.113566
H	 1.8296097742	-2.6456060112	-0.7801387548	 0.077902
H	-1.1216668765	-2.1984651104	-1.5285570082	 0.115153
H	 0.2013208227	-2.5820192753	-2.6325656347	 0.113566
H	-0.3120613961	-3.7632655788	-1.4277299595	 0.11827
142.7235	191.2754	202.0196	228.039	232.7224	260.4224	266.0228	332.35	360.5282	508.8117	522.3575	561.1048	667.5175	742.568	805.4537	843.1436	867.0755	870.9213	913.3732	920.2845	1006.6043	1015.0017	1034.5006	1055.2823	1058.1213	1074.0971	1098.1044	1118.0134	1152.6362	1157.8903	1200.0402	1227.4077	1234.2833	1260.851	1292.2446	1314.7402	1318.9985	1361.406	1365.9018	1401.8481	1405.2872	1409.5161	1420.3181	1491.8042	1494.2373	1495.0129	1506.8217	1507.0276	1510.6006	3032.2278	3032.3013	3035.7958	3045.0165	3060.8758	3062.1649	3089.9553	3091.9835	3096.3868	3098.5726	3102.7262	3105.2844	3113.7146	3126.2167
CC1C2OC1C(C)C2C	C[C@H]1[C@H]2O[C@@H]1[C@@H](C)[C@H]2C	
InChI=1S/C8H14O/c1-4-5(2)8-6(3)7(4)9-8/h4-8H,1-3H3	InChI=1S/C8H14O/c1-4-5(2)8-6(3)7(4)9-8/h4-8H,1-3H3/t4-,5+,6+,7+,8-
