15
gdb 51976	6.89923	0.63362	0.58569	1.6996	68.28	-0.2665	-0.057	0.2095	1747.015	0.110358	-453.996226	-453.98661	-453.985666	-454.03385	31.703	
O	-0.0283396205	-0.1019735324	 0.1665346475	-0.322534
C	-0.0157736301	 1.1086431476	 0.0897255875	 0.155694
N	 1.1083750069	 1.8480333232	-0.0923001778	-0.288042
C	 2.4088352377	 1.2367929128	-0.1456340172	-0.22663
C	 3.4883399711	 2.2978856706	-0.0209521301	 0.366157
O	 3.2328765484	 3.4733794685	 0.0339946875	-0.270753
C	 4.9237558138	 1.755756639	 0.0302723137	-0.455026
C	 5.9412660668	 2.7973607756	-0.0254089652	 0.289721
N	 6.7625371677	 3.6067712261	-0.0724185736	-0.285148
H	-0.9238564173	 1.7373354884	 0.1571443642	 0.089582
H	 1.0853469343	 2.8577814292	-0.0868054829	 0.269289
H	 2.5204929608	 0.4872560956	 0.6495065913	 0.157404
H	 2.5680218959	 0.6886247144	-1.0873481304	 0.151296
H	 5.0385199014	 1.1775366049	 0.9563161793	 0.187951
H	 5.074384673	 1.0425406266	-0.7889699638	 0.18104
15.3599	26.0294	81.9548	108.519	170.2998	266.8213	306.9972	346.7931	365.8828	435.2053	454.2473	557.4793	677.1839	798.9997	811.6676	902.405	948.2224	1022.9442	1036.0052	1040.4471	1110.4438	1200.0641	1226.685	1258.5579	1327.9792	1368.6952	1422.2718	1434.5392	1477.9221	1515.5189	1798.3795	1830.308	2379.7865	2957.9151	2996.5908	3035.6449	3041.5528	3075.9342	3609.5003	15.3594	26.0294	81.9546	108.5188	170.2997	266.8213	306.9973	346.793	365.8827	435.2053	454.2472	557.4792	677.184	798.9998	811.6677	902.4051	948.2224	1022.9442	1036.0059	1040.4472	1110.4438	1200.064	1226.6849	1258.5577	1327.9791	1368.695	1422.2728	1434.5392	1477.9216	1515.5187	1798.3795	1830.3079	2379.7867	2957.9153	2996.5908	3035.6449	3041.5528	3075.9342	3609.5003
O=CNCC(=O)CC#N	O=CNCC(=O)CC#N	
InChI=1S/C5H6N2O2/c6-2-1-5(9)3-7-4-8/h4H,1,3H2,(H,7,8)	InChI=1S/C5H6N2O2/c6-2-1-5(9)3-7-4-8/h4H,1,3H2,(H,7,8)
