21
gdb 52819	3.32248	0.90763	0.88093	0.2093	92.69	-0.2382	0.0277	0.2658	1475.5532	0.181486	-349.950721	-349.940918	-349.939974	-349.986528	35.979	
C	 0.200066718	 1.6022983366	-0.3401778095	-0.499772
C	 0.1030560687	 0.160591719	-0.1565240589	 0.068671
C	 0.0210293766	-1.0316396713	-0.0022847188	 0.034207
C	-0.0719142259	-2.4792674095	 0.1759018965	 0.114468
C	 0.752766966	-3.1956565232	-0.916732485	-0.423629
C	 0.4318408826	-2.9407408094	 1.5894993936	-0.283608
C	-0.5221233531	-4.0456953114	 1.9646876358	-0.062876
C	-1.5933235913	-4.0741306028	 1.1748368487	-0.062868
C	-1.5544754756	-2.9934706953	 0.1248802896	-0.283622
H	 0.8931480912	 1.8562209889	-1.1501563982	 0.144915
H	-0.7730842568	 2.0397994988	-0.5902555033	 0.144797
H	 0.5598963216	 2.0978194601	 0.5686357502	 0.144767
H	 1.8052528668	-2.9030505561	-0.8620605665	 0.117944
H	 0.6854548309	-4.2808127416	-0.7864124138	 0.11665
H	 0.3800499506	-2.9408265176	-1.9129616471	 0.117962
H	 1.47904822	-3.2629682682	 1.5523041402	 0.102876
H	 0.3849404925	-2.1170772545	 2.3128084805	 0.113033
H	-0.3458524159	-4.7051208316	 2.807561167	 0.090084
H	-2.4274958977	-4.7603781712	 1.2726638884	 0.090083
H	-2.2595953014	-2.1872588835	 0.3628376056	 0.113049
H	-1.8168191178	-3.3504719763	-0.8779072951	 0.102868
24.8496	75.514	99.4737	138.5054	272.9485	287.3239	291.0963	348.4823	351.4367	407.0479	451.7354	531.3696	551.9821	691.973	760.6137	768.5141	853.9128	915.8463	935.3225	957.2643	976.0048	984.2051	990.7072	1053.1846	1053.8215	1061.4998	1096.8751	1129.494	1136.6467	1195.9973	1201.6253	1286.4946	1291.4843	1337.1872	1363.7173	1401.0252	1415.1195	1479.5415	1479.7725	1481.0078	1486.4123	1493.5795	1501.0845	1689.52	2365.9666	3023.8421	3024.2308	3025.4757	3034.59	3056.9511	3057.6278	3083.0341	3083.4026	3109.0295	3114.6656	3178.8143	3204.3226
CC#CC1(C)CC=CC1	CC#C[C@@]1(C)CC=CC1	
InChI=1S/C9H12/c1-3-6-9(2)7-4-5-8-9/h4-5H,7-8H2,1-2H3	InChI=1S/C9H12/c1-3-6-9(2)7-4-5-8-9/h4-5H,7-8H2,1-2H3
