22
gdb 105060	2.52225	1.34612	1.15573	2.1369	81.82	-0.233	0.0733	0.3063	1204.7069	0.19216	-404.292136	-404.282245	-404.281301	-404.327183	37.283	
C	-0.0311553402	 1.2590312565	-0.7169408076	-0.250862
O	-0.0966412169	-0.0521551615	-0.2062188282	-0.290737
C	-1.3539766591	-0.5763234266	 0.1541680155	 0.378253
C	-2.1248292483	 0.0598980743	 1.2794632508	-0.345142
C	-2.6446057962	 0.1436073725	-0.1452042613	-0.338215
C	-1.290486233	-2.0759990217	-0.027002911	 0.299835
C	-1.0985688624	-2.5136291071	-1.4649228658	-0.449575
C	-0.7066924101	-2.8808148708	 1.0771657582	-0.268371
N	-2.1476412892	-2.9651490729	 0.7720644633	-0.367941
H	 1.0274491035	 1.4642911395	-0.8938115502	 0.129986
H	-0.5730278742	 1.3634049404	-1.6668280048	 0.113671
H	-0.4116318922	 2.0124654773	-0.0110648077	 0.107061
H	-2.6567980878	-0.5476348753	 2.0039841666	 0.110113
H	-1.7009154184	 0.9645012448	 1.7027958254	 0.119115
H	-2.6279746717	 1.1115126652	-0.6309389286	 0.118338
H	-3.4973128037	-0.4714325185	-0.4131261033	 0.125097
H	-0.1833391804	-2.079571113	-1.8757226851	 0.126416
H	-1.036868983	-3.6026631149	-1.5244505011	 0.120698
H	-1.9417961729	-2.1882754838	-2.0844052879	 0.112147
H	-0.1361512894	-3.7781023001	 0.8533619114	 0.113788
H	-0.3977104226	-2.3537401437	 1.9757136355	 0.112061
H	-2.6749113118	-2.4464879305	 1.4689615659	 0.224265
41.9653	62.8401	185.0008	195.8134	216.7584	253.6713	287.6174	327.8369	356.4717	370.1105	451.2251	484.2922	559.042	603.3633	753.091	797.4878	838.9461	878.6885	890.1718	923.1265	954.5963	964.991	983.8028	1035.0044	1045.5724	1070.9967	1075.3398	1100.5619	1123.3411	1137.8554	1178.7916	1185.5192	1213.9205	1231.8047	1253.5604	1280.7921	1354.414	1395.079	1409.9736	1458.5643	1480.7748	1485.1289	1491.6814	1497.5039	1505.248	1511.2579	1514.3287	2983.9702	3038.3133	3039.2593	3106.3429	3108.6038	3113.8586	3129.0319	3131.6124	3140.3295	3194.6839	3206.8071	3228.7719	3508.7901
COC1(CC1)C1(C)CN1	COC1(CC1)[C@@]1(C)CN1	
InChI=1S/C7H13NO/c1-6(5-8-6)7(9-2)3-4-7/h8H,3-5H2,1-2H3	InChI=1S/C7H13NO/c1-6(5-8-6)7(9-2)3-4-7/h8H,3-5H2,1-2H3/t6-/m1/s1
