13
gdb 11492	5.47204	1.15997	1.03175	4.3354	61.37	-0.3022	-0.0699	0.2323	1091.6424	0.094335	-398.610239	-398.602602	-398.601658	-398.643494	26.31	
O	 0.0142126716	-0.0484508324	-0.41481901	-0.327904
C	 0.050706502	 1.0987384956	-0.0660984837	 0.362771
O	 1.1263700993	 1.8049647848	 0.2880987095	-0.225813
C	 2.3764753908	 1.1200760351	 0.2233187573	 0.135078
C	 3.3154669458	 1.513836412	-0.8754696839	-0.278387
C	 3.5644972748	 1.9581069627	 0.5524694981	-0.296408
C	-1.1484651109	 1.9397465366	 0.0431151275	 0.25229
N	-2.1231308413	 2.5557160847	 0.1067108046	-0.304684
H	 2.3061488043	 0.0878155681	 0.540084891	 0.13712
H	 3.9380980923	 0.7401145048	-1.3093502081	 0.134815
H	 2.9682422454	 2.2674296875	-1.5726473971	 0.137158
H	 3.3785053138	 3.0001362832	 0.7850749145	 0.141049
H	 4.3665820719	 1.4996993572	 1.1189110401	 0.132916
37.0465	89.5818	132.1339	244.6987	310.4498	364.4504	425.5474	521.0142	608.6113	753.8787	771.3087	819.5954	842.2261	891.7251	971.6454	1002.9219	1062.8428	1081.4904	1115.9745	1166.2057	1193.1527	1235.3478	1266.8734	1391.2529	1456.692	1497.3312	1820.8882	2361.3557	3145.9978	3148.3781	3203.3218	3230.4052	3243.7685
O=C(OC1CC1)C#N	O=C(OC1CC1)C#N	
InChI=1S/C5H5NO2/c6-3-5(7)8-4-1-2-4/h4H,1-2H2	InChI=1S/C5H5NO2/c6-3-5(7)8-4-1-2-4/h4H,1-2H2
