16
gdb 16213	3.10828	2.24026	1.49312	2.1211	65.29	-0.2418	-0.0236	0.2182	846.9471	0.130951	-383.748022	-383.740944	-383.74	-383.779458	26.572	
O	 0.0623094437	 0.049885908	-0.211961785	-0.326143
C	 0.0277418985	 1.24296763	-0.039797182	 0.312403
C	-1.2135539141	 2.108160469	 0.1915050978	-0.184749
O	-0.7353653067	 3.3672902608	 0.6260143132	-0.252012
C	 0.5703454816	 3.5709466566	 0.0760944998	-0.177088
C	 1.1868032168	 2.1880966689	-0.0077451213	 0.221679
C	 2.4306713935	 1.749517583	 0.7492434575	-0.288513
C	 2.4545247887	 1.8301914099	-0.7431428517	-0.303742
H	-1.7798678249	 2.1803123423	-0.7533211039	 0.117865
H	-1.8722211491	 1.6832231228	 0.9537839041	 0.139867
H	 0.4970213488	 4.0340021034	-0.9217213757	 0.098035
H	 1.1032157378	 4.2591537873	 0.7376340753	 0.117507
H	 2.9491401338	 2.5107719624	 1.3224774123	 0.123673
H	 2.3955759162	 0.7654150123	 1.2040272657	 0.139327
H	 2.4347449644	 0.8999211868	-1.3013310569	 0.139521
H	 3.0008407709	 2.6433678164	-1.2098175393	 0.12237
86.3836	173.6122	224.1207	238.1251	334.2598	436.8605	556.0838	576.326	657.2349	727.6834	788.6634	837.4819	892.5058	936.2682	945.1984	992.8556	1023.4254	1062.3461	1075.5518	1095.1759	1102.9652	1118.2833	1200.6941	1206.529	1242.8445	1283.9608	1315.7565	1344.9702	1405.7379	1455.6398	1478.5676	1487.8603	1518.8973	1840.7218	2960.7505	2969.2781	3086.1647	3094.2274	3129.015	3132.1497	3215.2915	3230.3263
O=C1COCC11CC1	O=C1COCC21CC2	
InChI=1S/C6H8O2/c7-5-3-8-4-6(5)1-2-6/h1-4H2	InChI=1S/C6H8O2/c7-5-3-8-4-6(5)1-2-6/h1-4H2
