17
gdb 114604	1.92964	1.79811	1.12639	1.9289	70.76	-0.2532	-0.0432	0.21	1108.9687	0.133194	-458.917578	-458.908764	-458.90782	-458.951753	31.308	
C	-0.2774498995	 1.1802314662	 0.5690115529	-0.244295
O	-0.4263995017	 0.2727831038	-0.5075578479	-0.23446
C	-1.4166479531	-0.6800859624	-0.2954337782	 0.058459
C	-1.5880099151	-1.6984522082	-1.4646091121	-0.28904
C	-1.3464998934	-2.8318594275	-0.4607726048	-0.039477
O	-0.0630519605	-2.6556751189	 0.0994987235	-0.264192
C	-1.1208264328	-1.8621103178	 0.6591019896	 0.29119
C	-1.4347507323	-2.0446067975	 2.085917786	 0.061051
O	-1.9970284709	-1.214311379	 2.75959315	-0.266327
H	 0.5142468596	 1.8785117673	 0.2901674378	 0.130033
H	-1.2060214695	 1.7402883025	 0.7535000414	 0.114039
H	 0.0043984499	 0.6685699006	 1.499088959	 0.123369
H	-2.3742596025	-0.219727819	-0.0104929734	 0.093955
H	-2.5858235515	-1.686185351	-1.9054172068	 0.118927
H	-0.8260831858	-1.627288177	-2.2423754853	 0.133265
H	-1.7852618127	-3.8223745947	-0.4172996945	 0.122772
H	-1.1134159781	-3.0281798374	 2.4922441428	 0.09073
61.5512	94.1652	142.9262	168.8743	213.0296	241.2579	286.9598	418.0848	452.014	497.1811	593.6558	705.7853	747.5398	812.2742	856.6714	934.6808	950.5392	1010.588	1023.599	1041.1021	1073.2423	1140.8937	1165.0625	1181.1139	1204.2201	1226.1424	1247.6811	1264.3125	1284.6627	1361.6414	1388.4125	1432.7361	1465.5591	1485.6001	1491.9141	1503.8307	1801.9542	2902.0969	2991.9489	3002.2652	3048.3835	3085.3788	3126.5244	3148.5032	3189.0109
COC1CC2OC12C=O	CO[C@H]1C[C@H]2O[C@@]12C=O	
InChI=1S/C6H8O3/c1-8-4-2-5-6(4,3-7)9-5/h3-5H,2H2,1H3	InChI=1S/C6H8O3/c1-8-4-2-5-6(4,3-7)9-5/h3-5H,2H2,1H3/t4-,5+,6-/m0/s1
