18
gdb 30253	2.57653	1.59585	1.05553	3.0047	80.24	-0.1825	0.0492	0.2317	1138.7006	0.148497	-401.945113	-401.936719	-401.935774	-401.978607	31.575	
C	-0.2775139533	 1.5045233288	 0.1239046028	-0.395651
C	-0.0345402921	 0.0013326384	 0.0274513737	-0.159316
C	 1.1232228854	-0.4565875363	-0.9501679887	-0.181531
N	 1.7593918745	-1.0919355002	 0.2130820117	 0.014549
C	 2.863546128	-1.5755147587	 0.8452876554	-0.148757
C	 2.5841597159	-1.4968224112	 2.2035184376	-0.211496
C	 1.3002313223	-0.8940399671	 2.379520799	 0.155678
O	 0.7523718856	-0.6552663326	 3.6098957878	-0.444397
C	 0.8156807878	-0.6586107877	 1.1095428788	 0.175678
H	 0.6573066276	 2.0433169396	 0.3075697007	 0.126514
H	-0.7256147113	 1.8907945632	-0.7981580469	 0.117495
H	-0.963375447	 1.7359937861	 0.9457214749	 0.116921
H	-0.9779593675	-0.5156536338	-0.1833876392	 0.086585
H	 0.847004525	-1.1536710857	-1.7469132897	 0.11837
H	 1.7007683935	 0.3736779892	-1.3693834555	 0.121868
H	 3.7191871273	-1.9743635814	 0.3249966564	 0.116355
H	 3.2127290157	-1.8566910657	 3.003885606	 0.097851
H	-0.1340897075	-0.3039970048	 3.4891866052	 0.293287
42.5991	116.5258	209.2022	217.3034	258.0609	325.6067	354.8034	434.4785	538.2198	612.2914	630.3852	666.8219	703.1978	706.4686	769.5612	785.4851	842.4759	916.4265	1005.2897	1052.1698	1085.3303	1087.0062	1097.5411	1127.9025	1171.1073	1226.542	1232.0646	1267.0517	1278.9504	1352.9344	1370.3626	1409.5869	1437.439	1452.6896	1491.7305	1497.0796	1498.5615	1518.6863	1633.2323	3029.1243	3030.509	3041.8323	3093.5314	3096.6446	3108.6811	3246.0512	3268.2897	3844.7588
CC1CN2C=CC(O)=C12	C[C@H]1Cn2ccc(O)c12	
InChI=1S/C7H9NO/c1-5-4-8-3-2-6(9)7(5)8/h2-3,5,9H,4H2,1H3	InChI=1S/C7H9NO/c1-5-4-8-3-2-6(9)7(5)8/h2-3,5,9H,4H2,1H3/t5-/m0/s1
