18
gdb 79924	2.49966	1.61538	1.32159	2.6693	72.12	-0.2186	0.0481	0.2668	1042.7612	0.148855	-435.26893	-435.260304	-435.25936	-435.301579	33.319	
C	-0.1085625469	 1.4767522705	-0.0621610249	-0.477303
C	 0.0324127654	-0.0083185491	 0.0753216796	 0.366524
O	-1.1798585324	-0.7215449431	-0.1889078581	-0.273512
C	-1.1709388158	-1.7880892743	 0.6605881175	 0.439914
N	-2.2137482355	-2.6567245193	 0.4835161759	-0.579774
N	-0.1972904166	-1.9065602438	 1.4849666736	-0.344868
C	 0.6965117158	-0.8219511011	 1.1730034332	-0.102639
C	 1.2888914844	-0.7987156029	-0.2406095456	-0.074967
N	 1.2948429209	-1.9578182995	-1.085444191	-0.532587
H	 0.8431227049	 1.9611648816	 0.1725167796	 0.129066
H	-0.3851364239	 1.7568850333	-1.0845401013	 0.128981
H	-0.870500514	 1.8679790116	 0.6199222813	 0.125892
H	-3.0652890558	-2.2363011305	 0.1421724598	 0.263159
H	-2.3417758125	-3.2923702416	 1.2562608551	 0.269682
H	 1.260019988	-0.3971970527	 1.9958295214	 0.093232
H	 2.1716812027	-0.1650274785	-0.3220636354	 0.090623
H	 1.1475537031	-2.7974105609	-0.5341685763	 0.243817
H	 0.5442082382	-1.9196427496	-1.7670378943	 0.23476
138.9581	168.4868	188.6127	215.1283	252.0217	272.1277	327.8362	367.8298	446.9251	554.9133	570.5197	607.7719	637.0191	704.9236	744.8555	773.096	818.3202	844.7327	909.1793	938.574	986.4218	1009.6371	1059.1725	1080.1973	1124.0029	1178.7721	1202.4944	1219.5615	1256.5065	1281.6431	1334.0223	1404.0413	1415.3646	1446.7387	1478.1292	1499.1101	1614.1716	1666.8486	1727.5218	3033.0837	3096.0218	3102.9645	3119.1717	3174.0909	3503.0725	3572.9659	3579.7607	3692.2526
CC12OC(N)=NC1C2N	C[C@]12OC(=N[C@H]1[C@H]2N)N	
InChI=1S/C5H9N3O/c1-5-2(6)3(5)8-4(7)9-5/h2-3H,6H2,1H3,(H2,7,8)	InChI=1S/C5H9N3O/c1-5-2(6)3(5)8-4(7)9-5/h2-3H,6H2,1H3,(H2,7,8)/t2-,3+,5-/m1/s1
