20
gdb 106745	2.24274	1.51573	1.09011	2.8148	81.31	-0.2525	0.0255	0.278	1201.6177	0.169542	-403.139291	-403.129976	-403.129032	-403.17336	34.868	
C	 0.0568965285	 1.5470033786	-0.2213615617	-0.377171
C	 0.0406453736	 0.0428021637	 0.0859522821	-0.295255
C	-1.3524680682	-0.5201798108	 0.1151578227	 0.146136
C	-2.1392941047	-0.976064492	-1.1284425712	-0.373284
C	-1.9409676348	-1.9169444678	 0.0080642336	 0.393548
C	-1.3724022532	-3.2942932275	 0.0207565871	-0.489063
O	-2.9415704497	-1.5976470181	 1.0295110419	-0.312725
C	-2.3546475605	-0.3477068203	 1.2104300854	 0.405628
N	-2.5812063906	 0.5394100164	 2.0681058633	-0.564658
H	 1.0800681988	 1.9346487941	-0.21741422	 0.109452
H	-0.3802457146	 1.751498325	-1.2041529183	 0.115011
H	-0.5226977106	 2.094402427	 0.5268951846	 0.152193
H	 0.6320881291	-0.5004126085	-0.6616266258	 0.095579
H	 0.5200707158	-0.1370463033	 1.0555704439	 0.112393
H	-3.1280803512	-0.5812152109	-1.3409574852	 0.126018
H	-1.5104268218	-1.1424925188	-1.9991345777	 0.120778
H	-0.5596192658	-3.3739649994	-0.7067243636	 0.131035
H	-0.9828563973	-3.547169712	 1.0112687712	 0.13745
H	-2.1378538674	-4.031187631	-0.2459470025	 0.13952
H	-3.3362213857	 0.2611040554	 2.6974600602	 0.227417
69.8695	120.181	144.3315	193.527	206.8465	246.5973	281.6998	350.4647	405.0352	465.2416	507.9697	617.294	656.1729	699.7254	779.9916	791.5189	842.4664	866.7776	898.6793	944.6237	973.4986	988.4075	990.9491	1017.9619	1070.274	1101.1125	1114.6018	1171.066	1187.0215	1242.0273	1304.5098	1348.7385	1373.0186	1404.2216	1411.4955	1431.7967	1473.6894	1480.4849	1491.7591	1497.1139	1507.332	1513.7352	1824.476	3024.1349	3037.1919	3038.6863	3060.5063	3102.9366	3107.3231	3115.6345	3120.0314	3123.7115	3207.0577	3474.6585
CCC12CC1(C)OC2=N	CC[C@@]12C[C@]1(C)O[C]2[NH]	
InChI=1S/C7H11NO/c1-3-7-4-6(7,2)9-5(7)8/h8H,3-4H2,1-2H3	InChI=1S/C7H11NO/c1-3-7-4-6(7,2)9-5(7)8/h8H,3-4H2,1-2H3/t6-,7-/m0/s1
