18
gdb 24163	5.19272	0.96524	0.85419	2.4153	78.67	-0.1887	0.0513	0.24	1349.1776	0.1486	-401.95243	-401.944336	-401.943392	-401.985682	31.128	
C	-0.3592615915	 1.0351506739	-0.2671131066	-0.285438
C	 1.0579628188	 1.1206896873	 0.2664700292	-0.295981
C	 0.426665844	-0.212166384	 0.0412210488	 0.14185
O	 0.1162337285	-0.9415767324	 1.1914208327	-0.275278
C	-0.8909435543	-1.8521697963	 1.0558667155	 0.34853
C	-1.7107234234	-2.0894561013	-0.0280164118	-0.211195
N	-2.5606036014	-3.1146009411	 0.3376452647	-0.247538
C	-2.290867001	-3.516108323	 1.6156756942	-0.060331
C	-1.2534374368	-2.7504606065	 2.0961584584	-0.27549
H	-1.1612029994	 1.2852639711	 0.4176323866	 0.1278
H	-0.5457920185	 1.2916517277	-1.3044820632	 0.110238
H	 1.8537899538	 1.4345966281	-0.3993021649	 0.114095
H	 1.1791528073	 1.4269207118	 1.2991302544	 0.127996
H	 0.7691202443	-0.829341677	-0.7885999298	 0.091815
H	-1.7689603271	-1.6234513366	-0.9954149779	 0.115451
H	-3.2726385122	-3.5033555766	-0.2532698226	 0.259575
H	-2.8519823698	-4.3102621462	 2.0810690651	 0.117047
H	-0.7946852713	-2.8140513889	 3.0696546973	 0.096853
65.583	72.8997	149.6194	292.7038	361.6213	367.6068	399.97	481.4488	626.2191	629.2493	677.1462	699.0557	745.4667	760.6291	812.0428	822.4893	843.2222	896.2712	966.4395	985.4145	1013.7518	1053.5822	1072.4211	1081.9721	1086.1417	1125.4006	1169.0254	1193.1065	1193.3037	1235.9174	1278.77	1316.3844	1389.3249	1425.0338	1454.6762	1478.2818	1496.9459	1530.4356	1616.0597	3107.8487	3136.1991	3142.7161	3222.0287	3236.0454	3255.8429	3274.4495	3289.1178	3698.1371
C1CC1OC1=CNC=C1	C1CC1Oc1c[nH]cc1	
InChI=1S/C7H9NO/c1-2-6(1)9-7-3-4-8-5-7/h3-6,8H,1-2H2	InChI=1S/C7H9NO/c1-2-6(1)9-7-3-4-8-5-7/h3-6,8H,1-2H2
