22
gdb 114734	2.27367	1.45112	1.08431	2.6142	80.75	-0.2217	0.0737	0.2954	1205.9466	0.195597	-404.322129	-404.313187	-404.312243	-404.355514	34.691	
C	-0.7820248062	 1.2731770869	-0.0859048086	-0.405098
C	-0.0233314756	-0.0590497372	-0.0828229133	-0.011096
C	 1.0389176261	-0.1709545258	-1.1705155659	-0.018091
C	 2.3421018759	 0.5176342938	-0.9869021553	-0.255225
N	 2.2129865073	-0.917156183	-0.6921939996	-0.097445
C	 1.9832047771	-1.214963174	 0.736412712	-0.174132
C	 0.7206610429	-0.4514987099	 1.2329739785	-0.015252
C	 1.0413270093	 0.688517531	 2.2018504595	-0.102832
O	 1.6460802347	 0.0944062074	 3.3441059864	-0.419729
H	-0.1161857333	 2.1236653511	 0.0906222001	 0.11667
H	-1.2642654801	 1.4322591836	-1.0560585752	 0.11493
H	-1.5675646624	 1.2921047897	 0.6764551432	 0.115854
H	-0.7557015649	-0.8508371245	-0.2857354987	 0.080697
H	 0.6971910187	-0.3986717991	-2.1777345121	 0.083992
H	 2.9575418213	 0.7457377254	-1.8530988305	 0.112072
H	 2.4599714159	 1.2167150307	-0.1640567484	 0.105021
H	 1.8294467259	-2.2956192812	 0.816368822	 0.104298
H	 2.868323509	-0.9692706342	 1.3299670531	 0.116854
H	 0.0933040749	-1.1380841302	 1.810643961	 0.086025
H	 1.7148889374	 1.4321132191	 1.7501544539	 0.088086
H	 0.1161246908	 1.2152995899	 2.4803431694	 0.087956
H	 1.8823091053	 0.7952293104	 3.9585953185	 0.286445
91.3579	126.3878	196.7751	220.6302	265.48	270.0371	292.838	360.1514	402.3079	455.8583	500.9682	636.2556	709.0675	750.4713	788.5253	858.5798	876.2512	920.7458	955.003	994.0146	1004.715	1026.5145	1048.4835	1068.9472	1088.6449	1103.9183	1123.7595	1142.3015	1165.3345	1184.746	1224.0831	1237.5058	1266.5887	1277.6664	1287.6126	1339.6604	1343.3014	1364.8961	1376.346	1396.842	1416.2746	1456.3027	1498.0098	1501.3204	1503.4708	1509.3331	1527.5138	2977.3687	3004.0334	3014.2783	3034.5066	3045.5057	3059.4196	3096.947	3097.3798	3107.8931	3111.2987	3129.6046	3192.7639	3830.4649
CC1C2CN2CC1CO	C[C@H]1[C@H]2CN2C[C@H]1CO	
InChI=1S/C7H13NO/c1-5-6(4-9)2-8-3-7(5)8/h5-7,9H,2-4H2,1H3	InChI=1S/C7H13NO/c1-5-6(4-9)2-8-3-7(5)8/h5-7,9H,2-4H2,1H3/t5-,6+,7-,8?/m1/s1
