17
gdb 30855	2.81101	1.2191	0.89741	1.7206	72.46	-0.1656	0.0673	0.2329	1273.5635	0.135126	-455.154925	-455.145108	-455.144164	-455.189756	35.235	
C	 0.2736957026	 0.918567613	 0.6354175018	-0.320977
N	-0.3786609159	 0.4275228219	-0.5852608545	-0.393233
C	 0.3651035829	-0.4915115412	-1.3435228745	 0.173937
C	 0.7542204735	-1.7937130933	-1.1422462136	 0.293088
O	 0.4353475146	-2.5063462066	-0.0169077337	-0.460608
C	 1.5078171304	-2.2375362472	-2.2745402867	-0.444031
C	 1.5532417709	-1.1634103726	-3.1386171519	 0.397596
O	 2.1216211347	-0.9894869421	-4.3603023107	-0.437422
N	 0.8803896191	-0.1230527876	-2.5938009323	-0.325865
H	 0.5399382203	 0.1215621059	 1.3443531123	 0.118858
H	 1.1895354609	 1.4519248622	 0.3635741812	 0.120815
H	-0.3937785587	 1.626637383	 1.137813356	 0.108135
H	-1.2946383713	 0.056581034	-0.3596084088	 0.230048
H	 0.8124124056	-3.3863266952	-0.0976305287	 0.293503
H	 1.9568434348	-3.207759409	-2.4272265346	 0.078934
H	 2.5626059004	-1.8078971054	-4.6063486623	 0.304709
H	 0.7262568751	 0.7704348601	-3.0274725089	 0.262516
50.0306	127.1374	150.482	182.0195	202.5534	230.7961	269.9296	288.1059	317.2704	399.915	432.2436	524.5209	595.0566	646.6856	656.6477	663.2754	692.587	749.1471	826.1697	1033.1972	1038.0378	1107.7107	1145.316	1169.3517	1178.8001	1192.6599	1259.1494	1275.4913	1360.2688	1442.7679	1470.4252	1483.8581	1494.6466	1518.9124	1543.6968	1597.2718	1682.1636	2998.2191	3070.1271	3105.0092	3231.6256	3521.9635	3687.2968	3848.9789	3852.0297
CNC1=C(O)C=C(O)N1	CNc1c(O)cc(O)[nH]1	
InChI=1S/C5H8N2O2/c1-6-5-3(8)2-4(9)7-5/h2,6-9H,1H3	InChI=1S/C5H8N2O2/c1-6-5-3(8)2-4(9)7-5/h2,6-9H,1H3
