15
gdb 21254	5.42387	1.38182	1.11085	2.6866	64.11	-0.1932	0.0534	0.2466	1027.4446	0.120353	-395.988312	-395.98042	-395.979475	-396.020436	28.701	
C	 0.1606713293	 0.6807484045	 0.6551785064	-0.248186
O	 0.0702242843	 0.7994476056	-0.7576570991	-0.259901
C	 0.5860278277	-0.2282364591	-1.4525669916	 0.506752
C	 1.1943020569	-1.4162486811	-1.0950748439	-0.44183
C	 1.4924943557	-2.0244315758	-2.3458373093	 0.38165
N	 2.1833896053	-3.2218080164	-2.5426097852	-0.588315
N	 1.1000961247	-1.2914455432	-3.3783138622	-0.31176
N	 0.5516021863	-0.1763696205	-2.799629872	-0.297268
H	-0.3827755019	-0.203193774	 1.0100414395	 0.130802
H	 1.2067898898	 0.6136408381	 0.9769807305	 0.133049
H	-0.2938094044	 1.5813421172	 1.0695021407	 0.139613
H	 1.4140319888	-1.7795439263	-0.1062653397	 0.096501
H	 1.8924856573	-3.9562375473	-1.9109272381	 0.241652
H	 2.1018965641	-3.5333764276	-3.5026992487	 0.247313
H	 0.165652966	 0.5538756457	-3.3704572672	 0.269929
92.2823	171.5837	199.65	233.9598	266.6032	275.0335	386.708	445.5523	500.7396	617.3767	669.4797	688.1959	719.0358	761.5242	797.2293	994.5118	1032.3352	1074.9727	1102.4726	1181.0895	1183.6795	1201.5185	1235.361	1325.3265	1446.4474	1473.4165	1485.8729	1504.8669	1525.376	1575.9962	1626.2164	1648.9978	3016.6027	3079.8853	3144.6927	3276.9223	3536.6182	3631.7189	3698.8598
COC1=CC(N)=NN1	COc1cc(N)n[nH]1	
InChI=1S/C4H7N3O/c1-8-4-2-3(5)6-7-4/h2H,1H3,(H3,5,6,7)	InChI=1S/C4H7N3O/c1-8-4-2-3(5)6-7-4/h2H,1H3,(H3,5,6,7)
