21
gdb 97449	3.76397	0.71232	0.66517	3.4453	84.28	-0.2373	0.034	0.2714	1785.0846	0.18092	-420.375403	-420.365038	-420.364093	-420.412154	36.357	
C	-0.9364683971	 0.5298245126	-0.3634516974	-0.312999
N	 0.331476028	-0.1277166199	-0.125796679	-0.209404
C	 0.7753180756	-0.8651948581	-1.0428210197	 0.12748
O	 1.9725287527	-1.4786591976	-0.9052812688	-0.208604
C	 2.3278089692	-2.4061640748	-1.9323459139	-0.103413
C	 1.6927794215	-3.7536984084	-1.696266366	-0.017891
N	 0.324525746	-3.9340208158	-2.2145254897	-0.338466
C	 1.4172888591	-4.7492763271	-2.7700345718	-0.000346
C	 1.7554988518	-4.5653529503	-4.2312941999	-0.395813
H	-0.8064778978	 1.6166448405	-0.3000421343	 0.124016
H	-1.389541487	 0.2939895972	-1.3405754702	 0.095752
H	-1.6495996149	 0.2507551108	 0.4210245336	 0.123044
H	 0.2688426291	-1.0668158447	-1.9975855505	 0.091703
H	 2.0466675798	-2.0111777886	-2.9146557728	 0.110928
H	 3.4181981426	-2.4806888982	-1.8872037046	 0.11931
H	 1.9101876995	-4.1572603164	-0.7085009281	 0.097608
H	-0.2390609424	-4.470698047	-1.5615507622	 0.236403
H	 1.4627129549	-5.7865662228	-2.4389320936	 0.08817
H	 1.6393949428	-3.5257594148	-4.5441613716	 0.127192
H	 2.7846156436	-4.8792697346	-4.4363461028	 0.120183
H	 1.0892881829	-5.1731460521	-4.8525702169	 0.125148
40.4897	54.5331	76.9943	154.5227	190.9887	204.0644	223.0768	267.4671	316.2641	380.8212	435.1511	464.4312	489.1441	613.3824	771.6298	849.7626	878.5252	960.256	977.3645	986.5511	1015.8946	1037.4967	1045.5206	1076.1996	1101.2776	1141.4445	1154.0368	1159.6347	1195.12	1234.8883	1262.3934	1275.8413	1323.2131	1377.2531	1403.152	1413.5395	1431.9533	1450.2095	1469.027	1480.7577	1488.9138	1491.9166	1504.5889	1506.0154	1775.0004	2965.8883	3017.761	3037.7541	3045.6683	3054.1644	3072.0647	3096.7939	3098.6216	3103.9008	3124.698	3134.2182	3512.4011
CN=COCC1NC1C	CN=COC[C@H]1N[C@H]1C	
InChI=1S/C6H12N2O/c1-5-6(8-5)3-9-4-7-2/h4-6,8H,3H2,1-2H3	InChI=1S/C6H12N2O/c1-5-6(8-5)3-9-4-7-2/h4-6,8H,3H2,1-2H3/t5-,6+/m0/s1
