14
gdb 131892	2.76076	1.66013	1.04333	7.387	68.87	-0.2532	-0.064	0.1892	1056.6647	0.10172	-469.969846	-469.962084	-469.96114	-470.002931	27.609	
C	-0.0324727352	 1.5462338852	 0.0995881347	-0.484146
C	-0.0116754812	 0.0630229248	-0.0320409629	 0.274761
C	 0.0409151707	-0.8020719642	-1.1090240852	 0.27602
N	 0.0394360509	-2.113883894	-0.7340441864	-0.275704
C	-0.0136669969	-2.0792950727	 0.5707018454	 0.015814
N	-0.0460614213	-0.7898390424	 1.0401218764	-0.29985
N	 0.092716215	-0.4071051472	-2.4913807548	 0.3681
O	 0.0888364665	 0.8081513781	-2.7105681906	-0.409187
O	 0.1364312934	-1.2761086736	-3.3459553738	-0.342968
H	 0.8573512925	 1.9876973641	-0.3562672472	 0.168253
H	-0.8918903321	 1.9694276068	-0.4265248483	 0.168238
H	-0.077824306	 1.8453818501	 1.1508867473	 0.115075
H	-0.0313692156	-2.9339533245	 1.229606929	 0.149547
H	-0.0882072608	-0.5047672704	 2.0059813364	 0.276049
60.6191	94.9763	202.8838	212.6462	267.3577	336.0536	448.9602	549.9175	584.0423	662.9141	680.7036	689.9305	799.997	821.1502	849.3716	950.1501	993.4114	1058.4313	1098.7069	1163.3553	1269.4758	1295.0072	1386.3154	1401.3779	1418.9357	1433.1075	1464.243	1490.9404	1530.0577	1599.6194	1637.0148	3048.1108	3120.3208	3123.6753	3260.8987	3645.3902
CC1=C(N=CN1)N(=O)=O	Cc1c(nc[nH]1)N(=O)=O	
InChI=1S/C4H5N3O2/c1-3-4(7(8)9)6-2-5-3/h2H,1H3,(H,5,6)	InChI=1S/C4H5N3O2/c1-3-4(7(8)9)6-2-5-3/h2H,1H3,(H,5,6)
