22
gdb 103829	2.4428	1.02733	0.92797	2.9755	79.08	-0.2353	0.0626	0.2979	1416.189	0.19148	-441.457916	-441.446834	-441.445889	-441.494271	39.949	
C	-0.2858904651	 1.4052344535	-0.4467447268	-0.405058
C	-0.0597904229	 0.0417305182	 0.206149017	 0.128017
O	 0.3714472946	 0.1673688563	 1.562120035	-0.434851
C	-1.2995570443	-0.8250762642	 0.1160938631	-0.057348
N	-1.5285309413	-1.5618317599	-1.1460592001	-0.385467
C	-1.2877362575	-2.3108314207	 0.100992637	 0.291947
C	-0.0071563973	-3.1149763036	 0.1728452836	-0.453586
C	-2.4721181504	-3.0340445616	 0.7235616522	-0.150246
O	-3.653343491	-2.270368533	 0.5248198558	-0.422061
H	 0.614030824	 2.0213992105	-0.3685366054	 0.118626
H	-0.5438269156	 1.2848661394	-1.5032263076	 0.131445
H	-1.1110886076	 1.9389734582	 0.0425978744	 0.099633
H	 0.7666641209	-0.4596642558	-0.3046708679	 0.090491
H	-0.3128502953	 0.6485961458	 2.0404297159	 0.273574
H	-2.1823295433	-0.3746629584	 0.5708303735	 0.084764
H	-2.5280923748	-1.5660267821	-1.3400303862	 0.236212
H	 0.7916800568	-2.6327714946	-0.3912741465	 0.134323
H	 0.3254241065	-3.2325616699	 1.2097449812	 0.123423
H	-0.1553842974	-4.11352006	-0.2547923404	 0.110421
H	-2.5671060463	-4.0268776588	 0.2542580873	 0.092545
H	-2.2759879246	-3.1942196266	 1.7957557406	 0.098094
H	-4.4022295879	-2.7795148126	 0.8454411941	 0.295102
46.6244	96.2771	120.7967	142.2234	167.0112	212.646	242.2676	251.5178	263.3497	312.6449	359.638	397.3785	419.7446	488.895	503.8873	579.524	714.542	818.118	879.5077	920.7821	952.0268	983.0281	1012.8143	1039.0142	1059.3369	1082.5479	1104.1096	1119.0718	1143.0078	1147.9539	1215.6375	1227.9694	1262.1271	1296.9438	1318.4289	1339.4677	1367.0467	1396.0616	1410.216	1421.5349	1453.7178	1468.8043	1489.531	1492.2402	1495.5782	1504.2928	1520.6275	2963.6559	2993.8397	3021.4071	3033.1751	3074.8518	3092.3632	3096.982	3110.4792	3121.5485	3142.8227	3491.4026	3797.8559	3849.0386
CC(O)C1NC1(C)CO	C[C@@H](O)[C@H]1N[C@]1(C)CO	
InChI=1S/C6H13NO2/c1-4(9)5-6(2,3-8)7-5/h4-5,7-9H,3H2,1-2H3	InChI=1S/C6H13NO2/c1-4(9)5-6(2,3-8)7-5/h4-5,7-9H,3H2,1-2H3/t4-,5-,6-/m1/s1
