15
gdb 13056	4.35524	1.22262	1.02181	2.9788	64.4	-0.2495	-0.0381	0.2115	1102.4931	0.117699	-399.825536	-399.817561	-399.816617	-399.859215	27.201	
O	 0.2372880223	-0.1848305612	 0.2312159077	-0.225041
C	 0.1124878833	 0.9512203214	-0.138458521	 0.153458
C	 1.2158948236	 2.0012741583	-0.0619841336	-0.259529
N	 1.1937788629	 2.9123576985	-1.172907714	-0.082645
C	 1.5831023899	 2.7783991476	-2.5839876384	-0.174265
C	 1.3025069866	 4.3013874894	-2.7333116686	-0.369627
C	 0.9635951886	 4.2716011777	-1.2254010922	 0.409848
O	 0.6393101952	 5.0572526818	-0.3761481834	-0.361173
H	-0.8415876378	 1.3351143094	-0.567072538	 0.088165
H	 1.0401392331	 2.6055870028	 0.8390282429	 0.166235
H	 2.1826034916	 1.4958048047	 0.047753579	 0.135395
H	 2.6281958384	 2.4824448309	-2.7249413884	 0.119444
H	 0.9359239548	 2.1166691337	-3.1680344156	 0.120377
H	 2.1675990132	 4.917130527	-2.9840626778	 0.139967
H	 0.4636548544	 4.566643118	-3.3786319586	 0.13939
56.6095	67.1051	114.6191	187.3588	230.1385	325.6143	422.7949	533.1856	562.1084	692.4677	782.5092	804.9765	821.1425	951.2024	997.6344	1041.2145	1051.4515	1071.0896	1151.9005	1155.776	1187.2015	1212.1692	1266.9394	1320.3942	1336.7942	1408.5986	1410.7999	1440.1205	1462.3479	1530.1055	1843.1244	1881.8691	2877.1594	3021.5669	3039.7444	3075.8682	3085.1863	3092.4695	3150.3525
O=CCN1CCC1=O	O=CCN1CCC1=O	
InChI=1S/C5H7NO2/c7-4-3-6-2-1-5(6)8/h4H,1-3H2	InChI=1S/C5H7NO2/c7-4-3-6-2-1-5(6)8/h4H,1-3H2
