16
gdb 45108	2.58997	2.05078	1.39343	5.134	67.96	-0.2613	0.0162	0.2775	918.8481	0.126181	-437.875704	-437.868905	-437.867961	-437.90698	26.989	
O	-0.2006575477	 0.2841916361	 0.7685029037	-0.337891
C	-0.0710960732	 1.2758166677	 0.1093024645	 0.404837
O	-1.134966173	 1.791234106	-0.5848799244	-0.235325
C	-1.2707973179	 3.1881948831	-0.7284764079	 0.132131
C	-1.1458544905	 4.0425869592	 0.4974376789	-0.345574
C	-0.057517477	 4.0668470174	-0.561484005	-0.082212
C	 1.2372642707	 3.3280633761	-0.4251568932	-0.021579
C	 1.7848998748	 2.78464144	 0.8579546792	-0.257043
N	 1.1521496434	 1.9060989093	-0.1213612141	-0.132515
H	-2.0178323385	 3.4011022223	-1.482568293	 0.120564
H	-1.7714087809	 4.9228692551	 0.5914023074	 0.129197
H	-0.9614101747	 3.5266744791	 1.4346436141	 0.139336
H	-0.0052593546	 4.9554399303	-1.180373827	 0.1051
H	 1.9538313365	 3.5532163227	-1.2122949477	 0.110508
H	 2.8561701631	 2.6524585739	 0.9757989733	 0.134832
H	 1.2429894392	 2.9868797617	 1.7773513711	 0.135633
93.3957	190.7031	272.5331	389.8531	414.2221	488.3397	528.0729	569.5608	672.6966	756.2369	764.3444	788.4372	810.9853	867.0925	922.5833	965.8897	989.0777	1012.7933	1051.6269	1070.0063	1084.0502	1098.6524	1120.1437	1129.4275	1158.0479	1169.4441	1178.4997	1235.9338	1350.368	1378.4556	1411.1603	1420.912	1486.4956	1512.8435	1854.2024	3118.9067	3127.1518	3134.1332	3172.7051	3196.0535	3208.5756	3222.5185
O=C1OC2CC2C2CN12	O=C1O[C@H]2C[C@H]2[C@H]2CN12	
InChI=1S/C6H7NO2/c8-6-7-2-4(7)3-1-5(3)9-6/h3-5H,1-2H2	InChI=1S/C6H7NO2/c8-6-7-2-4(7)3-1-5(3)9-6/h3-5H,1-2H2/t3-,4+,5-,7?/m0/s1
