15
gdb 66718	2.91536	1.67906	1.29111	2.1064	77.35	-0.2159	0.0324	0.2483	974.0538	0.110326	-383.338545	-383.331083	-383.330139	-383.370099	30.005	
O	-0.1402831734	 1.3484212453	 0.095550254	-0.439849
C	 0.0108240434	-0.0043576888	 0.0426490861	 0.312966
C	 0.9360317274	-1.004946967	 0.8268201532	-0.182726
C	 0.8233998053	-1.9831704684	-0.3336198712	-0.08642
C	-0.1793850782	-2.0373009437	 0.8051910976	-0.15967
C	-1.1152439308	-1.0400622983	 0.0486985921	 0.302204
C	-2.5140213996	-0.8723023994	 0.0063233609	 0.022446
C	-3.711543652	-0.7411590617	-0.0144681361	-0.379735
C	-0.0786191681	-0.9843013935	-1.1114332911	-0.252468
H	 0.5434749699	 1.7590622895	-0.4470181589	 0.293707
H	 1.7303627015	-0.8676241537	 1.5478338714	 0.097536
H	 1.5295594924	-2.7282640912	-0.6744944708	 0.094579
H	-0.4053377406	-2.8257691497	 1.5102963035	 0.097341
H	-4.7654242641	-0.6162544722	-0.0329355654	 0.175249
H	-0.2912854934	-0.8303209872	-2.1606950152	 0.10484
117.8016	155.3422	265.4399	320.7728	350.0342	466.4474	485.3477	541.2458	546.311	632.4821	659.4002	728.229	739.6451	752.8574	789.4114	797.6334	852.8726	893.0029	917.9552	928.1202	974.5302	1007.3291	1020.7415	1037.2413	1103.2839	1176.9196	1184.0617	1233.5254	1283.3275	1317.1267	1344.4289	1469.0942	2226.2929	3196.1969	3201.6002	3213.1118	3216.6117	3503.8622	3777.8474
OC12C3C4C3C1(C#C)C24	O[C@@]12[C@@H]3[C@H]4[C@@H]3[C@]1(C#C)[C@@H]24	
InChI=1S/C8H6O/c1-2-7-4-3-5(4)8(7,9)6(3)7/h1,3-6,9H	InChI=1S/C8H6O/c1-2-7-4-3-5(4)8(7,9)6(3)7/h1,3-6,9H/t3-,4+,5-,6+,7-,8-/m1/s1
