15
gdb 45991	3.42002	1.3118	0.98822	2.205	71.53	-0.239	-0.053	0.1859	1119.0734	0.115714	-454.013506	-454.005962	-454.005018	-454.045865	28.352	
O	-0.0268543332	-0.046015445	-0.2914327591	-0.381711
C	-0.0691253622	 1.1553601592	-0.1185743158	 0.43003
N	-1.1536524745	 1.9354184233	-0.3923540325	-0.328852
C	-1.4933625103	 3.1831551039	 0.2838189974	-0.301385
C	-0.6624181137	 4.3789357239	-0.1921401003	 0.375013
O	-1.2091126577	 5.4251163608	-0.4865167237	-0.335354
C	 0.7881740855	 4.2276050894	-0.1727574783	-0.193906
C	 1.4932629922	 3.1221357532	 0.1475863429	 0.024238
N	 1.0719058915	 1.8286083956	 0.3644292199	-0.34573
H	-1.9241924007	 1.3877679434	-0.7432489411	 0.266606
H	-2.5375498335	 3.4124763984	 0.0722744825	 0.143662
H	-1.3819964667	 3.0858983946	 1.373831512	 0.133417
H	 1.3462845716	 5.138207497	-0.3570230906	 0.111619
H	 2.5705719686	 3.2163652319	 0.2537245111	 0.133449
H	 1.7990075532	 1.1545724706	 0.5544510456	 0.268904
80.5526	140.0323	190.8173	320.7402	341.9293	398.5088	439.4364	537.8226	546.4373	601.9483	665.5105	703.2816	774.012	778.1426	800.5676	881.6276	907.3522	986.9364	997.153	1066.021	1146.4057	1244.2971	1264.9189	1297.9609	1354.8225	1406.6202	1442.5989	1452.9701	1483.7694	1498.9418	1688.8184	1764.9219	1818.1812	3001.5788	3138.4909	3168.1043	3204.9543	3621.1159	3634.4308
O=C1NCC(=O)C=CN1	O=C1NCC(=O)C=CN1	
InChI=1S/C5H6N2O2/c8-4-1-2-6-5(9)7-3-4/h1-2H,3H2,(H2,6,7,9)	InChI=1S/C5H6N2O2/c8-4-1-2-6-5(9)7-3-4/h1-2H,3H2,(H2,6,7,9)
