17
gdb 133034	4.59688	0.94876	0.84231	3.3278	77.91	-0.2487	-0.0292	0.2195	1348.6343	0.136823	-426.048525	-426.040566	-426.039621	-426.081821	29.693	
C	 0.023980835	 1.5591517439	-0.0740128925	-0.366997
C	-0.0095663528	 0.0278168204	 0.0705607446	-0.29679
C	-1.4099440691	-0.5362053439	 0.0408234308	 0.265077
C	-2.0772385687	-0.8946670732	 1.2103390621	-0.06884
N	-3.3270353234	-1.3737329192	 1.2538884753	-0.314441
C	-3.9491734135	-1.5095253587	 0.1078178412	 0.338117
F	-5.1914865937	-1.9865197391	 0.1614926072	-0.075374
C	-3.410523256	-1.1997479358	-1.138549243	-0.259844
C	-2.1161394846	-0.704842767	-1.1568524831	-0.138045
H	 1.0533037634	 1.9302356466	-0.0554888665	 0.117521
H	-0.4329599714	 1.8758642981	-1.0170900278	 0.120211
H	-0.5275018828	 2.0409150299	 0.7393559508	 0.125125
H	 0.5837981244	-0.4239346336	-0.7333930376	 0.108725
H	 0.4748159331	-0.2585333161	 1.0106728237	 0.109304
H	-1.577317457	-0.7955503623	 2.1717825612	 0.110372
H	-3.9911136031	-1.35016278	-2.0400675087	 0.116959
H	-1.6480946897	-0.4520727097	-2.1039343177	 0.108919
46.1676	103.2319	210.7612	227.3409	324.2243	395.4065	438.9144	449.5873	503.0115	577.5598	653.1041	733.5669	780.9939	790.921	858.399	874.5234	961.4851	973.5959	984.7603	1036.0817	1073.787	1085.7756	1146.6066	1237.1219	1272.5374	1305.3287	1326.1242	1332.0146	1354.4751	1408.5587	1424.3221	1485.9068	1496.2346	1507.1901	1525.2583	1622.1175	1640.8678	3031.4563	3035.9641	3068.3335	3108.5579	3111.7926	3148.579	3172.5962	3213.411
CCC1=CN=C(F)C=C1	CCc1cnc(F)cc1	
InChI=1S/C7H8FN/c1-2-6-3-4-7(8)9-5-6/h3-5H,2H2,1H3	InChI=1S/C7H8FN/c1-2-6-3-4-7(8)9-5-6/h3-5H,2H2,1H3
