12
gdb 21480	5.27356	1.64748	1.25608	4.1162	59.86	-0.2558	-0.0639	0.1919	874.6662	0.084368	-410.823334	-410.816428	-410.815484	-410.854701	25.154	
N	-0.1075124534	 1.3431682461	-0.1177305346	-0.553673
C	 0.0650783683	-0.0160793605	-0.0272767188	 0.244625
N	 1.1561954514	-0.6838889771	 0.0115439999	-0.507744
C	-1.1907597186	-0.7914014096	-0.0166848706	 0.446747
C	-1.4310606697	-2.1323225112	-0.0087219296	-0.183239
N	-2.7931240112	-2.288401386	 0.0093244385	-0.105894
N	-3.3802286443	-1.1791582608	 0.0135104313	-0.009078
O	-2.360126745	-0.1530694566	-0.0039910874	-0.246502
H	 0.6817660741	 1.9374914722	 0.0745996798	 0.259345
H	-1.0182851804	 1.7307694932	 0.0679567736	 0.275625
H	 1.9731628327	-0.0713550333	-0.0016570602	 0.213373
H	-0.7438183339	-2.9587445964	-0.0142015918	 0.166413
71.9055	195.436	201.6475	333.2126	405.4952	439.1163	482.0412	595.6091	617.0714	653.7162	693.5389	770.8585	853.3027	864.7413	982.7105	1027.338	1096.5327	1117.3494	1132.5012	1219.8224	1362.3531	1393.9737	1463.9499	1612.5051	1640.2804	1709.8933	3314.7109	3467.2732	3596.787	3717.4874
NC(=N)C1=CN=NO1	NC(=N)c1cnno1	
InChI=1S/C3H4N4O/c4-3(5)2-1-6-7-8-2/h1H,(H3,4,5)	InChI=1S/C3H4N4O/c4-3(5)2-1-6-7-8-2/h1H,(H3,4,5)
