19
gdb 38748	2.49824	2.27993	1.84735	1.5711	77.89	-0.2309	0.0115	0.2423	857.8293	0.163729	-385.894884	-385.888771	-385.887827	-385.924858	26.958	
C	-0.014872169	 1.5689673647	-0.0023517907	-0.23509
C	 1.5293399304	 1.4999920789	-0.0024705319	 0.120954
O	 2.1078796633	 1.4471135061	 1.3037447276	-0.284015
C	 2.1927699134	 0.0680995987	 1.7262292258	 0.042599
C	 2.4685424342	-0.693262856	 0.413781864	-0.238751
C	 1.4536419927	 0.0196113774	-0.4655000197	-0.05526
C	-0.0451579068	 0.001329854	 0.0433846405	-0.079033
C	-0.1658103707	-0.5139501048	 1.4520502152	-0.07183
C	 0.8775255349	-0.4464925395	 2.2805216821	-0.061428
H	-0.4833591085	 2.1029090524	 0.8263975501	 0.104917
H	-0.3932472906	 1.9547809139	-0.9541004268	 0.094307
H	 2.0811245747	 2.2403204839	-0.5880855119	 0.06951
H	 2.9987403631	 0.0179736138	 2.4603133115	 0.073504
H	 3.4856585639	-0.501664433	 0.0557906141	 0.100858
H	 2.3146061042	-1.7698648007	 0.5099443602	 0.103969
H	 1.5432071863	-0.1542912827	-1.5376057048	 0.07105
H	-0.7688667806	-0.4745852866	-0.6220210396	 0.065703
H	-1.1307933727	-0.8890997688	 1.7821913272	 0.08994
H	 0.8202254878	-0.7730278017	 3.3138103674	 0.088096
241.0836	299.9456	389.4345	422.7177	487.6881	540.9266	624.6527	670.0634	730.8568	770.3346	801.9448	826.2734	854.5302	871.9282	906.4212	917.2646	949.6884	965.1489	978.4007	1005.5125	1023.7264	1037.1634	1061.5467	1084.6055	1116.4028	1147.9365	1177.586	1178.6457	1228.6923	1247.9216	1266.7085	1268.0543	1309.502	1315.4834	1337.8572	1357.1181	1369.8954	1400.1811	1468.123	1478.1723	1694.0835	3050.3648	3051.1759	3068.1849	3077.1298	3098.4674	3115.7501	3117.8409	3122.8297	3156.8367	3185.923
C1C2OC3CC2C1C=C3	C1[C@H]2O[C@@H]3C[C@H]2[C@H]1C=C3	
InChI=1S/C8H10O/c1-2-6-4-7-5(1)3-8(7)9-6/h1-2,5-8H,3-4H2	InChI=1S/C8H10O/c1-2-6-4-7-5(1)3-8(7)9-6/h1-2,5-8H,3-4H2/t5-,6-,7-,8+/m0/s1
