17
gdb 129821	5.26212	1.00984	0.8872	2.7702	77.07	-0.1969	0.0436	0.2405	1293.2933	0.138126	-414.171539	-414.163206	-414.162262	-414.204787	31.126	
N	 0.0816040044	 1.3897310963	-0.2355464914	-0.60942
C	-0.0226622618	 0.0081880853	-0.0586405112	 0.416556
C	-1.0894133331	-0.8606040513	-0.1747624903	-0.39662
C	-0.5220863981	-2.1429371335	 0.0451679413	 0.399756
N	 0.7817367555	-2.0880588999	 0.2805707313	-0.310058
N	 1.0649824786	-0.75145668	 0.2193780932	-0.253568
N	-1.2356994516	-3.3490817409	 0.0997763146	-0.148646
C	-1.5701710016	-4.0191009569	-1.1614318095	-0.231541
C	-0.5328615775	-4.576252525	-0.2489428275	-0.214562
H	 0.6043423884	 1.8488981224	 0.5012665434	 0.249232
H	-0.8277734957	 1.824498483	-0.3153803971	 0.2562
H	-2.1228312396	-0.6148885988	-0.3542549705	 0.092385
H	 2.0221699413	-0.4521165695	 0.2786373852	 0.264925
H	-2.5627269198	-4.4579019627	-1.206087235	 0.114525
H	-1.2260769388	-3.5539087241	-2.0820523831	 0.119819
H	 0.5058116754	-4.4821753361	-0.5502361363	 0.136611
H	-0.761623426	-5.4327676683	 0.3782205626	 0.114409
55.7309	135.8876	176.3208	196.7213	264.8783	329.8022	353.856	461.2512	502.0704	577.4646	658.4435	717.3557	723.4698	754.3927	785.0428	822.7148	904.4013	909.5217	1003.2861	1038.6728	1047.968	1101.4928	1113.5563	1129.2623	1151.5649	1166.2762	1180.5456	1193.1636	1295.737	1337.9735	1438.9589	1491.6249	1514.3517	1518.6714	1551.9066	1618.6838	1660.7681	3106.1713	3120.4829	3192.6257	3212.5173	3268.6911	3531.2775	3628.7028	3686.1804
NC1=CC(=NN1)N1CC1	Nc1cc(n[nH]1)N1CC1	
InChI=1S/C5H8N4/c6-4-3-5(8-7-4)9-1-2-9/h3H,1-2H2,(H3,6,7,8)	InChI=1S/C5H8N4/c6-4-3-5(8-7-4)9-1-2-9/h3H,1-2H2,(H3,6,7,8)
