20
gdb 98678	3.46746	0.96052	0.88481	4.1951	77.53	-0.2559	0.0013	0.2572	1399.1915	0.168208	-440.293565	-440.283489	-440.282544	-440.328677	36.586	
C	 0.4180155868	 1.2795350176	 0.3302895894	-0.443936
C	 0.0487483931	-0.1614132961	 0.0389380595	 0.308133
C	-1.3873389282	-0.5385162649	 0.3414855097	-0.445051
C	 0.7773629841	-0.8796083956	-1.0726985015	-0.298117
N	 1.0318517574	-1.1932899663	 0.319801184	-0.101283
C	 2.2025541498	-1.0835132858	 1.0269805881	 0.356067
O	 2.2820145598	-0.5375840882	 2.1137396608	-0.37473
C	 3.4228438474	-1.7881541519	 0.4356988212	-0.131101
O	 4.5038827529	-1.7013500012	 1.3159708366	-0.420994
H	 1.4409512724	 1.5057106087	 0.0187451419	 0.123297
H	-0.2613931593	 1.9541497045	-0.2002604849	 0.121177
H	 0.3442524403	 1.4851353784	 1.4016566748	 0.149219
H	-2.0761498342	 0.0567142824	-0.2670467467	 0.122647
H	-1.5656357479	-1.5970939549	 0.1379092086	 0.12744
H	-1.6180367795	-0.3505793106	 1.3951300065	 0.135552
H	 0.2697706374	-1.6489098639	-1.6494502678	 0.125882
H	 1.5407473122	-0.3277412928	-1.6173251797	 0.127915
H	 3.1551704234	-2.8349088156	 0.2244290336	 0.118895
H	 3.6643940041	-1.3245753518	-0.5350606891	 0.105371
H	 4.1595429079	-1.203521422	 2.0763891149	 0.293615
73.9357	85.7561	123.6071	145.5897	198.195	225.445	276.1691	339.0514	358.9034	384.1713	406.9845	447.6994	508.7351	571.6373	601.1	739.0336	803.2579	888.5885	915.9558	965.9246	1001.2823	1027.5131	1031.0573	1084.382	1112.6693	1136.2973	1138.4836	1154.3138	1246.5825	1282.2422	1289.7568	1321.522	1411.6082	1418.3607	1430.1484	1473.6585	1475.4482	1485.6983	1494.3033	1501.9859	1505.4903	1519.8224	1758.5534	2973.3875	3001.4062	3037.5298	3045.0035	3097.6826	3104.4718	3115.3083	3123.8869	3125.4155	3185.4561	3664.4292
CC1(C)CN1C(=O)CO	CC1(C)CN1C(=O)CO	
InChI=1S/C6H11NO2/c1-6(2)4-7(6)5(9)3-8/h8H,3-4H2,1-2H3	InChI=1S/C6H11NO2/c1-6(2)4-7(6)5(9)3-8/h8H,3-4H2,1-2H3
