13
gdb 127908	3.94888	1.20198	0.92686	2.1734	68.02	-0.2683	-0.1087	0.1595	1172.1871	0.087176	-486.037815	-486.029325	-486.028381	-486.072461	28.899	
C	 0.0464653991	 1.4655501217	-0.205905298	-0.333748
N	-0.0428635294	 0.0147694348	-0.2214359626	-0.337443
C	-1.0899381111	-0.5712589492	 0.1481140137	 0.533843
N	-1.1424698648	-1.969197467	 0.1214834057	-0.414339
C	-2.1848577285	-2.7483541391	 0.5042952058	 0.500742
O	-2.2314325172	-3.9444840547	 0.4746291075	-0.317415
N	-3.3429434651	-1.9922415011	 1.0013350112	-0.107948
N	-3.4041404019	-0.788247613	 1.0553302334	 0.076922
O	-2.2265695922	 0.0296356885	 0.5843698511	-0.298868
H	 1.0121194462	 1.7519192661	 0.2215415085	 0.134843
H	 0.0265856113	 1.8414867496	-1.2354131784	 0.136468
H	-0.751786367	 1.9584937896	 0.3580851148	 0.135239
H	-0.3055986793	-2.4269739262	-0.2158141228	 0.291706
40.4297	71.2998	80.3492	176.2186	248.0848	371.2862	382.6738	418.2245	476.1709	552.5453	642.5436	665.8593	702.975	778.3961	799.0961	886.0685	947.0897	1050.4759	1136.0019	1162.9893	1258.7762	1337.7273	1429.1371	1445.7855	1494.1085	1502.416	1711.9986	1800.7033	1876.0464	3026.0198	3086.2948	3104.0964	3603.8534
CN=C1NC(=O)N=NO1	CN=c1[nH]c(=O)nno1	
InChI=1S/C3H4N4O2/c1-4-3-5-2(8)6-7-9-3/h1H3,(H,4,5,8)	InChI=1S/C3H4N4O2/c1-4-3-5-2(8)6-7-9-3/h1H3,(H,4,5,8)
