15
gdb 129651	2.33512	1.91071	1.05576	5.6335	74.32	-0.198	-0.0284	0.1696	1053.6134	0.115666	-450.154765	-450.146808	-450.145864	-450.186826	30.554	
N	 0.0428533898	 1.3921106347	 0.0922859592	-0.588201
C	-0.0227457102	 0.0047041607	 0.0340617634	 0.35905
C	-1.2100778203	-0.6795520588	-0.0137354144	 0.100219
N	-2.4422519182	-0.0011090702	-0.0812235301	-0.615161
C	-1.1978734256	-2.1217334649	-0.0976908239	 0.312285
O	-2.230309271	-2.791410918	-0.2043146242	-0.4308
C	 0.1470167859	-2.6980740375	-0.0490598267	-0.084083
N	 1.2583832486	-2.0297983314	 0.0514814604	-0.196333
N	 1.1522330332	-0.691821615	 0.0786761706	-0.291682
H	 0.8585041532	 1.7935644377	-0.3537648725	 0.251898
H	-0.8066069307	 1.8004945485	-0.2838635665	 0.271062
H	-2.6472978848	 0.5255244239	 0.7626228852	 0.246194
H	-3.1626405184	-0.7117649919	-0.2006979814	 0.260501
H	 0.2426931766	-3.778947555	-0.0717109219	 0.132637
H	 2.0279666919	-0.2110382729	 0.2092824628	 0.272414
139.8463	201.4612	228.491	257.6638	295.3001	332.7663	385.4196	451.3884	494.4792	522.8226	578.2231	597.0405	624.6311	692.4658	762.981	769.7053	863.144	910.1282	936.9391	1021.8257	1094.8326	1164.0681	1227.3306	1289.8682	1343.679	1373.4521	1414.3604	1542.3241	1609.4646	1633.8991	1650.1205	1679.449	1707.9988	3189.9951	3467.8656	3513.0888	3551.6872	3612.3423	3638.7451
NC1=C(N)C(=O)C=NN1	Nc1c(N)c(=O)cn[nH]1	
InChI=1S/C4H6N4O/c5-3-2(9)1-7-8-4(3)6/h1H,(H2,5,7)(H3,6,8,9)	InChI=1S/C4H6N4O/c5-3-2(9)1-7-8-4(3)6/h1H,(H2,5,7)(H3,6,8,9)
