15
gdb 69042	2.94301	1.38391	1.15681	2.5028	70.49	-0.252	-0.0577	0.1943	1052.3344	0.110195	-457.758159	-457.749826	-457.748882	-457.791275	30.587	
O	-0.2141420629	 1.3278378785	-0.0667938958	-0.415851
C	-0.0569801316	-0.0136613889	-0.0085532405	 0.286986
C	-0.290544247	-0.9512427943	-1.1467280771	-0.400343
C	-1.1663197725	-1.2431730024	 0.0357825669	 0.157236
C	-0.3512843463	-1.9399561036	 1.1193075827	-0.426092
C	 0.5797258966	-0.6979036394	 1.1716075088	 0.371208
O	 1.3435303619	-0.2955128388	 2.0000986435	-0.300088
C	-2.597970041	-0.9433267221	 0.0270455087	 0.063468
O	-3.1583789604	-0.3532297518	-0.8722356188	-0.281021
H	-0.3260537241	 1.6105672001	-0.9808260557	 0.310911
H	-0.823561166	-0.4944249752	-1.9778385443	 0.151105
H	 0.4629957444	-1.6796660433	-1.4371125687	 0.133813
H	-0.868282313	-2.0611649378	 2.0757582338	 0.142562
H	 0.1098219595	-2.8904483113	 0.8351075252	 0.126334
H	-3.1456592075	-1.2617643697	 0.9400227115	 0.079772
76.6872	101.1436	213.5714	229.7303	279.1709	297.0751	366.7693	403.6174	476.0039	525.9503	584.1542	645.8703	684.2256	705.7198	800.4501	898.6781	955.814	982.2798	1021.0491	1039.917	1087.471	1114.7664	1134.1897	1205.7322	1227.7464	1314.3603	1371.4726	1420.2356	1437.5596	1462.7086	1488.5298	1774.0807	1874.4209	2899.1048	3053.9871	3101.185	3109.1753	3189.9384	3815.5089
OC12CC1(CC2=O)C=O	O[C@]12C[C@]1(CC2=O)C=O	
InChI=1S/C6H6O3/c7-3-5-1-4(8)6(5,9)2-5/h3,9H,1-2H2	InChI=1S/C6H6O3/c7-3-5-1-4(8)6(5,9)2-5/h3,9H,1-2H2/t5-,6+/m1/s1
