23
gdb 121142	2.96586	0.94629	0.8678	2.0397	82.86	-0.2412	0.0795	0.3207	1501.8661	0.202411	-425.414599	-425.403855	-425.402911	-425.451048	38.632	
C	 0.1284513969	 1.4194202665	-0.1726822867	-0.386246
C	-0.0305446565	-0.0212601826	 0.2813188353	-0.039993
O	-1.1782920424	-0.5662883375	-0.3465453314	-0.249653
C	-1.4094001863	-1.9092425645	-0.031558488	 0.042679
C	-2.1050336836	-2.2374717274	 1.3077172524	-0.106611
O	-3.1666269204	-2.9304851581	 0.6271514123	-0.324639
C	-2.6784646671	-2.5194865102	-0.688981052	 0.383772
C	-3.6253483656	-1.5097970826	-1.3239945241	-0.415508
C	-2.4438088139	-3.7339308756	-1.5746894435	-0.431892
H	 1.0095414463	 1.8707101649	 0.2930333799	 0.116281
H	 0.2450512694	 1.4680458798	-1.2589951863	 0.127817
H	-0.7507591705	 2.0080051449	 0.1039937515	 0.128525
H	 0.8597388637	-0.6149879446	 0.0139258162	 0.088863
H	-0.133559911	-0.070685971	 1.3775455838	 0.092024
H	-0.5040681231	-2.5082655116	-0.2097181407	 0.065714
H	-1.5703247218	-2.888869627	 2.0087851913	 0.097615
H	-2.4608762094	-1.3440983798	 1.8392217963	 0.097136
H	-3.7670534996	-0.6429411323	-0.6762731138	 0.124134
H	-3.233893448	-1.1562333379	-2.2825694751	 0.117633
H	-4.5968323775	-1.9836593042	-1.4964278987	 0.116259
H	-3.3927894327	-4.2332489053	-1.7949058374	 0.123584
H	-1.9848828624	-3.4360297096	-2.5236232361	 0.117379
H	-1.7870993345	-4.4547485043	-1.0792894652	 0.115126
44.8352	79.9431	86.9211	126.1859	182.1801	223.727	244.8568	271.3653	294.8428	339.3012	358.2003	407.5619	486.6413	535.7371	645.0178	814.4375	822.2136	856.4368	892.2265	922.724	945.2282	986.7676	1000.1852	1023.4863	1065.6807	1073.7438	1141.4735	1162.5672	1175.5721	1185.6352	1190.5159	1227.6684	1270.7238	1294.2322	1300.4094	1330.8181	1382.268	1395.5187	1405.4356	1410.0623	1444.6069	1472.9117	1476.1239	1483.8358	1493.256	1499.4518	1502.1053	1513.5021	1527.4242	2959.4758	2986.8869	2989.7639	3003.236	3032.9215	3044.6727	3045.92	3056.9545	3104.7259	3112.6794	3114.9109	3120.7708	3122.9098	3135.8589
CCOC1COC1(C)C	CCO[C@H]1COC1(C)C	
InChI=1S/C7H14O2/c1-4-8-6-5-9-7(6,2)3/h6H,4-5H2,1-3H3	InChI=1S/C7H14O2/c1-4-8-6-5-9-7(6,2)3/h6H,4-5H2,1-3H3/t6-/m0/s1
