19
gdb 41276	2.91169	2.0242	1.79608	1.6617	78.13	-0.2342	0.0817	0.316	869.7878	0.161774	-385.815752	-385.809452	-385.808508	-385.845881	27.671	
C	 0.0343537084	 1.5198546832	-0.1875457152	-0.3311
C	 1.5986181429	 1.5822176782	 0.0081953112	-0.353038
C	 1.5712120868	 0.1837309354	 0.6844621551	 0.261994
C	 1.7312514795	-0.4222071356	 2.0761231043	-0.323809
C	 0.8953975861	-1.5911785786	 1.4642462995	-0.079619
C	-0.5045032914	-0.9328462523	 1.2509864249	-0.292545
C	 0.0783395253	 0.0468114938	 0.2306149165	 0.39288
O	 0.474708236	-0.8580132135	-0.8624045687	-0.338238
C	 1.5364056769	-1.2011984527	 0.0273028674	 0.069053
H	-0.5012197153	 2.142442751	 0.534773511	 0.10887
H	-0.3533611697	 1.7158116142	-1.1891336615	 0.115277
H	 2.1667811582	 1.6200348006	-0.9236221399	 0.116931
H	 1.9430233286	 2.3902984724	 0.6569213427	 0.109563
H	 2.7635781228	-0.714903066	 2.2930592689	 0.099188
H	 1.308610028	 0.0996964991	 2.9408548819	 0.093569
H	 0.9489335599	-2.6007135695	 1.869409375	 0.068819
H	-1.2595949453	-1.5952079146	 0.8232630482	 0.10694
H	-0.8864528178	-0.4726272295	 2.1659621787	 0.098956
H	 2.3484109601	-1.7981325959	-0.3937241001	 0.076308
200.662	294.6341	361.4442	446.2929	473.5913	512.6956	629.927	682.927	686.7139	722.859	762.3445	793.8224	834.4068	854.8643	894.6175	911.5024	920.0357	941.2625	970.6399	978.2081	1023.9832	1052.0304	1086.8719	1109.1682	1127.2109	1147.0556	1168.291	1191.6582	1209.8162	1212.0259	1237.02	1248.0952	1268.0617	1278.7532	1294.0696	1316.5531	1326.1329	1457.8333	1474.0981	1478.1469	1504.4308	3040.1402	3061.7241	3066.6317	3071.7867	3091.8763	3092.2155	3115.7963	3123.1273	3131.0004	3131.6382
C1CC23CC4CC12OC34	C1C[C@@]23C[C@H]4C[C@@]12O[C@@H]34	
InChI=1S/C8H10O/c1-2-8-4-5-3-7(1,8)6(5)9-8/h5-6H,1-4H2	InChI=1S/C8H10O/c1-2-8-4-5-3-7(1,8)6(5)9-8/h5-6H,1-4H2/t5-,6+,7-,8-/m0/s1
