18
gdb 99304	4.86598	0.73602	0.71681	1.3187	70.58	-0.2542	0.0609	0.3151	1625.9878	0.146268	-476.236343	-476.226491	-476.225547	-476.272924	33.382	
C	 0.287116217	 1.0277393327	 0.1775137952	-0.329591
N	-0.4015221738	-0.005088837	-0.5657002135	-0.353401
C	-1.3613885303	-0.7859790444	-0.009576259	 0.523838
O	-1.7765975171	-0.7069882169	 1.1277434825	-0.422785
O	-1.8058828225	-1.6859963876	-0.9304661684	-0.277302
C	-2.835756012	-2.5729052547	-0.4712138505	-0.090072
C	-2.2728112407	-3.7347847303	 0.3023349961	 0.079703
C	-2.9225469202	-5.0502878245	 0.2602645897	-0.179576
O	-1.7191912233	-4.807324285	-0.4651231588	-0.228563
H	 1.3588007713	 0.8148198783	 0.2652665435	 0.127328
H	 0.1630720352	 2.0086619191	-0.29464234	 0.127013
H	-0.1488936946	 1.0593572941	 1.176550653	 0.170233
H	-0.1457514821	-0.2014651949	-1.5187551285	 0.256285
H	-3.542528817	-2.0166962097	 0.1507893409	 0.132317
H	-3.3297538062	-2.930917783	-1.3772275859	 0.114076
H	-1.6983779347	-3.4643330959	 1.1866009066	 0.117811
H	-2.835062919	-5.7189272464	 1.1150832653	 0.119462
H	-3.81519618	-5.1935125238	-0.3484434381	 0.113224
49.2855	60.4883	71.0002	86.2208	130.0685	222.9915	258.2259	309.2571	387.9967	443.83	477.9018	583.5263	690.5425	779.357	799.0632	863.9605	914.3428	949.492	996.1992	1031.8084	1102.0114	1152.6272	1158.1687	1160.1782	1169.549	1177.9709	1180.5722	1253.9663	1285.1792	1313.963	1378.8243	1446.1292	1452.0773	1460.7405	1497.7716	1500.8026	1531.8789	1570.5714	1811.2459	3026.2207	3065.6205	3076.6234	3081.7734	3123.0281	3140.5942	3154.0569	3168.5144	3658.1765
CNC(=O)OCC1CO1	CNC(=O)OC[C@H]1CO1	
InChI=1S/C5H9NO3/c1-6-5(7)9-3-4-2-8-4/h4H,2-3H2,1H3,(H,6,7)	InChI=1S/C5H9NO3/c1-6-5(7)9-3-4-2-8-4/h4H,2-3H2,1H3,(H,6,7)/t4-/m1/s1
