21
gdb 112600	3.73321	0.82889	0.79278	3.7772	79.86	-0.2444	-0.0166	0.2278	1513.0583	0.180118	-424.22459	-424.214539	-424.213594	-424.260013	36.546	
C	 0.0115337395	 1.5139374147	 0.1530861092	-0.458752
C	-0.0204017748	-0.0044123983	 0.0876006085	 0.21833
C	 0.9858506874	-0.7163475055	-0.8883380518	-0.304643
C	 1.3583952596	-1.7233384171	 0.2297964464	 0.057778
C	 2.8274192107	-2.0282675332	 0.4382062267	-0.098559
O	 2.9407308674	-2.8463734507	 1.5923813796	-0.421584
C	 0.653996582	-0.8044732264	 1.2606323713	-0.272486
C	-1.4174764617	-0.5255584015	-0.1502802077	 0.139894
O	-2.4037306479	 0.1565646626	-0.2690862518	-0.264653
H	 1.0307262818	 1.8705215074	 0.3309303976	 0.103742
H	-0.3527328253	 1.9550675921	-0.7796699633	 0.127688
H	-0.630008457	 1.8839220807	 0.958381909	 0.129628
H	 0.5786507261	-1.1221187934	-1.8185458431	 0.107754
H	 1.8125867449	-0.0445921425	-1.1394472425	 0.105767
H	 0.8207418929	-2.6695483746	 0.1145432203	 0.085197
H	 3.2323276643	-2.53213946	-0.4554716339	 0.087293
H	 3.3838235371	-1.0834983151	 0.5610544744	 0.079434
H	 3.8726994479	-3.0239693635	 1.7490884085	 0.288761
H	 1.3616219583	-0.1715048914	 1.8036512383	 0.107611
H	-0.0086743266	-1.2799998654	 1.9876474241	 0.111885
H	-1.4880581365	-1.637958639	-0.2115594999	 0.069917
54.756	79.7348	105.3696	191.6404	214.9539	244.0405	264.9745	291.1176	324.4496	365.6175	406.2011	437.7853	521.8459	676.9755	766.9489	826.9975	861.6385	868.9595	919.2944	931.3178	994.9851	1004.7177	1042.3961	1073.6747	1090.7945	1102.1316	1154.9246	1178.7887	1186.4705	1238.4393	1243.2631	1278.0278	1280.2171	1292.7707	1332.2812	1370.4164	1410.2833	1437.2093	1460.1651	1471.3961	1486.3355	1487.5407	1496.1565	1521.9558	1823.9619	2846.0627	2952.2927	2979.8132	3038.2257	3048.3133	3057.2419	3060.3545	3101.0616	3109.0237	3112.718	3113.1144	3830.6394
CC1(CC(CO)C1)C=O	C[C@]1(C[C@@H](CO)C1)C=O	
InChI=1S/C7H12O2/c1-7(5-9)2-6(3-7)4-8/h5-6,8H,2-4H2,1H3	InChI=1S/C7H12O2/c1-7(5-9)2-6(3-7)4-8/h5-6,8H,2-4H2,1H3/t6-,7-
