18
gdb 9279	6.40169	0.81801	0.76376	5.01	66.04	-0.2779	0.0087	0.2866	1438.2058	0.15114	-422.093923	-422.084241	-422.083297	-422.129667	32.744	
C	-0.181655161	 1.439734889	-0.1456598405	-0.401889
C	-0.0416276401	-0.0795637157	-0.006216068	 0.025398
C	 0.7600579902	-0.4611700908	 1.2406351527	-0.079831
O	 2.0634694206	 0.0793148827	 1.1031718861	-0.418858
C	-1.3973930166	-0.7853168274	 0.0250339846	-0.091625
O	-2.0906556941	-0.5849779697	-1.2129703268	-0.179623
C	-3.3163684427	-0.0309321255	-1.1838152619	 0.173081
O	-3.9655387028	 0.1570476783	-2.1678517362	-0.274898
H	 0.8040286796	 1.9085087172	-0.1399423298	 0.142193
H	-0.6876260904	 1.7058619911	-1.0770436744	 0.13204
H	-0.7588860723	 1.8582682354	 0.6887691928	 0.104588
H	 0.510438711	-0.4651118969	-0.8726110683	 0.105457
H	 0.2573165576	-0.0654322213	 2.1396203676	 0.085636
H	 0.7955540691	-1.5585085222	 1.3401500589	 0.08687
H	 2.5550350154	-0.1052054924	 1.9085095829	 0.290433
H	-1.2731755557	-1.8665401558	 0.1505829868	 0.11916
H	-2.0114556998	-0.4141588567	 0.858053807	 0.105952
H	-3.6463562681	 0.2253448908	-0.1574163334	 0.075915
33.2664	60.6881	105.5656	142.8041	213.972	235.7843	246.7721	280.1724	337.6528	379.0781	418.3483	527.3178	677.6448	842.2913	922.5168	932.3464	953.1423	1037.3855	1045.0262	1083.9184	1111.953	1139.8072	1171.4794	1204.6077	1252.445	1269.9581	1309.5557	1319.7848	1388.1286	1395.8262	1411.3372	1435.2944	1463.3078	1497.6384	1500.2355	1507.7502	1522.4362	1866.903	2939.6347	2952.0849	2980.5441	3005.7407	3027.5767	3041.7041	3069.6754	3107.1687	3139.6549	3834.9914
CC(CO)COC=O	C[C@@H](CO)COC=O	
InChI=1S/C5H10O3/c1-5(2-6)3-8-4-7/h4-6H,2-3H2,1H3	InChI=1S/C5H10O3/c1-5(2-6)3-8-4-7/h4-6H,2-3H2,1H3/t5-/m0/s1
