23
gdb 103509	2.75727	1.27854	1.22484	0.2111	90.32	-0.2252	0.0228	0.248	1203.1343	0.206043	-351.159605	-351.150573	-351.149629	-351.192827	36.008	
C	 0.1272389036	 1.6057450418	 0.0698876238	-0.395626
C	 0.0223274858	 0.075827124	 0.0721007155	-0.195574
C	-1.4107136056	-0.5073277647	-0.0009117285	 0.256358
C	-2.2450247633	-0.0576766631	 1.2173990431	-0.42836
C	-2.1488931839	-0.1558365397	-1.2880983824	-0.119785
C	-2.642805592	-1.2269805089	-1.9134058954	-0.090829
C	-2.2487475061	-2.4933531574	-1.2323915056	-0.082812
C	-0.7544834241	-2.7588453773	-1.2201719332	-0.302233
C	-1.3956799568	-2.0476022025	-0.05700205	-0.06192
H	 1.1767181756	 1.9151851024	 0.1037487296	 0.111597
H	-0.3119091083	 2.0417107878	-0.8333868348	 0.11561
H	-0.3723529146	 2.0548584038	 0.9335714522	 0.116857
H	 0.6031143392	-0.3193545819	-0.7682787261	 0.094428
H	 0.4989071604	-0.3137922835	 0.981432513	 0.090759
H	-2.4297548972	 1.0204264439	 1.2062078588	 0.112171
H	-3.2165725762	-0.5604798255	 1.2190714011	 0.116836
H	-1.7300900263	-0.3023891936	 2.1544854411	 0.105668
H	-2.2575204837	 0.8682652049	-1.6275906823	 0.088666
H	-3.2246194067	-1.2071141646	-2.828613862	 0.091245
H	-2.9356914944	-3.3308527852	-1.1797158446	 0.082831
H	-0.4268308188	-3.7785002794	-1.0427290959	 0.10604
H	-0.1413292732	-2.2042201956	-1.9225268329	 0.111239
H	-1.4380268534	-2.5799425356	 0.8874192754	 0.076834
79.4186	152.4103	182.4831	224.1536	253.6849	289.405	342.3364	367.3145	390.1885	442.5475	577.3756	607.5114	717.8068	756.1318	771.2553	795.3838	805.1882	848.4656	898.5792	921.4593	946.9273	974.3741	991.5167	1007.3318	1015.8543	1036.695	1065.4841	1075.013	1080.7872	1101.5755	1126.8031	1177.3491	1193.387	1214.2476	1230.062	1306.7047	1316.1055	1363.2991	1367.3132	1386.3147	1405.0692	1413.8782	1472.7791	1479.6261	1490.75	1497.2437	1506.3422	1508.8907	1664.2335	3018.1328	3024.8899	3037.3331	3063.9153	3094.3748	3100.7352	3106.1614	3113.0444	3122.5824	3157.8159	3167.8467	3180.6294	3205.4502	3210.4985
CCC1(C)C=CC2CC12	CC[C@@]1(C)C=C[C@H]2C[C@@H]12	
InChI=1S/C9H14/c1-3-9(2)5-4-7-6-8(7)9/h4-5,7-8H,3,6H2,1-2H3	InChI=1S/C9H14/c1-3-9(2)5-4-7-6-8(7)9/h4-5,7-8H,3,6H2,1-2H3/t7-,8+,9-/m0/s1
