18
gdb 12871	2.71582	2.27325	1.78532	1.6053	72.34	-0.2219	0.0108	0.2327	842.7915	0.154124	-347.801199	-347.793709	-347.792764	-347.832298	29.633	
C	-0.0152276778	 1.543322723	-0.0319516016	-0.488137
C	 0.0066005303	 0.0345548891	 0.0370689688	 0.256075
C	-1.2327810391	-0.7425973965	-0.2689990806	-0.148383
C	-1.353028891	-1.8398943541	 0.4866370165	-0.099646
C	-0.2189218515	-1.9678236977	 1.4827804962	-0.277798
C	 0.6846722732	-0.7783233807	 1.1591691659	-0.145521
C	 1.2875783238	-0.7424155457	-0.2218055442	 0.092583
O	 1.3629508508	-1.8670984359	-1.0409138899	-0.429795
H	 0.9543777425	 1.9644290092	 0.251620995	 0.117485
H	-0.2406238001	 1.8919814776	-1.0468735388	 0.118916
H	-0.7709256178	 1.9646120088	 0.6412567764	 0.118164
H	-1.9279235718	-0.4361534161	-1.0440515118	 0.095542
H	-2.1482352181	-2.5731899756	 0.4073038728	 0.098297
H	-0.5866199608	-1.9385053069	 2.5159776922	 0.110516
H	 0.3140520641	-2.9214996708	 1.3675082734	 0.120057
H	 1.2094923082	-0.2800872487	 1.9672956742	 0.081503
H	 2.1843572642	-0.1407820293	-0.3400962173	 0.098682
H	 0.461753001	-2.1878007995	-1.1781164374	 0.28146
190.6467	198.1536	220.7318	243.6916	291.9504	345.6765	400.947	540.8208	573.7452	611.61	729.2737	747.9469	776.3361	834.047	861.554	928.1732	950.1453	957.3699	967.4267	1020.6804	1055.5682	1064.2564	1106.468	1125.2974	1162.0018	1185.1034	1225.147	1266.5815	1309.4891	1319.924	1346.8827	1393.8005	1416.6882	1453.4122	1476.1622	1489.851	1499.3873	1659.8998	3018.1171	3021.3092	3046.7579	3080.032	3098.5229	3149.4161	3165.458	3176.279	3202.3608	3747.3151
CC12C=CCC1C2O	C[C@]12C=CC[C@H]1[C@H]2O	
InChI=1S/C7H10O/c1-7-4-2-3-5(7)6(7)8/h2,4-6,8H,3H2,1H3	InChI=1S/C7H10O/c1-7-4-2-3-5(7)6(7)8/h2,4-6,8H,3H2,1H3/t5-,6+,7-/m0/s1
