21
gdb 88172	2.52233	1.45004	1.12716	2.703	78.38	-0.2356	0.0716	0.3072	1160.163	0.182405	-424.214171	-424.20518	-424.204236	-424.248088	34.593	
C	-0.2573383284	 1.3932290368	-0.1323437576	-0.409008
C	-0.0438100002	-0.11168219	-0.0465510232	 0.109459
O	 0.7495032059	-0.5546093101	-1.1639612593	-0.282686
C	 1.9274084386	-1.2064551417	-0.710149045	-0.070613
C	 1.581347413	-1.7509297631	 0.6770329105	-0.306999
C	 0.6788453631	-0.6435117981	 1.2007055669	 0.29407
C	 1.1351883727	 0.2584644539	 2.3339472782	-0.381311
C	 0.0045692011	-0.724830117	 2.5295649647	 0.031934
O	-1.3146526033	-0.2567546622	 2.5843934216	-0.418616
H	 0.6912380687	 1.9328515398	-0.0505602924	 0.112614
H	-0.7107768952	 1.6424016098	-1.0956494691	 0.12002
H	-0.9297919783	 1.7267831532	 0.663011881	 0.120332
H	-1.020896256	-0.607744658	-0.1278917261	 0.087652
H	 2.189921328	-1.9835337298	-1.4349317503	 0.102154
H	 2.7690514953	-0.4973993432	-0.6500237226	 0.086845
H	 1.0253835353	-2.6917955923	 0.5868183	 0.108209
H	 2.4593378465	-1.9300917594	 1.3031127838	 0.098493
H	 2.0914416109	 0.0524288665	 2.8050095008	 0.10722
H	 0.8668079508	 1.3079997598	 2.2893053344	 0.116865
H	 0.1969220902	-1.6090739602	 3.139216947	 0.083829
H	-1.4456777289	 0.1684701554	 3.4383561565	 0.289533
38.2298	150.3876	158.9835	250.8084	274.3566	284.82	318.8219	382.4997	408.5567	450.8927	491.6019	587.2205	638.4452	727.2986	820.7281	848.0914	875.0219	910.9477	929.1299	968.6215	993.6473	1034.8936	1037.2964	1074.1094	1091.0375	1113.6036	1121.0378	1138.4999	1168.4813	1200.1143	1237.0803	1245.8392	1291.2222	1316.3457	1326.6737	1356.9455	1386.2455	1393.4955	1401.8015	1426.8634	1485.8106	1488.6921	1495.0924	1502.9783	1525.4677	2969.7659	3003.6558	3035.2487	3040.9474	3072.6126	3085.9324	3098.7819	3115.9666	3123.4009	3126.6868	3219.1535	3805.8205
CC1OCCC11CC1O	C[C@H]1OCC[C@]21C[C@H]2O	
InChI=1S/C7H12O2/c1-5-7(2-3-9-5)4-6(7)8/h5-6,8H,2-4H2,1H3	InChI=1S/C7H12O2/c1-5-7(2-3-9-5)4-6(7)8/h5-6,8H,2-4H2,1H3/t5-,6-,7-/m1/s1
