15
gdb 127698	4.4843	1.12026	0.90265	1.2403	71.28	-0.24	-0.033	0.207	1237.0408	0.114297	-446.302648	-446.294334	-446.29339	-446.336145	29.686	
C	-0.0854263328	 1.4046101522	-0.0373732742	-0.318414
N	-0.1080316452	-0.0442126576	 0.0282088705	 0.157326
N	-0.280153665	-0.8055168409	-1.048072693	-0.126396
N	-0.2463271479	-2.038655852	-0.6167044737	-0.280932
C	-0.0509719119	-1.9758547877	 0.7243998412	 0.421524
N	 0.0392618192	-0.71973853	 1.1550585379	-0.295182
C	 0.0546878449	-3.1871807521	 1.5707460804	 0.265426
N	-0.2332623599	-4.3391170741	 0.8728618137	-0.552243
N	 0.3537130976	-3.0601949696	 2.8066532411	-0.507202
H	 0.8758358946	 1.7727221995	 0.3260355445	 0.167965
H	-0.2299929893	 1.6847630043	-1.0797356738	 0.173413
H	-0.8875961873	 1.8116954667	 0.5810065146	 0.168004
H	-0.2357585626	-4.2818234856	-0.134384302	 0.272781
H	 0.0605203045	-5.2145461464	 1.2736292481	 0.250209
H	 0.3899376611	-3.9715790468	 3.2678851547	 0.203721
66.7935	92.4255	151.7483	183.5321	284.2195	349.3307	390.1643	408.7844	474.429	537.1812	638.1884	642.7568	707.9358	757.2113	816.533	868.5848	1036.8138	1051.4594	1080.1931	1115.368	1143.2644	1152.6966	1263.3399	1294.1221	1349.2356	1412.8395	1421.8878	1451.9496	1476.2352	1504.2688	1555.2103	1632.2538	1724.9339	3070.2524	3145.7579	3181.3286	3452.3239	3579.7451	3705.0682
CN1N=NC(=N1)C(N)=N	Cn1nnc(n1)C(=N)N	
InChI=1S/C3H6N6/c1-9-7-3(2(4)5)6-8-9/h1H3,(H3,4,5)	InChI=1S/C3H6N6/c1-9-7-3(2(4)5)6-8-9/h1H3,(H3,4,5)
