21
gdb 70748	2.51503	1.52072	1.14233	1.763	77.83	-0.2421	0.0829	0.3249	1142.7011	0.183332	-424.218312	-424.209945	-424.209001	-424.2508	33.153	
C	 0.1607657837	 1.5188385983	-0.0796714135	-0.463095
C	-0.0336416225	 0.0225768285	 0.0329194709	 0.401126
C	-1.3453975774	-0.5168087552	-0.5283750411	-0.285369
C	-2.4487985223	-0.6614399076	 0.5301984597	-0.069708
O	-2.3353340424	-1.82772474	 1.3237132564	-0.240421
C	-1.302865266	-1.8403456167	 2.2916096453	-0.070548
C	 0.1045710834	-2.0049278164	 1.6979868599	-0.24891
C	 0.6562879246	-0.7213877546	 1.1016030919	-0.005999
O	 1.1451770585	-0.7531185423	-0.245630656	-0.298216
H	 1.0978580288	 1.8284481721	 0.389405604	 0.125199
H	 0.1876507883	 1.8206005285	-1.1327122283	 0.126225
H	-0.663842897	 2.0583860623	 0.399955381	 0.118963
H	-1.7013518968	 0.1511885203	-1.3223984282	 0.095792
H	-1.1716183694	-1.4948798361	-0.9859118031	 0.123492
H	-2.4846540564	 0.2363398561	 1.1709169335	 0.085024
H	-3.4209818376	-0.7496641412	 0.0345101366	 0.107029
H	-1.3496151161	-0.9309583667	 2.9150022781	 0.084725
H	-1.528882258	-2.694516259	 2.9380636248	 0.107892
H	 0.781458802	-2.3604918962	 2.4837919649	 0.100008
H	 0.0713774376	-2.7806818374	 0.9271561787	 0.123847
H	 1.2849612852	-0.1357782869	 1.7758891644	 0.082942
126.5074	159.7039	215.6001	239.6033	314.2822	338.1413	371.8321	398.1811	419.2159	467.5634	548.2199	566.5124	695.7066	766.7059	816.9897	870.6399	913.4317	943.0757	975.5743	987.1321	1012.5986	1042.5017	1081.136	1089.0516	1112.2867	1139.737	1167.8314	1200.522	1215.9494	1256.3413	1302.4776	1326.0188	1347.6936	1364.0673	1372.6061	1400.8203	1413.8089	1426.478	1466.3426	1471.7735	1481.9369	1488.2397	1490.9773	1496.4362	1508.9349	2959.3188	2964.7144	3029.8175	3034.4889	3037.868	3071.6118	3073.9502	3078.7637	3092.2985	3095.9926	3101.5675	3122.077
CC12CCOCCC1O2	C[C@]12CCOCC[C@H]1O2	
InChI=1S/C7H12O2/c1-7-3-5-8-4-2-6(7)9-7/h6H,2-5H2,1H3	InChI=1S/C7H12O2/c1-7-3-5-8-4-2-6(7)9-7/h6H,2-5H2,1H3/t6-,7+/m1/s1
