15
gdb 16851	4.16639	1.98952	1.49859	4.2538	67.45	-0.2361	-0.0319	0.2042	822.6448	0.121645	-362.695512	-362.689138	-362.688193	-362.725941	25.193	
O	-0.0178233853	-0.0734654937	 0.0274078542	-0.384041
C	 0.0063405324	 1.1461861801	 0.0030273046	 0.39003
N	-1.149166563	 1.891845767	-0.0471127733	-0.3388
C	-1.2378954866	 3.313201249	 0.074466288	 0.025875
C	-0.7939368418	 4.0221516904	 1.3259448364	-0.3031
C	 0.0696597412	 4.0765474382	 0.0670784486	-0.0937
C	 1.2977046196	 3.2617901685	-0.0180083427	-0.065127
C	 1.2678812479	 1.92461619	-0.0155804889	-0.166039
H	-1.9979045445	 1.3482658394	 0.0051442911	 0.247812
H	-2.0732804223	 3.7368376084	-0.4738946232	 0.108185
H	-1.3126698545	 4.9301443427	 1.6124725664	 0.120921
H	-0.4299020206	 3.4126519636	 2.1451998019	 0.13075
H	 0.094839486	 5.0281263923	-0.4534805555	 0.102711
H	 2.2457550219	 3.7890809895	-0.0902242362	 0.108613
H	 2.1672922097	 1.3222320945	-0.0576688413	 0.11591
109.1158	219.6357	360.7521	419.6393	459.1052	501.4836	553.5315	584.38	711.104	740.1534	796.2818	806.7614	835.5802	897.2462	925.1218	989.7892	1018.3621	1033.6108	1050.6776	1097.9164	1120.9717	1134.4881	1187.3942	1233.1252	1317.1862	1386.2888	1408.782	1423.8018	1454.3321	1489.6935	1682.4301	1777.3623	3135.9217	3150.6946	3155.3202	3165.7471	3213.2018	3233.2608	3615.6767
O=C1NC2CC2C=C1	O=C1N[C@H]2C[C@H]2C=C1	
InChI=1S/C6H7NO/c8-6-2-1-4-3-5(4)7-6/h1-2,4-5H,3H2,(H,7,8)	InChI=1S/C6H7NO/c8-6-2-1-4-3-5(4)7-6/h1-2,4-5H,3H2,(H,7,8)/t4-,5+/m1/s1
