19
gdb 74942	3.40791	1.56832	1.40007	1.8061	79.38	-0.225	0.0155	0.2405	995.3033	0.161801	-385.876115	-385.86929	-385.868346	-385.907016	28.58	
C	-0.0374286986	 1.5529429159	 0.0066758871	-0.50468
C	-0.0316144539	 0.0591110046	-0.0371625956	 0.317846
C	-0.0846191057	-0.7502828459	-1.1072662393	-0.192125
C	 0.1000429822	-2.1808018416	-0.6527492314	-0.101616
C	 1.5783902441	-2.2807201243	-0.1131631707	-0.209862
C	 1.2469643093	-1.8631188565	 1.32357997	 0.055335
O	 0.2700293732	-2.8922968867	 1.6738383031	-0.300799
C	-0.5881503954	-2.1691851726	 0.76807765	 0.099865
C	 0.0436807894	-0.824024717	 1.1773051084	-0.133086
H	 0.893153932	 1.9442666441	 0.437807491	 0.126917
H	-0.1517065743	 1.9821133087	-0.9928000219	 0.123883
H	-0.8531554442	 1.9316830602	 0.6355653779	 0.125971
H	-0.1119651972	-0.436989033	-2.1451556995	 0.090402
H	-0.1984490792	-2.9651636054	-1.3464744639	 0.065929
H	 1.9644531312	-3.3023959316	-0.112752898	 0.108101
H	 2.2654142639	-1.6209688275	-0.6467014512	 0.095489
H	 2.0445041028	-1.7366698033	 2.0544385652	 0.080002
H	-1.650661045	-2.402681431	 0.8449538893	 0.081044
H	-0.2681159445	-0.4186303371	 2.1395869494	 0.071384
167.0632	179.2964	270.7323	358.5468	446.5495	531.51	537.6085	563.2701	636.7264	770.9581	790.5462	818.0595	849.9529	871.7413	880.4707	916.6833	929.6959	957.7488	964.4993	967.5196	1006.2991	1030.8803	1048.2113	1062.4163	1084.1911	1139.3529	1166.6174	1199.113	1209.9465	1235.8886	1252.8488	1274.0581	1292.588	1309.0079	1329.6517	1360.1013	1415.0042	1473.6452	1478.7653	1488.811	1684.0206	3015.3184	3060.602	3071.5458	3106.7651	3113.7655	3121.9146	3125.3258	3130.775	3135.9357	3189.9819
CC1=CC2CC3OC2C13	CC1=C[C@H]2C[C@@H]3O[C@H]2[C@H]13	
InChI=1S/C8H10O/c1-4-2-5-3-6-7(4)8(5)9-6/h2,5-8H,3H2,1H3	InChI=1S/C8H10O/c1-4-2-5-3-6-7(4)8(5)9-6/h2,5-8H,3H2,1H3/t5-,6-,7+,8+/m0/s1
