16
gdb 36759	6.65989	0.45963	0.4334	4.9943	90.67	-0.2739	-0.0408	0.2331	2329.9221	0.122205	-363.572442	-363.562661	-363.561717	-363.608435	33.835	
C	-0.0671228674	-1.2296821292	-0.0042900825	-0.416902
C	-0.0609394302	-0.0281490584	 0.0025254549	 0.277918
C	-0.0173173332	 1.4280858524	 0.0104752037	-0.354988
C	 1.4238281366	 1.9740445501	-0.0008780296	-0.174014
C	 1.4430027362	 3.5174224584	 0.0078339372	-0.380935
C	 2.7882586185	 4.0648883695	-0.0024784683	 0.032839
C	 3.9155594871	 4.4998901422	-0.0115697703	 0.108747
C	 5.1870960474	 4.9962403042	-0.0219204965	 0.204577
N	 6.2693386611	 5.4187479145	-0.0307223637	-0.337141
H	-0.0852796726	-2.2914326167	-0.0103285621	 0.200528
H	-0.5637810748	 1.8165545288	-0.8592996807	 0.135337
H	-0.5461204549	 1.806443366	 0.8954894476	 0.135338
H	 1.9667821435	 1.5959005402	 0.8700658439	 0.134053
H	 1.9491009708	 1.6060305801	-0.8868737989	 0.134054
H	 0.8950001466	 3.9022741922	-0.8626818559	 0.150301
H	 0.9126429853	 3.8921452656	 0.8935610112	 0.150289
51.7112	67.6422	82.5211	137.4652	161.9513	231.5003	289.354	343.9012	368.8247	435.5408	540.1304	578.0744	585.1858	626.2769	648.3413	726.8082	736.6032	837.9316	959.753	1023.5951	1035.4155	1077.9447	1172.2982	1174.4178	1259.0083	1290.3892	1318.9285	1345.8779	1382.5349	1462.5705	1473.6611	1499.3978	2242.4913	2266.5603	2402.5552	3013.8327	3016.1485	3043.4504	3047.8813	3064.6178	3112.0385	3506.5054
C#CCCCC#CC#N	C#CCCCC#CC#N	
InChI=1S/C8H7N/c1-2-3-4-5-6-7-8-9/h1H,3-5H2	InChI=1S/C8H7N/c1-2-3-4-5-6-7-8-9/h1H,3-5H2
