17
gdb 62548	2.34048	1.44695	1.19777	5.0168	69.04	-0.2712	-0.0488	0.2223	1101.203	0.133009	-458.999505	-458.990279	-458.989335	-459.033715	32.748	
C	-0.1820843246	 1.468217612	-0.0391818524	-0.444678
C	-0.0089573823	-0.0496565321	 0.0087046505	 0.046936
C	-1.3363903427	-0.7784771289	 0.2232910659	-0.455297
C	 0.9781191875	-0.6396413027	-1.0645448156	 0.011204
O	 1.9160024949	-1.0042893348	-0.0187330375	-0.240775
C	 1.1015290779	-0.5070582361	 0.9687104136	 0.470784
O	 1.3026275996	-0.4832846633	 2.1382757665	-0.325261
C	 0.4939514405	-1.819201336	-1.8717128339	 0.143424
O	 0.654116322	-2.9700099942	-1.5667003065	-0.230069
H	 0.772847275	 1.9812633096	-0.1869630533	 0.13329
H	-0.8570569555	 1.7538748842	-0.8525780954	 0.126873
H	-0.614184678	 1.823633152	 0.9008530832	 0.146403
H	-2.0554683568	-0.5197864613	-0.5609912018	 0.124902
H	-1.2106972645	-1.8639375011	 0.235540166	 0.152464
H	-1.7629496518	-0.4774545273	 1.184298065	 0.145094
H	 1.4085423657	 0.1173233611	-1.7295153702	 0.109516
H	-0.0593113369	-1.5238879013	-2.792889404	 0.08519
75.8923	86.4716	173.0223	208.3722	220.4142	246.3895	255.1706	286.0669	329.2002	376.9379	553.6769	651.0166	723.809	734.0996	793.7668	816.9297	917.9325	963.7429	979.3699	999.9385	1036.0915	1062.7965	1117.4972	1181.2254	1203.1516	1253.5488	1288.1013	1366.1608	1402.9639	1420.4416	1423.9591	1483.1142	1486.4258	1503.9634	1508.5931	1840.2907	1943.0358	2869.7668	3036.5089	3041.2232	3057.2873	3108.444	3111.8913	3117.5434	3127.8917
CC1(C)C(OC1=O)C=O	CC1(C)[C@@H](OC1=O)C=O	
InChI=1S/C6H8O3/c1-6(2)4(3-7)9-5(6)8/h3-4H,1-2H3	InChI=1S/C6H8O3/c1-6(2)4(3-7)9-5(6)8/h3-4H,1-2H3/t4-/m0/s1
