16
gdb 78878	2.80672	1.89232	1.40764	1.7846	67.28	-0.2626	0.0554	0.318	918.2832	0.125048	-437.794698	-437.787796	-437.786852	-437.82581	27.703	
O	-0.211867595	 1.4633029214	-0.0420300331	-0.441929
C	-0.112329818	 0.0773580816	 0.0756465181	 0.167763
C	 0.1329875748	-0.6300707798	 1.409354532	-0.107564
C	-1.1829201884	-0.8846727876	 2.0720780244	-0.158304
N	-0.687417103	-1.819277357	 0.9895247128	-0.162165
C	-1.3738262417	-0.8159225381	 0.0027070969	-0.180833
C	-2.2375645949	-0.3414439246	 1.1610306334	 0.494936
C	-3.6842785008	-0.2767507029	 1.3032266881	-0.285234
O	-2.8835927399	 0.9240897623	 1.2564366253	-0.297956
H	-0.9740990603	 1.7602148745	 0.4699805949	 0.303355
H	 0.6341589503	-0.2545267036	-0.6506092603	 0.104501
H	 1.0682674566	-0.7570148301	 1.9425650474	 0.104325
H	-1.269775428	-1.2008924581	 3.1043055244	 0.108566
H	-1.7965885818	-1.1640573411	-0.9367177618	 0.094078
H	-4.3232918167	-0.4435503129	 0.437627035	 0.128364
H	-4.144159843	-0.480734724	 2.2687730627	 0.128097
132.8493	202.5721	277.8583	340.3469	372.6917	424.8737	504.7324	591.2063	646.1093	746.9111	770.5896	803.2045	812.7824	859.3781	917.9913	936.8843	956.7115	977.2699	1009.899	1034.7618	1051.5408	1114.3709	1123.5495	1136.5159	1167.5723	1181.2742	1195.9033	1199.3238	1275.1226	1296.2574	1327.7404	1354.5757	1449.5554	1469.7489	1549.3773	3088.3043	3089.0085	3152.4884	3177.0079	3183.6055	3199.2231	3788.2394
OC1C2C3N2C1C31CO1	O[C@H]1[C@H]2[C@@H]3N2[C@H]1[C@]13CO1	
InChI=1S/C6H7NO2/c8-3-2-4-6(1-9-6)5(3)7(2)4/h2-5,8H,1H2	InChI=1S/C6H7NO2/c8-3-2-4-6(1-9-6)5(3)7(2)4/h2-5,8H,1H2/t2-,3-,4-,5+,6+,7?/m0/s1
