16
gdb 67499	2.52256	1.64806	1.24441	1.8419	75.46	-0.2079	0.0441	0.2519	1022.9293	0.122299	-400.605968	-400.598041	-400.597096	-400.637922	31.658	
O	-0.0693802045	 1.3717300702	 0.0468699417	-0.451785
C	 0.0109396384	-0.0020555271	-0.0472610304	 0.365524
C	 0.5654464006	-0.7001660924	-1.3313949894	-0.144796
N	 0.8177449949	-2.1247985193	-1.0296795356	-0.316534
C	-0.5611304033	-1.6543198851	-1.301966938	-0.051428
C	-1.1385648553	-0.9830389162	-0.0258565394	-0.146297
C	-0.1658671764	-0.9122237856	 1.1576121708	-0.290549
C	 0.6918925954	-1.9173405816	 1.7212012031	 0.356898
C	 1.3703923347	-2.6915103006	 2.3443247772	-0.453418
H	 0.7573993263	 1.6972066358	 0.422571032	 0.291358
H	 1.0306921781	-0.1799951701	-2.1585021628	 0.100846
H	 1.1673976238	-2.5635796381	-1.8819187348	 0.231694
H	-1.1531341963	-2.0640671179	-2.1091298806	 0.100306
H	-2.1939763785	-0.7935893317	 0.1205749206	 0.104083
H	-0.6456993608	-0.3149921014	 1.9342938507	 0.121741
H	 1.987282183	-3.4024962088	 2.8345340349	 0.182358
124.9976	165.8698	236.5961	297.8687	314.7864	365.971	393.472	453.2655	545.4321	605.3725	614.1791	626.4449	679.2679	736.4262	769.551	816.7567	836.5988	882.4086	909.7861	939.496	959.0056	976.326	1038.1867	1078.2144	1090.9822	1108.5942	1195.8724	1201.5676	1250.9498	1304.5942	1315.8032	1337.441	1355.9896	1466.8727	2228.7214	3103.8719	3194.8253	3201.3773	3210.9243	3464.0811	3506.0143	3778.303
OC12C3NC3C1C2C#C	O[C@]12[C@H]3N[C@H]3[C@H]1[C@H]2C#C	
InChI=1S/C7H7NO/c1-2-3-4-5-6(8-5)7(3,4)9/h1,3-6,8-9H	InChI=1S/C7H7NO/c1-2-3-4-5-6(8-5)7(3,4)9/h1,3-6,8-9H/t3-,4-,5+,6+,7+/m1/s1
