16
gdb 41393	2.82261	1.96218	1.35404	3.1899	68.63	-0.252	0.0034	0.2554	923.2811	0.126221	-437.828533	-437.821845	-437.820901	-437.859665	26.155	
C	 0.060771127	 1.55988472	-0.2582522993	-0.127876
O	 1.3452881167	 1.6785459476	 0.3804884737	-0.282706
C	 1.4923365015	 0.2477207052	 0.5108269354	 0.001754
C	 1.3000907427	-0.2431037825	 1.9961539555	-0.177878
N	-0.0426006859	-0.8799465964	 2.1230287191	-0.305649
C	-0.5972164659	-0.6594902416	 1.0138635397	 0.398623
O	-1.5679219971	-1.2891604583	 0.2744257291	-0.274403
C	-0.7885489603	-0.938003926	-0.9418865704	-0.195105
C	 0.0800090739	 0.0342254049	-0.1064220271	 0.124598
H	-0.731761729	 2.1084881894	 0.2645580048	 0.120255
H	 0.1031943751	 1.8913693579	-1.3042814253	 0.108491
H	 2.4103116155	-0.1105347328	 0.0364214334	 0.092161
H	 2.0425259869	-0.9983967066	 2.2748159437	 0.116561
H	 1.4200735066	 0.6101408537	 2.6718097039	 0.129588
H	-0.2965627123	-1.8298557292	-1.3362313192	 0.138807
H	-1.4281708253	-0.4701420653	-1.6933921669	 0.132779
115.1774	226.3604	258.6129	272.4481	391.9467	480.9601	588.2981	674.0517	681.2078	789.2525	812.3504	835.5919	869.702	906.5971	943.2418	967.1167	985.2746	1022.094	1057.2318	1098.3099	1124.6197	1160.7676	1168.6917	1184.3833	1210.1195	1238.4211	1240.8307	1306.2396	1320.2296	1357.1807	1370.8559	1482.4726	1495.0457	1520.6584	1773.0121	3009.0381	3044.0612	3059.5573	3066.0444	3071.1738	3089.7907	3135.4624
C1OC2CN=C3OCC123	C1O[C@H]2C[N][C]3OC[C@]123	
InChI=1S/C6H7NO2/c1-4-6(2-8-4)3-9-5(6)7-1/h4H,1-3H2	InChI=1S/C6H7NO2/c1-4-6(2-8-4)3-9-5(6)7-1/h4H,1-3H2/t4-,6+/m0/s1
