23
gdb 110526	3.43945	1.11806	1.06706	0.4379	89.69	-0.2319	0.0883	0.3202	1298.8469	0.20623	-351.117331	-351.108439	-351.107495	-351.150756	34.822	
C	 0.081982567	 1.5246246201	 0.1243508738	-0.376865
C	 0.0494975413	 0.0042945127	-0.0673854076	-0.213712
C	-1.3568557187	-0.5789630871	 0.0403958562	 0.053858
C	-1.5961886328	-2.0878912048	 0.0376941543	-0.14772
C	-1.5347968422	-2.582539297	 1.498636905	-0.114132
C	-1.263423058	-1.3743544181	 2.3895959268	-0.236299
C	-2.1441490557	-0.5758615241	 1.3911087647	-0.130054
C	-2.7961488781	-1.9593643053	 0.9449884686	 0.358894
C	-4.2071379206	-2.433752931	 0.8367698137	-0.530513
H	 1.0966690903	 1.9206635869	 0.0177213065	 0.109336
H	-0.5515660356	 2.0299887999	-0.6134886549	 0.111149
H	-0.2816833672	 1.8074893057	 1.1183025174	 0.116511
H	 0.4547430086	-0.2492951775	-1.0562547286	 0.090294
H	 0.7149569241	-0.4764165399	 0.6585169619	 0.097335
H	-1.9972755927	-0.1217796281	-0.725540244	 0.061747
H	-1.4657460315	-2.7837782021	-0.7832040752	 0.073729
H	-1.3602188657	-3.629467764	 1.7162388618	 0.076788
H	-1.7656164012	-1.4813390298	 3.3557085092	 0.093961
H	-0.2326137126	-1.0423666979	 2.5563939338	 0.085577
H	-2.6855212488	 0.3117712238	 1.7148307638	 0.062238
H	-4.785708666	-1.8288035961	 0.1283270105	 0.118715
H	-4.2386472743	-3.4715383437	 0.4862818887	 0.120644
H	-4.7245119996	-2.3958617325	 1.8029239832	 0.118519
75.2111	127.5899	172.4445	212.5828	223.7739	283.3267	303.4237	359.3571	495.362	530.0951	626.2646	686.4947	730.6721	763.9415	813.1504	861.738	884.2595	897.9445	923.363	944.0355	969.6402	1003.1724	1012.5998	1020.0139	1043.414	1062.2451	1090.7962	1110.8205	1127.2447	1133.5685	1168.3143	1177.0428	1197.1204	1227.6326	1249.5914	1282.5187	1290.7087	1323.1706	1344.6822	1403.9277	1410.8376	1413.3398	1460.7542	1483.5348	1484.0827	1498.4983	1498.8111	1503.3665	1513.6578	3014.8753	3016.2761	3020.1571	3029.0201	3034.5135	3060.4394	3072.2613	3086.1307	3087.1419	3095.6725	3100.7198	3124.0514	3175.1664	3188.0606
CCC1C2C3CC1C23C	CC[C@H]1[C@H]2[C@H]3C[C@@H]1[C@@]23C	
InChI=1S/C9H14/c1-3-5-6-4-7-8(5)9(6,7)2/h5-8H,3-4H2,1-2H3	InChI=1S/C9H14/c1-3-5-6-4-7-8(5)9(6,7)2/h5-8H,3-4H2,1-2H3/t5-,6+,7-,8+,9-/m1/s1
