17
gdb 53756	3.8766	0.75898	0.67063	3.2522	79.2	-0.2417	-0.022	0.2197	1642.6664	0.134514	-417.972195	-417.962209	-417.961265	-418.010003	33.843	
N	-0.0237941186	 0.9608582741	 0.0705250754	-0.520917
C	-0.3231377798	-0.2784678305	 0.5560600005	 0.265713
O	 0.3691542143	-0.868580128	 1.3630901324	-0.334469
C	-1.5548706418	-0.8410410173	 0.020542086	 0.03024
C	-2.5668534037	-1.3549932729	-0.3901944543	 0.038302
C	-3.7824841709	-2.033608742	-0.8494184328	-0.285707
N	-4.0570160499	-3.3635208909	-0.2986794634	-0.07544
C	-2.9357086745	-4.2573303619	-0.0244331029	-0.22009
C	-3.7033604708	-3.636875172	 1.0911578842	-0.220093
H	 0.814768076	 1.4123287043	 0.3967302161	 0.267349
H	-0.6140469436	 1.4257043027	-0.5964107069	 0.266937
H	-4.6490704338	-1.3986134286	-0.626066374	 0.143491
H	-3.7436106504	-2.1303798329	-1.9417534877	 0.143472
H	-3.0963546494	-5.2955764028	-0.2995844974	 0.118134
H	-1.9266429647	-3.8844091892	-0.183879237	 0.132449
H	-3.1932633646	-2.8606626486	 1.656844865	 0.132496
H	-4.4368214639	-4.2121515736	 1.6484380069	 0.118134
15.6451	58.2468	59.593	77.1408	160.5947	167.0652	333.2723	357.7637	375.863	419.4283	539.1144	566.3737	629.2322	723.521	755.2725	771.6675	827.9772	871.1724	981.5084	1021.7598	1055.0291	1062.4172	1087.7013	1121.0321	1128.1573	1175.0847	1186.6213	1286.5699	1311.7166	1347.5095	1358.4305	1458.2373	1486.3022	1514.9875	1607.7746	1772.8776	2331.3371	3024.6337	3056.3006	3107.059	3109.6384	3189.5436	3203.0371	3604.1397	3746.6406
NC(=O)C#CCN1CC1	NC(=O)C#CCN1CC1	
InChI=1S/C6H8N2O/c7-6(9)2-1-3-8-4-5-8/h3-5H2,(H2,7,9)	InChI=1S/C6H8N2O/c7-6(9)2-1-3-8-4-5-8/h3-5H2,(H2,7,9)
