16
gdb 61386	3.60226	0.82978	0.78526	3.1115	68.35	-0.2475	-0.1133	0.1343	1450.3143	0.120832	-475.055364	-475.045559	-475.044614	-475.091735	32.674	
C	-0.466029923	 1.4381420969	 0.0379995409	-0.356554
N	-0.0626940961	 0.0395751131	 0.048362899	-0.017771
C	-0.2079585482	-0.7177457222	 1.2608492399	-0.307402
C	-1.6551493	-1.0400595178	 1.6226834677	 0.288612
O	-2.6148832779	-0.7368430026	 0.9582471419	-0.257959
C	-1.8698556061	-1.8084517582	 2.9337118513	 0.089653
O	-0.9648503551	-2.1408525686	 3.6529555469	-0.212704
C	 0.4270389049	-0.5407834896	-1.0893373748	 0.161487
O	 0.5724468395	 0.0141626389	-2.1548517976	-0.331709
H	 0.0722163897	 1.9962057438	 0.8134913027	 0.12245
H	-0.2142835301	 1.8426905721	-0.9420990781	 0.173232
H	-1.5422539396	 1.5359455014	 0.2062011689	 0.147586
H	 0.333916616	-1.6679695199	 1.1786716461	 0.157936
H	 0.2476757431	-0.199048575	 2.1165812052	 0.150136
H	-2.9379970274	-2.026083862	 3.1419153332	 0.12038
H	 0.6928775203	-1.6039239504	-0.9225203634	 0.072629
34.8433	53.5929	119.6612	132.5706	147.5525	191.6649	280.2668	325.0431	347.7477	379.5475	448.7034	507.0844	575.2963	752.5801	814.5828	863.7146	887.1803	1025.7308	1039.7311	1099.9057	1154.0311	1166.787	1217.4772	1290.0094	1361.3545	1382.8931	1417.0096	1432.43	1442.4068	1452.19	1495.969	1521.7657	1804.5624	1819.725	1821.0417	2929.4329	2933.9173	3014.8647	3030.1289	3064.3523	3097.8859	3161.8918
CN(CC(=O)C=O)C=O	CN(CC(=O)C=O)C=O	
InChI=1S/C5H7NO3/c1-6(4-8)2-5(9)3-7/h3-4H,2H2,1H3	InChI=1S/C5H7NO3/c1-6(4-8)2-5(9)3-7/h3-4H,2H2,1H3
