18
gdb 45542	4.23409	1.23285	1.00706	4.7072	79.02	-0.239	-0.0242	0.2148	1162.6868	0.151105	-402.012642	-402.005367	-402.004423	-402.044411	28.857	
O	 0.021575581	-0.0459855765	-0.1534453474	-0.381008
C	 0.0083551026	 1.1609157818	-0.0559967201	 0.416054
N	-1.1358212241	 1.9570478116	 0.043605654	-0.361162
C	-0.812621931	 3.3577198003	-0.077082367	-0.025261
C	-1.184108737	 4.3664622524	 1.02647818	-0.238262
C	-0.1173663709	 5.4748833144	 0.8243299106	-0.208207
C	 1.1857924288	 4.7345562401	 0.3739521679	-0.32724
C	 0.6951167792	 3.3598307269	 0.0219521054	 0.37803
C	 1.1616925108	 2.1103237036	 0.0323544392	-0.395805
H	-2.0134238957	 1.5729235397	-0.2695753104	 0.245088
H	-1.1378806758	 3.7606789066	-1.0505465165	 0.094833
H	-2.2071124037	 4.7448370007	 0.9544488466	 0.100571
H	-1.0661306964	 3.8827280199	 2.0020242193	 0.116053
H	-0.4437725092	 6.1633067881	 0.0379834385	 0.109199
H	 0.0351898356	 6.0730871709	 1.7251846064	 0.110546
H	 1.6632688837	 5.239529612	-0.4728000469	 0.123396
H	 1.9328858983	 4.6891289661	 1.1719599715	 0.126915
H	 2.1778788939	 1.7629693414	 0.1559580586	 0.11626
101.3565	167.4179	206.1656	319.3419	362.9361	485.687	518.6074	530.7735	610.0063	663.5118	718.9729	751.1559	796.1254	841.9489	876.9466	892.2505	907.6061	922.1322	989.6172	998.7514	1056.4967	1120.2425	1136.5012	1150.737	1175.9755	1204.4989	1228.4953	1269.6313	1290.6379	1300.9015	1323.1543	1341.7784	1370.4994	1407.0388	1473.3119	1491.868	1505.0018	1705.4711	1822.2353	2967.2099	3044.2492	3052.1261	3055.5039	3081.4629	3102.548	3113.1623	3236.4459	3639.1182
O=C1NC2CCCC2=C1	O=C1N[C@H]2CCCC2=C1	
InChI=1S/C7H9NO/c9-7-4-5-2-1-3-6(5)8-7/h4,6H,1-3H2,(H,8,9)	InChI=1S/C7H9NO/c9-7-4-5-2-1-3-6(5)8-7/h4,6H,1-3H2,(H,8,9)/t6-/m0/s1
