25
gdb 93089	2.01275	1.43771	0.89667	0.228	94.49	-0.2327	0.0238	0.2566	1402.9695	0.230188	-352.381361	-352.371766	-352.370822	-352.41526	37.688	
C	-0.0104197589	 1.5830283673	 0.0498511337	-0.398488
C	-0.0192302041	 0.0479111019	-0.0036936481	 0.025775
C	 0.5437721465	-0.4338972295	-1.3598700694	-0.242568
C	 0.2697437009	-1.8791188532	-1.6974504236	-0.060273
C	 0.6222640616	-2.9290499438	-0.9571883707	-0.060272
C	 1.3614817399	-2.8693085156	 0.3572325308	-0.242568
C	 0.6794483437	-2.0330120586	 1.4634730584	 0.025775
C	 1.3116203572	-2.354495496	 2.8260199124	-0.398488
C	 0.7427617349	-0.5152350136	 1.210371942	-0.159948
H	 1.0117733909	 1.9726895506	-0.0300292504	 0.111063
H	-0.5937059484	 2.0134317447	-0.7708918258	 0.107915
H	-0.4319934832	 1.9513200198	 0.9909533985	 0.108373
H	-1.0631711015	-0.2890983704	 0.0611414368	 0.070844
H	 0.1279111525	 0.1978578548	-2.1522516211	 0.091237
H	 1.6287508008	-0.2451889405	-1.3683881227	 0.101178
H	-0.2618155566	-2.0627121065	-2.6286268448	 0.0808
H	 0.3624264073	-3.9219337681	-1.3177664932	 0.0808
H	 1.5004439332	-3.8899637075	 0.7298912583	 0.091237
H	 2.3757183557	-2.4699106635	 0.2001751324	 0.101178
H	-0.3779294076	-2.330002186	 1.5000879421	 0.070844
H	 2.3766853005	-2.0925233262	 2.8361627159	 0.111063
H	 0.8259406417	-1.795261067	 3.6324991727	 0.108373
H	 1.2309341756	-3.421033147	 3.0607022684	 0.107915
H	 1.8001084215	-0.2171626972	 1.1296178925	 0.083489
H	 0.3619287258	-0.0102293891	 2.1079902048	 0.084747
101.7731	114.6246	174.4462	219.8939	228.9549	275.7142	294.0702	346.0616	368.0926	415.155	447.3269	474.4613	490.1364	685.2291	699.9138	820.0266	853.7061	860.6313	896.4559	931.5945	936.7111	977.4948	978.2417	994.5454	1037.2865	1050.4946	1069.6654	1087.9103	1122.1963	1150.0291	1180.6438	1188.0838	1245.8134	1271.5171	1301.5042	1308.743	1322.7442	1333.7245	1369.4382	1376.0543	1376.9766	1398.431	1410.2587	1416.7392	1422.4717	1472.1855	1477.4818	1491.9921	1497.5278	1498.155	1500.9179	1502.0331	1728.7825	2983.7342	2987.2787	2987.7239	3008.4867	3011.0713	3023.1565	3024.4674	3035.6149	3056.9729	3058.6396	3088.8484	3089.7255	3097.5807	3098.2168	3134.5875	3159.6592
CC1CC=CCC(C)C1	C[C@H]1CC=CC[C@@H](C)C1	
InChI=1S/C9H16/c1-8-5-3-4-6-9(2)7-8/h3-4,8-9H,5-7H2,1-2H3	InChI=1S/C9H16/c1-8-5-3-4-6-9(2)7-8/h3-4,8-9H,5-7H2,1-2H3/t8-,9+
