20
gdb 98162	2.12451	1.35418	1.01331	2.9006	82.7	-0.241	0.0335	0.2745	1280.9026	0.167501	-403.157541	-403.146586	-403.145642	-403.193881	39.286	
C	-0.6592227623	 1.5702539424	-0.1871882498	-0.338004
N	-1.0365388155	 0.17207036	-0.2393244018	-0.342416
C	-0.2378969172	-0.8160801648	 0.2295047908	 0.459028
O	 0.8572430185	-0.6269092289	 0.7318522939	-0.399221
C	-0.7835664212	-2.2707601413	 0.1032332868	-0.092847
C	 0.236352693	-3.067926981	-0.7467499688	-0.402693
C	-0.8473383358	-2.85921216	 1.5342852221	-0.402688
C	-2.1066352444	-2.3348836608	-0.5194440767	 0.327267
C	-3.194767024	-2.4008815116	-1.0303326384	-0.461875
H	-0.611280441	 2.0059357491	-1.191365777	 0.126745
H	-1.3696071467	 2.1510114335	 0.4116534756	 0.126747
H	 0.327188051	 1.6270655973	 0.274374958	 0.170463
H	-1.9247385158	-0.0918029735	-0.6365816427	 0.254144
H	 1.2272606252	-2.9632360302	-0.300702005	 0.144978
H	-0.0418091231	-4.124636014	-0.7768144221	 0.119869
H	 0.2711410887	-2.6916154214	-1.7727553443	 0.123344
H	-1.588726218	-2.3333980744	 2.1420540149	 0.123332
H	-1.1213606858	-3.9167175447	 1.4954872572	 0.119885
H	 0.1319216366	-2.7523288896	 2.0048750015	 0.144972
H	-4.154878992	-2.4716827362	-1.4792786841	 0.198971
33.6396	77.0377	134.9827	144.9376	185.0434	227.0083	240.1478	276.9471	277.0067	306.9138	353.2733	423.0321	495.3092	532.3519	564.4034	607.7188	624.7966	644.0158	765.9931	784.0335	873.7573	950.728	952.4824	1035.0541	1064.9637	1140.0953	1158.0601	1173.5947	1204.0331	1249.3717	1262.3381	1385.5149	1407.8234	1438.1123	1479.4762	1487.3902	1494.1974	1497.1279	1500.271	1508.9304	1570.3216	1771.3236	2219.9704	3028.0402	3046.3352	3049.043	3079.983	3119.9523	3122.4304	3140.2851	3143.8646	3153.2181	3497.437	3620.1978
CNC(=O)C(C)(C)C#C	CNC(=O)C(C)(C)C#C	
InChI=1S/C7H11NO/c1-5-7(2,3)6(9)8-4/h1H,2-4H3,(H,8,9)	InChI=1S/C7H11NO/c1-5-7(2,3)6(9)8-4/h1H,2-4H3,(H,8,9)
