14
gdb 131758	1.96197	1.69194	0.94447	1.5063	65.33	-0.2621	-0.0639	0.1982	1154.3626	0.100519	-473.818226	-473.810127	-473.809183	-473.851657	28.445	
O	 0.1660916984	 1.1605682083	-0.6727729391	-0.402945
C	-0.0086012949	 0.0069822756	 0.1339270915	-0.1825
C	-1.4137436249	-0.5249028273	 0.0684717497	 0.283026
N	-2.0527414278	-0.822943972	 1.1709396215	-0.194426
O	-3.3114349948	-1.2931128564	 0.7661159876	-0.157681
C	-3.3824683343	-1.2505409548	-0.5593799115	 0.039329
C	-2.2199657807	-0.7701186611	-1.0932995944	-0.022791
C	-1.922243886	-0.5642909602	-2.5163976992	 0.053417
O	-2.6915861956	-0.8557297808	-3.4053758164	-0.27205
H	-0.3674373521	 1.8702500702	-0.2991563206	 0.295327
H	 0.6864974145	-0.7392810875	-0.2647018785	 0.138778
H	 0.2556563142	 0.1798630069	 1.1846621159	 0.13296
H	-4.3057531546	-1.5814181135	-1.0093431731	 0.186159
H	-0.9359998815	-0.1070450073	-2.7248163634	 0.103396
70.3688	127.1161	144.3392	197.6121	256.6148	294.0069	366.331	412.2839	524.8476	616.6343	646.0189	741.8368	827.0838	881.5363	896.6476	940.1114	980.9157	1046.0184	1074.1406	1163.0041	1191.9258	1202.9804	1310.8863	1370.2898	1403.5232	1417.1166	1460.9466	1494.0145	1509.397	1611.8319	1787.4126	2954.8638	3032.0485	3083.5457	3272.928	3811.6819
OCC1=NOC=C1C=O	OCc1nocc1C=O	
InChI=1S/C5H5NO3/c7-1-4-3-9-6-5(4)2-8/h1,3,8H,2H2	InChI=1S/C5H5NO3/c7-1-4-3-9-6-5(4)2-8/h1,3,8H,2H2
