21
gdb 98689	3.3409	0.92799	0.86407	4.5775	82.63	-0.2366	0.0248	0.2614	1473.8876	0.180892	-420.422326	-420.411774	-420.410829	-420.45829	37.888	
C	-0.0116736409	 1.6011335161	 0.3913484288	-0.332835
N	-0.0802856718	 0.1542846309	 0.3629988703	-0.327958
C	-0.9745727326	-0.5248372038	-0.4197911175	 0.457017
O	-1.7784673117	 0.0361963918	-1.1427024022	-0.378055
C	-0.8429181713	-2.022733524	-0.3105160051	-0.199932
N	-2.0481386117	-2.826406237	-0.5870455874	-0.341737
C	-0.9042037419	-2.9522851054	-1.4938212835	 0.325236
C	-1.1324610971	-2.4229112842	-2.8943126874	-0.447819
C	-0.0623671398	-4.2125904585	-1.4186925727	-0.453115
H	-0.2053823568	 1.9910628897	 1.3970273015	 0.124157
H	 0.967831276	 1.9635141114	 0.0585291937	 0.122958
H	-0.7792432745	 1.9731703279	-0.2882636915	 0.17349
H	 0.551558496	-0.3698879373	 0.9443744115	 0.242526
H	-0.2004597081	-2.3600088511	 0.5029401527	 0.064918
H	-2.0844028798	-3.6113138182	 0.0597857961	 0.226632
H	-1.7490364076	-1.5255181969	-2.8669615118	 0.171436
H	-0.1781105513	-2.1865550239	-3.3782709757	 0.105584
H	-1.6350483973	-3.1856038687	-3.499926636	 0.109867
H	-0.5480572028	-5.0274575003	-1.9682212247	 0.125942
H	 0.9245818993	-4.0570958416	-1.8677841983	 0.124751
H	 0.0842382155	-4.541216147	-0.3841423509	 0.106937
45.5137	79.9581	117.1356	148.9584	189.5933	205.6401	251.2824	286.8699	333.4785	355.9245	389.4299	419.1941	448.966	475.5469	671.7649	728.9879	771.7599	839.6822	907.1276	934.2903	962.6882	972.9326	1024.9972	1045.6009	1080.763	1129.6474	1153.9649	1154.5177	1165.9416	1199.6738	1224.1611	1310.6664	1356.9516	1410.206	1420.3313	1435.8811	1456.7776	1480.7649	1487.0036	1493.1225	1500.5646	1504.9925	1510.1779	1558.9756	1778.917	3022.293	3024.7352	3032.5319	3075.3481	3086.6092	3090.5628	3094.6286	3097.5969	3153.1767	3164.696	3487.2713	3651.7272
CNC(=O)C1NC1(C)C	CNC(=O)[C@H]1NC1(C)C	
InChI=1S/C6H12N2O/c1-6(2)4(8-6)5(9)7-3/h4,8H,1-3H3,(H,7,9)	InChI=1S/C6H12N2O/c1-6(2)4(8-6)5(9)7-3/h4,8H,1-3H3,(H,7,9)/t4-/m1/s1
