25
gdb 119566	2.75946	0.99793	0.85463	0.2848	93.24	-0.2404	0.0818	0.3222	1525.4164	0.228543	-352.342223	-352.332178	-352.331234	-352.377266	38.275	
C	 0.1253573073	 1.6159777679	 0.0728622187	-0.380005
C	 0.1954345356	 0.086787429	 0.0741496825	-0.157533
C	 0.5463250318	-0.4994675371	-1.3029095133	-0.307359
C	 0.6416422755	-2.001838999	-1.3208636802	 0.390171
C	 1.893222217	-2.7372772098	-0.9132609513	-0.329086
C	 1.3649247438	-2.9235501584	-2.3089976606	-0.118513
C	 0.1950271477	-3.9118245265	-2.2923021911	-0.246824
C	-0.5710405696	-2.961981081	-1.3070590817	-0.024011
C	-1.0756821974	-3.5267432372	 0.0164477399	-0.411943
H	 1.0846746819	 2.0557403857	-0.2229119239	 0.112197
H	-0.6325500762	 1.9778702233	-0.6311076023	 0.112403
H	-0.1279004109	 2.0063673493	 1.0636034356	 0.109658
H	 0.9396483473	-0.2508273074	 0.806234478	 0.097611
H	-0.7664554047	-0.3222947891	 0.4084357954	 0.098705
H	-0.2060791432	-0.1712986248	-2.0348217041	 0.088258
H	 1.5024180441	-0.0749343014	-1.6396253844	 0.089517
H	 2.7784616726	-2.1135778683	-0.8293310904	 0.104286
H	 1.8689067169	-3.5606347716	-0.2026968066	 0.099762
H	 1.9500066843	-2.652644319	-3.1805669398	 0.079408
H	-0.3108254417	-4.018884312	-3.25454312	 0.09758
H	 0.4293533996	-4.9125173141	-1.9108227742	 0.08946
H	-1.4051927666	-2.4895080127	-1.8381594925	 0.066625
H	-0.2699973066	-3.9982653837	 0.5888304459	 0.11371
H	-1.5151132097	-2.7440848262	 0.6444808603	 0.114946
H	-1.8466926087	-4.2869537359	-0.15369149	 0.110977
69.2447	90.4934	105.5786	194.4806	213.0465	242.4942	260.1526	306.7975	327.887	365.6593	435.7316	504.4119	663.0208	703.9488	743.8301	806.8372	839.9986	870.2847	872.7634	902.0182	908.478	938.7858	974.7118	1015.3961	1026.9184	1046.068	1069.876	1078.0792	1092.3683	1105.5533	1123.3245	1158.8446	1184.4601	1227.122	1238.524	1258.262	1274.4692	1304.2708	1315.9181	1338.5998	1365.4398	1385.3209	1402.8416	1413.4429	1417.9977	1477.804	1483.6912	1491.1043	1495.0745	1495.9123	1500.0604	1507.5891	1510.0444	2995.7876	3022.1459	3026.6958	3027.5017	3028.3527	3033.5892	3034.4721	3057.6503	3089.8279	3094.4088	3097.2641	3099.9751	3101.0825	3104.5969	3170.7813	3189.4864
CCCC12CC1CC2C	CCC[C@]12C[C@H]1C[C@H]2C	
InChI=1S/C9H16/c1-3-4-9-6-8(9)5-7(9)2/h7-8H,3-6H2,1-2H3	InChI=1S/C9H16/c1-3-4-9-6-8(9)5-7(9)2/h7-8H,3-6H2,1-2H3/t7-,8-,9-/m1/s1
