19
gdb 37389	2.78331	2.1519	1.72657	1.4835	76.33	-0.2287	0.0766	0.3053	866.6139	0.163334	-385.832459	-385.826455	-385.825511	-385.862374	26.784	
C	-0.0408158983	 1.4961634948	 0.1738545299	-0.326129
C	 1.2889408422	 0.8020441402	-0.0512112059	-0.009487
C	-0.003118734	 0.0101237296	-0.0407509924	-0.001273
C	-0.1563872486	-0.7057932793	-1.3631931802	 0.037649
O	 1.0046025403	-1.6170402073	-1.3846610178	-0.295488
C	 1.6827795428	-0.6324495315	-2.1561085319	 0.134094
C	 1.9547839772	 0.7835139911	-1.4268199942	-0.102608
C	 1.0357956921	 1.4066423554	-2.5148407986	-0.259116
C	 0.3886758089	 0.0215575709	-2.660811195	-0.075518
H	-0.2494039573	 1.8150577069	 1.1896996863	 0.11037
H	-0.4594503018	 2.1534538175	-0.5756977854	 0.115411
H	 1.9528228089	 0.7175508642	 0.8017059629	 0.0859
H	-0.2200578144	-0.6253904047	 0.81244921	 0.092764
H	-1.0909515734	-1.2590059749	-1.4789202034	 0.077541
H	 2.4917690349	-1.0256941301	-2.77418513	 0.078585
H	 2.9882491013	 1.1295407641	-1.3878083394	 0.063325
H	 0.4490253734	 2.2931309979	-2.2751185495	 0.101108
H	 1.6036932977	 1.61549206	-3.4279475094	 0.099936
H	-0.1204227818	-0.2774882547	-3.5777083159	 0.072935
218.9271	342.0553	405.0768	474.8445	504.7569	574.4101	629.0914	705.2028	721.8577	782.1768	787.8374	815.7252	850.0534	868.2431	910.5711	941.0356	953.5407	979.9941	987.1618	1001.0233	1053.2947	1069.956	1080.0241	1090.0747	1108.1759	1112.5145	1122.1585	1133.4567	1199.049	1209.8223	1229.4221	1246.3285	1255.1225	1305.6724	1313.8935	1337.6674	1345.8204	1368.6854	1406.8331	1482.1437	1522.2581	3050.8448	3080.3954	3091.9383	3099.2053	3108.8051	3119.0953	3145.2996	3151.2495	3168.6935	3233.7012
C1C2C1C1OC3C2CC13	C1[C@H]2[C@@H]1[C@@H]1O[C@@H]3[C@H]2C[C@H]13	
InChI=1S/C8H10O/c1-3-4(1)7-6-2-5(3)8(6)9-7/h3-8H,1-2H2	InChI=1S/C8H10O/c1-3-4(1)7-6-2-5(3)8(6)9-7/h3-8H,1-2H2/t3-,4+,5-,6+,7-,8+/m0/s1
