20
gdb 73252	2.42796	1.72826	1.45337	1.9321	79.19	-0.2395	0.0283	0.2677	1016.1808	0.172725	-403.160181	-403.152242	-403.151298	-403.192334	31.371	
C	-0.0182635093	 1.5269092589	-0.0158602329	-0.442754
C	 0.0062895095	 0.0067347673	 0.0330897215	 0.302318
C	-1.3057712411	-0.7214074677	 0.4746643662	-0.23311
C	-0.4588773996	-1.6720439575	 1.3612523609	-0.247994
C	 0.73043145	-0.6795798511	 1.2377823791	-0.043428
C	 2.1111312082	-1.2011467052	 0.9014455273	-0.107293
O	 2.13658303	-1.8891503568	-0.3585430916	-0.223986
C	 1.3585742983	-1.3637710812	-1.3366830792	 0.112988
N	 0.4277150831	-0.5107726962	-1.2653573337	-0.29723
H	 0.9892640015	 1.9292568748	-0.1699802118	 0.112093
H	-0.6426532446	 1.868124968	-0.8471435395	 0.128418
H	-0.4152011811	 1.9415897023	 0.9165260568	 0.104294
H	-1.9483775949	-0.0639184238	 1.0672849141	 0.096053
H	-1.8903140311	-1.1635313943	-0.333946752	 0.107526
H	-0.8249872762	-1.8714084249	 2.3704580625	 0.097369
H	-0.249927246	-2.6274301028	 0.8726717343	 0.114079
H	 0.7959159529	-0.0153105841	 2.1050248385	 0.07181
H	 2.8264141979	-0.3688559058	 0.8459757052	 0.11098
H	 2.4800146353	-1.9211245117	 1.6376900128	 0.117063
H	 1.6313400074	-1.8040437783	-2.2949147286	 0.120806
105.469	169.0078	207.1839	251.01	313.3622	328.6924	368.7072	489.614	547.5079	604.0776	630.1023	708.2667	775.0013	839.2917	869.7359	883.768	903.6555	928.9933	955.9631	969.7637	989.9427	1041.4998	1075.7013	1134.8252	1145.5557	1173.0211	1185.6069	1204.8377	1247.7111	1253.57	1266.4192	1279.567	1325.3314	1354.3887	1397.9667	1402.6032	1420.1624	1474.7375	1483.44	1491.2106	1493.4246	1500.8716	1721.5094	3011.4117	3028.4184	3058.0335	3061.4235	3064.9709	3084.7877	3096.1043	3110.5525	3112.3974	3128.1002	3148.3056
CC12CCC1COC=N2	C[C@]12CC[C@H]1COC=N2	
InChI=1S/C7H11NO/c1-7-3-2-6(7)4-9-5-8-7/h5-6H,2-4H2,1H3	InChI=1S/C7H11NO/c1-7-3-2-6(7)4-9-5-8-7/h5-6H,2-4H2,1H3/t6-,7-/m0/s1
