19
gdb 63912	3.00507	1.38686	1.23902	2.185	76.01	-0.2487	-0.0109	0.2378	1085.8272	0.158793	-423.016206	-423.007811	-423.006867	-423.048848	33.009	
C	 0.1243399235	 1.5510494274	-0.0043976747	-0.42758
C	-0.0347033498	 0.0267418518	 0.0064023305	 0.31738
O	-1.435547868	-0.3115919245	-0.0067556113	-0.467554
C	 0.5323536771	-0.5875704031	-1.2852337746	-0.238445
C	 0.7111198465	-2.0966681291	-1.2033642199	 0.030412
O	 2.0354500993	-2.5590761376	-0.8986986522	-0.261307
C	 1.0036284822	-2.7088963064	 0.0969541814	 0.017973
C	 1.0803658272	-1.8213431251	 1.2863197486	-0.091186
C	 0.6204365903	-0.5717095557	 1.2415995502	-0.102985
H	 1.1799663032	 1.8416803798	-0.0010423935	 0.12076
H	-0.3544878833	 1.974171381	-0.8920345342	 0.123318
H	-0.3495363585	 1.9918541595	 0.8802961504	 0.103907
H	-1.7906212953	-0.1371506593	 0.8715692056	 0.273648
H	-0.1471313686	-0.3276096514	-2.1023057359	 0.109921
H	 1.5067759756	-0.1408051914	-1.5033157394	 0.11595
H	 0.2011443487	-2.6951936748	-1.9561886707	 0.093687
H	 0.7188569857	-3.7444679109	 0.2806730694	 0.091587
H	 1.517648088	-2.2241133441	 2.1960832522	 0.099616
H	 0.6756264561	 0.065073974	 2.122694978	 0.090899
75.2953	178.1713	245.3241	260.3104	290.0409	308.141	362.279	399.7183	439.5372	508.2541	552.084	597.429	706.3009	755.6405	811.6958	827.7633	865.2477	911.7162	926.0684	961.5141	991.3195	1006.4308	1018.4737	1075.5666	1106.9907	1138.8	1156.3971	1169.9891	1213.438	1267.4406	1289.4235	1335.9749	1376.5296	1384.7448	1400.9102	1421.5965	1457.9474	1469.6933	1490.1154	1491.3315	1709.6471	3027.6904	3054.7845	3095.4579	3102.1203	3110.477	3116.1783	3125.8514	3138.5615	3169.2022	3806.2666
CC1(O)CC2OC2C=C1	C[C@@]1(O)C[C@H]2O[C@H]2C=C1	
InChI=1S/C7H10O2/c1-7(8)3-2-5-6(4-7)9-5/h2-3,5-6,8H,4H2,1H3	InChI=1S/C7H10O2/c1-7(8)3-2-5-6(4-7)9-5/h2-3,5-6,8H,4H2,1H3/t5-,6+,7-/m0/s1
