23
gdb 103593	2.69333	1.10396	0.94832	1.7643	81.77	-0.2499	0.068	0.318	1355.5331	0.202816	-425.419708	-425.409184	-425.40824	-425.45498	40.193	
C	 0.5255502981	 1.4269060054	 0.1689575623	-0.455156
C	-0.0372680498	 0.0197634197	 0.0087927957	 0.434518
O	-1.4435313499	 0.062672466	-0.1896272509	-0.475015
C	 0.7298703965	-0.898130037	-0.9993957467	-0.346465
C	 1.1832111443	-1.8162730484	 0.1802932271	 0.345109
C	 0.7836296047	-3.2843245484	 0.0480726823	-0.474306
C	 2.6811817984	-1.6728376303	 0.467728284	-0.119361
O	 3.0745535523	-2.2074707499	 1.7218360625	-0.423739
C	 0.2955157814	-0.9758402721	 1.1499943397	-0.309029
H	 1.6005382734	 1.4126585161	 0.3726003864	 0.120442
H	 0.3728984497	 2.0127293289	-0.7470853657	 0.102681
H	 0.0246707295	 1.9421633502	 0.9946216945	 0.125044
H	-1.6209802159	 0.6564835681	-0.9277768805	 0.270654
H	 0.0472940451	-1.3917024556	-1.6954480569	 0.095098
H	 1.5362347032	-0.4232341877	-1.568637553	 0.0871
H	 1.3429112956	-3.7799268593	-0.7553487522	 0.109492
H	 0.9632686282	-3.8351574367	 0.9798691424	 0.106119
H	-0.2825474658	-3.3803341557	-0.1782012962	 0.125044
H	 3.2564382486	-2.1236997546	-0.3588230276	 0.082512
H	 2.9551242916	-0.6129197717	 0.5075262751	 0.104244
H	 2.9573672196	-3.161465533	 1.6876500488	 0.284361
H	 0.8125147805	-0.5623059918	 2.0192168746	 0.105681
H	-0.6014955791	-1.4994002321	 1.4872345942	 0.104972
37.9738	101.5829	174.5091	235.5492	262.7042	274.6263	280.5898	296.484	305.6392	326.8576	371.8096	384.4269	439.4625	447.6357	508.7924	620.3039	733.859	835.5059	852.7664	890.0612	907.8823	919.1992	938.7274	968.6479	972.9309	998.3089	1069.506	1087.9576	1110.457	1132.2573	1158.032	1198.984	1233.049	1249.1806	1270.5821	1301.7943	1326.0856	1373.7472	1376.6867	1406.3876	1410.0834	1420.6447	1460.8193	1478.087	1488.3664	1491.0272	1495.1531	1499.3525	1510.903	2960.9884	3014.7287	3017.999	3040.2095	3064.1176	3067.0862	3075.2077	3086.9592	3099.18	3105.4439	3112.2193	3123.2116	3794.0898	3828.7212
CC1(O)CC(C)(CO)C1	C[C@@]1(O)C[C@@](C)(CO)C1	
InChI=1S/C7H14O2/c1-6(5-8)3-7(2,9)4-6/h8-9H,3-5H2,1-2H3	InChI=1S/C7H14O2/c1-6(5-8)3-7(2,9)4-6/h8-9H,3-5H2,1-2H3/t6-,7-
