14
gdb 15307	4.62099	1.10358	0.96632	2.8328	65.38	-0.2536	-0.0305	0.223	1148.2757	0.10374	-382.486223	-382.478024	-382.47708	-382.519932	28.481	
O	-0.5316702131	 0.2775676195	 0.0769586199	-0.235421
C	 0.0331858412	 1.3399225357	 0.0938726217	 0.159989
C	 1.4245980176	 1.5801745508	-0.4647309821	-0.321156
C	 1.4561594515	 2.7823051867	-1.3814133683	 0.054455
O	 1.2407093554	 4.0571664457	-0.7779426641	-0.239823
C	 2.537939811	 3.7945798144	-1.34106441	-0.149422
C	 3.6494468953	 3.6953985358	-0.4350823226	 0.338403
C	 4.5984984865	 3.6209493528	 0.2989946196	-0.426402
H	-0.4378765845	 2.2417169985	 0.542389268	 0.099098
H	 2.0996811832	 1.7633161834	 0.3808387344	 0.142613
H	 1.7564615698	 0.6793096794	-0.9889217025	 0.129154
H	 0.9465177112	 2.6556134919	-2.338022776	 0.112642
H	 2.7379239172	 4.3490807709	-2.2572366084	 0.124933
H	 5.4346438176	 3.5606097746	 0.9516915004	 0.210936
54.2707	69.9463	124.2965	185.5035	240.6087	329.1618	437.6104	493.8329	555.0632	595.947	637.8069	676.5159	780.2477	805.9043	856.8892	946.8178	987.9493	1055.6931	1075.635	1136.3144	1149.4004	1232.5754	1274.2576	1298.0936	1380.8724	1420.7016	1445.3979	1449.2114	1834.6969	2240.2443	2900.8489	3038.2052	3095.2728	3110.7538	3119.9331	3500.3136
O=CCC1OC1C#C	O=CC[C@H]1O[C@H]1C#C	
InChI=1S/C6H6O2/c1-2-5-6(8-5)3-4-7/h1,4-6H,3H2	InChI=1S/C6H6O2/c1-2-5-6(8-5)3-4-7/h1,4-6H,3H2/t5-,6+/m0/s1
