25
gdb 112861	2.06691	1.23226	0.83335	0.3056	96.18	-0.224	0.0339	0.2579	1513.5614	0.228478	-352.390251	-352.379946	-352.379001	-352.425295	39.028	
C	 1.0209498842	-0.2978087126	 1.2764569353	-0.382069
C	 0.1573843469	 0.1059622166	 0.0774846254	-0.185852
C	 0.7495083286	-0.3222567012	-1.2747956869	-0.060723
C	 0.8702681142	-1.8572177014	-1.4558171705	-0.227479
C	 0.6222933091	-2.1381539076	-2.9598065818	-0.012014
C	-0.1154026053	-3.453320913	-3.2348205146	-0.394408
C	-0.1188452545	-0.8943852693	-3.3927906638	-0.180051
C	-0.0624592549	 0.0925250562	-2.4964403272	 0.31836
C	-0.6315597416	 1.469749889	-2.6471103024	-0.497125
H	 1.1376584261	-1.3845149906	 1.340421631	 0.118939
H	 2.0238747133	 0.1382454424	 1.2033907934	 0.11175
H	 0.5772561493	 0.0437424216	 2.2168841173	 0.109171
H	-0.8457605357	-0.330037737	 0.180118425	 0.092291
H	 0.0217309689	 1.1945801511	 0.0860989335	 0.092175
H	 1.7478615542	 0.1415734791	-1.3537228743	 0.067525
H	 1.823159115	-2.2599356944	-1.101417976	 0.091648
H	 0.0778179352	-2.344206425	-0.8718710743	 0.092615
H	 1.586945352	-2.1806935538	-3.4908935654	 0.072048
H	-1.093824913	-3.4612242675	-2.7415492641	 0.111903
H	-0.2796406495	-3.6013921832	-4.3077461248	 0.108702
H	 0.456053823	-4.3116127741	-2.8647406855	 0.109485
H	-0.6027887557	-0.8177746586	-4.3626005584	 0.076675
H	-1.1191505404	 1.5957667149	-3.61771506	 0.119323
H	-1.3695644931	 1.6928947557	-1.8671037632	 0.126279
H	 0.1517069636	 2.2346092425	-2.5597020677	 0.12083
77.5916	103.0008	146.0385	175.8927	187.3738	233.2108	242.6263	270.3192	325.6528	356.9519	433.9263	452.9077	532.1611	587.3906	612.2047	772.7348	809.6213	854.1269	867.0276	916.1511	933.8534	955.7034	973.9726	1012.3725	1028.5219	1046.7314	1063.2055	1080.6696	1122.9801	1134.6449	1168.5313	1191.2662	1234.7747	1270.9076	1280.2351	1304.2028	1319.9802	1332.2578	1348.2448	1369.2083	1379.31	1406.4757	1410.8303	1412.9113	1476.9376	1485.7745	1488.623	1493.1395	1497.3307	1499.5891	1502.0117	1508.0014	1719.7122	2950.6979	2965.5616	3012.2214	3015.1079	3020.0384	3025.1019	3030.6219	3049.2448	3062.0867	3086.1562	3093.2972	3095.4191	3096.5697	3104.3278	3107.1311	3166.9619
CCC1CC(C)C=C1C	CC[C@H]1C[C@@H](C)C=C1C	
InChI=1S/C9H16/c1-4-9-6-7(2)5-8(9)3/h5,7,9H,4,6H2,1-3H3	InChI=1S/C9H16/c1-4-9-6-7(2)5-8(9)3/h5,7,9H,4,6H2,1-3H3/t7-,9-/m0/s1
