18
gdb 69791	2.60909	1.86634	1.29616	3.3727	75.36	-0.2245	-0.0213	0.2032	1001.4737	0.148628	-401.938214	-401.930539	-401.929594	-401.970064	30.425	
C	 0.0283355671	 1.5659112818	 0.0037923584	-0.488907
C	 0.1237958608	 0.0667266564	 0.0390262711	 0.200435
N	-0.8039911721	-0.7424970331	 0.880234893	-0.367264
C	 0.6469121078	-0.771266087	 1.1498764067	-0.104105
C	 1.3481781118	-2.0060855596	 0.587639726	-0.042896
C	 0.478074175	-3.0188113612	-0.0878989263	-0.288726
C	 1.1817005664	-1.9554016915	-0.9231216423	-0.157323
C	 0.4914045567	-0.6590332911	-1.2552452815	 0.394113
O	 0.3859511562	-0.1742419389	-2.3557104745	-0.330543
H	 0.9577107248	 2.01051201	-0.3649157304	 0.135366
H	-0.7745588784	 1.8821194445	-0.6693105073	 0.144545
H	-0.1720191536	 1.9687672009	 1.0020999443	 0.109702
H	-1.2599187145	-0.1120318476	 1.5377579904	 0.23216
H	 1.0205521206	-0.3272025251	 2.0661675585	 0.092533
H	 2.2865088809	-2.3043442189	 1.0390400065	 0.093526
H	 0.8734682922	-4.0220167289	-0.2031833384	 0.11633
H	-0.5915053833	-2.9489352789	 0.0555378737	 0.153615
H	 1.9455623518	-2.2791210217	-1.6194575278	 0.107439
124.6539	169.8382	209.8249	254.2043	291.956	373.967	462.6249	533.7992	577.2501	617.8575	663.7858	762.8119	799.8325	807.8748	816.0453	868.8309	928.5936	950.8274	969.0945	978.0597	1009.9597	1041.1214	1083.5691	1088.7228	1101.704	1121.3801	1145.933	1166.2024	1195.5892	1290.4031	1332.0865	1355.0742	1361.7	1410.4445	1430.3189	1473.0472	1477.0939	1496.462	1825.6286	3034.832	3106.6217	3108.768	3147.0678	3168.7501	3184.7173	3192.4212	3248.5856	3480.1064
CC12NC1C1CC1C2=O	C[C@]12N[C@H]1[C@H]1C[C@H]1C2=O	
InChI=1S/C7H9NO/c1-7-5(8-7)3-2-4(3)6(7)9/h3-5,8H,2H2,1H3	InChI=1S/C7H9NO/c1-7-5(8-7)3-2-4(3)6(7)9/h3-5,8H,2H2,1H3/t3-,4+,5-,7-/m0/s1
