17
gdb 95601	2.27848	1.71267	1.0294	3.6443	69.47	-0.2381	-0.0846	0.1535	1129.2062	0.134662	-458.991978	-458.983394	-458.98245	-459.025966	31.293	
C	-0.011913682	 1.5324899325	-0.0562226469	-0.403063
C	 0.0489688366	 0.0147693615	-0.0150213891	 0.009066
O	 0.7490099116	-0.4465842581	-1.1638002734	-0.251026
C	 0.7955371212	-1.8568453607	-1.2597922645	-0.099904
C	 1.7072747513	-2.4373750175	-0.1709420233	-0.311791
C	 1.2906928277	-1.9581548768	 1.2059186725	 0.303278
O	 1.3822223455	-2.6138443933	 2.2112458286	-0.268451
C	 0.6945101634	-0.5168502985	 1.2750266196	 0.286787
O	 0.7142924616	 0.1012855825	 2.3072875166	-0.272211
H	 0.9983591503	 1.9488834341	-0.0874746892	 0.134987
H	-0.5553880073	 1.8605991274	-0.9448030075	 0.127118
H	-0.5120381286	 1.9083664895	 0.8377276989	 0.144863
H	-0.9785215512	-0.4002848231	-0.025907228	 0.098113
H	-0.2184879631	-2.2826246034	-1.1839643495	 0.102316
H	 1.1842120767	-2.0913382003	-2.2539617483	 0.124239
H	 1.7433224018	-3.5307054864	-0.1823046873	 0.130453
H	 2.7256151445	-2.0639909696	-0.3468991091	 0.145225
35.7854	98.19	186.6313	241.7644	287.8741	326.7893	339.6912	362.1696	427.5353	473.0482	551.1376	634.8676	664.2122	751.5434	856.6075	891.5735	930.1604	1001.2014	1021.4377	1082.1195	1101.1322	1122.7018	1162.1139	1188.6754	1236.736	1275.7369	1329.6941	1340.401	1355.5933	1403.0754	1404.2504	1443.2563	1481.0739	1494.0024	1506.0161	1814.7777	1831.1173	2910.7714	2975.8612	3026.248	3059.7757	3096.7757	3099.0869	3134.7064	3151.6934
CC1OCCC(=O)C1=O	C[C@H]1OCCC(=O)C1=O	
InChI=1S/C6H8O3/c1-4-6(8)5(7)2-3-9-4/h4H,2-3H2,1H3	InChI=1S/C6H8O3/c1-4-6(8)5(7)2-3-9-4/h4H,2-3H2,1H3/t4-/m1/s1
