14
gdb 42583	3.08696	2.21546	1.71733	4.612	63.08	-0.239	-0.0251	0.2139	782.8497	0.102841	-436.628005	-436.622362	-436.621418	-436.657954	23.34	
O	-0.0475320712	 0.018099233	 0.0616006384	-0.304167
C	-0.0850183931	 1.2103989603	 0.0180568778	 0.455276
C	-1.3092236578	 2.1251652669	 0.0349379847	-0.05271
O	-1.4313297217	 2.5407038871	-1.3663712681	-0.298391
C	-0.569469972	 3.6560434245	-1.0721965178	 0.100221
C	 0.9313522745	 3.2954416774	-0.8975902035	-0.068768
C	 0.803863542	 3.326454182	 0.5874122645	-0.08771
C	-0.7392191082	 3.503190631	 0.4543116633	-0.114875
N	 1.0945485175	 2.0517663995	-0.0826160266	-0.172667
H	-2.2282781309	 1.701593167	 0.4373923887	 0.108723
H	-0.7884638097	 4.5533647012	-1.652101223	 0.101327
H	 1.759206815	 3.5407461484	-1.5519457882	 0.117132
H	 1.4680464079	 3.6803776642	 1.3647562047	 0.116438
H	-1.3068506523	 4.1829488775	 1.0809811151	 0.100172
144.3807	327.5626	451.8149	494.6862	585.7505	676.022	707.0529	769.3551	785.9419	812.1832	847.8852	859.4809	879.9767	909.3068	925.0203	944.0925	969.3282	989.816	1015.5295	1053.1234	1099.5224	1145.4163	1188.2428	1199.5728	1225.9112	1248.2338	1259.666	1273.7123	1312.7703	1335.7788	1887.8694	3113.2796	3132.1308	3176.221	3187.3809	3208.1673
O=C1C2OC3C4C(C23)N14	O=C1[C@@H]2O[C@@H]3[C@H]4[C@@H]([C@H]23)N14	
InChI=1S/C6H5NO2/c8-6-5-1-2-3(7(2)6)4(1)9-5/h1-5H	InChI=1S/C6H5NO2/c8-6-5-1-2-3(7(2)6)4(1)9-5/h1-5H/t1-,2+,3+,4-,5+,7?/m0/s1
