17
gdb 102365	1.65868	1.52558	1.20022	3.5195	70.93	-0.255	-0.037	0.2181	1151.7148	0.132197	-458.919868	-458.909705	-458.908761	-458.95537	36.065	
O	 0.2608776699	 1.0942180562	-0.3476834905	-0.432493
C	-0.0213095597	-0.2252782883	 0.0945756859	-0.11214
C	-1.5369180942	-0.5362428707	 0.0682816425	-0.080277
C	-2.1750342924	-0.0030222709	-1.2654436608	-0.085237
O	-1.3845393513	-0.2881023972	-2.3893988179	-0.418473
C	-1.7639528665	-2.0537192362	 0.1425608552	 0.15535
O	-0.8865827385	-2.8727195298	 0.1327314863	-0.245032
C	-2.2349047565	 0.0819425445	 1.1905503308	 0.300685
C	-2.8140975603	 0.6076181833	 2.1049457812	-0.476842
H	-0.1208552571	 1.7101852278	 0.2877763372	 0.294284
H	 0.4785392805	-0.899859963	-0.6009384738	 0.143979
H	 0.3802074797	-0.415761858	 1.0963515706	 0.117727
H	-3.1473985253	-0.4841365377	-1.4154892184	 0.122086
H	-2.3527416311	 1.071909684	-1.1452399428	 0.107336
H	-0.6307171722	 0.3135801011	-2.3499164814	 0.302806
H	-2.8369285523	-2.340231777	 0.2001759685	 0.097602
H	-3.3245689927	 1.0622736019	 2.9183503374	 0.20864
72.4241	77.4579	90.3752	139.2137	178.675	212.2458	272.9165	299.6516	375.1501	420.7509	465.4683	494.6309	532.4575	567.8642	631.0312	652.0184	663.1448	745.751	877.1263	889.1392	1003.3472	1062.0486	1077.9633	1098.4451	1129.3081	1142.9636	1248.4884	1263.485	1373.9634	1391.7543	1408.8798	1417.1238	1427.811	1494.3301	1501.0783	1833.8197	2222.6003	2894.2088	3029.3623	3044.8801	3082.3404	3137.4009	3497.3718	3786.0606	3801.1953
OCC(CO)(C=O)C#C	OCC(CO)(C=O)C#C	
InChI=1S/C6H8O3/c1-2-6(3-7,4-8)5-9/h1,3,8-9H,4-5H2	InChI=1S/C6H8O3/c1-2-6(3-7,4-8)5-9/h1,3,8-9H,4-5H2
