18
gdb 105976	4.51205	1.17255	1.16948	1.0183	75.66	-0.2077	0.0697	0.2774	1139.9677	0.145609	-401.814591	-401.806343	-401.805398	-401.847301	31.319	
C	-0.268635289	 1.3210980113	 0.0653164024	-0.258157
O	 0.2100112324	-0.013337832	-0.0709528075	-0.275861
C	 0.7944118187	-0.5000444898	 1.0537202885	 0.434966
C	 0.2386799367	-0.954315562	 2.3851584608	-0.110985
C	 0.90803442	-1.9607847744	 1.4629871464	-0.26572
C	 2.2443826924	-1.6329766645	 2.1881632967	 0.37288
C	 3.3956154728	-2.4770111365	 2.6158164114	-0.52264
C	 2.1439294758	-0.2008745896	 1.7874155713	-0.219524
N	 1.5505159794	-0.6508359198	 3.101785311	-0.211087
H	 0.5511573679	 2.0188898076	 0.2804002032	 0.120668
H	-0.7276531484	 1.589723178	-0.8878946641	 0.131867
H	-1.0140292933	 1.3936144329	 0.8672960645	 0.120097
H	-0.7414085453	-0.9330347108	 2.8445503984	 0.100554
H	 0.5165389689	-2.8356181345	 0.9636503833	 0.10142
H	 3.9334855957	-2.8799144652	 1.7505063728	 0.124391
H	 4.0948678955	-1.8792172925	 3.2088337689	 0.13423
H	 3.0598280224	-3.3179628289	 3.2326131364	 0.128191
H	 2.8882977375	 0.5859417106	 1.7314811157	 0.09471
92.1593	155.1384	160.9561	205.5357	240.3014	279.1861	387.5698	423.1663	577.3893	624.1091	679.9432	748.016	776.8853	812.878	844.4206	871.3211	899.1837	937.0209	972.8872	989.9133	1012.0513	1033.1176	1045.079	1081.2664	1096.1354	1136.1206	1177.7638	1184.0114	1213.1473	1256.6723	1273.8617	1392.3503	1420.6432	1437.2446	1477.9589	1486.6115	1490.4697	1501.2815	1504.7052	3006.7189	3028.0408	3066.8671	3092.6506	3108.4411	3132.6941	3169.3268	3190.3961	3221.5545
COC12C3C1C1(C)C2N31	CO[C@@]12[C@H]3[C@@H]1[C@@]1(C)[C@@H]2N31	
InChI=1S/C7H9NO/c1-6-3-4-7(3,9-2)5(6)8(4)6/h3-5H,1-2H3	InChI=1S/C7H9NO/c1-6-3-4-7(3,9-2)5(6)8(4)6/h3-5H,1-2H3/t3-,4-,5+,6+,7-,8?/m1/s1
