19
gdb 85242	2.66678	1.57193	1.14792	4.3593	75.48	-0.2589	0.0147	0.2737	1114.9611	0.159179	-423.076028	-423.067486	-423.066542	-423.108853	32.579	
C	 0.0827474103	 1.5578194178	-0.0818830377	-0.397655
C	 0.0063559526	 0.0487443173	 0.0828394039	 0.109643
O	 0.5635258817	-0.5894591879	-1.0903975389	-0.245581
C	 1.2945613244	-1.6964719522	-0.7626495073	 0.406341
O	 1.6536459761	-2.493104869	-1.5819986047	-0.350763
C	 1.5434767567	-1.7216630891	 0.7186942317	 0.17706
C	 1.7442166394	-3.0623227195	 1.3759155974	-0.482273
C	 2.2640325182	-0.4687674124	 1.1932403525	-0.327016
C	 0.7675307691	-0.5444842732	 1.2606712264	-0.113903
H	 1.1206911385	 1.8974208056	-0.1308911264	 0.127416
H	-0.4272630664	 1.867392929	-0.9977794096	 0.135552
H	-0.4031487177	 2.0491985487	 0.7668842203	 0.121926
H	-1.0464275862	-0.25819533	 0.1419739774	 0.09419
H	 2.5815109911	-3.5882359188	 0.9080988291	 0.146317
H	 1.9594415115	-2.9476808369	 2.4420791762	 0.115449
H	 0.8565583183	-3.6944072683	 1.2718931511	 0.129018
H	 2.8070780096	-0.5659141968	 2.1270947977	 0.122658
H	 2.7381448359	 0.1776148262	 0.4620363235	 0.13114
H	 0.2720653269	-0.5857034004	 2.2233699674	 0.10048
130.4476	144.1961	176.0207	224.9071	226.8461	287.6449	293.0315	384.4848	499.1775	510.2185	575.652	678.1429	706.2357	780.7124	796.1544	856.396	892.4443	939.5062	976.6356	983.6682	1028.9848	1035.0794	1071.7074	1095.4946	1116.922	1122.7933	1147.376	1166.4562	1281.817	1318.8586	1359.5413	1382.0757	1403.8613	1413.4802	1423.6433	1484.2626	1485.0263	1491.1975	1499.0883	1500.0979	1872.606	3016.0675	3040.3805	3046.4744	3107.0991	3118.0005	3119.2862	3128.4145	3131.0803	3183.8253	3217.9914
CC1OC(=O)C2(C)CC12	C[C@H]1OC(=O)[C@@]2(C)C[C@@H]12	
InChI=1S/C7H10O2/c1-4-5-3-7(5,2)6(8)9-4/h4-5H,3H2,1-2H3	InChI=1S/C7H10O2/c1-4-5-3-7(5,2)6(8)9-4/h4-5H,3H2,1-2H3/t4-,5+,7+/m1/s1
