16
gdb 20727	6.55592	1.20229	1.05578	1.8578	67.86	-0.2344	0.0196	0.254	1104.3734	0.131766	-379.945913	-379.937902	-379.936958	-379.978813	28.662	
C	 0.2037256492	 1.4918584894	-0.3309643401	-0.48949
C	 0.081442385	 0.0505541947	 0.0522380169	 0.355893
N	-0.6787142145	-0.7779702917	-0.6630947328	-0.284769
N	-0.5514672822	-1.9719533582	-0.0496627072	-0.235915
C	 0.2516220336	-1.9332212023	 1.0432004862	 0.350341
C	 0.5228048243	-3.168795377	 1.8448579433	-0.175902
O	-0.6158053098	-4.0199434186	 1.9222870984	-0.414753
C	 0.6849797921	-0.6267718348	 1.1417001545	-0.399173
H	 1.2408071652	 1.7591540541	-0.5621597383	 0.126922
H	-0.4076845422	 1.6940262748	-1.2128702618	 0.13925
H	-0.1279860135	 2.1521374021	 0.4779467386	 0.125548
H	-1.068666522	-2.7690674815	-0.3807214112	 0.273644
H	 1.2995842799	-3.7795645261	 1.3697843234	 0.132372
H	 0.8993989835	-2.8859961542	 2.8376803117	 0.111148
H	-1.3107013999	-3.5335231287	 2.3793445211	 0.288378
H	 1.3447559314	-0.2189421321	 1.8916317373	 0.096506
59.7251	95.1483	145.1525	222.3677	293.7488	348.3506	372.0622	460.0062	547.0397	631.6485	689.3031	704.0821	762.2605	806.7122	975.7061	986.1807	1009.6942	1033.7627	1066.028	1066.4738	1160.4875	1183.0047	1201.2817	1295.5846	1357.671	1406.9556	1409.6502	1430.6607	1476.0615	1484.43	1486.4326	1499.4752	1512.6551	1609.252	3010.1271	3034.4383	3056.2973	3084.7404	3132.1683	3253.5672	3673.2492	3804.77
CC1=NNC(CO)=C1	Cc1n[nH]c(CO)c1	
InChI=1S/C5H8N2O/c1-4-2-5(3-8)7-6-4/h2,8H,3H2,1H3,(H,6,7)	InChI=1S/C5H8N2O/c1-4-2-5(3-8)7-6-4/h2,8H,3H2,1H3,(H,6,7)
