18
gdb 124848	3.56908	1.30389	1.03951	3.1361	79.26	-0.238	-0.0062	0.2318	1159.2038	0.148152	-401.940895	-401.932907	-401.931963	-401.973645	30.628	
C	 0.0823348572	 1.5066764785	-0.1297710831	-0.478061
C	 0.0281476768	-0.0064495359	-0.0528716832	 0.220483
C	 1.3363102958	-0.7831612621	-0.1034616142	-0.29368
C	 0.5816673356	-0.6905699731	 1.1891682797	-0.293693
C	-1.1488821567	-0.614329639	-0.6966621453	 0.429459
C	-2.2206663036	-0.0907269851	-1.3599483205	-0.372072
C	-2.9802534389	-1.2333716974	-1.7220067025	 0.032053
N	-2.4289705667	-2.3505418391	-1.3203191974	-0.144764
O	-1.2586098663	-1.9571247753	-0.6648251493	-0.228186
H	 0.9804827593	 1.8803841545	 0.3693217577	 0.119646
H	 0.1083268264	 1.8523563423	-1.1688344264	 0.126289
H	-0.786069984	 1.9619947181	 0.3584637489	 0.126284
H	 1.3319993925	-1.732607965	-0.625157617	 0.137455
H	 2.244332209	-0.2012506741	-0.2187247141	 0.117147
H	 0.9661312688	-0.0444695277	 1.9709135557	 0.117151
H	 0.0678181189	-1.5774707551	 1.5398912299	 0.137442
H	-2.436362004	 0.9444490745	-1.5602191294	 0.116997
H	-3.9144897401	-1.2791723689	-2.2644206394	 0.130049
61.6218	164.0834	182.4238	230.2218	305.1011	321.0916	430.0853	436.8498	533.6545	642.8048	730.3549	790.1531	799.5901	831.248	843.7061	917.7281	918.3224	942.2375	953.7196	963.0932	999.6026	1048.9561	1058.2726	1075.6004	1086.0539	1120.2976	1166.0635	1198.9093	1229.3651	1305.2093	1340.7294	1375.6269	1418.4286	1462.4736	1488.3358	1493.9054	1503.4458	1527.0146	1626.0466	3031.4652	3094.1994	3112.5272	3137.5156	3140.6169	3224.9529	3238.6045	3241.2105	3287.4979
CC1(CC1)C1=CC=NO1	CC1(CC1)c1ccno1	
InChI=1S/C7H9NO/c1-7(3-4-7)6-2-5-8-9-6/h2,5H,3-4H2,1H3	InChI=1S/C7H9NO/c1-7(3-4-7)6-2-5-8-9-6/h2,5H,3-4H2,1H3
