17
gdb 34012	3.46892	1.33439	1.13259	4.2506	79.21	-0.2264	-0.0049	0.2216	1085.298	0.138806	-380.872571	-380.86511	-380.864166	-380.90428	29.579	
N	-0.0462587725	-1.1364423005	-0.567795864	-0.350409
C	-0.0367450149	-0.0160610173	-0.2744425558	 0.203699
C	-0.0050021838	 1.370258632	 0.088385639	 0.111474
C	 0.3991044695	 2.3785916526	-1.0045963571	-0.318716
C	 1.3743812285	 2.1159218491	 0.0807723133	-0.019839
N	 1.6516250499	 3.0613793338	 1.1127557901	-0.285926
C	 0.4857698792	 3.8221157284	 1.5941146638	-0.246807
C	-0.7239661097	 2.9524487973	 1.8408768688	-0.097897
C	-0.929172476	 1.8210201366	 1.1619022512	-0.096233
H	 0.6202009144	 1.9704189543	-1.9837660287	 0.143747
H	-0.1659085904	 3.3027645699	-1.0158778044	 0.137831
H	 2.2300825211	 1.498163902	-0.1687452711	 0.126228
H	 2.0596837529	 2.5627672717	 1.8976555146	 0.233088
H	 0.7847746602	 4.331047682	 2.5155984533	 0.119749
H	 0.264983792	 4.621587081	 0.8740087529	 0.126522
H	-1.4224575652	 3.2554727621	 2.6148503928	 0.101525
H	-1.7747982951	 1.178568325	 1.3840712411	 0.111965
130.0916	153.3215	239.604	262.4508	404.5521	417.7936	462.8614	550.1392	568.1884	584.603	648.5228	695.6802	759.2973	774.6382	806.5034	909.9958	922.6745	946.2663	972.5285	987.9791	1005.3918	1053.3978	1092.9778	1131.1965	1187.6275	1224.8648	1243.2583	1267.284	1286.5768	1353.9707	1410.8476	1424.2825	1473.7944	1495.5204	1511.5793	1697.819	2339.9233	3013.531	3077.6105	3149.3343	3168.8429	3177.7813	3191.3334	3240.2629	3511.9775
N#CC12CC1NCC=C2	N#C[C@]12C[C@H]1NCC=C2	
InChI=1S/C7H8N2/c8-5-7-2-1-3-9-6(7)4-7/h1-2,6,9H,3-4H2	InChI=1S/C7H8N2/c8-5-7-2-1-3-9-6(7)4-7/h1-2,6,9H,3-4H2/t6-,7+/m1/s1
