17
gdb 54131	3.28894	1.13117	0.99221	3.5001	69.76	-0.2497	-0.0302	0.2195	1211.2748	0.131617	-458.986984	-458.977588	-458.976644	-459.022043	34.188	
C	-0.1965087717	 1.5501602914	 0.6240478551	-0.476931
C	 0.0742263377	 0.226042696	-0.0573232728	 0.319019
O	 1.1682562369	-0.0818265867	-0.4756393706	-0.307818
C	-1.0919994479	-0.7592610373	-0.176036044	 0.266958
O	-2.3539064539	-0.1836173084	 0.1008088308	-0.47872
C	-1.0727523059	-1.6662728922	-1.4493339838	-0.383642
C	-1.2558234779	-2.8752938895	-0.5232853297	 0.401528
O	-1.5900110929	-4.0089185956	-0.6917017212	-0.281642
C	-0.9312136437	-2.0344834761	 0.7218941608	-0.351224
H	 0.7420872736	 2.0897956588	 0.7524480418	 0.143247
H	-0.8857707012	 2.1530921503	 0.0222256113	 0.135368
H	-0.6912599411	 1.3949238809	 1.5875058787	 0.1531
H	-2.6347084676	 0.326722904	-0.6662035772	 0.285063
H	-1.8430242408	-1.4878157234	-2.2039304513	 0.123565
H	-0.081147198	-1.668523387	-1.9126646414	 0.158702
H	 0.0984621884	-2.1904118147	 1.0563258371	 0.148304
H	-1.620836544	-2.1019833505	 1.5650815664	 0.145124
32.6647	62.4011	142.0266	199.7456	242.2315	307.6299	327.4811	376.642	391.0914	423.9979	477.5758	539.2387	598.4794	613.8933	674.944	719.709	874.6119	896.1888	911.3106	958.1171	1025.2198	1046.8521	1067.5738	1105.0231	1125.4802	1198.9694	1220.0272	1238.6008	1291.9302	1330.6348	1382.7462	1406.7115	1423.1439	1452.6171	1468.0577	1800.2817	1906.9654	3043.7871	3058.0076	3070.6887	3105.0471	3124.4189	3141.691	3159.3262	3809.3492
CC(=O)C1(O)CC(=O)C1	CC(=O)C1(O)CC(=O)C1	
InChI=1S/C6H8O3/c1-4(7)6(9)2-5(8)3-6/h9H,2-3H2,1H3	InChI=1S/C6H8O3/c1-4(7)6(9)2-5(8)3-6/h9H,2-3H2,1H3
