18
gdb 31763	5.51148	1.04902	0.90228	2.2411	82.13	-0.1745	0.0381	0.2127	1298.5081	0.149883	-398.125545	-398.117344	-398.1164	-398.158527	30.497	
C	 0.0588217437	 1.3442282004	-0.2237178515	-0.322145
N	 0.2360202419	-0.0884676963	-0.1181106636	-0.363915
C	 0.5774582407	-0.6277811131	 1.1094883735	 0.325282
C	 1.10414984	 0.0194077354	 2.2220817851	-0.27311
N	 1.1651189055	-0.9943286861	 3.1722523529	 0.009146
C	 1.9242722507	-1.6968821902	 4.2355094406	-0.171859
C	 1.3570500122	-3.0415961785	 3.6393653659	-0.35655
C	 0.7856560782	-2.1368173357	 2.5635014857	 0.343348
N	 0.4128056684	-1.9933669293	 1.3150513858	-0.421055
H	 1.0144122173	 1.8526017961	-0.0491886806	 0.127985
H	-0.2665516614	 1.5940265188	-1.2362025935	 0.122293
H	-0.6729958581	 1.7519194237	 0.4934658021	 0.107051
H	-0.4567796484	-0.6465117884	-0.5943667136	 0.241559
H	 1.282138456	 1.0581029512	 2.4345746374	 0.116075
H	 3.0081224256	-1.5959158058	 4.1317684079	 0.130982
H	 1.618188748	-1.4282442206	 5.2497136219	 0.123267
H	 2.1251155737	-3.7415775581	 3.302897386	 0.133929
H	 0.6383193158	-3.5692792237	 4.2708950781	 0.127717
80.6131	116.0153	172.8859	200.5229	239.6023	312.1161	382.3333	515.676	524.8634	621.0646	659.6029	685.0977	730.1829	807.2241	821.5176	833.2578	926.7729	985.3472	1051.5673	1092.0671	1098.9558	1126.9235	1154.4457	1159.6013	1176.2989	1201.8633	1228.9927	1266.5758	1280.6055	1372.9151	1440.5566	1457.5986	1476.1404	1481.8983	1486.2408	1513.2923	1523.3371	1583.2802	1608.0671	2965.162	3051.6407	3056.5453	3070.3823	3107.5523	3117.0073	3124.2276	3291.9926	3610.5548
CNC1=CN2CCC2=N1	CNc1cn2CCc2n1	
InChI=1S/C6H9N3/c1-7-5-4-9-3-2-6(9)8-5/h4,7H,2-3H2,1H3	InChI=1S/C6H9N3/c1-7-5-4-9-3-2-6(9)8-5/h4,7H,2-3H2,1H3
