18
gdb 63508	1.9199	1.69834	1.08828	2.6284	75.22	-0.2529	-0.0509	0.202	1151.1585	0.144239	-439.088316	-439.078712	-439.077768	-439.122411	34.837	
C	-0.1390940113	 1.4739312298	 0.0278994579	-0.434172
C	-0.0108882154	-0.0393842465	 0.0384223759	 0.282657
C	-1.2773260889	-0.7590560019	-0.3793236165	-0.476101
N	 1.2833812665	-0.5616027274	-0.3455873532	-0.38784
C	 0.9337548259	-0.6827452947	 1.0827467878	 0.066564
C	 1.6808055387	 0.1992794527	 2.0333277868	 0.093913
O	 1.5529128265	 0.1406032574	 3.2318053502	-0.258137
C	 0.6029837505	-2.0371882551	 1.6148733039	 0.087999
O	 0.4125063742	-3.0002959916	 0.9062276224	-0.276955
H	 0.8196661975	 1.966686443	 0.1928561656	 0.133324
H	-0.516771563	 1.7965798947	-0.948406566	 0.131156
H	-0.848745763	 1.8116943991	 0.7895321428	 0.133718
H	-1.499581277	-0.5002263135	-1.421044389	 0.131984
H	-1.1853964152	-1.8424121056	-0.3070479966	 0.160608
H	-2.1275868332	-0.4325168667	 0.2278104199	 0.131222
H	 1.1815371363	-1.4947940325	-0.7497324492	 0.251152
H	 2.3787548157	 0.9111543041	 1.546160561	 0.104349
H	 0.576900575	-2.1023611455	 2.7173866363	 0.12456
92.1421	133.6589	180.169	187.4627	209.4219	224.0229	253.9475	304.3739	330.9833	381.1213	446.189	464.3834	508.696	657.3956	707.5674	759.3299	819.5339	957.2538	983.3825	995.9391	1006.3482	1049.1435	1085.6108	1108.4495	1138.1511	1172.8885	1280.7184	1337.4342	1366.7456	1403.0409	1413.1785	1416.3577	1427.7525	1479.6376	1486.7454	1503.8003	1511.0262	1784.4663	1809.9127	2920.2533	2983.0587	3037.5408	3043.7781	3096.6769	3105.2613	3144.7357	3155.6959	3448.1732
CC1(C)NC1(C=O)C=O	CC1(C)NC1(C=O)C=O	
InChI=1S/C6H9NO2/c1-5(2)6(3-8,4-9)7-5/h3-4,7H,1-2H3	InChI=1S/C6H9NO2/c1-5(2)6(3-8,4-9)7-5/h3-4,7H,1-2H3
