20
gdb 15598	2.9299	1.73655	1.2112	2.8983	74.92	-0.2434	-0.0178	0.2256	1036.2677	0.177493	-349.035165	-349.026806	-349.025862	-349.06872	30.891	
C	-0.4203552144	 1.4647675605	-0.0144319987	-0.419154
C	 0.0270627098	 0.0017731992	-0.04497294	 0.028907
C	 1.0402062509	-0.3490514628	-1.1490938197	-0.204611
C	 1.5855743113	-1.7144293534	-0.7148346869	-0.203831
C	 1.7694577362	-1.5600887316	 0.8089224762	-0.236375
C	 0.6822987026	-0.5462261748	 1.278347502	-0.069855
C	 1.3019548052	 0.5493451758	 2.1165462722	 0.157778
O	 0.8968446476	 0.9148054409	 3.190149782	-0.257136
H	 0.4285213813	 2.1487401882	 0.0939191801	 0.118231
H	-0.9353466242	 1.727148949	-0.9441532555	 0.113779
H	-1.1077772069	 1.6569325066	 0.8153090772	 0.129721
H	-0.8640202347	-0.6162515192	-0.2133392169	 0.083781
H	 0.5854351129	-0.3563655951	-2.144498216	 0.097134
H	 1.8496373675	 0.3935260502	-1.1675040163	 0.095716
H	 0.8447420858	-2.4938673867	-0.9297422131	 0.101252
H	 2.5111788625	-1.9980552695	-1.2233562354	 0.097735
H	 1.7019936347	-2.5077512344	 1.3483288615	 0.109312
H	 2.7674870237	-1.1526999684	 1.0165294925	 0.102045
H	-0.0803891438	-1.0167653622	 1.903405603	 0.088629
H	 2.2094575722	 1.0178394378	 1.6632877718	 0.066944
43.5035	65.3488	212.083	242.9111	250.5032	322.8688	349.8763	423.4429	468.0502	546.2486	623.2185	795.8475	837.7708	869.0682	909.4665	911.4937	955.3448	972.5964	1023.7807	1036.1721	1039.3508	1065.3736	1134.4068	1160.4644	1193.3847	1207.3907	1242.208	1289.2262	1297.9927	1318.4275	1340.0817	1345.6444	1359.7758	1377.7027	1416.7284	1430.4243	1488.0472	1490.8781	1496.8767	1502.7375	1507.6697	1828.629	2832.1514	3011.6551	3022.3567	3022.7586	3032.5053	3037.0472	3078.1578	3082.7508	3091.5774	3097.9247	3102.3766	3106.0703
CC1CCCC1C=O	C[C@H]1CCC[C@H]1C=O	
InChI=1S/C7H12O/c1-6-3-2-4-7(6)5-8/h5-7H,2-4H2,1H3	InChI=1S/C7H12O/c1-6-3-2-4-7(6)5-8/h5-7H,2-4H2,1H3/t6-,7-/m0/s1
