21
gdb 106971	3.41269	1.10092	1.01264	1.4902	79.4	-0.2388	0.0744	0.3132	1282.9737	0.180044	-424.187923	-424.178355	-424.177411	-424.221884	36.628	
C	-0.2944659921	 1.3292689471	-0.0759345322	-0.256542
O	 0.14975842	-0.0071563649	 0.0844694527	-0.282768
C	 0.7706864075	-0.5114884599	-1.0378237566	 0.457488
C	 0.0078875685	-1.0296164222	-2.2240285363	-0.348816
C	 0.8837197152	-1.9736670303	-1.4252323783	-0.164822
C	 2.3549291408	-1.7743537209	-1.7975663808	 0.41266
C	 3.318105127	-2.5542316529	-0.9103406806	-0.452037
O	 2.5888391205	-2.0476926062	-3.1697735441	-0.474104
C	 2.2359663337	-0.248988995	-1.4080714052	-0.37669
H	 0.5421423974	 2.0149136332	-0.2725883979	 0.110971
H	-1.0170049872	 1.4155376968	-0.8994311737	 0.112039
H	-0.7773247437	 1.6202323045	 0.8596346285	 0.125736
H	-1.0542415453	-1.1622615909	-2.0443001394	 0.111851
H	 0.2795070643	-0.7666150346	-3.2417829667	 0.118056
H	 0.4811388867	-2.8529909594	-0.936706313	 0.087679
H	 3.2449447881	-3.6249545051	-1.1259315286	 0.123861
H	 4.3533094211	-2.2366046055	-1.0878228396	 0.103473
H	 3.0976780874	-2.3962487482	 0.149500922	 0.126182
H	 3.5148982725	-1.8589334135	-3.3560194316	 0.274806
H	 2.4193328753	 0.4623081195	-2.2192192361	 0.089046
H	 2.8515367024	 0.008174688	-0.5422545725	 0.101931
79.6291	106.72	176.0791	221.7457	256.0624	266.3267	293.5861	336.2711	372.8051	412.6979	424.5343	458.7806	525.5336	613.4279	694.0121	783.3747	860.7177	896.0102	933.512	941.3314	960.1693	976.51	1011.1864	1017.2599	1064.6884	1093.4197	1103.5611	1142.7978	1156.8681	1181.2195	1208.5756	1228.5235	1240.8966	1242.8037	1288.5251	1369.9943	1389.6739	1407.0823	1468.7112	1477.1336	1487.2915	1489.1873	1495.9409	1504.4269	1508.2091	2991.0228	3022.2849	3043.5819	3046.8267	3090.9752	3107.356	3115.4503	3120.6196	3122.0965	3183.9238	3214.0185	3804.0987
COC12CC1C(C)(O)C2	CO[C@]12C[C@H]1[C@@](C)(O)C2	
InChI=1S/C7H12O2/c1-6(8)4-7(9-2)3-5(6)7/h5,8H,3-4H2,1-2H3	InChI=1S/C7H12O2/c1-6(8)4-7(9-2)3-5(6)7/h5,8H,3-4H2,1-2H3/t5-,6-,7-/m0/s1
