15
gdb 125091	3.3273	1.28313	0.93135	1.3879	78.87	-0.2212	-0.0169	0.2043	1182.9295	0.112067	-416.808593	-416.799777	-416.798833	-416.842109	32.245	
C	-0.0028774743	 1.6018498341	 0.0545479424	-0.520732
C	 0.0389978489	 0.1099589012	 0.0101671103	-0.024841
C	-0.0001665609	-0.7275441558	-1.1014184681	 0.206134
N	 0.0650599652	-2.0071930812	-0.6315697922	-0.3167
N	 0.1444424965	-2.0663743829	 0.7142544493	-0.318322
C	 0.128261341	-0.7946973981	 1.09068986	 0.379179
O	 0.1924317146	-0.4328160607	 2.3893289821	-0.434594
C	-0.0883104874	-0.4299320755	-2.4764385257	 0.284889
C	-0.1635817686	-0.1792400704	-3.6523683938	-0.438324
H	 0.8944489185	 2.0140919775	 0.5292033834	 0.13623
H	-0.0736690416	 2.0153346419	-0.9545358213	 0.132338
H	-0.8622946599	 1.961743826	 0.6310131663	 0.136233
H	 0.0592488342	-2.8550860236	-1.1707404166	 0.277242
H	 0.2467636098	-1.2438739837	 2.9101237437	 0.303139
H	-0.229958966	 0.0456107211	-4.6881279199	 0.198129
75.9393	119.2333	132.7638	240.769	245.5292	310.473	372.3129	408.8663	416.0375	501.4901	524.7792	556.6488	589.7606	684.6678	687.7099	698.0183	739.2797	787.2846	961.645	1065.3612	1124.9893	1159.5913	1231.517	1263.1381	1306.6796	1419.7134	1444.4513	1482.2983	1490.8367	1506.6411	1572.601	1620.239	2230.7863	3032.4058	3082.2017	3120.1772	3500.5935	3688.2831	3796.1537
CC1=C(NN=C1O)C#C	Cc1c([nH]nc1O)C#C	
InChI=1S/C6H6N2O/c1-3-5-4(2)6(9)8-7-5/h1H,2H3,(H2,7,8,9)	InChI=1S/C6H6N2O/c1-3-5-4(2)6(9)8-7-5/h1H,2H3,(H2,7,8,9)
