16
gdb 24224	3.91362	1.65963	1.27366	4.8062	74.03	-0.1986	0.0264	0.225	952.8903	0.128819	-396.930855	-396.924517	-396.923573	-396.961372	25.853	
C	 0.0207151769	 1.4513643615	 0.0184118099	-0.244558
C	 1.2706563024	 0.6508554772	 0.0485903754	-0.012873
C	 1.9831627501	 0.3658754634	 1.3984642396	-0.384842
C	 0.8846849627	-0.3853952833	 2.0795233511	 0.278063
C	-0.1991701107	-0.569657539	 1.2764942604	 0.303404
N	-1.2083501505	-1.2401312104	 1.8996868746	-0.337801
C	-0.7255377318	-1.4681808974	 3.1078858123	-0.012683
N	 0.5431071591	-0.9645310826	 3.2786106833	-0.376802
N	-0.0645624529	-0.0279649242	-0.0355952731	-0.178492
H	-0.3083338005	 1.9310603679	 0.9368357973	 0.118334
H	-0.2648182825	 1.959985423	-0.8980144718	 0.119132
H	 1.8738330917	 0.5930311368	-0.8511564113	 0.099615
H	 2.8892644869	-0.2311888279	 1.232932332	 0.117473
H	 2.2940567178	 1.2870204118	 1.9069758267	 0.118129
H	-1.2366705085	-1.9947144055	 3.8997791269	 0.128369
H	 1.1061110598	-1.0535624513	 4.1074822667	 0.265533
161.1519	220.6564	336.608	436.0007	452.766	492.6241	611.2911	662.3359	696.9163	745.5138	767.0306	777.6856	786.6229	830.4743	918.2784	959.7173	971.6395	1057.2859	1083.3333	1088.5739	1112.9315	1117.8382	1166.9544	1171.6665	1224.9557	1267.2898	1286.2104	1362.2872	1376.6842	1380.394	1454.6837	1484.5515	1499.7812	1516.7866	1620.0234	3013.8174	3041.1712	3106.3552	3165.9696	3197.6795	3253.7101	3666.7171
C1C2CC3=C(N=CN3)N12	C1[C@H]2Cc3c(nc[nH]3)N12	
InChI=1S/C6H7N3/c1-4-2-9(4)6-5(1)7-3-8-6/h3-4H,1-2H2,(H,7,8)	InChI=1S/C6H7N3/c1-4-2-9(4)6-5(1)7-3-8-6/h3-4H,1-2H2,(H,7,8)/t4-,9?/m1/s1
