19
gdb 97771	3.85861	0.69813	0.64199	2.5317	83.04	-0.2524	0.0117	0.2641	1779.3361	0.155524	-422.979098	-422.968545	-422.967601	-423.016066	37.043	
C	-0.4341778597	 1.5131500233	 0.281307358	-0.458446
C	-0.0669598952	 0.058561937	 0.0972241809	 0.409257
C	-1.1033214443	-0.8037472781	-0.5907630781	-0.452016
O	 1.2817438734	-0.1843852089	-0.3164585955	-0.27696
C	 0.9060730977	-0.5954739971	 1.0125156985	-0.2375
C	 1.516945988	 0.0808085502	 2.1235663263	 0.053066
C	 2.0375874059	 0.6247892854	 3.0655173876	 0.130772
C	 2.6204730775	 1.298404343	 4.2247470207	-0.199419
O	 1.8475690391	 2.3938648345	 4.6951920647	-0.399809
H	 0.3535216035	 2.0528853362	 0.8089637975	 0.144549
H	-0.589132006	 1.9848831716	-0.6949126285	 0.126167
H	-1.3656701141	 1.6060973529	 0.8498455813	 0.119167
H	-1.3227586853	-0.4060870073	-1.5875948931	 0.128899
H	-0.7449273175	-1.8296201004	-0.7047951577	 0.128561
H	-2.0391257316	-0.8181583799	-0.0222795705	 0.123253
H	 0.8257273092	-1.677108516	 1.1260011801	 0.105841
H	 2.7974310405	 0.5585611798	 5.0218173768	 0.120767
H	 3.5983578535	 1.7159348442	 3.9602710837	 0.146543
H	 0.9515346653	 2.0729871696	 4.8410876974	 0.287309
23.7811	63.7379	92.7325	168.1544	179.0155	213.5013	241.4587	299.9607	337.7427	361.5933	374.6703	407.4041	463.7614	562.4133	601.2249	706.3783	794.4467	842.8087	907.728	950.8008	983.7983	1005.9377	1042.4328	1054.9178	1094.5315	1148.3638	1187.7777	1214.0469	1263.0765	1334.4027	1359.0171	1409.1486	1415.9381	1419.6046	1432.2347	1474.5224	1483.2941	1488.2421	1497.3715	1508.4246	2353.0205	2977.5923	3035.1151	3040.7482	3064.3087	3097.8906	3100.2493	3103.0853	3125.0193	3143.1924	3816.5175
CC1(C)OC1C#CCO	CC1(C)O[C@H]1C#CCO	
InChI=1S/C7H10O2/c1-7(2)6(9-7)4-3-5-8/h6,8H,5H2,1-2H3	InChI=1S/C7H10O2/c1-7(2)6(9-7)4-3-5-8/h6,8H,5H2,1-2H3/t6-/m0/s1
