20
gdb 72898	2.77952	1.75061	1.41221	3.005	77.31	-0.233	0.0698	0.3028	997.1396	0.172787	-403.121108	-403.113543	-403.112599	-403.152769	30.799	
C	-0.1496432324	 1.5077595945	 0.1532638109	-0.448127
C	 0.0344535431	 0.0057418511	 0.0180705419	 0.434469
C	-1.277227771	-0.767026862	-0.2682539099	-0.267746
C	-1.2310282794	-2.0168494325	 0.5958911015	-0.038894
N	-0.1089110254	-2.919547628	 0.2836238993	-0.323304
C	-0.0022832226	-2.0053854501	 1.44107498	-0.059567
C	 0.803879472	-0.7534309394	 1.1460426141	-0.121416
C	 1.9253033507	-0.8730651816	 0.0936761534	-0.08229
O	 1.091749913	-0.2961581217	-0.9319484837	-0.323866
H	 0.8032712685	 1.995024954	 0.38001982	 0.117324
H	-0.5292918062	 1.9285366806	-0.7841342773	 0.125355
H	-0.8628617531	 1.7468802041	 0.9496785623	 0.109906
H	-2.1494179818	-0.1620628304	 0.0027218919	 0.092074
H	-1.341037426	-0.9999904404	-1.3351572797	 0.122551
H	-2.1603019632	-2.45138354	 0.9521365038	 0.08343
H	-0.3253634512	-3.8565350032	 0.614266761	 0.229703
H	 0.0074990854	-2.4298692712	 2.4399045495	 0.082028
H	 1.0393214804	-0.1902751325	 2.0510278732	 0.0682
H	 2.8101600126	-0.2546944336	 0.2921844242	 0.087281
H	 2.2287117067	-1.8937958678	-0.1550773764	 0.112889
107.8629	227.0802	245.6329	255.0851	325.5731	390.7806	397.2827	494.9266	631.2199	651.1633	681.753	780.8877	829.2369	857.7123	867.621	884.5956	903.3432	941.4806	949.0012	973.5187	1016.5386	1038.5289	1068.0948	1088.2011	1107.0729	1130.0444	1140.0418	1173.1189	1182.6504	1221.1893	1225.607	1231.2792	1261.5998	1320.4059	1345.1944	1362.3634	1376.0977	1402.8131	1425.9754	1462.9604	1482.277	1489.6827	1508.8746	3014.1107	3028.8541	3045.9939	3086.2352	3094.2229	3096.9034	3101.0847	3109.2887	3149.7119	3162.1686	3499.9997
CC12CC3NC3C1CO2	C[C@]12C[C@H]3N[C@H]3[C@H]1CO2	
InChI=1S/C7H11NO/c1-7-2-5-6(8-5)4(7)3-9-7/h4-6,8H,2-3H2,1H3	InChI=1S/C7H11NO/c1-7-2-5-6(8-5)4(7)3-9-7/h4-6,8H,2-3H2,1H3/t4-,5-,6+,7+/m1/s1
