20
gdb 9342	7.49614	0.70371	0.65627	3.0251	72.48	-0.266	-0.0231	0.2429	1717.496	0.174361	-386.167046	-386.157054	-386.15611	-386.203497	34.39	
C	-0.0500433218	 1.5515979495	 0.0357099495	-0.380995
C	 0.0178683647	 0.0231303473	-0.0177482534	-0.171604
C	 0.7311087961	-0.4968061865	-1.2700211975	-0.15434
C	 0.7995916367	-2.0234545858	-1.3245578281	-0.307795
C	 1.4992057989	-2.5696152393	-2.5514592265	 0.344558
O	 1.9673589715	-1.8631803476	-3.4203441463	-0.316525
C	 1.6179573571	-4.0844503521	-2.6963008843	-0.124268
O	 2.2838984214	-4.4313693342	-3.8727319448	-0.420716
H	 0.9531079725	 1.991809651	 0.0329379516	 0.117367
H	-0.5884353439	 1.9534850218	-0.8295786905	 0.117368
H	-0.5635719071	 1.8970186506	 0.9381584534	 0.113165
H	 0.5314907671	-0.3531496981	 0.8772767244	 0.094693
H	-0.99862995	-0.3911754356	 0.0215150496	 0.094695
H	 0.2241026472	-0.1282561399	-2.1692596301	 0.111868
H	 1.7480145269	-0.0903441106	-1.317111812	 0.111862
H	 1.3129388777	-2.4262902014	-0.4394333403	 0.126536
H	-0.2072861126	-2.4641609848	-1.2895679071	 0.126541
H	 2.1414719095	-4.4760684639	-1.8079080429	 0.112085
H	 0.6027109587	-4.5146496994	-2.6676179771	 0.112097
H	 2.4986927094	-3.5831635111	-4.2944478779	 0.293408
24.814	62.6045	103.2516	113.5582	126.6794	244.0934	256.7734	296.8202	356.6264	405.1527	470.5789	491.0533	692.9864	718.1714	767.9621	857.5884	886.5716	918.3013	983.8733	1008.1457	1058.1799	1075.0065	1134.7319	1135.6562	1154.461	1227.8611	1258.2967	1287.9757	1314.915	1315.4266	1328.9945	1374.9415	1402.2828	1416.294	1449.2332	1454.0616	1484.6255	1493.9428	1495.9714	1499.956	1511.8222	1793.3506	2968.7025	2983.315	3009.7676	3012.6759	3031.5452	3035.4713	3038.824	3042.1202	3081.0305	3099.5133	3104.5133	3674.4664
CCCCC(=O)CO	CCCCC(=O)CO	
InChI=1S/C6H12O2/c1-2-3-4-6(8)5-7/h7H,2-5H2,1H3	InChI=1S/C6H12O2/c1-2-3-4-6(8)5-7/h7H,2-5H2,1H3
