14
gdb 25062	5.98515	0.90979	0.79359	0.5536	69.98	-0.2065	0.0118	0.2183	1329.2235	0.101433	-432.90371	-432.895525	-432.894581	-432.937288	29.224	
N	-0.3263996548	 1.1938679633	 0.7454044088	-0.599116
C	-0.117461562	 0.0316966519	 0.29340181	 0.465879
N	-1.0148219161	-0.772235252	-0.3773682023	-0.338529
C	-0.4142240737	-1.9806178801	-0.7158461364	-0.164774
C	 0.8413534935	-1.9258902848	-0.2594663579	 0.337987
C	 1.9993520859	-2.8641507226	-0.2844129145	-0.461215
C	 1.6631213246	-4.1137868026	-0.9635660578	 0.279718
N	 1.38424717	-5.0961048601	-1.5024900537	-0.303186
O	 1.0569164682	-0.7064126451	 0.3646176022	-0.253121
H	 0.5027748533	 1.5666225949	 1.1985345198	 0.228817
H	-1.9559749724	-0.4831706044	-0.5715457098	 0.281676
H	-0.9276168166	-2.7640845217	-1.2455137528	 0.175082
H	 2.8587119249	-2.4035253549	-0.7904611763	 0.175393
H	 2.3336144253	-3.0923539818	 0.7368435207	 0.17539
46.7378	109.303	144.2187	194.4853	277.4657	368.2375	385.4081	444.5628	502.6059	585.8747	708.4007	710.1186	738.1778	773.921	782.7023	920.4649	959.3367	965.2593	982.997	1037.3752	1094.2874	1195.8698	1211.9525	1250.18	1345.6369	1385.5273	1411.1135	1467.1406	1731.418	1802.2994	2373.9833	3017.2307	3042.3823	3295.4214	3550.8052	3711.0099
N=C1NC=C(CC#N)O1	[NH][C@@H]1NC=C(CC#N)O1	
InChI=1S/C5H5N3O/c6-2-1-4-3-8-5(7)9-4/h3H,1H2,(H2,7,8)	InChI=1S/C5H6N3O/c6-2-1-4-3-8-5(7)9-4/h3,5,7-8H,1H2/t5-/m1/s1
