17
gdb 127128	4.01918	1.11854	0.88868	1.1264	71.96	-0.1901	0.0464	0.2365	1274.085	0.136995	-451.350459	-451.341441	-451.340496	-451.384223	32.441	
C	-0.0471705709	 1.4033371259	-0.0285311646	-0.334055
N	-0.2414042094	-0.0349233442	-0.0421686719	-0.150603
C	 0.104423963	-0.7474420371	 1.1729481062	-0.323956
C	-0.0830509098	-0.7057497294	-1.2292608321	 0.476363
N	 0.1792451176	-2.005973806	-1.2908616382	-0.344284
N	 0.1639403751	-2.2231538439	-2.6569319599	-0.269067
C	-0.0716961144	-1.0694720334	-3.2896943214	 0.468307
O	-0.1215450419	-1.0037053411	-4.6245007009	-0.422574
N	-0.2347003745	-0.0766993582	-2.4454335806	-0.454037
H	 1.013644726	 1.6873297189	 0.0702698509	 0.106108
H	-0.4329253622	 1.8305195143	-0.9535293278	 0.155952
H	-0.593692483	 1.83165035	 0.8177726956	 0.116981
H	-0.3401330004	-0.2282330628	 2.0270960493	 0.114519
H	-0.2906274417	-1.7632487431	 1.1260302025	 0.152679
H	 1.1926535629	-0.8131020531	 1.3324076366	 0.109581
H	 0.3437987421	-3.135581884	-3.0363785155	 0.279865
H	-0.3102651086	-0.0836498329	-4.8480816881	 0.318222
79.4544	124.1068	172.4888	182.3427	217.7647	262.6517	331.7278	359.154	404.5759	408.3477	443.7772	557.0487	605.6072	715.135	761.4026	775.9059	950.9019	1027.835	1088.1069	1094.1462	1120.5879	1131.528	1178.1714	1192.4365	1254.831	1294.6732	1339.1536	1423.4794	1444.5397	1459.9329	1483.8774	1491.2489	1502.91	1509.1032	1575.0971	1616.7736	1659.082	2968.6728	2980.4059	3070.3346	3077.6418	3140.0551	3155.7279	3694.0869	3807.014
CN(C)C1=NNC(O)=N1	CN(C)c1n[nH]c(O)n1	
InChI=1S/C4H8N4O/c1-8(2)3-5-4(9)7-6-3/h1-2H3,(H2,5,6,7,9)	InChI=1S/C4H8N4O/c1-8(2)3-5-4(9)7-6-3/h1-2H3,(H2,5,6,7,9)
