25
gdb 60255	3.00746	0.89567	0.75932	1.3504	89.1	-0.2556	0.0701	0.3257	1621.831	0.227657	-389.488354	-389.477743	-389.476799	-389.524243	39.875	
C	 0.099161962	 1.5796816103	-0.0202792846	-0.401155
C	 0.0433567505	 0.051476048	 0.0193605581	 0.135078
O	 0.7519455257	-0.4546076377	 1.1509295102	-0.422877
C	-1.3944015435	-0.4836307256	-0.0451818755	-0.231938
C	-1.4867103662	-2.0048551114	-0.0966975941	 0.063127
C	-1.1929096041	-2.8583848709	 1.1677256781	-0.21285
C	-2.3287980299	-3.8235435232	 0.7378981693	-0.228899
C	-2.8820458358	-2.7126140802	-0.204808197	-0.008017
C	-4.068282425	-1.949939537	 0.3818951036	-0.390477
H	 1.1349762663	 1.9221487679	 0.0530730527	 0.122143
H	-0.3331735734	 1.9713802945	-0.9468320748	 0.113503
H	-0.4633157139	 2.0109305766	 0.8176715016	 0.104223
H	 0.6007743987	-0.3450384345	-0.839342797	 0.085907
H	 0.3004657241	-0.1373827982	 1.9410631968	 0.274238
H	-1.9533438972	-0.0956553772	 0.8193229599	 0.079643
H	-1.8786714116	-0.0568959257	-0.9347029103	 0.092651
H	-0.8557001453	-2.3633964338	-0.9197205261	 0.065798
H	-0.1853198144	-3.2616893431	 1.2782586029	 0.103347
H	-1.4429522121	-2.3192759935	 2.0872284698	 0.082742
H	-1.9488649936	-4.6853137345	 0.1818458867	 0.095474
H	-3.0053958172	-4.1872328592	 1.5167870933	 0.088074
H	-3.1397342906	-3.0456313359	-1.2157605863	 0.058901
H	-3.8758416451	-1.621745533	 1.4094831294	 0.110369
H	-4.3145991299	-1.0617467884	-0.2098947528	 0.110398
H	-4.9573741385	-2.5896409842	 0.4054564663	 0.110596
42.7024	98.7365	114.1882	145.4465	227.9372	241.684	254.8971	282.3971	302.0737	349.1117	361.3905	452.4628	473.2381	511.0678	679.6456	766.6126	809.9537	838.029	870.9585	889.146	915.4189	944.1835	957.2509	965.3661	1003.1522	1033.8551	1061.0811	1097.3402	1113.7894	1135.0922	1159.3062	1174.9535	1208.7953	1223.0596	1257.5442	1263.1111	1274.8621	1283.4457	1314.7154	1336.1678	1367.8962	1370.9817	1397.267	1405.0466	1409.8652	1420.8001	1473.7517	1481.3308	1492.3604	1495.8966	1497.2709	1500.1625	1501.6224	2995.8624	3016.9264	3020.6538	3025.441	3026.8367	3037.7134	3043.4854	3050.3151	3054.4729	3091.2087	3092.098	3092.8477	3097.9661	3117.0983	3120.119	3798.2414
CC(O)CC1CCC1C	C[C@@H](O)C[C@H]1CC[C@H]1C	
InChI=1S/C8H16O/c1-6-3-4-8(6)5-7(2)9/h6-9H,3-5H2,1-2H3	InChI=1S/C8H16O/c1-6-3-4-8(6)5-7(2)9/h6-9H,3-5H2,1-2H3/t6-,7-,8-/m1/s1
