18
gdb 26468	3.47118	1.32426	1.19064	1.3097	79.8	-0.2058	0.0385	0.2443	1096.2783	0.148332	-401.952844	-401.944733	-401.943788	-401.98544	31.517	
C	-0.2086727451	 1.5897138087	 0.0513356526	-0.418193
C	-0.0516798589	 0.0779885988	 0.0338742937	 0.237676
O	-1.3198926469	-0.4698653605	 0.3207217792	-0.462673
C	 0.6706458819	-0.5136979031	-1.2655474845	-0.227745
N	 1.7101555101	-1.0047220913	-0.349680669	 0.022409
C	 2.9357719533	-1.5431358872	-0.0958262433	-0.15892
C	 3.1225711281	-1.4073845708	 1.2747932176	-0.124188
C	 1.9928966036	-0.7440377879	 1.8471081472	-0.351639
C	 1.1407094994	-0.5140233913	 0.7866569052	 0.26975
H	 0.725854345	 2.084167919	-0.2242626223	 0.122344
H	-0.9939045151	 1.8928021016	-0.6482870931	 0.12551
H	-0.4979713273	 1.9203591048	 1.0524285757	 0.131704
H	-1.1914646729	-1.3893469177	 0.5778036638	 0.282449
H	 0.1080256633	-1.3028672718	-1.7724216701	 0.117986
H	 1.0265789363	 0.2225925509	-1.9924718143	 0.121998
H	 3.5564660401	-1.9892032845	-0.8556193082	 0.119199
H	 3.9867093909	-1.7619647533	 1.8176481818	 0.09402
H	 1.8549892642	-0.4884047044	 2.8856835079	 0.098312
74.4928	126.5599	226.3291	280.8905	286.6735	355.5884	370.1823	445.3383	541.6996	605.2219	625.803	698.3151	710.6368	752.4595	770.1561	831.3207	837.2781	908.9751	930.4908	970.9554	1012.2444	1056.9342	1084.9923	1121.7866	1141.3217	1142.3536	1214.3085	1236.3726	1250.7963	1308.1127	1372.4718	1402.8074	1413.6332	1457.5364	1467.2346	1481.7975	1494.5869	1517.7745	1566.9122	3043.7601	3046.8265	3103.7828	3118.0735	3130.7137	3235.7221	3259.3182	3271.0071	3807.4737
CC1(O)CN2C=CC=C12	C[C@@]1(O)Cn2cccc12	
InChI=1S/C7H9NO/c1-7(9)5-8-4-2-3-6(7)8/h2-4,9H,5H2,1H3	InChI=1S/C7H9NO/c1-7(9)5-8-4-2-3-6(7)8/h2-4,9H,5H2,1H3/t7-/m1/s1
