20
gdb 92235	2.75351	1.70816	1.34303	2.7527	76.99	-0.2191	0.064	0.2832	1009.4995	0.173468	-403.108515	-403.101018	-403.100073	-403.140163	30.621	
O	 0.0855653307	 1.4426867924	-0.1047285586	-0.424273
C	 0.0490128894	 0.037055205	-0.0101501779	 0.130623
C	 0.3766959709	-0.6389750879	 1.3553524092	-0.297432
C	-0.9484778589	-1.4540665611	 1.2445824623	-0.013365
C	-2.0605473365	-1.297980052	 2.3043459981	-0.182449
N	-2.9859806028	-0.2251397465	 1.8853881428	-0.102169
C	-2.3648720561	 1.09920885	 1.77304912	-0.242319
C	-2.5365740004	 0.266500146	 0.5568942721	-0.017121
C	-1.3818792105	-0.5697805728	 0.0293697328	-0.062828
H	 1.0071249086	 1.7162957869	-0.1537779426	 0.282944
H	 0.6328345471	-0.4214467192	-0.8207216612	 0.06772
H	 1.2991911247	-1.2249403477	 1.3886964225	 0.093281
H	 0.3898466126	 0.0704535268	 2.1866233977	 0.105874
H	-0.7687847992	-2.5038029027	 1.0047367476	 0.073469
H	-2.645936986	-2.2213517029	 2.3714199822	 0.104616
H	-1.6651326097	-1.087869414	 3.3047319329	 0.102932
H	-3.0414972352	 1.9317183546	 1.9483489982	 0.109945
H	-1.3640072236	 1.2562266421	 2.1581591177	 0.114932
H	-3.325770192	 0.5209570681	-0.1442653219	 0.087817
H	-1.6810223031	-1.0835962551	-0.8866970937	 0.067802
117.601	184.8414	260.4071	262.4499	349.1467	392.4586	416.441	549.8633	618.8665	673.5648	712.589	733.5636	800.2137	829.5997	847.8348	895.7349	913.9505	959.0999	974.0143	1014.5207	1029.1045	1039.6761	1085.6492	1104.3962	1112.8932	1141.0117	1146.3513	1169.6777	1197.15	1210.4349	1231.5099	1248.327	1262.0931	1283.6029	1311.1175	1329.966	1345.0234	1349.4931	1388.488	1428.3761	1481.4706	1495.6094	1522.8993	2991.7898	3033.2193	3058.0834	3069.3691	3076.5736	3088.5078	3113.2358	3118.5032	3148.4018	3210.501	3814.5049
OC1CC2CN3CC3C12	O[C@H]1C[C@H]2CN3C[C@H]3[C@@H]12	
InChI=1S/C7H11NO/c9-6-1-4-2-8-3-5(8)7(4)6/h4-7,9H,1-3H2	InChI=1S/C7H11NO/c9-6-1-4-2-8-3-5(8)7(4)6/h4-7,9H,1-3H2/t4-,5-,6-,7-,8?/m0/s1
