18
gdb 72688	2.44549	1.45891	1.43162	1.5479	72.93	-0.2349	-0.0458	0.1892	1035.6619	0.146484	-439.049895	-439.041425	-439.040481	-439.082893	31.738	
C	-0.1464123541	 1.5440324426	 0.084719622	-0.476594
C	 0.0295548172	 0.0502220644	 0.0644458387	 0.375202
C	-1.2018651461	-0.8834094877	 0.1541780259	-0.203908
N	-0.4750549599	-1.8041397986	 1.0785244327	-0.369401
C	 0.6742462503	-0.8896318702	 1.1688720456	 0.148182
C	 1.7308220716	-1.1578991293	 0.0823537424	-0.11197
O	 1.0013179216	-0.390942835	-0.9036488293	-0.324687
C	 1.0687103823	-0.4263182388	 2.5259506936	 0.062256
O	 0.4257824936	-0.6646818747	 3.5215312157	-0.262362
H	 0.8155849313	 2.0540618247	 0.183242564	 0.129475
H	-0.6029095718	 1.8678481517	-0.8580862344	 0.139638
H	-0.8010182793	 1.853911652	 0.9045811637	 0.129472
H	-2.0757635184	-0.3954726949	 0.6023178618	 0.105063
H	-1.4911240995	-1.346147515	-0.7941137652	 0.11643
H	-0.9203458366	-1.8904102906	 1.9873963019	 0.236446
H	 2.7144518981	-0.7099640226	 0.2788502747	 0.101302
H	 1.8387088079	-2.2103605079	-0.1942963936	 0.122051
H	 1.9989946917	 0.1814630599	 2.5702977998	 0.083406
93.9062	123.2694	200.5186	203.3368	260.7105	283.621	343.1688	377.8461	463.9021	483.7352	603.165	690.2791	772.2899	791.4543	826.7042	899.4206	932.7491	945.9541	979.4719	1013.7769	1019.6905	1070.9993	1107.4195	1153.8415	1169.3614	1184.7799	1233.553	1248.8053	1258.5228	1326.436	1347.4815	1399.5551	1408.7218	1430.1348	1479.5385	1486.8651	1496.2006	1503.1319	1797.5811	2892.0797	3006.9899	3025.8438	3035.0901	3087.2146	3093.0092	3102.7699	3122.6005	3521.6305
CC12CNC1(CO2)C=O	C[C@]12CN[C@]1(CO2)C=O	
InChI=1S/C6H9NO2/c1-5-2-7-6(5,3-8)4-9-5/h3,7H,2,4H2,1H3	InChI=1S/C6H9NO2/c1-5-2-7-6(5,3-8)4-9-5/h3,7H,2,4H2,1H3/t5-,6-/m0/s1
