15
gdb 5789	6.06541	1.38793	1.21861	2.103	66.99	-0.2156	0.0225	0.2381	967.7657	0.12109	-362.656657	-362.65005	-362.649106	-362.687948	24.862	
C	 0.0291038142	 1.5542902465	-0.0046317536	-0.224464
N	 1.2543934816	 0.7433948151	 0.0182788954	-0.309833
C	-0.0513787877	 0.0632902174	 0.0284983542	-0.159003
C	-0.396094998	-0.6822330963	 1.2578195931	 0.281399
C	 0.3850893376	-0.8481406461	 2.3600440846	-0.093153
O	-0.2639979614	-1.580910996	 3.304791687	-0.144087
C	-1.4832821067	-1.8920517319	 2.793768456	 0.009371
C	-1.6244758117	-1.3728508936	 1.5477797466	-0.305157
H	-0.1627053714	 2.1114261814	 0.9075701916	 0.123153
H	-0.2487631739	 2.0642766329	-0.9237315859	 0.111017
H	 1.6643597806	 0.6985968068	-0.9102026909	 0.234584
H	-0.378601306	-0.4058517261	-0.8981256967	 0.087159
H	 1.381572812	-0.5222889518	 2.6023616208	 0.14875
H	-2.1224941931	-2.4805627211	 3.4310757837	 0.133868
H	-2.4891216962	-1.4619616972	 0.9080576843	 0.106396
69.5537	159.146	184.6983	385.9844	452.0458	622.865	631.8306	675.3273	738.6327	799.5996	825.9286	869.4939	884.1545	896.398	911.2112	964.46	999.1558	1053.7767	1094.5854	1108.253	1116.2787	1180.0013	1201.9042	1229.0501	1252.5028	1270.4818	1289.2742	1388.4494	1450.8611	1507.1216	1539.7196	1638.9917	3106.5282	3114.5735	3198.5736	3248.6914	3282.4253	3297.1474	3512.8836
C1NC1C1=COC=C1	C1N[C@H]1c1cocc1	
InChI=1S/C6H7NO/c1-2-8-4-5(1)6-3-7-6/h1-2,4,6-7H,3H2	InChI=1S/C6H7NO/c1-2-8-4-5(1)6-3-7-6/h1-2,4,6-7H,3H2/t6-/m1/s1
