14
gdb 125726	3.17269	1.46157	1.00693	4.9651	68.75	-0.2563	-0.0597	0.1966	1103.0172	0.101186	-470.02032	-470.012446	-470.011502	-470.052966	28.915	
C	-0.111481849	 1.5355726899	 0.0684753738	-0.481826
C	-0.0117068111	 0.0435633775	-0.034950356	 0.447444
N	 0.2177400049	-0.4553849039	-1.198447234	-0.167996
O	 0.3079998822	-1.8777673443	-1.2690774156	-0.260591
C	 0.1671936319	-2.6964464368	-0.1998243146	 0.406974
O	 0.2558492859	-3.8850046586	-0.3351620744	-0.314236
C	-0.1008070477	-2.0635971075	 1.1432450363	 0.247712
N	-0.2523762284	-2.7130971777	 2.2209407061	-0.503015
N	-0.171455694	-0.6829838268	 1.1141292089	-0.380349
H	 0.6491953466	 1.9256182096	 0.7530742114	 0.150844
H	 0.0356605638	 1.9748781523	-0.9172358703	 0.174971
H	-1.094907018	 1.829984789	 0.4501000035	 0.150845
H	-0.1620783929	-3.7094829101	 2.0157088465	 0.255342
H	-0.3496954243	-0.2177763027	 1.9934548984	 0.273881
99.5643	110.8892	163.3348	295.3578	303.4748	353.3041	430.4413	471.8596	516.0526	588.5333	589.7668	642.2481	667.0837	790.3367	791.0862	916.0237	937.9602	1014.028	1066.7672	1085.9988	1129.5674	1182.1399	1274.1379	1410.6325	1427.7772	1472.7485	1479.8331	1518.6911	1697.876	1743.0118	1842.9436	3043.2526	3102.3236	3168.3616	3486.4488	3601.8661
CC1=NOC(=O)C(=N)N1	CC1=NOC(=O)[C]([NH])N1	
InChI=1S/C4H5N3O2/c1-2-6-3(5)4(8)9-7-2/h1H3,(H2,5,6,7)	InChI=1S/C4H5N3O2/c1-2-6-3(5)4(8)9-7-2/h1H3,(H2,5,6,7)
