18
gdb 102080	2.51309	1.16121	0.91309	2.8958	70.57	-0.2302	-0.0427	0.1875	1291.9937	0.14412	-476.220383	-476.210263	-476.209319	-476.256044	35.043	
C	 0.0489470347	 1.5703211551	-0.0066778903	-0.324295
N	-0.1111314848	 0.1231120506	-0.1404629314	-0.279305
C	 0.6781928666	-0.4904982132	-1.1875194037	-0.095141
C	 2.1880068579	-0.5306749335	-0.9414940594	 0.168621
O	 2.7120059512	-0.1410924843	 0.0676370426	-0.240447
C	 0.1775125081	-1.9318754839	-1.4161402725	 0.025882
O	 0.4380233159	-2.7255463158	-0.2915310725	-0.436594
C	-1.3166592903	-1.9013670414	-1.6973378204	 0.162655
O	-2.0811950599	-2.6080089717	-1.0903157153	-0.261491
H	 1.0793436506	 1.8932045386	 0.19336529	 0.126847
H	-0.2961392299	 2.0590077451	-0.9252437766	 0.116143
H	-0.5880864304	 1.9211092918	 0.8098945545	 0.126684
H	 0.1170042738	-0.3365514758	 0.7349818684	 0.238469
H	 0.5227811374	 0.0604387173	-2.129311154	 0.097315
H	 2.7857735273	-0.9629102338	-1.7784061826	 0.078131
H	 0.6718477276	-2.3473853079	-2.3145543201	 0.096514
H	-0.4127609457	-3.1337622302	-0.0601451327	 0.300188
H	-1.65351077	-1.2182877672	-2.5017612939	 0.099824
60.4721	96.9258	114.402	124.7115	183.5826	214.297	223.2303	271.9168	302.745	348.0693	369.2359	486.0668	665.9987	671.3394	753.0383	768.0819	834.2039	870.0463	942.7713	977.8638	1022.2639	1063.5105	1125.6851	1160.1005	1184.7335	1216.5984	1256.3346	1282.6614	1330.0086	1349.9591	1393.7295	1414.6574	1435.129	1458.3485	1487.6846	1492.3375	1525.0484	1820.3592	1837.6989	2854.42	2931.3731	2948.0115	2993.3808	3010.2113	3069.7961	3107.7727	3536.6764	3673.8045
CNC(C=O)C(O)C=O	CN[C@@H](C=O)[C@@H](O)C=O	
InChI=1S/C5H9NO3/c1-6-4(2-7)5(9)3-8/h2-6,9H,1H3	InChI=1S/C5H9NO3/c1-6-4(2-7)5(9)3-8/h2-6,9H,1H3/t4-,5-/m0/s1
