23
gdb 116181	2.17775	1.37065	1.06366	2.6444	80.81	-0.2484	0.0699	0.3182	1262.2202	0.205325	-425.436531	-425.426538	-425.425594	-425.471467	37.526	
C	 0.1611859536	 1.5076409829	-0.2476885506	-0.430422
C	-0.0468559967	 0.0019296321	-0.0050467986	 0.266772
C	-1.5412756185	-0.3339230872	 0.0116909371	-0.445626
C	 0.7308285559	-0.8235203523	-1.0625434968	-0.267775
C	 2.1522801464	-0.9490799091	-0.4745239735	-0.079794
O	 2.0611207744	-0.5665978803	 0.8994813752	-0.292409
C	 0.6833241463	-0.4848023257	 1.2686346587	 0.100281
C	 0.6187748317	 0.3625081077	 2.5307974581	-0.079642
O	 1.344026188	-0.2458088433	 3.5844655356	-0.426492
H	 1.2207803283	 1.7769062825	-0.2096789642	 0.126042
H	-0.224613722	 1.7883834618	-1.2334851775	 0.109594
H	-0.3667440912	 2.1138406079	 0.4952515407	 0.117349
H	-2.0097044751	-0.0781044725	-0.9446586456	 0.115532
H	-1.7081474888	-1.4013413793	 0.1914659	 0.114729
H	-2.0676445589	 0.2252491116	 0.7931165398	 0.117133
H	 0.2741375687	-1.812288401	-1.1715216614	 0.101379
H	 0.725256803	-0.3483183231	-2.0472035192	 0.102093
H	 2.5368602105	-1.9742779852	-0.5559286408	 0.098117
H	 2.8717855842	-0.2819949678	-0.9626112749	 0.105037
H	 0.3112965432	-1.4924608847	 1.5259638348	 0.062028
H	 0.9985538718	 1.3725030516	 2.3197157782	 0.090194
H	-0.4186822187	 0.4523339069	 2.8708002232	 0.104528
H	 2.215487264	-0.4444061436	 3.2223587718	 0.291351
51.6877	107.2307	124.4864	186.9793	232.7284	248.0924	281.1464	310.3824	339.2724	366.9215	437.3002	485.9064	511.3298	576.313	696.0922	775.7702	813.6461	874.2297	910.8042	950.3633	968.8151	986.4489	1017.1845	1032.0002	1051.1291	1071.8688	1092.8226	1128.139	1190.9549	1202.403	1230.7406	1236.8691	1242.2696	1290.906	1316.1892	1343.8503	1362.6469	1387.6795	1400.5582	1409.0396	1424.3371	1444.4796	1484.114	1487.4687	1497.4306	1501.8395	1506.1563	1510.5934	1531.8818	2944.4834	3002.1245	3011.7251	3026.7426	3034.3569	3048.2712	3054.7467	3073.6395	3092.7511	3096.5331	3098.3274	3101.8227	3111.3925	3798.9643
CC1(C)CCOC1CO	CC1(C)CCO[C@H]1CO	
InChI=1S/C7H14O2/c1-7(2)3-4-9-6(7)5-8/h6,8H,3-5H2,1-2H3	InChI=1S/C7H14O2/c1-7(2)3-4-9-6(7)5-8/h6,8H,3-5H2,1-2H3/t6-/m0/s1
