18
gdb 57115	2.94182	1.17232	0.93071	3.8903	71.78	-0.2657	0.009	0.2747	1247.9754	0.148413	-439.093847	-439.085032	-439.084088	-439.128325	31.773	
O	-0.3323965697	 1.2719204602	 0.0688708441	-0.412873
C	 0.019707547	-0.0983572186	 0.1055694897	-0.012654
C	 0.5573899755	-0.5310965956	-1.2014401936	 0.254594
N	 1.0134667121	-0.8445640355	-2.2161213558	-0.31939
C	 1.0035120214	-0.4584460453	 1.2427608306	-0.027162
C	 0.4503794626	-0.0000823042	 2.617347435	-0.274384
C	-0.0070462167	-1.320973219	 3.2875972292	-0.071557
O	 0.0084301372	-2.3113730465	 2.2660042868	-0.241724
C	 1.099450804	-1.9858158127	 1.4238741749	-0.106959
H	 0.4599276726	 1.783961691	-0.131968814	 0.294377
H	-0.91834684	-0.6364002601	 0.2818144591	 0.151521
H	 1.9778832875	-0.0143779976	 1.016797881	 0.085403
H	 1.2205107039	 0.5006049439	 3.2083704697	 0.108184
H	-0.3699453638	 0.7076605043	 2.4839466365	 0.133276
H	 0.680994207	-1.6026549554	 4.0992916145	 0.096136
H	-1.0195795545	-1.2795826388	 3.6956663191	 0.116242
H	 1.0002232545	-2.5560787068	 0.496609222	 0.130691
H	 2.0596310392	-2.2522223233	 1.8943060613	 0.096278
49.2631	70.0005	134.0462	199.5442	240.4455	282.8598	325.0851	363.1664	441.0761	523.1919	601.3265	689.3052	733.382	817.3464	886.0206	917.4532	942.2201	952.5714	974.9199	986.7922	1068.9509	1102.1313	1114.0669	1143.1272	1204.7184	1233.5428	1237.3073	1266.904	1296.3801	1301.9425	1312.7675	1355.2366	1377.0806	1401.7089	1424.843	1501.6855	1507.3979	1525.9766	2352.6673	2975.8437	2987.1436	3056.342	3071.3175	3078.8305	3096.6379	3100.3238	3124.3209	3796.643
OC(C#N)C1CCOC1	O[C@@H](C#N)[C@H]1CCOC1	
InChI=1S/C6H9NO2/c7-3-6(8)5-1-2-9-4-5/h5-6,8H,1-2,4H2	InChI=1S/C6H9NO2/c7-3-6(8)5-1-2-9-4-5/h5-6,8H,1-2,4H2/t5-,6-/m0/s1
