14
gdb 21656	3.41491	2.03574	1.28581	1.8498	60.72	-0.1935	0.0463	0.2398	884.6033	0.108805	-412.044308	-412.036128	-412.035184	-412.076356	29.853	
N	 0.0037343499	 1.3716406798	-0.1248621356	-0.600542
C	 0.0367013394	-0.0233317336	-0.06308697	 0.29334
N	-1.0632698204	-0.762744146	-0.0383248606	-0.320898
N	-0.5975492803	-2.0536074734	-0.0338461231	-0.268984
C	 0.75452926	-2.1281132237	-0.0707674882	 0.32337
N	 1.4554923517	-3.3341683508	-0.1440403684	-0.613213
C	 1.2067667452	-0.8235438697	-0.0844792772	 0.084434
O	 2.5247850506	-0.4245562971	-0.0344931595	-0.462654
H	 0.6850869257	 1.796158424	 0.4930720784	 0.245502
H	-0.9224997161	 1.7233658169	 0.0853394783	 0.249005
H	-1.2492199283	-2.8068878316	-0.1601673251	 0.265997
H	 1.2444705111	-3.961839216	 0.6246254945	 0.249169
H	 2.4517981446	-3.1469499422	-0.1433725941	 0.256741
H	 2.7319332168	 0.0440441434	-0.8511791293	 0.298733
133.1592	174.3502	217.9122	231.6414	257.8783	272.8613	322.3472	365.678	421.3653	550.7288	592.1195	652.2175	702.2842	741.9227	787.4783	822.4401	826.0228	1056.8686	1087.9111	1139.1774	1192.3058	1247.2315	1310.1091	1363.5719	1462.9041	1559.3882	1575.1273	1634.5585	1644.3029	1688.7164	3509.681	3525.0241	3598.5739	3620.4944	3693.0506	3778.2966
NC1=NNC(N)=C1O	Nc1n[nH]c(N)c1O	
InChI=1S/C3H6N4O/c4-2-1(8)3(5)7-6-2/h8H,(H5,4,5,6,7)	InChI=1S/C3H6N4O/c4-2-1(8)3(5)7-6-2/h8H,(H5,4,5,6,7)
