17
gdb 85398	1.902	1.6572	0.95371	2.9691	69.73	-0.2473	-0.0416	0.2057	1187.9591	0.135185	-459.011519	-459.003123	-459.002179	-459.044905	31.455	
O	-0.1224745769	 1.4406877503	 0.0985017444	-0.425136
C	 0.0239177321	 0.0341769223	 0.0018145425	 0.092814
C	 0.8000417756	-0.5364713318	 1.2049877285	-0.3237
C	 0.8144681597	-2.0579508009	 1.1996307622	 0.365603
O	 1.8260478119	-2.7086456701	 1.2888523506	-0.290609
C	-0.5599786219	-2.7075398568	 1.0520314529	-0.386796
C	-1.3964683624	-2.0659701055	-0.05672053	 0.363378
O	-2.0112692931	-2.7297345212	-0.853702051	-0.289978
C	-1.393250718	-0.5449416529	-0.0723900251	-0.291882
H	 0.7528256843	 1.83997688	 0.0561676281	 0.288478
H	 0.5617771957	-0.2316547631	-0.9225081454	 0.093568
H	 1.8330810365	-0.1790787707	 1.2209446126	 0.11831
H	 0.2993478374	-0.1873738512	 2.1183868284	 0.127574
H	-0.4638820496	-3.7805764099	 0.8873296416	 0.147162
H	-1.0996167775	-2.5402858865	 1.9963625195	 0.14493
H	-1.9465381765	-0.1825122875	 0.8055168056	 0.129338
H	-1.9111460873	-0.1954517744	-0.9667627553	 0.136947
89.9123	93.807	132.8534	289.4005	311.0615	375.4772	382.5246	398.7773	453.0331	489.5474	557.3841	580.9272	623.6946	826.8773	829.313	854.6828	865.871	924.9457	1021.3495	1056.7993	1078.74	1094.673	1170.7934	1190.7669	1208.3671	1231.1409	1258.0759	1277.2642	1293.7397	1307.9654	1379.7541	1432.6826	1436.8664	1461.866	1476.894	1813.1345	1836.5176	2972.1721	3015.1275	3024.0819	3030.4385	3103.728	3128.3656	3144.6587	3813.1291
OC1CC(=O)CC(=O)C1	OC1CC(=O)CC(=O)C1	
InChI=1S/C6H8O3/c7-4-1-5(8)3-6(9)2-4/h4,7H,1-3H2	InChI=1S/C6H8O3/c7-4-1-5(8)3-6(9)2-4/h4,7H,1-3H2
