17
gdb 47685	2.27009	1.71129	1.11406	2.83	70.52	-0.2444	-0.0239	0.2205	1080.465	0.137927	-455.172668	-455.164686	-455.163742	-455.205779	29.891	
N	-0.2229031067	 1.3998824987	-0.1358944234	-0.484288
C	-0.0510629325	 0.1733817484	 0.1026304225	 0.385036
C	-1.1437169371	-0.8540635746	-0.094081174	-0.248193
N	-1.7882026318	-1.2789185715	 1.1519309624	-0.283346
C	-0.8615091687	-1.4566767627	 2.2712557175	-0.183904
C	 0.3607879787	-2.2691134717	 1.8515971488	-0.320997
C	 1.4452969795	-1.5452663163	 1.0623335855	 0.396884
O	 2.5533701979	-1.975484748	 0.9401041011	-0.291268
O	 1.1810226404	-0.2919505325	 0.5366433883	-0.235766
H	 0.6234827369	 1.9329506561	 0.0760451339	 0.23245
H	-1.897183974	-0.4137958429	-0.7470063773	 0.145391
H	-0.7272774363	-1.7279494428	-0.6102672795	 0.124889
H	-2.4863580572	-0.5892051646	 1.4073658497	 0.23404
H	-0.519191533	-0.5020977414	 2.7065341536	 0.105076
H	-1.3870228056	-1.9953615193	 3.0666309176	 0.116728
H	 0.8761672405	-2.6618672827	 2.7321060206	 0.151815
H	 0.051045479	-3.1450013023	 1.2691328525	 0.155453
62.163	89.3313	198.1379	264.0854	322.7625	359.9401	413.3755	487.5717	537.1808	562.6282	630.0292	656.387	765.4179	797.7335	893.666	909.3496	922.7646	961.9336	987.0763	1037.1539	1086.7151	1115.2508	1153.3033	1185.9924	1223.3228	1235.8514	1302.1053	1327.9496	1353.3323	1375.5447	1404.0277	1450.1184	1488.9484	1500.8993	1518.7284	1755.0329	1861.5688	2955.8657	3032.1894	3051.8545	3065.1847	3105.1827	3137.9473	3463.9441	3533.2482
N=C1CNCCC(=O)O1	[NH][C]1CNCCC(=O)O1	
InChI=1S/C5H8N2O2/c6-4-3-7-2-1-5(8)9-4/h6-7H,1-3H2	InChI=1S/C5H8N2O2/c6-4-3-7-2-1-5(8)9-4/h6-7H,1-3H2
