22
gdb 108575	2.40626	1.42974	1.19577	2.1225	81.03	-0.2251	0.0745	0.2996	1170.2124	0.195328	-404.333653	-404.324427	-404.323483	-404.367653	34.962	
C	 0.0497754492	 1.5476279468	-0.1232649688	-0.434551
C	 0.0702929108	 0.0599143946	 0.1519744305	-0.037822
N	 1.2365153032	-0.8253895714	-0.0724912856	-0.162617
C	 2.5437159957	-0.1552681074	-0.2002769271	-0.154577
C	 2.8511621196	 0.6264952062	 1.1068468964	-0.234617
C	 1.7796269987	 0.1541229455	 2.1202444359	-0.28887
C	 0.7354611337	-0.603846929	 1.3072854101	 0.287725
C	 0.1131899463	-1.8243850802	 1.9531545201	-0.143975
O	 1.0828460202	-2.8341047152	 2.1820993876	-0.420554
H	 0.840342599	 2.1042246546	 0.3809581108	 0.124924
H	 0.130393106	 1.7421189865	-1.1988986213	 0.127274
H	-0.9076889917	 1.961803365	 0.2097764643	 0.125097
H	-0.8415915203	-0.4250473058	-0.1983197709	 0.084846
H	 3.2885233561	-0.9397016529	-0.368420267	 0.105352
H	 2.5563189652	 0.4896276302	-1.0853330026	 0.104828
H	 3.8623444863	 0.4164284378	 1.465921287	 0.103976
H	 2.799872489	 1.7057885335	 0.9439715439	 0.107563
H	 2.2075487071	-0.5456846833	 2.8436902748	 0.123253
H	 1.3478315747	 0.9867191733	 2.6848635638	 0.101292
H	-0.3065919834	-1.5720062421	 2.9334680701	 0.10513
H	-0.7076372219	-2.1971819786	 1.3227016656	 0.087734
H	 1.4790403464	-3.0095136682	 1.3196968424	 0.28859
74.3413	117.6987	137.6913	173.5772	197.3398	260.2461	305.1142	338.6375	469.9605	509.546	532.3149	626.846	690.3706	721.8825	760.6772	798.4901	840.0414	898.4684	921.9106	944.1733	1000.3229	1017.6071	1033.5135	1046.1255	1078.5854	1104.4871	1148.9947	1164.2329	1187.4138	1203.8235	1238.1634	1255.1913	1282.4726	1308.2413	1327.8714	1347.2847	1357.7976	1393.1622	1414.5202	1425.7459	1451.8378	1483.3842	1492.8244	1498.2828	1500.4213	1508.8204	1521.7544	2992.2182	3037.4682	3041.6178	3049.1607	3064.0837	3067.2917	3071.2541	3087.7398	3089.1555	3092.4733	3107.9333	3143.659	3782.7278
CC1N2CCCC12CO	C[C@H]1N2CCC[C@@]12CO	
InChI=1S/C7H13NO/c1-6-7(5-9)3-2-4-8(6)7/h6,9H,2-5H2,1H3	InChI=1S/C7H13NO/c1-6-7(5-9)3-2-4-8(6)7/h6,9H,2-5H2,1H3/t6-,7-,8?/m1/s1
