17
gdb 107300	3.42334	1.35735	1.18752	3.1088	67.43	-0.2455	0.0445	0.29	1064.5719	0.135592	-458.877677	-458.86999	-458.869046	-458.910258	29.327	
O	-0.0257522847	 1.436785523	 0.2432314941	-0.409943
C	 0.0417059787	 0.0447498068	-0.0134295337	-0.189752
C	-1.3166628255	-0.5536669953	-0.1906576119	 0.38643
O	-2.095629622	-0.7640550653	 0.9996623214	-0.275457
C	-1.8951494266	-1.8792635643	 0.1308327329	-0.078037
C	-2.9246636489	-1.7736639427	-1.0229378735	-0.128135
C	-4.2117198904	-0.9715311465	-0.7222598943	-0.082261
O	-3.5602995375	 0.2821081901	-1.059502422	-0.283452
C	-2.3324076625	-0.3878109817	-1.3681199412	 0.042996
H	-0.5977814043	 1.5584723899	 1.0093499924	 0.297134
H	 0.6239391534	-0.0658473046	-0.9346589178	 0.114736
H	 0.5680474272	-0.4989700402	 0.7863502648	 0.099142
H	-1.4452455859	-2.7672960852	 0.5613784326	 0.109475
H	-2.9567786995	-2.5976718902	-1.7324924382	 0.090293
H	-5.0413159112	-1.1775145091	-1.4079684966	 0.102512
H	-4.5628222206	-0.9863984137	 0.313176804	 0.117601
H	-1.9020414299	-0.114278451	-2.3347180531	 0.086717
67.4463	114.7279	228.5067	256.5861	336.4121	362.7796	396.6443	492.87	608.7464	698.4495	728.441	808.4599	828.9966	862.8928	891.0355	936.2373	958.2905	984.423	1001.4506	1022.8263	1027.0635	1069.8447	1083.2167	1147.6645	1162.7825	1174.7423	1201.1466	1241.7557	1257.8946	1281.6233	1295.3123	1355.7097	1365.8498	1417.8634	1455.8183	1488.4308	1505.4312	2988.4685	3033.3984	3072.571	3084.6099	3095.5833	3140.6232	3178.7029	3805.474
OCC12OC1C1COC21	OC[C@]12O[C@H]1[C@H]1CO[C@@H]21	
InChI=1S/C6H8O3/c7-2-6-4-3(1-8-4)5(6)9-6/h3-5,7H,1-2H2	InChI=1S/C6H8O3/c7-2-6-4-3(1-8-4)5(6)9-6/h3-5,7H,1-2H2/t3-,4+,5-,6+/m0/s1
