16
gdb 46680	3.07676	1.73863	1.34982	2.6712	68.44	-0.2343	-0.0046	0.2297	936.9858	0.126907	-437.804588	-437.798158	-437.797214	-437.835358	26.018	
O	-0.0640516697	-0.0363327012	-0.030269715	-0.333992
C	 0.0219940711	 1.1533888936	 0.0069202065	 0.362232
O	-1.0850863363	 1.9652535485	 0.1870514299	-0.251283
C	-0.7957284207	 3.4001637637	 0.1176508052	-0.137306
C	 0.5863271227	 3.4389520898	-0.5331712009	 0.018954
N	 1.9864370069	 3.8851350049	 0.0294500378	-0.173158
C	 1.6867153342	 2.9064423517	 1.1755452799	-0.197808
C	 1.1730816843	 2.1233888548	-0.0641088284	 0.111485
C	 2.4892352395	 2.6158988192	-0.7181819696	-0.244554
H	-1.5748768206	 3.8454403477	-0.5033208281	 0.131785
H	-0.8650193401	 3.8214445615	 1.1227534413	 0.134794
H	 0.5305302768	 3.6135785359	-1.6102089693	 0.096745
H	 2.5827317455	 2.5216548894	 1.6661197395	 0.117346
H	 0.9740483618	 3.2784445772	 1.9109645153	 0.12035
H	 2.5053071008	 2.7225101066	-1.804544665	 0.12232
H	 3.4365178839	 2.2417733867	-0.3266799891	 0.122089
157.0951	190.8496	308.4192	374.1469	485.8772	545.1846	619.978	630.186	682.1469	715.3164	752.4116	816.1584	842.6724	909.991	968.6655	969.3819	994.476	1021.3342	1035.7479	1061.9767	1070.7875	1119.0482	1144.8757	1158.8882	1191.6313	1198.0726	1209.8679	1260.7958	1297.0497	1363.8553	1399.1858	1501.3835	1520.603	1557.9928	1890.8458	3072.2564	3073.707	3079.1186	3086.6168	3125.8863	3148.5827	3152.4988
O=C1OCC2N3CC12C3	O=C1OC[C@H]2N3C[C@@]12C3	
InChI=1S/C6H7NO2/c8-5-6-2-7(3-6)4(6)1-9-5/h4H,1-3H2	InChI=1S/C6H7NO2/c8-5-6-2-7(3-6)4(6)1-9-5/h4H,1-3H2/t4-/m1/s1
