19
gdb 41298	3.60473	1.71141	1.62078	1.6585	78.	-0.237	0.0799	0.3169	905.7274	0.162538	-385.801827	-385.795765	-385.79482	-385.831774	26.902	
C	 0.022839492	 1.4614184353	 0.2336190437	-0.14433
O	 1.4119505673	 1.5824467809	-0.236309038	-0.359396
C	 1.2680674799	 0.2890213582	-0.8080673971	 0.471137
C	 2.1046543939	-0.9705017071	-0.8978705368	-0.313981
C	 0.9435100124	-1.7124313718	-1.6596649721	-0.04725
C	 0.9460204489	-0.9532785585	-3.0109214839	-0.24107
C	 0.3905832088	 0.1875589694	-2.1613038239	-0.090661
C	-0.3683127893	-0.8199473661	-1.2544809066	-0.067914
C	 0.0321083757	-0.0844317526	 0.0144949296	-0.10112
H	-0.06118485	 1.7798374999	 1.2753446537	 0.114148
H	-0.6613070494	 2.0460520135	-0.3897792126	 0.110266
H	 3.0081822717	-0.9279104857	-1.51222657	 0.10334
H	 2.3513434547	-1.383812096	 0.0829786773	 0.099818
H	 0.9296187617	-2.8002920836	-1.6034756769	 0.069388
H	 1.9045057011	-0.8349904312	-3.5268603024	 0.09153
H	 0.1954719222	-1.3306856138	-3.7124776507	 0.096995
H	-0.0278257813	 1.1131377677	-2.5520547322	 0.06987
H	-1.3380963319	-1.2581957811	-1.4951834938	 0.065041
H	 0.1540776417	-0.6451811773	 0.9439186427	 0.074191
261.1839	316.16	351.0419	451.1547	473.9653	538.411	670.5029	675.9664	755.3529	776.253	802.1943	821.6906	870.7459	892.1679	907.6535	928.1264	946.3563	978.6246	992.706	1014.4872	1035.6143	1054.0065	1057.8802	1093.301	1123.31	1155.9875	1159.8969	1170.024	1180.3998	1204.5616	1216.6851	1239.9125	1261.4937	1266.8901	1285.5485	1325.2791	1340.4432	1352.2426	1493.2931	1507.5252	1516.5921	3038.5707	3044.9249	3058.9892	3076.04	3091.2907	3096.411	3108.3633	3110.5726	3121.6843	3133.5648
C1OC23CC4CC2C4C13	C1O[C@]23C[C@@H]4C[C@H]2[C@@H]4[C@H]13	
InChI=1S/C8H10O/c1-4-2-8-5(1)7(4)6(8)3-9-8/h4-7H,1-3H2	InChI=1S/C8H10O/c1-4-2-8-5(1)7(4)6(8)3-9-8/h4-7H,1-3H2/t4-,5-,6-,7+,8+/m0/s1
