17
gdb 34911	2.92108	1.67438	1.34126	2.5665	76.7	-0.2271	0.0466	0.2737	977.976	0.137204	-380.776148	-380.768877	-380.767933	-380.807676	29.396	
C	-0.0551012667	-1.2373343434	 0.0090752606	-0.473606
C	-0.0234525718	-0.0363632595	 0.0219633265	 0.373673
C	-0.0001324263	 1.4205228097	 0.0331330026	-0.180406
C	-0.7388227153	 2.0552817956	 1.2227309331	-0.043761
N	-0.1745015857	 1.7164289536	 2.5357285808	-0.328504
C	 0.2046104384	 2.9897187883	 1.8859919914	-0.051258
C	 1.5130845162	 2.9345039087	 1.1318086929	-0.026587
C	 2.2606584179	 1.6504553744	 1.1321177659	-0.24512
N	 1.3838632399	 1.9865455296	-0.0000249737	-0.111123
H	-0.0795375336	-2.2987743406	-0.0018263747	 0.196071
H	-0.4882397036	 1.7844635525	-0.8806567082	 0.113296
H	-1.8026294906	 2.251054249	 1.1286315307	 0.096809
H	-0.8662919913	 1.8876588303	 3.2612435241	 0.235873
H	-0.11847154	 3.9293585753	 2.3200509269	 0.092166
H	 2.004881107	 3.8797924827	 0.92059952	 0.090042
H	 3.3170876271	 1.637697404	 0.8780991324	 0.109913
H	 1.9345508584	 0.8946858598	 1.8376150087	 0.152522
114.4273	136.2185	285.3512	304.7767	388.7053	507.6072	516.0332	547.4231	617.3762	649.2948	695.2703	710.4114	758.3295	809.683	856.9397	861.4164	879.0011	894.8888	968.9205	1015.4939	1037.7248	1045.6575	1068.5599	1097.5601	1120.1568	1137.5642	1163.3937	1166.9762	1236.4548	1260.7081	1302.1652	1336.6598	1355.3829	1381.6501	1421.2488	1495.7271	2240.2915	3017.127	3116.9407	3146.7953	3155.0756	3178.1738	3218.9768	3501.7107	3505.1541
C#CC1C2NC2C2CN12	C#C[C@H]1[C@H]2N[C@H]2[C@H]2CN12	
InChI=1S/C7H8N2/c1-2-4-6-7(8-6)5-3-9(4)5/h1,4-8H,3H2	InChI=1S/C7H8N2/c1-2-4-6-7(8-6)5-3-9(4)5/h1,4-8H,3H2/t4-,5+,6+,7-,9?/m0/s1
