15
gdb 130245	5.82925	1.00368	0.91275	1.27	69.56	-0.2376	-0.0185	0.2191	1241.8893	0.114916	-450.104818	-450.097201	-450.096257	-450.137368	28.364	
N	-0.0153180879	 1.3467987162	-0.1115580998	-0.585801
C	-0.0066899587	-0.0145138513	 0.0262204715	 0.407199
N	-1.0647646429	-0.7157384045	 0.3686355673	-0.21255
O	-0.5406170698	-2.0306195626	 0.4517213405	-0.228222
C	 0.7560443829	-1.9461942513	 0.1381359772	 0.461359
N	 1.1539519818	-0.7406024206	-0.1406607492	-0.372185
C	 1.5570441035	-3.1759931511	 0.1335508641	-0.119233
C	 1.3162131441	-4.2107026433	 1.1862831646	-0.228703
N	 0.9214508436	-4.4663281648	-0.1969660732	-0.311843
H	 0.7060439093	 1.7057326481	-0.7175297065	 0.26965
H	-0.9243685368	 1.7603885684	-0.2520178077	 0.268613
H	 2.5553845939	-3.0337259832	-0.2643325372	 0.125311
H	 2.1601408836	-4.7936228963	 1.5429366273	 0.134063
H	 0.5466765837	-4.0011847688	 1.9230967615	 0.139068
H	-0.0816414303	-4.327163255	-0.3003122104	 0.253274
61.3854	155.2656	170.8035	290.4467	327.5867	373.5638	421.0303	494.9558	553.2557	652.7427	727.0334	765.1374	795.638	823.3313	886.0037	926.2041	970.9803	998.8321	1023.7223	1049.9094	1108.8895	1127.5996	1136.4339	1174.6686	1267.9929	1302.5218	1339.8789	1372.8206	1451.4855	1503.8345	1585.7233	1639.7233	1659.587	3118.9245	3183.1591	3212.2383	3502.5169	3587.8471	3698.582
NC1=NOC(=N1)C1CN1	Nc1noc(n1)[C@H]1CN1	
InChI=1S/C4H6N4O/c5-4-7-3(9-8-4)2-1-6-2/h2,6H,1H2,(H2,5,8)	InChI=1S/C4H6N4O/c5-4-7-3(9-8-4)2-1-6-2/h2,6H,1H2,(H2,5,8)/t2-/m1/s1
