18
gdb 127092	4.11733	1.06452	0.85917	3.7132	78.17	-0.1949	0.0333	0.2282	1336.581	0.147729	-435.256763	-435.247462	-435.246518	-435.290916	33.773	
C	 0.043600591	 1.4189597058	 0.0416916746	-0.333761
N	-0.0001207336	-0.0100824646	-0.200033554	-0.17165
C	 1.1978413483	-0.7718288221	 0.12250264	-0.346264
C	-1.2193026821	-0.6192769971	-0.1142353037	 0.583673
C	-2.496617343	-0.1264491986	-0.0291103644	-0.478808
C	-3.296080524	-1.303453773	-0.0523601495	 0.429987
N	-4.6820211824	-1.3592802018	-0.0700230518	-0.591675
N	-2.585241168	-2.4089703126	-0.115041512	-0.249978
O	-1.235972576	-1.9591959947	-0.1629003455	-0.248696
H	 1.012376788	 1.8046072578	-0.2856986978	 0.130378
H	-0.7342708008	 1.9192984239	-0.5410271686	 0.141467
H	-0.0936703013	 1.678945832	 1.1031591354	 0.118912
H	 1.3866169635	-0.8217275702	 1.2059912717	 0.11954
H	 1.1004123261	-1.7878584185	-0.2580947338	 0.165627
H	 2.0586938618	-0.2974421392	-0.3568870065	 0.125489
H	-2.8233323337	 0.8967792487	 0.0232782679	 0.100483
H	-5.1253450186	-0.6684575522	 0.5187955809	 0.249507
H	-5.0308367951	-2.2885884835	 0.1265123772	 0.255771
70.923	112.5576	159.1113	167.9924	212.5065	240.5095	301.1119	361.7401	384.7204	391.236	536.719	574.4873	639.5298	684.9647	701.7377	741.7209	770.6631	924.4859	932.4541	1018.2524	1039.9118	1087.8134	1129.5195	1139.9016	1168.874	1179.8262	1242.4452	1311.6854	1387.6845	1448.0879	1467.939	1486.6364	1493.3003	1500.1415	1511.6622	1520.8277	1586.6458	1646.1184	1664.5247	2981.6017	2989.3762	3080.8122	3085.4469	3122.558	3158.835	3285.5913	3550.558	3649.7448
CN(C)C1=CC(N)=NO1	CN(C)c1cc(N)no1	
InChI=1S/C5H9N3O/c1-8(2)5-3-4(6)7-9-5/h3H,1-2H3,(H2,6,7)	InChI=1S/C5H9N3O/c1-8(2)5-3-4(6)7-9-5/h3H,1-2H3,(H2,6,7)
