17
gdb 67509	2.61288	1.71514	1.29638	5.2798	73.82	-0.2305	0.0309	0.2614	1008.3326	0.134871	-417.927046	-417.919185	-417.918241	-417.959154	30.387	
C	-0.1411559566	 1.6783624999	 0.1120680773	-0.499007
C	 0.0459616006	 0.1926397959	 0.1279596259	 0.310894
C	-1.1336266018	-0.8434043564	-0.0437733448	-0.11314
N	-0.5481009657	-2.1070744325	-0.5127171689	-0.3202
C	-0.4903453945	-1.7555333928	 0.9240781792	-0.058846
C	 0.688927769	-0.7404342671	 1.1331195097	-0.115049
N	 1.3270110195	-0.4185908403	-0.1073945769	-0.099136
C	 1.7896990562	-1.2852245033	-1.1005410191	 0.175309
O	 2.5554523148	-2.1909058328	-0.8951780121	-0.307864
H	 0.7538081496	 2.1792405237	 0.4893386351	 0.140296
H	-0.3320811952	 2.0398273899	-0.905145354	 0.130382
H	-0.9939799707	 1.9689020879	 0.7348798262	 0.125211
H	-2.1744375593	-0.5911811018	-0.1990368722	 0.102068
H	-1.2912996055	-2.7903138719	-0.6477678508	 0.241954
H	-0.9197611023	-2.3956345956	 1.6818577507	 0.107498
H	 1.1670545935	-0.5336501889	 2.0831084183	 0.108849
H	 1.4784214882	-0.950504324	-2.1076319135	 0.07078
129.4599	172.3186	207.1418	226.6275	262.6209	293.0982	429.0845	468.5932	550.1685	650.3289	700.5197	749.857	795.1469	819.5057	835.5108	895.4682	916.7409	940.1799	957.6191	986.4228	1018.6059	1029.7744	1068.963	1094.6082	1118.5266	1161.1287	1208.7254	1227.2098	1283.6269	1290.3865	1344.1939	1407.3053	1412.4842	1462.4523	1483.7364	1494.1999	1807.2267	2956.1424	3030.6463	3090.4635	3123.8254	3187.3958	3199.6635	3220.1688	3493.8222
CC12C3NC3C1N2C=O	C[C@]12[C@H]3N[C@H]3[C@H]1N2C=O	
InChI=1S/C6H8N2O/c1-6-4-3(7-4)5(6)8(6)2-9/h2-5,7H,1H3	InChI=1S/C6H8N2O/c1-6-4-3(7-4)5(6)8(6)2-9/h2-5,7H,1H3/t3-,4+,5-,6+,8?/m1/s1
