15
gdb 75663	2.98529	1.29676	1.10374	2.6775	73.93	-0.2461	-0.0402	0.2059	1111.3088	0.109362	-420.565909	-420.557468	-420.556523	-420.598986	31.303	
C	-0.0426864327	 1.5953171684	 0.0704666875	-0.418427
C	 0.0281194109	 0.0788344631	-0.024277576	-0.200082
C	 1.1167487474	-0.5917971189	-0.9212394259	 0.42577
O	 1.317301428	-0.6107401849	-2.0974214735	-0.295586
C	 1.7115262933	-1.3250716105	 0.2794511434	-0.193146
O	 2.0255457963	-0.2811788202	 1.220898226	-0.274198
C	 0.6595648418	-0.7102813418	 1.1500526124	 0.284349
C	 0.0159964516	-1.2345036584	 2.3034976749	 0.167145
C	-0.5738987882	-1.6485493091	 3.2657188543	-0.355527
H	 0.9075807429	 2.0020114337	 0.4243582479	 0.141325
H	-0.2552079983	 2.0222602382	-0.9140402588	 0.138215
H	-0.8353763784	 1.9104169782	 0.7557994294	 0.129524
H	-0.9391125399	-0.3537179669	-0.308602774	 0.115685
H	 2.2464488974	-2.263395362	 0.3681939498	 0.135689
H	-1.083670322	-2.022653779	 4.1194125125	 0.199263
84.8673	131.4518	185.6191	205.8164	222.2352	270.7148	406.8973	498.0529	517.438	543.6268	594.9419	624.5864	665.028	681.6249	709.1939	776.5551	853.4919	870.3766	995.5377	1021.1997	1055.6305	1080.3304	1114.6144	1172.6027	1204.0859	1214.9716	1326.1439	1393.877	1406.1143	1492.0189	1502.3507	1904.4687	2243.9379	3044.5335	3048.4291	3112.962	3131.1352	3197.4792	3499.5113
CC1C(=O)C2OC12C#C	C[C@H]1C(=O)[C@H]2O[C@@]12C#C	
InChI=1S/C7H6O2/c1-3-7-4(2)5(8)6(7)9-7/h1,4,6H,2H3	InChI=1S/C7H6O2/c1-3-7-4(2)5(8)6(7)9-7/h1,4,6H,2H3/t4-,6+,7-/m0/s1
