18
gdb 82124	3.13121	1.1778	0.98301	2.6683	77.19	-0.2372	0.0532	0.2904	1220.8298	0.146235	-401.857177	-401.848325	-401.847381	-401.891105	33.257	
O	-0.0104190438	 1.4698400708	-0.0131273462	-0.425067
C	 0.0113746824	 0.0580840843	-0.0451000758	 0.059056
C	-1.3204895191	-0.6882304345	 0.050378709	-0.065161
C	-2.2155059199	-0.2823679008	-1.0486713528	-0.24524
N	-1.1709291684	-1.2758302277	-1.3496558418	-0.127173
C	 0.1378845551	-0.5316515851	-1.4757542056	 0.031746
C	 0.3116081867	 0.4277991333	-2.6564554108	-0.36949
C	 0.2908438758	-0.2600906396	-3.9414774709	 0.300404
C	 0.27784174	-0.8413634054	-4.9930957255	-0.436853
H	-0.211661203	 1.7549740899	 0.8842759355	 0.286373
H	 0.7711581515	-0.3411040533	 0.6382261339	 0.077211
H	-1.6442569746	-1.2992453543	 0.8868579155	 0.092628
H	-3.2102212453	-0.715908656	-1.0666558089	 0.12397
H	-2.1526086613	 0.7261527951	-1.4457204137	 0.125755
H	 0.9259825669	-1.2869642173	-1.5178350439	 0.098885
H	-0.45142904	 1.2118348718	-2.6353236278	 0.140169
H	 1.2685094225	 0.948792275	-2.5253604133	 0.139867
H	 0.2612348843	-1.3498744561	-5.9247548171	 0.192921
47.3451	113.8282	159.1946	211.7606	218.902	302.1283	343.1366	391.1796	495.4653	553.8816	571.8646	618.7773	636.4444	740.2131	765.4563	767.384	848.9145	905.3743	956.7272	968.449	1000.4662	1039.3706	1057.3888	1091.7132	1109.9492	1135.5889	1146.2972	1188.0895	1216.1598	1244.3641	1280.43	1316.6126	1324.1916	1367.8094	1388.5806	1417.5937	1462.4255	1502.1614	2241.1804	3021.6792	3036.6032	3072.9214	3089.361	3127.0787	3162.897	3212.4896	3507.9075	3811.9709
OC1C2CN2C1CC#C	O[C@H]1[C@H]2CN2[C@H]1CC#C	
InChI=1S/C7H9NO/c1-2-3-5-7(9)6-4-8(5)6/h1,5-7,9H,3-4H2	InChI=1S/C7H9NO/c1-2-3-5-7(9)6-4-8(5)6/h1,5-7,9H,3-4H2/t5-,6+,7+,8?/m0/s1
