17
gdb 74286	3.05929	1.1802	1.13687	1.6731	75.92	-0.2298	0.0393	0.2691	1161.3255	0.135211	-417.998815	-417.989837	-417.988892	-418.032713	33.859	
C	 0.0659882193	 1.4251875024	 0.0935324264	-0.413597
C	-0.0536257024	-0.109448099	 0.0230575869	 0.079721
C	 0.7705046279	-0.706181633	-1.1741681404	-0.143152
O	 1.8831366994	-1.3645478077	-0.5447608501	-0.252137
C	 1.618372209	-1.3278780038	 0.789642156	 0.472284
N	 2.5730293979	-1.9365800401	 1.5544564567	-0.57949
N	 0.5829084885	-0.7135665985	 1.2117722229	-0.362868
C	-1.4647869614	-0.4964358657	-0.0726519228	 0.332354
C	-2.6224465561	-0.7990000704	-0.1851143847	-0.481025
H	 1.1220991653	 1.710178577	 0.12164605	 0.117738
H	-0.4087581304	 1.8942184014	-0.7738316557	 0.117326
H	-0.4172470771	 1.7925869838	 1.0011719345	 0.13828
H	 0.2011621684	-1.4438041429	-1.7447577977	 0.124966
H	 1.1574852379	 0.0616569009	-1.8484273487	 0.120611
H	 3.0761047057	-2.6853579908	 1.104353436	 0.264101
H	 2.2838847819	-2.1232918446	 2.5016791067	 0.270798
H	-3.645213854	-1.072568109	-0.267385426	 0.194088
37.2349	145.3705	171.2773	205.829	254.304	324.3	375.2255	404.7723	432.8394	494.9793	542.2042	555.7996	601.2206	623.2678	643.4401	701.6605	739.6526	822.0029	919.5275	923.4729	950.9591	968.6606	1056.8442	1125.2856	1149.5527	1171.9227	1217.1365	1252.0489	1346.0899	1398.5753	1431.4916	1481.9279	1491.0752	1520.9987	1617.5128	1749.6744	2235.9752	3038.9308	3061.9471	3113.5955	3115.6072	3135.9597	3502.2619	3592.0627	3706.4991
CC1(COC(N)=N1)C#C	C[C@]1(COC(=N1)N)C#C	
InChI=1S/C6H8N2O/c1-3-6(2)4-9-5(7)8-6/h1H,4H2,2H3,(H2,7,8)	InChI=1S/C6H8N2O/c1-3-6(2)4-9-5(7)8-6/h1H,4H2,2H3,(H2,7,8)/t6-/m1/s1
