14
gdb 66051	2.51824	1.33866	1.12513	4.6334	67.16	-0.2736	-0.0233	0.2503	1090.6868	0.100311	-432.848139	-432.839562	-432.838618	-432.881621	30.548	
O	-0.0695746525	 1.4351276302	-0.1175824563	-0.435154
C	 0.0265694985	 0.0432359089	-0.0332899332	 0.269364
C	 0.1478695245	-0.5364094674	 1.4136640985	-0.218321
N	-1.3169365381	-0.72900027	 1.4370626981	-0.302721
C	-1.4095217095	-0.5969678224	-0.0296169288	-0.187847
C	-2.5103678701	 0.227703134	-0.5238085639	 0.340936
N	-3.3983766545	 0.8468851826	-0.9255851888	-0.31681
C	 0.9658786805	-0.5021213812	-1.0186518376	 0.229079
N	 1.7323314774	-0.9209750393	-1.7754454932	-0.320668
H	 0.811490382	 1.819643623	-0.041165909	 0.304618
H	 0.7462757921	-1.4545371898	 1.4492011744	 0.125397
H	 0.5186244968	 0.1780522689	 2.154440268	 0.132068
H	-1.6488551379	-1.610143922	 1.8100444181	 0.242452
H	-1.4064922793	-1.5452057855	-0.5824331763	 0.137607
76.8438	135.79	143.7377	197.5301	229.2951	267.8	357.494	382.1985	469.3812	514.2645	565.5483	603.6232	612.9604	724.5946	873.3232	926.61	970.1899	994.1819	1023.8501	1070.2073	1137.3177	1155.9438	1178.8079	1258.2259	1315.9891	1352.2441	1367.2111	1393.4707	1501.9298	2354.3218	2367.7142	3024.678	3030.3069	3091.3703	3557.5138	3804.9793
OC1(CNC1C#N)C#N	O[C@]1(CN[C@H]1C#N)C#N	
InChI=1S/C5H5N3O/c6-1-4-5(9,2-7)3-8-4/h4,8-9H,3H2	InChI=1S/C5H5N3O/c6-1-4-5(9,2-7)3-8-4/h4,8-9H,3H2/t4-,5-/m0/s1
