15
gdb 31391	2.9817	1.37814	0.94809	6.6601	72.13	-0.2403	-0.0424	0.1979	1160.3861	0.114656	-450.15616	-450.148277	-450.147332	-450.189331	28.824	
O	 0.0945725816	 1.4002669923	-0.2098927133	-0.412592
C	 0.0447263247	 0.014914556	-0.0913850479	-0.127627
C	-1.381605268	-0.4812700354	 0.0046962205	 0.370889
N	-2.3365752402	 0.3666423325	-0.030130495	-0.318493
C	-3.6705672892	-0.0893717132	 0.0588999393	 0.361254
N	-4.6125642554	 0.7646728725	 0.0222853109	-0.503619
N	-3.910271529	-1.4868695882	 0.1861989583	-0.285932
C	-2.9026792157	-2.268216915	 0.2133924264	 0.088196
N	-1.5957077379	-1.8369928314	 0.1268709871	-0.347199
H	-0.8329559559	 1.6962644791	-0.1995335366	 0.306044
H	 0.5238795861	-0.4765704832	-0.9561685966	 0.114309
H	 0.5909175581	-0.3283322557	 0.8046244027	 0.11434
H	-5.499907778	 0.2655053411	 0.0980883912	 0.223764
H	-3.0351886537	-3.3444986239	 0.3092864662	 0.141227
H	-0.8288900076	-2.4900772875	 0.1519977969	 0.27544
57.2704	103.6004	178.4688	199.4015	399.204	418.2418	428.1033	494.6059	497.6444	580.526	595.7914	620.2871	769.1227	798.6013	910.9792	916.7175	967.1287	1010.2539	1034.555	1068.3493	1131.078	1165.5047	1229.5302	1252.4065	1321.1527	1340.8254	1415.7463	1465.0917	1497.9393	1508.4111	1659.7407	1712.0262	1749.9954	2955.3475	2967.8439	3151.4372	3483.9846	3631.1925	3639.8938
OCC1=NC(=N)N=CN1	OC[C@@H]1N=C([NH])N=CN1	
InChI=1S/C4H6N4O/c5-4-7-2-6-3(1-9)8-4/h2,9H,1H2,(H2,5,6,7,8)	InChI=1S/C4H7N4O/c5-4-7-2-6-3(1-9)8-4/h2-3,5,9H,1H2,(H,6,7,8)/t3-/m0/s1
