18
gdb 108273	2.52397	1.63753	1.33623	2.9252	71.43	-0.248	0.0064	0.2544	1018.4986	0.148888	-439.053144	-439.045209	-439.044265	-439.085496	30.51	
O	 0.1871705586	 1.3284503664	 0.136594298	-0.41173
C	 0.0625420266	-0.0798029376	 0.13780426	-0.127527
C	-1.388321722	-0.5856441765	 0.126839038	 0.142973
C	-2.3523327905	 0.3422982543	 0.9342399352	-0.159528
O	-2.8587593974	 0.9253317484	-0.343829474	-0.279968
C	-2.2585230681	-0.1178551887	-0.992232909	 0.388113
N	-2.5385236912	-0.8407562602	-1.9869991308	-0.313228
C	-1.7657341955	-2.0915591463	-1.7015006703	-0.159742
C	-1.4932882587	-2.0982559648	-0.1461166131	-0.319279
H	-0.2075845406	 1.6719450305	-0.6723071684	 0.296378
H	 0.6068068707	-0.5359885424	-0.7028799721	 0.104007
H	 0.54881695	-0.417480723	 1.0600143107	 0.119094
H	-3.1736277232	-0.1566979098	 1.4532795948	 0.126748
H	-1.8794513929	 1.1148580196	 1.5386774448	 0.142572
H	-2.3694670056	-2.9483058624	-2.0108581719	 0.119762
H	-0.8350809931	-2.1250425949	-2.282040498	 0.110386
H	-0.6004736705	-2.666221169	 0.1319004681	 0.104804
H	-2.3510772067	-2.5381686737	 0.371773508	 0.116165
101.6996	156.8959	189.9938	269.0239	296.7072	323.7493	349.6584	450.827	515.6875	646.4044	694.5331	713.6703	777.2204	836.2735	845.2803	885.7857	920.5231	939.1049	984.5832	996.0054	1058.6772	1092.7665	1135.7184	1147.6311	1189.7196	1193.9101	1221.1798	1238.6327	1277.6856	1296.0116	1311.9807	1356.9302	1393.7974	1424.3654	1477.9847	1482.4893	1498.7304	1506.7485	1768.4388	2990.5199	3028.9203	3052.5014	3065.0087	3076.5566	3092.8139	3105.4946	3165.3822	3810.1236
OCC12COC1=NCC2	OC[C@@]12CO[C]1[N]CC2	
InChI=1S/C6H9NO2/c8-3-6-1-2-7-5(6)9-4-6/h8H,1-4H2	InChI=1S/C6H9NO2/c8-3-6-1-2-7-5(6)9-4-6/h8H,1-4H2/t6-/m0/s1
