23
gdb 59235	2.4277	1.30438	1.1725	1.7604	84.71	-0.2474	0.0787	0.3261	1232.1786	0.204358	-388.257557	-388.247864	-388.24692	-388.291971	36.92	
C	-1.8039456493	 0.2654027026	 0.3079935317	-0.385254
C	-0.2805904067	 0.2197360363	 0.114364164	 0.011774
C	 0.2494109306	 1.6336566786	-0.1828696611	-0.39072
C	 0.511805039	-0.3952812467	 1.2798187542	-0.002419
C	 0.1348882856	-0.0983715989	 2.7401260515	-8.*^-6
O	-1.0773786005	-0.8013896949	 3.0542481916	-0.242913
C	 0.155811015	-1.5261502965	 3.0929742139	 0.019736
C	 0.484795772	-1.9467438294	 1.6517021609	-0.050595
C	-0.4778556736	-2.913216639	 0.9739963575	-0.41281
H	-2.0743311537	 0.8807264276	 1.1717156005	 0.121567
H	-2.277066351	 0.7051091962	-0.5768889948	 0.099909
H	-2.2364231037	-0.7231760819	 0.4654594564	 0.121723
H	-0.0710544835	-0.4006519419	-0.7695256476	 0.072041
H	 0.0994766522	 2.2969991448	 0.6775133189	 0.113463
H	 1.3199252565	 1.6239353077	-0.4138873413	 0.107052
H	-0.2743460753	 2.0788955497	-1.0349045861	 0.11059
H	 1.5661804455	-0.1276476025	 1.1413945177	 0.071921
H	 0.3609702448	 0.7733644315	 3.3441052198	 0.098058
H	 0.409391455	-2.0175416493	 4.0258611806	 0.097924
H	 1.5064927191	-2.3354997963	 1.5877808931	 0.074273
H	-1.5159492967	-2.651897769	 1.1899554851	 0.138662
H	-0.3420942461	-2.9173600297	-0.1126583115	 0.11517
H	-0.3071985954	-3.935613469	 1.3295364649	 0.110854
49.629	134.2558	165.74	215.3146	220.8711	244.0636	250.2084	293.9522	336.8363	375.0246	474.2521	550.5881	644.7381	719.5142	751.8376	838.2547	858.7093	865.9452	890.0551	906.3754	928.5065	965.3613	986.832	1014.6294	1044.0799	1068.9846	1072.4172	1108.955	1128.6123	1165.5216	1200.1002	1222.5787	1243.1847	1250.6223	1285.5137	1329.4271	1352.4843	1364.8512	1382.9245	1392.8733	1401.8753	1410.0131	1428.4563	1480.6912	1490.4598	1494.1239	1502.9741	1507.6714	1510.1393	2993.0447	3023.269	3028.4787	3034.1947	3040.474	3054.5502	3088.9137	3092.1651	3098.2154	3102.4591	3126.4166	3143.115	3170.6016	3185.9532
CC(C)C1C2OC2C1C	CC(C)[C@H]1[C@H]2O[C@H]2[C@H]1C	
InChI=1S/C8H14O/c1-4(2)6-5(3)7-8(6)9-7/h4-8H,1-3H3	InChI=1S/C8H14O/c1-4(2)6-5(3)7-8(6)9-7/h4-8H,1-3H3/t5-,6+,7-,8+/m0/s1
