23
gdb 60209	3.63511	0.89271	0.7981	1.8172	85.34	-0.2485	0.0809	0.3294	1529.4338	0.204506	-388.25822	-388.248665	-388.24772	-388.293037	36.248	
C	-0.0445056034	 1.5772873821	-0.0594966691	-0.389179
C	 0.0345492162	 0.0477044714	 0.0429903167	 0.039049
C	 0.8504029811	-0.36536332	 1.2763660185	-0.379185
C	-1.3799546253	-0.5619265619	 0.0204415663	-0.184053
C	-1.4491747662	-2.0854964693	-0.057055062	-0.020259
C	-1.2918735051	-2.9702927474	 1.2450573084	-0.266243
C	-2.6900322942	-3.5357333662	 0.9743306165	 0.024691
O	-3.5959184172	-2.4248259036	 0.9658686134	-0.247454
C	-2.8502320508	-2.7032125942	-0.2266514229	 0.012312
H	 0.9543851928	 2.0250988482	-0.0918445303	 0.10725
H	-0.5831029223	 1.8912009199	-0.9598878104	 0.108266
H	-0.5694184138	 2.0002515141	 0.8055145139	 0.113145
H	 0.5659123797	-0.3197227299	-0.8479068821	 0.066599
H	 0.3472293846	-0.0551420818	 2.2002219251	 0.111781
H	 1.003807917	-1.446947245	 1.3271267586	 0.116452
H	 1.8380027285	 0.1079791664	 1.2639867555	 0.106979
H	-1.9461423393	-0.2248969032	 0.8977488178	 0.106234
H	-1.9090852788	-0.1572973815	-0.853951284	 0.088639
H	-0.7791430007	-2.4599052601	-0.8398594546	 0.072965
H	-0.4928302791	-3.7104664194	 1.1581966013	 0.10338
H	-1.1946953281	-2.4359412364	 2.1926378248	 0.110963
H	-3.1020010647	-4.5068534177	 1.2229603781	 0.102074
H	-3.4207234108	-2.8623060643	-1.1354854995	 0.095594
48.8232	89.1689	125.052	216.4721	231.7817	257.1709	272.7389	322.6538	406.3222	420.7924	450.9951	566.5481	731.7892	807.2453	823.0545	834.4156	848.6723	877.5273	924.8221	931.9991	939.4874	960.3538	968.6327	1000.3679	1007.8136	1050.1563	1098.4986	1121.596	1140.3563	1190.1279	1195.5447	1211.8963	1238.5833	1240.4559	1260.0335	1274.7331	1315.7059	1359.4319	1369.6319	1382.5208	1397.5247	1401.1481	1421.2802	1470.4953	1481.7309	1488.3789	1495.7415	1504.6073	1511.0259	2987.4348	3006.8772	3022.975	3028.1236	3037.9309	3059.9983	3066.7174	3086.8626	3092.6691	3097.6664	3108.2767	3123.9558	3171.6473	3190.5849
CC(C)CC1CC2OC12	CC(C)C[C@H]1C[C@H]2O[C@@H]12	
InChI=1S/C8H14O/c1-5(2)3-6-4-7-8(6)9-7/h5-8H,3-4H2,1-2H3	InChI=1S/C8H14O/c1-5(2)3-6-4-7-8(6)9-7/h5-8H,3-4H2,1-2H3/t6-,7+,8-/m0/s1
