21
gdb 12017	3.86354	1.30811	1.24694	1.017	80.62	-0.2304	0.0914	0.3218	1112.701	0.187468	-329.08782	-329.079027	-329.078083	-329.120803	33.461	
C	-0.0700290424	 1.5331285669	 0.0118193345	-0.450004
C	-0.0170153198	 0.0181255909	 0.010157011	 0.323959
C	-1.2367924121	-0.6548502913	-0.590199593	-0.448852
C	 1.3275464726	-0.6502436524	-0.1996165719	-0.350138
C	 0.667986873	-0.6936118159	 1.1572240552	 0.021985
N	 1.2644379911	 0.0789525634	 2.211759889	-0.060812
C	 0.6543393219	-0.0339950465	 3.5328216678	-0.223113
C	 1.9728057381	-0.6664957179	 3.2475921852	-0.220046
H	 0.7961376817	 1.9574199127	 0.5225901391	 0.132436
H	-0.0977275415	 1.9200591499	-1.0136335942	 0.106825
H	-0.9704449032	 1.8929885036	 0.5244750992	 0.106837
H	-1.3650225133	-0.3684114523	-1.6409583224	 0.113871
H	-1.1564574552	-1.7461538665	-0.5527963077	 0.108184
H	-2.1500073719	-0.3676348672	-0.0551981379	 0.111748
H	 1.375001953	-1.5646774949	-0.7818928487	 0.1028
H	 2.1968789304	-0.0077701034	-0.2892852028	 0.113918
H	 0.229829039	-1.6506586996	 1.4599000501	 0.061349
H	 0.5932723563	 0.885588524	 4.107966569	 0.115501
H	-0.2017838034	-0.6979171175	 3.6423819022	 0.109174
H	 1.9965525017	-1.7519497961	 3.1664556006	 0.109434
H	 2.892784114	-0.21662493	 3.6102948157	 0.114943
76.736	153.0237	163.1579	210.8046	234.0709	303.7011	343.4347	367.4304	372.701	445.5663	525.2396	706.5487	741.4987	824.6722	864.1817	892.9794	920.9896	926.3827	974.0301	986.9366	1020.431	1044.5264	1054.5317	1076.682	1109.7988	1116.2816	1122.4927	1131.1717	1159.1314	1174.5209	1204.7521	1286.9102	1326.2295	1335.3719	1405.9729	1417.1512	1421.4392	1482.0125	1486.1319	1491.8722	1492.5128	1504.3287	1513.7346	1520.5205	3017.0629	3024.0463	3031.6805	3075.4016	3078.9708	3093.5086	3093.7074	3098.3689	3127.8371	3133.1793	3175.5351	3190.2301	3216.7484
CC1(C)CC1N1CC1	CC1(C)C[C@H]1N1CC1	
InChI=1S/C7H13N/c1-7(2)5-6(7)8-3-4-8/h6H,3-5H2,1-2H3	InChI=1S/C7H13N/c1-7(2)5-6(7)8-3-4-8/h6H,3-5H2,1-2H3/t6-/m1/s1
