20
gdb 92378	2.04233	1.64055	1.22944	4.244	83.36	-0.2797	0.0219	0.3016	1127.9839	0.171863	-366.0126	-366.004046	-366.003102	-366.045957	32.751	
C	 0.1984228904	 1.6097012399	-0.0702382094	-0.420433
C	 0.0684147428	 0.1023279877	 0.0719805746	-0.009919
C	 0.8515597861	-0.839857836	-0.8910126879	-0.260807
C	 1.2951757247	-1.7276571092	 0.3051000965	-0.060355
C	 2.7230781407	-1.4535470778	 0.8221369565	-0.217817
C	 2.1969517142	-0.2443603038	 1.6485172791	-0.29131
C	 0.7185842536	-0.6289583905	 1.2933771542	 0.194727
C	-0.1417310333	-0.9362530284	 2.4103864392	 0.190107
N	-0.8388884391	-1.1873469693	 3.2999820667	-0.35314
H	 1.2443776852	 1.9324310062	-0.087161724	 0.117913
H	-0.260519703	 1.9427255049	-1.0073207996	 0.12398
H	-0.3040760466	 2.131372162	 0.751212509	 0.130289
H	-0.9913174495	-0.1704386633	 0.0567901758	 0.095688
H	 0.239873791	-1.336643788	-1.6463201441	 0.111551
H	 1.6923665993	-0.356180431	-1.3987859861	 0.101842
H	 0.9272145411	-2.7529675453	 0.3122341494	 0.08745
H	 3.1004003703	-2.2554936428	 1.4611328124	 0.11456
H	 3.4740910971	-1.2386442169	 0.0570605672	 0.103409
H	 2.4154347388	-0.2902814866	 2.7159474701	 0.129375
H	 2.4940723865	 0.7403665283	 1.2830162403	 0.112889
58.6256	125.0729	172.9444	213.4081	254.2244	319.7654	349.733	448.7244	513.3827	558.8958	579.3351	591.2561	745.8244	769.7989	830.9478	881.3399	889.9141	921.9562	950.3755	958.1348	1005.5218	1028.3707	1055.6981	1120.0896	1144.7744	1149.8708	1164.97	1182.3877	1226.6561	1245.8977	1260.0499	1265.4161	1283.3338	1310.2776	1321.8455	1376.221	1413.4884	1475.9584	1484.9486	1492.1124	1497.9439	1503.6839	2338.3735	3031.9896	3050.9171	3055.7054	3059.0834	3080.983	3099.321	3103.1117	3105.4516	3109.9667	3123.5992	3137.3961
CC1CC2CCC12C#N	C[C@H]1C[C@H]2CC[C@@]12C#N	
InChI=1S/C8H11N/c1-6-4-7-2-3-8(6,7)5-9/h6-7H,2-4H2,1H3	InChI=1S/C8H11N/c1-6-4-7-2-3-8(6,7)5-9/h6-7H,2-4H2,1H3/t6-,7+,8+/m0/s1
