21
gdb 82921	2.46885	1.7568	1.3757	1.388	80.97	-0.2162	0.0895	0.3057	1045.3093	0.182703	-387.066477	-387.058036	-387.057092	-387.098944	33.457	
C	-0.1587155482	 1.4968092484	-0.2058332141	-0.412296
C	 0.0359645427	 0.0117694283	 0.0056680284	-0.058303
C	 1.3817534288	-0.6589942249	-0.1274076526	 0.077178
O	 2.5324012307	 0.164224789	-0.1335792507	-0.264123
C	 2.7166334861	 0.6592358117	 1.1761194782	 0.073631
C	 2.9920379052	-0.3286510313	 2.2810878981	-0.374782
C	 1.5934965408	 0.2503700138	 2.0885904347	 0.310868
C	 0.9822794009	 1.1414334174	 3.1449198143	-0.482931
C	 0.7139932047	-0.6187345257	 1.2211046461	-0.171384
H	 0.712870782	 2.0735266421	 0.1080563705	 0.132503
H	-0.3254453781	 1.7094119901	-1.2673806177	 0.117858
H	-1.0294640975	 1.865947047	 0.3467785985	 0.114349
H	-0.7834852205	-0.5955377491	-0.3735816169	 0.084729
H	 1.5098794164	-1.5608650197	-0.7153034531	 0.095355
H	 3.1656234907	 1.6463080878	 1.1857274696	 0.097478
H	 3.1729433821	-1.3635205486	 2.0106541255	 0.114934
H	 3.5618475105	 0.0282965548	 3.1332512658	 0.108262
H	 1.7433660559	 1.7670421582	 3.6223544773	 0.113708
H	 0.2186646363	 1.8018510876	 2.7216252396	 0.121812
H	 0.5072579938	 0.5450038831	 3.9326846718	 0.117932
H	 0.2685078567	-1.5069716601	 1.6604178867	 0.083224
145.8495	157.93	168.3554	207.797	256.6818	294.4404	330.8351	441.2562	504.4643	553.3006	594.1474	718.3295	747.0681	770.7017	814.7553	844.9213	868.6411	908.9373	953.9035	963.3573	992.3066	1017.5332	1034.832	1064.2379	1069.6405	1090.37	1105.4051	1127.6101	1133.5917	1142.9057	1158.6758	1221.3291	1260.2838	1276.6782	1334.0544	1367.5889	1398.7279	1417.0273	1419.5855	1425.4058	1480.4803	1488.116	1491.2525	1502.5784	1503.2167	3026.3743	3036.2984	3087.01	3089.954	3102.4822	3120.0639	3126.0875	3136.4957	3141.6146	3171.2245	3173.7474	3216.9699
CC1C2OC3CC3(C)C12	C[C@H]1[C@H]2O[C@@H]3C[C@]3(C)[C@@H]12	
InChI=1S/C8H12O/c1-4-6-7(4)9-5-3-8(5,6)2/h4-7H,3H2,1-2H3	InChI=1S/C8H12O/c1-4-6-7(4)9-5-3-8(5,6)2/h4-7H,3H2,1-2H3/t4-,5-,6+,7-,8+/m1/s1
