17
gdb 40598	5.84945	0.98616	0.96942	1.8345	72.06	-0.237	0.0755	0.3125	1218.8379	0.135618	-421.695918	-421.6889	-421.687956	-421.727925	27.38	
C	 0.1606573688	 1.5710180515	-0.0299041709	-0.185372
O	 1.2406588804	 0.6421095036	-0.1241322585	-0.237216
C	-0.0915753491	 0.1238357395	-0.0362490381	 0.076641
C	-0.4313458265	-0.6316859322	 1.2149548921	-0.055264
C	-1.8753280541	-1.1693893365	 1.3801178073	-0.112034
C	-1.5954331594	-2.4253360327	 0.4904926311	 0.08467
O	-2.0854153233	-3.3825028681	 1.4735831031	-0.326948
C	-1.3901909354	-2.3671691367	 2.2544108625	 0.081467
C	-0.2372351065	-2.1684573405	 1.223175237	-0.101549
H	 0.0977697662	 2.1204177888	 0.9090151709	 0.112561
H	-0.0325075982	 2.1603620733	-0.9252872865	 0.115503
H	-0.4520403322	-0.3181645239	-0.9676274666	 0.08893
H	-0.022908549	-0.1136770167	 2.0892254121	 0.076253
H	-2.8183336229	-0.6308614258	 1.4738469117	 0.087254
H	-1.8090355205	-2.6089419138	-0.5615337756	 0.101664
H	-1.3493662483	-2.4681059558	 3.3384003963	 0.100455
H	 0.6752948403	-2.7572721142	 1.1379483022	 0.092986
70.3832	145.5927	174.1345	331.9241	429.7503	471.5257	571.573	748.783	782.9588	798.1922	834.2022	843.44	853.4491	889.02	893.1777	909.2666	942.8622	973.7211	999.975	1029.4415	1092.0727	1104.9717	1127.3485	1131.8123	1152.5797	1159.352	1167.6125	1170.0401	1181.8105	1189.9272	1228.3547	1276.3279	1293.0228	1325.6801	1338.4882	1467.0872	1530.3289	3053.6732	3079.7431	3088.6338	3116.5938	3125.7457	3126.7099	3141.7176	3166.3727
C1OC1C1C2C3OC2C13	C1O[C@H]1[C@H]1[C@H]2[C@@H]3O[C@H]2[C@H]13	
InChI=1S/C7H8O2/c1-2(8-1)3-4-6-5(3)7(4)9-6/h2-7H,1H2	InChI=1S/C7H8O2/c1-2(8-1)3-4-6-5(3)7(4)9-6/h2-7H,1H2/t2-,3-,4-,5+,6-,7+/m1/s1
