21
gdb 40134	2.94774	1.40866	1.09129	0.1829	90.56	-0.2207	0.0207	0.2413	1177.7238	0.184296	-349.95024	-349.94207	-349.941126	-349.983066	32.668	
C	-0.0122060825	 1.5558710767	-0.0456519182	-0.29549
C	 1.307758011	 0.8390614406	-0.0085651193	-0.318121
C	 0.0179396632	 0.0360569305	 0.0078232134	 0.353521
C	-0.3547007188	-0.6353015681	 1.3247947673	-0.355217
C	-1.8372366548	-0.8657351527	 1.4948713991	-0.053927
C	-2.5577108549	-1.6670692413	 0.7147713754	-0.042701
C	-2.0157736684	-2.4636012329	-0.4506014469	-0.322801
C	-1.1295399789	-1.7300186452	-1.4343759947	-0.085396
C	-0.3173945571	-0.6875609038	-1.2444809494	-0.082556
H	-0.3399509793	 2.0809972766	 0.845541262	 0.111821
H	-0.3172208978	 2.0259252599	-0.9741106481	 0.112935
H	 1.9080482973	 0.8178995192	-0.9121767254	 0.111449
H	 1.8873827313	 0.8739171028	 0.9079872584	 0.109633
H	 0.178013821	-1.5955132306	 1.3834636204	 0.109903
H	 0.02364118	-0.0264595655	 2.152152036	 0.091928
H	-2.3315929833	-0.3398394837	 2.307833808	 0.082655
H	-3.6194890254	-1.7838003259	 0.9185337004	 0.0855
H	-1.479979883	-3.3504387753	-0.0701417295	 0.122487
H	-2.8594927244	-2.8784455155	-1.0132197409	 0.106446
H	-1.1807012891	-2.125184609	-2.4472166466	 0.083086
H	 0.197661614	-0.3036750969	-2.1250800213	 0.074844
56.1526	121.2313	242.5675	285.2324	326.8669	339.6321	378.6563	444.9431	529.2745	597.7902	675.8441	712.8668	761.7598	781.347	816.5973	863.878	898.4209	914.566	934.1767	950.3178	974.145	991.4039	997.8014	1006.9846	1019.4857	1057.4672	1068.7931	1078.0188	1189.6749	1198.1072	1218.6267	1247.6918	1258.9056	1302.8228	1344.344	1361.6339	1379.1899	1411.3601	1446.0098	1466.6319	1469.4495	1483.3987	1500.0068	1726.2239	1735.4359	2960.263	3002.5817	3051.118	3067.926	3114.4975	3125.8429	3131.0245	3141.4339	3145.2778	3166.5066	3204.5784	3219.9469
C1CC11CC=CCC=C1	C1CC21CC=CCC=C2	
InChI=1S/C9H12/c1-2-4-6-9(5-3-1)7-8-9/h1,3-4,6H,2,5,7-8H2	InChI=1S/C9H12/c1-2-4-6-9(5-3-1)7-8-9/h1,3-4,6H,2,5,7-8H2
