19
gdb 68807	2.69856	1.30084	1.13939	1.582	82.36	-0.2439	0.0507	0.2946	1161.6011	0.156718	-385.829529	-385.820263	-385.819319	-385.86299	35.672	
C	 0.1103738304	 1.5669719138	 0.102266379	-0.496982
C	 0.0092113213	 0.0710667917	 0.1155587128	 0.289036
C	 1.1251813122	-0.8421526558	-0.3565087247	-0.400786
C	 0.611512943	-0.9668025004	 1.0518060532	 0.370882
O	 1.4058395462	-0.7299125783	 2.1594106741	-0.464674
C	-0.6883536251	-1.7703295035	 1.0860614131	-0.308348
C	-1.313025567	-0.7464005507	 0.0589726282	-0.233328
C	-2.498120271	-0.060947723	 0.5348266185	 0.310663
C	-3.4744115683	 0.5149919394	 0.93778909	-0.445121
H	 1.0965427825	 1.8853155935	 0.4540130733	 0.12414
H	-0.0343427515	 1.9707725304	-0.9066807959	 0.118072
H	-0.6451394276	 2.0156904071	 0.7542464231	 0.13368
H	 0.9473022146	-1.618152549	-1.099736073	 0.099422
H	 2.089842519	-0.3498917136	-0.4367527165	 0.111783
H	 2.1105925892	-1.3865276373	 2.1775761618	 0.285619
H	-0.6450745236	-2.8173583118	 0.7677689357	 0.092643
H	-1.1844347442	-1.7006377312	 2.0550366855	 0.125214
H	-1.5081021946	-1.1779351958	-0.9299362089	 0.095228
H	-4.3415023857	 1.0174078246	 1.2885373706	 0.192859
93.0562	139.5708	172.792	187.3614	253.9405	258.4247	330.1438	370.9514	423.7469	474.8446	491.2458	539.1448	596.5479	618.8347	626.4658	720.4138	753.1919	805.5401	851.1302	913.6921	964.8813	973.0353	1024.1977	1036.842	1058.5519	1098.0989	1129.4272	1181.9908	1206.7908	1234.1117	1243.1646	1296.968	1321.1844	1345.069	1407.8763	1423.6857	1477.9048	1483.0285	1498.5758	1514.7211	2231.932	3027.9876	3029.4603	3046.5111	3090.2926	3091.608	3110.6876	3130.2042	3192.0501	3504.064	3795.4513
CC12CC1(O)CC2C#C	C[C@@]12C[C@]1(O)C[C@H]2C#C	
InChI=1S/C8H10O/c1-3-6-4-8(9)5-7(6,8)2/h1,6,9H,4-5H2,2H3	InChI=1S/C8H10O/c1-3-6-4-8(9)5-7(6,8)2/h1,6,9H,4-5H2,2H3/t6-,7+,8-/m1/s1
