16
gdb 29193	3.13834	1.41897	0.98344	6.3964	76.54	-0.2189	-0.026	0.1929	1147.7927	0.126435	-434.155805	-434.147652	-434.146708	-434.188237	31.146	
C	-0.0128569208	 1.5601735035	-0.0037557085	-0.522384
C	-0.0004949786	 0.0578584362	-0.016656602	 0.18301
C	-0.0469875717	-0.6713903774	-1.1609193352	-0.020415
N	-0.0209500642	-2.0238853363	-1.1275895916	-0.353639
C	 0.0546301362	-2.7800897315	 0.0746461406	 0.42607
O	 0.0726336799	-3.9915010617	 0.0003845198	-0.401047
N	 0.0948918953	-2.0467463839	 1.2316722855	-0.412559
C	 0.0752125432	-0.7326033702	 1.1929002405	 0.339515
N	 0.1652291797	-0.0855856601	 2.389339971	-0.551604
H	 0.8802774356	 1.9720381887	 0.4823228659	 0.13687
H	-0.0445371936	 1.9568184756	-1.0222886159	 0.12959
H	-0.8867734861	 1.9639292614	 0.5253608069	 0.127604
H	-0.1040398872	-0.2106826309	-2.1418455796	 0.12869
H	-0.0550841966	-2.570640499	-1.974571208	 0.263349
H	 0.0749135278	-0.6634878416	 3.2099553663	 0.267782
H	-0.098113389	 0.8806557572	 2.4668909943	 0.259169
97.9433	199.0056	207.7024	274.5393	293.1597	313.66	371.9604	409.478	487.5687	539.2589	561.0841	589.2112	634.8711	735.7792	770.261	791.9636	795.8596	918.0918	929.1813	1013.8964	1070.3594	1098.1103	1186.9354	1210.2807	1281.9637	1352.4619	1417.5903	1436.5106	1475.4967	1481.4122	1510.5411	1560.8103	1632.867	1713.1565	1809.9187	3008.4907	3056.1118	3106.4435	3185.6447	3602.913	3630.6242	3735.2376
CC1=CNC(=O)N=C1N	Cc1c[nH]c(=O)nc1N	
InChI=1S/C5H7N3O/c1-3-2-7-5(9)8-4(3)6/h2H,1H3,(H3,6,7,8,9)	InChI=1S/C5H7N3O/c1-3-2-7-5(9)8-4(3)6/h2H,1H3,(H3,6,7,8,9)
