19
gdb 90085	3.50057	1.43983	1.25215	0.436	75.38	-0.234	0.074	0.308	1040.9747	0.160574	-422.970834	-422.963619	-422.962675	-423.002048	30.084	
O	-0.1921232045	 1.4977485514	 0.1183709066	-0.434487
C	 0.0182925507	 0.1127623641	 0.0020126257	 0.092747
C	 0.4214042612	-0.6968862793	 1.3063000853	-0.394677
C	-0.5505445052	-1.7604526673	 0.8034961735	 0.415934
C	-1.5670216667	-2.8805420593	 1.0631812243	-0.328937
C	-1.3483728619	-2.9704042422	-0.4870511761	 0.072596
C	-1.8833739004	-1.6477570149	-1.1211112223	-0.267389
C	-1.2992268233	-0.7093276487	-0.0385343402	-0.003235
O	 0.0392027543	-2.5959023945	-0.2514197499	-0.325338
H	 0.6639503916	 1.9371790153	 0.1093456913	 0.284176
H	 0.6861548065	-0.1350422252	-0.8297163523	 0.089186
H	 1.4610460323	-0.9972735185	 1.4524904763	 0.106511
H	 0.0472750158	-0.1705503135	 2.1881742002	 0.115044
H	-1.1555301094	-3.7612613007	 1.5580321139	 0.111377
H	-2.5483318682	-2.6084810241	 1.4614924574	 0.095567
H	-1.4713293555	-3.9063291068	-1.0331219086	 0.079703
H	-1.459092033	-1.5181200285	-2.1199200653	 0.111253
H	-2.9730471402	-1.5917418117	-1.1945298773	 0.097012
H	-2.056881304	-0.1640433457	 0.5304757273	 0.082957
144.1743	259.3649	283.335	304.9264	357.4811	402.1111	468.1486	480.2762	593.4789	667.3437	729.6577	800.6183	816.332	831.7924	859.6208	870.5135	883.7253	962.3525	970.0352	983.6395	1030.1585	1054.083	1069.8359	1099.7832	1117.8337	1144.0805	1170.6096	1194.965	1198.2577	1214.4956	1228.5294	1255.1189	1266.3781	1292.0015	1303.5044	1327.1488	1345.2975	1424.6541	1467.6887	1479.1667	1489.3378	3049.342	3060.7278	3062.551	3066.1588	3080.5114	3112.2006	3118.627	3131.9695	3140.6049	3819.4941
OC1CC23CC(CC12)O3	O[C@H]1C[C@@]23C[C@@H](C[C@H]12)O3	
InChI=1S/C7H10O2/c8-6-3-7-2-4(9-7)1-5(6)7/h4-6,8H,1-3H2	InChI=1S/C7H10O2/c8-6-3-7-2-4(9-7)1-5(6)7/h4-6,8H,1-3H2/t4-,5-,6+,7+/m1/s1
