20
gdb 6094	4.19413	1.00241	0.85857	2.9605	72.69	-0.2423	-0.01	0.2323	1374.7742	0.172598	-386.161316	-386.151033	-386.150089	-386.198001	35.451	
C	 0.5522824851	 1.2630087293	-0.3006852636	-0.39436
C	-0.1589649654	-0.020065572	 0.1365840977	 0.161577
C	-0.1045860019	-1.102854094	-0.9345665612	-0.389951
O	 0.4330467025	-0.5840847841	 1.3067896506	-0.258448
C	 0.1773261805	 0.1025028901	 2.5052403491	-0.162355
C	 0.6254596187	-0.717558722	 3.7179821326	 0.351297
C	 1.065280359	-2.142549398	 3.4735048697	-0.465541
O	 0.6000068448	-0.2087120226	 4.8139647963	-0.297459
H	 1.6072924994	 1.0586533811	-0.5099134694	 0.123966
H	 0.0906421498	 1.6618917349	-1.2093220223	 0.118281
H	 0.4977422366	 2.0411153212	 0.4658634768	 0.119943
H	-1.2137046247	 0.2150498328	 0.3601612477	 0.067523
H	 0.9348689678	-1.3630224553	-1.1584960259	 0.124284
H	-0.6177155407	-2.0055405489	-0.5929049726	 0.12064
H	-0.5805650735	-0.7577647464	-1.8569482094	 0.115784
H	 0.6891064066	 1.0745683755	 2.5599830844	 0.122182
H	-0.9011571526	 0.304084149	 2.629157967	 0.115492
H	 0.260547101	-2.7074472224	 2.9915827107	 0.143307
H	 1.9062343869	-2.1589040459	 2.773231238	 0.149969
H	 1.34352868	-2.6062008923	 4.4203048338	 0.133869
21.0277	58.7853	99.763	140.5865	149.5091	205.8967	242.8352	272.1157	330.3301	426.829	439.6584	477.2521	514.1604	549.9228	788.5394	835.3785	867.4098	926.6224	935.3932	947.2871	997.9917	1093.1755	1126.7836	1157.4464	1166.5932	1200.7091	1236.1703	1252.4919	1350.5203	1368.8878	1379.3993	1396.0486	1405.9986	1416.2761	1452.6481	1464.1796	1479.2541	1481.1478	1487.7329	1495.2901	1510.8328	1818.2312	2955.9709	2961.5374	3013.4039	3038.7804	3043.896	3047.083	3109.2742	3109.8638	3114.6303	3117.8329	3123.4643	3158.8664
CC(C)OCC(C)=O	CC(C)OCC(=O)C	
InChI=1S/C6H12O2/c1-5(2)8-4-6(3)7/h5H,4H2,1-3H3	InChI=1S/C6H12O2/c1-5(2)8-4-6(3)7/h5H,4H2,1-3H3
