17
gdb 82964	3.14321	1.57387	1.47352	2.8217	67.14	-0.2326	0.0606	0.2931	947.7194	0.136269	-458.899285	-458.892081	-458.891137	-458.930788	28.953	
O	 0.0638765854	 1.3766612831	-0.069379259	-0.423215
C	-0.0283937501	-0.0040501384	-0.054230762	 0.093787
C	-0.4736357392	-0.6948314912	 1.2121040202	-0.0254
O	-0.8999223108	 0.2016261965	 2.2103113478	-0.269421
C	-2.261909664	 0.0364223622	 2.5289405494	 0.074892
C	-3.1840035201	 1.1864270071	 2.2248243682	-0.332152
C	-3.1691320191	-0.0276901622	 1.3335111847	 0.080319
O	-2.5086593883	 0.1157714443	 0.1046270394	-0.248594
C	-1.3773425139	-0.702002259	-0.0072028178	 0.007264
H	-0.2690462051	 1.6794427962	 0.7859369693	 0.294583
H	 0.7479498267	-0.4788998024	-0.6469306981	 0.106987
H	 0.0046553218	-1.59835297	 1.5827315345	 0.096613
H	-2.4404073142	-0.5901020134	 3.399211521	 0.100455
H	-4.0374623361	 1.3437513896	 2.8747852124	 0.120833
H	-2.7345978206	 2.0846569764	 1.8169228141	 0.133525
H	-4.0187932012	-0.7066121066	 1.3193273462	 0.096865
H	-1.5264873813	-1.6238220921	-0.5665397106	 0.092658
102.3804	182.2394	279.6303	311.0584	352.1424	463.0223	488.6342	530.0102	605.9172	675.5421	741.7269	778.2139	794.5003	816.4706	849.6376	868.525	962.3124	1005.1982	1030.8139	1058.2706	1071.7352	1094.4796	1107.2622	1113.4843	1123.5542	1136.4485	1155.3676	1184.0097	1212.6769	1245.5511	1300.1434	1335.4829	1358.4494	1378.2715	1397.5508	1449.6502	1464.9274	3112.4473	3123.6441	3126.1576	3134.8481	3142.2704	3157.0388	3234.1165	3759.192
OC1C2OC3CC3OC12	O[C@H]1[C@H]2O[C@H]3C[C@H]3O[C@@H]12	
InChI=1S/C6H8O3/c7-4-5-6(4)9-3-1-2(3)8-5/h2-7H,1H2	InChI=1S/C6H8O3/c7-4-5-6(4)9-3-1-2(3)8-5/h2-7H,1H2/t2-,3+,4-,5+,6-
