21
gdb 110509	2.64227	1.51008	1.22473	1.5255	81.32	-0.2269	0.0783	0.3052	1128.2775	0.181526	-387.036262	-387.027649	-387.026705	-387.069321	33.737	
C	-0.052968062	 1.5420374699	 0.0951008004	-0.384798
C	-0.0418969884	 0.0110601116	 0.0174204661	-0.205542
C	 0.6628712802	-0.5390001703	-1.2177213343	-0.000546
C	 0.819603447	-2.0499730453	-1.4005751594	-0.149718
C	-0.4624443855	-2.4902254494	-2.1289535682	 0.095707
O	-1.305756853	-1.3494712742	-2.2707731365	-0.324965
C	-0.0908039987	-0.5954813179	-2.5950426282	 0.407683
C	-0.3295328341	 0.576977224	-3.4948484506	-0.512696
C	 0.6731265276	-1.9414649793	-2.9144259002	-0.208628
H	 0.9649656711	 1.9485802761	 0.0812537941	 0.109338
H	-0.5956312502	 1.9850228449	-0.7463129535	 0.11791
H	-0.5355097824	 1.8880908392	 1.0144710609	 0.111863
H	 0.4586356379	-0.3913233395	 0.9082104999	 0.08897
H	-1.0655624863	-0.377363855	 0.0331018052	 0.113176
H	 1.634848488	-0.0538819418	-1.3711803517	 0.06645
H	 1.4374848521	-2.7382660252	-0.8371359054	 0.085242
H	-0.9088803687	-3.4738628004	-2.0705891255	 0.105924
H	-1.0359558751	 1.2740692867	-3.0326410294	 0.136679
H	 0.6058329623	 1.1109755759	-3.6877994435	 0.122172
H	-0.7513033773	 0.2509634815	-4.4501478791	 0.12969
H	 1.2652092756	-2.2985525612	-3.7453634013	 0.096091
75.4506	143.6213	193.3931	212.1441	261.7536	288.0096	309.0139	370.8743	545.6404	583.6852	641.4358	740.2358	766.2572	776.7459	802.9154	805.1048	832.044	869.2922	923.169	932.6629	979.6446	997.6798	1026.28	1037.7869	1044.0839	1056.1524	1106.8646	1125.9142	1143.3543	1158.2567	1182.5598	1206.4397	1280.9076	1293.1831	1316.997	1355.4355	1366.8566	1401.4864	1409.5246	1420.2478	1477.2101	1485.9739	1488.9751	1501.7252	1504.814	3020.8531	3029.4606	3033.7944	3039.5865	3073.8632	3098.4407	3102.9736	3111.3295	3115.4597	3190.8581	3203.379	3219.042
CCC1C2C3OC1(C)C23	CC[C@H]1[C@H]2[C@H]3O[C@]1(C)[C@@H]23	
InChI=1S/C8H12O/c1-3-4-5-6-7(5)9-8(4,6)2/h4-7H,3H2,1-2H3	InChI=1S/C8H12O/c1-3-4-5-6-7(5)9-8(4,6)2/h4-7H,3H2,1-2H3/t4-,5+,6-,7+,8-/m0/s1
