21
gdb 89132	2.02135	1.64823	1.1186	0.995	89.64	-0.2378	0.0496	0.2874	1196.3371	0.180936	-349.902883	-349.893517	-349.892573	-349.936262	36.423	
C	-0.356276916	 1.5185932914	 0.0266152878	-0.418919
C	 0.0185476611	 0.0417464182	 0.013825087	 0.039248
C	 1.1676248264	-0.489241494	-0.9132752337	-0.324384
C	 1.7789702414	-1.225351646	 0.2926881985	 0.337681
C	 2.3459246674	-2.6151352623	 0.2509219857	-0.498787
C	 2.201208046	-0.2092179813	 1.3378909384	-0.254207
C	 2.7891973877	 1.0666805767	 1.0374221316	 0.331321
C	 3.3395709763	 2.1104000708	 0.797367852	-0.454078
C	 0.7328661099	-0.5972950555	 1.2133482168	-0.136498
H	 0.5089004804	 2.1530796013	 0.2277186063	 0.138086
H	-0.7813037908	 1.8164270793	-0.9387245206	 0.107701
H	-1.1109826478	 1.7195557313	 0.795553566	 0.109036
H	-0.880006429	-0.5509974173	-0.1906573477	 0.075258
H	 0.8097161419	-1.1624140882	-1.6957659122	 0.097432
H	 1.8115297542	 0.270250755	-1.3664678829	 0.10861
H	 3.2861356047	-2.6424192569	-0.3129764157	 0.125669
H	 2.552490251	-2.9924814177	 1.2579675346	 0.117968
H	 1.6507319864	-3.3115506148	-0.2322220057	 0.117864
H	 2.6555899757	-0.6882087108	 2.2038807085	 0.108127
H	 3.8089807724	 3.0391555429	 0.587235645	 0.191636
H	 0.2358666908	-1.0323381522	 2.0747735005	 0.081237
134.5418	141.6304	166.0295	205.7942	218.4678	226.655	309.429	361.1847	381.2452	434.3162	537.8367	557.1667	581.6683	643.603	647.1588	710.2348	783.6408	845.0143	867.0968	893.7392	942.5458	963.809	983.0861	1013.0416	1043.8733	1072.8433	1116.3429	1127.2815	1150.8404	1190.5435	1237.9856	1247.636	1257.5149	1301.8423	1338.7774	1377.1129	1411.2255	1414.739	1452.0492	1484.9234	1491.7238	1494.7234	1499.1403	1505.417	2225.284	3020.0967	3029.1762	3037.4075	3055.9677	3079.2268	3086.8904	3094.3689	3109.4568	3119.8801	3136.7023	3158.2652	3503.4699
CC1CC2(C)C(C#C)C12	C[C@H]1C[C@@]2(C)[C@@H](C#C)[C@@H]12	
InChI=1S/C9H12/c1-4-7-8-6(2)5-9(7,8)3/h1,6-8H,5H2,2-3H3	InChI=1S/C9H12/c1-4-7-8-6(2)5-9(7,8)3/h1,6-8H,5H2,2-3H3/t6-,7-,8+,9-/m0/s1
