15
gdb 10463	2.89163	1.76166	1.37663	3.3367	68.5	-0.25	0.0176	0.2676	932.4952	0.117226	-362.634424	-362.626286	-362.625342	-362.667352	29.754	
O	-0.1324725085	 0.5385674445	-1.1268832605	-0.308256
C	-0.0235562517	 1.3238448449	-0.2144412201	 0.147169
N	 1.1450035925	 1.6781446757	 0.4037802306	-0.346345
C	 2.4114962553	 1.0360008739	 0.1658347185	 0.172447
C	 2.9226343041	 1.0411629763	-1.2615488313	-0.266593
C	 3.5625419473	 1.9458428684	-0.2549302692	-0.307529
C	 2.7075610792	-0.0917815153	 1.0131505539	 0.328509
C	 2.9537982943	-1.0184287801	 1.7389271421	-0.486544
H	-0.8815285182	 1.8830765863	 0.2121297465	 0.075511
H	 1.0693326116	 2.2500140098	 1.2321805478	 0.249774
H	 3.4603189592	 0.1578130908	-1.5820994383	 0.137936
H	 2.2587268782	 1.4665384363	-2.0020587718	 0.148216
H	 3.3392357166	 3.0055897792	-0.3035541172	 0.123612
H	 4.5462163605	 1.6954363016	 0.123078787	 0.132751
H	 3.1617810195	-1.8475009122	 2.3689634319	 0.199343
42.8067	149.3192	174.2592	218.3441	237.5525	351.4824	410.3615	531.4535	554.488	559.4089	589.9189	639.045	668.8258	769.0417	811.1614	907.5679	931.3371	976.4757	1002.2052	1033.8636	1064.8512	1090.318	1172.0765	1191.9603	1290.9318	1307.7092	1435.0505	1459.8511	1488.4315	1506.9669	1818.2872	2235.283	2923.3123	3144.1852	3164.7599	3235.7251	3259.2641	3502.449	3606.0168
O=CNC1(CC1)C#C	O=CNC1(CC1)C#C	
InChI=1S/C6H7NO/c1-2-6(3-4-6)7-5-8/h1,5H,3-4H2,(H,7,8)	InChI=1S/C6H7NO/c1-2-6(3-4-6)7-5-8/h1,5H,3-4H2,(H,7,8)
