15
gdb 98147	2.17484	1.3663	0.84433	8.5748	79.48	-0.2206	-0.02	0.2006	1289.8797	0.112738	-413.03351	-413.023703	-413.022758	-413.068552	33.911	
C	 0.0054704538	 1.4504768377	 0.0655276439	-0.352718
N	-0.0357062047	 0.0105536825	-0.0869872425	-0.349328
C	 0.6065243249	-0.6827364321	-1.0470149192	 0.464592
N	 1.2731162292	 0.0136965912	-2.0009034773	-0.579968
H	 1.6537731879	-0.5170396065	-2.7704336588	 0.294751
H	 1.0107021426	 0.9636847722	-2.2000819699	 0.271931
C	 0.616851152	-2.0867995119	-1.0416399315	-0.130318
C	 1.2464770411	-2.7682218879	-2.1046775228	 0.198001
N	 1.7855557691	-3.2458695288	-3.0169889768	-0.376268
C	-0.0060978467	-2.7667161668	 0.02647052	 0.201999
N	-0.5480886053	-3.2372799775	 0.9407760815	-0.382082
H	 1.0362967425	 1.8223827257	 0.081203041	 0.153139
H	-0.546578176	 1.9672485684	-0.7308550268	 0.140958
H	-0.4647595704	 1.711084143	 1.0141269194	 0.160265
H	-0.50152763	-0.5401801492	 0.6179894796	 0.285045
84.0166	102.3661	124.9523	131.1212	139.3428	193.4922	284.9984	347.3057	408.8	446.1477	486.9716	514.3778	548.9802	556.7745	573.825	603.0079	727.9004	757.1841	979.8272	1144.9047	1154.1044	1168.8618	1209.7196	1289.5341	1433.6764	1453.7616	1488.6735	1519.3771	1547.8904	1628.286	1671.6684	2298.1162	2317.5763	3011.5504	3070.2934	3146.3403	3587.2835	3621.0726	3712.2507
CNC(=[NH2+])[C-](C#N)C#N	CNC(=[NH2])[C](C#N)C#N	
InChI=1S/C5H5N4/c1-9-5(8)4(2-6)3-7/h1H3,(H2,8,9)/q-1/p+1	InChI=1S/C5H6N4/c1-9-5(8)4(2-6)3-7/h9H,8H2,1H3
