16
gdb 28019	4.02491	0.92624	0.80691	3.7409	76.32	-0.2284	0.0054	0.2338	1395.1373	0.124384	-400.801155	-400.792653	-400.791709	-400.835375	30.366	
C	 0.0343938822	 1.485683283	-0.0687119651	-0.488808
C	-0.0782852843	 0.0057677735	 0.000834155	 0.383642
C	-1.0860800646	-0.8709932326	-0.2534969512	-0.378606
C	-0.5619411555	-2.1853616369	-0.0021421056	 0.270681
C	-1.2840535367	-3.5005550279	-0.1123756218	-0.459986
C	-1.8148537425	-3.7558640814	-1.4557932252	 0.267266
N	-2.2416885092	-3.9498798384	-2.5116352895	-0.308635
C	 0.7264029319	-2.000795607	 0.3848335827	-0.11687
O	 1.0364851177	-0.6781190124	 0.3950633696	-0.176514
H	 0.8093262039	 1.7947376957	-0.7789616296	 0.144125
H	-0.9165066922	 1.9148286419	-0.3910987019	 0.140415
H	 0.2930602579	 1.9142491738	 0.905971587	 0.141524
H	-2.0803990494	-0.6219924682	-0.5908370647	 0.121713
H	-0.6131691215	-4.3237482461	 0.1555535761	 0.158409
H	-2.1252536103	-3.5443106825	 0.5912909165	 0.162697
H	 1.5152040126	-2.6760326745	 0.6739630077	 0.138948
41.1782	90.8974	125.1759	197.2846	253.7489	332.4117	378.083	385.4682	467.2449	609.0379	639.7689	670.2383	741.0699	769.852	815.4587	927.7546	936.0074	942.2823	999.2781	1019.932	1065.433	1163.1727	1178.322	1205.9555	1252.3716	1293.053	1338.7127	1411.5402	1417.5775	1457.2856	1473.0539	1489.293	1592.4233	1660.4405	2364.126	3030.6745	3034.3347	3079.3579	3086.2279	3133.6846	3255.2409	3273.5927
CC1=CC(CC#N)=CO1	Cc1cc(CC#N)co1	
InChI=1S/C7H7NO/c1-6-4-7(2-3-8)5-9-6/h4-5H,2H2,1H3	InChI=1S/C7H7NO/c1-6-4-7(2-3-8)5-9-6/h4-5H,2H2,1H3
