21
gdb 37318	2.21392	2.21347	1.43006	0.4122	83.59	-0.2396	0.067	0.3065	989.5322	0.186474	-349.921264	-349.914363	-349.913419	-349.951989	30.278	
C	-0.0132400867	 1.5495880889	 0.1469825292	-0.3168
C	 1.2845332384	 0.7992384954	-0.0198426666	-0.027748
C	-0.0476817201	 0.0521888203	-0.0293304441	-0.028421
C	-0.5122328279	-0.639551094	-1.2807603048	-0.028176
C	-1.0014921662	 0.0785099417	-2.5136889527	-0.316761
C	 0.3474935244	-0.5954544222	-2.5425706397	-0.027914
C	 1.6586104167	 0.1396789675	-2.5331511722	-0.028258
C	 1.7872924659	 1.6419832018	-2.4933035158	-0.316947
C	 2.130746637	 0.8422968392	-1.2614560424	-0.028147
H	-0.2455298558	 1.9510979947	 1.1275747359	 0.106511
H	-0.3588474922	 2.1750838325	-0.6683388761	 0.107493
H	 1.8718105077	 0.6837049539	 0.8852587556	 0.07952
H	-0.2651915234	-0.5149227984	 0.8698452951	 0.079521
H	-0.9894988964	-1.5933482119	-1.0809419149	 0.079525
H	-1.8081012401	-0.3755246712	-3.0793403673	 0.106503
H	-1.0394675215	 1.1619871423	-2.5019243918	 0.107483
H	 0.3896666515	-1.5226458632	-3.1047359468	 0.079508
H	 2.433802509	-0.3766370353	-3.0898681681	 0.07956
H	 2.6019117264	 2.0967049736	-3.0468143477	 0.106511
H	 0.8830427823	 2.2400733003	-2.4876705246	 0.107534
H	 3.1911490811	 0.750445574	-1.0503621902	 0.079503
196.8381	199.6839	341.8172	379.5778	450.0671	451.1921	538.0492	539.8065	694.3484	695.7958	738.2662	766.3106	810.0316	810.2914	846.5602	882.0711	900.8333	929.1992	929.5279	1002.241	1002.9508	1043.8	1044.1623	1044.855	1077.6836	1078.6503	1101.5185	1111.2846	1124.4502	1128.5589	1129.1799	1149.7285	1149.836	1231.7384	1232.6201	1278.7581	1355.5859	1389.2177	1400.4638	1400.875	1417.2682	1418.3514	1488.947	1489.4382	1503.6081	3131.1566	3132.9987	3137.7329	3137.8203	3143.3773	3143.5536	3158.2537	3158.5229	3166.2275	3212.1037	3214.1526	3220.7638
C1C2C1C1CC1C1CC21	C1[C@H]2[C@@H]1[C@H]1C[C@H]1[C@H]1C[C@@H]21	
InChI=1S/C9H12/c1-4-5(1)7-3-9(7)8-2-6(4)8/h4-9H,1-3H2	InChI=1S/C9H12/c1-4-5(1)7-3-9(7)8-2-6(4)8/h4-9H,1-3H2/t4-,5+,6-,7+,8-,9+
