20
gdb 101219	3.67882	0.88577	0.76709	3.9749	76.91	-0.2465	0.035	0.2815	1502.6313	0.168951	-440.300787	-440.29083	-440.289885	-440.336466	35.56	
C	 0.130013027	 1.380248984	 0.2741945808	-0.236363
O	-0.0254618016	 0.0007497077	 0.0308710637	-0.248469
C	 0.6046531017	-0.4762652141	-1.1480491995	 0.136519
C	 2.1224794797	-0.5975648193	-0.9919983498	-0.415728
C	-0.055780786	-1.8237686586	-1.4299453419	 0.0476
C	-1.5297584745	-1.79086328	-1.9235787865	-0.401078
C	-1.0032715555	-2.4961703424	-3.196530141	 0.423525
O	-1.4772797169	-2.9561034188	-4.1988623386	-0.354757
N	 0.2915461429	-2.4282685218	-2.7239957149	-0.335026
H	 1.169589909	 1.6566504443	 0.5012253531	 0.109092
H	-0.2082445348	 1.9836420328	-0.582508388	 0.106573
H	-0.4884926612	 1.623408256	 1.1416388034	 0.130866
H	 0.3792840195	 0.199173951	-1.9912795722	 0.067107
H	 2.368205426	-1.2672953249	-0.1613872498	 0.124504
H	 2.5710044725	-0.9928671324	-1.9087848972	 0.117561
H	 2.584315692	 0.3740021282	-0.7969690395	 0.123484
H	 0.1041802027	-2.4915696725	-0.5751915621	 0.08974
H	-2.2348113852	-2.389794394	-1.3456716155	 0.134552
H	-1.9426578443	-0.7937320334	-2.0843097214	 0.13178
H	 1.1249143269	-2.9040886217	-3.0377600831	 0.24852
55.4888	74.1902	81.2508	156.4995	196.1398	228.4053	280.7358	304.0422	391.8695	402.242	443.8981	496.6483	519.3757	563.4812	766.2711	812.1545	865.0027	942.724	962.5626	983.8985	1032.0785	1063.1608	1078.4094	1121.9404	1144.6544	1166.7047	1180.74	1190.9799	1204.7403	1231.2279	1279.0192	1315.5229	1367.5345	1375.6543	1401.8619	1413.8031	1459.5853	1477.2949	1484.0071	1491.6978	1505.2157	1511.804	1897.4246	2957.9809	2980.395	3030.0434	3039.0727	3042.103	3091.7663	3111.5789	3113.3498	3117.1882	3149.313	3606.064
COC(C)C1CC(=O)N1	CO[C@@H](C)[C@H]1CC(=O)N1	
InChI=1S/C6H11NO2/c1-4(9-2)5-3-6(8)7-5/h4-5H,3H2,1-2H3,(H,7,8)	InChI=1S/C6H11NO2/c1-4(9-2)5-3-6(8)7-5/h4-5H,3H2,1-2H3,(H,7,8)/t4-,5+/m0/s1
