13
gdb 43603	2.44236	1.39831	1.03276	2.4814	70.28	-0.2829	-0.0397	0.2432	1114.4202	0.088974	-411.789013	-411.78087	-411.779926	-411.822091	29.422	
N	-0.0297778853	 1.0254601914	 0.9553739823	-0.525118
C	-0.0048968352	 0.0268123335	 0.1950669165	 0.421558
C	-1.1165550692	-0.8696937215	-0.3450811226	-0.360537
C	 0.0544762441	-1.764078773	-0.9259537178	 0.036148
N	 0.9759715411	-0.7099562446	-0.487570505	-0.342214
C	 0.2195261613	-3.0454672293	-0.2237780429	 0.271633
N	 0.3686969026	-4.0313046058	 0.3591537446	-0.308352
C	 0.0317945208	-1.9771547144	-2.379951409	 0.278451
N	 0.0025627544	-2.1223746676	-3.5249317892	-0.310526
H	 0.8991100896	 1.3974180227	 1.1555949266	 0.229296
H	-1.7282080029	-1.3646753755	 0.4077037907	 0.172253
H	-1.7427811768	-0.4228229447	-1.1168940914	 0.169709
H	 1.9489132655	-0.8457914512	-0.2477307728	 0.267698
72.6249	130.905	174.8403	189.5845	274.6288	390.5264	424.2432	487.3831	494.0156	524.6312	542.5856	594.0849	613.9614	786.0895	842.6156	894.3339	960.2859	993.3256	1038.794	1063.2375	1111.3976	1204.9415	1228.3166	1287.1987	1351.2779	1458.0355	1827.4505	2361.3188	2368.3961	3109.4678	3177.1915	3482.7119	3594.6834
N=C1CC(N1)(C#N)C#N	[NH][C]1CC(N1)(C#N)C#N	
InChI=1S/C5H4N4/c6-2-5(3-7)1-4(8)9-5/h1H2,(H2,8,9)	InChI=1S/C5H4N4/c6-2-5(3-7)1-4(8)9-5/h1H2,(H2,8,9)
