17
gdb 78648	2.92501	1.51924	1.16044	3.6248	72.59	-0.2309	0.0059	0.2368	1069.8104	0.134739	-421.790412	-421.78239	-421.781446	-421.822593	31.078	
C	-0.1619991127	 1.4370602255	 0.0159331565	-0.406843
C	 0.0612928903	-0.0690546001	 0.0629833555	-0.003649
C	 0.8717482986	-0.6217419601	-1.1176647681	-0.139748
C	 2.1649808761	-0.5365518289	-0.365827921	-0.119746
C	 1.2764857775	-0.5185995262	 0.9374825957	-0.200478
C	 1.2727456893	-2.0618689231	 0.8096894381	 0.368324
O	 1.2751556616	-2.9674131849	 1.5938214548	-0.343882
C	 1.5619700792	-1.9276945697	-0.6591570514	 0.25686
O	 2.061653944	-2.8475412013	-1.5424385926	-0.452384
H	 0.7730731343	 1.9687727761	-0.1892739935	 0.120616
H	-0.8802781502	 1.7022951184	-0.7677300517	 0.117021
H	-0.5579736328	 1.8010134535	 0.9697147059	 0.120235
H	-0.8803942686	-0.5871464519	 0.2869330571	 0.075686
H	 0.7144221111	-0.4775536811	-2.1811164222	 0.096765
H	 3.1625031044	-0.1960578146	-0.5948547882	 0.120083
H	 1.5183958759	-0.0429913656	 1.884198852	 0.093108
H	 1.326628212	-3.2965459358	-1.9745834569	 0.298034
140.7836	180.8247	221.2075	242.9934	247.8414	280.636	349.9126	451.4374	471.9283	621.2117	703.6093	747.552	766.2103	803.4821	842.2204	864.9916	889.2793	913.4211	926.7286	952.1768	1039.608	1055.928	1062.6074	1100.2031	1132.2167	1161.1654	1167.7185	1216.5987	1267.8887	1288.7619	1293.8905	1377.677	1409.3042	1446.9688	1494.6018	1496.0276	1881.0315	3019.533	3029.1801	3096.2564	3103.8262	3161.325	3176.7689	3247.3811	3798.7619
CC1C2C3C1C(=O)C23O	C[C@H]1[C@H]2[C@H]3[C@@H]1C(=O)[C@@]23O	
InChI=1S/C7H8O2/c1-2-3-5-4(2)7(5,9)6(3)8/h2-5,9H,1H3	InChI=1S/C7H8O2/c1-2-3-5-4(2)7(5,9)6(3)8/h2-5,9H,1H3/t2-,3-,4+,5-,7-/m1/s1
