16
gdb 11384	4.19215	1.50673	1.18374	4.6756	67.35	-0.2674	-0.0432	0.2242	1009.4833	0.130861	-383.797688	-383.790269	-383.789325	-383.829654	27.335	
C	-0.0215389818	 1.5582374497	-0.0581830343	-0.385708
C	-0.0021995908	 0.0312797184	 0.0422917615	-0.184525
C	-1.4066875906	-0.5818711201	 0.0401632022	 0.06839
O	-2.0862950867	-0.2659133889	-1.1820335375	-0.233671
C	-2.4808943114	-1.4176997831	-1.8220649699	 0.424371
O	-3.0644498263	-1.4073130377	-2.8680374121	-0.345242
C	-2.0475303587	-2.5602117132	-0.9797905418	-0.233324
C	-1.4326272634	-2.0838659397	 0.1001155018	-0.080972
H	 0.9957658381	 1.959486403	-0.0713115103	 0.118175
H	-0.5286618531	 1.8780345314	-0.9718428797	 0.146413
H	-0.5468807273	 2.0043856817	 0.7933849412	 0.11676
H	 0.5613223516	-0.4012718599	-0.7923436849	 0.113966
H	 0.5008046822	-0.2841758013	 0.9650407108	 0.102481
H	-1.9924164456	-0.1482326076	 0.8645222594	 0.108297
H	-2.2356118228	-3.5850552697	-1.2633758599	 0.135345
H	-0.9939252034	-2.642283453	 0.9173016435	 0.129243
96.9169	129.2862	176.7073	234.9628	301.0008	401.7053	480.9896	518.8017	671.4155	711.2693	761.1477	816.5395	835.9958	881.7177	905.8221	973.7363	980.4706	1023.2324	1053.3751	1094.6623	1129.4977	1140.5085	1163.9096	1282.6897	1297.3258	1348.6647	1362.5689	1379.7943	1412.4918	1476.5168	1496.7574	1508.4946	1663.0105	1872.4347	3000.4511	3030.5515	3040.3498	3072.9907	3108.1376	3128.8442	3217.4548	3258.0889
CCC1OC(=O)C=C1	CC[C@H]1OC(=O)C=C1	
InChI=1S/C6H8O2/c1-2-5-3-4-6(7)8-5/h3-5H,2H2,1H3	InChI=1S/C6H8O2/c1-2-5-3-4-6(7)8-5/h3-5H,2H2,1H3/t5-/m1/s1
