17
gdb 5078	3.34084	1.91715	1.2369	1.4874	72.54	-0.1761	0.0535	0.2296	976.9494	0.141062	-363.906355	-363.897187	-363.896243	-363.940436	32.117	
C	 0.020719173	 1.5171813019	 0.0483330076	-0.531861
C	 0.0212436743	 0.0194702228	 0.0186656471	 0.171009
C	-0.0228020624	-0.8040738363	-1.0857929655	-0.173074
N	-0.0040246136	-2.1036391206	-0.6562610269	-0.309597
C	 0.052325747	-2.1564140686	 0.7244433507	 0.23568
C	 0.0853964124	-3.4293419742	 1.4986024439	-0.510783
C	 0.0683539913	-0.8478788465	 1.1514799367	 0.164579
O	 0.1218456948	-0.4819108685	 2.4718506882	-0.455995
H	 0.9227129187	 1.9252937992	 0.5245581041	 0.119171
H	-0.0192215102	 1.9279145476	-0.964409765	 0.126529
H	-0.8422595417	 1.9234460583	 0.5934560059	 0.119218
H	-0.065804773	-0.5589411041	-2.1352586055	 0.110316
H	-0.0275156674	-2.9099604715	-1.2542193639	 0.253986
H	 0.9621225048	-4.0453516854	 1.2585868751	 0.119145
H	 0.1268223396	-3.1984125733	 2.5654548695	 0.149397
H	-0.8049268621	-4.0489373921	 1.3279353825	 0.119092
H	 0.1220592344	 0.4778534412	 2.5186448755	 0.293187
48.4357	98.3764	133.2668	149.9974	236.4529	247.9978	279.5416	309.825	396.2394	492.4447	561.0102	628.6911	685.6819	696.3686	727.5377	750.2024	971.1877	990.3826	1025.088	1061.1302	1063.0063	1123.566	1225.9558	1259.8971	1285.3701	1347.7441	1413.0195	1418.967	1441.1623	1483.5206	1484.3919	1487.1992	1499.2696	1518.4531	1573.6739	1684.2214	3002.3743	3007.0039	3041.1347	3046.4163	3102.9259	3125.0975	3256.0505	3690.2509	3848.6903
CC1=CNC(C)=C1O	Cc1c[nH]c(C)c1O	
InChI=1S/C6H9NO/c1-4-3-7-5(2)6(4)8/h3,7-8H,1-2H3	InChI=1S/C6H9NO/c1-4-3-7-5(2)6(4)8/h3,7-8H,1-2H3
