18
gdb 95093	2.48154	1.58449	1.15762	4.3342	76.16	-0.2845	0.0046	0.2891	1095.0784	0.148264	-401.965858	-401.957674	-401.95673	-401.998483	31.193	
C	 0.0096347248	 1.5620384698	 0.0330971681	-0.414154
C	 0.0239778793	 0.0336814192	 0.0011506376	-0.056843
C	 0.7992268083	-0.5721510055	-1.1985398903	-0.237912
C	 1.3225588932	-1.9491742458	-0.7289941548	-0.253682
C	 1.5000317118	-1.7786815255	 0.7648732275	-0.009875
O	 2.1505457677	-0.5581611561	 1.1406214344	-0.286701
C	 0.7157710995	-0.6068825326	 1.2033081257	 0.295452
C	 0.1311181043	-0.4953118811	 2.5179003848	 0.226826
N	-0.376080901	-0.386649449	 3.5510327921	-0.337132
H	 1.0299373245	 1.9530128863	 0.0969726052	 0.13435
H	-0.4527000837	 1.9623522095	-0.8741559645	 0.121614
H	-0.5551236926	 1.9372161349	 0.892066174	 0.134988
H	-1.0089238659	-0.3395063621	-0.0014748877	 0.093689
H	 0.1724573547	-0.6445117821	-2.090095607	 0.109097
H	 1.6432647197	 0.0780620208	-1.4414813715	 0.1244
H	 0.5881583546	-2.7446187472	-0.9030188418	 0.116298
H	 2.2502067904	-2.2431601162	-1.2287551128	 0.121709
H	 1.6891965203	-2.6233987271	 1.421649021	 0.117876
109.9161	142.3496	176.3361	229.2851	253.4503	323.3642	388.2909	475.4869	494.3604	564.4731	601.859	657.0475	667.5291	828.6105	849.0846	892.1253	931.1669	937.8216	962.1936	1014.9884	1039.8512	1056.9728	1127.753	1143.8665	1172.7625	1213.6743	1236.191	1287.6547	1314.3606	1331.1324	1341.3204	1368.5665	1412.0519	1428.5104	1479.8747	1493.3115	1498.6264	1502.278	2357.7712	3022.1683	3038.9489	3043.9203	3071.7899	3092.0872	3110.9166	3113.394	3120.164	3160.7211
CC1CCC2OC12C#N	C[C@H]1CC[C@H]2O[C@@]12C#N	
InChI=1S/C7H9NO/c1-5-2-3-6-7(5,4-8)9-6/h5-6H,2-3H2,1H3	InChI=1S/C7H9NO/c1-5-2-3-6-7(5,4-8)9-6/h5-6H,2-3H2,1H3/t5-,6+,7-/m0/s1
