16
gdb 49482	3.06527	1.53399	1.21196	6.2239	71.23	-0.25	-0.027	0.2231	1020.0062	0.125834	-437.914476	-437.907275	-437.906331	-437.946547	27.336	
O	-0.1375154203	 0.0244984431	-0.0366020108	-0.281998
C	-0.0125459097	 1.2205008829	-0.0028861547	 0.15038
N	 1.1819801517	 1.9097023756	 0.0070395042	-0.104138
C	 1.3422201705	 3.3809186448	 0.0485677163	-0.010038
C	 2.4435007574	 3.5960071843	-1.0245595072	-0.231491
C	 3.2827304779	 2.7722848598	 0.0145241193	-0.158911
C	 2.4614729253	 3.5337029632	 1.1137520696	-0.231492
C	 2.5268230969	 1.4375150347	-0.0180122497	 0.439034
O	 2.9228757942	 0.3101663223	-0.0541764375	-0.331786
H	-0.8708428387	 1.923924152	 0.0248931332	 0.07809
H	 0.3948759488	 3.9167003654	 0.0721393041	 0.096776
H	 2.275030374	 3.1655300333	-2.013730017	 0.122428
H	 2.7775348814	 4.6324759833	-1.0975216812	 0.11869
H	 4.3668834737	 2.7039716846	 0.00342191	 0.103338
H	 2.797193765	 4.5643285626	 1.2413163242	 0.118691
H	 2.3094288318	 3.0462823681	 2.078871427	 0.122428
70.4404	187.0811	193.7365	223.449	433.0161	446.1957	487.5292	536.3263	678.8081	738.7696	757.1643	835.277	854.8304	855.5258	887.0522	991.0764	999.5932	1028.7013	1031.355	1060.0557	1064.0989	1103.7485	1145.4788	1170.1049	1223.0313	1236.8351	1245.2153	1273.4617	1286.3835	1396.3773	1442.5651	1480.7324	1516.3685	1803.923	1902.8229	2912.0704	3072.0219	3076.0645	3137.9576	3139.7935	3143.4341	3166.0592
O=CN1C2CC(C2)C1=O	O=CN1[C@@H]2C[C@@H](C2)C1=O	
InChI=1S/C6H7NO2/c8-3-7-5-1-4(2-5)6(7)9/h3-5H,1-2H2	InChI=1S/C6H7NO2/c8-3-7-5-1-4(2-5)6(7)9/h3-5H,1-2H2/t4-,5+
