20
gdb 119807	4.08351	0.80779	0.70984	3.7687	82.95	-0.2094	0.0049	0.2143	1627.9738	0.170774	-403.21082	-403.20147	-403.200526	-403.245679	34.376	
C	 0.0806028076	 1.5772548867	 0.08764441	-0.379827
C	 0.1048212803	 0.0475680315	 0.06305229	-0.16105
C	 0.5843775486	-0.5135420649	-1.2906255933	-0.307348
C	 0.6163994777	-2.0059925255	-1.3485483062	 0.378634
C	-0.1094024975	-2.8596729757	-2.0837293138	-0.235606
C	 0.3017784844	-4.2707256658	-1.7591086035	-0.380979
C	 1.4069921404	-4.0902393713	-0.7037502712	 0.402911
O	 2.0602367851	-4.9339263103	-0.1353910406	-0.370416
N	 1.5124242144	-2.7217797798	-0.5265909954	-0.368659
H	 1.0775829837	 1.9937455577	-0.094369398	 0.116527
H	-0.5887322597	 1.9745494755	-0.6833374038	 0.118612
H	-0.2657643437	 1.9524416801	 1.0552023639	 0.118108
H	 0.7528428997	-0.3232123008	 0.8670214392	 0.097214
H	-0.8955325389	-0.3483606703	 0.2735103739	 0.109515
H	-0.0729017924	-0.153475185	-2.0891370312	 0.115646
H	 1.5863839255	-0.1156959748	-1.5080163083	 0.10818
H	-0.8687990041	-2.5778241181	-2.7975622348	 0.098559
H	-0.5034266189	-4.8848092674	-1.3382407206	 0.142254
H	 0.7031280794	-4.8284817168	-2.6135462403	 0.142125
H	 2.1790820583	-2.3123557451	 0.106721934	 0.255601
68.4966	78.0321	92.5931	155.4955	244.2987	277.2908	297.5205	340.1375	421.7178	497.4837	560.3424	611.4313	661.4406	717.58	735.9462	747.6187	855.8615	881.1446	900.3444	952.2843	980.3537	997.5102	1043.4192	1094.4191	1112.1305	1145.3364	1189.9494	1199.8575	1253.6387	1272.8403	1308.8227	1320.4064	1339.6506	1384.9303	1413.7004	1420.5968	1440.1504	1475.7348	1491.334	1499.7538	1509.5328	1708.8145	1837.8497	3004.8143	3027.3378	3031.776	3040.9932	3057.8039	3070.8641	3078.9968	3099.9598	3107.218	3242.8191	3660.5894
CCCC1=CCC(=O)N1	CCCC1=CCC(=O)N1	
InChI=1S/C7H11NO/c1-2-3-6-4-5-7(9)8-6/h4H,2-3,5H2,1H3,(H,8,9)	InChI=1S/C7H11NO/c1-2-3-6-4-5-7(9)8-6/h4H,2-3,5H2,1H3,(H,8,9)
