21
gdb 78749	3.00273	1.55025	1.23374	1.4136	81.93	-0.2215	0.0985	0.32	1100.7587	0.183195	-387.072441	-387.0644	-387.063455	-387.104395	32.494	
C	-0.0929869764	 1.4797403326	 0.0244397323	-0.410843
C	-0.0016848418	-0.0405830356	-0.0281767301	 0.017878
C	 0.7641102922	-0.5684689791	-1.2448505249	-0.129337
C	 2.0116013594	-0.8321224278	-0.3862023858	-0.160426
C	 1.1303172753	-0.636753061	 0.8794192576	-0.083725
C	 0.7828321841	-2.0702613567	 1.2694295331	-0.096743
O	 0.5877422799	-2.7380442328	 0.017603821	-0.311203
C	 1.2637608517	-1.9784620334	-0.9754137323	 0.458813
C	 1.7853829488	-2.8235405106	-2.1016819114	-0.478396
H	 0.8923679979	 1.9385467608	-0.1151595103	 0.114759
H	-0.7534381832	 1.863558938	-0.7609707559	 0.113099
H	-0.4894853474	 1.8163189052	 0.9888033447	 0.110702
H	-0.9927208432	-0.4840075811	 0.1319761282	 0.068856
H	 0.7076624223	-0.167239857	-2.2524275148	 0.073424
H	 3.057349194	-0.5933179029	-0.5314929028	 0.082293
H	 1.4908138455	-0.0051585848	 1.691673153	 0.06954
H	 1.5976314094	-2.5483714021	 1.8356309531	 0.087121
H	-0.1428576223	-2.1494396124	 1.8498744326	 0.103183
H	 0.9654334875	-3.3578423198	-2.5922308533	 0.129376
H	 2.2852333037	-2.2038675747	-2.8517313977	 0.117963
H	 2.4990417926	-3.565585475	-1.7303167261	 0.123663
160.5214	205.9737	212.891	250.3069	259.5536	314.7941	342.1182	397.9104	533.4772	598.7903	684.2355	738.9583	765.9658	840.179	846.4611	854.3555	901.0398	923.5274	946.7622	964.5753	1004.5352	1023.6968	1038.7548	1058.8229	1078.7503	1102.0282	1115.2784	1138.5917	1164.2777	1192.4798	1217.4477	1227.9372	1263.4505	1279.2969	1288.4251	1364.1689	1383.2175	1407.1032	1410.2371	1434.9833	1479.3353	1495.604	1499.7183	1503.0922	1514.5144	2979.2965	3019.5615	3023.9753	3037.6241	3065.8683	3091.5539	3094.2336	3103.4654	3111.8686	3115.4076	3151.5789	3190.7334
CC1C2C3C1COC23C	C[C@H]1[C@H]2[C@H]3[C@@H]1CO[C@@]23C	
InChI=1S/C8H12O/c1-4-5-3-9-8(2)6(4)7(5)8/h4-7H,3H2,1-2H3	InChI=1S/C8H12O/c1-4-5-3-9-8(2)6(4)7(5)8/h4-7H,3H2,1-2H3/t4-,5-,6+,7-,8+/m1/s1
