20
gdb 87002	3.42757	0.87126	0.76233	4.748	78.16	-0.248	0.0302	0.2782	1535.7082	0.169807	-440.267741	-440.258168	-440.257224	-440.303505	34.063	
C	 0.5554144079	 1.1279741128	 0.615342234	-0.400153
C	 0.1765509112	-0.2644676561	 0.1581915939	 0.178773
C	 0.5262232126	-0.7031456061	-1.2822702668	-0.329207
C	 1.2635840601	-1.8708621782	-0.5971847065	 0.149705
C	 2.7351029142	-2.0475090346	-0.9204910887	-0.108013
O	 3.3289617873	-3.1190163919	-0.1957940654	-0.187667
C	 3.686694902	-2.8621623509	 1.0836758756	 0.13098
N	 4.1857607107	-3.7848430401	 1.784776438	-0.443043
O	 1.0440464323	-1.290893654	 0.7108394272	-0.315037
H	 1.5869544106	 1.3642163718	 0.3358875864	 0.116363
H	-0.1088050791	 1.8720456871	 0.1622319475	 0.120599
H	 0.4667119701	 1.2095960578	 1.7032317325	 0.13188
H	-0.8683678859	-0.4785877186	 0.4223880692	 0.080817
H	-0.3050947178	-0.9651294362	-1.9371128976	 0.115951
H	 1.1902068056	-0.005572676	-1.8010957367	 0.107962
H	 0.7556333548	-2.8404577896	-0.6835243805	 0.093284
H	 2.8479330184	-2.3058066298	-1.9784475252	 0.122472
H	 3.2712428287	-1.1070418314	-0.734478711	 0.10564
H	 3.4935510076	-1.8287935114	 1.3922887899	 0.101766
H	 4.4088962087	-3.4275092147	 2.7114930443	 0.226928
49.0055	68.5381	76.1059	121.8831	210.6019	248.1083	319.507	343.2795	372.0147	420.0028	466.3984	643.6642	694.6667	819.3243	826.4899	870.3492	914.8012	919.1579	946.2119	977.8721	1039.8474	1058.7867	1064.085	1108.5011	1135.2377	1141.3649	1163.3387	1200.6066	1244.6576	1254.1668	1288.2032	1322.8477	1324.8393	1371.8645	1389.5735	1405.6714	1418.9749	1429.0352	1482.5219	1485.4504	1491.6928	1496.6342	1744.4276	3004.5831	3014.1457	3026.3269	3033.5218	3064.5053	3065.5222	3088.9878	3107.0458	3112.1916	3133.2491	3516.4671
CC1CC(COC=N)O1	C[C@H]1C[C@@H](CO[CH][NH])O1	
InChI=1S/C6H11NO2/c1-5-2-6(9-5)3-8-4-7/h4-7H,2-3H2,1H3	InChI=1S/C6H11NO2/c1-5-2-6(9-5)3-8-4-7/h4-7H,2-3H2,1H3/t5-,6-/m0/s1
