13
gdb 19388	3.20308	2.34688	1.60437	3.7546	59.05	-0.2422	-0.0364	0.2057	775.6841	0.094887	-398.527128	-398.520615	-398.519671	-398.557841	24.396	
O	-0.011555314	 0.0108289356	-0.1047454007	-0.298567
C	-0.036058293	 1.1956447141	 0.0319817911	 0.393568
C	-1.107527642	 2.2724993971	-0.0774332883	-0.19333
N	-0.8997969895	 3.1551401785	 1.1198836977	-0.33481
C	-0.0387972446	 3.3344916834	-0.0604352615	-0.177055
C	 1.0576750342	 2.2904119252	 0.117309697	 0.370855
C	 2.3678346345	 2.3345650691	 0.7588834887	-0.25115
O	 2.2270759503	 2.2185961351	-0.6667488979	-0.269671
H	-2.0577120663	 2.2384792061	-0.5933587792	 0.123002
H	-1.6387164339	 3.8581601881	 1.0776430911	 0.246181
H	 0.0088053284	 4.2497628391	-0.6342162045	 0.12634
H	 2.7535473594	 3.2883903369	 1.1141393114	 0.127329
H	 2.7479022166	 1.4463441918	 1.2593727552	 0.137309
128.0889	195.4144	232.6778	272.4522	423.7658	513.0575	630.5482	652.2726	745.1632	822.9552	828.7467	856.019	890.5444	914.1331	950.5634	987.4688	1048.1863	1085.0072	1095.305	1121.5824	1131.155	1164.349	1265.9034	1300.2561	1333.9719	1447.2529	1529.5687	1905.0265	3092.9375	3187.3338	3211.2191	3223.745	3463.9794
O=C1C2NC2C11CO1	O=C1[C@H]2N[C@H]2[C@]21CO2	
InChI=1S/C5H5NO2/c7-4-2-3(6-2)5(4)1-8-5/h2-3,6H,1H2	InChI=1S/C5H5NO2/c7-4-2-3(6-2)5(4)1-8-5/h2-3,6H,1H2/t2-,3+,5-/m0/s1
