15
gdb 23572	3.10245	1.5456	1.35287	2.1382	67.68	-0.2457	0.0084	0.2542	957.5636	0.113326	-453.812825	-453.805967	-453.805023	-453.844061	27.35	
O	-0.1055381407	 1.3528871567	 0.0153598469	-0.393918
N	 0.044725086	-0.0466666155	 0.0253175185	-0.306738
C	-1.0679350731	-0.6262641288	 0.0856786134	 0.579348
C	-2.5631156017	-0.339620457	 0.0285764566	-0.172701
N	-2.5817764299	-1.5295854519	-0.918128616	-0.316473
C	-1.507096295	-2.0739327524	 0.0095785688	-0.1631
C	-2.2658341181	-2.2197650144	 1.363743402	 0.029737
O	-1.9735770512	-1.1956500837	 2.3262388307	-0.235532
C	-3.026556561	-0.9657167746	 1.3768961507	 0.033327
H	 0.8086324737	 1.6516346426	-0.0385406482	 0.309412
H	-2.9952798202	 0.5975799898	-0.3114791328	 0.100489
H	-3.453382469	-2.0600070764	-0.8325373907	 0.212636
H	-0.8801014042	-2.8872778598	-0.3482830235	 0.093923
H	-2.597848577	-3.1763928211	 1.7526169695	 0.114868
H	-4.0236873786	-0.8237946735	 1.7795177442	 0.114723
115.139	194.1576	303.1292	358.7046	380.3132	441.0925	516.5072	574.7544	683.3263	723.4644	775.4404	819.5147	821.8818	849.7717	868.9239	870.7025	924.8991	963.4183	987.182	1055.6865	1079.2414	1095.5751	1119.918	1140.0322	1203.538	1215.6683	1249.7037	1269.2112	1272.7295	1324.2819	1387.7533	1419.4241	1841.8775	3154.1012	3163.6552	3172.8358	3184.8684	3403.4036	3818.707
ON=C1C2NC1C1OC21	ON=C1[C@H]2N[C@@H]1[C@H]1O[C@@H]21	
InChI=1S/C5H6N2O2/c8-7-1-2-4-5(9-4)3(1)6-2/h2-6,8H	InChI=1S/C5H6N2O2/c8-7-1-2-4-5(9-4)3(1)6-2/h2-6,8H/t2-,3+,4+,5-
