19
gdb 54382	3.82585	1.07744	0.98024	2.0015	76.86	-0.2419	-0.0168	0.2252	1245.8237	0.157437	-423.000054	-422.991025	-422.990081	-423.034585	33.727	
C	 0.0791939027	 1.4550039885	-0.0644676244	-0.492703
C	-0.0291199305	-0.0584260538	-0.0149405305	 0.249581
O	-0.1302870697	-0.6651431515	 1.028210362	-0.29597
C	-0.0094517486	-0.7765603368	-1.3306276322	 0.26613
C	 1.0319266224	-0.6398496557	-2.4944393405	-0.303223
C	-0.0109743417	-1.6785778684	-2.9631882079	 0.391224
O	 0.0632197538	-2.3066609751	-4.1891658973	-0.466778
C	 0.0440881946	-2.3125335962	-1.5380778745	-0.327472
C	-1.1234405754	-0.7178007755	-2.4334717992	-0.32862
H	 1.0517810048	 1.7478314964	-0.4760831676	 0.144136
H	-0.6849822935	 1.8779453591	-0.7252824755	 0.138541
H	-0.0291968224	 1.8646999256	 0.9403944367	 0.141936
H	 1.0503438015	 0.3115597372	-3.0317877971	 0.098399
H	 2.0373406626	-1.0137646259	-2.2857660644	 0.103938
H	-0.6228166353	-2.9816830353	-4.2309937847	 0.284471
H	 0.9756340972	-2.8071939438	-1.2543401802	 0.102562
H	-0.8331023903	-2.8736676882	-1.2065009265	 0.096938
H	-2.0844937511	-1.163883216	-2.1630796638	 0.098436
H	-1.2441951808	 0.2311494054	-2.9619257223	 0.098472
30.5229	109.6736	140.2186	150.389	244.2157	329.4476	369.6576	382.2988	473.7991	538.562	555.5198	595.529	612.8777	647.3236	775.2747	799.9179	922.2418	949.3609	956.3891	983.7737	997.5382	1046.8442	1057.8644	1065.6071	1106.0542	1124.8393	1135.3498	1149.5437	1161.5778	1171.2652	1195.5448	1292.0405	1337.1408	1377.7663	1388.8057	1462.9519	1473.0826	1491.6002	1497.6414	1560.4352	1797.9291	3038.602	3049.4702	3055.5203	3064.585	3099.6553	3120.6249	3126.8955	3131.1855	3152.4335	3809.3612
CC(=O)C12CC(O)(C1)C2	CC(=O)[C@@]12C[C@@](O)(C1)C2	
InChI=1S/C7H10O2/c1-5(8)6-2-7(9,3-6)4-6/h9H,2-4H2,1H3	InChI=1S/C7H10O2/c1-5(8)6-2-7(9,3-6)4-6/h9H,2-4H2,1H3/t6-,7+
