19
gdb 22854	2.68394	1.34928	0.91526	3.1384	86.8	-0.1812	0.0067	0.188	1258.6955	0.1591	-419.199131	-419.189554	-419.18861	-419.23382	35.566	
C	-0.0451341522	 1.5829351022	-0.034163517	-0.501913
C	 0.0101538194	 0.0810888934	-0.010213526	 0.129498
C	-1.0632895305	-0.7428719077	 0.1227679074	 0.278077
N	-2.37686339	-0.3889045437	 0.3281994461	-0.581447
C	-0.6975403606	-2.2052939851	 0.1319734609	-0.318399
C	 0.8180315055	-2.205334762	-0.1552797549	-0.290928
C	 1.2169880121	-0.735165815	-0.1090604446	 0.341153
N	 2.4661771419	-0.452581361	-0.1629558891	-0.277137
O	 2.7117902094	 0.94407564	-0.1147061161	-0.412507
H	 0.5357494045	 1.9880743861	-0.8649436549	 0.143936
H	-1.0749170973	 1.9457536437	-0.1343983588	 0.084962
H	 0.3704884758	 2.0202998212	 0.8793681998	 0.138148
H	-2.631532696	 0.5653990114	 0.1222127251	 0.252144
H	-3.0698525831	-1.0563324583	 0.024983164	 0.25061
H	-0.9393768171	-2.6513360596	 1.1049754786	 0.120705
H	-1.2718926156	-2.7672805952	-0.6162029111	 0.101965
H	 1.3871311412	-2.7928947262	 0.5683028576	 0.121899
H	 1.0346845519	-2.620160034	-1.1443476878	 0.121501
H	 3.6724486707	 0.9692689799	-0.1539815091	 0.297734
38.5226	105.4415	134.2576	229.3861	244.1443	272.0717	314.6591	360.4904	369.3991	393.3337	492.4937	503.4323	570.4085	600.4241	635.5103	671.7168	720.9717	835.3605	902.1872	953.574	999.481	1024.0651	1034.9381	1062.2971	1117.2361	1163.5261	1196.0113	1241.2669	1277.8763	1290.4985	1329.3856	1387.7702	1397.6085	1433.3222	1473.5957	1475.662	1492.5267	1498.0361	1641.9373	1690.4992	1724.9053	3016.4524	3028.5933	3042.3692	3062.0328	3085.5886	3107.2893	3122.2185	3568.4838	3672.286	3831.2821
CC1=C(N)CCC1=NO	CC1=C(N)CCC1=NO	
InChI=1S/C6H10N2O/c1-4-5(7)2-3-6(4)8-9/h9H,2-3,7H2,1H3	InChI=1S/C6H10N2O/c1-4-5(7)2-3-6(4)8-9/h9H,2-3,7H2,1H3
