19
gdb 124494	2.53633	1.28985	1.04871	4.8357	78.36	-0.2167	0.0131	0.2297	1229.2304	0.159971	-415.394528	-415.385126	-415.384182	-415.429134	34.476	
C	-0.010707157	 1.5333663907	 0.0397295531	-0.376167
C	-0.0636767781	-0.0050136111	-0.0128124046	-0.094381
C	-1.517869387	-0.5083839921	-0.0284815092	-0.376477
C	 0.7046771625	-0.5346072026	-1.1900687272	 0.303135
C	 1.8879777888	-1.2472999634	-1.229346225	 0.210492
N	 2.7939294647	-1.6676386803	-0.2535133866	-0.612385
N	 2.1115377756	-1.4393239872	-2.5531929684	-0.211723
N	 1.1255244375	-0.8924829671	-3.307037144	-0.13308
N	 0.2911390916	-0.3429847854	-2.4798766057	-0.259436
H	 1.020690623	 1.8936687379	 0.1033941305	 0.109934
H	-0.4572719853	 1.9560562849	-0.8652061291	 0.139071
H	-0.5617737637	 1.9134296112	 0.9063999743	 0.105524
H	 0.4176172305	-0.3911479623	 0.898084862	 0.053762
H	-2.0196554388	-0.1807114526	-0.9431378427	 0.142918
H	-1.5593039778	-1.601451181	 0.0015869447	 0.108257
H	-2.0729101882	-0.1189244923	 0.8311604621	 0.10419
H	 2.487623004	-1.4011976007	 0.6734705556	 0.25787
H	 2.965139071	-2.6671783518	-0.2664803881	 0.253994
H	 2.8966030666	-1.8840042851	-3.0007045917	 0.274502
34.6039	141.6098	170.2945	172.5714	231.6975	255.7891	280.0235	290.2695	384.8039	441.6584	510.2808	534.2963	624.9487	687.0616	736.0294	759.7015	787.9895	891.5714	927.9098	964.2144	1009.0431	1050.5009	1080.7604	1106.4444	1126.4635	1170.3873	1217.1012	1289.6335	1321.9183	1330.0449	1377.9397	1395.0956	1400.1676	1418.0042	1484.644	1492.4285	1500.3624	1505.8198	1527.0629	1630.0212	1663.7714	2987.2874	3032.6878	3037.5877	3102.0668	3105.9768	3114.8209	3121.9368	3519.104	3613.3152	3659.4111
CC(C)C1=C(N)NN=N1	CC(C)c1c(N)[nH]nn1	
InChI=1S/C5H10N4/c1-3(2)4-5(6)8-9-7-4/h3H,1-2H3,(H3,6,7,8,9)	InChI=1S/C5H10N4/c1-3(2)4-5(6)8-9-7-4/h3H,1-2H3,(H3,6,7,8,9)
