18
gdb 41419	3.25351	1.94897	1.544	1.5069	73.19	-0.2267	0.0677	0.2944	888.5667	0.150515	-401.876683	-401.870373	-401.869429	-401.906956	26.826	
C	 0.031426634	 1.4711206747	-0.0305544588	-0.119228
O	 1.4950941753	 1.5038456184	-0.0404169365	-0.362005
C	 1.5192741349	 0.0968355558	-0.2281829262	 0.470008
C	 2.4537648864	-0.9019705798	 0.4142771694	-0.30549
C	 1.7312758632	-2.2151851459	-0.0360996935	-0.244443
C	 0.9147676944	-1.8284113352	-1.2872610629	-0.017774
C	 1.1913459167	-0.4370785272	-1.6545018982	-0.138919
N	-0.2114142728	-0.8140403943	-1.22818181	-0.161474
C	 0.0191464331	-0.075953628	 0.0448401356	-0.07027
H	-0.3633867905	 1.9952386728	 0.8441201151	 0.114568
H	-0.3961832058	 1.8916799548	-0.9473759069	 0.116511
H	 3.4703941156	-0.8420547209	 0.0103774421	 0.108074
H	 2.5038425254	-0.7974018886	 1.5015400974	 0.107905
H	 2.4451136059	-2.9990973898	-0.3025988922	 0.111253
H	 1.0964610343	-2.6177731999	 0.759393728	 0.113916
H	 0.7212795666	-2.5819077358	-2.0412612096	 0.103269
H	 1.4398533435	-0.0148488329	-2.6200424898	 0.098287
H	-0.4087803602	-0.5187076882	 0.9471360169	 0.075811
216.781	242.9795	341.1535	380.5573	435.0717	498.905	668.9349	689.0229	712.2085	759.716	791.4197	844.3554	862.2697	873.3075	911.2901	924.534	959.7454	964.0259	1006.9198	1030.3532	1057.7676	1073.0311	1110.6237	1131.3775	1150.1272	1171.1193	1183.3906	1215.8446	1241.5691	1263.0155	1284.9603	1292.9846	1315.6382	1337.8179	1356.3288	1380.8789	1481.383	1497.6577	1506.3524	3039.2189	3043.2786	3055.4738	3079.9246	3092.5343	3101.9126	3106.9913	3185.1482	3198.5498
C1OC23CCC4C2N4C13	C1O[C@]23CC[C@@H]4[C@H]2N4[C@H]13	
InChI=1S/C7H9NO/c1-2-7-5(3-9-7)8-4(1)6(7)8/h4-6H,1-3H2	InChI=1S/C7H9NO/c1-2-7-5(3-9-7)8-4(1)6(7)8/h4-6H,1-3H2/t4-,5-,6-,7+,8?/m1/s1
