16
gdb 65857	2.65187	1.31548	1.18175	3.391	71.83	-0.2594	0.0102	0.2695	1101.0709	0.123024	-437.863156	-437.854578	-437.853633	-437.896369	32.297	
O	 0.0349839223	 1.4894665156	-0.2034688045	-0.461865
C	-0.0146784389	 0.0867387099	 0.0126116273	 0.199382
C	 0.527637762	-0.3067916113	 1.417366816	-0.130403
O	-0.2276269638	-1.4483786806	 1.8238524605	-0.23432
C	-1.4153960102	-1.5058733388	 1.1379768894	 0.425698
N	-2.3007904468	-2.3846651307	 1.313752611	-0.541103
C	-1.4816048893	-0.3626768755	 0.1534678267	-0.342172
C	 0.688632462	-0.6370031574	-1.0475987916	 0.311323
C	 1.2981374029	-1.2028107917	-1.9153890614	-0.492102
H	 0.8908131321	 1.7031984013	-0.5898258729	 0.290115
H	 1.5859405879	-0.573562192	 1.4215939335	 0.123967
H	 0.3513915247	 0.5328786396	 2.1002469696	 0.120163
H	-2.0201203399	-3.0338466077	 2.0510105573	 0.224048
H	-2.0458017891	 0.4714394201	 0.5846306802	 0.146389
H	-1.9550856633	-0.6569077124	-0.7812316246	 0.149235
H	 1.8236130273	-1.7117778084	-2.6860386865	 0.211644
74.3345	132.1731	185.781	204.8124	243.5671	315.5398	400.81	438.7754	463.8373	530.9926	564.6454	631.6127	637.6282	680.1382	686.5645	769.1048	857.9045	896.085	929.1617	955.254	1017.8373	1075.4381	1094.8565	1114.9521	1122.1218	1204.7872	1258.0794	1268.6256	1307.2613	1363.4758	1403.7313	1466.0632	1515.6183	1788.1115	2233.3424	3037.157	3063.6575	3120.4254	3157.4213	3472.4896	3498.0582	3819.0113
OC1(COC(=N)C1)C#C	O[C@]1(CO[C]([NH])C1)C#C	
InChI=1S/C6H7NO2/c1-2-6(8)3-5(7)9-4-6/h1,7-8H,3-4H2	InChI=1S/C6H7NO2/c1-2-6(8)3-5(7)9-4-6/h1,7-8H,3-4H2/t6-/m1/s1
