20
gdb 14477	3.73859	2.08513	2.0851	0.0087	76.6	-0.2601	0.0837	0.3437	798.1118	0.180443	-311.892406	-311.885988	-311.885044	-311.92227	27.626	
C	-0.0141394458	 1.4804810458	 0.0271166112	-0.481796
C	 0.0154862816	-0.0353787179	 0.0192728422	 0.286794
C	 0.7106860939	-0.7223313278	-1.1875473424	-0.240285
C	 0.4894322003	-2.1660897075	-0.753377595	-0.057197
C	 0.5029178121	-2.1727470127	 0.7649308898	-0.057094
C	 0.7313237361	-0.7330401256	 1.2078864036	-0.240178
C	-0.818453493	-2.1952281515	 0.0173881559	-0.056906
C	-1.3530750493	-0.7684591906	 0.0278177187	-0.240284
H	 0.9989442982	 1.8980256246	 0.0207787845	 0.110763
H	-0.5399473763	 1.8727500734	-0.8506336062	 0.110738
H	-0.5246910646	 1.8636252872	 0.9178662727	 0.11077
H	 0.2243152615	-0.4791593109	-2.1392338039	 0.087974
H	 1.7704316488	-0.4529154666	-1.2634139586	 0.087987
H	 0.8312688452	-3.014250913	-1.3320190034	 0.075601
H	 0.8547546132	-3.0260355409	 1.3298499982	 0.075619
H	 1.7920479695	-0.4637799216	 1.2680879044	 0.087989
H	 0.2613424366	-0.4983870459	 2.1699131065	 0.087968
H	-1.4616379542	-3.0654869654	 0.018924141	 0.075588
H	-1.941948143	-0.5355660674	 0.9224493089	 0.087959
H	-1.9574404708	-0.5285589358	-0.8545857382	 0.087988
223.0243	283.2578	284.5361	432.6817	435.9274	440.1628	597.0052	654.0292	654.0537	787.937	813.6067	814.6288	877.575	878.3132	950.0189	950.9993	952.2688	956.623	991.0192	991.183	1051.425	1051.9155	1059.9224	1075.3656	1139.9944	1140.2548	1148.4569	1161.8313	1248.9933	1249.4625	1270.9973	1271.7126	1312.1439	1312.7056	1340.0474	1395.4046	1417.5481	1485.998	1487.6088	1496.5534	1497.3429	1516.2706	3022.3354	3028.1439	3028.658	3037.6197	3069.6835	3074.482	3074.8804	3088.4427	3089.0565	3192.0924	3192.4601	3206.8478
CC12CC3C(C1)C3C2	C[C@@]12C[C@H]3[C@@H](C1)[C@H]3C2	
InChI=1S/C8H12/c1-8-2-5-6(3-8)7(5)4-8/h5-7H,2-4H2,1H3	InChI=1S/C8H12/c1-8-2-5-6(3-8)7(5)4-8/h5-7H,2-4H2,1H3/t5-,6+,7-,8+
