16
gdb 29450	3.35387	1.60042	1.09074	1.229	76.89	-0.1894	0.0325	0.2219	1061.3942	0.126306	-400.789284	-400.781758	-400.780814	-400.821051	29.064	
C	-0.0177402147	 1.5282657009	-0.0077230298	-0.505483
C	-0.0060849487	 0.0315210341	 0.0364978093	 0.087452
C	-0.028543069	-0.8143971194	-1.0506562628	-0.152336
N	-0.008009164	-2.1496502808	-0.6307501733	-0.421206
C	 0.0273889013	-2.1113341886	 0.7245247535	 0.416803
C	 0.0304773447	-0.8200297569	 1.1949586775	 0.189894
C	 0.0690069272	-0.9774061473	 2.6286616373	-0.358651
C	 0.0846519331	-2.3168346898	 2.8632135345	-0.025069
O	 0.0589870639	-3.0540871956	 1.6794262701	-0.221099
H	 0.8744224082	 1.955013569	 0.46611806	 0.123952
H	-0.0506094858	 1.8908554628	-1.0393176568	 0.118108
H	-0.8863485002	 1.9426922121	 0.5179302697	 0.123925
H	-0.0578675408	-0.5848138679	-2.1040950559	 0.117417
H	-0.0175377877	-2.9591742505	-1.2240808009	 0.26787
H	 0.0835531763	-0.214558862	 3.3919858417	 0.107981
H	 0.1123234162	-2.9142716301	 3.7583875859	 0.130442
135.7248	176.2421	220.5702	241.2598	264.4855	398.4101	511.4119	578.664	594.1577	604.2221	675.5686	689.9246	695.2838	752.2045	797.0895	816.2328	911.7766	999.0418	1013.3619	1063.7713	1070.1006	1101.2128	1163.1765	1192.8081	1261.3545	1322.0982	1345.1718	1419.1744	1466.2096	1480.9051	1500.744	1528.0896	1550.2227	1591.2093	1618.7028	3021.3123	3067.8555	3103.7563	3249.4105	3258.5103	3291.9477	3698.5485
CC1=CNC2=C1C=CO2	Cc1c[nH]c2c1cco2	
InChI=1S/C7H7NO/c1-5-4-8-7-6(5)2-3-9-7/h2-4,8H,1H3	InChI=1S/C7H7NO/c1-5-4-8-7-6(5)2-3-9-7/h2-4,8H,1H3
