12
gdb 20774	3.58259	1.96413	1.27867	3.8855	64.1	-0.2756	-0.0597	0.2159	875.5364	0.082493	-377.456628	-377.449496	-377.448552	-377.488238	25.477	
C	-0.0371030327	 1.4981127725	-0.0292693906	-0.510715
C	-0.0130666034	 0.0095382746	 0.0253850209	 0.217693
N	-0.0298500743	-0.7466287102	-1.0364011429	-0.120594
O	 0.0017325109	-2.0409807306	-0.5828690067	-0.15165
N	 0.0384826268	-2.0976001936	 0.7727918197	-0.161459
C	 0.0306535554	-0.8474379829	 1.1782618377	 0.17166
C	 0.0609029614	-0.4658251114	 2.5384000511	 0.29353
C	 0.0855497658	-0.0909554542	 3.6806194389	-0.417316
H	 0.8511974623	 1.9162531019	 0.45426007	 0.153444
H	-0.0693799873	 1.8359313815	-1.065941587	 0.159612
H	-0.9111847659	 1.8894948922	 0.5003805609	 0.153453
H	 0.1077847011	 0.2240341703	 4.6950684281	 0.212341
98.794	133.5742	177.2617	279.3063	314.4633	481.9369	534.7914	586.7708	635.5654	639.7286	683.05	705.7209	755.5935	912.7104	940.4248	1016.7966	1071.2619	1074.9684	1233.6654	1389.5312	1420.4909	1478.0517	1478.814	1502.2708	1610.1757	2247.6467	3049.2957	3107.2252	3150.4342	3500.0337
CC1=NON=C1C#C	Cc1nonc1C#C	
InChI=1S/C5H4N2O/c1-3-5-4(2)6-8-7-5/h1H,2H3	InChI=1S/C5H4N2O/c1-3-5-4(2)6-8-7-5/h1H,2H3
