14
gdb 42621	2.83978	1.92489	1.38389	3.874	65.66	-0.2403	-0.0914	0.1489	892.1673	0.102113	-436.659497	-436.652971	-436.652027	-436.690535	25.4	
O	-0.0095361914	-0.0011674971	 0.318088998	-0.291633
C	-0.0379810255	 1.1769668946	 0.0820956655	 0.314643
C	-1.2329791514	 2.0698759945	-0.0146746185	-0.146978
C	-0.7831113969	 3.491663862	 0.1035009598	-0.062915
C	 0.6476132399	 3.4450015738	-0.5023282807	-0.187444
C	-0.0928609737	 3.2136799322	-1.8535478396	-0.171168
N	-1.4148349779	 3.0324202834	-1.1587592713	-0.135797
C	 1.2104968307	 2.1042582823	-0.0705247053	 0.332567
O	 2.3492416078	 1.7824504826	 0.1185259195	-0.287074
H	-2.1762052941	 1.7306638551	 0.3937089633	 0.132617
H	-1.2140526738	 4.2307828815	 0.7679500743	 0.122022
H	 1.326579291	 4.288406918	-0.4097567825	 0.11098
H	-0.1501670969	 4.1234615608	-2.4533458027	 0.138407
H	 0.2236982422	 2.3774310562	-2.4848427198	 0.131774
104.1727	193.9016	309.7085	353.8399	463.343	470.3478	606.1374	633.0315	710.4368	729.8757	766.4454	820.1628	868.4557	900.6628	924.0694	948.9829	987.5183	1018.2972	1045.5012	1114.7835	1150.0906	1179.3516	1203.0907	1213.9292	1246.2946	1267.4496	1307.4224	1337.2914	1502.5027	1839.2529	1866.511	3056.0363	3125.0166	3157.5914	3190.7034	3210.2642
O=C1C2C3C(CN23)C1=O	O=C1[C@H]2[C@H]3[C@H](CN23)C1=O	
InChI=1S/C6H5NO2/c8-5-2-1-7-3(2)4(7)6(5)9/h2-4H,1H2	InChI=1S/C6H5NO2/c8-5-2-1-7-3(2)4(7)6(5)9/h2-4H,1H2/t2-,3+,4+,7?/m0/s1
