17
gdb 108907	3.28682	1.00253	0.88608	4.0202	72.36	-0.2276	-0.024	0.2036	1323.3659	0.133809	-458.958381	-458.949297	-458.948353	-458.993217	31.665	
O	-0.0386839245	 1.4105153047	 0.1606143119	-0.41166
C	-0.0090621029	 0.0060939454	-0.0027062924	-0.181537
C	-1.4042045823	-0.5195147177	-0.0315106092	 0.296574
C	-2.5401755998	 0.1656747896	 0.0560202058	-0.22111
C	-3.702434424	-0.8009186764	 0.0220227687	-0.014261
O	-3.1345694221	-2.0624022529	-0.2619397765	-0.252177
C	-1.7156960518	-1.9894527394	-0.1617221291	-0.159889
C	-4.4302630251	-0.7855533167	 1.3690305728	 0.152815
O	-4.3728310443	-1.6608713131	 2.1879634553	-0.234192
H	 0.8675993317	 1.7305582188	 0.1789550704	 0.293898
H	 0.5058213496	-0.2827375315	-0.93622732	 0.103635
H	 0.5433299025	-0.4870144289	 0.8169542763	 0.106116
H	-2.6379378041	 1.2351496368	 0.1720037412	 0.12789
H	-4.4434636388	-0.5447847113	-0.7545939678	 0.100886
H	-1.2700327009	-2.4442895529	-1.0587121493	 0.108209
H	-1.3603193187	-2.5629075325	 0.7092068151	 0.116525
H	-5.0214149444	 0.1462071781	 1.5398595066	 0.068277
58.1595	76.955	121.0044	165.1764	195.6837	232.6458	266.4089	338.7617	419.158	456.1702	657.4585	698.4781	766.7172	829.8989	840.8123	920.9018	967.7161	994.9388	1001.4811	1034.2434	1075.9831	1079.3761	1132.3902	1195.6639	1201.3843	1219.1183	1251.0314	1258.1153	1295.6513	1337.9816	1385.7981	1415.8336	1469.6045	1505.6966	1518.432	1727.9997	1847.4006	2842.6795	2943.374	2956.7047	2960.7943	2978.6126	3006.1954	3247.9835	3838.7472
OCC1=CC(OC1)C=O	OCC1=C[C@@H](OC1)C=O	
InChI=1S/C6H8O3/c7-2-5-1-6(3-8)9-4-5/h1,3,6-7H,2,4H2	InChI=1S/C6H8O3/c7-2-5-1-6(3-8)9-4-5/h1,3,6-7H,2,4H2/t6-/m1/s1
