20
gdb 113470	3.9868	1.02289	0.98179	2.3802	80.3	-0.2233	0.0851	0.3084	1300.6301	0.17027	-403.065297	-403.0567	-403.055756	-403.098742	32.601	
C	-0.4218994394	 1.2116583914	 0.1198065872	-0.230153
O	 0.5454699525	 0.2082751771	-0.1190952273	-0.242022
C	 0.9916542761	-0.4096665895	 1.0450320129	 0.050015
C	 0.1782124093	-1.5408040058	 1.6432718858	-0.404113
C	 1.4561030467	-1.8182078277	 0.8975273839	 0.338619
C	 1.6024750786	-2.6489257533	-0.3799900397	-0.2377
N	 2.8156771721	-3.3602474008	 0.1768224578	-0.128134
C	 3.8141166728	-2.3076276946	 0.4392849002	-0.239216
C	 2.7134373016	-2.4758785003	 1.4113028447	-0.127818
H	-0.0181352886	 2.0210899402	 0.746559905	 0.106888
H	-0.7045913228	 1.6240015438	-0.8516133186	 0.127948
H	-1.3154907915	 0.8046491467	 0.6140956022	 0.109975
H	 1.526490097	 0.2486065647	 1.7335606282	 0.082724
H	 0.1676041107	-1.6549719022	 2.7229960772	 0.113893
H	-0.7499736419	-1.8041341294	 1.1449877414	 0.119547
H	 0.7927351017	-3.3644477819	-0.5401253265	 0.11303
H	 1.7960703845	-2.1014139011	-1.3077635069	 0.11559
H	 4.7884191269	-2.7086418073	 0.7024240519	 0.119087
H	 3.8371556853	-1.4267988374	-0.1996822729	 0.116649
H	 2.8582181985	-2.8740673126	 2.4111040136	 0.09519
82.6726	108.9878	149.8338	184.8662	224.615	326.233	368.024	448.6446	466.6759	484.2674	619.663	744.1075	778.5632	809.344	867.0892	907.7635	911.8611	950.2913	972.4581	1021.7075	1037.7305	1046.9282	1053.0831	1090.9355	1109.3295	1112.0538	1129.4035	1175.1511	1182.8275	1192.0756	1209.5389	1233.6968	1252.0343	1279.2385	1313.8014	1361.8468	1424.8849	1471.6225	1485.7809	1489.2357	1497.6002	1504.8109	1509.8149	2984.2635	3036.2553	3050.8654	3073.8102	3100.1064	3108.7442	3118.193	3118.6238	3154.6788	3194.8319	3208.2732
COC1CC11CN2CC12	CO[C@H]1C[C@]21CN1C[C@@H]21	
InChI=1S/C7H11NO/c1-9-6-2-7(6)4-8-3-5(7)8/h5-6H,2-4H2,1H3	InChI=1S/C7H11NO/c1-9-6-2-7(6)4-8-3-5(7)8/h5-6H,2-4H2,1H3/t5-,6-,7-,8?/m0/s1
