17
gdb 41679	3.83922	1.66704	1.53336	1.2294	71.43	-0.2307	0.008	0.2387	892.1965	0.139112	-421.788083	-421.781976	-421.781032	-421.818172	26.01	
C	 0.0642534734	 1.3536668675	 0.0734595569	 0.017992
O	 1.3811118178	 1.8503190473	 0.0200265427	-0.27824
C	 2.1583931623	 1.1590539931	-0.9325560429	 0.151285
C	 1.3421095862	 0.465392546	-2.0967119328	-0.166344
C	 2.4465943581	-0.3188429645	-2.7785708126	-0.11305
C	 3.1527142148	-0.8418288191	-1.7647384753	-0.101003
C	 2.4347418647	-0.3424532563	-0.5339442626	-0.126708
C	 0.9288891942	-0.5506866133	-0.9566604615	 0.151288
O	 0.0135031478	-0.0515486895	-0.0067404989	-0.278242
H	-0.364839716	 1.648711982	 1.0335600968	 0.122109
H	-0.5251521496	 1.7890852073	-0.7501971805	 0.091214
H	 3.0138002786	 1.7842775594	-1.1978267738	 0.08633
H	 0.616919199	 0.9955893049	-2.7123073604	 0.073192
H	 2.5934321016	-0.4090025764	-3.84538125	 0.105877
H	 4.029772673	-1.4725653418	-1.789758715	 0.106168
H	 2.7807346216	-0.6053478001	 0.4640774197	 0.071804
H	 0.6121346124	-1.5554615667	-1.2449104897	 0.086327
258.1949	284.9175	321.5006	411.611	510.2231	510.4839	545.2917	689.5108	692.7445	716.6188	869.0837	891.8383	916.3519	917.5296	934.8521	964.6811	972.3867	974.9941	1001.7538	1042.7297	1045.4588	1072.7489	1140.1884	1156.2499	1196.1413	1202.0956	1214.2361	1219.1127	1226.9058	1255.5623	1271.3661	1335.845	1339.9523	1373.4767	1448.2262	1528.3838	1614.5148	2963.7311	3093.1054	3096.0926	3105.7718	3129.7251	3139.9487	3221.0187	3246.0921
C1OC2C3C=CC2C3O1	C1O[C@@H]2[C@H]3C=C[C@@H]2[C@H]3O1	
InChI=1S/C7H8O2/c1-2-5-6-4(1)7(5)9-3-8-6/h1-2,4-7H,3H2	InChI=1S/C7H8O2/c1-2-5-6-4(1)7(5)9-3-8-6/h1-2,4-7H,3H2/t4-,5+,6-,7+
