23
gdb 112828	2.78393	1.14927	0.92292	1.1536	84.96	-0.26	0.0795	0.3395	1356.9812	0.206873	-388.292911	-388.283743	-388.282799	-388.326604	35.729	
C	-0.0387903258	 1.5724883528	 0.0055176932	-0.398361
C	 0.0490037673	 0.0450272236	 0.0181535549	 0.02632
C	 0.7969011581	-0.5531919597	-1.1973920747	-0.236139
C	 1.3190580878	-1.9324090523	-0.730790503	 0.026183
C	 2.5383311935	-2.4248247683	-1.4979368882	-0.090639
O	 2.1726768549	-2.5630818393	-2.8654531083	-0.42447
C	 1.5470309632	-1.7617581464	 0.7683854347	-0.060326
C	 2.2783869731	-0.5222377842	 1.234595152	-0.294101
C	 0.7689771264	-0.5504082598	 1.226205617	-0.036194
H	 0.960216255	 2.0219091749	 0.0312356383	 0.111584
H	-0.5455625701	 1.9333019012	-0.8961466364	 0.109806
H	-0.5942770763	 1.9474142391	 0.871894611	 0.108034
H	-0.9735605055	-0.3584790842	 0.0244329248	 0.069268
H	 0.1651155807	-0.6281061554	-2.0845851945	 0.107091
H	 1.6403485654	 0.0916856971	-1.4741356514	 0.093372
H	 0.5238509985	-2.6773977457	-0.8698177807	 0.077225
H	 3.3639884764	-1.7047179471	-1.3773558832	 0.081622
H	 2.8787282903	-3.3863618389	-1.0799413156	 0.080024
H	 2.9476820364	-2.8495649967	-3.3569793503	 0.285031
H	 1.6103651196	-2.65292593	 1.3842534768	 0.076128
H	 2.767012624	-0.5752097445	 2.2013786285	 0.105866
H	 2.8075239705	 0.092202689	 0.5134779216	 0.10738
H	 0.2556295968	-0.5463990052	 2.1823550234	 0.075297
93.9601	126.1792	156.0878	207.9123	233.1896	264.3915	305.0354	362.8857	422.4057	462.6951	500.4372	581.8519	627.8045	766.5927	819.1582	843.1982	886.7652	891.1689	930.5116	953.3211	993.6914	999.2053	1042.042	1058.3299	1064.8397	1072.9526	1090.2416	1093.1503	1111.6441	1142.8141	1178.993	1203.774	1208.9483	1245.7063	1252.2521	1294.1819	1321.8416	1333.1548	1340.9214	1362.7058	1380.1976	1398.0191	1409.6747	1457.32	1484.1	1495.5387	1498.1873	1508.8843	1521.2697	2959.6287	2985.4939	2999.0158	3016.9489	3025.7537	3036.9555	3093.6	3094.334	3107.8256	3130.8012	3152.3731	3162.088	3211.0031	3830.6451
CC1CC(CO)C2CC12	C[C@H]1C[C@@H](CO)[C@H]2C[C@@H]12	
InChI=1S/C8H14O/c1-5-2-6(4-9)8-3-7(5)8/h5-9H,2-4H2,1H3	InChI=1S/C8H14O/c1-5-2-6(4-9)8-3-7(5)8/h5-9H,2-4H2,1H3/t5-,6-,7-,8+/m0/s1
