18
gdb 7093	7.93601	0.8073	0.74719	2.6722	74.84	-0.247	-0.0142	0.2328	1514.7905	0.149784	-347.795566	-347.785778	-347.784834	-347.831662	33.761	
C	-0.113431033	 1.6296456058	-0.0392386121	-0.387282
C	 0.0152522464	 0.1069137285	 0.043469241	-0.16394
C	-1.336882221	-0.6033477044	-0.0231078355	-0.281437
C	-1.2366413621	-2.1222810775	 0.0204634495	 0.373074
O	-0.1860524559	-2.7095311588	-0.0241597932	-0.273543
C	-2.5899350049	-2.8539564664	 0.1332472448	-0.480411
C	-2.5139396839	-4.2976488912	-0.0024586489	 0.325667
C	-2.4576113775	-5.4913478731	-0.117220424	-0.424858
H	 0.8679648183	 2.110660945	 0.0115335258	 0.117862
H	-0.5871609744	 1.9402603611	-0.9774215445	 0.113709
H	-0.7201848315	 2.0260380061	 0.7828539953	 0.112953
H	 0.6501943196	-0.2657609822	-0.7666092306	 0.11843
H	 0.5225627944	-0.1788460364	 0.9715023516	 0.111544
H	-1.9995508628	-0.2729877985	 0.7895734044	 0.115689
H	-1.8703776644	-0.3357479891	-0.9477614029	 0.123281
H	-3.0211218019	-2.5810437511	 1.1073749682	 0.153805
H	-3.2757606142	-2.4270407244	-0.6109273765	 0.147128
H	-2.3987317111	-6.5464837333	-0.2194034224	 0.198331
26.9822	48.4522	88.769	108.4421	188.1495	246.0352	318.4044	320.9713	362.6755	411.8403	461.8822	624.3221	643.6144	698.6714	717.8718	809.7264	862.0006	890.8871	929.6798	975.4682	1047.5414	1058.5055	1099.8406	1138.2774	1214.1142	1260.8088	1307.149	1324.2817	1336.7267	1393.495	1414.899	1436.6733	1453.6718	1487.3166	1500.6862	1507.9884	1826.2427	2249.7585	3002.0447	3012.8573	3027.8397	3030.5226	3042.9091	3049.5238	3076.208	3100.7745	3104.4975	3507.7246
CCCC(=O)CC#C	CCCC(=O)CC#C	
InChI=1S/C7H10O/c1-3-5-7(8)6-4-2/h1H,4-6H2,2H3	InChI=1S/C7H10O/c1-3-5-7(8)6-4-2/h1H,4-6H2,2H3
