18
gdb 17475	3.47658	2.46424	1.94981	0.3969	75.22	-0.2179	0.021	0.2389	770.7243	0.155369	-310.644941	-310.638531	-310.637587	-310.674817	27.07	
C	-0.0386499356	 1.5490848891	-0.0125985573	-0.498374
C	-0.0407690073	 0.036239985	 0.0548539218	 0.288969
C	 0.314109311	-0.7616526796	-1.2707068622	-0.256793
C	-0.836931769	-1.7087303237	-0.9656733372	-0.073784
C	-0.9034234672	-2.0861797253	 0.5401254556	-0.078997
C	 0.3037212866	-1.8534306856	 1.3823953892	-0.091238
C	 0.7693321682	-0.6211372826	 1.1570738216	-0.135488
C	-1.4016896869	-0.7532733579	 0.0563313847	-0.111906
H	 0.976056063	 1.9345444773	-0.1650589358	 0.115374
H	-0.6590023815	 1.9113550963	-0.8393007082	 0.112795
H	-0.424872868	 1.9864211836	 0.9149385491	 0.117728
H	 0.0778064263	-0.1553179167	-2.1502757868	 0.098128
H	 1.3304957182	-1.1606530107	-1.3589800079	 0.087368
H	-1.3620459682	-2.3233672221	-1.6873458689	 0.083235
H	-1.6156644473	-2.8680172924	 0.7781801642	 0.080724
H	 0.743873598	-2.6039454543	 2.0274148562	 0.093338
H	 1.6805827495	-0.1900333126	 1.5559305514	 0.089139
H	-2.4008279197	-0.3546197377	 0.1912802803	 0.07978
217.7946	268.2662	275.1441	381.4185	409.3517	540.6503	593.7527	703.7805	727.7239	749.3302	767.3738	784.4241	827.4579	859.1903	901.6448	927.2842	956.2632	967.54	986.3987	1005.5183	1017.5274	1051.933	1086.7121	1110.9876	1121.6954	1151.3515	1204.1607	1219.9	1247.6815	1278.4861	1309.883	1373.7176	1375.2924	1412.6806	1485.6299	1492.0398	1497.1316	1646.2798	3023.2505	3034.5241	3088.7998	3090.6371	3095.2041	3167.6245	3173.4906	3186.1568	3189.3207	3216.7994
CC12CC3C(C=C1)C23	C[C@@]12C[C@H]3[C@@H](C=C1)[C@@H]23	
InChI=1S/C8H10/c1-8-3-2-5-6(4-8)7(5)8/h2-3,5-7H,4H2,1H3	InChI=1S/C8H10/c1-8-3-2-5-6(4-8)7(5)8/h2-3,5-7H,4H2,1H3/t5-,6+,7-,8+/m1/s1
