17
gdb 22647	3.03062	1.05649	0.99777	3.8283	75.41	-0.2526	-0.0081	0.2446	1241.3298	0.136592	-418.00043	-417.992005	-417.991061	-418.034057	31.307	
O	-0.150688272	 1.3062205436	 0.2233309308	-0.39241
N	-0.0104178505	-0.0903003929	 0.1885298828	-0.220803
C	-1.1272423156	-0.6563018129	-0.0300887795	 0.421456
C	-2.484991216	-0.0101037684	-0.2046370899	-0.297676
C	-3.4172219777	-1.179114381	-0.5753234627	-0.234845
C	-2.7556065918	-2.4278545201	 0.0745600517	-0.16913
C	-1.2380281817	-2.1638349175	-0.1205960874	-0.301884
C	-3.1053837833	-2.5379325852	 1.4927648487	 0.277172
N	-3.3865201378	-2.618493836	 2.6112041981	-0.322161
H	 0.7474643645	 1.5977201048	 0.4132466701	 0.309616
H	-2.7820095953	 0.4596887169	 0.7405579498	 0.149207
H	-2.4619092016	 0.7863538864	-0.9526426944	 0.135633
H	-4.4484835361	-1.0345784124	-0.2493004272	 0.128085
H	-3.4270789161	-1.3303784212	-1.659541839	 0.115811
H	-3.0699036437	-3.3529075572	-0.4165962346	 0.126815
H	-0.9544427119	-2.5046029831	-1.1238781268	 0.129073
H	-0.6018242334	-2.6812450536	 0.5983681296	 0.146041
48.1544	113.6294	186.5459	228.7321	260.6369	310.677	388.6574	433.8386	487.9943	507.0036	583.1331	650.9838	719.4085	783.3228	817.273	848.239	912.1262	954.7576	981.3192	995.1083	1017.4929	1062.9495	1156.7982	1175.2416	1197.8035	1223.9372	1255.9256	1291.649	1318.3505	1336.9833	1364.78	1406.8071	1463.8512	1470.364	1497.2911	1758.2764	2354.8256	3037.6965	3047.9517	3057.1384	3079.0425	3099.9716	3123.4898	3127.7325	3819.2624
ON=C1CCC(C1)C#N	ON=C1CC[C@@H](C1)C#N	
InChI=1S/C6H8N2O/c7-4-5-1-2-6(3-5)8-9/h5,9H,1-3H2	InChI=1S/C6H8N2O/c7-4-5-1-2-6(3-5)8-9/h5,9H,1-3H2/t5-/m0/s1
