18
gdb 32429	2.94825	1.21744	0.92771	0.3904	75.28	-0.1835	0.0347	0.2182	1271.4795	0.146914	-439.109232	-439.099635	-439.098691	-439.143779	34.751	
C	-0.1554812751	 1.5142211634	-0.058307295	-0.368333
C	 0.0697976889	-0.0080418038	-0.0240189595	-0.307932
C	 0.7774053886	-0.4827361353	 1.2090923807	 0.242898
C	 2.0787117716	-0.8532627639	 1.335395334	-0.137024
O	 2.362929719	-1.2328843526	 2.6178595862	-0.179589
C	 1.2025536436	-1.0959105	 3.3182740045	 0.315975
O	 1.2241852619	-1.3639683871	 4.6421109347	-0.431532
C	 0.1950953459	-0.6495733712	 2.5221177754	 0.002654
N	-1.1650884488	-0.4894992118	 2.8585188376	-0.620339
H	 0.7980849854	 2.0497918286	-0.0236349289	 0.121839
H	-0.6838286785	 1.8113644889	-0.9698247475	 0.112862
H	-0.7520338063	 1.8532632228	 0.7957053904	 0.11004
H	-0.899520011	-0.5167930081	-0.0967460672	 0.115322
H	 0.6453392187	-0.3056696328	-0.9076749001	 0.102927
H	 2.8969653939	-0.9144011071	 0.6372227697	 0.128831
H	 1.527971013	-2.2693468272	 4.7841271818	 0.305346
H	-1.3083369296	-0.6598389138	 3.8476855097	 0.243908
H	-1.5036510409	 0.4436583909	 2.6498847834	 0.242147
67.687	110.8233	125.1381	177.489	235.874	239.8847	265.1417	300.1763	310.8171	425.5086	526.3396	568.4654	615.616	693.6655	711.2643	721.7681	759.4013	799.3501	839.0199	951.8598	996.523	1066.7866	1085.0016	1138.8506	1168.2467	1217.8127	1251.0473	1289.0572	1322.079	1327.6205	1361.8043	1410.1847	1465.6479	1479.9553	1495.8979	1503.4799	1613.6103	1649.3137	1732.2045	3027.5301	3032.3758	3064.7054	3099.0607	3111.0808	3273.9342	3506.001	3592.141	3760.7412
CCC1=COC(O)=C1N	CCc1coc(O)c1N	
InChI=1S/C6H9NO2/c1-2-4-3-9-6(8)5(4)7/h3,8H,2,7H2,1H3	InChI=1S/C6H9NO2/c1-2-4-3-9-6(8)5(4)7/h3,8H,2,7H2,1H3
