23
gdb 109246	3.04631	1.25778	1.10495	0.1557	91.25	-0.2202	0.028	0.2482	1242.9437	0.208231	-351.164451	-351.156138	-351.155194	-351.197241	33.468	
C	-0.2422709322	 1.5183096619	-0.0295272537	-0.370609
C	 0.0948864731	 0.017471063	 0.028297177	-0.303145
C	 0.7907055889	-0.484435105	-1.207408647	 0.364361
C	 2.06122747	-0.8981075061	-1.2371058955	-0.181596
C	 2.6721449054	-1.3780488209	-2.5342615067	-0.248245
C	 1.637473105	-1.3047377434	-3.6700589652	-0.011295
C	 0.9169986267	 0.0755368425	-3.6469643009	-0.217496
C	 0.024617223	-0.5325556805	-2.5222875395	-0.098569
C	 0.2853463538	-1.9144659995	-3.1963711732	-0.219545
H	 0.6695639846	 2.1166167676	-0.1221732975	 0.118638
H	-0.8829764607	 1.7537880495	-0.8855589284	 0.118756
H	-0.7683134731	 1.8355928342	 0.8763932103	 0.110889
H	 0.7217268313	-0.1805325139	 0.9052186646	 0.097185
H	-0.837245857	-0.5469488849	 0.1758466063	 0.098391
H	 2.6757034707	-0.9017842671	-0.3399126463	 0.073562
H	 3.554916391	-0.7731635471	-2.7880436216	 0.099666
H	 3.0396615495	-2.4087402979	-2.4244895955	 0.099699
H	 2.0565826602	-1.6521889613	-4.6175906881	 0.055555
H	 1.504765073	 0.9641253136	-3.4017686549	 0.090313
H	 0.3523292617	 0.2459684373	-4.5680261906	 0.090405
H	-1.0060616218	-0.1855867584	-2.4241475494	 0.052533
H	-0.3898944332	-2.0901455547	-4.0386868406	 0.090406
H	 0.3105208801	-2.7960978291	-2.5503239337	 0.090141
82.8699	113.4628	206.6543	262.7654	316.7515	347.5411	375.4318	423.1929	456.418	617.6528	661.7617	739.6043	788.1555	820.412	826.629	832.0376	875.9594	907.5973	937.8066	944.4034	957.8767	969.9843	1034.4182	1064.4188	1077.728	1084.3152	1096.2509	1104.5655	1131.0343	1134.8651	1185.254	1206.5977	1247.0397	1262.3939	1270.8329	1288.7789	1307.0514	1336.4258	1355.8402	1368.9829	1380.0542	1405.7898	1474.7337	1476.116	1478.7682	1497.6068	1506.0058	1506.8652	1722.9266	2995.6351	3002.2978	3018.2105	3034.0012	3045.726	3049.2958	3057.2822	3073.1869	3081.4994	3103.5732	3104.6989	3107.2381	3108.4163	3150.9945
CCC1=CCC2CC1C2	CCC1=CC[C@@H]2C[C@H]1C2	
InChI=1S/C9H14/c1-2-8-4-3-7-5-9(8)6-7/h4,7,9H,2-3,5-6H2,1H3	InChI=1S/C9H14/c1-2-8-4-3-7-5-9(8)6-7/h4,7,9H,2-3,5-6H2,1H3/t7-,9+
