18
gdb 36452	3.4141	1.00376	0.84756	3.614	76.32	-0.2747	0.0314	0.306	1341.7648	0.147345	-401.932718	-401.924196	-401.923251	-401.966557	31.44	
N	 0.0713718118	-1.1998895516	-0.1367951626	-0.304011
C	 0.0042854522	-0.052866748	-0.0134453269	 0.265316
C	-0.0524554151	 1.4004859256	 0.1361917448	-0.380201
C	 1.3343048159	 2.048283851	 0.0730786891	-0.05628
C	 2.1128539173	 2.0710555074	-1.2768169579	-0.236254
C	 2.5410292642	 3.540494749	-0.9825664987	-0.321155
C	 1.436062286	 3.5798819942	 0.0747314723	 0.44067
C	 0.3769269746	 4.5762363822	 0.2551196061	-0.266933
O	 1.4197700677	 4.3947878204	 1.2258420049	-0.267879
H	-0.6960814826	 1.8065717114	-0.6528919929	 0.148409
H	-0.5338071768	 1.6325034422	 1.0938440529	 0.15971
H	 1.9650065197	 1.6432444973	 0.8711006145	 0.109629
H	 2.9066660954	 1.3336723253	-1.396111999	 0.122498
H	 1.4379573869	 2.0046893287	-2.1345294865	 0.112282
H	 3.5314843646	 3.600359762	-0.5227656531	 0.124114
H	 2.4845334409	 4.2614590079	-1.8005554995	 0.112808
H	 0.4173222541	 5.5091728519	-0.3057854433	 0.120822
H	-0.6184598065	 4.2774342433	 0.5819132258	 0.116455
64.8118	103.0489	111.6967	205.8017	264.7427	338.1617	382.8715	400.4876	479.9191	529.5221	553.0476	745.2547	795.1985	851.9335	875.7076	893.8813	905.0299	932.2575	959.418	989.3236	1084.111	1098.7454	1122.2175	1131.0762	1159.883	1170.0278	1215.177	1228.6851	1252.2356	1267.376	1278.7578	1319.7636	1381.1616	1427.3585	1466.5968	1478.5562	1498.5531	1537.7809	2361.9725	3036.7649	3058.7187	3066.068	3070.4772	3079.7394	3080.8001	3118.7204	3138.022	3165.3558
N#CCC1CCC11CO1	N#CC[C@H]1CC[C@]21CO2	
InChI=1S/C7H9NO/c8-4-2-6-1-3-7(6)5-9-7/h6H,1-3,5H2	InChI=1S/C7H9NO/c8-4-2-6-1-3-7(6)5-9-7/h6H,1-3,5H2/t6-,7-/m1/s1
