18
gdb 95567	2.4558	1.6875	1.05559	3.2449	76.26	-0.2221	-0.0088	0.2133	1123.4774	0.148747	-439.121452	-439.113135	-439.112191	-439.154438	31.57	
C	-0.3227938971	 1.4057357303	-0.0200320471	-0.385532
C	 0.0854105958	-0.0582272333	 0.0215935266	-0.015478
O	 0.8550346284	-0.3515177249	-1.1391290397	-0.251655
C	 0.6399852193	-1.6325670625	-1.6866767843	-0.140059
C	 1.0288736706	-2.7703170872	-0.7903123709	-0.101712
C	 1.404811553	-2.7192842367	 0.4898642777	 0.013533
N	 1.4696558979	-1.6254269201	 1.3567057601	-0.343862
C	 0.9033906856	-0.368739371	 1.2837453394	 0.420408
O	 1.0520504845	 0.4241057236	 2.1919466537	-0.359069
H	 0.5645920241	 2.04009723	-0.0791137044	 0.13831
H	-0.9486100629	 1.587684525	-0.8969792407	 0.1126
H	-0.8719733175	 1.6752339646	 0.883729642	 0.134163
H	-0.811836006	-0.6985264729	 0.0421862888	 0.094362
H	-0.4120549775	-1.7454856443	-2.0088897833	 0.098219
H	 1.2473117695	-1.6637324939	-2.6001250938	 0.123231
H	 1.0191553561	-3.752517289	-1.2537333221	 0.096521
H	 1.7019794504	-3.6389509563	 0.9835358809	 0.112329
H	 1.9556575459	-1.7686155015	 2.230461947	 0.253693
67.3752	142.1508	202.1478	242.6545	299.4867	326.8947	368.4267	400.5893	447.3774	532.7578	615.9616	637.5682	699.3287	732.5357	809.9521	846.351	890.7302	912.0296	963.044	1034.3179	1047.2316	1077.2137	1108.6982	1135.2707	1177.9435	1246.0889	1281.1137	1306.532	1363.1587	1384.9512	1408.072	1408.7828	1450.2056	1479.4198	1484.9441	1490.2363	1491.0877	1746.2707	1786.3319	2927.8533	2972.2585	3041.77	3059.6509	3136.5956	3147.1184	3166.2851	3187.6008	3607.8498
CC1OCC=CNC1=O	C[C@H]1OCC=CNC1=O	
InChI=1S/C6H9NO2/c1-5-6(8)7-3-2-4-9-5/h2-3,5H,4H2,1H3,(H,7,8)	InChI=1S/C6H9NO2/c1-5-6(8)7-3-2-4-9-5/h2-3,5H,4H2,1H3,(H,7,8)/t5-/m1/s1
