18
gdb 61295	4.48461	0.74726	0.67466	5.9592	74.71	-0.2504	0.0193	0.2697	1602.8255	0.146558	-439.091247	-439.081732	-439.080788	-439.126131	34.837	
N	-0.1856248212	 0.8529189368	-0.0171430547	-0.522123
H	-0.3417361753	-0.1509978918	-0.0079348655	 0.254628
H	 0.8196589523	 0.9927192883	-0.0955354441	 0.240749
H	-1.0663905745	 2.0389895161	-1.0080959696	 0.315995
C	-0.6857791217	 1.4546724537	 1.2314729564	 0.004316
C	 0.0515641256	 0.9542719713	 2.4987539975	-0.361806
C	 0.0073600998	-0.4969367351	 2.6241755834	 0.272991
C	-0.053008429	-1.6967072545	 2.6768235535	-0.419199
C	-0.6146918353	 2.9845055566	 1.1162923479	-0.336657
C	-1.4716609936	 3.6035160374	 0.0009808883	 0.395799
O	-1.560574005	 2.8909028477	-1.1284047041	-0.371741
O	-2.0074473726	 4.6726791793	 0.1294004346	-0.331082
H	-1.7364492744	 1.1537560495	 1.3166329568	 0.119063
H	 1.0959554222	 1.2946095999	 2.4646187585	 0.129316
H	-0.3954332884	 1.4207278028	 3.3853440279	 0.143623
H	-0.0984245729	-2.7550482859	 2.7554800611	 0.204895
H	-0.9233083485	 3.4588733	 2.0498723038	 0.137407
H	 0.4282088724	 3.2852312581	 0.9388214382	 0.123825
60.943	91.3281	112.1846	133.3907	242.9978	307.5806	347.9605	350.5653	397.6555	420.162	455.3384	551.3588	620.387	631.6675	657.7326	698.1975	856.3821	871.6841	890.6775	927.3772	963.1011	984.2732	1004.5807	1055.4572	1118.4477	1150.3861	1204.3168	1265.4614	1283.2874	1315.5165	1338.0442	1375.4839	1419.5016	1459.1887	1470.856	1495.8681	1653.7651	1859.643	2235.7699	3013.2835	3015.8011	3047.4924	3061.9641	3117.8164	3251.9333	3478.653	3503.3094	3562.7064
[NH3+]C(CC#C)CC([O-])=O	N[C@@H](CC#C)CC(=O)O	
InChI=1S/C6H9NO2/c1-2-3-5(7)4-6(8)9/h1,5H,3-4,7H2,(H,8,9)	InChI=1S/C6H9NO2/c1-2-3-5(7)4-6(8)9/h1,5H,3-4,7H2,(H,8,9)/t5-/m0/s1
