16
gdb 15933	3.52715	1.90559	1.51423	2.9182	65.2	-0.2531	-0.037	0.2161	855.0907	0.130218	-383.711391	-383.704225	-383.703281	-383.743217	26.33	
O	-0.2588670948	 0.1168595398	-0.2431464938	-0.251791
C	-0.0357361554	 1.2529356688	 0.0972116763	 0.063904
C	 1.2995297585	 1.9153954385	 0.0283138768	 0.200652
C	 1.6158465357	 3.0815366703	 1.005570729	-0.307098
C	 2.046000621	 3.9960402243	-0.1811987432	-0.228051
C	 1.7272570065	 2.8539175433	-1.1721376593	 0.084634
O	 2.8482235945	 2.0184089915	-1.4733961208	-0.282981
C	 2.5069684134	 1.0791106661	-0.4224098779	-0.131824
H	-0.8554315603	 1.9061904833	 0.4780170726	 0.072279
H	 0.7234252414	 3.4436992015	 1.5245774575	 0.112322
H	 2.3782902755	 2.8551594276	 1.7546922761	 0.113141
H	 1.4162171422	 4.8804749064	-0.3060023682	 0.108849
H	 3.0944174495	 4.2992451759	-0.2052647656	 0.120592
H	 1.1101632818	 3.0656545618	-2.0496496909	 0.089582
H	 3.3146023272	 0.9611658061	 0.3095153374	 0.103938
H	 2.2246100934	 0.1036279451	-0.8303932962	 0.131851
84.461	96.3486	228.9228	252.8496	348.6421	384.7377	494.7563	650.6818	732.0608	742.1753	835.0712	862.948	875.8096	937.6617	960.0322	995.4941	1016.9164	1047.8077	1084.7514	1121.5927	1148.0871	1189.315	1203.4227	1230.9725	1261.9505	1274.5164	1289.3722	1328.3736	1363.576	1427.7631	1464.2318	1483.7669	1520.7863	1811.1934	2857.7512	3027.8974	3054.6898	3064.9666	3076.6961	3089.6806	3105.6595	3130.7798
O=CC12CCC1OC2	O=C[C@]12CC[C@H]1OC2	
InChI=1S/C6H8O2/c7-3-6-2-1-5(6)8-4-6/h3,5H,1-2,4H2	InChI=1S/C6H8O2/c7-3-6-2-1-5(6)8-4-6/h3,5H,1-2,4H2/t5-,6+/m1/s1
