18
gdb 122107	2.40469	0.9575	0.75917	2.729	69.42	-0.2812	0.0061	0.2873	1493.513	0.14558	-476.208169	-476.197959	-476.197015	-476.244628	35.233	
O	-0.1448814324	 1.3788763031	 0.2273388397	-0.416503
C	 0.0225035587	 0.0573392724	-0.2439917396	-0.064333
C	-1.2904514175	-0.705631472	-0.2746464493	-0.087703
O	-2.141523109	-0.0195162428	-1.1964152557	-0.274759
C	-3.479552778	-0.4699509446	-1.2448147613	-0.043557
C	-4.2136490804	 0.4765340462	-2.2054339705	-0.07071
O	-3.6521274131	 0.451803898	-3.4920191337	-0.405397
C	-3.5575911395	-1.8749232031	-1.7015173244	 0.283704
N	-3.6098071826	-2.9816316413	-2.0283768258	-0.31881
H	-0.8238677501	 1.7819015993	-0.3247435102	 0.287285
H	 0.4731156971	 0.0366270422	-1.2488139545	 0.100768
H	 0.712865013	-0.4434387989	 0.4418740252	 0.121063
H	-1.1382727991	-1.7455401832	-0.5937927118	 0.124572
H	-1.752109128	-0.703008295	 0.7233991866	 0.109104
H	-3.9450947251	-0.4156763778	-0.2476470513	 0.12016
H	-5.2592812739	 0.1699845906	-2.2970542151	 0.134497
H	-4.1838217238	 1.4799774268	-1.7533680086	 0.104766
H	-2.7060997065	 0.6079453599	-3.3888150699	 0.295853
43.5967	72.1699	95.0954	130.1811	138.1248	224.7246	246.8993	310.5654	341.775	393.1382	422.3184	434.556	508.4136	623.4945	688.213	833.7948	870.5259	907.6039	938.2611	1019.5826	1074.991	1079.1036	1107.5832	1131.9403	1142.7351	1222.7121	1250.7443	1268.5275	1300.8762	1346.7095	1387.5643	1394.7011	1411.1254	1430.8491	1436.3108	1493.4675	1496.4616	1505.2913	2357.9489	2983.7604	2986.4703	2995.6062	3000.0865	3052.6262	3088.1237	3099.7795	3802.4198	3810.6226
OCCOC(CO)C#N	OCCO[C@@H](CO)C#N	
InChI=1S/C5H9NO3/c6-3-5(4-8)9-2-1-7/h5,7-8H,1-2,4H2	InChI=1S/C5H9NO3/c6-3-5(4-8)9-2-1-7/h5,7-8H,1-2,4H2/t5-/m1/s1
