18
gdb 55097	3.31222	1.1955	1.05215	5.8265	72.25	-0.2382	0.0162	0.2544	1167.9581	0.148066	-439.080329	-439.07185	-439.070906	-439.113814	32.316	
N	-0.0278060587	 0.9412768248	 0.0251235673	-0.598705
H	-0.7997108733	-0.9822234508	 1.8064059838	 0.315367
H	 0.9768272576	 1.0863988551	 0.0764926571	 0.235615
H	-0.341878994	 1.4095865666	-0.8223780247	 0.23737
C	-0.6761486507	 1.4986539178	 1.1761391741	 0.322488
C	-0.2384456995	 2.6627035844	 2.0211152171	-0.352797
C	-0.3234710444	 1.2815518553	 2.6442099473	-0.102192
C	-1.7758732045	 0.8955165076	 2.9668259331	-0.130199
C	-2.1545058602	 1.2031409989	 1.4690089905	-0.29509
C	-1.9411374242	-0.5744843657	 3.3113210451	 0.413308
O	-2.5964680529	-0.9808803189	 4.2300938981	-0.326417
O	-1.2913922681	-1.4486653687	 2.4980650742	-0.381202
H	 0.7789986524	 3.0026389668	 1.8495523704	 0.111626
H	-0.9283015555	 3.4509215378	 2.3171996617	 0.110212
H	 0.550015673	 0.8168382411	 3.0883810128	 0.103613
H	-2.286751671	 1.4762075724	 3.736705235	 0.099886
H	-2.843732152	 2.0373940532	 1.3159511023	 0.109779
H	-2.5338681339	 0.3267810622	 0.9406063149	 0.127338
61.6456	84.0143	196.8491	211.0496	296.6597	370.4356	379.7645	409.3976	437.5085	582.72	629.8057	645.1563	739.6829	777.4069	807.4054	828.4698	880.6954	896.9468	930.5077	944.5606	1009.286	1025.6259	1046.391	1071.4229	1080.7298	1123.349	1141.3246	1223.2822	1230.5206	1255.4935	1261.305	1318.2016	1332.2895	1348.6123	1402.34	1481.1221	1504.9906	1647.3904	1867.9161	3065.875	3095.8975	3098.6881	3126.48	3170.9292	3190.9543	3469.8377	3552.2963	3740.3622
[NH3+]C12CC1C(C2)C([O-])=O	N[C@]12C[C@H]1[C@@H](C2)C(=O)O	
InChI=1S/C6H9NO2/c7-6-1-3(5(8)9)4(6)2-6/h3-4H,1-2,7H2,(H,8,9)	InChI=1S/C6H9NO2/c7-6-1-3(5(8)9)4(6)2-6/h3-4H,1-2,7H2,(H,8,9)/t3-,4+,6-/m1/s1
