20
gdb 59155	2.69465	1.2356	1.07429	3.6944	78.93	-0.2437	0.0088	0.2525	1225.1464	0.170504	-403.149241	-403.140307	-403.139363	-403.183168	33.931	
C	 0.0645728796	 1.3512954567	-0.2830445687	-0.38844
C	 0.0658510477	-0.1318101086	 0.1153375932	-0.003892
C	 0.696405478	-0.3452213318	 1.4988938203	-0.387123
C	-1.3477555643	-0.6874281733	 0.0791540537	 0.006754
C	-2.0501742612	-1.2272969953	-1.1314361748	-0.040425
N	-1.1641327906	-1.9875589185	-2.0187021716	-0.341846
C	-0.762680917	-2.8508817722	-0.9791438466	 0.416481
O	 0.0363490792	-3.742979034	-0.9501597394	-0.344433
C	-1.707585181	-2.1788852482	 0.0084219758	-0.261068
H	 1.0817403688	 1.7554810169	-0.2899644635	 0.116234
H	-0.3652516114	 1.4976944369	-1.2793785647	 0.110933
H	-0.5242934114	 1.9475194891	 0.424179835	 0.114289
H	 0.6728788031	-0.6793622814	-0.6157548417	 0.082783
H	 0.1258432543	 0.176784982	 2.2763707684	 0.110212
H	 0.726462855	-1.4076739457	 1.7574846689	 0.130967
H	 1.7208157055	 0.0395007432	 1.5243299044	 0.114185
H	-2.0286032176	-0.1611047864	 0.7506478239	 0.095112
H	-3.0310349139	-0.9235885245	-1.4735323008	 0.112173
H	-0.510195767	-1.5664949816	-2.6691317571	 0.241941
H	-2.3544553359	-2.6612492834	 0.7272003853	 0.115163
51.7491	104.3264	169.6028	228.9482	243.9475	262.8507	327.2075	403.6071	456.3421	470.0945	546.7101	623.2644	737.8983	753.7867	799.7448	833.8714	867.1963	906.2488	923.0983	932.3003	966.5182	975.4689	1028.4169	1060.3781	1081.4239	1097.339	1136.2161	1141.6875	1189.5012	1223.4986	1271.0912	1312.1204	1324.6205	1337.1208	1341.533	1400.4701	1417.9848	1439.5305	1487.1756	1492.4309	1504.4638	1511.5132	1895.0894	3025.9965	3028.7937	3034.148	3091.4098	3096.3968	3102.0387	3104.3734	3112.5462	3198.6053	3224.1955	3545.6939
CC(C)C1C2NC(=O)C12	CC(C)[C@H]1[C@H]2NC(=O)[C@@H]12	
InChI=1S/C7H11NO/c1-3(2)4-5-6(4)8-7(5)9/h3-6H,1-2H3,(H,8,9)	InChI=1S/C7H11NO/c1-3(2)4-5-6(4)8-7(5)9/h3-6H,1-2H3,(H,8,9)/t4-,5+,6-/m1/s1
