14
gdb 127348	6.96225	0.87214	0.78246	6.494	66.74	-0.2598	-0.0102	0.2495	1374.2121	0.101474	-470.047109	-470.038963	-470.038019	-470.081061	27.565	
C	-0.0309731571	 1.3840169802	 0.1304734014	-0.320221
N	 0.0288645858	-0.0544616585	-0.0161742625	 0.056238
C	-0.0848775551	-0.8092610557	-1.1207842358	 0.017684
N	 0.0481438499	-2.093461623	-0.8242863922	-0.353777
C	 0.2381257859	-2.0484322589	 0.516056062	 0.465979
O	 0.45434613	-3.1364172749	 1.2938844638	-0.213461
C	 0.0536938288	-4.3650973849	 0.8290026365	 0.163467
O	 0.2824942513	-5.3532616609	 1.4502623532	-0.254477
N	 0.2370644414	-0.8490880739	 1.0678869919	-0.32718
H	 0.9130283437	 1.7590007862	 0.5327831124	 0.163647
H	-0.2115577791	 1.827417235	-0.8501682009	 0.14791
H	-0.8418095499	 1.6568805036	 0.80982479	 0.16324
H	-0.2534642516	-0.3967090493	-2.1041569968	 0.155469
H	-0.473738554	-4.300740635	-0.132067963	 0.135484
46.4165	110.5604	112.5823	163.1582	203.8853	321.6394	377.7244	461.9321	540.9036	643.689	713.3043	767.2128	851.1545	862.5784	1031.3121	1041.6121	1044.8983	1084.6203	1134.7706	1155.0359	1234.0406	1328.2805	1363.28	1409.3776	1452.1014	1464.0747	1471.6448	1500.3313	1527.7509	1581.396	1877.9143	3057.3219	3065.5099	3130.6546	3151.0487	3258.1019
CN1C=NC(OC=O)=N1	Cn1cnc(OC=O)n1	
InChI=1S/C4H5N3O2/c1-7-2-5-4(6-7)9-3-8/h2-3H,1H3	InChI=1S/C4H5N3O2/c1-7-2-5-4(6-7)9-3-8/h2-3H,1H3
