17
gdb 54934	4.66432	0.84498	0.76016	2.0414	69.78	-0.2462	-0.0416	0.2046	1452.944	0.132186	-458.966829	-458.95731	-458.956366	-459.003336	32.321	
C	-1.1109181767	 0.786007682	-0.1089507854	-0.478675
C	 0.3537037798	 0.4271131829	-0.0149531006	 0.350401
O	 1.0877594738	 0.8179345065	 0.8625569992	-0.290415
C	 0.9045152602	-0.4650562874	-1.128412281	 0.044584
C	 1.9615061818	-1.5030786833	-0.7160412672	-0.312902
C	 0.8894513975	-2.5446323554	-1.142307043	 0.055574
O	-0.0224958743	-1.4982444648	-1.5460354997	-0.307495
C	 1.2928755797	-3.423546729	-2.307710733	 0.138118
O	 1.6804535398	-4.5557640323	-2.1908149988	-0.23465
H	-1.3099374839	 1.3077975733	-1.0526073244	 0.144386
H	-1.7138700356	-0.1265154134	-0.1278865632	 0.161239
H	-1.3936320253	 1.4195670629	 0.7319818875	 0.143911
H	 1.181831665	 0.1826974622	-1.9731291826	 0.110303
H	 2.8737053704	-1.5056760897	-1.3140376673	 0.127006
H	 2.2189416439	-1.4939303962	 0.3420638991	 0.148279
H	 0.4872366082	-3.1649345518	-0.3343962	 0.112357
H	 1.2218699257	-2.9124030666	-3.2953646997	 0.087979
31.7195	46.7757	66.6072	121.2639	160.9413	233.1868	291.2049	365.4683	418.2005	447.0372	546.5708	602.4226	719.1303	825.5029	881.6011	898.2083	941.2362	969.7686	1013.7455	1029.7911	1045.0528	1072.7448	1115.1099	1163.566	1207.8629	1247.0205	1247.7954	1287.8101	1313.6701	1354.3864	1381.1302	1403.9803	1461.1116	1466.5824	1494.2823	1813.9105	1836.1575	2876.7907	3000.2723	3041.9673	3060.4365	3094.3426	3107.6561	3158.134	3160.7229
CC(=O)C1CC(O1)C=O	CC(=O)[C@H]1C[C@@H](O1)C=O	
InChI=1S/C6H8O3/c1-4(8)6-2-5(3-7)9-6/h3,5-6H,2H2,1H3	InChI=1S/C6H8O3/c1-4(8)6-2-5(3-7)9-6/h3,5-6H,2H2,1H3/t5-,6-/m1/s1
