17
gdb 13301	4.91926	1.28838	1.13587	4.0279	72.91	-0.2514	0.0148	0.2662	1047.2244	0.143821	-326.758998	-326.751571	-326.750627	-326.791169	27.593	
N	-0.3093267999	-0.972515847	-0.4605948688	-0.311498
C	-0.1623864598	 0.1641127555	-0.3103364493	 0.260292
C	 0.0465287176	 1.5970709385	-0.1139645352	-0.345666
C	 1.5221452644	 1.9626220817	 0.1723227685	 0.00995
C	 2.4332306221	 1.6329690806	-1.0437325374	-0.265643
C	 2.574656598	 2.9632811218	-1.7437878941	-0.05446
C	 2.1532727514	 3.9741827795	-0.9861759944	-0.057706
C	 1.6533955134	 3.50114825	 0.3586148609	-0.276224
H	-0.295293787	 2.1273691237	-1.0111079626	 0.155478
H	-0.5906363458	 1.9270219277	 0.7141657986	 0.148257
H	 1.8381244671	 1.4211444887	 1.0669545699	 0.092276
H	 3.4127817789	 1.2587917376	-0.7172406283	 0.114336
H	 2.0087483093	 0.8477653039	-1.679753182	 0.122737
H	 3.0039984656	 3.0575735777	-2.7348498506	 0.097641
H	 2.1859052495	 5.0226949122	-1.2598786808	 0.096375
H	 0.7051644586	 3.9671450016	 0.6545362452	 0.101567
H	 2.3724286465	 3.7465726464	 1.1518601605	 0.112287
72.5674	109.903	152.6811	321.33	357.9276	402.4102	405.897	535.1936	686.3773	730.2913	779.1032	837.6726	888.3356	905.5705	932.6394	967.741	975.6147	979.884	1000.4823	1069.1872	1075.8302	1131.8732	1175.3829	1190.3999	1233.3489	1264.2679	1307.6689	1318.6409	1335.4085	1371.4885	1379.4974	1466.7363	1488.098	1496.0086	1686.2043	2358.9838	3014.3611	3019.3501	3038.4752	3045.2091	3060.1142	3073.9456	3089.9378	3186.5464	3211.6193
N#CCC1CC=CC1	N#CC[C@H]1CC=CC1	
InChI=1S/C7H9N/c8-6-5-7-3-1-2-4-7/h1-2,7H,3-5H2	InChI=1S/C7H9N/c8-6-5-7-3-1-2-4-7/h1-2,7H,3-5H2
