16
gdb 24339	3.69742	1.56277	1.11986	1.6045	78.68	-0.2003	-0.0085	0.1918	1029.3848	0.127881	-400.776046	-400.769217	-400.768273	-400.807374	27.196	
C	-0.0294761474	 1.5104073067	 0.0209857259	-0.23383
N	 1.2871492905	 2.1622263976	-0.1012230134	-0.424364
C	 2.2274313827	 1.4365679061	-0.8564810683	 0.151507
C	 3.3812702875	 1.8290330263	-1.4555967037	-0.085946
O	 3.9850540512	 0.7532053689	-2.0521835637	-0.154612
C	 3.1928719635	-0.3278462219	-1.8352018271	-0.133163
C	 2.0997980261	 0.0196111941	-1.1009822812	 0.219491
C	 0.9808299634	-0.7041891395	-0.5345299185	-0.163179
C	-0.0105005426	-0.0052971112	 0.034008084	-0.100031
H	-0.5088679288	 1.8931801108	 0.927347214	 0.110102
H	-0.6651870067	 1.8451940277	-0.8150589275	 0.122197
H	 1.6542234145	 2.4263108427	 0.8037287267	 0.236247
H	 3.9033898654	 2.7672798082	-1.5331628172	 0.132528
H	 3.536745861	-1.2556652479	-2.2626707168	 0.135806
H	 0.970538255	-1.7893740523	-0.555490959	 0.092891
H	-0.8647494652	-0.5076533763	 0.4780677358	 0.094356
85.7131	188.4138	292.8005	409.2596	445.4757	499.8344	562.2715	598.0881	606.7466	675.2989	713.2896	729.1309	766.3019	797.0145	846.7277	901.7942	909.6641	983.8664	1009.4142	1065.1772	1072.6493	1166.7688	1182.2882	1224.525	1245.0708	1278.4981	1312.8477	1364.2735	1406.5367	1413.1511	1455.5805	1487.2746	1595.359	1647.6468	1698.8974	2966.7273	3071.0229	3164.7815	3186.5004	3268.775	3284.8461	3552.9194
C1NC2=COC=C2C=C1	C1Nc2cocc2C=C1	
InChI=1S/C7H7NO/c1-2-6-4-9-5-7(6)8-3-1/h1-2,4-5,8H,3H2	InChI=1S/C7H7NO/c1-2-6-4-9-5-7(6)8-3-1/h1-2,4-5,8H,3H2
