18
gdb 106940	3.65201	1.12766	1.00707	1.9129	72.4	-0.2392	-0.0197	0.2195	1195.8815	0.148344	-439.08242	-439.074058	-439.073113	-439.115767	31.639	
O	-0.0038542173	 1.4456268442	 0.1377933964	-0.416444
C	 0.011807158	 0.0384276896	-0.0421956475	-0.139109
C	-1.3815274245	-0.5426628831	 0.0383889635	 0.317557
C	-1.9338488841	-1.1740226039	 1.2777311064	-0.334193
C	-1.6568942716	-2.0264131493	 0.0325032678	-0.205426
C	-2.8061801967	-2.2434309763	-0.895690705	 0.41826
O	-3.1975064434	-3.2932896967	-1.3369607525	-0.32206
C	-3.3650577556	-0.8591586251	-1.2646297435	-0.293432
N	-2.3370417409	 0.1075782333	-0.8577963062	-0.374417
H	-0.4473427403	 1.8082054714	-0.6374181291	 0.287486
H	 0.4594002286	-0.2283801302	-1.0111923178	 0.097456
H	 0.6447596077	-0.3740281808	 0.7497119354	 0.108959
H	-1.2638979756	-1.351270942	 2.1124114984	 0.129337
H	-2.9646115199	-0.9837214168	 1.5598343298	 0.119312
H	-0.8834010821	-2.7826335812	 0.0785677979	 0.113419
H	-3.5596236334	-0.8238663055	-2.3416746219	 0.139456
H	-4.3312922639	-0.7213622293	-0.757737397	 0.124027
H	-2.7478814949	 0.9125599217	-0.3990657151	 0.229814
72.4386	102.1204	130.1081	218.3622	355.6116	361.5711	383.2998	432.4291	467.4844	545.6497	623.3799	649.8151	718.5897	779.3918	840.8313	876.1973	903.7574	944.4133	978.2387	1015.6276	1030.751	1058.2137	1069.2554	1078.4061	1093.8379	1174.4079	1200.949	1205.5304	1232.9939	1284.4666	1332.002	1380.4344	1392.6962	1421.8327	1430.2188	1482.5636	1490.0125	1496.3868	1842.2452	2993.8352	3003.0708	3066.2583	3083.1553	3125.9091	3197.8755	3215.2332	3533.0173	3800.7963
OCC12CC1C(=O)CN2	OC[C@]12C[C@H]1C(=O)CN2	
InChI=1S/C6H9NO2/c8-3-6-1-4(6)5(9)2-7-6/h4,7-8H,1-3H2	InChI=1S/C6H9NO2/c8-3-6-1-4(6)5(9)2-7-6/h4,7-8H,1-3H2/t4-,6+/m0/s1
