14
gdb 133224	3.08268	1.39687	0.96733	6.0859	70.97	-0.2291	-0.0438	0.1853	1124.1671	0.100814	-477.985866	-477.978056	-477.977112	-478.01901	28.037	
C	-0.0065823738	 1.4895121099	 0.0270035159	-0.325406
N	-0.0174152283	 0.0327735243	-0.0336739634	 0.011816
C	-1.1880009809	-0.6677865292	-0.0640059316	-0.104204
C	-1.1885631181	-2.0245996837	-0.0480047064	 0.135127
F	-2.341008711	-2.6795702475	-0.0891608865	-0.05313
C	 0.0529856663	-2.7788446622	 0.0090698995	 0.245182
O	 0.1405290828	-3.9992297836	 0.0263297441	-0.388933
C	 1.205188234	-1.8688514087	 0.0399053722	-0.09298
N	 1.1773452852	-0.5663023756	 0.0248202315	-0.190435
H	 0.9873196776	 1.8230985761	-0.2662570934	 0.170812
H	-0.7503792403	 1.8964362407	-0.6621798228	 0.147684
H	-0.2225744537	 1.8437337755	 1.0407943368	 0.150931
H	-2.1047394293	-0.0927640392	-0.1059571775	 0.149806
H	 2.1925024196	-2.3187829867	 0.0777727415	 0.143729
49.7977	111.0644	188.1035	283.0455	330.4618	333.2585	421.4291	444.2653	533.1651	565.8239	596.1629	739.7965	767.0612	824.2309	891.8899	935.4875	956.8966	1096.0727	1145.9611	1182.4222	1194.2059	1308.6765	1354.9087	1379.5632	1446.6413	1460.3894	1486.7052	1511.4298	1573.4862	1671.6692	1742.0667	3041.2305	3112.4469	3173.9235	3187.4865	3211.0572
CN1C=C(F)C(=O)C=N1	Cn1cc(F)c(=O)cn1	
InChI=1S/C5H5FN2O/c1-8-3-4(6)5(9)2-7-8/h2-3H,1H3	InChI=1S/C5H5FN2O/c1-8-3-4(6)5(9)2-7-8/h2-3H,1H3
