15
gdb 61714	2.42474	1.14836	0.95769	2.379	64.45	-0.2618	-0.0819	0.1799	1226.1617	0.106984	-494.915057	-494.905312	-494.904368	-494.951283	32.851	
O	-0.0047657122	 1.4435168223	 0.1644818736	-0.460499
C	-0.0558847973	 0.0568666047	-0.0101095717	 0.146779
C	 0.5722527414	-0.7022291378	 1.1828724264	-0.312983
C	-0.0440395823	-0.3092483839	 2.5204538315	 0.154564
O	-0.0883350021	-1.0521365446	 3.4639564803	-0.232809
C	-1.5158524961	-0.3803487832	-0.2264550107	 0.118022
O	-1.8847567548	-1.5209191448	-0.1440975886	-0.238038
C	 0.7163984428	-0.3314029339	-1.274604396	 0.121871
O	 1.2981040566	 0.5038523625	-1.9190816126	-0.255409
H	 0.5691599014	 1.7836864617	-0.5429887323	 0.302202
H	 0.4786069958	-1.7830919471	 1.0570777645	 0.151859
H	 1.6394971294	-0.447789585	 1.2299642665	 0.144001
H	-0.4296121069	 0.7299279245	 2.5740710758	 0.111038
H	-2.185856077	 0.4661762848	-0.4846284237	 0.115979
H	 0.7130329512	-1.4043088102	-1.5394256031	 0.133423
36.4481	55.6176	100.7686	110.7331	172.1134	246.323	295.2618	323.261	362.2937	399.0443	480.2541	516.9545	540.0455	734.9045	758.5524	842.6378	878.945	955.795	997.2834	1047.8308	1088.6498	1144.7797	1192.9456	1263.3049	1292.5623	1370.494	1373.7204	1408.5335	1421.622	1431.7352	1798.0022	1831.2266	1839.8126	2923.6088	2927.8806	2980.3617	3033.2753	3123.8721	3659.1054
OC(CC=O)(C=O)C=O	OC(CC=O)(C=O)C=O	
InChI=1S/C5H6O4/c6-2-1-5(9,3-7)4-8/h2-4,9H,1H2	InChI=1S/C5H6O4/c6-2-1-5(9,3-7)4-8/h2-4,9H,1H2
