18
gdb 15810	3.40945	1.37279	1.06623	1.3011	70.5	-0.2507	0.0188	0.2695	1142.0949	0.154199	-381.105371	-381.0968	-381.095856	-381.139106	30.55	
C	-0.2005413063	 1.4221667359	-0.3874932865	-0.39295
C	 0.0362186402	-0.0418701908	-0.0694413172	-0.031423
O	 0.480285423	-0.6814882299	-1.2778260582	-0.259514
C	 0.7559713767	-2.0005002808	-1.2060373611	 0.414864
N	 0.636686221	-2.6448244077	-0.1175693591	-0.545093
C	 1.1937207789	-2.535223364	-2.527540558	-0.083232
C	 0.5020547272	-2.0873508045	-3.772675843	-0.230608
N	 1.8756812994	-1.6642407686	-3.5007769686	-0.314563
H	 0.719267778	 1.9017617325	-0.7347793064	 0.126908
H	-0.9628751515	 1.5364547559	-1.1635835878	 0.126496
H	-0.5426870503	 1.9456077665	 0.5101146703	 0.124437
H	 0.7983850312	-0.1790534261	 0.7040540386	 0.124429
H	-0.8729196028	-0.5406485493	 0.2812379653	 0.122788
H	 0.8953682312	-3.6204656278	-0.2508566243	 0.222671
H	 1.5836214094	-3.5479494872	-2.4797605581	 0.098331
H	 0.3871068036	-2.7909184529	-4.5921086572	 0.124177
H	-0.2984737572	-1.3629032581	-3.6610855846	 0.127074
H	 1.8620660583	-0.7144916731	-3.1353029142	 0.245206
68.1531	98.0836	121.5675	142.8116	248.6572	290.7309	308.9355	377.4027	484.5624	605.7032	727.0343	806.9146	820.4419	844.7616	857.1404	897.9067	936.3262	979.6657	1006.878	1063.2517	1107.2059	1121.9496	1134.4483	1143.9213	1183.1501	1187.5588	1274.2917	1289.9968	1311.0349	1365.1009	1383.059	1409.8856	1439.0864	1486.7106	1496.6147	1499.6605	1521.5708	1718.6509	3045.0852	3052.4698	3088.7561	3118.0509	3120.3812	3123.5025	3151.3587	3210.4567	3506.1245	3508.6073
CCOC(=N)C1CN1	CCO[C]([NH])[C@H]1CN1	
InChI=1S/C5H10N2O/c1-2-8-5(6)4-3-7-4/h4,6-7H,2-3H2,1H3	InChI=1S/C5H10N2O/c1-2-8-5(6)4-3-7-4/h4,6-7H,2-3H2,1H3/t4-/m1/s1
