17
gdb 119669	3.93714	1.09121	0.99056	1.2907	69.01	-0.2448	0.0521	0.2969	1230.6979	0.133194	-458.823991	-458.815876	-458.814932	-458.857477	29.797	
C	 0.0205142606	 1.3303941739	-0.0015896262	-0.220586
O	 0.0310807389	-0.074682204	-0.1074937494	-0.233158
C	-1.2271520683	-0.6493145026	 0.1547474133	-0.235398
C	-1.1114515862	-2.1335403865	 0.0643706629	 0.443277
O	-0.4098621834	-2.9045343529	 1.0847859073	-0.344564
C	-0.8541280506	-3.9348908072	 0.1609551646	 0.032011
C	-2.2049336594	-3.2297525875	-0.1764029225	-0.012515
O	-2.0084805799	-3.2697174609	-1.6160436566	-0.327157
C	-0.6568394578	-3.0580904026	-1.1136994794	 0.008669
H	 1.0315679105	 1.6795492714	-0.2224528652	 0.13238
H	-0.6800693759	 1.7887395692	-0.7175280373	 0.106281
H	-0.2576751628	 1.6608705467	 1.0113752588	 0.108533
H	-1.5932999771	-0.3702994516	 1.1570297151	 0.105152
H	-1.9800274335	-0.3187850365	-0.5816355881	 0.108628
H	-0.6129642873	-4.9760633794	 0.3695908183	 0.107793
H	-3.2085132566	-3.3508597216	 0.2311601746	 0.106371
H	 0.1699945388	-2.9694191478	-1.8161836802	 0.114283
68.3948	86.1979	129.8071	220.6953	254.6983	341.932	361.0894	533.3715	578.143	718.3629	761.3043	773.8185	779.5003	834.2582	852.8012	904.2153	948.4649	963.654	995.3261	1051.0654	1092.8601	1105.5891	1133.4484	1158.3104	1162.4718	1174.2255	1186.09	1229.1226	1238.0224	1275.7671	1300.9789	1365.7604	1444.5249	1477.0262	1485.8531	1492.8068	1516.6683	2955.9977	2973.7225	2990.0388	3018.0141	3120.6149	3123.9719	3136.1077	3150.3953
COCC12OC3C1OC23	COC[C@@]12O[C@H]3[C@@H]1O[C@@H]23	
InChI=1S/C6H8O3/c1-7-2-6-4-3(9-6)5(6)8-4/h3-5H,2H2,1H3	InChI=1S/C6H8O3/c1-7-2-6-4-3(9-6)5(6)8-4/h3-5H,2H2,1H3/t3-,4-,5+,6+
