17
gdb 14202	3.63602	2.28894	2.1114	2.038	66.76	-0.224	0.0711	0.2951	733.4896	0.14448	-363.806075	-363.799929	-363.798984	-363.835859	25.701	
O	-0.1112106349	 1.3757547208	-0.0623704978	-0.490659
C	-0.0146455569	-0.010723108	 0.010134788	 0.380054
C	 0.3959329241	-0.8045002837	 1.271684994	-0.22434
N	-0.4199113498	-1.9311491034	 0.7057492984	-0.15398
C	 0.0303874185	-2.1142441057	-0.7723979782	 0.009752
C	-1.4162386225	-1.774358753	-1.1954413036	-0.238682
C	-1.3259061693	-0.889943064	 0.0457226247	-0.028938
C	 0.7712699358	-0.7949310489	-1.0663800991	-0.293861
H	 0.7627603181	 1.739354323	-0.2395555697	 0.281369
H	 1.4556549662	-1.0114576095	 1.4571190386	 0.089987
H	-0.0872182561	-0.4521499257	 2.1873777883	 0.10954
H	 0.5098436583	-3.0609973568	-1.0181397235	 0.074665
H	-1.5756854856	-1.3238936813	-2.1775794401	 0.09829
H	-2.1067334735	-2.6036948466	-1.0302350043	 0.114275
H	-2.177381171	-0.5102754829	 0.6114385979	 0.081017
H	 0.6028934464	-0.4332701531	-2.0842862431	 0.100877
H	 1.8473340924	-0.8189661412	-0.8685038508	 0.090634
199.7907	266.3896	343.937	433.9232	459.4697	490.2697	613.6874	652.2409	735.9382	784.3075	819.577	873.981	888.4406	912.5105	952.0175	965.4741	992.3881	1011.1715	1018.4531	1044.1221	1092.4132	1107.7413	1139.764	1166.3129	1185.0545	1218.843	1225.2427	1250.361	1257.0803	1276.5337	1294.9525	1341.2065	1374.7468	1478.0245	1495.477	1517.4839	3037.6794	3050.4524	3069.0849	3099.5039	3105.4245	3114.7296	3121.3234	3132.7797	3809.1389
OC12CN3C(CC13)C2	O[C@@]12CN3[C@@H](C[C@H]13)C2	
InChI=1S/C6H9NO/c8-6-2-4-1-5(6)7(4)3-6/h4-5,8H,1-3H2	InChI=1S/C6H9NO/c8-6-2-4-1-5(6)7(4)3-6/h4-5,8H,1-3H2/t4-,5+,6-/m0/s1
