16
gdb 29143	3.0178	1.43564	0.97974	3.9619	78.97	-0.1919	-0.0481	0.1439	1153.755	0.125587	-434.134614	-434.126292	-434.125348	-434.167326	31.469	
C	-0.0283956804	 1.4791005242	-0.0294657568	-0.458761
C	 0.0107433806	-0.0171140781	-0.0341188744	 0.204044
N	 0.0160449643	-0.6685171082	-1.1608889853	-0.336602
C	 0.051847234	-2.0386002166	-1.1741379883	 0.311699
N	 0.1251789556	-2.6207003157	-2.4454690488	-0.577545
C	 0.077422456	-2.7474407163	-0.0101206179	-0.080898
N	 0.0637877355	-2.0554260358	 1.1780847101	-0.335174
C	 0.0349430309	-0.6760151436	 1.285911206	 0.365808
O	 0.0258534846	-0.0997839381	 2.3657400452	-0.397833
H	 0.8427880414	 1.8798316986	 0.500364487	 0.146909
H	-0.0504732268	 1.8590705874	-1.0511739215	 0.128864
H	-0.904454206	 1.8355020163	 0.523357547	 0.145661
H	-0.2044636417	-1.9786598243	-3.1538240684	 0.252221
H	-0.3293849965	-3.5195893604	-2.5249381179	 0.244571
H	 0.1138837562	-3.8270416993	 0.0490184416	 0.122773
H	 0.0786196421	-2.5548153301	 2.0564193226	 0.264266
106.2964	132.7694	215.4082	230.0555	276.8788	341.0151	350.8195	426.511	494.8064	513.249	588.5424	597.1546	676.4376	695.3901	721.7345	791.9942	797.2564	822.2347	963.9612	1010.5861	1047.0795	1113.8805	1144.9082	1216.228	1287.2562	1358.5327	1401.9026	1408.3717	1459.2372	1465.8454	1482.101	1591.8102	1635.1704	1682.8038	1764.0334	3040.5819	3091.5861	3153.0975	3215.5058	3551.0899	3609.5944	3652.7201
CC1=NC(N)=CNC1=O	Cc1nc(N)c[nH]c1=O	
InChI=1S/C5H7N3O/c1-3-5(9)7-2-4(6)8-3/h2H,1H3,(H2,6,8)(H,7,9)	InChI=1S/C5H7N3O/c1-3-5(9)7-2-4(6)8-3/h2H,1H3,(H2,6,8)(H,7,9)
