20
gdb 64028	2.2471	1.56674	1.17659	4.1908	83.51	-0.2618	0.0014	0.2632	1132.1127	0.170891	-366.049156	-366.040254	-366.039309	-366.082336	34.379	
C	-0.0304436753	 1.5261640651	-0.041743881	-0.42745
C	-0.0103976279	-0.0111590095	-0.0199896007	 0.278516
C	-1.4387835605	-0.558129374	-0.0970246152	-0.44623
C	 0.9016269595	-0.5276846242	-1.1758290786	-0.293677
C	 2.2543561103	-0.698198674	-0.5340135083	-0.075664
C	 2.1831176123	-0.6952342058	 0.7935439948	-0.070614
C	 0.7444548308	-0.5452279804	 1.2601659899	-0.202403
C	 0.5825226605	 0.2768771987	 2.4591513981	 0.273029
N	 0.4534011877	 0.9137188718	 3.4154543786	-0.340973
H	 0.9822583437	 1.9376204451	 0.0096169162	 0.125822
H	-0.4930571924	 1.8780014544	-0.9693973878	 0.112291
H	-0.6015101315	 1.9325550743	 0.7973883359	 0.138248
H	-1.9343913825	-0.2194560278	-1.0129069202	 0.119318
H	-1.4495458405	-1.6534192096	-0.0964639907	 0.113071
H	-2.039895107	-0.2133380665	 0.751221969	 0.128808
H	 0.540194353	-1.4886080616	-1.5688920299	 0.108636
H	 0.91231573	 0.1677906823	-2.0227513774	 0.109325
H	 3.1640999266	-0.8423313127	-1.1058579552	 0.105953
H	 3.0027536463	-0.8271315117	 1.4886410404	 0.11726
H	 0.3470951968	-1.5386944638	 1.5180999521	 0.126733
77.665	148.1006	190.3053	244.1894	267.929	306.4519	336.0364	370.3559	400.894	416.7641	518.6983	552.1882	597.8927	706.955	756.641	801.012	875.9788	930.3937	957.6353	967.9021	972.2465	983.0937	1009.5828	1039.7143	1059.4766	1119.3909	1144.8317	1191.1915	1221.4576	1238.1983	1278.5831	1324.0547	1329.251	1362.7899	1405.3982	1426.3459	1481.0131	1486.3028	1495.4909	1505.6281	1509.5465	1689.5601	2352.902	2989.9888	3007.009	3027.8641	3039.4212	3057.9943	3097.2126	3099.3253	3108.405	3119.4331	3193.3154	3222.4426
CC1(C)CC=CC1C#N	CC1(C)CC=C[C@H]1C#N	
InChI=1S/C8H11N/c1-8(2)5-3-4-7(8)6-9/h3-4,7H,5H2,1-2H3	InChI=1S/C8H11N/c1-8(2)5-3-4-7(8)6-9/h3-4,7H,5H2,1-2H3/t7-/m0/s1
