19
gdb 100495	4.78982	0.51301	0.49103	2.2002	83.05	-0.2523	-0.032	0.2203	2227.0371	0.155136	-423.006895	-422.995902	-422.994957	-423.045761	37.192	
C	-0.0025925265	 1.5533004606	 0.2621191633	-0.386018
C	-0.0486810855	 0.0259288727	 0.2015196373	-0.173895
C	-1.4344096946	-0.5047251361	-0.2179309374	-0.051326
O	-1.8460552062	 0.0143522273	-1.4818985071	-0.414244
C	-1.4721434542	-1.970766246	-0.1975875092	 0.063238
C	-1.4556545099	-3.1755834087	-0.222582981	 0.061053
C	-1.508852533	-4.6297110235	-0.2033819807	-0.417898
C	-2.7298945722	-5.157198034	 0.5563435908	 0.172835
O	-2.7058028956	-6.132700441	 1.2550291725	-0.229334
H	 1.0024480166	 1.9046732518	 0.5126742341	 0.112114
H	-0.2920129981	 1.985911642	-0.6987223657	 0.132061
H	-0.6910030031	 1.9387032641	 1.0224383541	 0.116235
H	 0.6943352305	-0.3534824698	-0.5119844656	 0.096428
H	 0.2069133241	-0.4094726311	 1.1743588034	 0.109159
H	-2.1810705977	-0.119856132	 0.4888218277	 0.116565
H	-1.3132098252	-0.4203634181	-2.1573229016	 0.282618
H	-1.5879361879	-5.0167415281	-1.2311805174	 0.156971
H	-0.6118809408	-5.0779328806	 0.2362438975	 0.155691
H	-3.6568627908	-4.5654351094	 0.3963497651	 0.097749
13.0362	48.3735	78.3008	93.1563	134.1972	175.5609	221.9084	273.6082	295.1334	325.1421	391.3289	453.2634	506.2772	529.8243	563.2613	727.8025	771.8035	821.8374	901.4419	978.1071	1031.5189	1042.1905	1059.713	1093.8106	1113.3956	1167.5429	1211.3259	1251.417	1285.2911	1295.3148	1326.7487	1373.0337	1406.1468	1413.7221	1420.1861	1439.8947	1480.3029	1494.8587	1508.7425	1841.5279	2358.0218	2905.0323	3001.2824	3020.7053	3032.4198	3038.64	3068.9025	3079.4543	3104.4891	3126.391	3801.3195
CCC(O)C#CCC=O	CC[C@@H](O)C#CCC=O	
InChI=1S/C7H10O2/c1-2-7(9)5-3-4-6-8/h6-7,9H,2,4H2,1H3	InChI=1S/C7H10O2/c1-2-7(9)5-3-4-6-8/h6-7,9H,2,4H2,1H3/t7-/m1/s1
