20
gdb 83526	2.76816	1.73608	1.57509	1.0948	76.36	-0.2223	0.0631	0.2853	951.9152	0.174655	-403.124158	-403.117071	-403.116127	-403.15507	30.02	
O	 0.0591276082	 1.4774598064	 0.079577355	-0.46656
C	 0.0288401857	 0.0673617657	 0.0129740556	 0.150166
C	-1.3427577579	-0.5863613568	-0.2807534068	-0.070738
C	-1.6281558791	-0.0392941589	-1.7080188765	-0.232502
C	-0.2023728485	-0.0350513667	-2.3664639597	-0.221184
C	 0.6977607903	-0.5747231664	-1.2297575251	-0.020053
N	 0.3748912545	-2.0261521205	-1.1856161201	-0.10487
C	 0.2474087391	-2.6316553418	 0.1510110324	-0.271974
C	-0.9546710272	-2.0456221624	-0.4970321569	-0.0082
H	-0.3026285471	 1.8405069491	-0.734186786	 0.283416
H	 0.4634715982	-0.2489954881	 0.959575367	 0.082696
H	-2.1308482302	-0.405432498	 0.451232854	 0.070135
H	-2.3343580218	-0.6731144968	-2.2498510632	 0.106374
H	-2.0687055181	 0.9624590379	-1.6702357981	 0.093199
H	-0.1416948639	-0.6903437673	-3.2367704696	 0.118339
H	 0.1042526422	 0.9660228991	-2.6859128669	 0.092991
H	 1.7671037136	-0.3999630549	-1.3559895172	 0.070481
H	 0.3528168375	-3.712714435	 0.1285201936	 0.1167
H	 0.7025393849	-2.1718455728	 1.0208460229	 0.12074
H	-1.7054968205	-2.7087241218	-0.9215048045	 0.090844
204.1354	252.9108	259.7212	321.0454	347.1199	375.6614	509.2921	557.6257	587.2287	726.2432	753.5857	779.9485	807.9922	828.836	879.9773	886.1524	891.7121	947.061	983.2123	1002.6849	1026.0937	1042.2377	1063.4811	1079.7898	1110.1199	1118.559	1145.9711	1173.7401	1184.7245	1207.3194	1241.1775	1252.6099	1271.6077	1274.024	1293.8053	1318.4114	1323.2308	1327.6444	1382.009	1456.9196	1490.3956	1513.5518	1520.1219	3044.2551	3058.1428	3093.4152	3107.2439	3107.8631	3117.3817	3120.9703	3124.9409	3134.0815	3205.0503	3831.6294
OC1C2CCC1N1CC21	O[C@H]1[C@H]2CC[C@@H]1N1C[C@@H]21	
InChI=1S/C7H11NO/c9-7-4-1-2-5(7)8-3-6(4)8/h4-7,9H,1-3H2	InChI=1S/C7H11NO/c9-7-4-1-2-5(7)8-3-6(4)8/h4-7,9H,1-3H2/t4-,5-,6-,7-,8?/m0/s1
