15
gdb 49433	3.66677	1.56153	1.2934	5.5076	73.17	-0.225	-0.0692	0.1558	956.0542	0.111983	-416.690506	-416.683629	-416.682685	-416.721816	26.786	
O	 0.3614106365	-0.0267331859	 0.5732012166	-0.278384
C	 0.2750620959	 1.1584286995	 0.3823266482	 0.158248
N	 1.0557218211	 1.8725869752	-0.5100041722	-0.102793
C	 1.4273739016	 3.3368752613	-0.4397930142	-0.03577
C	 2.9328921255	 3.7021992224	 0.0658558178	-0.085047
C	 3.8618284988	 2.6485084023	 0.7143611986	-0.178869
N	 3.2461198428	 1.3514485482	 0.2683890747	-0.193241
C	 2.4921070981	 1.7177828635	-0.6879352615	 0.178952
C	 2.6253555715	 3.1533567711	-1.2763156928	-0.154591
H	-0.4908506541	 1.80953034	 0.8513392323	 0.081941
H	 0.653270698	 4.0927447355	-0.5078508009	 0.131152
H	 3.0927881397	 4.7654718449	 0.2267347241	 0.101879
H	 4.9076816022	 2.8072042625	 0.41220581	 0.119074
H	 3.8244498825	 2.620569017	 1.8076152281	 0.137284
H	 2.8580788799	 3.4602725524	-2.2860073986	 0.120166
106.057	180.2902	239.8396	315.601	394.736	505.1912	537.4129	607.077	637.4533	741.8021	765.2944	825.6672	848.0496	900.0517	926.1318	953.525	961.2095	971.2175	1015.6881	1030.693	1048.0966	1099.6806	1140.4949	1177.7688	1193.6179	1239.5008	1281.2047	1304.3889	1345.6373	1414.2744	1480.5063	1591.0158	1815.869	2925.2997	2996.5171	3081.3699	3155.014	3185.5675	3215.912
O=CN1C2C3CN=C1C23	O=CN1[C@H]2[C@H]3C[N][C]1[C@@H]23	
InChI=1S/C6H6N2O/c9-2-8-5-3-1-7-6(8)4(3)5/h2-5H,1H2	InChI=1S/C6H6N2O/c9-2-8-5-3-1-7-6(8)4(3)5/h2-5H,1H2/t3-,4+,5-/m0/s1
