17
gdb 68159	3.60146	1.42889	1.21852	3.1918	73.86	-0.2401	-0.0541	0.186	1017.9758	0.136947	-421.841516	-421.834198	-421.833254	-421.872855	29.716	
O	-0.0142668727	 1.4307330939	-0.0313339518	-0.491956
C	 0.0150223685	 0.0321468914	 0.02586285	 0.383416
C	 0.2431631584	-0.7065377119	 1.384532975	-0.289686
C	-0.692161272	-1.8103209844	 0.7929745155	-0.139813
C	-1.3653050905	-0.6703259216	-0.0398126798	-0.257616
C	 0.1185227703	-2.7163868572	-0.1324268643	 0.404902
O	 0.0698834919	-3.9270735	-0.0944227845	-0.344059
C	 0.9698052191	-1.9521662068	-1.0835023717	-0.18308
C	 0.9150811507	-0.6161428815	-1.0109288719	-0.123362
H	 0.878716049	 1.7657579778	 0.1062158047	 0.279692
H	 1.2652356803	-0.9804830163	 1.6560582564	 0.104524
H	-0.2441799445	-0.1745780891	 2.2055142751	 0.112923
H	-1.3037297924	-2.4064386893	 1.4683811173	 0.090579
H	-2.1053759931	-0.1312064371	 0.5564719281	 0.116421
H	-1.7679644599	-0.9074982479	-1.0262010287	 0.111983
H	 1.5793183466	-2.5011576267	-1.7921880801	 0.114309
H	 1.4773071903	 0.0362898366	-1.6738153192	 0.110822
125.9481	248.1407	308.8636	313.6324	339.6856	430.3447	453.9978	456.156	470.4246	624.17	686.317	718.2541	752.471	813.5732	863.0793	893.3479	936.9754	947.2643	981.591	994.1927	1020.0161	1036.736	1063.4045	1129.995	1160.8122	1184.2281	1230.4018	1234.4267	1245.4898	1276.3721	1318.4742	1356.4411	1380.8556	1474.1047	1506.6273	1655.6125	1793.213	3059.2239	3068.983	3124.2801	3129.2948	3133.1709	3165.7988	3204.6591	3801.7212
OC12CC(C1)C(=O)C=C2	O[C@@]12C[C@@H](C1)C(=O)C=C2	
InChI=1S/C7H8O2/c8-6-1-2-7(9)3-5(6)4-7/h1-2,5,9H,3-4H2	InChI=1S/C7H8O2/c8-6-1-2-7(9)3-5(6)4-7/h1-2,5,9H,3-4H2/t5-,7-
