18
gdb 119327	5.10394	1.03157	1.00458	1.5136	75.14	-0.2099	0.067	0.277	1247.7866	0.146261	-401.808791	-401.800873	-401.799929	-401.841905	30.066	
C	-0.1303918181	 1.5155435818	 0.0412365	-0.388569
C	-0.0324553987	 0.0071577207	 0.1713947535	-0.062942
O	-1.2982719478	-0.5537584782	-0.1971477531	-0.286063
C	-1.3492852621	-1.9059028313	-0.1188655021	 0.430073
C	-2.5851533266	-2.7644729913	 0.1174170279	-0.199258
C	-1.9357259242	-3.8912779217	-0.7213251821	-0.040664
C	-0.7229647992	-3.0666336952	-0.9671759217	-0.153207
N	-0.7657802409	-3.9889488013	 0.2227194416	-0.17179
C	-1.3881676381	-2.8663559795	 1.0509976959	-0.110885
H	 0.820688114	 1.9811155097	 0.3159529444	 0.119491
H	-0.3714886189	 1.7986671072	-0.9871408924	 0.13049
H	-0.9120626483	 1.9082919781	 0.6975701084	 0.129529
H	 0.7528888994	-0.3937700917	-0.4852549884	 0.102671
H	 0.2115806726	-0.2913102742	 1.2003533946	 0.102363
H	-3.6023572749	-2.4515980458	 0.3022642184	 0.102917
H	-2.3364542979	-4.7525153344	-1.2437341118	 0.096366
H	 0.0533626171	-3.1325469818	-1.7207699906	 0.097668
H	-1.2923179274	-2.7579318311	 2.1237861375	 0.101812
60.5049	93.6883	130.5911	244.8478	330.3618	360.4646	388.2219	640.0708	677.012	757.4771	768.4329	788.3636	817.1114	836.8543	858.1319	877.0505	894.0061	923.1803	946.902	973.1006	995.2667	1016.3165	1023.236	1063.9552	1100.564	1131.0627	1143.6205	1183.6616	1193.3063	1235.5076	1277.5645	1293.478	1305.679	1388.7374	1412.1887	1468.2595	1483.8823	1498.838	1525.0939	2997.5972	3033.8084	3046.6213	3121.5849	3124.4434	3167.5893	3182.1928	3192.9391	3227.6464
CCOC12C3C4C1N4C23	CCO[C@@]12[C@H]3[C@H]4[C@@H]1N4[C@@H]23	
InChI=1S/C7H9NO/c1-2-9-7-3-4-6(7)8(4)5(3)7/h3-6H,2H2,1H3	InChI=1S/C7H9NO/c1-2-9-7-3-4-6(7)8(4)5(3)7/h3-6H,2H2,1H3/t3-,4-,5+,6-,7+,8?/m0/s1
