16
gdb 55230	3.52713	1.09642	1.03042	1.1775	66.9	-0.2594	-0.0408	0.2187	1191.3344	0.122778	-475.048729	-475.040004	-475.03906	-475.083576	30.517	
C	 0.2769805996	 0.9048058759	 0.9543047701	-0.488129
C	-0.0614979296	-0.0074452875	-0.1983227739	 0.377797
O	 0.5313679302	-0.0357474014	-1.2472152432	-0.284769
C	-1.2570892981	-0.9598475453	 0.01322589	 0.119601
O	-1.0646618857	-1.7306837748	 1.1713725306	-0.260652
C	-2.3547337016	-1.962047724	 1.7243825653	-0.16999
C	-3.1754534973	-0.7928933865	 1.2254544428	 0.385615
N	-4.3060916669	-0.4363001973	 1.6429253992	-0.525927
O	-2.4493148724	-0.1970070669	 0.2272000241	-0.246843
H	 1.1402347113	 1.5185812623	 0.6978252222	 0.146113
H	-0.5818892344	 1.5429565738	 1.1868313201	 0.156466
H	 0.4842981784	 0.3079473203	 1.8476364768	 0.159117
H	-1.384002924	-1.5795272812	-0.8863123824	 0.104807
H	-2.7820212814	-2.9111875408	 1.3705902679	 0.137181
H	-2.2847936674	-1.9859554906	 2.8126080949	 0.1549
H	-4.6572412806	 0.3707279141	 1.1261078056	 0.234713
33.349	77.689	126.9568	136.56	201.5297	265.6458	407.6363	442.4136	521.179	537.2064	587.3257	673.19	753.1461	810.9047	878.7197	894.3551	968.6391	1010.7548	1026.7925	1032.9861	1058.5456	1059.7784	1139.7008	1211.1946	1248.3114	1283.6722	1347.1922	1361.5865	1373.3669	1380.1872	1465.0767	1467.0251	1500.495	1804.9489	1835.6568	3011.9138	3015.1627	3050.1558	3114.9649	3126.5508	3163.6253	3487.1495
CC(=O)C1OCC(=N)O1	CC(=O)[C@H]1OC[C]([NH])O1	
InChI=1S/C5H7NO3/c1-3(7)5-8-2-4(6)9-5/h5-6H,2H2,1H3	InChI=1S/C5H7NO3/c1-3(7)5-8-2-4(6)9-5/h5-6H,2H2,1H3/t5-/m0/s1
