17
gdb 70111	2.42135	1.67258	1.24361	5.2513	77.05	-0.2488	-0.01	0.2388	1041.9098	0.136895	-380.868319	-380.860386	-380.859442	-380.900677	30.459	
C	-0.0845240648	 1.4841949812	-0.0032295566	-0.496933
C	 0.0876885782	-0.0107141915	 0.0302779335	 0.310453
N	-0.7380560655	-0.8425262364	 0.9215129098	-0.347807
C	 0.7390249627	-0.7763978866	 1.1292336838	-0.146195
C	 1.4353976921	-1.9382235228	 0.505460737	-0.043123
C	 1.2422328276	-1.9567173731	-0.8123125387	-0.091483
C	 0.441031196	-0.745322185	-1.2836148605	-0.230865
C	-0.7347265263	-1.0901803983	-2.08470794	 0.289987
N	-1.6536673797	-1.3433849217	-2.7380590595	-0.333291
H	 0.7827212118	 1.9749463458	-0.4579908455	 0.129108
H	-0.9706643558	 1.7623091251	-0.5849301876	 0.14557
H	-0.2052838435	 1.8855944381	 1.0079529946	 0.121156
H	-1.1979092943	-0.2286051392	 1.5929846977	 0.231051
H	 1.1230654282	-0.2925334717	 2.0209710975	 0.097655
H	 1.9873383116	-2.6787722087	 1.0709596873	 0.11464
H	 1.5753438656	-2.7187022156	-1.5053387364	 0.122741
H	 1.0732830362	-0.0972308597	-1.9078892864	 0.127336
101.204	132.7466	201.9439	244.8463	302.0698	375.0071	385.2043	500.1628	526.6602	548.2488	618.4085	724.3354	760.176	819.1929	861.9246	890.3741	917.7712	953.6338	973.1582	987.947	1037.2766	1056.4006	1059.9269	1114.9977	1125.1836	1169.167	1236.072	1279.551	1297.6453	1342.6085	1368.1307	1416.6289	1436.0394	1484.9854	1499.1658	1672.8375	2359.4069	3005.5696	3028.588	3093.6628	3103.5591	3170.7144	3204.8655	3228.9276	3473.1755
CC12NC1C=CC2C#N	C[C@]12N[C@H]1C=C[C@H]2C#N	
InChI=1S/C7H8N2/c1-7-5(4-8)2-3-6(7)9-7/h2-3,5-6,9H,1H3	InChI=1S/C7H8N2/c1-7-5(4-8)2-3-6(7)9-7/h2-3,5-6,9H,1H3/t5-,6-,7+/m0/s1
