22
gdb 12282	3.67982	1.27379	1.07129	1.2657	78.1	-0.2506	0.0743	0.3249	1194.4219	0.199357	-350.200902	-350.191485	-350.19054	-350.234673	35.146	
C	-0.031083907	 1.5819729592	-0.1296854156	-0.379755
C	 0.0182576134	 0.0643138631	 0.0796490323	-0.195111
C	-1.3606295526	-0.5824881987	 0.0298581187	 0.055105
C	-2.1358508002	-0.6220462649	-1.31940402	-0.285262
C	-2.6740522049	-2.0158231143	-0.904477564	 0.142692
O	-2.7238831499	-3.0508618819	-1.8605324313	-0.432209
C	-1.5157220196	-2.1402480789	 0.1224751981	-0.051527
C	-0.3305785659	-2.9640093293	-0.3779619521	-0.385813
H	 0.9695534219	 2.0232982202	-0.0863678529	 0.109987
H	-0.4636776222	 1.8345545563	-1.1039280706	 0.117471
H	-0.6433359391	 2.0679479501	 0.6384431806	 0.111504
H	 0.6667685214	-0.386881251	-0.6808393388	 0.094921
H	 0.4861317145	-0.1546042919	 1.0489815896	 0.092795
H	-1.9942585234	-0.1189624236	 0.7961186586	 0.06442
H	-2.8587699808	 0.170248339	-1.5311690297	 0.087333
H	-1.452544096	-0.7184088406	-2.1696555039	 0.101348
H	-3.6383211682	-1.9170597902	-0.3843198145	 0.06147
H	-3.4274674593	-2.8500564287	-2.485470108	 0.281268
H	-1.8185018993	-2.5112176829	 1.1067615399	 0.061821
H	 0.0090364337	-2.6456538536	-1.367536795	 0.117762
H	 0.5156801062	-2.8877355428	 0.3123902538	 0.106257
H	-0.6107841625	-4.0178109947	-0.458900275	 0.123523
86.6792	102.8763	157.8482	223.3853	226.5152	236.7769	247.5831	295.4189	376.8446	420.8263	457.1425	549.8304	644.0303	759.1745	791.923	809.7527	905.9442	916.1016	946.0128	971.6791	1018.2454	1030.8388	1058.6779	1081.7529	1131.5839	1145.1904	1171.0988	1188.9966	1223.0914	1236.8226	1275.3118	1279.8986	1294.5217	1326.0639	1351.7173	1369.7249	1391.8212	1406.8769	1410.4305	1432.0826	1483.366	1488.2093	1495.5223	1498.7679	1499.9677	1508.1079	2984.4777	3015.6403	3020.0349	3029.1388	3040.0019	3045.912	3050.4505	3055.0194	3095.7717	3100.3759	3102.2499	3107.9753	3116.5987	3819.1304
CCC1CC(O)C1C	CC[C@H]1C[C@@H](O)[C@H]1C	
InChI=1S/C7H14O/c1-3-6-4-7(8)5(6)2/h5-8H,3-4H2,1-2H3	InChI=1S/C7H14O/c1-3-6-4-7(8)5(6)2/h5-8H,3-4H2,1-2H3/t5-,6-,7+/m0/s1
