16
gdb 16281	3.3664	1.80514	1.44714	1.8458	72.19	-0.2433	0.0198	0.2631	909.2379	0.128629	-346.535666	-346.527996	-346.527052	-346.567314	29.297	
C	-0.0589057228	 1.5545270062	 0.0824633757	-0.41019
C	 0.0394907565	 0.0430508127	-0.045124444	-0.06446
C	 1.1690897415	-0.5704854724	-0.9544438946	-0.267147
C	 1.7184494852	-1.2904207489	 0.2796573263	-0.057953
O	 2.0349012454	-0.2931113677	 1.2506014184	-0.28683
C	 0.6615298811	-0.7222420725	 1.1513442746	 0.294995
C	 0.0028274007	-1.2188681586	 2.3094772858	 0.194792
C	-0.6054080271	-1.6163030006	 3.2680899137	-0.390815
H	 0.9033926463	 1.9736509655	 0.3889729387	 0.13404
H	-0.3431605132	 2.008955445	-0.8724303546	 0.115513
H	-0.8106803509	 1.8388540779	 0.826315535	 0.122787
H	-0.9286600151	-0.3968656125	-0.3010576199	 0.085568
H	 0.7774209599	-1.2456061288	-1.718397558	 0.109839
H	 1.8636239283	 0.1389697562	-1.4112856259	 0.113563
H	 2.2409787486	-2.237311387	 0.3543619893	 0.114589
H	-1.1298013843	-1.9726801645	 4.1200259793	 0.191709
119.1911	157.8325	196.6048	229.5167	298.8442	396.6793	476.2578	539.0601	544.9016	606.8019	626.944	668.0995	703.2082	805.7324	855.6541	885.4358	930.5707	949.5348	1014.3398	1055.7343	1103.8549	1111.1988	1144.9838	1188.869	1226.2056	1261.6906	1270.1829	1355.9177	1401.2209	1419.3613	1477.8307	1491.2647	1502.925	2238.7916	3035.1408	3065.4586	3070.8877	3099.1501	3119.3989	3125.8665	3188.1231	3502.1904
CC1CC2OC12C#C	C[C@H]1C[C@H]2O[C@@]12C#C	
InChI=1S/C7H8O/c1-3-7-5(2)4-6(7)8-7/h1,5-6H,4H2,2H3	InChI=1S/C7H8O/c1-3-7-5(2)4-6(7)8-7/h1,5-6H,4H2,2H3/t5-,6+,7-/m0/s1
