20
gdb 77587	2.66838	1.41548	1.20117	1.7576	79.61	-0.2285	0.069	0.2975	1138.0964	0.169545	-403.087088	-403.078249	-403.077304	-403.120121	34.094	
C	-0.1263914961	 1.583476213	-0.063306849	-0.419372
C	 0.0379071725	 0.0743109919	 0.030539521	-0.118844
C	 0.6664015279	-0.6850291502	-1.1684556114	 0.341011
C	-0.0647748457	-1.2543389512	-2.3436477704	-0.509731
N	 2.0586131359	-0.1837886271	-1.2708759532	-0.375085
C	 1.7276608586	-1.2634203294	-0.2923439918	-0.24445
C	 1.167598374	-0.5286847949	 0.9060124292	 0.49674
C	 1.8195496031	-0.0588556545	 2.1239201149	-0.263852
O	 0.8973235333	-1.1668614123	 2.1394591194	-0.289382
H	 0.8069379617	 2.0470782668	-0.392092213	 0.137859
H	-0.9146569125	 1.850967759	-0.7757191165	 0.111035
H	-0.4041300347	 2.0095861874	 0.9067804668	 0.115171
H	-0.8999312451	-0.4128547254	 0.3213711326	 0.087306
H	-0.4026376513	-0.4630963894	-3.0233668763	 0.129949
H	 0.5779934098	-1.9328188469	-2.9157174506	 0.118026
H	-0.9472511068	-1.8178419506	-2.0226410279	 0.129061
H	 2.4829159201	-0.641346015	-2.0787715215	 0.22463
H	 2.2219287869	-2.2272430538	-0.3171937867	 0.10021
H	 2.8604811057	-0.3146288063	 2.3161426494	 0.114884
H	 1.4632738728	 0.8438415288	 2.617970005	 0.114833
99.4008	194.4555	198.5321	213.5301	224.2623	230.888	314.3967	343.8528	437.9109	481.8805	544.1273	581.9681	681.4953	735.2576	833.0547	845.169	869.101	888.0035	938.8476	975.4016	994.1562	1003.1584	1068.2144	1095.6498	1104.341	1118.3587	1128.0927	1137.0709	1160.8885	1176.4697	1215.856	1292.8293	1310.8586	1353.9007	1402.5988	1407.679	1440.5611	1458.4588	1481.7194	1493.5904	1497.3043	1503.4751	1541.7527	3022.475	3032.5601	3050.0301	3083.8392	3084.4668	3091.559	3096.0654	3124.8219	3170.6344	3190.2856	3456.538
CC1C2(C)NC2C11CO1	C[C@H]1[C@@]2(C)N[C@H]2[C@]21CO2	
InChI=1S/C7H11NO/c1-4-6(2)5(8-6)7(4)3-9-7/h4-5,8H,3H2,1-2H3	InChI=1S/C7H11NO/c1-4-6(2)5(8-6)7(4)3-9-7/h4-5,8H,3H2,1-2H3/t4-,5+,6+,7+/m0/s1
