20
gdb 47103	2.55903	1.68756	1.16995	3.6871	77.98	-0.2351	0.0377	0.2728	1085.4334	0.175252	-403.218932	-403.211287	-403.210343	-403.251494	29.997	
O	-0.1132359799	-0.050002038	 0.0466757597	-0.388919
C	-0.0725317188	 1.1620338875	 0.0541420372	 0.399151
N	-1.1542526485	 2.0003746442	 0.0359689391	-0.303177
C	-0.8494779916	 3.4192759993	 0.0126367391	-0.196157
C	 0.6366322442	 3.4549952781	 0.4321605136	-0.001961
C	 0.8802554896	 3.5881574378	 1.9481003575	-0.214956
C	 2.2260674082	 2.8795317837	 2.1668996268	-0.200627
C	 2.1700518121	 1.6485951595	 1.2321889046	-0.223476
C	 1.1832088561	 2.0433224603	 0.1018335275	-0.122769
H	-2.0845233645	 1.6265176326	-0.0642137516	 0.248966
H	-0.9988313718	 3.8492435803	-0.987661718	 0.103614
H	-1.48657073	 3.9752375962	 0.7104533063	 0.109834
H	 1.1725605805	 4.2431187852	-0.1031387556	 0.074427
H	 0.8733403988	 4.6272678865	 2.2901409038	 0.094976
H	 0.0873848282	 3.0575910927	 2.491356625	 0.1053
H	 3.043910909	 3.5445452882	 1.8637517666	 0.097243
H	 2.4023708416	 2.6105689523	 3.2120866488	 0.098852
H	 3.1558191886	 1.385542289	 0.8418043141	 0.10105
H	 1.7922879386	 0.7636530359	 1.7528193238	 0.123533
H	 1.6511306696	 1.9900356389	-0.8860737781	 0.095096
56.449	142.4843	199.3207	253.2859	326.6046	458.8188	524.9564	533.8938	583.4901	641.8763	721.6601	745.094	790.9032	823.6559	881.615	903.3493	916.0538	971.6469	988.0595	1003.7723	1028.3505	1060.4172	1080.6592	1131.8408	1154.4914	1196.8103	1222.985	1227.414	1246.4959	1262.9445	1283.724	1307.1137	1320.6178	1331.4365	1345.2687	1355.8912	1380.7896	1449.1836	1488.2161	1493.3985	1511.0144	1533.845	1822.0118	2999.8818	3025.4579	3033.4724	3047.5635	3056.4002	3062.5365	3070.3345	3088.3279	3091.5922	3107.657	3641.5649
O=C1NCC2CCCC12	O=C1NC[C@H]2CCC[C@@H]12	
InChI=1S/C7H11NO/c9-7-6-3-1-2-5(6)4-8-7/h5-6H,1-4H2,(H,8,9)	InChI=1S/C7H11NO/c9-7-6-3-1-2-5(6)4-8-7/h5-6H,1-4H2,(H,8,9)/t5-,6-/m1/s1
