17
gdb 125676	3.08501	1.26635	0.90287	1.967	79.18	-0.1961	0.0232	0.2192	1247.6766	0.138058	-414.21702	-414.208353	-414.207409	-414.250617	31.805	
C	-0.0077697479	 1.4741302655	 0.0289122968	-0.518076
C	-0.0028369625	-0.0208847838	 0.0085358879	 0.278567
N	-0.0263799753	-0.6983498446	-1.1376936879	-0.282879
N	-0.0133711162	-1.9915177825	-0.7728750536	-0.194074
C	 0.0178480721	-2.1799018175	 0.5722644412	-0.097111
C	 0.0255237448	-0.9096429835	 1.1162019536	 0.211104
N	 0.0544814653	-0.519825458	 2.4568297372	-0.398923
C	 0.0814882543	-1.3446132327	 3.5463734077	 0.07478
N	 0.0837514789	-2.6199815892	 3.4605503587	-0.465648
H	 0.8876400629	 1.8804678792	 0.5161172258	 0.122643
H	-0.034863588	 1.8535532701	-0.9944533556	 0.148917
H	-0.8805522057	 1.8739166518	 0.5605538928	 0.122536
H	-0.0272424371	-2.698996962	-1.4863135196	 0.272469
H	 0.0321017877	-3.1441109589	 1.0453909487	 0.167451
H	 0.055456147	 0.4698205365	 2.6341284759	 0.25225
H	 0.1007223906	-0.7723769413	 4.4815019381	 0.086244
H	 0.1059893091	-3.030347459	 4.3905733023	 0.219746
66.011	124.8168	171.1358	188.3014	245.9638	266.0626	357.7855	429.7503	440.9912	474.901	586.7583	661.3528	686.0055	706.5566	790.5927	805.1154	851.7961	949.1483	1000.0001	1029.5536	1064.2792	1065.0469	1100.8432	1182.7749	1224.264	1247.4951	1321.7889	1401.4303	1409.1991	1418.5816	1477.8072	1483.7541	1486.8617	1497.1042	1591.9922	1630.7118	1716.9355	3016.633	3047.1282	3061.4583	3131.7741	3318.4679	3518.9816	3666.1223	3686.2215
CC1=NNC=C1NC=N	Cc1n[nH]cc1NC=N	
InChI=1S/C5H8N4/c1-4-5(7-3-6)2-8-9-4/h2-3H,1H3,(H2,6,7)(H,8,9)	InChI=1S/C5H8N4/c1-4-5(7-3-6)2-8-9-4/h2-3H,1H3,(H2,6,7)(H,8,9)
