17
gdb 67477	2.63574	1.71132	1.5898	2.1512	67.22	-0.2233	0.0646	0.288	924.6989	0.13705	-458.905974	-458.898892	-458.897948	-458.937115	28.514	
O	-0.0906256114	 1.4156867827	-0.1150963933	-0.45388
C	-0.0025759977	 0.0462614486	-0.002731475	 0.284911
C	-1.1814796075	-0.8596580178	-0.1445093978	-0.12044
C	-1.2644528438	-1.8325564515	-1.3072424354	-0.098186
O	-0.031842291	-2.4434080402	-1.6514791106	-0.240546
C	 1.0978381222	-1.5962307527	-1.6484423154	-0.09538
C	 1.2189399505	-0.8369447519	-0.3324300986	 0.013179
O	 0.9284982837	-1.7037210047	 0.8015090295	-0.287367
C	-0.2681450436	-0.9757627706	 1.0765683955	-0.001007
H	 0.5980427329	 1.8124301253	 0.4317438263	 0.289257
H	-2.1211983116	-0.3688749452	 0.1015519195	 0.101412
H	-1.9451169309	-2.6602524282	-1.0826871142	 0.115116
H	-1.6759359007	-1.2878991461	-2.1754609616	 0.092531
H	 1.9563607652	-2.2565849734	-1.8037999842	 0.116824
H	 1.0722942657	-0.8629433349	-2.4744553172	 0.093193
H	 2.1928730303	-0.3467042587	-0.2217599892	 0.078397
H	-0.6104185622	-0.9255264107	 2.1031524618	 0.111988
177.0746	209.1875	267.6129	327.7878	353.3464	389.2305	424.4919	488.2482	641.3059	680.5777	722.2714	773.616	820.9943	876.414	894.7776	938.6466	947.0885	989.7948	1022.7468	1042.6012	1065.3759	1081.3664	1110.8069	1158.4827	1182.0643	1221.2507	1256.6712	1272.224	1298.3792	1326.1914	1332.5485	1345.674	1388.4716	1420.9263	1485.7767	1501.1266	1509.6666	2946.9966	2954.852	3047.745	3068.0976	3082.2068	3142.7593	3191.0477	3779.6836
OC12C3COCC1OC23	O[C@@]12[C@H]3COC[C@@H]1O[C@@H]23	
InChI=1S/C6H8O3/c7-6-3-1-8-2-4(6)9-5(3)6/h3-5,7H,1-2H2	InChI=1S/C6H8O3/c7-6-3-1-8-2-4(6)9-5(3)6/h3-5,7H,1-2H2/t3-,4-,5+,6-/m0/s1
