21
gdb 113720	2.5624	1.06669	0.87009	4.3797	82.86	-0.2572	0.0233	0.2806	1422.4349	0.182377	-383.263543	-383.253371	-383.252427	-383.299221	36.924	
C	-0.1371866977	 1.6418878019	-0.2750579328	-0.372661
C	 0.006161795	 0.1892945557	 0.1954813011	-0.2223
C	-1.3284157465	-0.5322491713	 0.2225943451	 0.01496
C	-1.8997545256	-1.2146018085	-0.9991961934	-0.310123
C	-1.5021419637	-2.0353042126	 0.2051922833	-0.052467
C	-0.3855127513	-3.0884116712	 0.18408141	-0.139518
N	-0.8654777229	-4.4711245104	 0.0279493341	-0.500507
C	 0.6146585951	-2.8537482584	-0.8714474661	 0.317546
N	 1.3816249418	-2.6754378246	-1.7170830546	-0.33989
H	 0.8300359271	 2.1532615959	-0.2733751585	 0.114944
H	-0.5406374413	 1.6865975612	-1.2918332892	 0.121414
H	-0.8148296983	 2.2055165508	 0.3761077807	 0.110725
H	 0.7120352503	-0.3332899114	-0.4555573346	 0.131915
H	 0.4442660078	 0.1757484815	 1.2025112183	 0.095022
H	-2.0646354336	-0.0272735399	 0.8458378446	 0.084756
H	-2.9530918755	-1.1030227437	-1.2315834302	 0.111392
H	-1.2545525458	-1.2772661352	-1.8705795258	 0.13783
H	-2.321377098	-2.3984301014	 0.8220614331	 0.084439
H	 0.1534812395	-3.0513709625	 1.1400097527	 0.135296
H	-1.4734255461	-4.6949570731	 0.8107019175	 0.236164
H	-1.4383787305	-4.5331657628	-0.8099776652	 0.241063
46.348	73.6314	122.3762	163.6205	205.2723	223.7405	245.8938	289.2285	306.6565	352.738	416.4081	535.1418	601.6445	631.1962	749.5762	772.3871	798.9436	858.5144	869.0714	913.8398	956.1513	990.0464	995.5573	1067.8485	1079.2036	1088.4137	1114.3579	1148.6068	1160.6087	1195.4743	1203.0452	1254.2804	1300.9406	1313.3428	1345.5454	1377.3018	1409.7023	1419.7525	1431.5583	1486.6519	1497.3213	1498.75	1507.5596	1657.2607	2359.9606	3019.73	3027.9347	3032.0191	3086.2225	3104.0177	3108.9736	3117.2565	3126.9217	3129.695	3213.7939	3484.1572	3568.1883
CCC1CC1C(N)C#N	CC[C@H]1C[C@H]1[C@@H](N)C#N	
InChI=1S/C7H12N2/c1-2-5-3-6(5)7(9)4-8/h5-7H,2-3,9H2,1H3	InChI=1S/C7H12N2/c1-2-5-3-6(5)7(9)4-8/h5-7H,2-3,9H2,1H3/t5-,6+,7-/m0/s1
