18
gdb 72669	2.30167	1.52141	1.45517	4.6298	76.14	-0.2689	-0.002	0.2669	1037.0211	0.147165	-401.934931	-401.926488	-401.925544	-401.967987	31.716	
C	-0.2621087517	 1.5318035532	 0.0973112087	-0.496577
C	-0.0295294122	 0.0443067276	 0.0058629802	 0.224577
C	-1.2619718543	-0.9118399123	 0.0092418088	-0.279757
C	-0.6644426428	-1.7166100713	 1.2032133136	-0.273619
C	 0.6140842502	-0.8490805101	 1.1348486047	 0.285139
O	 1.5874606592	-1.3675965641	 0.210257591	-0.325169
C	 1.136072087	-0.4852717398	-0.8498635914	-0.11942
C	 1.1987171647	-0.3378322903	 2.361625204	 0.233226
N	 1.6303823194	 0.0995685037	 3.3413284752	-0.343414
H	 0.6699633894	 2.0721240067	 0.2909576243	 0.136005
H	-0.6840260685	 1.9107105761	-0.8412735053	 0.128029
H	-0.9666205024	 1.7768309959	 0.8986046575	 0.130943
H	-2.1988495944	-0.405453508	 0.2501918326	 0.114264
H	-1.4028397705	-1.4747177399	-0.9165011595	 0.111275
H	-1.2196690265	-1.5872739627	 2.1346390955	 0.125535
H	-0.4675215723	-2.7777872105	 1.042939169	 0.127499
H	 0.8722495826	-1.0368039443	-1.7593138165	 0.10922
H	 1.900266913	 0.2654831401	-1.0872421223	 0.112246
80.7782	117.5125	179.5312	206.132	258.0382	333.3477	366.0839	370.6962	525.1979	551.4336	563.7047	658.6081	686.7825	748.6579	848.9055	898.6262	944.6888	959.7055	977.7213	1003.6192	1019.1702	1072.3269	1106.3061	1147.8074	1162.3608	1197.1593	1228.2269	1240.8444	1263.1179	1286.4475	1294.459	1366.1759	1416.084	1460.9682	1486.3987	1489.7161	1492.3944	1524.5065	2347.4819	3016.0773	3028.4171	3067.4086	3069.3753	3076.9216	3093.2968	3106.8125	3117.1345	3140.6235
CC12CCC1(OC2)C#N	C[C@]12CC[C@]1(OC2)C#N	
InChI=1S/C7H9NO/c1-6-2-3-7(6,4-8)9-5-6/h2-3,5H2,1H3	InChI=1S/C7H9NO/c1-6-2-3-7(6,4-8)9-5-6/h2-3,5H2,1H3/t6-,7+/m1/s1
