20
gdb 120103	3.96383	0.89707	0.82232	1.3315	78.5	-0.2175	0.0604	0.2779	1437.0014	0.170934	-403.036169	-403.027618	-403.026674	-403.069985	32.804	
O	 0.2147440182	 1.4318494031	 0.2562801843	-0.418785
C	 0.0467446427	 0.0259517982	 0.2573484545	-0.086466
C	-1.350716349	-0.4041665863	-0.2087317419	-0.246382
C	-1.4915917974	-1.9224605449	-0.1486016808	 0.015086
C	-2.6396586625	-2.8161329638	 0.1446874248	-0.073874
C	-4.009384533	-2.5022305445	-0.4819708194	-0.06708
C	-4.0319172661	-1.2410915916	-1.2981996083	-0.301527
C	-3.294711811	-2.4527298119	-1.8103119608	-0.004157
N	-1.9590161635	-2.8513445967	-1.2097560478	-0.17387
H	 0.1611198999	 1.7352769543	-0.6556490513	 0.282149
H	 0.8130909407	-0.4754595979	-0.3554681333	 0.097427
H	 0.2065454654	-0.2912616052	 1.2939379113	 0.116926
H	-2.0885783672	 0.1018530916	 0.4214208913	 0.125078
H	-1.4984872634	-0.0499338688	-1.235472481	 0.10948
H	-0.5792989111	-2.3733453251	 0.2495046832	 0.098427
H	-2.5302876664	-3.6568475063	 0.824968035	 0.095381
H	-4.9031443329	-3.0440237033	-0.2037233195	 0.095693
H	-4.9741842267	-1.0962437179	-1.8209314446	 0.114914
H	-3.5721230541	-0.316966372	-0.985661352	 0.118008
H	-3.5372555926	-2.917476441	-2.7571472539	 0.103574
49.7024	114.3163	137.7831	217.1522	286.4678	304.1299	372.3806	433.4034	470.1023	653.5169	671.8499	695.1417	741.4842	775.7903	797.6194	885.1943	889.8326	929.7422	963.9471	998.8142	1012.4192	1040.8868	1058.2525	1066.2473	1071.881	1084.5279	1087.6208	1094.9506	1144.3888	1177.1105	1193.0591	1267.2734	1274.4919	1292.6726	1324.6137	1339.9503	1376.9774	1393.6794	1418.4139	1454.417	1481.4215	1498.2109	1513.1248	2977.3857	3031.57	3062.4756	3072.7896	3088.6264	3137.7597	3138.381	3191.1378	3205.0086	3256.4871	3814.9331
OCCC1C2C3CC3N12	OCC[C@H]1[C@H]2[C@H]3C[C@H]3N12	
InChI=1S/C7H11NO/c9-2-1-5-7-4-3-6(4)8(5)7/h4-7,9H,1-3H2	InChI=1S/C7H11NO/c9-2-1-5-7-4-3-6(4)8(5)7/h4-7,9H,1-3H2/t4-,5-,6+,7+,8?/m0/s1
