15
gdb 36070	4.48541	1.19134	1.11312	4.6609	71.28	-0.2298	0.0249	0.2546	1075.3055	0.112791	-379.553968	-379.546927	-379.545983	-379.586047	26.782	
N	-0.1551793149	-1.1322660183	-0.2509394595	-0.300613
C	-0.0847325031	 0.0068582498	-0.0727697299	 0.264728
C	 0.0211382365	 1.4511136532	 0.1630065541	-0.49474
C	 1.4336590428	 1.9497823434	 0.1000978719	 0.359424
C	 1.9408172398	 3.3846071052	-0.1135924566	-0.190548
C	 3.202171608	 3.0339499652	 0.7134465183	-0.045375
C	 2.7161799569	 1.6444801679	 0.9216187195	-0.118506
N	 3.5973672841	 1.9543200216	-0.2596049794	-0.168092
C	 2.3377299729	 2.278394532	-1.0606127762	-0.058342
H	-0.5877139011	 1.9717057827	-0.5862493008	 0.159721
H	-0.4286774769	 1.6745385295	 1.1388739741	 0.160209
H	 1.3726250896	 4.2904124955	-0.2719888797	 0.103505
H	 3.9322473923	 3.6313019366	 1.2455352355	 0.10535
H	 2.9688560349	 0.8839315046	 1.6504315548	 0.110848
H	 2.2311681283	 2.1504826212	-2.1305178561	 0.112432
67.8335	100.2624	256.9998	285.5394	388.9012	455.9663	635.772	687.3808	758.5428	777.289	789.5419	833.7465	856.2169	870.3383	885.9368	928.1115	941.5558	964.6868	985.3318	1000.4158	1017.5275	1042.9593	1115.5259	1130.4745	1191.3726	1218.2479	1246.4635	1300.3236	1317.4639	1329.7821	1429.7934	1451.5301	2364.9363	3027.7321	3066.0107	3181.6482	3192.6341	3195.5016	3219.1676
N#CCC12C3C4C1N4C23	N#CC[C@@]12[C@H]3[C@H]4[C@@H]1N4[C@@H]23	
InChI=1S/C7H6N2/c8-2-1-7-3-4-6(7)9(4)5(3)7/h3-6H,1H2	InChI=1S/C7H6N2/c8-2-1-7-3-4-6(7)9(4)5(3)7/h3-6H,1H2/t3-,4-,5+,6-,7-,9?/m0/s1
