17
gdb 89959	3.39572	1.32264	1.11335	2.1837	69.31	-0.2551	-0.0494	0.2057	1104.5735	0.133944	-458.928287	-458.919957	-458.919013	-458.961486	30.494	
C	 0.286299538	 1.6392713904	 0.2481610377	-0.410584
C	-0.0375750077	 0.1641376445	 0.2530694213	 0.119003
O	 0.5010873583	-0.5575480373	-0.9020638723	-0.35514
C	 1.15929783	-1.5222703474	-0.0736496942	 0.292304
C	 2.5800569293	-1.1254940932	 0.3581492307	-0.124493
O	 2.0721837053	-0.3738231054	 1.4946718042	-0.282357
C	 0.7269389131	-0.7680224341	 1.2206827508	 0.001805
C	 0.8410542357	-2.9469077161	-0.4128614262	 0.077754
O	 1.4784943049	-3.8861559912	-0.0066552661	-0.250803
H	 1.3642778205	 1.7973110081	 0.321593052	 0.139422
H	-0.082593252	 2.0994400471	-0.6731515668	 0.132263
H	-0.1978111018	 2.1350741477	 1.0961490138	 0.124342
H	-1.1218335066	-0.0061669882	 0.3068155545	 0.085899
H	 3.1847733287	-1.9774450388	 0.684518285	 0.133389
H	 3.1241323338	-0.5004820146	-0.3556293128	 0.120254
H	 0.2121361563	-1.184171441	 2.0883274911	 0.10166
H	-0.0502461159	-3.0656019305	-1.0661399325	 0.095282
81.5403	106.8027	199.9267	210.1827	235.6489	243.0013	352.3421	419.5926	475.519	599.8844	652.1742	733.4657	798.714	840.9117	877.8851	939.5735	960.9671	969.8131	1009.7321	1063.3014	1094.4062	1108.6982	1131.2414	1155.6731	1175.8376	1189.5439	1252.362	1305.1645	1315.5456	1354.1172	1373.0883	1400.17	1407.951	1482.5077	1490.6215	1498.9792	1816.6233	2906.6854	3009.6363	3044.7244	3045.5107	3101.3243	3111.5625	3113.1098	3138.4846
CC1OC2(COC12)C=O	C[C@H]1O[C@]2(CO[C@@H]12)C=O	
InChI=1S/C6H8O3/c1-4-5-6(2-7,9-4)3-8-5/h2,4-5H,3H2,1H3	InChI=1S/C6H8O3/c1-4-5-6(2-7,9-4)3-8-5/h2,4-5H,3H2,1H3/t4-,5+,6+/m1/s1
