20
gdb 92000	2.65183	1.46857	1.1458	3.9175	80.06	-0.2266	0.0301	0.2566	1131.0308	0.172234	-403.17502	-403.166627	-403.165682	-403.208077	32.193	
C	 0.7817252164	 1.5425039411	-0.2175124885	-0.400827
C	 0.1494732368	 0.1709324354	 0.0370497218	 0.037868
C	 0.3169563988	-0.8401647393	-1.1351509915	-0.261231
C	 1.2465525177	-1.9393561563	-0.6341114504	-0.055273
C	 2.6207622823	-1.5540735479	-0.1272163638	-0.311503
C	 1.4658936807	-1.7115576065	 0.8341238153	 0.014628
N	 0.747380392	-0.5196207155	 1.1969627955	-0.034399
C	 0.5008081061	-0.1321099548	 2.4713447907	 0.133957
O	-0.1781083073	 0.8274114886	 2.7865369653	-0.353026
H	 1.8472127091	 1.4603850917	-0.4548586505	 0.113435
H	 0.2830739482	 2.029129249	-1.0623052126	 0.11504
H	 0.6643723756	 2.174272109	 0.6651252942	 0.153729
H	-0.9089657022	 0.3317857926	 0.2661101983	 0.10864
H	-0.6501399191	-1.2779643134	-1.3993537136	 0.112202
H	 0.7006956623	-0.3406363573	-2.0302168095	 0.110384
H	 1.1091710028	-2.9411805776	-1.0234642179	 0.096328
H	 3.3789334773	-2.3301723045	-0.1233939827	 0.118716
H	 2.9987768577	-0.5559386783	-0.3189090765	 0.122987
H	 1.4623759999	-2.5049970504	 1.5723507588	 0.108113
H	 0.986017395	-0.7986085557	 3.2124657776	 0.070232
76.1223	115.5584	200.1983	235.524	283.0776	290.8703	362.1379	407.8901	477.5974	502.8201	684.636	712.2741	756.5858	784.3366	820.3482	890.604	917.4126	960.9604	977.7467	1013.042	1027.6958	1050.9209	1067.8484	1079.3476	1105.6615	1126.1875	1142.8229	1206.5214	1228.3257	1240.7674	1298.8566	1312.8191	1339.097	1367.0999	1386.448	1403.9849	1422.4017	1453.1346	1482.5651	1488.3695	1501.1298	1507.7255	1778.5642	2928.6452	3037.8215	3047.5356	3054.6638	3090.1488	3105.6546	3132.7832	3138.4624	3174.053	3181.886	3222.4051
CC1CC2CC2N1C=O	C[C@H]1C[C@H]2C[C@H]2N1C=O	
InChI=1S/C7H11NO/c1-5-2-6-3-7(6)8(5)4-9/h4-7H,2-3H2,1H3	InChI=1S/C7H11NO/c1-5-2-6-3-7(6)8(5)4-9/h4-7H,2-3H2,1H3/t5-,6-,7+/m0/s1
