14
gdb 128758	6.96494	0.74919	0.68916	4.7612	70.68	-0.2585	-0.0497	0.2088	1547.8073	0.100079	-469.95437	-469.946096	-469.945151	-469.988911	27.831	
C	 0.0243712093	 1.3769101966	 0.0499144605	-0.255547
O	-0.2396149379	-0.0161925992	-0.1362236363	-0.178697
C	 0.4938189832	-0.6346895116	-1.0556238779	 0.144115
N	 0.3805353704	-1.8912775605	-1.2119237186	-0.327707
C	 1.0888685614	-2.4788079304	-2.2424012508	 0.371843
N	 1.38794271	-1.9145157878	-3.391660326	-0.163103
O	 2.0583374108	-2.8681094828	-4.1086693758	-0.155241
N	 2.172040062	-4.0372177438	-3.4052067694	-0.060233
C	 1.5784835425	-3.8200144862	-2.2683596437	-0.096225
H	 1.0022672097	 1.5290408663	 0.5186544701	 0.142435
H	-0.018168276	 1.9173601594	-0.9015271252	 0.14356
H	-0.7574048945	 1.7470892566	 0.7125970647	 0.158089
H	 1.1698781086	 0.0020888976	-1.6394744874	 0.123971
H	 1.5111499606	-4.5805919242	-1.5068551042	 0.152741
41.2859	72.711	110.7587	168.5111	191.1914	315.4534	400.4249	420.7157	534.9216	636.7427	742.1801	809.19	893.9398	901.9877	933.6823	1014.0534	1022.9084	1044.1685	1092.4091	1162.7755	1176.4639	1210.1155	1300.1495	1378.1684	1428.5431	1471.2985	1493.0091	1498.8068	1509.6778	1594.9924	1733.4524	3030.3791	3055.9002	3103.5159	3158.9936	3276.1525
COC=NC1=NON=C1	COC=Nc1nonc1	
InChI=1S/C4H5N3O2/c1-8-3-5-4-2-6-9-7-4/h2-3H,1H3	InChI=1S/C4H5N3O2/c1-8-3-5-4-2-6-9-7-4/h2-3H,1H3
