15
gdb 46600	2.9455	1.76903	1.46109	2.9781	63.73	-0.2534	-0.0069	0.2465	900.3587	0.113856	-457.734878	-457.728155	-457.72721	-457.765999	26.239	
O	-0.0742580341	-0.0284131165	 0.230085949	-0.330646
C	-0.0045351594	 1.1506251916	 0.0529658313	 0.403323
O	-1.1379734787	 1.9235152179	-0.1363082133	-0.238029
C	-0.8322365396	 3.2280045599	-0.6865629872	-0.155216
C	 0.6577608327	 3.3865441018	-0.4930776322	 0.345269
C	 1.2663660529	 3.2783941298	 0.8542200677	-0.364265
C	 1.1867067578	 2.0472996178	-0.0405556809	-0.018824
C	 2.1497962845	 2.1933717948	-1.2270138822	-0.143212
O	 1.6080264596	 3.5136487021	-1.5544082727	-0.317711
H	-1.084985855	 3.2418048315	-1.7514360657	 0.137915
H	-1.4463766309	 3.9594321667	-0.1559146374	 0.131412
H	 2.2460389485	 3.7096093439	 1.0284078007	 0.141257
H	 0.5906540737	 3.2920617422	 1.7022457802	 0.14827
H	 3.2191407517	 2.2352481165	-0.9989350087	 0.125302
H	 1.9637020562	 1.4807730698	-2.0357233285	 0.135154
130.7685	177.8751	264.006	346.7744	402.2108	428.6994	586.3443	634.3809	659.6622	736.9079	768.5442	804.7009	862.0308	913.8205	948.5799	967.2845	977.1644	1012.9922	1018.856	1038.7184	1082.621	1137.9347	1154.753	1200.7249	1263.2729	1293.1094	1333.773	1376.7356	1383.5388	1469.8691	1510.569	1515.3236	1882.1701	3047.5608	3056.8976	3105.2052	3110.5263	3138.2388	3233.9089
O=C1OCC23CC12CO3	O=C1OC[C@@]23C[C@@]12CO3	
InChI=1S/C6H6O3/c7-4-5-1-6(5,3-8-4)9-2-5/h1-3H2	InChI=1S/C6H6O3/c7-4-5-1-6(5,3-8-4)9-2-5/h1-3H2/t5-,6+/m1/s1
