20
gdb 40433	3.99415	1.18883	1.06218	1.1585	78.43	-0.2449	0.0885	0.3334	1186.4312	0.173248	-403.114979	-403.107187	-403.106243	-403.147425	30.689	
C	-0.302525268	 1.2523978332	-0.2959171323	-0.268925
C	 1.0966554161	 1.1871971815	 0.2576913682	-0.263879
C	 0.2904673227	-0.0801945326	 0.0780672005	-0.096534
C	-0.1996913557	-0.8246095339	 1.2761231301	 0.32132
C	 0.6420796731	-1.96533564	 1.8360346985	-0.153008
O	-0.2067059301	-2.6681235108	 2.7394879475	-0.260993
C	-1.5440970432	-2.5659138842	 2.251704816	-0.108882
C	-1.6083858718	-1.2189207219	 1.5600308255	-0.089357
N	-0.9901113695	-0.0936917465	 2.2762193839	-0.37506
H	-1.0723027203	 1.6441787839	 0.3582858364	 0.134603
H	-0.4334824075	 1.4718063438	-1.3496565042	 0.105739
H	 1.933263348	 1.3649389724	-0.4087834262	 0.10837
H	 1.2416230471	 1.5407632949	 1.2726708452	 0.117808
H	 0.5904877624	-0.7259004568	-0.7436074822	 0.080248
H	 0.9815038677	-2.6146726158	 1.0120094004	 0.093181
H	 1.5219785557	-1.6360890447	 2.3992240978	 0.113033
H	-1.7771347144	-3.3693707807	 1.5337944576	 0.097482
H	-2.2132398594	-2.6675652509	 3.1130753526	 0.113045
H	-2.4393211648	-0.9799852378	 0.9047053419	 0.096711
H	-0.725153928	-0.386978463	 3.2157852928	 0.235097
75.7978	153.3368	190.6281	256.6487	296.9542	372.4812	445.8936	457.4853	622.5379	701.1906	753.7419	794.2864	826.8893	874.9574	876.2496	912.3613	930.1315	938.9957	973.066	1026.9127	1034.8286	1062.1967	1067.1717	1091.6196	1104.5443	1122.3368	1135.207	1144.084	1180.9412	1204.2184	1211.854	1222.1471	1248.7262	1271.9466	1318.0207	1346.5112	1361.2281	1406.7984	1457.5406	1467.8847	1500.95	1506.825	1518.1214	2968.6214	2975.9418	3064.9878	3067.9425	3133.5613	3135.4474	3141.6066	3170.7018	3218.2276	3234.7223	3468.9691
C1CC1C12COCC1N2	C1CC1[C@]12COC[C@H]1N2	
InChI=1S/C7H11NO/c1-2-5(1)7-4-9-3-6(7)8-7/h5-6,8H,1-4H2	InChI=1S/C7H11NO/c1-2-5(1)7-4-9-3-6(7)8-7/h5-6,8H,1-4H2/t6-,7-/m1/s1
