19
gdb 22616	2.24849	1.59301	1.03984	0.8594	80.29	-0.2269	0.0053	0.2321	1183.5361	0.157426	-419.127915	-419.118601	-419.117657	-419.161592	34.883	
C	-0.2389993446	 1.5623083934	-0.0010710669	-0.412163
C	 0.096059018	 0.0805944898	 0.0096000055	-0.027148
N	 0.7890083862	-0.5097493177	-1.2080819089	-0.179208
C	 2.1376345923	 0.0720827554	-1.2426754122	-0.284401
C	 1.9024578082	-1.0446417795	-0.2879291499	 0.248464
C	 2.5210778054	-2.4048737701	-0.3987474514	-0.490877
C	 1.1846340399	-0.5037094419	 0.8961759241	 0.359176
N	 1.3527231114	-0.7366770005	 2.1297060371	-0.269484
O	 0.3491402299	-0.1045155488	 2.8950414089	-0.396119
H	 0.6444646081	 2.1954588016	-0.1159769793	 0.119312
H	-0.9298412454	 1.7838897296	-0.820806397	 0.128036
H	-0.7195956641	 1.8306149317	 0.9435367112	 0.143214
H	-0.823197109	-0.495781293	 0.1644390877	 0.113655
H	 2.6787571702	-0.1760817165	-2.1515007058	 0.125403
H	 2.3102333498	 1.0820668089	-0.8819517934	 0.118266
H	 2.7063229565	-2.6574503513	-1.4462922633	 0.129782
H	 3.4762367909	-2.4340525719	 0.1364019642	 0.134743
H	 1.8689831925	-3.1684558258	 0.0355530269	 0.13185
H	 0.5822831038	-0.3684004431	 3.7913757724	 0.3075
103.0427	148.6488	164.1878	191.7755	216.9979	224.5616	280.9869	351.3559	371.383	428.9601	505.572	532.2453	615.9243	640.8158	718.1131	763.3858	802.4662	865.492	950.9512	972.5666	981.927	1044.3179	1082.6984	1093.5826	1107.9916	1127.891	1134.7974	1175.438	1258.5051	1302.4811	1349.3299	1365.0219	1404.3915	1409.7846	1427.7474	1478.9184	1487.5912	1492.4872	1495.5296	1511.3938	1787.311	3038.5868	3044.9204	3047.5373	3104.5266	3112.7716	3118.5131	3121.3294	3125.9663	3199.1157	3820.3237
CC1N2CC2(C)C1=NO	C[C@H]1N2C[C@@]2(C)C1=NO	
InChI=1S/C6H10N2O/c1-4-5(7-9)6(2)3-8(4)6/h4,9H,3H2,1-2H3	InChI=1S/C6H10N2O/c1-4-5(7-9)6(2)3-8(4)6/h4,9H,3H2,1-2H3/t4-,6+,8?/m1/s1
