19
gdb 7854	4.29509	1.12542	1.01201	2.8691	72.77	-0.231	-0.0077	0.2233	1215.7447	0.162673	-365.051979	-365.042659	-365.041714	-365.087141	32.786	
C	 0.0785307944	 1.2599835184	-0.557041303	-0.413576
C	-0.2905994411	 0.1300683389	 0.3789391444	 0.036089
C	 0.565060117	-1.0837210485	 0.5117998106	-0.257214
N	 0.4292376389	-0.1456157274	 1.6254785311	-0.091436
C	 1.5890063374	 0.6539185527	 1.9851558267	-0.249391
C	 2.3528539695	 0.0754393149	 3.1830960844	 0.375391
C	 1.5532299287	-0.6935393507	 4.2124762543	-0.460552
O	 3.5407411297	 0.2727744706	 3.2920666176	-0.295193
H	 1.1557502587	 1.3308660545	-0.7244690834	 0.124965
H	-0.3985487349	 1.1040896062	-1.5301973835	 0.12619
H	-0.2704957917	 2.22406108	-0.1705959453	 0.125027
H	-1.3657169316	-0.0070767742	 0.4911309207	 0.092889
H	 0.1282412171	-2.0684444809	 0.6569505544	 0.115302
H	 1.5075320281	-1.0826117035	-0.0357601141	 0.113083
H	 2.3231696248	 0.8057986064	 1.1815956708	 0.111659
H	 1.2394752087	 1.6491946686	 2.2970938816	 0.126523
H	 0.6793424322	-0.1160924126	 4.5310371632	 0.138952
H	 1.1603493234	-1.6128829159	 3.7672466975	 0.149509
H	 2.1896954907	-0.9306335175	 5.065816392	 0.131784
34.4168	59.2715	121.3702	137.1838	189.9825	227.7818	318.3446	415.4519	417.9558	476.2448	500.8987	551.6609	751.3714	788.6244	827.8304	865.6833	905.9281	953.3925	1005.3199	1035.815	1049.1236	1097.8911	1118.1764	1149.2352	1169.3285	1190.7166	1228.9598	1268.1061	1336.0548	1349.1552	1381.8992	1404.5671	1422.9742	1451.0156	1458.5198	1467.8409	1491.6326	1499.4332	1511.3603	1815.2493	2992.2028	3035.0122	3038.1551	3047.2851	3085.4394	3095.338	3101.6132	3109.5454	3126.5359	3155.0725	3173.3212
CC1CN1CC(C)=O	C[C@H]1CN1CC(=O)C	
InChI=1S/C6H11NO/c1-5-3-7(5)4-6(2)8/h5H,3-4H2,1-2H3	InChI=1S/C6H11NO/c1-5-3-7(5)4-6(2)8/h5H,3-4H2,1-2H3/t5-,7?/m0/s1
