19
gdb 84501	2.58182	1.59662	1.20031	2.3511	77.62	-0.2406	-0.0008	0.2398	1074.7401	0.159965	-423.019291	-423.011112	-423.010168	-423.051798	32.702	
O	-0.5116773061	 1.383544362	 0.7677534292	-0.44507
C	-0.009248124	 0.2183912931	 0.0860700829	 0.037378
C	 0.8648702587	-0.6302388705	 0.9715974086	-0.151123
C	 0.2013246469	-1.7056504041	 1.4126610898	-0.126514
C	-1.1657199463	-1.7928832444	 0.8480203139	 0.301174
C	-1.9426193986	-3.0817186785	 0.7455038687	-0.327005
C	-2.3839519515	-2.0247263227	 1.7187147124	-0.308697
C	-1.1831290184	-0.7402538853	-0.2819618189	 0.032377
O	-2.3964621006	-0.0575975196	-0.4642229442	-0.435836
H	-0.5979352853	 1.1477109651	 1.6990671416	 0.285128
H	 0.4895214453	 0.6111961333	-0.8038531186	 0.091688
H	 1.8715931836	-0.3437681362	 1.2513405818	 0.101904
H	 0.5955401703	-2.4467282484	 2.1013851074	 0.104104
H	-2.5386755212	-3.2291271847	-0.1496318047	 0.122846
H	-1.4882265917	-3.986876205	 1.1360491566	 0.108982
H	-2.2362982934	-2.2000228647	 2.7791246757	 0.107196
H	-3.2573752399	-1.4361827939	 1.4599840836	 0.13145
H	-0.9389130854	-1.2469176489	-1.2244387997	 0.086552
H	-2.2850421523	 0.7789535235	 0.0140136138	 0.283467
71.1065	189.6474	246.0626	259.5625	304.8085	338.8221	357.1028	451.6269	513.1408	568.6605	590.761	629.3243	766.9659	771.8374	789.6623	796.7152	849.2848	912.8875	941.6865	959.8191	976.7665	982.238	1029.9956	1049.278	1062.8504	1080.231	1129.3023	1134.86	1197.2162	1228.4556	1250.226	1288.8369	1307.7399	1310.5692	1354.2079	1399.2095	1416.9419	1444.9733	1456.5023	1495.2862	1653.8465	3022.8466	3079.0616	3122.2974	3130.0968	3175.1493	3204.6721	3209.8775	3225.335	3694.7079	3793.6332
OC1C=CC2(CC2)C1O	O[C@H]1C=CC2(CC2)[C@H]1O	
InChI=1S/C7H10O2/c8-5-1-2-7(3-4-7)6(5)9/h1-2,5-6,8-9H,3-4H2	InChI=1S/C7H10O2/c8-5-1-2-7(3-4-7)6(5)9/h1-2,5-6,8-9H,3-4H2/t5-,6-/m0/s1
