21
gdb 64951	3.26251	1.10916	0.95587	2.5357	85.	-0.2403	-0.0124	0.228	1323.6723	0.181914	-387.093598	-387.084399	-387.083455	-387.128135	34.986	
C	 0.1196441886	 1.5072167265	-0.1987895795	-0.489288
C	 0.0455987913	-0.0039607577	-0.0930756555	 0.239858
C	 1.3552870227	-0.7757727173	 0.0481322853	-0.275119
C	 0.4544774639	-0.6490277184	 1.228917171	-0.275112
C	-1.0289495135	-0.7548524627	-0.8322145395	 0.329169
O	-1.1016257654	-1.9707747493	-0.7572644637	-0.36567
C	-2.0088327241	 0.0076410802	-1.6613239982	-0.126179
C	-2.5249108161	-0.680687405	-2.919709475	-0.245769
C	-3.4236484835	-0.5541868968	-1.741155811	-0.245765
H	 0.9549384528	 1.8862640222	 0.3976052203	 0.115023
H	 0.2807425888	 1.8388413845	-1.2304347029	 0.12346
H	-0.7905349517	 1.989615516	 0.1741433665	 0.12346
H	 1.3953848133	-1.7395602278	-0.4448228985	 0.135803
H	 2.2684232429	-0.1911320979	 0.0191642529	 0.111131
H	 0.7329471992	 0.0249477873	 2.0318341793	 0.111132
H	-0.1057715035	-1.5283270908	 1.5229352277	 0.1358
H	-1.9082819588	 1.0833957829	-1.7000992812	 0.09064
H	-2.699161246	-0.0537942531	-3.7866455083	 0.115211
H	-2.10177586	-1.6581281471	-3.1194292598	 0.138501
H	-3.6010854438	-1.4470952462	-1.1533162355	 0.138499
H	-4.2362643671	 0.1625429104	-1.7709871744	 0.115214
44.8974	56.2283	190.0243	249.9107	263.234	297.7108	308.5842	322.053	360.237	403.1566	561.7605	722.3043	755.5038	794.6055	799.1805	825.2103	830.5231	835.9851	899.5448	917.6882	960.7627	971.6693	1036.7102	1065.4908	1079.8414	1091.9094	1095.627	1097.2135	1114.1144	1119.3545	1129.4877	1205.8713	1212.1865	1225.8264	1312.0747	1316.4945	1411.2687	1421.5287	1450.0826	1451.5281	1480.8716	1483.4391	1497.5191	1504.6009	1746.7	3027.9829	3089.5555	3101.4131	3136.6395	3138.8686	3141.0949	3142.8567	3207.5184	3228.1987	3229.9552	3241.4433	3244.8619
CC1(CC1)C(=O)C1CC1	CC1(CC1)C(=O)C1CC1	
InChI=1S/C8H12O/c1-8(4-5-8)7(9)6-2-3-6/h6H,2-5H2,1H3	InChI=1S/C8H12O/c1-8(4-5-8)7(9)6-2-3-6/h6H,2-5H2,1H3
