23
gdb 91321	2.46563	1.51778	1.18539	1.374	85.28	-0.249	0.0677	0.3167	1171.6492	0.20494	-388.270178	-388.260844	-388.2599	-388.304027	36.902	
C	-0.3949423861	 1.4997092866	 0.0872208829	-0.395343
C	-0.0064472551	 0.0273606198	 0.025387629	 0.028186
C	 1.128046237	-0.3979386662	-0.9627198971	-0.251816
C	 1.8892777242	-1.0822670053	 0.1974036437	-0.000979
C	 2.8640911905	-0.1438564881	 0.9605648892	-0.305743
C	 1.7837755681	 0.0600456424	 2.0733268588	 0.415678
C	 2.1065136678	-0.7273244289	 3.3425885295	-0.443265
O	 1.4261591231	 1.3915018204	 2.3993284823	-0.470814
C	 0.7414273378	-0.6875923138	 1.2016972721	-0.073727
H	 0.4703875693	 2.1431362073	 0.2548985246	 0.125381
H	-0.8720509327	 1.7957002214	-0.8547649	 0.097334
H	-1.1036059886	 1.6913230543	 0.8993355551	 0.112331
H	-0.909615471	-0.555207866	-0.1863091982	 0.070436
H	 0.7920334353	-1.0798799737	-1.748495953	 0.092685
H	 1.6701210248	 0.4260943082	-1.4385247918	 0.090531
H	 2.2196094071	-2.1114290836	 0.0547407241	 0.058601
H	 3.8001150315	-0.594806294	 1.3026605531	 0.088265
H	 3.0963668772	 0.7768935458	 0.4182267492	 0.096277
H	 2.9839301211	-0.3014444065	 3.8471635726	 0.10071
H	 1.2582159591	-0.6961370493	 4.033753169	 0.121279
H	 2.333565007	-1.774157242	 3.1179262068	 0.120399
H	 2.0980227277	 1.7434749316	 2.9934078119	 0.272464
H	 0.1356224748	-1.4173548705	 1.7441194161	 0.05113
38.5247	170.2996	228.271	253.9777	264.622	274.6531	290.076	344.3173	365.9589	401.636	430.3205	556.8128	591.8759	677.0794	758.0489	817.9414	835.8442	862.6393	877.7415	907.2251	927.8796	963.2412	977.2339	999.898	1022.3653	1073.4976	1117.2595	1123.6069	1135.6801	1153.0132	1170.3484	1195.4557	1216.4708	1240.1748	1255.7276	1278.866	1292.4965	1298.1383	1321.8086	1365.2806	1384.5513	1402.1721	1413.007	1472.9844	1487.6071	1489.6867	1491.8211	1493.7076	1494.7355	3015.2443	3027.0459	3033.4775	3041.421	3046.8252	3071.0126	3085.35	3089.5035	3092.3895	3097.0515	3108.2177	3111.8638	3134.5956	3797.7111
CC1CC2CC(C)(O)C12	C[C@H]1C[C@H]2C[C@@](C)(O)[C@@H]12	
InChI=1S/C8H14O/c1-5-3-6-4-8(2,9)7(5)6/h5-7,9H,3-4H2,1-2H3	InChI=1S/C8H14O/c1-5-3-6-4-8(2,9)7(5)6/h5-7,9H,3-4H2,1-2H3/t5-,6-,7-,8+/m0/s1
