19
gdb 31533	3.2197	1.0579	0.84623	0.3666	80.97	-0.1655	0.0604	0.2259	1399.2201	0.158506	-419.232963	-419.222757	-419.221813	-419.269037	36.153	
C	 0.3880518187	 0.9158398503	 0.6326796865	-0.3225
N	-0.1340884766	 0.2078563703	-0.5432381335	-0.386538
C	-1.3545607758	-0.4683060698	-0.3536322362	 0.287974
C	-2.6693900033	-0.1185261828	-0.5294125991	-0.309934
C	-3.4911233915	-1.255148025	-0.2100640858	 0.152329
C	-4.9867222467	-1.3371468744	-0.2560767839	-0.51233
C	-2.6186640979	-2.2491469684	 0.1648090894	 0.292705
O	-2.793710162	-3.5362225164	 0.5728053848	-0.441805
N	-1.3360334922	-1.7839277012	 0.0847232315	-0.321732
H	 1.3405683615	 1.3887166866	 0.3740827605	 0.113965
H	-0.2952548363	 1.6844714776	 1.0258853706	 0.106667
H	 0.5773919933	 0.1959588979	 1.4343201167	 0.124942
H	-0.211081913	 0.8443863693	-1.3265336514	 0.230568
H	-3.0249311178	 0.8511848362	-0.8466806836	 0.078457
H	-5.3800645418	-1.0879306066	-1.2489876871	 0.127066
H	-5.3495456999	-2.3459827659	-0.0220771569	 0.0914
H	-5.4653521468	-0.6565158403	 0.4591870566	 0.125438
H	-3.7390165949	-3.7042572852	 0.6327633703	 0.301839
H	-0.5072262269	-2.3417007022	 0.1971042204	 0.261489
43.1501	46.4073	119.5623	173.1639	175.9501	234.1995	253.6836	270.0723	316.3618	395.1542	443.3565	501.9618	583.8079	643.2634	651.5503	682.0013	747.4975	778.8406	807.9002	986.3473	999.9256	1055.2802	1057.8122	1138.1867	1142.7136	1159.6783	1188.0468	1207.0901	1267.9592	1358.7971	1402.1644	1423.8359	1450.9739	1474.8017	1481.493	1487.0957	1505.85	1513.5105	1544.0301	1588.3072	1663.895	2981.7982	3008.6545	3058.9612	3066.3961	3072.1217	3110.1844	3232.5599	3555.685	3682.4584	3841.4282
CNC1=CC(C)=C(O)N1	CNc1cc(C)c(O)[nH]1	
InChI=1S/C6H10N2O/c1-4-3-5(7-2)8-6(4)9/h3,7-9H,1-2H3	InChI=1S/C6H10N2O/c1-4-3-5(7-2)8-6(4)9/h3,7-9H,1-2H3
