15
gdb 5549	3.19603	1.98222	1.31129	2.9229	63.89	-0.1815	0.0491	0.2306	912.0863	0.118726	-399.80946	-399.801454	-399.800509	-399.841959	29.062	
C	 0.2607597499	 1.0152902645	-0.3359639914	-0.249825
O	-0.2650618004	 0.1978405811	 0.7157306037	-0.277128
C	-1.3416561782	-0.5545176019	 0.3625845181	 0.20227
C	-1.3951239531	-1.8726786688	-0.0257139878	 0.253329
O	-0.3400454852	-2.7244961962	-0.1908285337	-0.459053
C	-2.7608787545	-2.2046253827	-0.2368137138	-0.23373
C	-3.4989318955	-1.0736723448	 0.0329363344	-0.084963
N	-2.6356366997	-0.0683556184	 0.3881286667	-0.298651
H	 1.1410200709	 1.5193890546	 0.0689949445	 0.130572
H	 0.5466462631	 0.4066691266	-1.2018026416	 0.126683
H	-0.4710062054	 1.7661785664	-0.658346425	 0.11641
H	 0.4386381293	-2.2919379094	 0.1774720396	 0.294563
H	-3.1417709152	-3.1626102686	-0.5526738766	 0.100209
H	-4.5630272162	-0.9070467027	 0.0036835266	 0.117106
H	-2.8935219496	 0.8359292402	 0.7415043463	 0.26221
66.0515	150.4762	154.4038	262.2843	282.2053	343.2445	369.6859	421.5042	492.9044	626.2336	650.0328	656.8028	713.0148	747.0232	807.5079	906.1432	1010.9417	1077.6737	1099.8315	1149.2785	1173.0776	1207.5363	1254.839	1264.5751	1366.0865	1449.0193	1461.2354	1485.7401	1501.7823	1511.1946	1537.2521	1669.4408	3012.4601	3078.448	3128.1313	3256.7264	3276.3619	3687.7875	3805.6592
COC1=C(O)C=CN1	COc1c(O)cc[nH]1	
InChI=1S/C5H7NO2/c1-8-5-4(7)2-3-6-5/h2-3,6-7H,1H3	InChI=1S/C5H7NO2/c1-8-5-4(7)2-3-6-5/h2-3,6-7H,1H3
