13
gdb 34278	3.83136	1.53512	1.23325	2.096	68.61	-0.2496	-0.0882	0.1614	935.8042	0.088067	-415.474231	-415.467418	-415.466474	-415.505335	26.333	
N	 0.1284688871	-1.0901694191	 0.1860669021	-0.323152
C	 0.0267819883	 0.0558705857	 0.0545987068	 0.196017
C	-0.1025986351	 1.4735284762	-0.0824478911	 0.111598
C	-1.3808715208	 2.2223808399	 0.4132869827	-0.220328
N	-1.0056039814	 3.6579980834	 0.199409443	-0.204623
C	-0.0240750778	 3.553559681	-0.5863080619	 0.255641
O	 1.3022017524	 3.7589670031	-0.1419310829	-0.251562
C	 1.3463102797	 2.3009123945	-0.3116347921	 0.066968
C	 0.3088171015	 2.2106195918	-1.3203388627	-0.23259
H	-2.2764448126	 1.8725652487	-0.1186869289	 0.136002
H	-1.5482593577	 2.1194162052	 1.4881779234	 0.158115
H	 2.305197868	 1.820654513	-0.1608277112	 0.163384
H	 0.2847467282	 1.9477999967	-2.3693014172	 0.144529
147.2507	157.4606	259.2743	358.6062	422.5191	491.2208	531.2202	557.9851	573.9779	615.9792	736.8335	789.1177	826.5882	852.777	925.9692	948.8511	988.0553	1010.1571	1036.0082	1098.6664	1116.9487	1167.8715	1199.792	1207.7157	1296.3518	1352.2031	1479.6428	1633.1919	2338.6847	3012.4562	3104.1333	3203.6322	3215.6492
N#CC12CN=C3OC1C23	N#C[C@@]12C[N][C]3O[C@@H]1[C@@H]23	
InChI=1S/C6H4N2O/c7-1-6-2-8-5-3(6)4(6)9-5/h3-4H,2H2	InChI=1S/C6H4N2O/c7-1-6-2-8-5-3(6)4(6)9-5/h3-4H,2H2/t3-,4-,6+/m1/s1
