17
gdb 86759	3.26101	1.15938	0.93902	6.5682	75.4	-0.2255	0.0292	0.2547	1238.9436	0.137713	-414.215991	-414.207178	-414.206234	-414.249884	31.947	
C	-0.0823149834	 1.3564812927	 0.1519795172	-0.332223
N	 0.0226729783	-0.0319129666	-0.2615071563	-0.114605
C	-1.13480896	-0.8927713319	-0.0075242815	-0.199635
C	-0.4755870689	-2.3074658619	-0.004740787	-0.116456
N	 0.9652561993	-2.0805110655	 0.1582893555	-0.335429
C	 1.1406481356	-0.8128134047	 0.021210929	 0.430737
N	 2.3693501305	-0.2061838548	 0.1502794566	-0.579269
C	-1.0279187466	-3.1739237149	 1.0446004144	 0.282802
N	-1.4901164691	-3.8445330192	 1.864068804	-0.329214
H	 0.8360275689	 1.8988135939	-0.0792786642	 0.129031
H	-0.8975028679	 1.8373543812	-0.3964381735	 0.136715
H	-0.2812098391	 1.4601132335	 1.230163643	 0.128054
H	-1.5858545237	-0.6611718785	 0.9680405868	 0.121803
H	-1.9017814957	-0.7812152862	-0.7784331886	 0.124453
H	-0.6569532204	-2.8114654202	-0.9645189354	 0.125942
H	 3.1210677373	-0.8812946253	 0.1584515468	 0.269988
H	 2.5448212749	 0.5656996082	-0.4763458067	 0.257307
57.5153	126.5404	131.4335	189.6763	252.2677	300.3457	319.176	379.3705	429.5636	496.7067	574.7365	620.8772	624.3905	717.1694	759.6575	789.0195	867.8205	1019.3151	1026.745	1037.9434	1052.1301	1147.1637	1155.9553	1214.5065	1231.8523	1261.1396	1280.252	1328.5764	1370.4182	1441.2125	1479.6613	1490.6713	1509.6149	1538.1913	1624.404	1710.0971	2361.3175	2986.7611	2998.7321	3005.1424	3083.3737	3086.2259	3131.9627	3568.337	3671.1709
CN1CC(N=C1N)C#N	CN1C[C@@H]([N][C]1N)C#N	
InChI=1S/C5H8N4/c1-9-3-4(2-6)8-5(9)7/h4H,3H2,1H3,(H2,7,8)	InChI=1S/C5H8N4/c1-9-3-4(2-6)8-5(9)7/h4H,3H2,1H3,(H2,7,8)/t4-/m0/s1
