22
gdb 60199	3.28043	0.76766	0.67563	3.256	84.62	-0.2474	-0.0256	0.2218	1719.2867	0.192075	-404.340259	-404.329914	-404.32897	-404.376483	37.414	
C	 0.0674139452	 1.5312044436	-0.1243159962	-0.393289
C	 0.0268461737	 0.0025301178	 0.0007675265	 0.036284
C	 0.7212217223	-0.4581436083	 1.2897875701	-0.370568
C	-1.4255325186	-0.5056794501	-0.0946927689	-0.186916
C	-1.5355183278	-2.0122960794	-0.2023287188	-0.014802
N	-1.7164273045	-2.7935027671	 1.0149033047	-0.325693
C	-2.809508643	-2.7859911772	 0.0184261283	-0.139119
C	-4.0727479411	-2.1259387046	 0.4485041202	 0.174833
O	-5.1450678957	-2.3434886258	-0.0586572664	-0.260489
H	 1.09697416	 1.9022355438	-0.0929120779	 0.111679
H	-0.383700898	 1.8699173929	-1.062991566	 0.110764
H	-0.4802861276	 2.005357365	 0.698878376	 0.115172
H	 0.5798281284	-0.4179682924	-0.8528268658	 0.06947
H	 0.7324483571	-1.5471842343	 1.3835520588	 0.115251
H	 1.7573754537	-0.1052632356	 1.3202021904	 0.108256
H	 0.2064864316	-0.0602137182	 2.1719650041	 0.116802
H	-1.9900126319	-0.1589557667	 0.7782798406	 0.104729
H	-1.9001726784	-0.060817318	-0.9791003984	 0.102978
H	-0.9009016207	-2.4453021818	-0.9772096257	 0.093715
H	-1.216806393	-3.677317889	 0.9729026425	 0.242173
H	-2.9640907602	-3.6579236728	-0.6126893884	 0.103704
H	-3.9538337413	-1.4125993518	 1.2922387803	 0.085065
42.4991	71.6416	92.0403	147.8878	220.3534	232.1274	256.1037	280.7237	338.839	355.9402	424.8532	446.5024	476.8663	527.5553	802.0169	828.6164	847.2609	905.8944	918.0059	929.8131	962.7489	969.5069	992.0479	1023.6553	1048.2314	1088.6416	1138.1069	1152.4439	1195.4927	1207.0892	1231.2693	1246.4619	1279.9823	1314.1876	1362.9399	1370.0629	1378.4768	1403.13	1420.6214	1425.3725	1467.0999	1473.3526	1485.1179	1494.3078	1504.5028	1508.0974	1820.6676	2904.143	2988.6346	3022.0899	3026.0173	3033.416	3070.673	3090.6511	3094.9808	3097.9593	3100.7362	3113.9868	3145.8607	3513.0715
CC(C)CC1NC1C=O	CC(C)C[C@H]1N[C@H]1C=O	
InChI=1S/C7H13NO/c1-5(2)3-6-7(4-9)8-6/h4-8H,3H2,1-2H3	InChI=1S/C7H13NO/c1-5(2)3-6-7(4-9)8-6/h4-8H,3H2,1-2H3/t6-,7+/m1/s1
