15
gdb 94432	2.67584	1.39792	1.24629	3.8106	61.24	-0.2621	-0.0143	0.2477	1038.7062	0.111851	-494.889582	-494.88156	-494.880616	-494.922718	28.868	
O	 0.2848785151	 1.2601621102	-0.1373599906	-0.412675
C	 0.1368163145	-0.089294442	 0.2015793662	-0.007873
C	-0.0325598858	-0.3482501104	 1.7069248038	-0.095637
O	-1.2657333295	-1.0744222932	 1.4707364301	-0.30239
C	-1.2858499859	-0.7183385299	 0.0994680403	 0.201821
C	-2.4641132255	 0.0549544974	-0.5101718068	-0.135878
O	-2.577048396	-0.9584392837	-1.5660315442	-0.24781
C	-1.6172380505	-1.7557231126	-0.988534119	 0.400247
O	-1.2427331003	-2.8275734603	-1.3366343073	-0.326727
H	 0.6401926646	 1.3240564677	-1.0289838655	 0.300776
H	 0.8962350296	-0.7243259934	-0.2660849259	 0.111634
H	 0.7215197762	-0.9690277686	 2.1983558128	 0.124163
H	-0.2010435047	 0.5699844964	 2.2804461995	 0.122514
H	-3.3597049075	 0.0756259406	 0.1133762318	 0.137566
H	-2.2370327644	 1.0380031918	-0.9248655753	 0.130268
75.9948	118.091	142.7119	236.8259	252.4538	288.6702	400.4236	443.6873	532.2375	637.9492	704.3989	758.8033	812.1806	894.2992	906.7846	949.5313	1004.7618	1016.6274	1051.1061	1120.0237	1144.3644	1149.484	1162.6381	1173.7944	1238.0302	1251.135	1289.2988	1331.8479	1342.7295	1448.4913	1505.9912	1516.0798	1936.9853	3040.9075	3054.1891	3079.5665	3103.4424	3148.9132	3831.6433
OC1COC11COC1=O	O[C@H]1CO[C@]21COC2=O	
InChI=1S/C5H6O4/c6-3-1-9-5(3)2-8-4(5)7/h3,6H,1-2H2	InChI=1S/C5H6O4/c6-3-1-9-5(3)2-8-4(5)7/h3,6H,1-2H2/t3-,5-/m0/s1
