17
gdb 70656	2.4777	1.61316	1.20306	1.2934	73.75	-0.2558	0.0284	0.2842	1056.2428	0.134869	-421.771966	-421.763752	-421.762808	-421.804469	32.	
O	 0.3265418263	 1.1668675193	-0.0893360333	-0.470479
C	-0.0016985876	-0.1802258665	-0.0520690712	 0.384146
C	-0.6870624415	-0.8687728413	-1.1995231896	-0.350636
C	-1.4191144015	-0.6408230345	 0.1109465883	-0.116275
C	-1.3686258063	-1.781908604	 1.1079733757	-0.093464
O	-0.0063622311	-2.2195684775	 1.1234205848	-0.267403
C	 0.8225955015	-1.0847757071	 0.8749406088	-0.106897
C	 2.1053080364	-1.5066651354	 0.3242343745	 0.289424
C	 3.173504411	-1.7925290786	-0.1460296346	-0.429986
H	 1.1027610802	 1.2648896776	-0.6529933867	 0.291806
H	-0.9800579734	-0.2307048829	-2.0255638379	 0.116739
H	-0.3852913237	-1.8765952205	-1.4666111172	 0.130502
H	-2.2317352185	 0.0741843709	 0.1502528573	 0.104385
H	-1.6815938359	-1.4314399935	 2.1040503432	 0.099604
H	-1.9766045167	-2.6508636195	 0.8377427227	 0.114166
H	 0.9989740502	-0.515187749	 1.8034154088	 0.104754
H	 4.1164701308	-2.0640839575	-0.5524430236	 0.199614
102.6683	125.0862	241.8829	259.1121	312.5044	347.6387	358.0468	434.208	492.682	543.1027	594.0297	620.0214	672.4769	680.3949	745.7615	852.5166	894.1139	935.8875	970.2348	977.3471	998.5014	1050.6701	1056.2872	1081.2311	1100.1133	1125.9372	1224.5098	1233.8038	1268.7608	1301.8384	1337.9145	1367.0638	1374.2824	1412.4283	1487.0859	1515.4305	2240.0057	2959.8682	2984.3727	3076.4681	3131.6967	3193.4003	3226.9061	3502.5403	3789.9471
OC12CC1COC2C#C	O[C@]12C[C@H]1CO[C@H]2C#C	
InChI=1S/C7H8O2/c1-2-6-7(8)3-5(7)4-9-6/h1,5-6,8H,3-4H2	InChI=1S/C7H8O2/c1-2-6-7(8)3-5(7)4-9-6/h1,5-6,8H,3-4H2/t5-,6-,7+/m0/s1
