17
gdb 119550	2.79122	1.34784	1.0273	3.05	68.46	-0.2622	-0.003	0.2592	1159.7397	0.134697	-458.942075	-458.933495	-458.932551	-458.976125	30.803	
C	-0.2496710174	 0.7794209638	 0.3031357039	-0.250869
O	 0.9541375353	 0.4758101704	-0.3803270076	-0.224369
C	 0.7799517543	-0.3912286864	-1.477920004	-0.200671
C	 0.6113620697	-1.8359531371	-1.0832928542	 0.096397
C	 1.7585568342	-2.6977931112	-0.5202530455	-0.323414
C	 1.0277322153	-3.1412345837	-1.727796378	 0.042378
O	-0.212383929	-3.7862255606	-1.3237189464	-0.262134
C	-0.6689065105	-2.583968696	-0.7968744957	 0.443157
O	-1.7467183393	-2.3510177469	-0.3537325805	-0.330013
H	-0.9568352435	 1.3086208107	-0.3537358735	 0.108574
H	-0.7502009338	-0.117575667	 0.6897966408	 0.137642
H	 0.016880615	 1.4329278471	 1.1366912915	 0.127584
H	-0.075296595	-0.0741670082	-2.0951955563	 0.105301
H	 1.6851634406	-0.2952095918	-2.0879211159	 0.111597
H	 2.7392281787	-2.256286072	-0.6727303054	 0.139001
H	 1.6334912382	-3.2435258839	 0.409080804	 0.14276
H	 1.4016245174	-3.3635049972	-2.7168947973	 0.137081
49.2521	104.3723	142.537	181.5338	226.3611	251.3121	353.9936	445.4027	474.4577	509.8279	683.3716	736.1345	790.4427	834.819	895.5752	929.9302	932.2521	953.5274	988.3596	1036.0259	1067.7782	1080.8021	1093.1982	1138.0569	1182.573	1216.4304	1250.2311	1271.946	1339.5049	1379.671	1406.2859	1474.146	1482.4386	1489.1306	1495.8458	1511.5044	1932.5339	2982.3144	2990.3848	3055.2616	3064.5152	3123.8117	3127.4475	3219.1609	3230.7089
COCC12CC1OC2=O	COC[C@]12C[C@H]1OC2=O	
InChI=1S/C6H8O3/c1-8-3-6-2-4(6)9-5(6)7/h4H,2-3H2,1H3	InChI=1S/C6H8O3/c1-8-3-6-2-4(6)9-5(6)7/h4H,2-3H2,1H3/t4-,6-/m1/s1
