18
gdb 49911	4.50908	0.94646	0.89491	2.2605	72.8	-0.2483	-0.0332	0.2151	1319.8458	0.147085	-439.039342	-439.030776	-439.029832	-439.07379	30.605	
O	-0.554001007	 0.2944769318	 0.1887259548	-0.229649
C	 0.0219058984	 1.2626870237	-0.2278146523	 0.143219
C	 1.4263290284	 1.6737713587	 0.1621339576	 0.041276
C	 1.4707561664	 2.7539032747	 1.2772445865	-0.325554
C	 2.0348850125	 1.5989377415	 2.1446012241	 0.114561
O	 2.1019210214	 0.721321119	 0.9911083868	-0.286772
C	 3.3768197135	 1.7975213691	 2.7973961582	-0.008757
C	 4.3493250498	 0.6820190639	 2.8508310728	-0.239676
N	 4.594038208	 1.8493736327	 1.977708958	-0.323318
H	-0.459528391	 1.9767815703	-0.9384982107	 0.074524
H	 1.9910503342	 1.9119632782	-0.7502624978	 0.10136
H	 2.1834751977	 3.5572623459	 1.087971666	 0.132665
H	 0.5127377148	 3.1731974742	 1.5878304248	 0.123889
H	 1.3108489808	 1.2168838839	 2.8758881786	 0.100196
H	 3.3565357668	 2.5165037788	 3.6154696882	 0.09537
H	 5.0224112118	 0.5884556406	 3.6977539838	 0.119847
H	 4.0640685442	-0.2524756853	 2.3768336162	 0.132596
H	 4.3439217092	 1.5738101684	 1.0287650546	 0.234223
46.7018	83.0667	114.222	147.5385	206.8689	289.9403	327.0077	445.2598	590.4544	681.4913	735.6497	775.6077	845.2172	855.0662	903.8358	915.2711	947.9727	964.5632	986.6218	1010.64	1054.6043	1096.5879	1106.9786	1134.866	1142.2115	1157.9361	1189.0616	1240.3219	1250.9658	1273.5779	1297.2374	1303.8934	1350.8423	1383.7803	1414.2768	1420.9	1489.5421	1506.0228	1844.1472	2847.3056	3011.1725	3023.7803	3084.7686	3116.1195	3120.5132	3144.8188	3207.82	3475.6654
O=CC1CC(O1)C1CN1	O=C[C@H]1C[C@@H](O1)[C@H]1CN1	
InChI=1S/C6H9NO2/c8-3-4-1-6(9-4)5-2-7-5/h3-7H,1-2H2	InChI=1S/C6H9NO2/c8-3-4-1-6(9-4)5-2-7-5/h3-7H,1-2H2/t4-,5-,6-/m1/s1
