23
gdb 84273	2.91072	1.38949	1.09807	0.3363	92.09	-0.2197	0.0251	0.2448	1212.7817	0.206946	-351.145713	-351.137097	-351.136153	-351.178409	34.836	
C	-0.146954391	 1.5771678684	-0.0958734316	-0.407699
C	 0.047867975	 0.0604017825	-0.0085800648	 0.000276
C	 0.8791446471	-0.5268211646	-1.1545799868	-0.264351
C	 1.525639301	-1.5983446964	-0.7132702926	 0.328804
C	 2.7680123412	-2.4512198301	-0.8219706735	-0.326404
C	 2.8934095576	-2.2651660706	 0.7378735595	-0.248211
C	 1.3843256971	-1.8144471512	 0.7670303902	-0.042205
C	 0.7896743496	-0.4749400636	 1.2839133236	-0.032766
C	 1.8517824595	 0.4882153772	 1.8225821992	-0.393163
H	 0.8066676534	 2.1110732163	-0.1518098664	 0.11653
H	-0.7220120386	 1.8363679442	-0.9913042634	 0.110166
H	-0.6981694192	 1.9592315315	 0.7701861776	 0.110392
H	-0.9564047626	-0.3916806199	-0.0209776426	 0.075228
H	 0.9423536948	-0.0637162904	-2.1333763138	 0.084252
H	 2.5574635566	-3.4939914905	-1.0837611111	 0.109592
H	 3.5839098145	-2.0909848587	-1.4538284927	 0.107801
H	 3.1566659072	-3.1525641469	 1.3185053563	 0.095628
H	 3.5807271066	-1.4549625884	 0.9878468859	 0.109009
H	 0.7460882759	-2.6672043156	 1.0312609889	 0.069665
H	 0.0572726013	-0.6515789829	 2.0799802429	 0.058898
H	 2.5939931559	 0.7426323905	 1.0584502694	 0.116568
H	 1.4028140266	 1.4221746182	 2.1725425155	 0.111705
H	 2.3831123605	 0.0401660509	 2.6684749303	 0.110284
87.7254	173.4521	237.6547	253.6469	284.7121	309.6728	326.6214	351.5281	435.4544	496.738	627.3224	662.6356	675.9127	751.5946	778.5961	809.1997	838.3105	889.8966	898.511	941.3967	971.1175	984.5487	1021.9347	1030.68	1058.971	1073.3218	1101.8045	1117.5099	1153.9544	1170.6569	1188.1451	1211.5973	1233.6274	1246.6755	1257.0712	1283.2497	1314.8863	1329.7984	1355.7667	1371.3844	1405.8463	1411.3081	1472.0688	1484.093	1491.041	1498.9011	1505.5874	1514.4886	1739.3643	2967.3534	3013.5969	3030.4567	3034.4771	3038.582	3042.6624	3065.609	3093.1481	3096.2032	3099.2444	3105.7347	3107.1064	3128.2734	3186.5043
CC1C=C2CCC2C1C	C[C@H]1[CH][C]2CC[C@H]2[C@H]1C	
InChI=1S/C9H14/c1-6-5-8-3-4-9(8)7(6)2/h5-7,9H,3-4H2,1-2H3	InChI=1S/C9H14/c1-6-5-8-3-4-9(8)7(6)2/h5-7,9H,3-4H2,1-2H3/t6-,7-,9-/m0/s1
