17
gdb 108897	3.1675	1.06671	0.84222	3.7485	76.31	-0.2379	0.0147	0.2526	1339.1707	0.135847	-417.978392	-417.969497	-417.968553	-418.012435	32.602	
O	 0.1221766922	 1.4054439742	 0.085659051	-0.419169
C	 0.0468637281	 0.0343608154	-0.1881459607	-0.126185
C	-1.3647959734	-0.4736961146	-0.0734865323	 0.346148
N	-2.3320176926	 0.3222277094	 0.1869243776	-0.320202
C	-3.5672324382	-0.4972212695	 0.1754788978	-0.138995
C	-3.064001481	-1.9787105187	 0.1701007667	-0.199335
N	-1.6848111745	-1.7998841143	-0.3044473673	-0.349493
C	-4.4662989074	-0.1975428691	 1.2825439474	 0.327068
C	-5.218115701	 0.018454235	 2.1942422818	-0.448291
H	-0.792562113	 1.6894002749	 0.2413427699	 0.298075
H	 0.4148002182	-0.1887399093	-1.2030014784	 0.116657
H	 0.6882385087	-0.5336540655	 0.5066994912	 0.10338
H	-4.0934884156	-0.2887078677	-0.766977414	 0.119789
H	-3.0967431126	-2.4038242594	 1.1805696588	 0.120164
H	-3.6449072115	-2.6153687048	-0.5004849892	 0.124538
H	-1.0026525404	-2.5033886815	-0.0586642619	 0.245905
H	-5.8794038459	 0.2253315556	 2.9990395717	 0.199946
80.0701	80.5802	139.6306	187.068	231.5465	270.9088	356.9216	449.0011	489.2658	514.3402	533.0616	585.8135	625.5417	656.8085	713.5119	734.1737	868.3966	986.0494	1023.191	1031.2918	1041.6687	1057.6232	1077.8099	1120.4644	1201.6224	1239.4479	1251.9601	1283.7705	1304.5373	1333.8409	1362.2461	1453.173	1494.6564	1508.99	1525.3742	1704.2075	2243.6466	2967.1596	2983.9288	2998.4427	3030.3639	3103.1666	3504.2766	3594.8707	3685.3836
OCC1=NC(CN1)C#C	OC[C]1[N][C@@H](CN1)C#C	
InChI=1S/C6H8N2O/c1-2-5-3-7-6(4-9)8-5/h1,5,9H,3-4H2,(H,7,8)	InChI=1S/C6H8N2O/c1-2-5-3-7-6(4-9)8-5/h1,5,9H,3-4H2,(H,7,8)/t5-/m1/s1
