17
gdb 55705	2.50696	1.30393	1.07392	4.6622	74.5	-0.2774	0.0119	0.2893	1192.2547	0.134109	-418.012659	-418.003439	-418.002495	-418.047134	33.2	
C	 0.1310906744	 1.4331796576	-0.1241595359	-0.462632
C	-0.1805190782	-0.0268782599	 0.0621564102	 0.372442
N	-0.7675088521	-0.6151438455	 1.014032613	-0.493247
O	 0.2924564804	-0.731409545	-1.0112302342	-0.279937
C	 0.1305675313	-2.1290790974	-0.9879292051	 0.316587
C	-1.2196667586	-2.7039626404	-1.3357153729	-0.289564
C	-0.104962643	-2.7504039587	-2.3447752914	-0.319164
C	 0.9769230899	-2.8239980752	-0.0449891846	 0.266713
N	 1.6729514001	-3.4043664675	 0.6728597291	-0.35081
H	 1.2140539336	 1.5803039861	-0.1771049423	 0.157163
H	-0.2917386321	 1.7937550527	-1.0666663189	 0.148331
H	-0.2709479994	 2.0236634756	 0.7000808713	 0.133299
H	-1.0474027803	 0.0458396508	 1.7346648866	 0.22931
H	-1.5178778794	-3.6172247432	-0.8358257662	 0.147228
H	-2.0097715867	-1.9769852754	-1.4766379743	 0.139891
H	-0.1325586725	-2.0507900941	-3.1718587569	 0.13972
H	 0.3781307724	-3.6973650506	-2.5519784477	 0.144671
68.5652	84.1727	128.0868	156.8643	194.9261	224.1285	341.158	373.2701	399.6625	547.4039	563.6778	595.3258	601.5699	727.0654	767.455	859.8653	871.2801	921.7579	929.8324	976.1561	1003.9289	1047.1084	1069.1984	1070.7149	1083.6065	1090.0465	1190.6517	1265.7845	1314.9902	1355.8284	1411.5609	1454.1327	1470.9633	1480.9897	1486.5585	1746.0874	2356.6577	3050.975	3114.9432	3148.7696	3150.0868	3156.1216	3239.191	3252.9566	3523.1719
CC(=N)OC1(CC1)C#N	C[C]([NH])OC1(CC1)C#N	
InChI=1S/C6H8N2O/c1-5(8)9-6(4-7)2-3-6/h8H,2-3H2,1H3	InChI=1S/C6H8N2O/c1-5(8)9-6(4-7)2-3-6/h8H,2-3H2,1H3
