19
gdb 37553	3.99876	1.56724	1.31965	0.5693	87.09	-0.2149	0.0461	0.261	1003.5878	0.161451	-348.660653	-348.653925	-348.652981	-348.69168	28.039	
C	-0.0586636079	 1.6915982953	 0.0501144433	-0.279248
C	 1.4365537687	 1.327146317	-0.0131404792	-0.089559
C	 1.2548178625	 0.0959612023	 0.9770459858	-0.227435
C	-0.0440336351	 0.151413453	 0.0609560562	-0.089557
C	 1.1878929094	 0.0594866012	-0.9390116631	 0.320042
C	 1.4890996858	-0.4092875645	-2.358279458	-0.406952
C	 2.4695263208	-1.629165114	-2.1255288814	-0.227621
C	 2.6488558407	-1.7591016471	-0.6034723406	-0.34706
C	 1.9307706478	-0.8175378892	-0.0113049078	 0.419134
H	-0.4047488779	 2.1850140065	 0.9639892919	 0.092426
H	-0.4867367258	 2.1750057327	-0.8330878978	 0.095982
H	 2.3140267129	 1.9753071441	-0.041274827	 0.076921
H	 1.2754932855	 0.1385344098	 2.0656859503	 0.076681
H	-0.8732374247	-0.5556958875	 0.118230912	 0.076921
H	 0.5879342375	-0.7224504173	-2.892813015	 0.109535
H	 1.9632536594	 0.3697749171	-2.9617152645	 0.109533
H	 2.0607567655	-2.5506574491	-2.5598670607	 0.101833
H	 3.4309052766	-1.4625295837	-2.6283953949	 0.101834
H	 3.2768702285	-2.5219472765	-0.1594432197	 0.08659
90.0884	229.3886	290.8767	291.5643	515.1319	585.9916	649.9972	682.1013	707.6353	771.7936	777.3363	820.216	832.8551	867.8544	870.344	885.8616	904.3105	957.3845	970.4905	981.778	1017.1478	1045.2437	1048.3468	1079.1521	1118.7451	1136.7535	1159.4598	1160.7569	1172.5191	1192.8639	1224.3004	1229.3334	1244.5164	1255.621	1293.6611	1317.2825	1363.402	1476.2683	1500.7262	1509.4448	1766.0059	3015.0839	3038.293	3040.71	3059.229	3098.6431	3098.7428	3099.2289	3102.3438	3122.7897	3199.1198
C1C2C3C1C21CCC=C31	C1[C@H]2[C@H]3[C@@H]1[C@]12CCC=C31	
InChI=1S/C9H10/c1-2-5-8-6-4-7(8)9(5,6)3-1/h2,6-8H,1,3-4H2	InChI=1S/C9H10/c1-2-5-8-6-4-7(8)9(5,6)3-1/h2,6-8H,1,3-4H2/t6-,7+,8-,9+
