13
gdb 129284	3.35264	1.50565	1.12477	0.9691	73.3	-0.2792	-0.1041	0.1751	1011.9182	0.089465	-448.872314	-448.864975	-448.864031	-448.904778	26.857	
N	 0.1159503637	 0.9824010323	-0.9974106242	-0.461643
C	 0.0351278123	 0.182664678	-0.016220761	 0.353031
O	 1.0477537735	 0.061035901	 0.8984517416	-0.272452
N	 1.4701710986	-1.252103948	 1.3152288475	-0.084931
C	 0.5982990712	-1.9193870669	 1.9542680999	 0.039089
C	-0.8181046079	-1.55557038	 2.2526005351	 0.325279
N	-1.218470801	-1.7133196398	 3.4485153641	-0.466865
N	-1.6611171524	-1.1907490889	 1.1931152277	-0.263964
C	-1.2639044828	-0.5032207809	 0.1977435651	 0.013639
H	 1.0409177651	 1.4179060077	-1.0264050782	 0.246836
H	 0.9598275538	-2.8697589379	 2.3425646008	 0.16886
H	-2.2079080115	-1.4580075705	 3.517037554	 0.242575
H	-1.9702501828	-0.3093023961	-0.6086578724	 0.160545
61.84	94.9245	256.0605	318.2495	343.8003	418.1614	436.3026	504.4998	616.9485	683.4179	705.4924	775.491	824.7232	878.4817	918.0919	922.53	942.5481	962.9435	1000.4379	1080.6622	1107.6061	1288.7407	1335.2207	1350.0985	1394.2584	1685.2473	1695.3563	1715.9287	1722.2965	3149.9872	3164.8385	3445.1378	3470.4043
N=C1ON=CC(=N)N=C1	[NH]C1=C[N][C](C=NO1)[NH]	
InChI=1S/C4H4N4O/c5-3-1-8-9-4(6)2-7-3/h1-2,5-6H	InChI=1S/C4H4N4O/c5-3-1-8-9-4(6)2-7-3/h1-2,5-6H
