18
gdb 32767	3.26851	1.03307	0.8148	2.8915	77.26	-0.1854	0.0296	0.215	1403.0135	0.148635	-435.289113	-435.279803	-435.278859	-435.324566	33.023	
C	-0.0607189695	 1.3903489748	-0.2465960119	-0.222174
O	-0.1736269463	-0.0003368685	-0.4383840052	-0.242107
C	-1.1577628441	-0.5895454847	 0.4043441162	-0.204736
C	-1.173572899	-2.0560288678	 0.1971853447	 0.257915
C	-2.1744724431	-2.9661268102	-0.0657964009	 0.195351
N	-3.5492588052	-2.7449350333	-0.2095868271	-0.599539
N	-1.6750562352	-4.2445308099	-0.1049646854	-0.310156
C	-0.3829896694	-4.1221206257	 0.1220209026	 0.008532
N	-0.0272288291	-2.8323853025	 0.3235943261	-0.292895
H	 0.7268347341	 1.7500585691	-0.9131007035	 0.127867
H	-0.9984591011	 1.9145601025	-0.49032936	 0.10512
H	 0.2085001123	 1.6416077281	 0.7921073287	 0.10307
H	-0.9295242912	-0.326914057	 1.4542615812	 0.09414
H	-2.1574772575	-0.1782273308	 0.1910978777	 0.096984
H	-3.7680083025	-1.9396828168	-0.7823593521	 0.240193
H	-3.990456324	-3.5699163669	-0.5967640525	 0.247975
H	 0.3300111888	-4.9325347308	 0.1430591507	 0.12707
H	 0.905507772	-2.4650298898	 0.4093451006	 0.267388
24.1624	89.1788	111.8374	190.1019	219.9799	258.4269	284.2866	346.807	363.2738	484.3562	498.7909	649.998	682.0024	712.6347	783.6257	801.9535	822.796	959.3076	964.8305	1001.654	1061.6323	1128.0878	1135.2085	1178.1818	1203.4721	1220.2131	1265.7319	1275.0957	1331.5601	1393.6448	1419.7429	1478.201	1484.2716	1493.2696	1502.9069	1517.9817	1521.3864	1636.878	1660.721	2923.0591	2967.4548	2987.2063	3010.9777	3114.7848	3252.5856	3533.3996	3626.9947	3668.5948
COCC1=C(N)N=CN1	COCc1c(N)nc[nH]1	
InChI=1S/C5H9N3O/c1-9-2-4-5(6)8-3-7-4/h3H,2,6H2,1H3,(H,7,8)	InChI=1S/C5H9N3O/c1-9-2-4-5(6)8-3-7-4/h3H,2,6H2,1H3,(H,7,8)
