18
gdb 72028	2.83243	2.05495	1.8259	2.6702	72.35	-0.2206	0.0682	0.2888	842.8597	0.150813	-401.913644	-401.907402	-401.906458	-401.943728	27.257	
O	-0.0667829316	 1.3794506561	-0.0444254942	-0.504529
C	 0.0277650666	-0.0088229816	-0.0586208713	 0.4126
C	 0.8544996475	-0.7185557761	-1.1489575767	-0.284344
C	 0.7108808439	-2.127169937	-0.5281129527	-0.063681
C	 1.3553199059	-1.902905334	 0.8649310895	-0.21996
C	 0.3545257494	-0.8263703949	 1.2714268426	-0.064597
N	-0.9890834593	-1.5293616575	 1.192655249	-0.147587
C	-0.7990468383	-2.1660038628	-0.1533201852	-0.046441
C	-1.3036287951	-0.7721159633	-0.0548490646	-0.081925
H	 0.8237211267	 1.7457966409	-0.0436308951	 0.280004
H	 0.3861330398	-0.6186819328	-2.1327414789	 0.102325
H	 1.8977612257	-0.384163742	-1.2069399322	 0.083289
H	 1.0699554399	-2.96915532	-1.117474872	 0.068423
H	 1.3021145431	-2.7768147633	 1.5200551799	 0.109898
H	 2.3920541801	-1.557354095	 0.8028291598	 0.092647
H	 0.4897535467	-0.267052195	 2.1955237728	 0.07636
H	-1.4389960521	-3.0126096077	-0.367877197	 0.094222
H	-2.2929065989	-0.4009020741	-0.2990324436	 0.093295
234.8312	280.9798	344.5338	443.2119	462.3735	552.2905	589.2325	650.9642	678.0546	777.1093	787.9221	818.988	842.0739	892.621	905.5291	916.4485	920.6243	940.8016	976.5813	1000.1349	1026.6656	1042.1651	1060.8075	1095.8183	1118.4003	1147.1956	1169.7484	1178.099	1216.2255	1238.256	1253.5654	1258.2117	1283.314	1301.2685	1327.8484	1358.7439	1408.5459	1476.7497	1496.4317	3028.6516	3053.1115	3094.1201	3107.4055	3130.7674	3135.6486	3171.2442	3193.9821	3810.9033
OC12CC3CC1N1C3C21	O[C@@]12C[C@H]3C[C@@H]1N1[C@H]3[C@H]21	
InChI=1S/C7H9NO/c9-7-2-3-1-4(7)8-5(3)6(7)8/h3-6,9H,1-2H2	InChI=1S/C7H9NO/c9-7-2-3-1-4(7)8-5(3)6(7)8/h3-6,9H,1-2H2/t3-,4+,5-,6-,7+,8?/m1/s1
