16
gdb 37031	3.07695	1.83176	1.51878	0.9312	67.98	-0.2231	0.0093	0.2324	887.8663	0.126115	-437.835108	-437.828333	-437.827388	-437.86633	26.738	
C	-0.041135105	 1.3702434409	 0.0590751706	-0.369799
C	 1.3234352902	 0.7489631879	 0.0309678675	 0.339726
C	 2.2733840922	 0.6560238935	 1.1809383174	-0.159387
O	 1.6404535175	 0.0119924851	 2.3243230015	-0.238999
C	 0.5673921895	-0.7996775883	 2.1692922716	 0.115953
N	-0.2120967416	-0.9559016366	 1.173917809	-0.337765
C	 0.1167919528	-0.1397488302	 0.0605372697	 0.23847
C	 0.5785729967	-0.6191816876	-1.3133479315	-0.137808
O	 1.6869063716	 0.3396445654	-1.2934567711	-0.330947
H	-0.3630047039	 1.7866151559	 1.0081011473	 0.132649
H	-0.4025617653	 1.885491914	-0.8258152211	 0.122196
H	 3.1304461302	 0.0462174856	 0.8765310272	 0.137347
H	 2.6370917025	 1.6115723718	 1.5688348374	 0.12681
H	 0.399517572	-1.3512071439	 3.0919070254	 0.131224
H	 0.9566135845	-1.6466896042	-1.3048964405	 0.119453
H	-0.087138214	-0.4678810894	-2.1700213403	 0.110875
84.6449	214.7634	297.5699	349.2453	396.753	515.903	521.8708	575.1873	582.1096	753.0101	787.284	841.6654	872.2859	897.494	925.6911	959.4464	964.3386	965.9652	1031.9364	1037.6335	1070.9057	1126.6753	1140.7571	1160.5193	1219.191	1269.2973	1290.3626	1349.6172	1386.413	1398.9546	1422.717	1478.4662	1506.2896	1514.7559	1670.0414	3033.9471	3047.8476	3091.0229	3094.752	3122.4972	3167.9127	3220.3166
C1C23COC=NC12CO3	C1[C@@]23COC=N[C@@]12CO3	
InChI=1S/C6H7NO2/c1-5-2-9-6(1,5)3-8-4-7-5/h4H,1-3H2	InChI=1S/C6H7NO2/c1-5-2-9-6(1,5)3-8-4-7-5/h4H,1-3H2/t5-,6-/m1/s1
