16
gdb 16646	2.80775	2.35805	1.69067	2.9368	63.81	-0.2401	-0.0311	0.209	814.8815	0.13078	-383.752158	-383.745045	-383.744101	-383.783517	26.834	
C	 0.638041429	 1.4715610298	-0.0336083354	-0.403097
C	-0.0136529875	 0.0791076779	-0.0026634023	-0.095757
C	 0.3375907956	-0.8238971627	-1.2156201098	-0.267614
C	 1.3617856163	-1.8170726077	-0.691712287	 0.054489
O	 2.4579481195	-1.1850399941	-0.0364173989	-0.243209
C	 1.421787185	-1.7710303537	 0.7808679275	-0.084783
C	 0.4453311728	-0.7157553967	 1.2363081376	 0.41525
O	 0.058377513	-0.5524608677	 2.365067783	-0.325123
H	 1.723026395	 1.3866303466	-0.1328018546	 0.141642
H	 0.2570300368	 2.0533846313	-0.8788126946	 0.11636
H	 0.4136157263	 2.0179662114	 0.886833146	 0.134498
H	-1.0968787564	 0.2034927863	 0.0879097358	 0.105467
H	-0.543943702	-1.3674825773	-1.5722579791	 0.112392
H	 0.7363793298	-0.2545938966	-2.0611826965	 0.117763
H	 1.6044775991	-2.7226044415	-1.242022313	 0.106906
H	 1.7153096877	-2.5922594153	 1.4265010713	 0.114815
84.1796	197.1033	229.0911	249.5768	361.3834	391.9569	458.732	585.2643	666.4353	727.7086	796.4865	820.2665	859.2791	887.1192	914.6057	967.652	1009.1783	1037.5806	1090.5607	1102.2289	1133.668	1181.5775	1222.7767	1247.3903	1253.9422	1312.2099	1324.5078	1338.8568	1396.1481	1416.6762	1482.0458	1495.4544	1507.0014	1842.415	3040.7676	3045.7076	3065.5899	3089.8404	3111.7563	3130.2908	3150.3983	3180.2627
CC1CC2OC2C1=O	C[C@H]1C[C@H]2O[C@H]2C1=O	
InChI=1S/C6H8O2/c1-3-2-4-6(8-4)5(3)7/h3-4,6H,2H2,1H3	InChI=1S/C6H8O2/c1-3-2-4-6(8-4)5(3)7/h3-4,6H,2H2,1H3/t3-,4+,6+/m0/s1
