23
gdb 62107	3.69485	0.65757	0.58709	2.8688	87.61	-0.247	-0.0185	0.2285	1908.3625	0.203437	-388.293814	-388.283275	-388.282331	-388.330675	37.763	
C	-0.3183194248	 1.3694426414	 0.0939162968	-0.394679
C	 0.0119315888	-0.1268349879	-0.0110613404	 0.009687
C	 0.7412473625	-0.4800655602	-1.3221217889	-0.189512
C	-0.0746129977	-0.2144084292	-2.6006927001	-0.284523
C	 0.6172492504	-0.773279949	-3.8223865375	 0.16062
O	 0.9301402608	-0.1372207385	-4.7954384314	-0.237943
C	 0.832661176	-0.5794737713	 1.1847600869	 0.041927
C	 0.1635055165	-0.9291249269	 2.4888062459	-0.277579
C	 0.7975840851	-2.0129038016	 1.6495315653	-0.276313
H	 0.5960142638	 1.9731929115	 0.0498984413	 0.114267
H	-0.9765833838	 1.7032977564	-0.7133859943	 0.115169
H	-0.8156551675	 1.5887406845	 1.0433989292	 0.118378
H	-0.934249554	-0.6889422183	 0.0049477333	 0.065113
H	 1.6837796221	 0.0813921042	-1.373808476	 0.106792
H	 1.0181412417	-1.5416291675	-1.2894179616	 0.102223
H	-1.0485991408	-0.7197464942	-2.5147449675	 0.114119
H	-0.2560584398	 0.8503178244	-2.7659428765	 0.12418
H	 0.8390652189	-1.8658897455	-3.7592389325	 0.067705
H	 1.7957843507	-0.07924824	 1.2695048176	 0.079411
H	 0.6476551299	-0.6431696096	 3.4159619867	 0.111717
H	-0.9207179035	-0.8918294676	 2.5260927959	 0.109709
H	 0.1347664475	-2.6983134784	 1.1302067769	 0.107704
H	 1.7157976272	-2.4696249267	 2.0019103107	 0.111829
53.1367	57.2274	84.2919	106.8232	145.7754	206.4109	238.2398	288.903	299.1861	361.8034	451.8927	483.0901	529.8424	763.535	767.1903	812.3909	828.2742	852.2523	885.898	936.1641	963.3488	973.2583	1008.096	1021.2278	1055.42	1064.8764	1079.0584	1132.5917	1140.6327	1161.5156	1192.922	1198.517	1226.5837	1227.6638	1265.1479	1301.7701	1316.2769	1357.2065	1377.7954	1408.9995	1419.9577	1430.0742	1463.8234	1469.2853	1489.7383	1498.4835	1502.2373	1507.1866	1836.5104	2843.7016	2988.9032	3003.5665	3016.3145	3030.8103	3053.0516	3096.8515	3106.7145	3113.4292	3121.4783	3125.8619	3131.8872	3204.0813	3219.4182
CC(CCC=O)C1CC1	C[C@@H](CCC=O)C1CC1	
InChI=1S/C8H14O/c1-7(3-2-6-9)8-4-5-8/h6-8H,2-5H2,1H3	InChI=1S/C8H14O/c1-7(3-2-6-9)8-4-5-8/h6-8H,2-5H2,1H3/t7-/m0/s1
