16
gdb 126136	4.51899	1.09493	0.89095	2.9675	73.6	-0.281	-0.058	0.2231	1269.3991	0.124813	-434.098632	-434.090395	-434.089451	-434.132434	29.079	
C	 0.0687817807	 1.480821113	 0.0089644268	-0.384449
C	-0.0555119586	-0.0412445195	 0.0037577287	-0.297464
C	-1.5017008976	-0.485638975	 0.0132696952	 0.465443
O	-2.4572760649	 0.2357580481	 0.0243043055	-0.276523
N	-1.6848076063	-1.9138728618	 0.0082696032	 0.025198
N	-0.651048438	-2.7725880388	-0.0039246054	-0.210077
C	-1.2323721438	-3.95997449	-0.0046268414	-0.055464
C	-2.6343711434	-3.7772272383	 0.0075816832	-0.044048
N	-2.8987440594	-2.4819299711	 0.0155523739	-0.184186
H	 1.1225369315	 1.7712828262	 0.0021029851	 0.116294
H	-0.4172380122	 1.9185534578	-0.8663884938	 0.135972
H	-0.4038301704	 1.911426695	 0.8951213923	 0.135998
H	 0.4338605937	-0.4871471135	-0.869178531	 0.147097
H	 0.4472621753	-0.4940952653	 0.8654538462	 0.14709
H	-0.6488287873	-4.8672834082	-0.0134543479	 0.139294
H	-3.4288071892	-4.5070962785	 0.0107250294	 0.139823
60.2004	76.2841	158.7498	173.7613	201.2062	297.1861	383.9644	517.5899	553.7089	675.1609	685.7657	723.3104	806.3724	869.0875	913.3721	942.2507	974.3549	987.9151	1034.7923	1077.7776	1102.1957	1114.3438	1196.1086	1276.2955	1286.035	1289.7803	1350.737	1388.7987	1416.9565	1433.6438	1446.2597	1491.9807	1498.9348	1538.1904	1854.5814	3054.5306	3055.8858	3083.3944	3127.5756	3131.3498	3260.0055	3276.0593
CCC(=O)N1N=CC=N1	CCC(=O)n1nccn1	
InChI=1S/C5H7N3O/c1-2-5(9)8-6-3-4-7-8/h3-4H,2H2,1H3	InChI=1S/C5H7N3O/c1-2-5(9)8-6-3-4-7-8/h3-4H,2H2,1H3
