16
gdb 18489	5.65901	1.24709	1.15438	5.2852	68.66	-0.2448	0.0415	0.2863	1024.7384	0.132	-342.753744	-342.746589	-342.745645	-342.785583	26.738	
N	-0.0986788374	-1.0801143614	-0.2997852656	-0.313158
C	-0.0661875837	 0.0531229169	-0.0741573317	 0.255893
C	 0.0061530462	 1.4847281395	 0.206877705	-0.350523
C	 1.4287399575	 2.0404325282	 0.0580633222	 0.01665
C	 2.0687767554	 2.0745462203	-1.3800209464	-0.236456
C	 2.1757800888	 3.596221981	-1.2481312905	-0.0358
N	 0.7911370826	 4.0890276554	-1.0494091334	-0.332314
C	 1.5615153359	 3.5705865092	 0.1070004706	-0.079644
H	-0.6563726467	 2.0220412014	-0.4792859549	 0.171312
H	-0.3657938973	 1.6595967611	 1.223591551	 0.143796
H	 2.1020903109	 1.5563766838	 0.7688417859	 0.096106
H	 3.0340782793	 1.5668453094	-1.4121261524	 0.114935
H	 1.4411556601	 1.7202295559	-2.2012774917	 0.119213
H	 2.941486371	 4.2481325139	-1.64916601	 0.100154
H	 0.8325151864	 5.106535327	-1.0045572386	 0.233369
H	 1.743314371	 4.1902073384	 0.9767229007	 0.096467
69.657	122.3682	193.7202	303.4889	396.6663	404.3094	524.2292	544.5263	688.1218	800.4679	819.9379	844.3711	869.3335	931.5795	936.8375	969.1545	991.4935	1011.6664	1055.2093	1088.706	1111.832	1119.9455	1156.6229	1203.4327	1240.1599	1255.1159	1295.886	1306.1808	1329.4655	1372.8702	1385.3137	1467.8487	1480.1792	2358.8538	3041.8554	3072.3756	3082.0602	3097.8693	3133.0952	3184.4894	3200.0462	3479.9227
N#CCC1CC2NC12	N#CC[C@H]1C[C@H]2N[C@@H]12	
InChI=1S/C6H8N2/c7-2-1-4-3-5-6(4)8-5/h4-6,8H,1,3H2	InChI=1S/C6H8N2/c7-2-1-4-3-5-6(4)8-5/h4-6,8H,1,3H2/t4-,5+,6-/m0/s1
