21
gdb 120456	3.82443	0.81332	0.72139	2.1953	79.85	-0.2465	-0.0263	0.2202	1625.5278	0.180444	-424.237874	-424.227686	-424.226742	-424.273672	36.471	
C	 0.082533226	 1.5765986102	 0.0124547752	-0.382359
C	 0.1663757578	 0.0483315387	 0.0187062715	-0.169012
C	 0.6697160125	-0.5254129253	-1.3125793826	-0.191195
C	 0.7551357587	-2.0474032018	-1.3117973094	-0.097719
C	 1.3555258283	-2.8155590314	-2.5382190543	-0.308566
C	 2.0895455165	-3.8005297871	-1.5584653625	 0.077837
O	 3.3905950517	-4.2399507225	-1.7978583935	-0.435345
C	 1.8899592672	-2.7037145147	-0.5121339757	 0.331753
O	 2.6244640284	-2.3180789831	 0.3582271217	-0.319006
H	 1.0646475898	 2.025798357	-0.1720382125	 0.11707
H	-0.5967640079	 1.9348210924	-0.7694449347	 0.111483
H	-0.2819652906	 1.9586383666	 0.9709040659	 0.113934
H	 0.833687683	-0.2857969241	 0.8206689476	 0.125706
H	-0.8233170105	-0.3726625231	 0.241640558	 0.090932
H	 0.010955748	-0.203616981	-2.1300674459	 0.098492
H	 1.6627566759	-0.1131194053	-1.5347895322	 0.0998
H	-0.2084642249	-2.4898701942	-1.0302183715	 0.100371
H	 0.6520026473	-3.2639760824	-3.239790144	 0.113876
H	 2.0805947327	-2.2002653055	-3.0771509978	 0.119079
H	 1.4394020348	-4.6632670847	-1.3618323195	 0.107522
H	 3.9768064254	-3.6946090889	-1.2579224739	 0.295345
62.0331	83.2404	89.7441	158.7241	167.9095	204.0982	246.1773	268.0978	335.4453	350.1562	400.7106	566.7921	591.0881	707.5564	743.5832	788.3732	847.954	875.7836	898.167	958.2582	975.4221	1016.6485	1022.2246	1051.7539	1084.2871	1133.7828	1136.8903	1165.1891	1197.5577	1233.4208	1253.2445	1266.3171	1308.3003	1326.6363	1339.3004	1365.8215	1395.1565	1412.247	1413.3136	1481.4239	1484.9056	1494.8878	1500.0524	1510.48	1856.9325	3011.7585	3019.9617	3024.4159	3029.4943	3034.5486	3051.2046	3072.9079	3074.1727	3098.6515	3103.7246	3142.7735	3771.9613
CCCC1CC(O)C1=O	CCC[C@H]1C[C@@H](O)C1=O	
InChI=1S/C7H12O2/c1-2-3-5-4-6(8)7(5)9/h5-6,8H,2-4H2,1H3	InChI=1S/C7H12O2/c1-2-3-5-4-6(8)7(5)9/h5-6,8H,2-4H2,1H3/t5-,6+/m0/s1
