21
gdb 122153	3.51864	0.78361	0.77444	3.0858	76.04	-0.249	0.0748	0.3237	1578.8022	0.179494	-461.329125	-461.318685	-461.317741	-461.365163	38.146	
C	-0.1379661708	 1.6511739198	 0.2361227173	-0.455769
C	-0.0983319384	 0.1512407762	 0.0559522517	 0.417624
C	 1.197037046	-0.5376662581	-0.3433329032	-0.386516
C	 0.6207841193	-0.7042077235	 1.0502468001	 0.048165
O	 1.2204271998	-0.0670372504	 2.1385230526	-0.423623
O	-1.2831820662	-0.4414543441	-0.4088321327	-0.308848
C	-1.6108116829	-0.1822792139	-1.7685802871	-0.087553
C	-2.9109486168	-0.9239288463	-2.0370670021	-0.056632
O	-3.9466011731	-0.4765335755	-1.1854397652	-0.422111
H	 0.7367043693	 1.9827816582	 0.7979126767	 0.13733
H	-0.1548397772	 2.177352671	-0.7234194475	 0.116609
H	-1.0325694593	 1.9342421732	 0.8000604857	 0.126102
H	 1.1411662301	-1.385722969	-1.0167143042	 0.116006
H	 2.080670695	 0.0836462858	-0.4466860059	 0.115309
H	 0.1450789563	-1.6594139928	 1.2693119678	 0.09756
H	 2.0566676752	-0.5094640055	 2.3170939077	 0.290545
H	-1.7567523793	 0.8937371955	-1.9357991381	 0.10208
H	-0.8110550592	-0.5342097185	-2.4378057168	 0.08811
H	-3.2350741018	-0.7412553228	-3.0669999737	 0.106422
H	-2.7351155211	-2.0059907683	-1.9241127387	 0.089247
H	-3.5750059149	-0.4899648509	-0.2954113042	 0.289943
37.9806	75.1288	123.1423	167.5652	191.9068	253.2274	273.772	283.9983	310.2884	384.6312	401.0019	442.179	465.2307	503.6329	587.1958	713.8998	826.2396	858.105	901.1056	925.6129	935.3867	988.0997	1015.559	1028.9855	1077.2571	1098.8557	1110.1295	1126.6125	1138.963	1180.886	1237.9482	1253.3172	1261.7185	1295.4285	1326.1368	1384.4938	1402.2619	1414.1669	1417.4868	1440.9616	1479.9251	1490.3987	1498.9925	1504.1992	1512.1584	2976.4318	2988.4982	3036.1545	3044.4023	3077.7087	3104.0346	3112.3899	3131.5403	3142.52	3225.4764	3794.9954	3808.6252
CC1(CC1O)OCCO	C[C@]1(C[C@H]1O)OCCO	
InChI=1S/C6H12O3/c1-6(4-5(6)8)9-3-2-7/h5,7-8H,2-4H2,1H3	InChI=1S/C6H12O3/c1-6(4-5(6)8)9-3-2-7/h5,7-8H,2-4H2,1H3/t5-,6-/m1/s1
