14
gdb 49583	2.07657	1.7112	1.11746	5.3508	66.06	-0.2623	-0.0476	0.2147	1055.0292	0.099625	-436.65441	-436.646538	-436.645594	-436.687762	27.955	
O	 0.0179498807	-0.1073247145	 0.0145621933	-0.241732
C	 0.0042277458	 1.0882546951	-0.1263481687	 0.157185
C	 1.2448492851	 1.9472229301	-0.0048047714	-0.142767
C	 1.5059727554	 2.9188265514	-1.1777302584	 0.0097
O	 0.4031753978	 3.8281119823	-1.2293320664	-0.220816
C	 1.4505717027	 4.1012699597	-0.3078275819	 0.024851
C	 1.2054971263	 3.2271009914	 0.94324799	-0.216872
C	 0.0011445296	 3.5016996031	 1.712038112	 0.297307
N	-0.9553495172	 3.7208300966	 2.3225210308	-0.317366
H	-0.9232034997	 1.6400220181	-0.3773100608	 0.118764
H	 2.1003880648	 1.313394851	 0.2320076176	 0.116232
H	 2.0494190737	 2.7305976361	-2.0948027082	 0.135132
H	 1.9371947973	 5.0668531537	-0.3587989306	 0.135152
H	 2.0710117376	 3.2130092158	 1.6098699227	 0.14523
58.3034	104.8225	134.8057	188.8859	294.56	373.8598	432.3399	490.9055	539.1758	641.441	758.413	821.6235	846.3494	870.2559	902.3824	937.8139	1006.7442	1044.3538	1055.5008	1074.7766	1095.7464	1168.3	1225.8209	1232.5001	1247.0801	1285.4472	1325.0822	1389.9632	1424.9703	1825.2067	2359.6829	2945.7157	3092.1426	3117.3905	3201.7413	3216.2568
O=CC1C2OC2C1C#N	O=C[C@H]1[C@H]2O[C@H]2[C@H]1C#N	
InChI=1S/C6H5NO2/c7-1-3-4(2-8)6-5(3)9-6/h2-6H	InChI=1S/C6H5NO2/c7-1-3-4(2-8)6-5(3)9-6/h2-6H/t3-,4+,5-,6+/m0/s1
