19
gdb 5972	3.42532	1.21405	1.12916	3.7967	72.58	-0.2725	0.0361	0.3086	1156.9909	0.162965	-365.075458	-365.065639	-365.064695	-365.109884	34.467	
C	-0.0273150219	 1.4044786238	 0.009620135	-0.23252
O	 0.0007965568	-0.0052833228	 0.0020304785	-0.242544
C	-1.2827316633	-0.5806078269	 0.0112534385	-0.057203
C	-1.121992614	-2.1189132157	 0.0013398295	 0.05758
C	-0.3864258502	-2.5729219957	-1.2788749222	-0.40406
C	-0.3622435454	-2.5867585225	 1.2623320037	-0.40405
C	-2.4768181925	-2.6931951292	 0.0110067516	 0.257814
N	-3.5436891433	-3.1380845465	 0.019606629	-0.340359
H	 1.0088658794	 1.7497075539	 0.0015706247	 0.133149
H	-0.5450807169	 1.8048862712	-0.8753904043	 0.111892
H	-0.5281299347	 1.7956283648	 0.9084183432	 0.111892
H	-1.8449078013	-0.2711624275	 0.9072899433	 0.103271
H	-1.861999309	-0.2615150416	-0.8703942211	 0.103254
H	 0.5984187449	-2.1031332915	-1.3099072758	 0.141964
H	-0.2653156938	-3.6589222866	-1.2898991086	 0.129963
H	-0.941189897	-2.2805378045	-2.1746918284	 0.128999
H	-0.8998398721	-2.304197347	 2.1716676189	 0.129018
H	-0.2410861122	-3.6728053323	 1.2592297423	 0.129967
H	 0.6230806166	-2.1172726631	 1.279787382	 0.141972
78.6486	107.5449	126.5691	188.3572	212.2479	222.944	235.5497	260.2334	328.06	364.7524	380.1016	454.7391	581.445	581.6601	740.5593	891.0163	937.5967	973.1717	985.4755	1014.6552	1051.7397	1158.2282	1172.3313	1201.4028	1215.7942	1231.0327	1253.6703	1296.5108	1395.7008	1403.3482	1429.8777	1480.677	1482.2809	1485.6848	1487.0351	1495.4095	1503.4953	1510.7194	1527.6556	2353.4378	2963.9656	2980.4014	3000.1442	3026.3881	3050.3239	3053.5214	3121.64	3123.0127	3125.554	3141.9047	3145.1676
COCC(C)(C)C#N	COCC(C)(C)C#N	
InChI=1S/C6H11NO/c1-6(2,4-7)5-8-3/h5H2,1-3H3	InChI=1S/C6H11NO/c1-6(2,4-7)5-8-3/h5H2,1-3H3
