13
gdb 24737	3.58655	1.28781	0.94757	3.449	77.31	-0.2465	-0.0751	0.1714	1140.8508	0.088732	-419.432419	-419.424843	-419.423899	-419.465036	27.623	
O	 0.0404265017	-0.0541107576	 0.0043088127	-0.308076
C	-0.0392245782	 1.162717438	 0.0080807505	 0.132064
C	 1.1426960695	 2.0081919189	 0.001721944	 0.281868
C	 2.1431027514	 2.676439416	-0.0037322286	-0.424833
C	-1.3328284531	 1.8414719547	 0.0194064658	 0.289874
C	-2.6075471331	 1.3388984679	 0.0274456499	-0.24795
C	-3.4807216678	 2.4596677926	 0.036827977	-0.176353
C	-2.6741633838	 3.5621202054	 0.0338744018	-0.010409
O	-1.3739256572	 3.2082523186	 0.0233618425	-0.170842
H	 3.0298108469	 3.2624821655	-0.0081442178	 0.213218
H	-2.8629365273	 0.2916087529	 0.026528893	 0.145112
H	-4.5591144599	 2.4550911119	 0.0447264252	 0.126988
H	-2.8719872191	 4.6219621253	 0.038163454	 0.149338
74.7887	117.0504	178.3724	237.1538	274.323	445.9525	491.296	606.9366	632.8278	654.4643	674.0042	696.8761	779.1694	782.8642	847.003	899.7967	900.3216	918.741	1031.0109	1056.3921	1126.5947	1193.6024	1252.2056	1298.5073	1424.1086	1495.6878	1606.7901	1718.1427	2218.3973	3258.763	3275.9395	3284.9753	3495.6626
O=C(C#C)C1=CC=CO1	O=C(C#C)c1ccco1	
InChI=1S/C7H4O2/c1-2-6(8)7-4-3-5-9-7/h1,3-5H	InChI=1S/C7H4O2/c1-2-6(8)7-4-3-5-9-7/h1,3-5H
