17
gdb 114304	2.31852	1.49461	1.11385	5.3751	72.18	-0.2443	0.0275	0.2718	1111.127	0.137054	-417.960446	-417.952192	-417.951248	-417.993686	30.896	
O	-0.0787004207	 1.4734786963	-0.1858147664	-0.42157
C	 0.0338616414	 0.1339307084	 0.2657407063	-0.092339
C	-1.303157952	-0.5752922508	 0.0983413287	 0.019245
N	-1.8310422036	-0.5771431661	-1.3155971124	-0.345893
C	-2.1609507708	-2.0041255612	-1.1742214219	-0.018577
C	-0.8851535932	-2.8015619343	-1.0838001799	-0.176197
C	 0.3181981918	-2.4414733207	-1.7864661415	 0.312169
N	 1.28799467	-2.1933741304	-2.36611985	-0.349377
C	-1.4433958804	-2.103700442	 0.1572561948	-0.14881
H	-0.2130092934	 1.4198083836	-1.1395080967	 0.2929
H	 0.8300667426	-0.4019209606	-0.2632569175	 0.125468
H	 0.3005912683	 0.1771829962	 1.3275424713	 0.107446
H	-2.0373547908	-0.1247419472	 0.7755397197	 0.093469
H	-2.6653093198	-0.0075558181	-1.3968281975	 0.236226
H	-3.0871336436	-2.4347110869	-1.5350503475	 0.114597
H	-1.047202539	-3.8753219281	-1.0422274748	 0.138907
H	-1.6567541268	-2.6852544182	 1.0442204252	 0.112335
69.8025	128.7494	142.1665	192.2948	267.6136	378.8979	415.4603	456.8471	472.4367	586.8104	623.0322	738.6187	752.8756	803.3277	829.3813	880.2188	923.1109	967.198	1002.183	1029.6805	1038.1725	1048.888	1069.2166	1094.2652	1137.6682	1173.0701	1192.4608	1247.6303	1282.5347	1310.5773	1354.6808	1373.2734	1408.8419	1421.5966	1439.7384	1500.6459	2352.9326	3037.7883	3043.2776	3087.4757	3153.9986	3186.4366	3202.6785	3547.4277	3793.8959
OCC1NC2C(C#N)C12	OC[C@H]1N[C@H]2[C@@H](C#N)[C@@H]12	
InChI=1S/C6H8N2O/c7-1-3-5-4(2-9)8-6(3)5/h3-6,8-9H,2H2	InChI=1S/C6H8N2O/c7-1-3-5-4(2-9)8-6(3)5/h3-6,8-9H,2H2/t3-,4+,5-,6-/m0/s1
