19
gdb 28788	3.01721	1.62405	1.08573	2.7266	83.53	-0.1702	0.0563	0.2265	1114.9753	0.162499	-382.108321	-382.100346	-382.099402	-382.140784	30.594	
C	-0.0771632777	 1.4728811085	 0.130338479	-0.499745
C	-0.0369728048	-0.0130178391	 0.003910466	 0.253454
C	-0.0677379609	-0.8325028885	-1.1050432528	-0.214564
C	-0.04592241	-2.2016043193	-0.680830243	-0.302351
C	 0.0098222265	-2.1642242828	 0.6884091212	 0.342556
N	 0.0831185874	-3.0474603452	 1.7907649024	-0.409677
C	-0.1124958065	-2.1840874313	 2.9786237584	-0.172724
C	 0.2048783228	-0.7283771289	 2.5283727146	-0.198075
N	 0.0006721623	-0.8543254031	 1.0989457348	-0.046163
H	 0.8177124247	 1.8813392204	 0.6182626296	 0.119197
H	-0.142270477	 1.9240135565	-0.8627900464	 0.132943
H	-0.9444332908	 1.8193416035	 0.7080236311	 0.120579
H	-0.1326174975	-0.4850561402	-2.1260693563	 0.08415
H	-0.0765333156	-3.0797295189	-1.3054428822	 0.087986
H	 0.9749622777	-3.5304299935	 1.8258112435	 0.23503
H	-1.161119965	-2.2448811566	 3.2895867201	 0.124613
H	 0.5082675649	-2.5154139145	 3.8131628576	 0.112011
H	-0.4733463044	-0.002234444	 2.9850690514	 0.120908
H	 1.2366734339	-0.4277430829	 2.7595524711	 0.109873
119.2193	145.5288	156.4731	207.027	239.2513	303.2681	506.7082	600.3491	617.4611	620.265	634.7362	731.5807	742.3947	762.5872	786.6575	813.3945	919.7932	935.7773	987.6287	1008.7957	1034.5572	1056.899	1061.341	1130.568	1184.8329	1207.9641	1242.2668	1259.4815	1301.5803	1333.3369	1365.8334	1397.0078	1416.7135	1430.6202	1461.6971	1478.3275	1496.3939	1504.4872	1525.1573	1561.716	1626.422	2999.9561	3006.7011	3043.3589	3045.5947	3082.902	3116.0103	3117.2039	3233.6981	3261.7417	3505.562
CC1=CC=C2NCCN12	Cc1ccc2NCCn12	
InChI=1S/C7H10N2/c1-6-2-3-7-8-4-5-9(6)7/h2-3,8H,4-5H2,1H3	InChI=1S/C7H10N2/c1-6-2-3-7-8-4-5-9(6)7/h2-3,8H,4-5H2,1H3
