22
gdb 123069	2.30554	0.84333	0.67985	3.1612	83.72	-0.2369	0.039	0.2759	1759.8121	0.191417	-441.466888	-441.45587	-441.454926	-441.504644	37.923	
C	-1.2969374672	 1.3327902858	-0.4955803612	-0.397337
C	-0.801081115	 0.1296480217	 0.3147134261	-0.107444
N	-1.2342983354	-1.203575994	-0.0689435675	-0.234536
C	-1.9974403375	-1.3638922708	-1.0533428491	 0.1329
O	-2.3628371396	-2.6190145651	-1.4180137491	-0.208767
C	-3.3462514845	-2.725769571	-2.4379629087	-0.104248
C	-4.759015478	-2.6270912431	-1.8877378379	-0.053164
O	-4.9909153035	-1.2974451927	-1.4824534757	-0.231604
C	-6.2228885756	-1.1252375509	-0.8202370864	-0.22908
H	-0.8859713408	 2.2540728342	-0.0713738142	 0.111393
H	-0.9791689892	 1.279545963	-1.5425656287	 0.116641
H	-2.3889146245	 1.4148706752	-0.4763659972	 0.123357
H	 0.2974562598	 0.122929132	 0.3131743785	 0.108826
H	-1.0827822669	 0.266150945	 1.3676629691	 0.108563
H	-2.416072556	-0.5810562644	-1.6930093256	 0.088887
H	-3.1963537838	-1.9568915113	-3.2077067153	 0.113507
H	-3.200583432	-3.7073441899	-2.8974731395	 0.119356
H	-5.4777640107	-2.931962056	-2.6685459917	 0.088114
H	-4.8692061212	-3.321133091	-1.0391735645	 0.104974
H	-6.3008990083	-0.0710361137	-0.5447384042	 0.13064
H	-7.0733666691	-1.3874345202	-1.4689037129	 0.105951
H	-6.2828307908	-1.7382837528	 0.0918816256	 0.11307
38.3956	46.0943	97.802	102.2802	155.9563	183.9345	231.9473	240.3748	271.7579	324.4444	355.596	367.4231	478.8296	540.3325	578.7424	780.36	855.2936	877.307	934.7214	977.1168	1044.5422	1051.627	1081.6284	1100.0356	1131.2319	1148.0538	1164.5254	1186.5531	1212.6335	1240.8289	1268.9773	1313.941	1332.2714	1377.132	1394.6953	1401.5978	1419.5028	1428.5181	1478.2728	1483.3876	1486.871	1489.9906	1493.9133	1497.823	1508.1564	1520.1362	1777.716	2953.9806	2976.9802	2998.3833	3011.3174	3023.786	3025.616	3029.75	3031.1559	3074.3189	3099.6906	3099.8456	3105.5207	3118.8272
CCN=COCCOC	CCN=COCCOC	
InChI=1S/C6H13NO2/c1-3-7-6-9-5-4-8-2/h6H,3-5H2,1-2H3	InChI=1S/C6H13NO2/c1-3-7-6-9-5-4-8-2/h6H,3-5H2,1-2H3
