17
gdb 45735	2.88447	1.54175	1.18415	3.4125	73.72	-0.2475	-0.0311	0.2163	1050.2349	0.136185	-421.830251	-421.822471	-421.821527	-421.863351	28.934	
O	-0.0994902568	 0.0533856809	 0.0075727222	-0.310807
C	-0.0918233109	 1.2568938148	 0.0130515866	 0.328741
C	-1.3217824728	 2.1760652714	 0.0342181031	-0.383471
C	-0.7121146972	 3.5516262156	 0.0317941113	-0.091317
C	 0.6229040166	 3.5201140582	 0.0132614295	-0.149473
C	 1.1712127509	 2.1281641849	-0.0003334347	 0.142992
C	 2.2848594343	 1.731349441	 1.0133469322	-0.109225
O	 3.2399962851	 1.4881545265	-0.031215339	-0.267907
C	 2.2568583946	 1.7403450286	-1.0472862353	-0.109239
H	-1.9606281869	 1.9719759619	-0.8345911808	 0.141818
H	-1.936141629	 1.9642849778	 0.918713791	 0.14182
H	-1.3098274096	 4.4555870505	 0.0439618581	 0.108798
H	 1.2674011837	 4.3923603038	 0.0081731018	 0.110575
H	 2.6023181102	 2.5314044228	 1.6927591013	 0.104749
H	 2.0577809527	 0.8232083606	 1.5848048448	 0.118595
H	 2.0142143961	 0.8371890691	-1.6202422666	 0.118605
H	 2.5558565889	 2.5463170116	-1.7280787657	 0.104746
56.5654	76.9105	202.3357	227.3945	278.2218	411.2602	463.8976	544.9409	606.0192	649.419	738.9605	756.9601	833.0746	889.2998	907.4594	965.2797	972.1897	984.8478	992.606	1037.6804	1042.123	1056.6813	1135.6627	1155.5977	1162.3748	1168.6534	1210.7596	1269.2366	1288.3716	1308.7079	1365.8162	1390.5127	1442.8869	1496.4651	1523.7851	1672.5016	1846.2616	3009.3967	3020.1714	3029.7806	3057.4715	3066.5861	3067.4068	3185.7054	3210.0212
O=C1CC=CC11COC1	O=C1CC=CC21COC2	
InChI=1S/C7H8O2/c8-6-2-1-3-7(6)4-9-5-7/h1,3H,2,4-5H2	InChI=1S/C7H8O2/c8-6-2-1-3-7(6)4-9-5-7/h1,3H,2,4-5H2
