18
gdb 91309	2.14893	1.89941	1.25776	4.406	74.76	-0.2638	0.0171	0.2809	1027.3107	0.149143	-401.934021	-401.926176	-401.925232	-401.966406	30.587	
O	 0.4852126736	 0.6166961806	-1.108527338	-0.433859
C	 0.0544586935	-0.2641845862	-0.1169828393	 0.164942
C	 0.0934749351	 0.1123290789	 1.3960526571	-0.302367
C	-1.2586611999	-0.638087675	 1.5954922914	-0.009294
C	-2.4845048476	 0.2874885632	 1.7204787951	-0.242079
C	-2.5363920206	 0.4185291917	 0.1548219489	-0.178812
C	-2.2239534269	 1.7346186044	-0.3796655943	 0.287924
N	-1.9492006654	 2.787700604	-0.7749966793	-0.346911
C	-1.4304173542	-0.6950747623	 0.0325697265	-0.085684
H	 0.0287347987	 1.4607664353	-1.0097077976	 0.299868
H	 0.6347581103	-1.18081541	-0.2685653642	 0.097366
H	 0.9529001431	-0.260963736	 1.9561307318	 0.110823
H	 0.0099500659	 1.1891900881	 1.5755703618	 0.110641
H	-1.2272298146	-1.5341107483	 2.2136508958	 0.077474
H	-3.3763334993	-0.2204773838	 2.0938698908	 0.117154
H	-2.3466902963	 1.2163170964	 2.2785544882	 0.121858
H	-3.4917597327	 0.1006329509	-0.2682864875	 0.132157
H	-1.7623176227	-1.5733364321	-0.5214006173	 0.0788
79.7422	149.8	194.0739	252.7637	361.9698	371.8854	443.2928	472.4122	529.1279	583.9272	643.9728	726.9156	751.7221	795.8994	852.5005	882.1902	944.4341	948.7461	1001.4479	1019.4132	1057.3827	1068.9518	1096.0544	1130.915	1150.2621	1180.7591	1185.5164	1217.886	1248.072	1267.1116	1290.2586	1297.8135	1324.7381	1328.7678	1347.0194	1446.7503	1480.7953	1493.9987	2336.8055	3049.763	3056.5896	3065.9066	3084.4823	3105.9388	3111.8521	3120.1218	3128.7309	3786.9464
OC1CC2CC(C#N)C12	O[C@H]1C[C@H]2C[C@@H](C#N)[C@@H]12	
InChI=1S/C7H9NO/c8-3-5-1-4-2-6(9)7(4)5/h4-7,9H,1-2H2	InChI=1S/C7H9NO/c8-3-5-1-4-2-6(9)7(4)5/h4-7,9H,1-2H2/t4-,5+,6+,7+/m1/s1
