17
gdb 48957	3.20921	1.65809	1.40893	2.5055	72.31	-0.2497	-0.0359	0.2138	939.4892	0.136918	-421.789915	-421.783036	-421.782092	-421.821384	27.319	
O	-0.0776280493	 0.0198767419	-0.2721037289	-0.260376
C	 0.0241029229	 1.1369915694	 0.180590799	 0.037403
C	 1.2636364513	 1.9474810934	 0.1350861912	 0.226793
C	 1.5912885018	 3.1570720253	 1.0271682305	-0.309025
C	 2.639999602	 3.4348170737	-0.0694457675	 0.071914
O	 3.5533636405	 2.3390163669	 0.099083675	-0.270236
C	 2.6519107097	 1.2873836825	-0.2764032444	 0.050447
C	 2.3637030892	 1.6095419201	-1.7579402503	-0.248914
C	 1.6560068915	 2.8246206579	-1.150235254	-0.100304
H	-0.8515086663	 1.6447697719	 0.6462385436	 0.075554
H	 0.7699728082	 3.8795351198	 1.0218177096	 0.106304
H	 1.9663158775	 2.9949879981	 2.0403418225	 0.11153
H	 3.1701962539	 4.378055259	-0.1859400474	 0.087242
H	 2.9831471067	 0.3184142693	 0.0887063405	 0.096186
H	 3.230477165	 1.762078713	-2.4047805263	 0.105908
H	 1.6482104564	 0.9143992148	-2.2005959101	 0.130605
H	 0.9498064091	 3.4762771031	-1.660691813	 0.088969
81.8587	176.1277	222.5642	418.0621	433.1888	458.7433	528.3348	621.9937	693.0913	727.4907	811.0037	837.5595	854.0901	915.1481	926.0346	940.2929	969.9893	988.8119	993.6488	1038.7172	1050.4781	1057.7957	1133.5767	1147.5983	1155.0218	1181.0684	1213.0019	1220.9008	1243.0103	1253.4291	1278.7113	1302.3119	1339.2948	1425.97	1478.0816	1479.8142	1795.7031	2868.5945	3057.8405	3072.5086	3122.6273	3138.4181	3142.692	3146.6658	3158.1836
O=CC12CC3OC1CC23	O=C[C@@]12C[C@H]3O[C@@H]1C[C@@H]23	
InChI=1S/C7H8O2/c8-3-7-2-5-4(7)1-6(7)9-5/h3-6H,1-2H2	InChI=1S/C7H8O2/c8-3-7-2-5-4(7)1-6(7)9-5/h3-6H,1-2H2/t4-,5-,6-,7-/m1/s1
