16
gdb 44528	4.50185	1.29371	1.15357	2.8645	76.21	-0.2414	-0.0533	0.1881	1041.6123	0.125689	-400.702976	-400.696241	-400.695297	-400.734095	27.046	
O	 0.0505076989	 0.0659720004	 0.3093963932	-0.317873
C	-0.009766293	 1.2443250866	 0.0659073714	 0.390154
C	-1.3320671854	 2.0412127891	-0.220306286	-0.377687
C	-0.7812761355	 3.3203965417	-0.8427308141	 0.00958
N	-1.0154255719	 4.80434728	-0.5128186757	-0.166196
C	-0.5816480565	 5.0384026032	 0.8693062809	-0.224158
C	 0.4825894525	 4.8742712617	-0.1623402398	-0.148044
C	 0.6218608111	 3.3974439715	-0.3375971145	 0.296666
C	 1.1186126099	 2.237376212	 0.0966293153	-0.354483
H	-2.0210979476	 1.4625796677	-0.8374199983	 0.129064
H	-1.8138938388	 2.224775893	 0.7473763332	 0.138413
H	-0.8228724156	 3.2806343125	-1.9356121799	 0.118631
H	-0.7928942964	 6.0484347677	 1.2082311487	 0.134872
H	-0.7101561372	 4.2692206884	 1.6265997658	 0.127586
H	 1.1252852985	 5.6795567919	-0.4951344055	 0.121658
H	 2.0831177368	 2.0030112225	 0.5269929353	 0.121819
106.5296	209.8892	261.301	366.6588	478.5607	508.9806	557.0438	597.9698	668.7603	709.0383	723.3201	762.4343	820.055	874.4108	875.3691	919.0201	982.6073	1003.7374	1026.7948	1059.539	1084.3498	1116.2441	1125.5033	1130.3868	1163.9695	1205.4994	1208.8129	1228.2805	1280.6549	1308.0269	1349.0982	1458.6058	1496.5247	1701.2039	1824.2274	3053.4288	3060.8457	3112.3556	3127.2395	3193.805	3203.6484	3226.2383
O=C1CC2N3CC3C2=C1	O=C1C[C@H]2N3C[C@H]3[C]2[CH]1	
InChI=1S/C7H7NO/c9-4-1-5-6(2-4)8-3-7(5)8/h1,6-7H,2-3H2	InChI=1S/C7H7NO/c9-4-1-5-6(2-4)8-3-7(5)8/h1,6-7H,2-3H2/t6-,7+,8?/m1/s1
