16
gdb 45032	2.70878	1.62293	1.12907	3.1115	69.47	-0.2517	-0.0325	0.2192	1041.9819	0.124859	-437.915514	-437.908027	-437.907083	-437.947999	28.45	
O	-0.0769102072	-0.0170634162	 0.4947504836	-0.290358
C	-0.0183412923	 1.0930939082	 0.0367931614	 0.39029
C	-1.1739583755	 2.0983819083	 0.1268328148	-0.343249
C	-1.2338276249	 2.9850050178	-1.1039840939	-0.03408
C	-0.9104655866	 4.450509056	-1.0337582558	-0.248419
N	 0.0512374772	 3.5059310298	-1.5645095178	-0.075876
C	 1.2041515055	 3.1300950773	-0.8642415024	 0.334076
O	 2.0477481608	 3.9064828515	-0.486854284	-0.325963
C	 1.248607674	 1.6242743526	-0.6608189737	-0.398132
H	-2.105681293	 1.5590633508	 0.3045321546	 0.139272
H	-0.9706203005	 2.7074607582	 1.0190700577	 0.144641
H	-1.8909146534	 2.6429004675	-1.9007400191	 0.113985
H	-1.34953455	 5.1330321507	-1.7553297438	 0.135001
H	-0.6962109484	 4.8819595339	-0.0588437004	 0.139032
H	 2.1335155106	 1.335642081	-0.0923505773	 0.157807
H	 1.2964410538	 1.1286524226	-1.6388052438	 0.161974
57.4396	124.9871	216.2451	348.0437	387.8696	416.8014	439.5593	484.2285	553.924	603.7801	683.4012	722.8834	789.5134	855.7906	905.2309	920.6993	948.3901	1020.1065	1056.2879	1099.1204	1119.6038	1134.9445	1151.3299	1177.5254	1220.2262	1239.0806	1259.3687	1289.6154	1361.5597	1405.6195	1425.3134	1449.6795	1508.5316	1811.7603	1839.3394	3022.4502	3046.6108	3112.0137	3120.9794	3135.4343	3138.3695	3202.9648
O=C1CC2CN2C(=O)C1	O=C1C[C@H]2CN2C(=O)C1	
InChI=1S/C6H7NO2/c8-5-1-4-3-7(4)6(9)2-5/h4H,1-3H2	InChI=1S/C6H7NO2/c8-5-1-4-3-7(4)6(9)2-5/h4H,1-3H2/t4-,7?/m0/s1
