18
gdb 34488	2.82945	1.39585	0.99678	4.9325	87.02	-0.2447	-0.0374	0.2073	1180.2593	0.149834	-364.823711	-364.816025	-364.815081	-364.856078	29.632	
N	-0.0971843201	-1.0996398609	 0.2488095115	-0.347314
C	-0.0828552842	 0.0528498957	 0.1211348353	 0.192355
C	-0.0393692763	 1.4600711799	-0.0367981263	 0.0291
C	-1.0787236405	 2.296531459	-0.1422906468	 0.2355
C	-2.507781293	 2.5226376763	 0.2720483261	-0.323922
C	-1.9781724075	 3.884460754	 0.8671377977	-0.242506
C	-0.6938566066	 3.740607767	-0.0342189806	-0.035
C	 0.7694704399	 3.6939035719	 0.4507902639	-0.24647
C	 1.2599538515	 2.2801006883	-0.0004263429	-0.302887
H	-3.1797285858	 2.6962839184	-0.5742926356	 0.127347
H	-2.9616326257	 1.7913816807	 0.9434159468	 0.131025
H	-2.6029972919	 4.7647135238	 0.7045681736	 0.111343
H	-1.7402491906	 3.7911476981	 1.9291245627	 0.11819
H	-0.8177285712	 4.304873609	-0.9659972571	 0.089801
H	 1.3933525434	 4.498546278	 0.0534901916	 0.105865
H	 0.804943816	 3.7559459494	 1.5439310453	 0.111591
H	 1.9888375032	 1.8488830614	 0.6914249956	 0.1251
H	 1.7394171392	 2.31154809	-0.9869178308	 0.120882
105.5149	135.6552	157.3555	247.1527	338.5006	374.5732	501.8181	542.0303	588.2421	614.147	679.4462	708.9193	794.3559	817.5843	881.9247	909.2878	931.1965	959.9342	992.574	1053.6544	1067.8771	1079.8367	1125.6932	1172.9726	1181.7189	1199.6749	1220.9271	1233.5239	1257.6649	1261.7451	1304.6136	1325.7073	1331.9736	1469.4799	1480.2579	1485.558	1498.47	1718.8837	2328.7543	3030.2131	3035.4701	3047.8667	3058.403	3069.7935	3089.3672	3105.139	3118.3073	3135.6933
N#CC1=C2CCC2CC1	N#C[C]1[C]2CC[C@H]2CC1	
InChI=1S/C8H9N/c9-5-7-2-1-6-3-4-8(6)7/h6H,1-4H2	InChI=1S/C8H9N/c9-5-7-2-1-6-3-4-8(6)7/h6H,1-4H2/t6-/m1/s1
