21
gdb 65256	2.9199	1.32513	1.13085	1.1628	82.79	-0.235	0.024	0.259	1170.1089	0.182544	-387.082285	-387.073385	-387.07244	-387.116103	34.223	
O	-0.0080987227	 1.3396278584	 0.326427601	-0.476343
C	 0.0121860837	-0.0360751705	 0.0201537692	 0.432791
C	 0.9341474447	-0.5342868426	-1.0576036494	-0.332707
C	 1.2219474216	-0.8426089738	 0.4066422215	-0.336193
C	-1.4071846287	-0.5728075375	 0.1744097272	-0.05964
C	-2.3871704611	 0.0159545989	-0.885402396	-0.216022
C	-2.6829234447	-1.1317879405	-1.8868364298	-0.250773
C	-2.2191550864	-2.3627407235	-1.146408383	-0.06158
C	-1.5425081938	-2.0640455183	-0.0384263034	-0.097606
H	 0.8177884989	 1.735071517	 0.0323736974	 0.279112
H	 0.6005518487	-1.3495061936	-1.6901913184	 0.122555
H	 1.5717320935	 0.1883329633	-1.5593564992	 0.099647
H	 2.0375103098	-0.3078584559	 0.8833507788	 0.104754
H	 1.1026263096	-1.8648198758	 0.7477763326	 0.113342
H	-1.7198571088	-0.2867843514	 1.1870920509	 0.082606
H	-3.315016738	 0.3182662401	-0.3918430306	 0.099142
H	-1.9725249417	 0.906468051	-1.3607920922	 0.108364
H	-3.7436987211	-1.1828171459	-2.1586004484	 0.101394
H	-2.1346874202	-1.0154993477	-2.8320429951	 0.104387
H	-2.4163073253	-3.3688957108	-1.5017930651	 0.091072
H	-1.115726358	-2.7909622312	 0.6439657619	 0.091698
74.6612	88.5426	115.1862	201.5649	229.9429	328.6989	349.1158	396.3647	486.6771	508.1552	649.9243	721.1719	756.8982	771.6621	800.1162	826.0302	872.3017	904.9441	922.6446	945.8527	955.764	980.0062	991.176	1004.2957	1049.7377	1059.0232	1068.3986	1076.5155	1132.7675	1160.1933	1177.4098	1188.003	1215.8786	1268.2443	1279.5086	1311.394	1326.4003	1357.5058	1383.6871	1415.9394	1456.3805	1485.5713	1498.6656	1506.3903	1685.8177	3012.4437	3016.7993	3046.7019	3068.7516	3119.187	3119.7928	3128.6257	3176.0044	3201.5758	3205.3181	3218.5629	3828.6186
OC1(CC1)C1CCC=C1	OC1(CC1)[C@H]1CCC=C1	
InChI=1S/C8H12O/c9-8(5-6-8)7-3-1-2-4-7/h1,3,7,9H,2,4-6H2	InChI=1S/C8H12O/c9-8(5-6-8)7-3-1-2-4-7/h1,3,7,9H,2,4-6H2/t7-/m1/s1
