18
gdb 7479	4.05739	1.24996	1.15743	1.3896	67.93	-0.2493	-0.0283	0.221	1074.245	0.151641	-384.926845	-384.918197	-384.917253	-384.960886	30.418	
C	-0.2186621588	 1.5772486024	 0.0964589586	-0.467105
C	 0.0371425445	 0.0769034325	-0.0023523498	 0.269519
C	-1.2336642759	-0.701478636	-0.3885375519	-0.330858
C	-1.7987814727	-0.2969361711	-1.7321678408	 0.157883
O	-2.9442516741	 0.0155832413	-1.9321956051	-0.239387
C	 1.3009955995	-0.3686546026	-0.790802832	-0.112506
O	 1.7872997501	-1.1292876149	 0.3302008798	-0.271147
C	 0.7761002392	-0.5763201754	 1.1948847607	-0.112926
H	 0.6867859279	 2.1116811476	 0.3996146127	 0.122224
H	-0.548422592	 1.9939387622	-0.8618098565	 0.129336
H	-1.0014543719	 1.7930327236	 0.832109416	 0.127779
H	-0.9867389015	-1.7716272923	-0.4445868066	 0.129337
H	-2.0171778776	-0.5747014922	 0.365535257	 0.120809
H	-1.0608742178	-0.3108510864	-2.5688146539	 0.074751
H	 1.1483653476	-0.9972258459	-1.6763242362	 0.101985
H	 1.977760865	 0.4559989725	-1.0539192487	 0.099254
H	 1.1960351427	 0.1448888222	 1.9099395396	 0.097007
H	 0.2339486358	-1.3531943077	 1.7469524772	 0.104044
52.7809	78.0697	100.3805	198.7555	221.23	311.9986	323.2664	375.3477	441.3172	495.9491	666.0162	788.4662	858.3491	892.6003	932.5289	969.9536	982.1102	986.5488	1032.6928	1039.7083	1071.5045	1161.6843	1164.8374	1170.0574	1189.4511	1265.4066	1299.8608	1310.5696	1316.0087	1386.0533	1420.6579	1434.5502	1459.1676	1492.7386	1495.819	1513.6426	1537.9339	1833.445	2852.2394	2996.3214	3006.562	3012.8581	3029.7684	3051.7434	3054.7464	3086.9618	3094.6979	3105.3234
CC1(CC=O)COC1	CC1(CC=O)COC1	
InChI=1S/C6H10O2/c1-6(2-3-7)4-8-5-6/h3H,2,4-5H2,1H3	InChI=1S/C6H10O2/c1-6(2-3-7)4-8-5-6/h3H,2,4-5H2,1H3
