18
gdb 14732	8.13556	0.53612	0.52474	1.3163	74.41	-0.2421	0.0368	0.2789	2058.7621	0.151172	-384.895968	-384.885682	-384.884737	-384.933565	34.074	
O	-0.0812590245	 1.3956078136	-0.428848028	-0.421589
C	 0.003559423	 0.02873918	-0.0596622361	-0.074206
C	-1.404852379	-0.5498122404	-0.088348329	-0.156242
C	-1.4304767373	-2.0377531182	 0.3092109122	-0.357993
C	-2.768093757	-2.6170403317	 0.2822708223	 0.017886
C	-3.8792745765	-3.0782602262	 0.2455087668	 0.15269
C	-5.2265546506	-3.6320419719	 0.2258058138	-0.216184
O	-5.3880912264	-4.465022223	-0.9175996078	-0.409825
H	 0.806050639	 1.765860419	-0.4204664304	 0.285916
H	 0.6510450266	-0.5337249056	-0.7531074912	 0.085146
H	 0.4333225797	-0.0869234859	 0.9496781071	 0.083695
H	-2.0409332196	 0.0267080626	 0.591189875	 0.116845
H	-1.8217003472	-0.4280000471	-1.0931710483	 0.120517
H	-0.7794456113	-2.6100874163	-0.365706625	 0.131547
H	-1.0004331165	-2.1582604659	 1.3130376732	 0.126322
H	-5.3980795468	-4.1985713311	 1.1560505294	 0.113194
H	-5.9558230595	-2.8051932413	 0.2199774966	 0.114273
H	-6.288722356	-4.8044949406	-0.8980570107	 0.288008
13.4653	67.9964	75.4835	113.6912	145.0109	212.6878	239.1287	258.6226	284.8771	351.8287	397.4715	517.2001	552.891	754.5971	777.2618	864.2783	1018.4261	1024.5039	1029.3648	1047.6399	1084.9036	1115.9116	1155.624	1212.4681	1230.8993	1247.1432	1257.5011	1299.4096	1305.0289	1311.634	1375.9263	1460.0436	1464.8739	1472.7942	1499.0754	1504.1683	1528.2531	2374.2777	2952.8408	2959.1327	2976.1599	2977.7218	3008.1922	3035.5241	3053.9103	3099.9264	3816.4004	3830.6532
OCCCC#CCO	OCCCC#CCO	
InChI=1S/C6H10O2/c7-5-3-1-2-4-6-8/h7-8H,1,3,5-6H2	InChI=1S/C6H10O2/c7-5-3-1-2-4-6-8/h7-8H,1,3,5-6H2
