15
gdb 67187	3.01794	1.5708	1.50968	3.107	66.5	-0.2166	0.0107	0.2273	922.4347	0.113941	-453.889132	-453.882249	-453.881305	-453.92009	27.938	
O	-0.133381607	 1.4268182828	 0.0482167187	-0.445928
C	-0.0033262669	 0.0643148381	 0.0022583504	 0.300379
C	-1.1347154922	-0.8866812826	-0.1834071105	-0.094094
N	-0.9484743171	-1.6108527386	-1.4130162364	-0.335623
C	 0.3999033765	-1.5519456364	-1.8002764477	 0.424604
N	 0.9878077531	-2.0355073656	-2.8175079566	-0.557976
C	 1.0932366198	-0.8165645646	-0.6754164408	-0.071684
O	 1.0352210243	-1.7548208051	 0.4595390096	-0.29077
C	-0.1096262437	-1.091179405	 0.9690711921	-0.017569
H	 0.6001923329	 1.7896143934	 0.5586359058	 0.295777
H	-2.1376433344	-0.5708992675	 0.0771761334	 0.116811
H	-1.4427401835	-2.4790750048	-1.5591654218	 0.245955
H	 0.3344518909	-2.5404029857	-3.4205032754	 0.206737
H	 2.0999106321	-0.4533216366	-0.8696257824	 0.104827
H	-0.3594700648	-1.2075163217	 2.0171469715	 0.118554
146.16	260.798	312.7699	353.3463	380.1795	430.8354	449.6121	559.5634	595.0597	650.0536	716.9448	759.4421	796.7726	840.2891	886.2529	896.0919	919.5737	948.6567	981.1474	1034.4216	1055.1685	1085.6972	1114.1815	1147.0022	1195.7865	1229.2579	1261.484	1294.3065	1316.865	1375.3563	1385.3624	1505.0169	1753.4144	3154.5035	3187.4251	3199.0573	3445.9522	3604.3663	3786.2507
OC12C3NC(=N)C1OC23	O[C@@]12[C@H]3N[C]([NH])[C@@H]1O[C@@H]23	
InChI=1S/C5H6N2O2/c6-4-3-5(8)1(7-4)2(5)9-3/h1-3,8H,(H2,6,7)	InChI=1S/C5H6N2O2/c6-4-3-5(8)1(7-4)2(5)9-3/h1-3,8H,(H2,6,7)/t1-,2+,3-,5+/m0/s1
