19
gdb 90918	3.52138	1.4445	1.37547	2.5353	75.34	-0.2334	0.0467	0.2801	1015.7607	0.159954	-422.907911	-422.900663	-422.899719	-422.939133	29.853	
C	-0.3765715844	 1.4809755575	-0.1522864272	-0.40174
C	 0.0377904087	 0.0284175935	-0.044083796	 0.020863
O	 1.1649013306	-0.3079871527	-0.9651874454	-0.335412
C	 2.0581458836	-0.1356149895	 0.1882723404	 0.134078
C	 2.9232855081	-0.9446830401	 1.2322301692	 0.02862
C	 1.9947888275	-0.1276225393	 2.2777970198	-0.348391
C	 0.9501023325	-0.440488602	 1.1387385672	 0.162274
C	 0.9903156046	-1.9876049691	 1.1860208323	-0.093544
O	 2.4072233935	-2.2494827028	 1.2907205351	-0.255521
H	 0.4478010219	 2.1601383945	 0.0806034187	 0.121488
H	-0.7184326056	 1.69540702	-1.1689056653	 0.13396
H	-1.20036357	 1.6879256602	 0.5388491221	 0.122078
H	-0.8107472474	-0.6334988645	-0.2450990525	 0.088762
H	 2.3976952182	 0.9049908493	 0.2023032632	 0.084128
H	 4.0126542839	-0.9530913864	 1.2739080884	 0.090086
H	 1.8737125595	-0.6197385784	 3.2457600906	 0.114089
H	 2.2511476103	 0.9241191012	 2.3943558957	 0.116206
H	 0.4730092142	-2.3863843638	 2.0663968395	 0.098914
H	 0.5988595704	-2.4596032377	 0.2813014542	 0.119061
177.1446	210.8543	226.2831	306.1601	349.1878	434.9491	472.0969	487.5108	594.5401	656.2188	734.427	786.9949	796.69	819.9923	871.5842	935.8429	953.5391	960.0903	982.3605	1012.9576	1022.025	1029.0135	1064.1824	1092.841	1123.0796	1132.195	1170.7348	1178.0861	1190.9651	1218.9297	1245.9123	1269.8456	1299.8286	1365.7902	1380.4526	1404.7527	1411.94	1481.2612	1485.7037	1493.0949	1512.2477	3033.2736	3040.5036	3046.5363	3054.1127	3075.9341	3097.6476	3112.0105	3122.2925	3126.6857	3160.5966
CC1OC2C3CC12CO3	C[C@H]1O[C@@H]2[C@H]3C[C@@]12CO3	
InChI=1S/C7H10O2/c1-4-7-2-5(8-3-7)6(7)9-4/h4-6H,2-3H2,1H3	InChI=1S/C7H10O2/c1-4-7-2-5(8-3-7)6(7)9-4/h4-6H,2-3H2,1H3/t4-,5-,6-,7-/m1/s1
