18
gdb 73338	2.41896	1.92142	1.53791	2.5511	74.93	-0.2272	-0.0087	0.2185	946.4062	0.148594	-401.938426	-401.930889	-401.929945	-401.97016	29.631	
C	-0.0418830198	 1.5161066763	-0.0150759951	-0.483975
C	-0.043023898	 0.0024418133	 0.0422538371	 0.161057
C	-1.407991201	-0.703631311	-0.0072648559	-0.263673
C	-1.0467543899	-2.1626049272	 0.3513397803	-0.170821
N	 0.2994923267	-2.1307644125	 0.9813719561	-0.093886
C	 1.4179432273	-1.6660958413	 0.1299244336	-0.184374
C	 0.7297430675	-0.7735739786	 1.159506314	-0.096448
C	 0.9462161781	-0.7087575549	-0.926244651	 0.401972
O	 1.3485555347	-0.4231635685	-2.0209278791	-0.339843
H	 0.967887048	 1.9204668999	 0.1042140319	 0.127064
H	-0.4197425007	 1.8602133529	-0.9823863743	 0.139351
H	-0.6772101996	 1.9402792766	 0.7699467038	 0.117699
H	-2.0910988973	-0.2606558	 0.7270653445	 0.104191
H	-1.8760809969	-0.618285513	-0.9921313757	 0.118758
H	-1.7417076699	-2.5965175911	 1.0751939742	 0.116801
H	-1.0187011843	-2.8196403313	-0.5221182715	 0.122233
H	 2.3515222155	-2.2162395773	 0.1680635528	 0.112625
H	 1.1285424095	-0.4003121122	 2.0948662244	 0.111268
131.906	177.4477	189.4879	245.766	289.8181	387.4636	466.9979	547.8227	645.2758	684.2019	695.0307	764.1381	787.0866	852.9898	860.4205	885.443	927.6091	931.2342	954.5656	989.3307	1024.5986	1042.7038	1106.4169	1146.1872	1170.293	1189.678	1213.5478	1228.3562	1239.4556	1274.2393	1292.8592	1342.0754	1357.6543	1413.1869	1487.4879	1490.7264	1494.8429	1509.8761	1864.8219	3033.59	3036.3314	3062.4602	3090.0217	3102.6611	3110.4606	3112.1058	3179.3053	3195.0848
CC12CCN3C(C13)C2=O	C[C@]12CCN3[C@H]([C@@H]13)C2=O	
InChI=1S/C7H9NO/c1-7-2-3-8-4(5(7)8)6(7)9/h4-5H,2-3H2,1H3	InChI=1S/C7H9NO/c1-7-2-3-8-4(5(7)8)6(7)9/h4-5H,2-3H2,1H3/t4-,5+,7+,8?/m1/s1
