16
gdb 12842	2.96148	2.48831	1.79285	2.6444	64.49	-0.2425	0.0083	0.2508	776.3086	0.131075	-383.724086	-383.717228	-383.716284	-383.755018	26.6	
O	 0.0174667881	 1.3918152744	-0.1731319494	-0.478856
C	 0.0303487895	 0.0015625943	 0.0432495319	 0.334862
C	 0.2303747023	-0.8772351741	-1.2199747058	-0.120539
O	-1.1205731801	-1.3774864094	-1.1532307011	-0.294644
C	-1.3807724098	-0.6336449944	 0.0710562506	 0.06294
C	-1.3904970534	-1.4851271523	 1.3070214775	-0.082038
C	-0.2407710585	-1.39010388	 1.9774831123	-0.059337
C	 0.748295244	-0.4425388294	 1.3373524922	-0.344795
H	 0.9287892308	 1.6985055301	-0.231673286	 0.28081
H	 0.4074215379	-0.2973449978	-2.1336307926	 0.099139
H	 0.9736205091	-1.6809644215	-1.1385035864	 0.092749
H	-2.2397406904	 0.034554972	-0.0477484308	 0.08904
H	-2.2339312262	-2.1049156734	 1.5882663289	 0.10205
H	-0.0121288097	-1.9206327192	 2.8962601909	 0.101154
H	 1.7171209388	-0.9218721052	 1.1454543204	 0.105267
H	 0.9427605375	 0.4295035659	 1.9755207474	 0.112197
89.7377	238.8005	254.0836	297.1894	388.1035	416.8214	489.2096	603.7381	669.8206	741.9402	790.0651	860.0315	906.2781	943.9996	962.2126	969.2556	980.632	1011.1356	1022.3193	1042.5884	1111.0316	1134.1802	1152.3995	1197.8459	1233.0806	1267.4278	1295.663	1311.389	1334.5207	1370.6495	1404.2845	1475.8069	1505.9881	1675.9749	3007.2205	3014.9111	3046.4747	3061.3615	3062.8927	3180.0621	3210.0208	3803.9306
OC12COC1C=CC2	O[C@]12CO[C@H]1C=CC2	
InChI=1S/C6H8O2/c7-6-3-1-2-5(6)8-4-6/h1-2,5,7H,3-4H2	InChI=1S/C6H8O2/c7-6-3-1-2-5(6)8-4-6/h1-2,5,7H,3-4H2/t5-,6+/m0/s1
