17
gdb 92401	2.24788	1.6412	1.29556	3.6309	73.38	-0.2462	-0.0047	0.2416	1040.4222	0.137303	-417.978318	-417.970304	-417.96936	-418.010915	30.476	
N	-0.0028356887	 1.4692240758	 0.2631077162	-0.503831
C	-0.0138296476	 0.0505124974	 0.0357342712	-0.023153
C	 0.3753446924	-0.8632073041	 1.2400809748	-0.244242
C	-0.9163998961	-1.707032262	 1.0590579171	-0.141924
C	-2.113864995	-1.1763472946	 1.8555537909	-0.088793
O	-2.3595459983	-0.1328181658	 0.8695995147	-0.326855
C	-1.3948685774	-0.7026560035	-0.0401220566	 0.302879
C	-1.94928437	-1.0493345349	-1.3333215118	 0.217121
N	-2.3405408654	-1.3256041919	-2.386399684	-0.338647
H	-0.1849598765	 1.9759053139	-0.5978978925	 0.239073
H	-0.7504726033	 1.7084972173	 0.9103344283	 0.239695
H	 0.5857695365	-0.1840184903	-0.8480446024	 0.098719
H	 1.3080776906	-1.4112131688	 1.099015848	 0.119232
H	 0.427770511	-0.3314713446	 2.1937965031	 0.112615
H	-0.8218007843	-2.7780440824	 0.8974411528	 0.103297
H	-2.96714723	-1.8619804119	 1.9134105541	 0.120669
H	-1.9060404579	-0.7611271896	 2.847496126	 0.114144
95.4391	128.8267	174.597	241.5788	312.1267	357.6138	386.9324	484.7958	515.6668	552.6636	607.4239	651.7177	797.8688	833.1722	871.0968	922.0852	947.8047	981.0222	1000.7687	1021.9175	1026.5571	1074.0564	1113.8037	1151.9804	1153.1972	1171.7996	1194.2627	1261.964	1275.3119	1282.1746	1311.7604	1348.3307	1418.9483	1482.5782	1523.562	1668.0905	2342.4256	3028.7444	3069.683	3075.5375	3081.6753	3126.9762	3148.2786	3485.0452	3567.1454
NC1CC2COC12C#N	N[C@H]1C[C@H]2CO[C@@]12C#N	
InChI=1S/C6H8N2O/c7-3-6-4(2-9-6)1-5(6)8/h4-5H,1-2,8H2	InChI=1S/C6H8N2O/c7-3-6-4(2-9-6)1-5(6)8/h4-5H,1-2,8H2/t4-,5-,6+/m0/s1
