25
gdb 63844	2.66671	1.36631	1.36142	0.0497	91.16	-0.2707	0.0762	0.3468	1161.5352	0.23189	-352.363117	-352.3546	-352.353656	-352.396111	35.474	
C	 0.1820158586	 1.5052506897	 0.0033166345	-0.428444
C	-0.0546547129	-0.0179430943	 0.0035705335	 0.354989
C	-1.575589731	-0.2632102091	 0.0557208938	-0.42845
C	 0.5191503423	-0.6276978212	-1.3286517221	-0.255382
C	 1.5982810987	-1.6936396198	-1.1238601823	 0.001474
C	 1.1466121405	-2.7240179243	-0.0529734744	-0.225092
C	 1.672716809	-1.7048567133	 0.994408815	 0.001474
C	 2.6567191331	-1.2039606617	-0.0979883472	-0.225109
C	 0.6110259545	-0.641535649	 1.2857058211	-0.255383
H	 1.2504924184	 1.7429076754	-0.0330340893	 0.111081
H	-0.2942523227	 1.9777108825	-0.8634866773	 0.106441
H	-0.2319511537	 1.9683247133	 0.9064176999	 0.106442
H	-2.0766720774	 0.1844264574	-0.8102679408	 0.106441
H	-1.8071542909	-1.3336399024	 0.057986675	 0.111074
H	-2.014414048	 0.1747041724	 0.9596364398	 0.106442
H	-0.3013758871	-1.0649090173	-1.9106251009	 0.087662
H	 0.9330120182	 0.1776865603	-1.947669636	 0.087661
H	 1.953475734	-2.0749782798	-2.0851719886	 0.053649
H	 0.0898716695	-3.0075640627	-0.0173430793	 0.086018
H	 1.7587158189	-3.6299603573	-0.0792806944	 0.091005
H	 2.0943691952	-2.0962119582	 1.9243297762	 0.053649
H	 3.5657380729	-1.8110387448	-0.1331444541	 0.091008
H	 2.9338166726	-0.144922174	-0.1021167286	 0.086025
H	 1.0676257301	 0.1574113964	 1.8826220296	 0.087662
H	-0.1667868026	-1.085172098	 1.9191916068	 0.087662
35.3472	221.8248	290.9385	315.189	319.3877	362.608	369.666	405.3897	411.5825	443.6286	483.5862	567.6169	700.3962	820.9413	830.2448	860.6602	873.4353	881.7903	910.8275	935.4317	942.9586	946.5976	970.4093	1004.7548	1011.0952	1038.7301	1090.9473	1099.329	1113.8165	1120.2693	1141.1812	1162.9191	1213.7225	1237.2361	1245.3736	1268.4136	1273.7606	1285.5601	1337.3214	1344.1922	1348.339	1370.4171	1392.9804	1400.857	1429.6053	1483.296	1486.251	1494.6681	1495.41	1499.0757	1506.1645	1512.4283	1520.3835	3017.1243	3017.1553	3018.3506	3026.1205	3041.3721	3042.8869	3052.6557	3055.2169	3062.0457	3067.3578	3084.6815	3090.8913	3091.0221	3094.4584	3097.7592	3099.9544
CC1(C)CC2CC(C2)C1	CC1(C)C[C@@H]2C[C@@H](C2)C1	
InChI=1S/C9H16/c1-9(2)5-7-3-8(4-7)6-9/h7-8H,3-6H2,1-2H3	InChI=1S/C9H16/c1-9(2)5-7-3-8(4-7)6-9/h7-8H,3-6H2,1-2H3/t7-,8+
