17
gdb 74580	4.04773	1.41506	1.28574	1.7143	73.7	-0.2095	0.0157	0.2252	1017.3858	0.13705	-417.975376	-417.967907	-417.966963	-418.006785	30.073	
C	-0.1098034201	 1.4473915251	 0.0476304601	-0.498742
C	 0.0251204689	-0.0371143911	 0.0669602857	 0.462847
O	-1.1573657082	-0.8116886195	-0.130216554	-0.328416
C	-0.4838683988	-1.9609350459	 0.5065707893	-0.04744
C	 0.6644912964	-1.0454766542	 0.9846001536	-0.219096
C	 1.2672969552	-0.8548192376	-0.3923554498	-0.085673
N	 1.0597216514	-2.0003495892	-1.2397163321	-0.29438
C	 0.1149819249	-2.6800023792	-0.6930117948	 0.419154
N	-0.3797526789	-3.8688586248	-1.1660559486	-0.591348
H	 0.8605894633	 1.9190871084	 0.2272476826	 0.12765
H	-0.47428083	 1.7810233725	-0.9300443144	 0.13879
H	-0.8130739997	 1.7931194708	 0.8122253155	 0.128718
H	-1.1426286341	-2.4912699549	 1.1941884453	 0.082702
H	 1.1473177476	-0.9895222925	 1.9514834705	 0.098552
H	 2.1960623494	-0.3093422607	-0.5104546284	 0.089598
H	-0.1367231744	-4.0732447955	-2.1253834458	 0.260077
H	-1.3369666329	-4.0829223217	-0.9345762046	 0.257007
151.3382	195.0332	227.4748	308.8624	347.4808	386.5998	420.1312	514.6412	592.3148	621.7174	665.0212	710.0863	740.6671	789.4642	834.5662	871.6976	887.2268	898.1592	935.1045	962.611	1016.2707	1024.6624	1067.3242	1101.9373	1161.1606	1168.6551	1220.6063	1236.2063	1274.2134	1283.3913	1395.4482	1420.3492	1435.6815	1473.6306	1496.6196	1625.0261	1697.1191	3033.9759	3099.3011	3115.3344	3117.4536	3186.8968	3195.9817	3568.1016	3682.5294
CC12OC3C1C2N=C3N	C[C@]12O[C@@H]3[C@H]1[C@H]2[N][C]3N	
InChI=1S/C6H8N2O/c1-6-2-3(9-6)5(7)8-4(2)6/h2-4H,1H3,(H2,7,8)	InChI=1S/C6H8N2O/c1-6-2-3(9-6)5(7)8-4(2)6/h2-4H,1H3,(H2,7,8)/t2-,3+,4+,6-/m0/s1
