15
gdb 131177	3.23868	1.45319	1.08807	3.1875	68.35	-0.2211	0.0021	0.2232	1063.0737	0.114252	-450.084148	-450.076532	-450.075588	-450.117277	28.281	
O	-1.2805532442	 0.6641359764	-0.4394676611	-0.445577
C	-0.3992422992	-0.3345128319	-0.2003017402	 0.307356
C	 0.1890016638	-1.1708278495	-1.1316495088	 0.288971
N	 0.9682012832	-1.964536803	-0.3466843605	-0.221952
N	 0.8774099202	-1.6564788832	 0.9494099596	-0.129689
N	 0.0336279933	-0.6509775561	 1.0361998749	-0.276774
N	 0.1569779122	-1.3487956143	-2.5189839101	-0.206474
C	-1.1200354396	-1.1117947259	-3.2168708823	-0.227261
C	 0.0019072331	-0.1519456297	-3.3658844781	-0.22731
H	-1.4975657331	 1.0530415881	 0.4177951998	 0.30808
H	 1.5664228095	-2.715438657	-0.6551552703	 0.283552
H	-1.3414922625	-1.8259929751	-4.003990269	 0.127356
H	-1.9674819684	-0.7960362757	-2.6161431115	 0.146115
H	-0.094439591	 0.8065085461	-2.8650746349	 0.146274
H	 0.6125403925	-0.1543119392	-4.2635527474	 0.127333
28.0084	164.2844	175.8087	319.7703	346.3396	364.9845	448.4227	465.5162	597.3475	621.7434	719.4158	735.4112	750.0751	819.3716	844.0063	926.2123	1000.4271	1044.3403	1109.5107	1118.6754	1135.9634	1143.269	1184.9734	1187.4361	1223.7051	1254.7253	1323.2359	1385.9426	1396.0891	1490.2769	1508.5689	1536.3141	1672.288	3119.3849	3122.672	3207.6961	3221.945	3649.0237	3787.5166
OC1=C(NN=N1)N1CC1	Oc1c([nH]nn1)N1CC1	
InChI=1S/C4H6N4O/c9-4-3(5-7-6-4)8-1-2-8/h1-2H2,(H2,5,6,7,9)	InChI=1S/C4H6N4O/c9-4-3(5-7-6-4)8-1-2-8/h1-2H2,(H2,5,6,7,9)
