23
gdb 101143	3.42327	0.85007	0.83678	1.8874	88.81	-0.2234	0.0256	0.249	1551.1762	0.205138	-388.301945	-388.291859	-388.290915	-388.337674	36.582	
C	-0.1181314297	 1.5322287176	 0.0681565735	-0.391921
C	 0.0329164744	 0.0089762674	 0.0137992651	-0.168861
C	 0.7779479798	-0.5127472412	-1.2384262357	-0.088162
C	 2.249726174	-0.05501133	-1.273542885	-0.397992
C	 0.6738798645	-2.0110674463	-1.3426058959	 0.336046
C	 0.0872597875	-2.729543929	-2.2971904799	-0.238523
C	 0.2163692921	-4.1966545782	-2.0102221915	-0.102018
O	 0.9416807037	-4.2730716423	-0.7853406956	-0.266198
C	 1.2530331747	-2.9644887385	-0.3203268199	-0.156305
H	 0.848294545	 2.0401360436	 0.1414262096	 0.119462
H	-0.6262306331	 1.9109505384	-0.8260297223	 0.114642
H	-0.7111973487	 1.831975927	 0.9377454067	 0.114674
H	 0.552868377	-0.3392803271	 0.9157856292	 0.098069
H	-0.9620040445	-0.4513693609	 0.0375999428	 0.100506
H	 0.2742338639	-0.0925842774	-2.1193792671	 0.073908
H	 2.7614021231	-0.458439071	-2.1523450792	 0.119423
H	 2.3249222219	 1.0350279397	-1.3137927813	 0.117508
H	 2.7920795895	-0.3937088288	-0.3840130382	 0.117459
H	-0.4190552297	-2.339803397	-3.1722126123	 0.093906
H	-0.7605308607	-4.6947989429	-1.8977168489	 0.100662
H	 0.7614496307	-4.7369701362	-2.8014176499	 0.10073
H	 2.3448066863	-2.856904311	-0.2182949217	 0.101437
H	 0.8227540679	-2.8149132557	 0.6828687474	 0.101549
49.8066	85.7725	102.0739	130.238	189.6449	218.1792	263.1707	285.5481	321.107	340.8694	468.9815	540.1013	649.6005	770.0762	784.9981	824.6531	844.6902	904.8694	926.9613	959.7435	974.162	982.7876	1019.6971	1032.5879	1062.6956	1064.702	1119.2774	1129.9435	1174.8178	1178.5084	1222.1163	1229.9006	1275.5888	1296.0514	1330.1351	1357.0404	1371.1592	1379.8066	1399.0382	1407.3803	1415.4531	1484.4073	1495.347	1499.0655	1506.7741	1511.5919	1518.55	1531.4553	1723.9661	2962.5503	2971.7657	2977.1105	2983.3476	3010.5597	3023.3479	3033.4649	3037.3462	3058.1182	3099.2509	3104.2858	3107.1624	3116.7585	3205.1371
CCC(C)C1=CCOC1	CC[C@@H](C)C1=CCOC1	
InChI=1S/C8H14O/c1-3-7(2)8-4-5-9-6-8/h4,7H,3,5-6H2,1-2H3	InChI=1S/C8H14O/c1-3-7(2)8-4-5-9-6-8/h4,7H,3,5-6H2,1-2H3/t7-/m1/s1
