12
gdb 130099	5.63999	1.4238	1.13787	4.6997	61.65	-0.2391	-0.0001	0.2389	962.6491	0.081257	-464.985007	-464.978695	-464.977751	-465.015636	24.043	
N	 0.0320971317	 1.2701128713	 0.1515682973	-0.584258
C	-0.04885473	-0.0814300098	 0.0481335429	 0.479205
N	-1.1258281081	-0.8113590818	 0.0036297649	-0.312226
N	-0.5777989843	-2.0800472777	 0.004962317	 0.092524
N	-1.037451145	-3.3460142165	-0.0445906094	-0.263245
C	 0.1231114896	-4.0109792339	-0.0458409496	 0.025417
N	 1.2788721161	-3.2629921204	-0.0064369707	-0.390344
C	 0.7534898569	-2.0647993538	 0.0245880198	 0.47707
O	 1.1500347162	-0.7625930748	 0.0589287865	-0.231826
H	 0.8619909553	 1.6888718367	-0.2411143665	 0.283358
H	-0.8276945713	 1.755505036	-0.0565624575	 0.288583
H	 0.1419664829	-5.0894053152	-0.0747590846	 0.135741
143.8378	263.7024	321.8733	348.1867	352.2094	541.5488	565.1674	625.0017	664.4028	718.0529	747.0813	802.2582	867.7049	872.1194	945.4611	987.7038	1119.9483	1174.1087	1186.4963	1257.1683	1345.507	1396.3965	1453.3158	1486.4868	1607.0268	1612.3689	1712.9929	3271.6361	3583.4499	3694.4736
NC1=NN2N=CN=C2O1	Nc1nn2ncnc2o1	
InChI=1S/C3H3N5O/c4-2-7-8-3(9-2)5-1-6-8/h1H,(H2,4,7)	InChI=1S/C3H3N5O/c4-2-7-8-3(9-2)5-1-6-8/h1H,(H2,4,7)
