19
gdb 97457	7.64551	0.49878	0.47234	2.5532	78.06	-0.2458	0.0228	0.2685	2263.4169	0.156177	-456.373871	-456.362622	-456.361677	-456.413669	36.783	
C	-0.037749218	 1.3786268346	 0.0449897756	-0.314475
N	 0.0463199258	-0.0653265459	 0.1017613106	-0.207869
C	 0.5203485308	-0.6553598992	-0.9024710422	 0.131568
O	 0.6299244572	-1.9986088377	-0.9234350964	-0.212321
C	 1.1834630714	-2.5570792422	-2.1171221455	-0.070717
C	 1.2144300695	-4.0649536982	-1.9278278029	-0.332896
C	 1.7925839885	-4.76382996	-3.1540925736	 0.418019
N	 1.8513087651	-6.1226257636	-3.0617911667	-0.526634
O	 2.1718667495	-4.1571497228	-4.1384332598	-0.35814
H	 0.5349710901	 1.8139267813	 0.8720764984	 0.126539
H	 0.3330875094	 1.8142443472	-0.8977092313	 0.09555
H	-1.0790602321	 1.6927916789	 0.1811621304	 0.126538
H	 0.8744784734	-0.1542725671	-1.8176870031	 0.076053
H	 0.5720405023	-2.2932589963	-2.987324711	 0.125627
H	 2.1946239511	-2.1725803328	-2.2913839393	 0.125709
H	 1.8100561547	-4.3147678116	-1.0419190492	 0.13626
H	 0.2010034571	-4.4345224064	-1.7319721523	 0.136196
H	 1.5400719981	-6.6238775141	-2.2487212407	 0.261612
H	 2.2253781961	-6.6397900442	-3.840069621	 0.263383
15.3291	32.1145	59.946	86.3065	99.2464	121.1203	206.113	214.9748	275.2557	309.1614	383.6161	506.6324	511.1323	563.6075	640.9282	648.9547	815.4583	864.7081	983.7975	1024.945	1070.0094	1077.303	1079.3665	1122.8289	1141.1739	1156.569	1212.0276	1253.0855	1260.752	1308.9164	1378.3298	1404.2742	1436.8298	1451.3187	1473.5427	1480.4896	1505.2962	1514.8064	1619.2108	1781.2573	1793.0732	2964.8405	2988.7344	3034.2951	3043.2788	3056.0375	3068.4724	3074.974	3091.1266	3605.628	3742.3974
CN=COCCC(N)=O	CN=COCCC(=O)N	
InChI=1S/C5H10N2O2/c1-7-4-9-3-2-5(6)8/h4H,2-3H2,1H3,(H2,6,8)	InChI=1S/C5H10N2O2/c1-7-4-9-3-2-5(6)8/h4H,2-3H2,1H3,(H2,6,8)
