19
gdb 39242	2.82058	1.59501	1.17607	2.334	73.43	-0.2569	0.0752	0.3321	1057.6826	0.161277	-422.997333	-422.990003	-422.989059	-423.02905	29.456	
C	 0.0550934331	 1.5434171426	 0.35812809	-0.25921
C	 1.3527451434	 2.0746580655	-0.267643956	-0.234966
C	 2.6453014786	 1.6006851305	 0.372405883	 0.078387
O	 2.821971927	 1.8151857669	 1.7738011974	-0.254297
C	 2.8317707884	 0.4613342133	 1.2978415682	 0.03804
C	 1.7283539963	-0.4583209016	 1.8182732046	-0.279851
C	 0.7381132315	-0.915756302	 0.7614396325	 0.050266
O	-0.6555303599	-0.7830406724	 1.0773408726	-0.26248
C	-0.1036839751	 0.0662063662	 0.0681345703	 0.075356
H	 0.0665944993	 1.7125001313	 1.4373962916	 0.127153
H	-0.7998637539	 2.0982477077	-0.0425754708	 0.102243
H	 1.3909254563	 1.8022876941	-1.3312751816	 0.103261
H	 1.3566703076	 3.1715138773	-0.2385863103	 0.11397
H	 3.5253491991	 1.8792561878	-0.214125101	 0.08544
H	 3.8301365742	 0.0201478177	 1.304046852	 0.0916
H	 2.1868723062	-1.3297776868	 2.296251683	 0.106283
H	 1.1790626631	 0.0730476614	 2.5989684141	 0.140343
H	 0.9832369095	-1.8416314878	 0.2408029659	 0.091052
H	-0.438842315	-0.1747113017	-0.9427020656	 0.087409
95.129	207.3998	267.8768	317.987	367.8386	374.3182	451.9917	478.8315	570.859	667.9622	761.8085	776.7484	797.6938	828.7329	887.7745	902.1199	946.1313	977.3383	1024.0914	1035.3656	1064.9428	1079.5864	1113.201	1120.6079	1162.4495	1167.5092	1208.9976	1219.608	1260.4538	1299.7175	1310.7907	1334.3453	1355.5619	1381.1438	1395.5591	1407.5171	1468.288	1474.9438	1485.8071	1492.2777	1503.1675	3017.1068	3048.4592	3054.3938	3058.184	3065.1358	3083.5169	3087.6965	3101.7313	3110.7154	3120.9145
C1CC2OC2CC2OC12	C1C[C@H]2O[C@H]2C[C@H]2O[C@@H]12	
InChI=1S/C7H10O2/c1-2-5-7(9-5)3-6-4(1)8-6/h4-7H,1-3H2	InChI=1S/C7H10O2/c1-2-5-7(9-5)3-6-4(1)8-6/h4-7H,1-3H2/t4-,5+,6+,7-
