16
gdb 105579	2.20833	0.9177	0.72283	5.9218	74.94	-0.2812	-0.0524	0.2288	1550.1989	0.12004	-434.097035	-434.085107	-434.084163	-434.137322	37.75	
N	 1.3362367074	 0.7759240641	 1.1837958425	-0.723777
H	 1.7796065191	 0.3305267034	 1.9831083831	 0.24682
H	 2.0468578045	 1.3721527013	 0.7652451614	 0.260773
H	 1.1639491476	 0.0330727901	 0.5113457429	 0.245098
C	-2.3074023236	 1.88789663	 0.3768418299	-0.354792
C	-2.0558292369	 3.0519060386	 0.9820570465	 0.18571
C	-0.9661853767	 3.2022859686	 2.0286337848	-0.260138
N	 0.0912247616	 4.0843748192	 1.5756741575	-0.357653
C	 1.122146566	 3.9112645848	 0.9776029679	 0.562768
O	 2.1506980273	 3.872192055	 0.4124381388	-0.32003
C	-2.8196601532	 4.2231218323	 0.6696139816	 0.252967
N	-3.4306195425	 5.1796651772	 0.4413090727	-0.325571
H	-3.0952202493	 1.7859684658	-0.3600424819	 0.143702
H	-1.7127390873	 1.0120752834	 0.6105716804	 0.143068
H	-1.390384903	 3.6334874736	 2.9401128268	 0.140623
H	-0.553361701	 2.2145566828	 2.2497791952	 0.160434
29.4391	34.7217	39.9949	86.0463	96.2051	109.3231	160.6782	209.9432	221.0311	249.4881	298.7097	361.0243	396.1949	575.5081	610.8156	640.0284	688.2834	757.906	784.5815	913.7173	975.4777	984.3091	1015.0593	1129.2279	1250.0115	1306.4558	1381.6338	1449.8254	1475.7953	1495.6027	1675.5417	1687.0526	1689.3092	2341.6286	2362.5011	3053.8918	3111.1087	3164.0881	3258.5721	3462.9106	3576.7495	3581.2167
[NH3+]CC1(C[N-]C1=O)C#N	N.C=C(CN=C=O)C#N	
InChI=1S/C5H7N3O/c6-1-5(2-7)3-8-4(5)9/h1,3,6H2,(H,8,9)	InChI=1S/C5H4N2O.H3N/c1-5(2-6)3-7-4-8;/h1,3H2;1H3
