21
gdb 102536	2.27837	1.11505	0.80867	2.0901	76.49	-0.2531	-0.0383	0.2148	1453.3847	0.178625	-461.36177	-461.350841	-461.349897	-461.398752	38.154	
C	 0.6097488196	 1.1045241048	-0.509065868	-0.399088
C	 0.189674493	-0.3162334293	-0.1278308209	-0.170089
C	-1.3117124815	-0.4519667737	 0.1259917056	 0.085359
O	-2.0359530712	-0.2013576087	-1.0756386909	-0.255325
C	-2.9668342643	 0.8581263225	-1.0077643268	-0.243305
C	-1.6618918299	-1.8847376685	 0.609100298	 0.035132
O	-0.9445376257	-2.2122642065	 1.7666192853	-0.433533
C	-3.1474188106	-2.036490434	 0.8574305851	 0.124972
O	-3.5710703235	-2.3818174191	 1.9365863877	-0.269004
H	 1.6860660524	 1.1551133374	-0.6982845427	 0.116598
H	 0.0949431912	 1.4350157104	-1.4160322531	 0.125724
H	 0.3810251434	 1.8173000865	 0.2914321328	 0.111834
H	 0.459371472	-1.0134393462	-0.9312174955	 0.101666
H	 0.7136917012	-0.6472912952	 0.7737283376	 0.125725
H	-1.615293945	 0.2565118258	 0.9108428652	 0.079089
H	-3.746571874	 0.6790038645	-0.2509369699	 0.105358
H	-2.482247621	 1.8179122337	-0.7811761306	 0.116859
H	-3.4446654331	 0.9278495672	-1.9884337072	 0.131006
H	-1.4080797451	-2.5678300979	-0.2217154314	 0.100875
H	-1.616179324	-2.4439241546	 2.4289746305	 0.295301
H	-3.8182117042	-1.8242949189	 0.0053628691	 0.114845
38.7167	68.4992	105.1814	112.4667	172.1091	194.0622	226.9697	248.5869	309.0308	321.6662	351.6782	428.1028	460.4293	478.3867	519.6914	764.3029	776.6766	849.9718	892.6249	939.6366	998.1768	1035.9102	1084.7009	1111.587	1129.0504	1157.0967	1168.5751	1182.7918	1219.0749	1257.2103	1289.4784	1307.6132	1338.267	1372.1841	1380.4861	1392.9087	1407.2981	1440.646	1480.0764	1484.3698	1489.3716	1498.4479	1506.5519	1512.8421	1801.6727	2949.4897	2974.7256	2979.8288	3002.0918	3032.0281	3034.0252	3036.5625	3088.9524	3102.919	3112.2941	3115.9729	3673.1897
CCC(OC)C(O)C=O	CC[C@@H](OC)[C@@H](O)C=O	
InChI=1S/C6H12O3/c1-3-6(9-2)5(8)4-7/h4-6,8H,3H2,1-2H3	InChI=1S/C6H12O3/c1-3-6(9-2)5(8)4-7/h4-6,8H,3H2,1-2H3/t5-,6+/m0/s1
