19
gdb 82832	2.32624	1.7595	1.53555	0.7131	74.58	-0.2324	0.0647	0.2971	985.5365	0.159394	-422.977027	-422.969237	-422.968292	-423.008808	31.156	
C	-0.0607917879	 1.5583045324	 0.0615251167	-0.542406
C	-0.0040561203	 0.0613662357	 0.0299236977	 0.341183
C	 0.5845104182	-0.862914569	-1.0855588517	 0.05148
C	 1.5192143382	-1.5224276064	-0.0481931226	-0.25551
C	 0.6695536298	-0.9054463798	 1.0918867953	-0.111088
C	-0.6894025039	-1.6177189239	 1.2714550436	 0.099289
O	-1.3151432471	-1.0629207223	 2.4148062524	-0.436461
C	-1.195946703	-0.9417271579	-0.0315182998	 0.011735
O	-0.6656654187	-1.5820022312	-1.2079891372	-0.308439
H	 0.944374142	 1.995640979	 0.0652360072	 0.119838
H	-0.5943007481	 1.9540160375	-0.8104632464	 0.123239
H	-0.5782047026	 1.9066725927	 0.9618990082	 0.13244
H	 0.9752049904	-0.5566327318	-2.0584522994	 0.074815
H	 1.6244081388	-2.6099560665	-0.0956184853	 0.101966
H	 2.5117116047	-1.0605741584	-0.0791141857	 0.103765
H	 1.1601069344	-0.5793316831	 2.0086249367	 0.077155
H	-0.6900110827	-2.716543282	 1.2859529283	 0.065714
H	-2.2397465453	-1.3336595665	 2.4064117408	 0.283954
H	-2.2598797768	-0.6988799086	-0.1186914288	 0.06733
136.4234	219.7084	228.0334	281.7672	309.677	325.9577	373.977	397.4107	469.0158	603.3441	700.2102	736.3418	833.9319	848.3949	868.3595	904.1308	922.823	962.6685	990.4565	1001.178	1025.6812	1046.9932	1109.7482	1118.9111	1137.3167	1158.0188	1165.5573	1169.8132	1189.4474	1220.1352	1248.1993	1270.3683	1287.916	1322.236	1323.7336	1370.5783	1408.4555	1411.6519	1470.41	1488.5577	1492.6637	3004.8632	3021.7892	3044.8085	3056.8586	3085.1973	3085.9349	3094.3238	3102.5705	3117.079	3802.2821
CC12C3CC1C(O)C2O3	C[C@@]12[C@H]3C[C@@H]1[C@@H](O)[C@@H]2O3	
InChI=1S/C7H10O2/c1-7-3-2-4(7)9-6(7)5(3)8/h3-6,8H,2H2,1H3	InChI=1S/C7H10O2/c1-7-3-2-4(7)9-6(7)5(3)8/h3-6,8H,2H2,1H3/t3-,4-,5-,6+,7+/m1/s1
