17
gdb 63255	2.6558	1.37908	1.13725	5.4837	69.32	-0.2524	-0.0802	0.1721	1123.5393	0.133829	-459.028801	-459.020108	-459.019164	-459.062445	32.39	
C	-0.0924407464	 1.5855094528	 0.012122251	-0.423161
C	 0.031600794	 0.0690402929	-0.0558988022	 0.350629
C	-1.3225105201	-0.6256179901	 0.0852080736	-0.413121
C	 0.8135034216	-0.4311692566	-1.2896565723	-0.396046
C	 1.7795604904	-1.4543596953	-0.7289103071	 0.285706
O	 2.4351151237	-2.2737226616	-1.3060316317	-0.265678
C	 1.790768694	-1.2439392776	 0.8027586109	 0.329869
O	 2.5082000146	-1.7642493007	 1.603745142	-0.313202
O	 0.8424143441	-0.3334089622	 1.1035299745	-0.243397
H	 0.8944806986	 2.0553507709	-0.0199313608	 0.130194
H	-0.6802389164	 1.9537486661	-0.8342930413	 0.127271
H	-0.5886607743	 1.8887129335	 0.9378953807	 0.137458
H	-1.9953558193	-0.3135363941	-0.7193358107	 0.127274
H	-1.212308582	-1.7135855452	 0.0372936744	 0.129151
H	-1.7812559213	-0.3698072008	 1.0436282727	 0.139861
H	 0.1790768356	-0.8581183062	-2.0685878428	 0.148367
H	 1.4005531032	 0.3762422542	-1.7432964409	 0.148826
48.7676	99.9588	226.2073	260.0255	311.8776	317.0515	336.7688	355.1462	386.3213	453.2509	559.6016	587.1754	629.3376	674.6114	720.2821	842.1901	909.4143	937.4476	949.6898	978.3524	1024.4141	1052.5514	1110.8955	1185.5499	1210.0938	1270.5538	1282.188	1304.246	1405.6095	1421.7282	1446.0997	1475.9509	1484.6034	1496.1505	1505.5849	1870.1959	1878.6074	3039.2459	3043.9978	3049.1111	3112.0932	3118.7764	3119.0025	3124.3678	3128.8681
CC1(C)CC(=O)C(=O)O1	CC1(C)CC(=O)C(=O)O1	
InChI=1S/C6H8O3/c1-6(2)3-4(7)5(8)9-6/h3H2,1-2H3	InChI=1S/C6H8O3/c1-6(2)3-4(7)5(8)9-6/h3H2,1-2H3
