12
gdb 24547	3.98281	1.86761	1.27142	3.5943	70.96	-0.2701	-0.1093	0.1608	874.025	0.081674	-431.70075	-431.695192	-431.694248	-431.73064	21.897	
O	-0.0598923019	 1.3099917582	 0.0098599584	-0.165283
C	 1.1250089454	 1.9663756851	 0.0018179141	 0.019975
C	 2.3181950843	 1.3133203724	-0.0134386617	-0.074699
N	 2.4524743315	-0.0520421265	-0.0221906186	-0.307055
C	 1.318972911	-0.6923736936	-0.0145519647	 0.328766
N	 1.0607146792	-2.0372772256	-0.0194002655	-0.315541
C	-0.2602335105	-2.0683080502	-0.0065554264	 0.043018
N	-0.9721345701	-0.8626822372	 0.0070146422	-0.352071
C	 0.012279991	-0.01762492	 0.0019182201	 0.38105
H	 0.9958108175	 3.0388026837	 0.0089279736	 0.163228
H	 3.2321848552	 1.8954682333	-0.0192315056	 0.13934
H	-0.8104531326	-3.0015904695	-0.006256116	 0.139272
233.4145	270.0947	389.544	508.1116	539.8815	580.2282	631.9324	635.981	773.0697	813.4934	823.9181	905.1977	925.0952	932.9751	971.1367	1049.8534	1090.8103	1168.5586	1263.3431	1267.5374	1325.8727	1366.1361	1396.6459	1456.0088	1551.1223	1633.4101	1662.2382	3205.0798	3225.4454	3254.691
O1C=CN=C2N=CN=C12	o1ccnc2ncnc12	
InChI=1S/C5H3N3O/c1-2-9-5-4(6-1)7-3-8-5/h1-3H	InChI=1S/C5H3N3O/c1-2-9-5-4(6-1)7-3-8-5/h1-3H
