20
gdb 70517	2.77563	1.59868	1.18648	1.6399	87.42	-0.2061	-0.0207	0.1853	1102.8703	0.172745	-366.001324	-365.993205	-365.992261	-366.033791	32.27	
C	-0.2270198433	 1.5328364153	 0.051006667	-0.476723
C	-0.0609915976	 0.0233397167	 0.0218262535	 0.279168
N	-0.6253741112	-0.7481558682	 1.1676252417	-0.353813
C	 0.8247969494	-0.5875396799	 1.0586354336	-0.052976
C	 1.6971792267	-1.8155247631	 0.8183171854	-0.286855
C	 1.0392234662	-3.0087758392	 0.1782595535	-0.073184
C	 0.2882609123	-3.0037536018	-0.9289698487	-0.053371
C	-0.1095246964	-1.846771162	-1.7219493629	-0.111069
C	-0.234706321	-0.568161211	-1.3343761608	-0.086141
H	 0.4859118337	 2.0219193405	-0.6221946343	 0.125196
H	-1.2351716324	 1.8217251784	-0.2687367211	 0.123852
H	-0.0635125093	 1.9305214409	 1.0575843324	 0.109615
H	-1.0042592975	-0.1033270676	 1.8577790197	 0.224292
H	 1.2941054834	 0.1295553238	 1.7347264718	 0.074657
H	 2.5507377661	-1.4905460526	 0.2031866248	 0.116562
H	 2.1248219531	-2.1225714795	 1.7799349533	 0.103018
H	 1.234020937	-3.9659714927	 0.6544560843	 0.088469
H	-0.0570555729	-3.9630131457	-1.3095329314	 0.08313
H	-0.3631908753	-2.0664113152	-2.7574966588	 0.086108
H	-0.5445122608	 0.1485353028	-2.091984033	 0.080065
66.271	188.662	240.6295	245.2513	317.3266	332.9915	393.637	418.017	495.4995	585.9595	659.2576	685.6966	707.8571	761.9174	818.2788	869.1417	882.5898	901.6403	944.7396	969.9441	993.8125	1000.8589	1020.5276	1029.9798	1054.2882	1097.0894	1136.2116	1191.8692	1243.4504	1257.898	1261.4616	1291.3731	1347.726	1373.6665	1416.1145	1419.7427	1464.0593	1467.3601	1478.5371	1486.7037	1504.6983	1683.975	1716.0655	2989.7904	3023.3547	3047.3625	3082.6376	3086.8163	3100.484	3127.4222	3139.2621	3154.2948	3166.578	3485.7132
CC12NC1CC=CC=C2	C[C@]12N[C@H]1CC=CC=C2	
InChI=1S/C8H11N/c1-8-6-4-2-3-5-7(8)9-8/h2-4,6-7,9H,5H2,1H3	InChI=1S/C8H11N/c1-8-6-4-2-3-5-7(8)9-8/h2-4,6-7,9H,5H2,1H3/t7-,8+/m0/s1
