18
gdb 68506	2.52348	1.90023	1.4818	3.1992	75.64	-0.2311	-0.0065	0.2246	952.3425	0.148321	-401.911038	-401.903596	-401.902652	-401.942558	29.944	
C	 0.0103423414	 1.5559626268	 0.0331009798	-0.490612
C	 0.0060530589	 0.0564868743	-0.0587829877	 0.213636
C	 0.3348538518	-0.7540907479	-1.3594159795	-0.311628
C	-0.3377746872	-1.9442751376	-0.6138338502	-0.173566
C	 0.4895064295	-2.0811284907	 0.6648570043	-0.021369
C	 1.8409928949	-1.4789316701	 0.7580060357	-0.258414
N	 0.6777005183	-0.6399260818	 1.087194329	-0.145565
C	-1.2923099753	-0.816470997	-0.0988674445	 0.429992
O	-2.4609742432	-0.6498681797	 0.0462805097	-0.314354
H	 1.0226368423	 1.9564409933	-0.0848993726	 0.12262
H	-0.6260673153	 1.9940290318	-0.7415868199	 0.123915
H	-0.3654058436	 1.8715477109	 1.0102100782	 0.142683
H	-0.2605558554	-0.4109668223	-2.2078552301	 0.122618
H	 1.374644787	-0.858042054	-1.6652896513	 0.11323
H	-0.6919540246	-2.8413792791	-1.1148265182	 0.090026
H	 0.1426022153	-2.7722423681	 1.4269706263	 0.110831
H	 2.4286051707	-1.7213883279	 1.6387878403	 0.126444
H	 2.4413101044	-1.286252391	-0.1235994993	 0.119512
141.1436	179.9729	203.9508	287.8852	310.4105	472.9636	500.7137	506.4463	585.6729	661.882	703.0491	734.8054	753.0772	812.619	823.1232	847.4055	902.5508	970.8312	980.7262	999.7272	1035.2705	1054.7893	1060.8885	1110.8321	1112.8661	1141.6416	1172.0123	1177.9815	1196.2612	1237.0693	1267.0942	1326.9962	1364.317	1417.2693	1479.8037	1481.5818	1490.6874	1531.7686	1911.2933	3039.5987	3087.4559	3106.3567	3121.6232	3127.5818	3147.7698	3153.9485	3162.9381	3208.9082
CC12CC(C3CN13)C2=O	C[C@@]12C[C@@H]([C@H]3CN13)C2=O	
InChI=1S/C7H9NO/c1-7-2-4(6(7)9)5-3-8(5)7/h4-5H,2-3H2,1H3	InChI=1S/C7H9NO/c1-7-2-4(6(7)9)5-3-8(5)7/h4-5H,2-3H2,1H3/t4-,5+,7-,8?/m0/s1
