22
gdb 103609	2.56316	1.20129	1.07408	3.3287	84.34	-0.2386	0.0409	0.2795	1295.0906	0.192768	-404.385723	-404.37527	-404.374326	-404.421041	37.51	
C	-0.1942877134	 1.5620027543	 0.0078561484	-0.393945
C	 0.0701844612	 0.0517429974	 0.0432144567	-0.231186
C	 0.7740235845	-0.4930989587	-1.2087302627	 0.170188
C	 2.162054902	 0.1016066703	-1.4402102993	-0.451354
C	 0.6975216514	-2.0524365688	-1.3569825078	-0.233558
N	-0.1430986444	-1.8427930419	-2.5357268972	-0.073272
C	-0.7856299755	-2.7542080932	-3.4448466846	-0.343973
C	-0.1265646536	-0.4740077818	-2.4759266125	 0.392123
O	-0.6395290299	 0.3719332254	-3.1676311046	-0.394191
H	 0.7355981487	 2.1381293307	 0.0357274181	 0.11555
H	-0.7339736523	 1.838049867	-0.9021081237	 0.151313
H	-0.7935144394	 1.8660780139	 0.8714902329	 0.109565
H	 0.6725349775	-0.2042988082	 0.9255777115	 0.093449
H	-0.8851807912	-0.4757121327	 0.1603624276	 0.098319
H	 2.8024712256	-0.0435316424	-0.5626985404	 0.114182
H	 2.6537074807	-0.3647035532	-2.3000320431	 0.118309
H	 2.097815349	 1.1742393666	-1.6407478759	 0.138837
H	 1.6507000482	-2.5501317175	-1.5720175397	 0.102791
H	 0.191023675	-2.5752011493	-0.5367160864	 0.103225
H	-1.4968128355	-3.4086221402	-2.9254130595	 0.126267
H	-1.3291567896	-2.1576591493	-4.1816635102	 0.160883
H	-0.0559822791	-3.3841671485	-3.9688398876	 0.126477
78.3852	109.0359	119.3804	150.9636	185.1437	208.28	238.6453	245.8318	275.7463	304.5448	378.0438	386.4495	556.6175	606.603	738.7701	770.481	797.2671	823.7128	911.6155	940.4464	980.0366	1013.1703	1033.5434	1065.4736	1077.469	1127.9194	1164.7902	1171.6285	1215.1056	1242.9323	1265.4498	1303.7407	1337.3291	1368.5892	1403.1662	1412.6586	1424.8964	1449.5546	1481.807	1482.6696	1493.6094	1497.5922	1504.9643	1511.5893	1514.5486	1533.8795	1859.2771	3008.6096	3011.0843	3019.3998	3030.9537	3042.251	3044.8346	3060.7302	3063.1345	3096.111	3105.4345	3116.894	3125.0718	3127.6725
CCC1(C)CN(C)C1=O	CC[C@@]1(C)CN(C)C1=O	
InChI=1S/C7H13NO/c1-4-7(2)5-8(3)6(7)9/h4-5H2,1-3H3	InChI=1S/C7H13NO/c1-4-7(2)5-8(3)6(7)9/h4-5H2,1-3H3/t7-/m0/s1
