16
gdb 42501	6.43228	0.64775	0.62025	3.6895	80.43	-0.2566	-0.031	0.2256	1731.2871	0.121238	-400.706775	-400.696796	-400.695852	-400.742851	34.997	
O	 0.4881279377	 0.8609507982	-1.456757536	-0.362494
C	 0.2108045437	 1.4797844628	-0.4446730268	 0.279979
N	 1.0807812361	 1.6600596706	 0.5902648635	-0.315916
C	 2.4298129208	 1.1248744742	 0.5525512846	-0.16466
C	 3.3945375663	 1.9982559933	-0.2838282314	-0.343199
C	 4.7517931533	 1.4715656043	-0.2696436073	 0.29151
C	 5.8600375189	 1.0082675398	-0.2284737837	-0.435387
C	-1.0937756477	 2.0933064525	-0.2263883039	 0.218377
C	-2.1780633945	 2.5910489275	-0.0781054695	-0.397267
H	 0.7858584933	 2.2219278057	 1.3719965576	 0.259373
H	 2.7951888321	 1.0394208329	 1.5786354749	 0.119446
H	 2.3906709804	 0.1231493605	 0.11842897	 0.153044
H	 3.0128594369	 2.0404641185	-1.3096751803	 0.161481
H	 3.3846225203	 3.0242153867	 0.1046320454	 0.126259
H	 6.8438049656	 0.6093150562	-0.209319069	 0.19787
H	-3.1410153931	 3.0253263864	 0.0393961719	 0.211582
46.6829	57.0874	65.554	147.1712	169.2616	253.2996	285.0311	354.6961	383.123	437.2198	469.8524	587.1854	601.8319	622.7667	650.0473	661.1405	680.139	755.2454	769.3576	889.8904	971.8632	1017.5919	1073.6521	1095.1973	1221.2886	1257.4864	1302.1241	1336.2129	1398.7572	1468.3221	1480.7602	1529.1892	1753.961	2226.9223	2239.9117	3030.7488	3071.0001	3077.7116	3127.5575	3495.8146	3507.1522	3647.5113
O=C(NCCC#C)C#C	O=C(NCCC#C)C#C	
InChI=1S/C7H7NO/c1-3-5-6-8-7(9)4-2/h1-2H,5-6H2,(H,8,9)	InChI=1S/C7H7NO/c1-3-5-6-8-7(9)4-2/h1-2H,5-6H2,(H,8,9)
