16
gdb 125429	5.73665	0.97461	0.89013	2.6154	72.08	-0.2481	-0.0259	0.2222	1301.4575	0.125287	-434.052263	-434.044179	-434.043234	-434.086054	28.64	
C	 0.0194006835	 1.457016118	 0.1858993125	-0.49611
C	-0.0494591331	-0.0185551513	 0.0268767729	 0.410855
N	-1.0683202668	-0.8057920883	 0.2040492639	-0.35221
C	-0.5361007957	-2.0439665819	-0.0881065703	 0.369661
N	 0.7315274293	-2.0246007206	-0.4132656452	-0.203364
O	 1.063426005	-0.6660116068	-0.3454257595	-0.193119
C	-1.3253589794	-3.2881730506	-0.0378384584	-0.112924
C	-1.3295503006	-4.1973289161	-1.2254413558	-0.224026
N	-0.6365944305	-4.5865846748	 0.0022855762	-0.312118
H	 0.7681255359	 1.7288632222	 0.9358780231	 0.16074
H	 0.3064279861	 1.9331001916	-0.7564840551	 0.160037
H	-0.9562486379	 1.8295831322	 0.4965635613	 0.165565
H	-2.2174422275	-3.2137591683	 0.5755947868	 0.11527
H	-2.2267431052	-4.7662995716	-1.4520367089	 0.127314
H	-0.7421060784	-3.8868347133	-2.0846060726	 0.12994
H	 0.3641365155	-4.4292092503	-0.1007675808	 0.254489
53.7833	64.6276	155.2177	169.3003	264.7703	315.5721	421.7235	453.8404	661.622	672.637	729.076	775.9506	831.9076	892.3533	939.1767	973.3461	992.3535	1000.3399	1041.3557	1069.4341	1072.419	1116.8559	1139.8954	1185.8444	1255.434	1286.9292	1307.7382	1326.6534	1408.6731	1453.335	1475.2661	1475.5092	1506.1201	1558.1969	1627.4089	3054.6546	3113.7614	3114.1831	3165.8127	3167.3149	3206.6876	3497.5875
CC1=NC(=NO1)C1CN1	Cc1nc(no1)[C@H]1CN1	
InChI=1S/C5H7N3O/c1-3-7-5(8-9-3)4-2-6-4/h4,6H,2H2,1H3	InChI=1S/C5H7N3O/c1-3-7-5(8-9-3)4-2-6-4/h4,6H,2H2,1H3/t4-/m1/s1
