18
gdb 71443	3.95607	1.40473	1.24251	4.1902	75.14	-0.2396	-0.0081	0.2315	1037.8982	0.148562	-401.934918	-401.9275	-401.926556	-401.966588	29.484	
C	 0.0353595679	 1.5586362035	 0.0856437094	-0.504527
C	 0.0112531512	 0.0583714575	 0.0606601717	 0.318501
C	-1.2416657355	-0.8128750229	 0.0351293512	-0.250031
N	-0.4867799231	-1.9268318605	 0.7609869853	-0.171568
C	 0.621635705	-0.9551559681	 1.0011714995	-0.090103
C	 1.2234292021	-0.7841038519	-0.3655958118	-0.102228
C	 1.0451290561	-2.0771923809	-1.1299060586	-0.365592
C	-0.0340893352	-2.8114854748	-0.3062663456	 0.387406
O	-0.497098057	-3.8908321794	-0.5275308207	-0.30134
H	 1.026404756	 1.9356441782	 0.3578287951	 0.124512
H	-0.2188212545	 1.9768579048	-0.8952136438	 0.126647
H	-0.6832083336	 1.9521475332	 0.8133974374	 0.125099
H	-2.0349562701	-0.4342103782	 0.6852664408	 0.123986
H	-1.6769308359	-1.0984303003	-0.9302360151	 0.114493
H	 1.1097382571	-0.8805199099	 1.9644255162	 0.09934
H	 2.1495759018	-0.2271340417	-0.4520559786	 0.095191
H	 0.6932855955	-1.9769633841	-2.1618310696	 0.134432
H	 1.968798152	-2.6650238946	-1.1605924329	 0.135781
102.9147	196.6445	217.8305	267.0488	336.6084	421.369	481.6915	528.7527	615.1734	665.5355	689.371	757.3012	785.8756	833.5483	888.7218	898.0475	931.8806	974.9718	998.6844	1006.2451	1033.5532	1055.6122	1060.0099	1087.4815	1141.1559	1179.8996	1183.7929	1200.436	1237.9541	1277.3696	1291.6265	1319.7509	1416.0727	1444.3543	1462.6814	1486.6023	1497.6909	1514.4295	1876.1866	3024.8686	3029.7611	3050.6019	3085.9112	3087.6806	3091.9247	3099.3969	3179.7041	3196.3582
CC12CN3C1C2CC3=O	C[C@]12CN3[C@H]1[C@H]2CC3=O	
InChI=1S/C7H9NO/c1-7-3-8-5(9)2-4(7)6(7)8/h4,6H,2-3H2,1H3	InChI=1S/C7H9NO/c1-7-3-8-5(9)2-4(7)6(7)8/h4,6H,2-3H2,1H3/t4-,6+,7-/m1/s1
