18
gdb 39794	3.47286	1.45836	1.19697	1.8497	76.69	-0.2454	0.0767	0.3221	1051.4394	0.148241	-401.831474	-401.824249	-401.823305	-401.86285	29.418	
C	-0.0344841559	 1.5201457233	-0.0053824133	-0.354392
N	 1.2473629622	 0.7495545846	 0.0484302546	-0.407672
C	-0.0171301197	 0.0536710288	 0.0060000307	 0.460525
C	-0.5517714255	-1.0267565849	 0.9678984496	-0.241764
C	-1.8009366196	-1.0881208304	 0.0232366839	-0.229728
C	-0.5814168286	-1.0097337564	-0.9582907638	-0.267907
C	 0.093604911	-2.0260895521	-0.0122892832	 0.559466
C	 1.28688947	-2.851670562	-0.0352630623	-0.311969
O	-0.0515886169	-3.4202916393	-0.0226719013	-0.302591
H	-0.2560968042	 2.0844091637	 0.8964109885	 0.123614
H	-0.2903120017	 2.0298775437	-0.9312165402	 0.114759
H	 1.6930275487	 0.7537217935	-0.8664658917	 0.230526
H	-0.5272410071	-1.0316790097	 2.0559668008	 0.089298
H	-2.3529774011	-2.0283882556	 0.0221833969	 0.117275
H	-2.4594696313	-0.2175089962	 0.039457478	 0.097965
H	-0.5936174717	-0.9978183428	-2.0480387207	 0.081836
H	 1.8372291971	-3.0002350503	-0.9630911843	 0.116789
H	 1.8616138041	-3.0101268478	 0.8754460779	 0.123972
128.0329	230.923	254.7479	279.2151	347.7093	400.0877	481.9476	507.7112	663.8293	673.6265	751.8164	793.8714	867.3062	877.3601	887.8504	905.9643	932.9116	968.3074	987.9096	1014.8181	1054.0033	1054.2005	1059.9551	1105.0521	1111.9072	1121.186	1136.0802	1151.6352	1154.2665	1195.6715	1201.4868	1217.4005	1254.9059	1269.9755	1441.8845	1458.8305	1502.6303	1529.5956	1565.4034	3073.2806	3088.1587	3104.0571	3120.7077	3140.3084	3149.5814	3174.4967	3187.7237	3489.7652
C1NC11C2CC1C21CO1	C1N[C@]21[C@H]1C[C@@H]2[C@]21CO2	
InChI=1S/C7H9NO/c1-4-6(2-8-6)5(1)7(4)3-9-7/h4-5,8H,1-3H2	InChI=1S/C7H9NO/c1-4-6(2-8-6)5(1)7(4)3-9-7/h4-5,8H,1-3H2/t4-,5+,6-,7-
