15
gdb 24916	5.01361	1.30504	1.0422	3.2401	75.41	-0.1777	-0.0183	0.1595	1082.243	0.114045	-416.830152	-416.82271	-416.821766	-416.86295	28.043	
N	-0.0429813285	 1.2781471739	 0.0310061377	-0.602789
C	-0.0132023145	 0.0135225565	 0.0149567337	 0.434636
N	-1.1132446675	-0.8346181314	 0.0154114886	-0.473791
C	-0.658790062	-2.1480170321	 0.0172228318	 0.310515
C	 0.6795990242	-2.0961463978	-0.0000113376	 0.276069
C	 1.2817348799	-3.4555651227	-0.0268462592	-0.409588
C	 0.0146402754	-4.3085040661	-0.0159414142	-0.088631
C	-1.0960097633	-3.5368305315	 0.0073818166	-0.194436
O	 1.1281507032	-0.7969156937	-0.0068977929	-0.258577
H	 0.8964641844	 1.6646459203	 0.0270117616	 0.226953
H	-2.0498892399	-0.4799455693	 0.0748071186	 0.27423
H	 1.8861352293	-3.6536170461	-0.9216571878	 0.143518
H	 1.9184982451	-3.6765934833	 0.8396207178	 0.142982
H	 0.042207303	-5.3887076414	-0.0227062572	 0.108769
H	-2.1199727086	-3.8841109654	 0.0194000225	 0.110141
34.3905	95.8489	271.7866	318.9869	329.6859	419.1034	535.1533	565.0719	624.1253	700.5496	706.0246	730.561	745.0853	798.3099	882.8188	903.1481	907.3786	923.0243	923.4645	1032.5948	1077.3061	1115.521	1143.692	1215.7583	1245.3467	1296.2294	1342.2555	1375.2469	1432.2144	1502.0257	1558.474	1695.3674	1789.3036	3032.6261	3062.3612	3222.7876	3246.5847	3549.4947	3710.2485
N=C1NC2=C(CC=C2)O1	[NH][C@H]1NC2=C(CC=C2)O1	
InChI=1S/C6H6N2O/c7-6-8-4-2-1-3-5(4)9-6/h1-2H,3H2,(H2,7,8)	InChI=1S/C6H7N2O/c7-6-8-4-2-1-3-5(4)9-6/h1-2,6-8H,3H2/t6-/m0/s1
