21
gdb 39136	3.25338	1.36856	1.23541	1.7878	81.16	-0.2536	0.0889	0.3425	1109.5356	0.184446	-387.078159	-387.070457	-387.069513	-387.110281	31.074	
C	-0.0141146387	 1.599907556	-0.092326207	-0.209703
C	 1.530519778	 1.5212074293	 0.0406369901	-0.274309
C	 1.390041593	 0.0756600628	 0.5988604071	 0.34675
C	-0.0733374789	 0.0549408549	 0.0462904117	-0.269928
C	 2.3939578734	-1.0066037256	 0.1486013585	-0.31006
C	 2.3790891366	-2.0990393932	 1.2457640096	-0.247092
C	 1.9905153928	-1.3354570239	 2.4966174455	 0.045884
O	 2.727457131	-0.1147781195	 2.6734614838	-0.273876
C	 1.4084952269	-0.0448923865	 2.1110706858	 0.001903
H	-0.4769033495	 2.1081265897	 0.7581651088	 0.102892
H	-0.4172447824	 2.0349372781	-1.0094721802	 0.097376
H	 2.0260472	 1.5232004538	-0.9351157559	 0.097566
H	 2.0302415073	 2.2509230063	 0.6829547331	 0.105247
H	-0.8480085998	-0.3664699107	 0.6943036554	 0.093689
H	-0.1261585147	-0.4466276667	-0.9244220964	 0.098026
H	 2.1555169527	-1.4002291241	-0.8433395614	 0.09228
H	 3.3907971834	-0.5604582385	 0.0933367448	 0.116641
H	 1.6164552375	-2.862104405	 1.0466916945	 0.102351
H	 3.3400136598	-2.6137808679	 1.3427816001	 0.107718
H	 1.7252391495	-1.853964744	 3.4148572037	 0.089395
H	 0.6720459619	 0.4788287246	 2.7177334884	 0.087252
105.6565	127.0508	200.1124	299.8829	327.521	368.2019	448.3335	507.1516	664.4461	678.3857	747.1658	792.9664	829.9469	836.7539	864.0579	881.5191	912.9309	940.2911	940.4821	956.1133	974.6597	995.8963	1035.7337	1054.7381	1096.924	1127.6362	1137.861	1192.1913	1203.6414	1217.3798	1221.5706	1254.7613	1261.7636	1274.0295	1283.7635	1299.447	1319.8369	1326.8156	1366.7632	1434.5106	1474.4136	1478.1697	1484.5558	1490.6464	1506.4546	3035.0758	3044.71	3050.7624	3058.452	3061.4354	3081.5389	3090.9205	3100.3772	3104.1337	3117.1974	3128.662	3146.2501
C1CC2(C1)CCC1OC21	C1CC2(C1)CC[C@H]1O[C@@H]21	
InChI=1S/C8H12O/c1-3-8(4-1)5-2-6-7(8)9-6/h6-7H,1-5H2	InChI=1S/C8H12O/c1-3-8(4-1)5-2-6-7(8)9-6/h6-7H,1-5H2/t6-,7-/m1/s1
