18
gdb 76055	2.63587	1.28732	1.11526	4.5817	77.42	-0.22	0.0251	0.2452	1158.7993	0.148482	-398.093675	-398.084727	-398.083783	-398.127625	32.793	
N	 0.2630727291	 1.4307045951	 0.0022341033	-0.52536
C	 0.0606971996	 0.0095101053	-0.0032347238	-0.071924
C	-0.4980813191	-0.6841284035	 1.2453098981	-0.276569
C	-0.9573222997	 0.1180050161	 2.336730688	 0.305312
N	-1.3485923701	 0.805062385	 3.1838390226	-0.358046
C	-1.2853991641	-0.6515795469	-0.064669916	 0.348951
C	-2.63523668	 0.0071344552	-0.3345448326	-0.320037
C	-2.8701462532	-1.1609024245	-1.3321752181	-0.155379
N	-1.6532077362	-1.8489015614	-0.8094164804	-0.363443
H	-0.1267757213	 1.8659627454	-0.8273702055	 0.235726
H	-0.1633967538	 1.8676584949	 0.8126765352	 0.253857
H	 0.8733898456	-0.5488713022	-0.4692697303	 0.104552
H	-0.0515087993	-1.6340421112	 1.5189673921	 0.137044
H	-3.310317362	 0.0185432751	 0.5229525828	 0.136276
H	-2.5910196728	 1.0097668718	-0.7651018754	 0.106643
H	-3.7857526089	-1.7427405107	-1.1959144015	 0.116445
H	-2.7986717736	-0.8534226801	-2.3813190052	 0.104195
H	-0.9828367801	-2.1304587035	-1.5181926832	 0.221756
81.0259	116.3431	132.2528	141.9707	190.8874	242.4514	356.8047	414.1805	466.0578	499.3793	607.1461	644.5652	715.0963	773.1151	785.8642	845.0522	865.4808	919.6806	938.9068	955.1617	1004.3297	1035.9961	1098.6241	1111.7052	1133.7847	1172.1444	1202.1564	1213.2543	1247.3576	1267.3947	1294.3797	1329.7051	1348.1333	1384.9088	1436.9471	1487.3619	1523.6076	1660.3247	2337.1744	3035.2568	3075.586	3086.6201	3097.3918	3129.3404	3174.1384	3502.6188	3510.205	3583.9978
NC1C(C#N)C11CCN1	N[C@H]1[C@@H](C#N)[C@]21CCN2	
InChI=1S/C6H9N3/c7-3-4-5(8)6(4)1-2-9-6/h4-5,9H,1-2,8H2	InChI=1S/C6H9N3/c7-3-4-5(8)6(4)1-2-9-6/h4-5,9H,1-2,8H2/t4-,5+,6+/m1/s1
