19
gdb 69655	4.19276	1.15738	1.08118	3.3533	75.84	-0.2323	0.0721	0.3044	1186.5232	0.157993	-422.974272	-422.965966	-422.965022	-423.007374	31.659	
C	 0.2509089479	 1.5475453939	 0.0578137336	-0.502033
C	-0.0480629445	 0.0858186407	 0.115457959	 0.42152
C	-1.4000709799	-0.633652804	-0.0490287771	-0.38189
C	-0.8678336057	-1.7342606863	 0.9292122003	 0.46455
C	-1.6051867932	-2.0439324954	 2.2491106083	-0.361206
C	-1.5678705809	-3.5027854558	 1.7529571705	-0.070827
O	-0.9008994886	-3.112618307	 0.5344627976	-0.310009
C	 0.4742747643	-0.9997007333	 0.974075781	-0.1208
O	 0.9303484102	-0.8396222658	-0.3759743036	-0.281157
H	 1.2831781452	 1.7388023864	 0.3625806602	 0.135229
H	 0.1198921116	 1.9298028266	-0.9608531058	 0.133381
H	-0.4215675948	 2.108561244	 0.7148147461	 0.123507
H	-2.2627697611	-0.0946442054	 0.3521960377	 0.101633
H	-1.606203279	-0.9756622188	-1.0653825107	 0.118509
H	-1.0380396957	-1.8388424844	 3.1597611311	 0.112009
H	-2.5992845867	-1.6024941416	 2.3385076906	 0.113269
H	-0.9583718463	-4.1910481547	 2.3503621316	 0.105257
H	-2.5402499593	-3.9689871969	 1.5558701184	 0.105161
H	 1.2272349565	-1.0020640223	 1.7564408112	 0.093896
73.6939	93.2755	196.2924	222.0124	285.5649	323.3673	395.7412	422.721	449.9527	567.2822	676.6267	772.2423	786.5518	844.2168	862.6684	883.8782	916.5729	926.1469	971.383	1001.3791	1005.2284	1026.4625	1050.5001	1128.3029	1139.4631	1152.7595	1171.3673	1184.68	1210.8788	1217.6015	1255.8135	1260.9725	1316.1727	1353.1644	1402.1863	1447.2528	1470.8465	1483.9511	1487.6801	1495.623	1532.8195	3021.4945	3034.2666	3061.497	3061.532	3072.3377	3095.9324	3121.1732	3125.085	3128.1802	3163.925
CC12CC3(CCO3)C1O2	C[C@]12C[C@]3(CCO3)[C@H]1O2	
InChI=1S/C7H10O2/c1-6-4-7(2-3-8-7)5(6)9-6/h5H,2-4H2,1H3	InChI=1S/C7H10O2/c1-6-4-7(2-3-8-7)5(6)9-6/h5H,2-4H2,1H3/t5-,6-,7+/m0/s1
