18
gdb 55799	4.38934	0.91466	0.82871	4.4685	74.67	-0.2469	0.0244	0.2713	1401.1516	0.146484	-439.043057	-439.03429	-439.033345	-439.078659	31.673	
C	-0.0149308286	 1.5419472554	 0.0524074724	-0.492498
C	 0.0284335814	 0.0234420732	 0.1321507437	 0.409516
O	 0.1747368939	-0.5707833925	 1.1819213156	-0.358986
N	-0.1379681445	-0.6175447927	-1.0732263601	-0.354341
C	-0.1760105897	-2.0446071043	-1.1862222347	 0.084844
C	-1.2232752594	-2.7858373783	-2.0746656425	 0.020337
C	-0.4888166929	-2.3189525968	-3.3566462471	-0.243235
C	 0.559925655	-2.8118266931	-2.3280819933	 0.020603
O	-0.3251141172	-3.9588551714	-2.0349082716	-0.295075
H	 0.2702986853	 1.9312577353	-0.9291243012	 0.116316
H	-1.0305914584	 1.8848381118	 0.2764158788	 0.152089
H	 0.6506150921	 1.9500594125	 0.8140901776	 0.155616
H	-0.2552294626	-0.0535043025	-1.898231534	 0.245112
H	-0.0417376593	-2.4789274284	-0.1984589646	 0.1375
H	-2.2864422645	-2.9572634683	-1.9045440818	 0.099933
H	-0.6212616865	-2.9703986096	-4.2210417293	 0.117318
H	-0.512602375	-1.2606899524	-3.6348210054	 0.084705
H	 1.623003991	-3.0143330081	-2.4600854925	 0.100247
29.6727	35.2449	88.3971	148.4024	287.7612	361.0744	365.9218	451.0769	559.5268	568.0108	620.1956	663.6136	737.8157	819.4179	864.6624	891.9102	896.5985	930.5542	974.2504	1000.9078	1005.9421	1049.8097	1075.9428	1096.7877	1137.226	1164.9632	1174.3639	1198.3718	1224.9351	1248.6659	1262.6795	1281.4337	1355.5018	1394.278	1467.7522	1487.2489	1497.2943	1535.7389	1792.1711	3044.9334	3051.2305	3111.3085	3116.6068	3121.2376	3141.2287	3149.7215	3167.7217	3648.9355
CC(=O)NC1C2CC1O2	CC(=O)N[C@H]1[C@H]2C[C@@H]1O2	
InChI=1S/C6H9NO2/c1-3(8)7-6-4-2-5(6)9-4/h4-6H,2H2,1H3,(H,7,8)	InChI=1S/C6H9NO2/c1-3(8)7-6-4-2-5(6)9-4/h4-6H,2H2,1H3,(H,7,8)/t4-,5+,6+
