19
gdb 71939	2.74711	1.96303	1.47973	1.9397	73.93	-0.2427	0.0731	0.3158	942.4029	0.160229	-423.005114	-422.997846	-422.996902	-423.036563	29.431	
C	 0.0700830568	 1.5306625385	 0.031585678	-0.458807
C	-0.0173038272	 0.0193344649	-0.0076671356	 0.420086
C	 0.3388138931	-0.6854223758	-1.3647683681	-0.281011
C	-0.9412586527	-1.5331229733	-1.2413589013	 0.110146
O	-0.7538769508	-2.681766727	-0.3811996563	-0.313589
C	-1.1654179782	-1.9380087868	 0.7941269829	 0.100013
C	-0.0021669176	-1.5951299921	 1.7123241314	-0.098636
O	 0.7038301092	-0.5158888184	 1.1046469488	-0.30974
C	-1.4170560531	-0.6734498931	-0.0413770489	-0.179428
H	 1.1152155521	 1.850679123	-0.0293910917	 0.129437
H	-0.4749171696	 1.9779951421	-0.8051929757	 0.111877
H	-0.3481419162	 1.9142625299	 0.9674754263	 0.119059
H	 0.2887668425	 0.0098658603	-2.2089919492	 0.096319
H	 1.2825229364	-1.2334080877	-1.3891006792	 0.111575
H	-1.5234903175	-1.7765236717	-2.1319441884	 0.078924
H	-2.0022794395	-2.4256332191	 1.3037633832	 0.080279
H	-0.3713844384	-1.2907753658	 2.7034589044	 0.092832
H	 0.6713044238	-2.4505306374	 1.8384750242	 0.115275
H	-2.3356177731	-0.0968016906	 0.0365263854	 0.07539
101.0511	231.2767	247.2694	293.2534	356.775	387.2169	420.4552	571.7543	652.9449	711.1568	769.932	806.21	847.7293	869.6046	884.0641	897.8443	923.8572	947.9015	974.0756	984.1757	1006.672	1066.6286	1093.7974	1106.8733	1153.145	1164.3415	1190.233	1196.7189	1215.9568	1230.4901	1246.6801	1295.274	1308.5473	1319.2562	1348.6827	1383.1778	1410.4906	1451.1549	1483.5881	1492.4673	1505.4677	2990.8799	3035.3117	3051.9821	3061.3424	3062.2162	3092.6529	3108.5818	3111.4239	3126.6947	3143.1289
CC12CC3OC(CO1)C23	C[C@@]12C[C@H]3O[C@@H](CO1)[C@@H]23	
InChI=1S/C7H10O2/c1-7-2-4-6(7)5(9-4)3-8-7/h4-6H,2-3H2,1H3	InChI=1S/C7H10O2/c1-7-2-4-6(7)5(9-4)3-8-7/h4-6H,2-3H2,1H3/t4-,5+,6+,7+/m1/s1
