19
gdb 86140	2.46532	1.45564	1.00963	1.7014	71.18	-0.26	-0.0424	0.2176	1186.1221	0.158282	-460.189063	-460.17987	-460.178926	-460.223372	34.435	
C	 0.0031900873	 1.5644786173	-0.0359846925	-0.396111
C	 0.0831300263	 0.0395929454	-0.0098840515	-0.008233
C	 0.8496525672	-0.5773144951	-1.2092851009	-0.258955
C	 1.1816971416	-2.006270608	-0.7362433272	 0.059355
O	 2.1706665899	-2.6860847191	-1.4526721769	-0.441895
C	 1.5908393224	-1.720100249	 0.6962273373	 0.329988
O	 2.5640299932	-2.1986191468	 1.2315055682	-0.341691
C	 0.7731003558	-0.5499862706	 1.2546750964	 0.028921
O	 1.6490222915	 0.3686707904	 1.8767622821	-0.430334
H	 1.0001853047	 2.006163718	 0.0243357408	 0.136087
H	-0.4729852943	 1.9031019232	-0.9616881324	 0.111959
H	-0.5813010872	 1.9471931619	 0.8059232486	 0.121136
H	-0.9370661934	-0.3642665333	-0.0263073086	 0.080843
H	 0.2720190225	-0.5614773559	-2.1360438542	 0.112546
H	 1.7889713359	-0.0396732044	-1.3861415851	 0.118375
H	 0.2451508864	-2.5931621319	-0.7162196406	 0.098056
H	 2.8440698491	-2.9419298014	-0.804799654	 0.293172
H	 0.0262856816	-0.9196486252	 1.9753309791	 0.090986
H	 2.3563978693	-0.1559456956	 2.2754033114	 0.295793
32.4849	127.4833	214.7494	222.7744	255.714	290.3382	307.1217	348.6625	392.1857	416.6288	478.4944	494.7808	582.0427	618.131	708.3919	819.2655	862.0651	929.9713	954.0895	987.4717	1012.4681	1050.981	1097.2215	1116.2443	1163.1518	1180.6096	1194.569	1233.7469	1263.239	1286.6029	1345.8872	1350.7246	1362.9914	1371.5332	1399.5611	1412.0577	1424.9627	1491.2067	1498.1138	1501.3166	1824.2839	2941.9663	2968.6126	3023.7932	3043.346	3046.8755	3107.8141	3111.5028	3132.1235	3719.0545	3758.5598
CC1CC(O)C(=O)C1O	C[C@H]1C[C@@H](O)C(=O)[C@H]1O	
InChI=1S/C6H10O3/c1-3-2-4(7)6(9)5(3)8/h3-5,7-8H,2H2,1H3	InChI=1S/C6H10O3/c1-3-2-4(7)6(9)5(3)8/h3-5,7-8H,2H2,1H3/t3-,4+,5-/m0/s1
