16
gdb 107866	2.77497	1.58589	1.20691	4.0195	69.86	-0.2545	-0.0179	0.2366	1034.4043	0.123168	-437.785838	-437.778125	-437.777181	-437.818468	28.805	
C	-0.1028791264	 1.3463366836	-0.0122659036	-0.269139
O	 0.0897432845	-0.0618916061	-0.0271331322	-0.281749
C	 0.7316516743	-0.5306307626	-1.1401292074	 0.405271
C	 2.1470827933	-0.3025793068	-1.6680341944	-0.248442
N	 1.5888378849	-1.317935365	-2.6675901963	-0.150985
C	 0.8275018444	-2.0402985093	-1.5092209964	-0.222291
C	-0.4636596169	-1.9421509326	-2.3180826744	 0.493355
O	-1.4640484017	-2.5480798451	-2.5342572793	-0.316077
C	 0.2033402276	-0.6120636108	-2.639367623	-0.242513
H	 0.8538756572	 1.8843586357	-0.0413201806	 0.12019
H	-0.7210547623	 1.6735690607	-0.8588363468	 0.12181
H	-0.6172830665	 1.5841248925	 0.9199115383	 0.142493
H	 2.3959075669	 0.6592767193	-2.1247677817	 0.114169
H	 2.9856930622	-0.6851475203	-1.0793238312	 0.117796
H	 1.3016856587	-2.8361194475	-0.9386965648	 0.109784
H	-0.02337024	 0.1950428046	-3.3330804761	 0.106328
71.0441	133.5277	172.5869	214.6326	325.687	381.4264	428.5418	543.155	581.7939	653.5589	713.3362	775.5946	806.8618	837.2486	879.6182	923.3343	1004.2838	1041.6129	1046.7621	1076.1318	1083.2788	1096.8052	1110.294	1170.5045	1179.7794	1191.7058	1208.6516	1235.6799	1252.6016	1315.8608	1484.7013	1491.0035	1503.1598	1527.796	1932.2175	3002.7911	3052.351	3061.2429	3115.4944	3138.3222	3146.9911	3152.7279
COC12CN3C1C(=O)C23	CO[C@@]12CN3[C@@H]1C(=O)[C@@H]23	
InChI=1S/C6H7NO2/c1-9-6-2-7-4(6)3(8)5(6)7/h4-5H,2H2,1H3	InChI=1S/C6H7NO2/c1-9-6-2-7-4(6)3(8)5(6)7/h4-5H,2H2,1H3/t4-,5+,6+
