19
gdb 88028	2.3186	1.36871	1.09763	4.2496	80.2	-0.2305	0.0226	0.2531	1191.9162	0.159397	-382.048291	-382.039287	-382.038343	-382.082611	33.135	
C	-0.0873970236	 1.4667811875	-0.0692719184	-0.400054
C	 0.0926386278	-0.033124491	-0.0535611679	-0.047121
C	 1.4825884831	-0.6470560381	-0.1270585595	-0.365481
C	 0.6972518847	-0.7046955077	 1.1441815899	 0.350984
N	 1.0258491138	-0.0072472297	 2.398036286	-0.358807
C	 0.4395246805	-1.1232953272	 3.1937019419	-0.170752
C	 0.1656876608	-1.9460613807	 1.8930481045	-0.27137
C	-1.2022698319	-2.3579996027	 1.6272791517	 0.291795
N	-2.2929991177	-2.6712992589	 1.4050703996	-0.335542
H	 0.6561648376	 1.9533006594	 0.5685996757	 0.122831
H	 0.0086471335	 1.8678210993	-1.0835905236	 0.116704
H	-1.0750787946	 1.744333007	 0.3126491783	 0.126508
H	-0.6911736298	-0.6008144384	-0.5496566816	 0.106421
H	 1.6266283839	-1.5615620142	-0.6943239943	 0.118739
H	 2.3296347948	 0.0336996942	-0.1534905815	 0.115124
H	 2.0287434203	 0.062592736	 2.5385163747	 0.224405
H	 1.1228038761	-1.6065907972	 3.8962316668	 0.117335
H	-0.4664560837	-0.8218403143	 3.7256741781	 0.133317
H	 0.8256284745	-2.8134586033	 1.8002184198	 0.124963
46.3506	101.1805	150.1837	170.966	202.5578	245.7927	346.4791	398.079	470.852	523.6423	558.9597	591.6449	727.7322	770.554	822.1323	874.8027	888.9113	902.1044	976.4055	995.9928	1011.0168	1041.3801	1059.2469	1089.4602	1113.7114	1126.8565	1153.0645	1186.3501	1211.2686	1231.7237	1305.9087	1326.3875	1344.4758	1377.7046	1408.2183	1425.4508	1481.0174	1488.362	1503.9706	1515.2027	2353.6167	3035.8647	3057.4258	3066.5521	3099.7377	3109.9436	3110.2293	3113.8685	3140.5188	3199.7169	3513.4453
CC1CC11NCC1C#N	C[C@H]1C[C@]21NC[C@H]2C#N	
InChI=1S/C7H10N2/c1-5-2-7(5)6(3-8)4-9-7/h5-6,9H,2,4H2,1H3	InChI=1S/C7H10N2/c1-5-2-7(5)6(3-8)4-9-7/h5-6,9H,2,4H2,1H3/t5-,6+,7+/m0/s1
