14
gdb 45947	2.31679	1.99364	1.16139	3.4789	63.33	-0.2504	-0.0613	0.1891	988.026	0.100833	-473.84977	-473.842137	-473.841192	-473.882271	27.905	
O	 0.020281842	 0.0127883673	-0.0838144009	-0.293571
C	 0.0060054592	 1.212111516	-0.0310568247	 0.331021
C	-1.2495785498	 2.0981390341	-0.0100976552	-0.283386
N	-0.7079822394	 3.4456978778	-0.0172874924	-0.351164
C	 0.6585907452	 3.5580936949	-0.0190274088	 0.362242
O	 1.3021774574	 4.5810290073	-0.0311875376	-0.366352
C	 1.1879896828	 2.1414055626	 0.0240946731	 0.204362
C	 2.4544331066	 1.7966685561	 0.7047495342	-0.215845
O	 2.3651730554	 1.8154241517	-0.7057547424	-0.243405
H	-1.8727500221	 1.8806698598	-0.8860849157	 0.152004
H	-1.8422214493	 1.8800499226	 0.88743709	 0.147997
H	-1.2824942285	 4.2740548538	-0.0182020248	 0.2642
H	 3.0199209224	 2.6126796746	 1.1504618334	 0.149507
H	 2.5399562081	 0.8111895714	 1.1588423419	 0.14239
71.6225	149.2421	220.8577	238.0922	256.2303	338.861	506.5363	521.1004	582.9662	603.526	644.7349	699.6862	747.6155	860.5567	893.2767	937.1689	1018.4972	1059.6059	1066.2788	1138.0143	1160.1229	1195.0837	1196.7266	1253.2484	1327.3661	1414.1718	1437.7352	1499.2506	1500.7884	1837.3889	1873.3023	3023.7929	3059.9868	3092.1651	3198.124	3636.7399
O=C1CNC(=O)C11CO1	O=C1CNC(=O)[C@]21CO2	
InChI=1S/C5H5NO3/c7-3-1-6-4(8)5(3)2-9-5/h1-2H2,(H,6,8)	InChI=1S/C5H5NO3/c7-3-1-6-4(8)5(3)2-9-5/h1-2H2,(H,6,8)/t5-/m1/s1
