18
gdb 85319	2.37656	1.85871	1.21253	2.1879	72.89	-0.2605	0.0167	0.2772	1043.0071	0.148987	-439.091136	-439.08331	-439.082365	-439.123772	29.674	
C	 0.2559313318	 1.5289926537	-0.0808965774	-0.401638
C	 0.0395487719	 0.0327205959	 0.0466702451	 0.095316
O	 0.5625278167	-0.631702634	-1.1288090244	-0.253738
C	 1.149563376	-1.8251920412	-0.8197036661	 0.408992
N	 1.5147370602	-2.6918789144	-1.6622015026	-0.546954
C	 1.340404898	-1.9396354387	 0.6735820417	-0.174667
C	 2.684240504	-1.36167398	 1.1723580519	-0.076518
O	 2.0556212308	-0.1040315546	 1.512364923	-0.289756
C	 0.7437747715	-0.6347561074	 1.231791303	 0.095767
H	 1.3234814545	 1.7558050164	-0.0640415547	 0.14609
H	-0.1789042077	 1.8963632942	-1.013566895	 0.129841
H	-0.2243162615	 2.0498440687	 0.7533320561	 0.122358
H	-1.0336883111	-0.1988164388	 0.1006245206	 0.087353
H	 1.2902025235	-2.3868313202	-2.6110532944	 0.223255
H	 1.0364312052	-2.9083076434	 1.0636579623	 0.112564
H	 3.0850501452	-1.8633837601	 2.0608452358	 0.110467
H	 3.4748407835	-1.2495504171	 0.4242632103	 0.126704
H	 0.1191991375	-0.669720019	 2.1300670349	 0.084563
85.5265	107.986	217.1649	235.2218	252.8513	328.9051	459.4014	507.3119	590.6001	680.8827	701.453	789.6066	836.2927	880.677	899.1684	905.7163	926.2098	963.0907	1005.5665	1027.2914	1054.7167	1068.5542	1111.2187	1129.2022	1159.2831	1163.1345	1214.0708	1247.8212	1278.6381	1307.0174	1336.6835	1355.1247	1371.6429	1389.4173	1408.2325	1485.1955	1496.0816	1526.0933	1773.6357	3005.8642	3029.4062	3051.4823	3060.6586	3088.8504	3122.4386	3144.7288	3146.7525	3470.8103
CC1OC(=N)C2COC12	C[C@H]1O[C]([NH])[C@H]2CO[C@@H]12	
InChI=1S/C6H9NO2/c1-3-5-4(2-8-5)6(7)9-3/h3-5,7H,2H2,1H3	InChI=1S/C6H9NO2/c1-3-5-4(2-8-5)6(7)9-3/h3-5,7H,2H2,1H3/t3-,4+,5+/m1/s1
