20
gdb 82741	2.27852	2.14428	1.58159	2.4927	77.9	-0.2237	0.0713	0.295	944.7942	0.1724	-403.097998	-403.090374	-403.08943	-403.1294	31.431	
C	-0.0400525668	 1.4949079361	 0.1225311066	-0.499129
C	 0.0170991958	-0.0045691988	 0.021079836	 0.319296
C	 0.8889975453	-0.7728612802	-1.002179404	-0.282619
C	 0.790051444	-1.8595769184	 0.0661175894	 0.001397
C	-0.7130802897	-2.103632489	 0.4923857965	-0.119954
C	-0.2599384584	-1.5970626231	 1.873290436	-0.170453
N	 0.7702796632	-0.7785497528	 1.1458042352	-0.180306
C	-1.3094845242	-0.8019942086	-0.088530201	 0.118131
O	-2.3388589225	-0.1974100173	 0.6734264543	-0.447196
H	 0.9607770813	 1.9073004293	 0.2751466965	 0.121751
H	-0.4603674416	 1.9274338646	-0.7924059611	 0.113425
H	-0.6769213278	 1.7995803136	 0.9576429664	 0.136086
H	 0.4898741256	-0.9415163562	-2.0050527973	 0.09287
H	 1.9064660489	-0.3790065954	-1.0533255483	 0.111569
H	 1.4985634768	-2.6821195358	 0.1760033354	 0.075485
H	-1.2504430166	-3.0410938383	 0.3290813031	 0.052648
H	-0.975473145	-1.0458582938	 2.4856159601	 0.112581
H	 0.2588823913	-2.3515042583	 2.4718529072	 0.099472
H	-1.6287483541	-0.9091371018	-1.1338857958	 0.061807
H	-3.1115793255	-0.770468966	 0.645172635	 0.283138
181.1717	209.3766	238.2636	248.0694	313.5282	371.1712	436.6597	472.8497	531.1895	627.2679	701.7345	721.8333	771.2322	818.107	851.6899	880.2243	892.1869	945.2986	967.0591	974.0857	1007.6339	1020.0863	1038.1182	1058.2016	1093.7867	1137.7776	1162.2153	1169.9501	1196.4682	1227.0129	1230.5168	1235.0056	1256.1393	1273.3989	1302.6937	1314.7816	1353.7161	1410.9792	1425.2056	1482.4077	1486.7466	1491.9822	1498.283	3004.8008	3037.6289	3058.8136	3064.4895	3079.511	3103.4677	3105.3262	3123.0068	3125.9521	3127.6462	3818.1053
CC12CC3C(CN13)C2O	C[C@@]12C[C@@H]3[C@@H](CN13)[C@H]2O	
InChI=1S/C7H11NO/c1-7-2-5-4(6(7)9)3-8(5)7/h4-6,9H,2-3H2,1H3	InChI=1S/C7H11NO/c1-7-2-5-4(6(7)9)3-8(5)7/h4-6,9H,2-3H2,1H3/t4-,5-,6-,7+/m1/s1
