18
gdb 55182	3.13522	1.3384	1.25272	3.8603	71.64	-0.2389	0.012	0.2509	1074.8671	0.148163	-439.079322	-439.071024	-439.07008	-439.112853	31.207	
N	 0.1947676299	 1.223542827	-0.2927329686	-0.529919
C	 0.0041653651	 0.0039772791	 0.2943860743	 0.391308
O	 0.8649644269	-0.5623620353	 0.9369713744	-0.356032
C	-1.4142315064	-0.5477480838	 0.1466189061	 0.036696
O	-1.4546468869	-1.9806454923	 0.0934789341	-0.289968
C	-2.3504646726	-2.0551341214	 1.22448219	 0.126408
C	-1.6141609211	-2.2399096897	 2.5728158279	-0.228941
C	-1.6338447221	-0.6921399889	 2.7817179524	-0.231658
C	-2.3279930423	-0.5116380881	 1.4044229769	-0.110767
H	 1.1170847087	 1.6268290138	-0.2495895542	 0.262707
H	-0.4551665479	 1.5966293193	-0.962682111	 0.25906
H	-1.9025512343	-0.1150784865	-0.7397478174	 0.067586
H	-3.2348044518	-2.6602293587	 1.0093810407	 0.075126
H	-2.1750580701	-2.8054089385	 3.3213866817	 0.094978
H	-0.6225945143	-2.6766435382	 2.4489287871	 0.133357
H	-2.2855053922	-0.3803608407	 3.6015002308	 0.09781
H	-0.6614464391	-0.2141574213	 2.9013264395	 0.127817
H	-3.1995373097	 0.1389162643	 1.3438270253	 0.074431
52.4976	72.5594	188.8861	242.7117	253.6781	363.6708	393.8118	399.8392	564.5551	637.0425	674.2594	713.1243	742.3732	787.7373	838.0145	853.3656	920.4157	923.5872	959.7967	998.1025	1046.2581	1063.1327	1078.0724	1094.2692	1134.0054	1174.3935	1207.3051	1233.4168	1252.0894	1270.8353	1288.8883	1302.6403	1303.9484	1332.614	1409.8376	1457.0005	1481.8417	1615.961	1801.8765	2978.9216	3063.3354	3071.4938	3078.3101	3115.7501	3130.2578	3144.1422	3595.8706	3729.6354
NC(=O)C1OC2CCC12	NC(=O)[C@H]1O[C@H]2CC[C@@H]12	
InChI=1S/C6H9NO2/c7-6(8)5-3-1-2-4(3)9-5/h3-5H,1-2H2,(H2,7,8)	InChI=1S/C6H9NO2/c7-6(8)5-3-1-2-4(3)9-5/h3-5H,1-2H2,(H2,7,8)/t3-,4+,5+/m1/s1
