20
gdb 64496	3.03067	1.53421	1.21642	2.1154	78.82	-0.2268	0.0781	0.3049	1073.9411	0.171114	-403.033392	-403.02527	-403.024326	-403.066138	31.67	
C	 0.1022118927	 1.6685130496	 0.4092066254	-0.475579
C	 0.0128284369	 0.168535107	 0.1199201908	 0.336941
C	-1.3781352275	-0.2635962081	 0.5572883282	-0.008414
C	-2.5794000998	 0.1379873268	-0.189174376	-0.174811
O	-2.1237894846	-1.2133969877	-0.2077697507	-0.234979
C	 0.6451383746	-0.4841446803	-1.1474861806	-0.103642
C	 2.0049205897	-0.1769510349	-0.4877530667	-0.183377
N	 1.1799243038	-0.6912774204	 0.711055635	-0.191753
C	 0.7232483321	-1.7713173912	-0.2932462406	-0.174233
H	 1.0986934499	 2.0909578472	 0.2878368844	 0.126026
H	-0.5792145587	 2.2200473477	-0.2459018212	 0.121518
H	-0.2082575938	 1.8605181819	 1.4423318195	 0.128529
H	-1.4753686828	-0.3919454989	 1.6374043519	 0.107288
H	-3.5160461833	 0.3133814918	 0.3379765174	 0.116798
H	-2.4711330652	 0.6742106233	-1.1313731081	 0.114769
H	 0.3451129822	-0.3672171884	-2.1950244168	 0.063618
H	 2.8368098112	-0.8406567309	-0.7354737245	 0.101197
H	 2.3548389146	 0.8505250823	-0.4062823277	 0.098544
H	-0.1921909929	-2.2902193017	-0.0246076002	 0.136796
H	 1.5210209007	-2.4777895051	-0.5354681896	 0.094765
84.5095	120.1705	153.7249	230.2066	281.8029	377.942	430.1375	445.3823	602.5559	612.2202	667.3154	757.1264	784.5984	814.2007	859.4964	891.6472	900.8018	921.7421	954.9738	1003.9369	1019.1271	1055.8267	1065.3807	1090.2636	1104.9012	1117.6393	1156.4309	1162.0097	1171.2465	1193.5533	1198.4978	1217.9382	1231.1304	1255.8566	1275.0421	1312.1454	1409.3109	1417.4882	1485.1101	1494.3328	1526.8114	1535.4397	1569.6038	3034.8241	3043.4327	3071.7656	3080.6217	3080.8353	3091.4547	3100.6693	3137.4612	3157.5004	3167.3507	3184.6801
CC1(C2CO2)C2CN1C2	C[C@@]1([C@H]2CO2)[C@H]2CN1C2	
InChI=1S/C7H11NO/c1-7(6-4-9-6)5-2-8(7)3-5/h5-6H,2-4H2,1H3	InChI=1S/C7H11NO/c1-7(6-4-9-6)5-2-8(7)3-5/h5-6H,2-4H2,1H3/t6-,7+/m1/s1
