17
gdb 72754	3.19745	1.41659	1.17699	2.9091	75.88	-0.2423	-0.0531	0.1892	1062.6963	0.13554	-421.821698	-421.813978	-421.813034	-421.853745	30.056	
C	-0.1478657229	 1.6211713836	-0.0976002196	-0.440796
C	 0.0450468903	 0.1143148955	-0.0051914065	 0.399056
C	 0.7746324769	-0.5009360469	-1.2024280496	-0.41077
C	 2.1531499817	-0.9080224725	-0.5961331583	 0.384573
O	 3.1405387234	-1.191210563	-1.2254708839	-0.318694
C	 1.9517387753	-1.0173275261	 0.8874464102	-0.325781
C	 0.7757271255	-0.4579537035	 1.1719884555	 0.187542
C	-0.5455697663	-0.6624787818	 1.8578476247	-0.16754
O	-1.1794467882	-0.5135844191	 0.5484390572	-0.341029
H	 0.7847445791	 2.1148315182	-0.3882594073	 0.129201
H	-0.9057054785	 1.8450201402	-0.854979222	 0.136433
H	-0.4831296824	 2.0413245213	 0.8544705276	 0.121677
H	 0.2733643633	-1.4261665479	-1.5066035411	 0.149122
H	 0.8849020892	 0.1403822096	-2.0789765267	 0.120366
H	 2.6051760134	-1.6044341289	 1.519268169	 0.122865
H	-0.7187402588	-1.6459572259	 2.3049001611	 0.133249
H	-0.8665779408	 0.1226795073	 2.5535282698	 0.120527
98.2533	190.7666	229.9711	248.7829	335.9634	353.5054	387.6911	508.4454	537.7068	589.8644	614.0509	722.0268	790.0557	804.8472	858.4956	868.0112	918.3721	940.6748	969.0854	1001.5215	1051.0583	1066.2054	1135.1306	1137.6432	1158.1294	1200.7901	1222.7944	1256.4644	1306.0409	1329.0945	1404.9057	1449.3266	1484.7315	1489.5004	1506.2132	1708.4272	1826.4402	3024.808	3038.8453	3061.5301	3089.1461	3112.2612	3117.5126	3124.678	3225.3263
CC12CC(=O)C=C1CO2	C[C@@]12CC(=O)[CH][C]1CO2	
InChI=1S/C7H8O2/c1-7-3-6(8)2-5(7)4-9-7/h2H,3-4H2,1H3	InChI=1S/C7H8O2/c1-7-3-6(8)2-5(7)4-9-7/h2H,3-4H2,1H3/t7-/m1/s1
