16
gdb 128066	4.46164	1.03254	0.85802	3.2046	74.4	-0.2507	-0.029	0.2217	1305.6927	0.126524	-434.117029	-434.108545	-434.107601	-434.151158	29.904	
C	 0.1195049145	 1.4231969119	 0.1301895267	-0.325762
N	 0.1692058352	-0.0258498867	 0.0235663796	-0.345719
C	 0.5756860072	-0.6217702794	-1.1477649144	 0.329323
O	 0.8268530003	 0.0042089116	-2.1612867448	-0.369385
C	 0.6573369908	-2.1003102013	-1.096584343	 0.294188
C	 1.3936661204	-2.9681224905	-1.8801872375	-0.273298
C	 1.089219237	-4.2487303589	-1.381482651	-0.006042
N	 0.2180172494	-4.1969646304	-0.3736972556	-0.21458
N	-0.0154784125	-2.8853988113	-0.205168478	-0.281074
H	 1.0977110406	 1.8587465206	 0.3698063062	 0.132076
H	-0.2024143323	 1.8249819348	-0.8307566683	 0.168038
H	-0.5966049487	 1.7094120532	 0.9044277395	 0.125374
H	 0.3100877771	-0.5441794299	 0.8767051013	 0.244447
H	 2.057895636	-2.689955975	-2.6810447096	 0.129267
H	 1.4627033561	-5.2061390314	-1.713226983	 0.120041
H	-0.745480231	-2.6007705972	 0.4268665219	 0.273104
59.9474	79.0273	118.6245	145.268	241.6103	296.3627	386.1996	468.0727	516.4843	562.145	650.4487	695.0646	776.6559	813.1977	842.3638	910.4453	937.4423	981.9915	1049.8537	1067.2002	1139.8614	1148.115	1170.8014	1196.4314	1267.7135	1298.2584	1355.4824	1442.1702	1447.7687	1469.6153	1483.2046	1500.5881	1539.9441	1600.2819	1771.2652	3026.1979	3100.0395	3157.6816	3250.8304	3285.4782	3623.8474	3663.477
CNC(=O)C1=CC=NN1	CNC(=O)c1ccn[nH]1	
InChI=1S/C5H7N3O/c1-6-5(9)4-2-3-7-8-4/h2-3H,1H3,(H,6,9)(H,7,8)	InChI=1S/C5H7N3O/c1-6-5(9)4-2-3-7-8-4/h2-3H,1H3,(H,6,9)(H,7,8)
