18
gdb 48701	3.65565	1.15108	1.01014	3.3937	79.42	-0.2477	-0.0231	0.2245	1195.5609	0.147528	-401.903803	-401.89583	-401.894886	-401.936435	30.742	
O	-0.1436170521	 0.0287829935	 0.0323165922	-0.268493
C	 0.004073368	 1.2252400289	-0.0560443491	 0.059805
C	 1.2975622432	 1.9107600109	 0.0039481319	 0.268254
C	 1.4216836421	 3.3837204889	 0.32249187	-0.339497
C	 1.807057309	 2.9528592668	-1.052189652	-0.189423
C	 3.1422215286	 2.238966781	-1.0438477176	 0.378507
C	 4.0086102709	 2.0062853314	-2.2150414904	-0.313431
N	 4.4663342252	 2.8531447058	-1.0903819517	-0.362144
C	 2.6702358457	 1.2273923262	 0.0181945117	-0.375328
H	-0.86627296	 1.9058126174	-0.2105452433	 0.062224
H	 0.4827440961	 3.9251022933	 0.3939921523	 0.126572
H	 2.1768317513	 3.6931118747	 1.0399880823	 0.130809
H	 1.2767054718	 3.2991883244	-1.932144213	 0.105937
H	 4.5378688808	 1.0630495759	-2.3212484595	 0.125694
H	 3.7413515863	 2.4837693522	-3.155082397	 0.113654
H	 4.3919038064	 3.8371730686	-1.3395027478	 0.230997
H	 3.2038835001	 1.2496728986	 0.9720220441	 0.11275
H	 2.6216913466	 0.2009603816	-0.3499446232	 0.133113
77.9625	152.4888	176.1812	276.6491	287.4221	356.5893	390.8888	474.5748	488.0496	565.1511	732.9988	756.2086	807.4799	834.6124	876.9839	918.5072	944.0375	957.9915	983.611	984.764	1007.9974	1045.6964	1050.8016	1092.8014	1109.8423	1132.2599	1136.8536	1220.6951	1231.1434	1255.7647	1285.6885	1292.6872	1379.5974	1426.5804	1436.7977	1478.2115	1491.3102	1517.4888	1801.0521	2851.5231	3066.5847	3101.5538	3115.2444	3128.4461	3177.9451	3186.8918	3203.157	3489.5011
O=CC12CC1C1(CN1)C2	O=C[C@]12C[C@H]1[C@]1(CN1)C2	
InChI=1S/C7H9NO/c9-4-6-1-5(6)7(2-6)3-8-7/h4-5,8H,1-3H2	InChI=1S/C7H9NO/c9-4-6-1-5(6)7(2-6)3-8-7/h4-5,8H,1-3H2/t5-,6-,7-/m1/s1
