21
gdb 79332	2.47555	1.73815	1.43835	1.707	80.5	-0.2482	0.0741	0.3223	1023.865	0.185028	-387.108288	-387.100541	-387.099597	-387.13988	32.086	
C	-0.0218133095	 1.4731725888	-0.036410945	-0.501142
C	 0.0540374844	-0.0292530379	-0.0479478441	 0.348981
C	 1.1622494426	-0.7887818183	-0.7831306251	-0.284385
C	 0.7011871733	-2.2186443753	-0.426359505	-0.082969
C	 0.5765967462	-2.1345353028	 1.1113535223	-0.23257
C	-0.3050762401	-0.886641153	 1.1525670945	-0.101196
C	-1.1789637115	-0.9259059336	-0.0887058446	-0.156968
C	-0.7955322822	-2.1881605294	-0.8509335386	 0.170889
O	-1.0409740254	-2.1478096812	-2.244514606	-0.455904
H	 0.8803182633	 1.9141574143	 0.4039861865	 0.117038
H	-0.1248158793	 1.8793462237	-1.0499384715	 0.11184
H	-0.8792617772	 1.823762253	 0.5471398321	 0.116953
H	 1.1764492691	-0.5991660798	-1.8628367498	 0.081574
H	 2.1590604412	-0.5585541862	-0.3907938556	 0.092998
H	 1.2863500647	-3.0421534919	-0.8331806739	 0.065874
H	 0.090809481	-3.0157834015	 1.5440940248	 0.095732
H	 1.5416835025	-1.9939954595	 1.6099273995	 0.093672
H	-0.6545129912	-0.4440420337	 2.0770662145	 0.07938
H	-2.1846085413	-0.5242613948	-0.1033613541	 0.080361
H	-1.3239819615	-3.0771287964	-0.4900030308	 0.07954
H	-0.828375719	-1.2626942947	-2.55656376	 0.280302
159.1981	215.7888	235.6973	273.4054	299.0001	350.6874	420.3804	471.9961	529.8033	583.4952	653.8497	731.7	796.941	856.1809	859.6311	891.404	909.3514	917.5446	931.3423	962.6375	992.4653	1007.3564	1029.3281	1057.8234	1073.7176	1083.3015	1100.0373	1133.0417	1167.326	1174.924	1233.1387	1242.2005	1266.3708	1270.1651	1293.6245	1301.4822	1317.6039	1338.8357	1419.7063	1429.5981	1433.8033	1491.8144	1495.6722	1501.0937	1514.1532	3019.6136	3031.9361	3038.6435	3054.5905	3071.3716	3075.5611	3080.5892	3094.7791	3129.9489	3185.6387	3195.534	3821.1589
CC12CC3CC1C2C3O	C[C@@]12C[C@H]3C[C@@H]1[C@@H]2[C@H]3O	
InChI=1S/C8H12O/c1-8-3-4-2-5(8)6(8)7(4)9/h4-7,9H,2-3H2,1H3	InChI=1S/C8H12O/c1-8-3-4-2-5(8)6(8)7(4)9/h4-7,9H,2-3H2,1H3/t4-,5-,6-,7+,8-/m1/s1
