20
gdb 83434	2.98511	1.33854	1.13797	1.4317	79.27	-0.2114	0.076	0.2874	1147.7843	0.171073	-403.077066	-403.068659	-403.067715	-403.109874	32.841	
O	-0.0191416347	 1.3882927648	 0.1836979637	-0.426464
C	-0.0684676714	-0.0126311868	 0.1843385022	 0.06899
C	-0.439298974	-0.7436939849	 1.4401340242	-0.167553
C	-1.5594602957	 0.0067062314	 2.1665688453	-0.214386
C	-2.4484773088	-0.0538598234	 0.8856414746	-0.276671
C	-1.3357177609	-0.7987509271	 0.1473079426	 0.302967
N	-1.621773184	-1.7752654739	-0.8486484941	-0.15156
C	-0.7067635476	-2.8996909318	-1.0057699492	-0.230092
C	-2.0516718135	-3.0991774654	-0.3993702667	-0.22538
H	-0.297601213	 1.693489039	-0.6861984234	 0.286791
H	 0.7482669942	-0.4873359047	-0.3631501721	 0.080939
H	 0.2340080666	-1.4633873465	 1.8926499856	 0.082314
H	-1.9838251466	-0.5650209856	 2.9943622203	 0.096465
H	-1.2975080148	 1.0072490111	 2.5182015496	 0.112601
H	-3.3346383085	-0.6776354531	 1.0226434211	 0.103008
H	-2.7511865291	 0.9015873457	 0.4480288492	 0.093753
H	-0.5073407347	-3.2061500596	-2.0283727243	 0.117924
H	 0.14725302	-2.9635271159	-0.3341559068	 0.115017
H	-2.0840581171	-3.283454364	 0.6726428928	 0.114392
H	-2.8545856864	-3.5525816294	-0.9726705646	 0.116948
94.3774	151.6838	198.892	224.9061	237.7032	282.9008	341.2743	448.2629	522.9436	530.8349	614.6255	752.4781	777.9088	798.6186	835.4699	861.9581	899.021	927.5683	945.2809	964.077	1008.2832	1028.4181	1033.705	1076.0139	1113.6356	1124.9547	1136.2026	1143.5385	1173.1434	1181.7308	1210.8912	1223.1701	1239.554	1249.5235	1290.2687	1301.6136	1330.4056	1365.1807	1463.4078	1474.0131	1487.9708	1508.7478	1515.1939	3057.1846	3068.1795	3086.3083	3100.3384	3103.6616	3105.253	3123.6	3169.4765	3182.9165	3197.8275	3807.3163
OC1C2CCC12N1CC1	O[C@H]1[C@H]2CC[C@@]12N1CC1	
InChI=1S/C7H11NO/c9-6-5-1-2-7(5,6)8-3-4-8/h5-6,9H,1-4H2	InChI=1S/C7H11NO/c9-6-5-1-2-7(5,6)8-3-4-8/h5-6,9H,1-4H2/t5-,6+,7+/m1/s1
