13
gdb 43235	3.60922	1.2601	0.9874	3.2834	72.85	-0.2616	-0.1048	0.1568	1104.5656	0.090608	-415.613997	-415.606949	-415.606005	-415.645783	26.308	
O	 0.0685702081	-0.0162986562	-0.0719121569	-0.311791
C	 0.012107839	 1.1854035186	-0.0053903937	 0.463092
C	-1.2240416232	 2.0217749909	 0.0914653472	-0.310014
C	-0.9069939489	 3.3281673666	 0.0143092056	 0.268025
C	-1.8116612372	 4.4210751425	 0.0454797171	 0.224847
N	-2.5225651688	 5.3355341811	 0.0538316904	-0.319221
C	 0.5874398158	 3.5196842004	-0.0584179324	-0.169419
N	 1.2388928826	 3.0069979859	 1.1686569727	-0.317787
C	 1.1745660482	 2.1637546625	-0.0598247546	-0.180341
H	-2.2130579988	 1.6010443354	 0.210424301	 0.149685
H	 1.0102993461	 4.3593186991	-0.5956332308	 0.127461
H	 2.1801148613	 3.3945682993	 1.2370549245	 0.249558
H	 2.0822643458	 1.896940954	-0.5863596599	 0.125906
115.1911	148.128	185.5312	318.6055	404.8616	428.4282	499.3124	558.8948	616.5288	686.5244	743.8267	831.9764	841.3393	849.6343	887.8364	918.545	931.2832	1024.4422	1116.5014	1141.9078	1147.999	1181.2752	1251.4975	1288.4999	1347.8449	1385.376	1635.1714	1830.3342	2338.2034	3197.6216	3206.2871	3240.9146	3471.8718
O=C1C=C(C#N)C2NC12	O=C1C=C(C#N)[C@H]2N[C@@H]12	
InChI=1S/C6H4N2O/c7-2-3-1-4(9)6-5(3)8-6/h1,5-6,8H	InChI=1S/C6H4N2O/c7-2-3-1-4(9)6-5(3)8-6/h1,5-6,8H/t5-,6+/m1/s1
