19
gdb 116108	3.28099	1.0693	0.85901	1.8892	72.48	-0.2458	-0.0219	0.2239	1325.2217	0.159717	-460.186374	-460.177765	-460.176821	-460.21996	32.37	
O	 0.0456825751	 1.4106125959	 0.0872991289	-0.423202
C	 0.0409875145	 0.003592518	-0.0081778403	-0.066442
C	-1.3794287496	-0.5504720888	-0.0223396946	 0.08258
C	-1.4341471403	-2.0857882692	-0.1281273374	-0.310642
C	-2.8565778683	-2.5886355907	 0.0761751749	 0.372473
O	-3.3798322426	-3.3981911116	-0.6515188512	-0.301754
C	-3.5635304103	-1.9606564365	 1.2686556626	-0.298799
C	-3.3546662703	-0.4353983228	 1.2743966177	-0.092048
O	-1.9791048236	-0.1094602139	 1.1929003385	-0.26834
H	-0.5350301683	 1.6256071861	 0.8270302134	 0.290248
H	 0.5504269264	-0.2616726607	-0.9400162114	 0.113267
H	 0.591496883	-0.4644421032	 0.824901249	 0.090683
H	-1.9229844737	-0.103558254	-0.8714256621	 0.085948
H	-1.0650403046	-2.437047444	-1.0948226735	 0.124695
H	-0.8012770021	-2.5092655029	 0.6636660934	 0.123933
H	-4.6237966179	-2.2234276355	 1.2424887641	 0.124113
H	-3.1230131232	-2.3741164969	 2.1849772402	 0.128172
H	-3.903854628	 0.0212553269	 0.4355704937	 0.106192
H	-3.7270269562	 0.0058376438	 2.2025259241	 0.118924
78.9203	115.8584	138.4453	195.8888	280.1402	350.8887	386.1609	437.1749	462.7516	477.9623	518.9794	536.5753	701.8649	771.6379	820.8566	839.2796	925.8327	942.3003	998.4526	1064.7452	1069.1062	1090.399	1106.4	1130.5366	1178.8026	1220.6831	1238.3318	1247.2464	1266.378	1285.3483	1332.7551	1350.0363	1374.5444	1394.2179	1414.9343	1442.829	1447.9234	1460.2203	1496.6844	1506.8736	1823.2109	2963.9529	2977.9505	2983.6389	3026.4597	3036.5243	3082.9128	3094.4125	3111.8599	3114.3426	3793.4863
OCC1CC(=O)CCO1	OC[C@H]1CC(=O)CCO1	
InChI=1S/C6H10O3/c7-4-6-3-5(8)1-2-9-6/h6-7H,1-4H2	InChI=1S/C6H10O3/c7-4-6-3-5(8)1-2-9-6/h6-7H,1-4H2/t6-/m1/s1
