14
gdb 130377	7.12672	0.8444	0.75495	14.7548	76.64	-0.1517	-0.0825	0.0692	1406.4803	0.102277	-466.13463	-466.12658	-466.125636	-466.167732	29.39	
N	 0.0152494272	 1.3642158685	 0.007694672	-0.506702
C	 0.0564649433	 0.0372257832	-0.0001036911	 0.241939
N	 1.1370581061	-0.6828150424	-0.0117816693	-0.335463
H	 2.0731041482	-0.2913647831	-0.016111626	 0.294606
C	 1.1133934	-2.1107476373	-0.0197425568	 0.451308
N	-0.0340607052	-2.7321041385	-0.0154504651	-0.286641
O	 0.4270583757	-4.0818569344	-0.0262080315	-0.271884
C	 1.8413672465	-4.0649550811	-0.0357679376	 0.432179
N	 2.5534396249	-5.1217540651	-0.0466431798	-0.604597
N	 2.2661320827	-2.7486859725	-0.0312430537	-0.452689
H	 0.8475259701	 1.9334574957	 0.0050572426	 0.298809
H	-0.8724264106	 1.8371304777	 0.0166468718	 0.310716
H	-0.8763566566	-0.5216595113	 0.0032797829	 0.226219
H	 1.9459511778	-5.9396783393	-0.0471261683	 0.202199
63.2476	129.6341	136.8073	229.6552	360.1489	365.7694	392.3817	411.3893	532.245	575.2622	670.5734	733.5076	742.2353	755.8599	771.1023	772.1347	877.8659	929.8385	1037.2619	1062.6224	1064.8422	1109.3284	1268.5609	1318.9556	1355.6185	1392.5402	1449.048	1631.3436	1662.231	1731.2946	1771.1929	3195.3429	3502.4381	3565.5297	3601.6383	3725.0171
NC=[NH+]C1=NOC(=N)[N-]1	[NH2]=CNc1noc([NH])n1	
InChI=1S/C3H4N5O/c4-1-6-3-7-2(5)9-8-3/h1H,(H3-,4,5,6,7,8)/q-1/p+1	InChI=1S/C3H5N5O/c4-1-6-3-7-2(5)9-8-3/h1,5H,4H2,(H,6,7,8)
