14
gdb 130222	3.28052	1.41786	1.01907	2.2592	67.16	-0.2063	-0.0127	0.1937	1078.168	0.10408	-466.215015	-466.207312	-466.206368	-466.247401	28.584	
N	 0.5825610681	 0.8730157117	-0.9175964748	-0.609093
C	 0.2401539711	-0.300155333	-0.2828759092	 0.29109
N	-1.0170013175	-0.7392015903	-0.1852028373	-0.275144
N	-0.9121807287	-1.8324462055	 0.5746128694	-0.088337
N	 0.3046434507	-2.1597432363	 0.9721445455	-0.280713
C	 1.0637938025	-1.2049024887	 0.4387323475	 0.347828
N	 2.4425328708	-1.2089776552	 0.6893634479	-0.395288
C	 3.4238375657	-0.6938905478	-0.0983564781	 0.145997
O	 3.2640643142	-0.0910444934	-1.1425130408	-0.323386
H	 1.5123023086	 0.8331836822	-1.3250388501	 0.278238
H	-0.1305760683	 1.1966856809	-1.5558620851	 0.251486
H	-1.7194198539	-2.3663970656	 0.846045503	 0.292885
H	 2.728451593	-1.7628699926	 1.4838360646	 0.268892
H	 4.4234349337	-0.8814026564	 0.3333660175	 0.095547
69.9429	207.8031	216.6107	276.3038	318.2483	346.2071	411.2231	434.6921	491.8568	579.4693	616.0821	686.1133	723.4076	750.4423	791.0048	870.1054	984.8638	1017.8246	1111.2945	1165.6407	1200.5101	1260.5383	1315.6736	1375.9859	1432.7818	1476.7844	1513.2309	1590.7274	1599.8132	1653.5824	1789.5945	2975.4617	3491.0187	3614.4934	3635.211	3691.3249
NC1=NNN=C1NC=O	Nc1n[nH]nc1NC=O	
InChI=1S/C3H5N5O/c4-2-3(5-1-9)7-8-6-2/h1H,(H4,4,5,6,7,8,9)	InChI=1S/C3H5N5O/c4-2-3(5-1-9)7-8-6-2/h1H,(H4,4,5,6,7,8,9)
