16
gdb 12665	2.69988	2.30696	1.48628	5.0341	60.39	-0.2631	0.0156	0.2788	861.3009	0.130539	-420.922772	-420.915047	-420.914103	-420.954762	28.398	
C	-0.4213883979	 1.4636840319	-0.0092011258	-0.404849
C	 0.1232848418	 0.0399218634	-0.0463808813	-0.149143
C	 0.9687664221	-0.3697062611	-1.2578910885	 0.080498
O	 1.7826260821	 0.7340835376	-1.6127840167	-0.423431
C	 1.7934863282	-1.5247491068	-0.6624733527	-0.102087
O	 1.9776401065	-1.2049652783	 0.7220782531	-0.222947
C	 1.0518207163	-0.2876655839	 1.1252907879	 0.455565
O	 1.0137536571	 0.1360714078	 2.2423793809	-0.341669
H	 0.3780540629	 2.186533382	-0.1775754633	 0.148187
H	-1.1868176337	 1.6104681267	-0.7762728483	 0.112488
H	-0.8630412509	 1.6566685919	 0.971284299	 0.139806
H	-0.7077268192	-0.6758931558	 0.0316005199	 0.111499
H	 0.3605581407	-0.706206307	-2.1079861683	 0.07738
H	 2.3556897609	 0.4724556474	-2.3400276179	 0.290132
H	 1.2672530598	-2.4838871829	-0.7482924933	 0.113181
H	 2.7806082933	-1.6185338927	-1.123481115	 0.115388
91.1469	184.3246	193.3497	251.0822	255.4953	285.0997	391.9652	490.5331	521.8184	614.8476	726.5571	766.1791	793.2302	870.6218	912.3901	993.7712	1014.9713	1063.7007	1073.7861	1118.7533	1157.6637	1187.0578	1197.4634	1241.329	1309.5242	1312.6996	1353.8239	1389.6358	1404.7039	1433.4339	1490.1706	1503.4914	1505.8848	1887.0308	3008.3656	3018.0346	3033.1587	3056.436	3094.7829	3126.8517	3150.3541	3824.3226
CC1C(O)COC1=O	C[C@H]1[C@@H](O)COC1=O	
InChI=1S/C5H8O3/c1-3-4(6)2-8-5(3)7/h3-4,6H,2H2,1H3	InChI=1S/C5H8O3/c1-3-4(6)2-8-5(3)7/h3-4,6H,2H2,1H3/t3-,4-/m0/s1
