16
gdb 51828	2.86189	1.22189	0.98572	4.5823	67.45	-0.2752	-0.0103	0.2648	1189.6853	0.124712	-475.059768	-475.051528	-475.050583	-475.093618	29.174	
N	-0.2396642305	 1.3122193491	-0.3698686411	-0.538175
C	-0.1414187139	 0.0595591013	-0.2589621104	 0.422037
O	 1.0117033889	-0.6517147112	-0.1571265923	-0.237202
C	 0.7261112002	-2.0563455874	 0.0068901233	-0.085493
C	-0.7022997805	-2.236844167	-0.5254959052	-0.259441
C	-1.3333252285	-0.8890309908	-0.1958677839	 0.01636
O	-1.8320946387	-0.9528195193	 1.1532907995	-0.21058
C	-2.6183403104	 0.0721725109	 1.5676339196	 0.168261
O	-3.0561214121	 0.1166453834	 2.67650543	-0.269323
H	 0.678345183	 1.7598100125	-0.3483566927	 0.232166
H	 1.4806296571	-2.6152418581	-0.5491945454	 0.129078
H	 0.80053819	-2.30866166	 1.0696111469	 0.13731
H	-0.689376078	-2.3788966419	-1.609896606	 0.127791
H	-1.236106663	-3.0680426521	-0.0636542214	 0.136971
H	-2.1270692019	-0.5776609418	-0.877499554	 0.118509
H	-2.7992295917	 0.8248387224	 0.7817459431	 0.111731
66.0432	88.0964	130.784	174.8465	242.3194	280.7067	381.3129	451.2498	582.2508	671.3376	677.7272	732.1883	861.4882	901.0035	908.8597	931.5602	972.8705	999.1608	1039.1063	1045.4881	1108.1534	1125.4812	1166.3479	1215.6397	1230.2917	1282.901	1300.5779	1345.3401	1358.4156	1411.9767	1441.181	1476.0101	1520.3372	1780.2945	1867.0198	3006.0141	3057.3155	3071.3962	3100.8541	3121.7061	3141.3306	3475.1214
N=C1OCCC1OC=O	[NH][C]1OCC[C@H]1OC=O	
InChI=1S/C5H7NO3/c6-5-4(9-3-7)1-2-8-5/h3-4,6H,1-2H2	InChI=1S/C5H7NO3/c6-5-4(9-3-7)1-2-8-5/h3-4,6H,1-2H2/t4-/m1/s1
