25
gdb 57569	2.66231	1.1272	1.04468	0.0214	92.07	-0.2637	0.0861	0.3498	1346.5172	0.228156	-352.331559	-352.321522	-352.320578	-352.366311	39.308	
C	 0.1293823044	 1.6699294854	 0.1537163041	-0.425878
C	 0.0952309941	 0.1296635825	 0.1641647034	 0.214413
C	 0.7925306206	-0.3648525655	 1.4459291197	-0.425878
C	-1.3733216417	-0.3060283974	 0.0721741809	 0.047301
C	-1.8996454556	-1.6301982191	 0.5647805801	-0.285026
C	-2.3216347946	-0.34749046	 1.2432677255	-0.292373
C	 0.8213732458	-0.4960636134	-1.0342159141	 0.047302
C	 0.8321664995	 0.0910798587	-2.4228289383	-0.285025
C	 2.1086335828	 0.0299986867	-1.6161938238	-0.292374
H	 1.1527117216	 2.0566038115	 0.190446256	 0.109473
H	-0.3607142651	 2.0834170575	-0.7331090854	 0.111464
H	-0.4014698552	 2.057362155	 1.028726917	 0.115387
H	 0.3100085986	 0.0216642439	 2.3491713439	 0.109472
H	 0.807671168	-1.4573898988	 1.5072328847	 0.111464
H	 1.8325020297	-0.0243911122	 1.4558127133	 0.115387
H	-1.8262002144	 0.0324465966	-0.8574770849	 0.079801
H	-2.6228761188	-2.1550419439	-0.0499985922	 0.106694
H	-1.2333407783	-2.2865032748	 1.1133343086	 0.109678
H	-1.931597438	-0.1594631169	 2.2374273429	 0.10955
H	-3.3352331846	 0.0095036182	 1.0957863829	 0.106723
H	 0.7516551683	-1.5816973472	-1.0128875848	 0.079801
H	 0.717084038	-0.5825915214	-3.2650881002	 0.106694
H	 0.3905672678	 1.0686481454	-2.5808172404	 0.109678
H	 2.505673575	 0.96724852	-1.2423504365	 0.109549
H	 2.8717606723	-0.6850868707	-1.9040587523	 0.106723
59.3288	69.4256	166.7028	237.0289	240.9548	268.9442	286.7938	297.0448	328.5894	378.6827	439.9118	464.8448	532.6171	659.4515	769.6941	791.1352	804.0252	832.5164	834.4159	895.9535	920.3346	939.7721	952.933	956.3754	970.0349	1027.4678	1053.1781	1057.6699	1058.5753	1078.5239	1078.653	1112.4303	1149.1497	1150.8791	1175.8253	1199.3731	1200.1327	1224.7516	1225.951	1269.785	1276.083	1383.5377	1395.4323	1406.6948	1429.0687	1467.0517	1467.2314	1488.2801	1495.799	1509.1559	1509.8505	1511.6903	1515.1324	3034.1839	3038.8592	3101.5464	3104.1279	3105.8879	3106.8559	3122.1551	3122.2839	3132.387	3132.4113	3136.9657	3137.5254	3207.288	3207.3619	3222.1537	3222.1898
CC(C)(C1CC1)C1CC1	CC(C)(C1CC1)C1CC1	
InChI=1S/C9H16/c1-9(2,7-3-4-7)8-5-6-8/h7-8H,3-6H2,1-2H3	InChI=1S/C9H16/c1-9(2,7-3-4-7)8-5-6-8/h7-8H,3-6H2,1-2H3
