18
gdb 41144	3.41487	1.67713	1.3499	2.4354	77.31	-0.2111	0.0032	0.2144	967.0828	0.149745	-401.902351	-401.895577	-401.894633	-401.933338	27.582	
C	-0.0333153803	 1.4796959533	 0.0706021532	-0.123679
O	 1.4066801631	 1.5753296523	 0.214273389	-0.296202
C	 1.5956910361	 0.1912192552	-0.1291203453	 0.045968
C	 1.6705554928	-0.7678011521	 1.0748411027	-0.200041
N	 0.1850573076	-0.7836467553	 1.1793022359	-0.123198
C	-0.5135990039	-2.0700662958	 1.0466061354	-0.233626
C	-1.1249319784	-2.0202761068	-0.3361007254	-0.072572
C	-0.8015999664	-0.894686709	-0.9765291403	-0.214035
C	 0.0509951891	-0.0446435296	-0.1134001157	 0.304365
H	-0.5706888536	 1.8181749042	 0.9622189555	 0.110615
H	-0.3785570483	 2.0306164057	-0.8149843928	 0.094148
H	 2.2790309113	 0.0511766951	-0.9699604401	 0.080842
H	 2.0940397773	-1.7449718105	 0.7981500405	 0.093141
H	 2.1839070257	-0.387234568	 1.9632457803	 0.112039
H	 0.1881077175	-2.9130976371	 1.1523023362	 0.102931
H	-1.2791105184	-2.207894482	 1.8246466927	 0.110149
H	-1.7531619889	-2.8126569981	-0.7271456644	 0.104743
H	-1.1154874923	-0.6138116113	-1.9743407473	 0.104411
134.1006	197.8565	273.7931	350.5258	430.4802	457.193	489.0602	660.517	708.2847	738.3905	800.2741	811.1462	840.2041	907.1273	939.0463	960.4595	978.1825	988.5486	1002.7089	1036.7776	1064.1471	1077.276	1087.7948	1137.4426	1149.4541	1162.5546	1182.2476	1209.1771	1217.5027	1248.4228	1305.7896	1311.4454	1340.4606	1356.9073	1391.2811	1483.731	1501.8495	1512.2156	1663.7108	2976.8983	2990.9269	2996.9903	3005.5123	3077.5486	3080.6655	3082.2919	3193.2283	3218.3263
C1OC2CN3CC=CC123	C1O[C@H]2CN3CC=C[C@]123	
InChI=1S/C7H9NO/c1-2-7-5-9-6(7)4-8(7)3-1/h1-2,6H,3-5H2	InChI=1S/C7H9NO/c1-2-7-5-9-6(7)4-8(7)3-1/h1-2,6H,3-5H2/t6-,7-/m0/s1
