16
gdb 7914	3.44258	1.80558	1.28148	5.9986	68.95	-0.2198	0.0013	0.2211	937.4212	0.131788	-379.979696	-379.971898	-379.970954	-380.011405	29.762	
C	-0.0218201782	 1.532563551	 0.0115882515	-0.401692
C	-0.0142057962	-0.0038971036	 0.0349753022	-0.03533
N	 0.7036941288	-0.5875632319	-1.0801616814	-0.349784
C	 1.8659641366	-1.2500088599	-0.675942146	 0.421464
O	 2.7125287888	-1.687589574	-1.4273815966	-0.397352
C	 1.8128490613	-1.2834913088	 0.7967062962	-0.3602
C	 0.7440536473	-0.5813730812	 1.2211706016	 0.376274
N	 0.2556396897	-0.402709679	 2.4889738378	-0.585624
H	 1.0010684467	 1.9196829219	 0.0189581619	 0.136985
H	-0.5274963275	 1.8977942465	-0.8876863125	 0.126785
H	-0.559103415	 1.9443526713	 0.8731518785	 0.110839
H	-1.0540079135	-0.363163752	 0.0647073344	 0.10111
H	 0.6729548982	-0.1771521372	-1.9997144274	 0.241068
H	 2.5468316586	-1.8026965227	 1.3950385273	 0.099294
H	 0.8796470947	-0.6150039723	 3.2519742019	 0.261362
H	-0.3210631703	 0.407511612	 2.6543035506	 0.2548
113.6611	178.1678	234.1218	246.3135	341.9579	374.1219	385.6899	436.27	507.5292	529.7932	594.9119	642.724	701.9139	741.1985	802.9121	833.7033	944.0577	968.1785	1050.3356	1082.9043	1093.0616	1161.3367	1211.5077	1243.8915	1318.3928	1363.1351	1379.6026	1400.9224	1426.044	1491.7631	1497.3869	1642.364	1697.8197	1816.8059	2989.6244	3032.3534	3098.0485	3121.2315	3243.046	3580.0342	3645.0184	3684.5503
CC1NC(=O)C=C1N	C[C@H]1NC(=O)C=C1N	
InChI=1S/C5H8N2O/c1-3-4(6)2-5(8)7-3/h2-3H,6H2,1H3,(H,7,8)	InChI=1S/C5H8N2O/c1-3-4(6)2-5(8)7-3/h2-3H,6H2,1H3,(H,7,8)/t3-/m1/s1
