16
gdb 126101	6.84819	0.66514	0.61084	3.7434	87.47	-0.237	-0.0369	0.2001	1787.8255	0.12424	-400.726419	-400.717874	-400.71693	-400.761352	30.06	
C	 0.0816511732	 1.5195225721	 0.0083145813	-0.369138
C	-0.0237917485	-0.0167981931	 0.0034055539	-0.332869
C	-1.3997155501	-0.4943843275	 0.0132032585	 0.27906
C	-2.544605247	-0.8764167388	 0.0212522548	-0.122745
C	-3.87867911	-1.3208983146	 0.030600388	 0.283716
C	-5.077784403	-0.6620123266	 0.0428593388	-0.345527
C	-6.0316544823	-1.7074374924	 0.0469061978	 0.011203
N	-5.4693693892	-2.8927326615	 0.0382091775	-0.126505
O	-4.1043323586	-2.6586016482	 0.0279734435	-0.208315
H	 1.1318285122	 1.824138123	 0.0006020603	 0.12251
H	-0.4081424759	 1.9460991459	-0.8708880538	 0.133265
H	-0.3932127456	 1.9394366965	 0.8988422976	 0.133266
H	 0.488805002	-0.4211176268	-0.8790289983	 0.141631
H	 0.5036061884	-0.4277295385	 0.8739848944	 0.141627
H	-5.2394072596	 0.4020208968	 0.0479814266	 0.125821
H	-7.110364036	-1.6390778964	 0.0559812492	 0.132999
28.0834	73.8039	101.2947	185.7561	216.5239	309.4254	423.5108	458.334	496.9581	573.1483	642.6874	712.8221	785.8016	818.7542	878.8242	915.6627	931.4785	955.6373	990.2547	1045.1352	1064.7373	1090.3442	1102.2663	1221.9818	1257.5337	1282.9904	1347.7361	1362.8519	1411.9944	1470.6253	1495.925	1500.7744	1506.4068	1613.4801	2353.7937	3021.8437	3048.845	3050.149	3124.0639	3127.8119	3244.5744	3290.4937
CCC#CC1=CC=NO1	CCC#Cc1ccno1	
InChI=1S/C7H7NO/c1-2-3-4-7-5-6-8-9-7/h5-6H,2H2,1H3	InChI=1S/C7H7NO/c1-2-3-4-7-5-6-8-9-7/h5-6H,2H2,1H3
