18
gdb 71639	2.77562	1.64039	1.55393	2.6114	71.6	-0.2408	0.0666	0.3073	949.3787	0.149476	-439.009179	-439.001894	-439.00095	-439.040698	28.923	
O	-0.0726583542	 1.3891744123	 0.0375637416	-0.468724
C	 0.0361400343	 0.0085353009	 0.0326786625	 0.334692
C	 0.6269221876	-0.9717882996	 1.0681305951	-0.232629
N	 0.0466934103	-1.9135687116	 0.0062743964	-0.153916
C	-1.1657689014	-0.946665323	-0.0101449589	-0.018757
C	-2.0272749757	-1.0136171353	-1.2572557457	-0.10984
O	-1.3041602565	-1.4345346148	-2.3972151044	-0.247359
C	 0.0430276808	-1.0099467267	-2.4164181058	-0.102702
C	 0.6532197412	-0.9411327829	-1.0299670639	-0.059936
H	 0.8113256155	 1.7731119382	 0.0397002502	 0.283317
H	 1.7151195517	-1.0426481353	 1.1561945938	 0.096691
H	 0.131558621	-1.0562021166	 2.0390270799	 0.104814
H	-1.7678810123	-1.0077879042	 0.9015502953	 0.078118
H	-2.8331316265	-1.7427877618	-1.1246158107	 0.115684
H	-2.4908675871	-0.0247226232	-1.4164551477	 0.102232
H	 0.5804081069	-1.7351981323	-3.0364382522	 0.115677
H	 0.1466380793	-0.0193191831	-2.8943357728	 0.092498
H	 1.7467862852	-0.9915610411	-1.0657508224	 0.070138
134.0945	184.7704	216.83	258.2579	395.8069	402.0837	466.0531	523.9874	610.1367	627.524	770.2877	783.097	814.3625	874.5922	878.2138	910.2644	983.7929	999.5958	1021.0309	1066.2891	1068.0191	1115.3082	1122.2882	1130.1236	1149.4584	1188.0755	1197.3229	1229.8978	1271.17	1280.2361	1308.3644	1347.5364	1362.4416	1384.2243	1421.5864	1443.6994	1497.5303	1507.7477	1527.8829	2948.8392	2963.1182	3046.4373	3051.7684	3061.9753	3068.0486	3075.6228	3119.0273	3803.3835
OC12CN3C1COCC23	O[C@@]12CN3[C@@H]1COC[C@@H]23	
InChI=1S/C6H9NO2/c8-6-3-7-4(6)1-9-2-5(6)7/h4-5,8H,1-3H2	InChI=1S/C6H9NO2/c8-6-3-7-4(6)1-9-2-5(6)7/h4-5,8H,1-3H2/t4-,5+,6+
