17
gdb 74222	2.37642	1.56274	0.99845	5.2331	73.13	-0.2624	-0.044	0.2183	1164.9282	0.136334	-458.99887	-458.990648	-458.989704	-459.031974	30.278	
C	-0.5017042616	 1.3454187609	 0.1677307995	-0.469612
C	 0.0441800989	-0.0582230065	 0.1045105813	 0.246566
C	-0.2644019568	-0.8630150713	-0.9226976611	-0.269757
C	 0.1581344984	-2.241692384	-1.2792649755	 0.402042
O	 0.0672590469	-2.6311633236	-2.4154936614	-0.332269
O	 0.6319146074	-3.1037952973	-0.3385728377	-0.220367
C	 0.6829653419	-2.7290958315	 1.02634384	 0.005896
O	 1.5481213704	-1.6638372355	 1.2528171575	-0.225685
C	 0.9258221205	-0.3986038986	 1.2755067563	-0.161082
H	 0.3116173567	 2.0815338374	 0.1582490623	 0.140338
H	-1.1651868482	 1.5569412693	-0.6724330646	 0.141332
H	-1.0599453879	 1.5077283799	 1.0980757137	 0.136305
H	-0.8853567011	-0.4574426555	-1.7156548935	 0.117832
H	-0.3283172162	-2.5093968406	 1.3977189448	 0.103629
H	 1.0901325177	-3.6056942598	 1.5329022695	 0.134098
H	 1.7406752891	 0.3326743475	 1.337995446	 0.137753
H	 0.3321579041	-0.2779141007	 2.1993751529	 0.112983
84.7455	134.0444	157.1333	203.2069	298.3308	324.9166	375.3871	433.4571	461.9995	504.5807	588.8805	706.4361	723.3806	829.4924	887.6072	903.3974	980.8686	999.9368	1037.9918	1074.6257	1082.4326	1117.8631	1157.0636	1202.0737	1282.6388	1288.9889	1334.7028	1361.5017	1410.1221	1420.4036	1455.6157	1477.903	1479.1108	1488.6979	1512.6252	1710.1265	1809.6422	2950.2626	3003.742	3025.2638	3055.2438	3074.1144	3121.1448	3134.3618	3177.4846
CC1=CC(=O)OCOC1	CC1=CC(=O)OCOC1	
InChI=1S/C6H8O3/c1-5-2-6(7)9-4-8-3-5/h2H,3-4H2,1H3	InChI=1S/C6H8O3/c1-5-2-6(7)9-4-8-3-5/h2H,3-4H2,1H3
