23
gdb 115502	2.26566	1.17233	0.86205	2.7818	82.	-0.2437	0.0786	0.3222	1436.3037	0.206179	-425.442809	-425.433035	-425.432091	-425.478224	36.334	
C	-0.013512027	 1.6573074658	-0.2630647454	-0.381471
C	-0.2302430726	 0.1417140367	-0.2846540899	-0.187524
C	 0.6546057378	-0.579783978	-1.2935424397	 0.167047
C	 0.4805331419	-2.0994082231	-1.3653844395	-0.236902
C	 0.9614576091	-2.4158140446	-2.7905728843	-0.267661
C	 0.5516338667	-1.1589320254	-3.5826642528	 0.116578
C	-0.7543654095	-1.3170435007	-4.3615293975	-0.056478
O	-1.2112059156	-0.0772603924	-4.8560630582	-0.424799
O	 0.3453235007	-0.1158279673	-2.614099208	-0.306239
H	 1.0187139939	 1.9046094216	 0.0087391954	 0.113108
H	-0.2113379502	 2.0903135638	-1.2471206903	 0.130477
H	-0.6745147887	 2.140041598	 0.4628734476	 0.111028
H	-0.0283387486	-0.2802664716	 0.7080291626	 0.09563
H	-1.2772233264	-0.0865035839	-0.5205213801	 0.097641
H	 1.7114038311	-0.3430428006	-1.0772573936	 0.063116
H	 1.0466355776	-2.6259330991	-0.5930440767	 0.102674
H	-0.5778991244	-2.3564719171	-1.244104651	 0.105105
H	 2.047695249	-2.5441453584	-2.8098665296	 0.107257
H	 0.5145525644	-3.3255662865	-3.20164359	 0.107328
H	 1.3389245879	-0.8309795824	-4.2734992297	 0.079157
H	-0.597524845	-1.9748312198	-5.2240264263	 0.102055
H	-1.506613869	-1.7944167386	-3.7091677291	 0.074677
H	-1.1451112129	 0.5325779137	-4.1104160441	 0.288197
41.8801	87.4851	116.1046	162.4321	194.5055	229.0082	268.0613	383.8237	399.1825	442.4352	483.666	492.5916	581.462	699.0763	767.4279	815.7182	849.1273	900.5123	936.8468	963.4364	984.8204	995.3384	1034.6608	1056.3469	1060.2156	1092.5894	1121.0195	1146.8046	1165.536	1199.8343	1215.4698	1235.0426	1288.8875	1303.0767	1319.245	1333.7686	1348.467	1355.6234	1374.6676	1400.2659	1408.9274	1416.9842	1443.1977	1474.4539	1487.1077	1497.8455	1500.1749	1505.0543	1507.9132	2943.823	2950.7148	3020.2155	3023.2797	3037.5298	3046.3119	3055.7571	3061.3339	3065.9351	3095.7689	3102.6719	3109.2135	3121.7319	3779.5517
CCC1CCC(CO)O1	CC[C@H]1CC[C@@H](CO)O1	
InChI=1S/C7H14O2/c1-2-6-3-4-7(5-8)9-6/h6-8H,2-5H2,1H3	InChI=1S/C7H14O2/c1-2-6-3-4-7(5-8)9-6/h6-8H,2-5H2,1H3/t6-,7-/m0/s1
