20
gdb 78473	3.2469	1.49454	1.46719	1.6526	77.58	-0.2283	0.0839	0.3122	1012.3121	0.17382	-403.120022	-403.112971	-403.112027	-403.151045	29.535	
C	-0.0437086728	 1.4925461685	 0.0041587467	-0.321155
N	 0.0389626771	 0.036362693	 0.0278448533	-0.095062
C	 1.3818902487	-0.5178465721	-0.1956224776	-0.025468
C	 0.7803553932	-0.5299530653	 1.1637067092	-0.025479
C	 0.5676427845	-2.0381415968	 1.4169657479	 0.036243
C	-0.6086767012	-2.5752686625	 0.5711407284	-0.207966
C	 0.0226638572	-2.5625380329	-0.855610089	-0.207967
C	 1.4361853887	-2.0206585057	-0.5458046122	 0.036239
O	 1.7082460663	-2.6111117605	 0.7429565844	-0.2664
H	 0.8529980138	 1.9940869031	 0.405799937	 0.100352
H	-0.1898173361	 1.8273264668	-1.0276398389	 0.125607
H	-0.9081836659	 1.8129334231	 0.5941302732	 0.125605
H	 2.190139404	 0.1514816654	-0.4741388345	 0.086091
H	 1.113358876	 0.1298257696	 1.9590921881	 0.086095
H	 0.5808765604	-2.3301477216	 2.4666099311	 0.072068
H	-0.8577585331	-3.5893064065	 0.8916521889	 0.09481
H	-1.4970253415	-1.9467765264	 0.6395561965	 0.109756
H	 0.0990174971	-3.570013158	-1.2705878581	 0.094807
H	-0.5282923504	-1.9272332531	-1.5496441152	 0.109757
H	 2.2237901539	-2.2970853883	-1.246135389	 0.072068
195.0961	206.2442	256.5634	294.4304	380.7352	402.1091	517.1663	568.7037	649.0093	754.2729	758.7487	819.2502	843.101	867.3189	878.2063	883.9222	903.0332	949.1942	972.5442	978.3649	1007.5747	1020.8918	1046.7357	1083.0957	1104.6573	1141.3953	1161.6259	1168.2196	1233.932	1236.8674	1239.9729	1252.6596	1295.7411	1300.8615	1335.2999	1336.3397	1341.428	1388.9151	1453.7232	1468.088	1489.4408	1493.465	1497.9574	2961.3704	3068.0064	3069.3745	3079.2345	3105.6382	3123.2876	3127.3956	3127.6336	3141.6407	3153.9132	3163.7176
CN1C2C1C1CCC2O1	CN1[C@H]2[C@@H]1[C@H]1CC[C@@H]2O1	
InChI=1S/C7H11NO/c1-8-6-4-2-3-5(9-4)7(6)8/h4-7H,2-3H2,1H3	InChI=1S/C7H11NO/c1-8-6-4-2-3-5(9-4)7(6)8/h4-7H,2-3H2,1H3/t4-,5+,6+,7-,8?
