13
gdb 21501	5.16763	1.62683	1.23731	4.3567	60.87	-0.2437	-0.014	0.2297	896.9774	0.098118	-394.840773	-394.833701	-394.832756	-394.872438	25.554	
N	-0.0969119277	 1.3187340165	 0.0082277407	-0.54058
C	 0.0449241719	-0.0339697529	 0.0016187188	 0.33531
O	 1.1215119643	-0.6054114217	-0.0094049384	-0.371804
C	-1.23802105	-0.7879011733	 0.0093929063	 0.265906
N	-2.4233403214	-0.1728648661	 0.0210814435	-0.308284
N	-3.3152760502	-1.1723080343	 0.0247210248	-0.179435
C	-2.7385098215	-2.4033520382	 0.0158177177	-0.01859
C	-1.3791810167	-2.1931555973	 0.0056643069	-0.268635
H	 0.7295477808	 1.8909681909	 0.0023323977	 0.259068
H	-1.0107180957	 1.7387380253	 0.0160639211	 0.27165
H	-4.2972861135	-0.9519759151	 0.0333187221	 0.279821
H	-3.3319558529	-3.3036944113	 0.0174438371	 0.142027
H	-0.5866150274	-2.9211922825	-0.0032286983	 0.133548
70.5369	163.3634	200.4594	211.177	400.0314	508.915	533.814	576.9815	647.752	663.7582	697.892	776.0143	816.0667	881.6865	947.1875	983.8367	1064.6814	1089.8622	1098.3801	1215.0824	1241.8351	1362.8292	1400.5536	1474.0939	1504.8602	1561.0195	1606.2036	1786.5391	3265.9335	3296.3679	3605.9676	3666.9249	3748.2279
NC(=O)C1=NNC=C1	NC(=O)c1n[nH]cc1	
InChI=1S/C4H5N3O/c5-4(8)3-1-2-6-7-3/h1-2H,(H2,5,8)(H,6,7)	InChI=1S/C4H5N3O/c5-4(8)3-1-2-6-7-3/h1-2H,(H2,5,8)(H,6,7)
