17
gdb 88327	3.9399	0.88892	0.82892	6.6986	73.22	-0.2476	-0.0345	0.2131	1411.5711	0.134942	-455.163787	-455.154544	-455.1536	-455.198898	32.518	
C	 0.0215961252	 1.5056315386	-0.6146271795	-0.405714
C	-0.0989301711	 0.0965562061	-0.090964747	 0.012183
N	 1.1133077545	-0.7125479517	-0.0481380928	-0.302276
C	 0.4760568668	-0.3562855977	 1.2270547486	-0.183174
C	 1.2395105943	 0.5847219389	 2.1215609284	 0.471838
O	 2.0844358717	 1.3520438741	 1.7423567127	-0.303632
N	 0.8256287345	 0.4888524619	 3.4649412378	-0.36528
C	 1.2654257683	 1.2393512758	 4.5528275643	 0.168762
O	 2.0851266752	 2.1136320577	 4.5383189691	-0.248935
H	 0.9591294978	 1.9566903298	-0.2888448524	 0.172516
H	-0.0029195133	 1.4963835037	-1.7093729048	 0.122408
H	-0.8137706723	 2.1206637687	-0.2636241417	 0.115349
H	-1.0251465251	-0.4136743034	-0.3575949476	 0.090777
H	 0.922486463	-1.6863224432	-0.2675607696	 0.2393
H	-0.0878294173	-1.1325810802	 1.7429406825	 0.079103
H	 0.1160972982	-0.1971917978	 3.6768230699	 0.253706
H	 0.7382065896	 0.9120878786	 5.473335082	 0.083069
42.9535	61.7905	147.6388	181.8348	216.3921	232.0922	272.5888	338.2769	381.8419	438.8411	584.9271	601.6741	715.2403	789.3071	803.3838	864.8707	926.5898	937.4157	1001.3392	1023.3319	1028.9127	1074.3543	1093.7878	1149.3397	1156.103	1195.5022	1241.1672	1264.3417	1398.8491	1433.5652	1447.7266	1462.3777	1495.4079	1499.43	1505.2336	1811.2071	1873.4281	2913.7186	3040.5686	3095.6907	3100.3188	3108.4311	3158.105	3510.4616	3612.4537
CC1NC1C(=O)NC=O	C[C@H]1N[C@H]1C(=O)NC=O	
InChI=1S/C5H8N2O2/c1-3-4(7-3)5(9)6-2-8/h2-4,7H,1H3,(H,6,8,9)	InChI=1S/C5H8N2O2/c1-3-4(7-3)5(9)6-2-8/h2-4,7H,1H3,(H,6,8,9)/t3-,4-/m1/s1
