19
gdb 88230	4.34247	0.6754	0.64095	2.727	89.03	-0.2318	0.0249	0.2567	1797.0137	0.159368	-381.987449	-381.978037	-381.977093	-382.023861	33.685	
C	-1.2381627574	 0.3570521048	 0.4660341513	-0.396869
C	 0.0533598462	-0.2641074796	 0.000135364	 0.021291
N	 1.1253745148	 0.6503276428	-0.4012230074	-0.321889
C	 1.3184834748	-0.1982028279	 0.805260825	-0.264772
C	 1.3960286365	 0.4630527146	 2.0779486642	 0.134748
C	 1.4722637215	 0.9865638784	 3.1626553864	 0.111142
C	 1.5451568083	 1.6415563783	 4.437562492	-0.162484
C	 2.8754123886	 2.0214388632	 5.0043996281	-0.22557
N	 1.9681030138	 3.0632251905	 4.517323707	-0.3061
H	-1.0401203826	 1.2392316445	 1.0782360783	 0.140841
H	-1.8475692986	 0.6613836343	-0.3913024941	 0.12046
H	-1.8180979657	-0.3567701378	 1.0604562149	 0.118225
H	-0.0600331605	-1.1775554466	-0.583329708	 0.086914
H	 1.662970951	 0.2595639266	-1.1709556731	 0.233888
H	 1.986673416	-1.0510373405	 0.6990773615	 0.104621
H	 0.747818864	 1.3989532578	 5.135736968	 0.115357
H	 3.015039136	 2.0006487803	 6.0815803293	 0.123964
H	 3.7548631893	 1.7702974965	 4.41909759	 0.12314
H	 2.2609144339	 3.3655727299	 3.5909505027	 0.243093
14.5093	76.9089	89.0088	158.2645	183.8298	236.8335	319.2479	385.6384	433.4769	513.1807	564.6784	581.31	715.4582	772.8482	810.5367	834.7291	877.632	920.1104	959.7341	978.2284	995.8796	1012.7907	1061.8321	1095.473	1118.9785	1141.4938	1156.1618	1191.1132	1219.9077	1247.1226	1252.8675	1271.4156	1299.7753	1385.6898	1398.7985	1424.8197	1454.2283	1487.2792	1495.8856	1504.6876	2353.8431	3039.3432	3101.75	3103.3234	3114.0346	3118.1783	3135.4724	3137.6756	3204.9152	3500.3381	3503.1945
CC1NC1C#CC1CN1	C[C@H]1N[C@H]1C#C[C@H]1CN1	
InChI=1S/C7H10N2/c1-5-7(9-5)3-2-6-4-8-6/h5-9H,4H2,1H3	InChI=1S/C7H10N2/c1-5-7(9-5)3-2-6-4-8-6/h5-9H,4H2,1H3/t5-,6+,7+/m1/s1
