14
gdb 133301	2.40245	1.83038	1.04217	4.3572	69.04	-0.2255	-0.024	0.2015	1039.2949	0.102655	-474.174006	-474.166529	-474.165585	-474.205667	29.075	
N	-0.048271015	 1.3804989883	 0.0971220225	-0.575994
C	-0.0213072084	-0.0111312642	 0.0267551339	 0.342612
C	-1.2517192614	-0.7091608692	-0.0200674406	 0.13229
N	-2.4649250523	-0.0374671941	-0.061385095	-0.612494
C	-1.1238390987	-2.080911241	-0.0599927304	 0.225209
F	-2.2284240307	-2.837438728	-0.1055404719	-0.081129
C	 0.1398659963	-2.6611169225	-0.0221790183	-0.098061
N	 1.2518653837	-1.939831203	 0.0546600683	-0.22057
N	 1.1643515278	-0.609643107	 0.0660565055	-0.279668
H	 0.8884583189	 1.7605682374	 0.0317475979	 0.260529
H	-0.6716158276	 1.8098675785	-0.5766892294	 0.255155
H	-2.4827789413	 0.7927437222	 0.5181181618	 0.263276
H	-3.2651310644	-0.6327154569	 0.1034487782	 0.262533
H	 0.249402053	-3.7402876605	-0.0445496426	 0.126313
146.5852	250.9465	269.735	277.855	312.1715	327.6367	481.0653	487.6894	530.9441	578.779	589.7302	610.1278	704.1108	711.2817	755.7963	824.5879	891.3406	909.8709	992.09	1087.7729	1164.7793	1243.4007	1262.4505	1314.9884	1342.4284	1433.8599	1513.7683	1593.8477	1619.8511	1643.5457	1671.4869	3190.2095	3521.919	3536.8924	3623.9974	3642.8321
NC1=C(N)C(F)=CN=N1	Nc1c(N)c(F)cnn1	
InChI=1S/C4H5FN4/c5-2-1-8-9-4(7)3(2)6/h1H,(H2,6,8)(H2,7,9)	InChI=1S/C4H5FN4/c5-2-1-8-9-4(7)3(2)6/h1H,(H2,6,8)(H2,7,9)
