16
gdb 16630	3.01998	2.35934	1.54082	2.9017	63.66	-0.2469	-0.0208	0.2261	830.7946	0.130328	-383.757844	-383.750719	-383.749774	-383.789274	26.948	
C	 0.2046130015	 1.6115040225	-0.0363975324	-0.396342
C	 0.0723521288	 0.0872547526	-0.0104323054	-0.125083
C	 0.6961711966	-0.647328038	-1.1774611909	 0.036259
O	 2.1283242767	-0.5589531854	-1.1889475615	-0.25925
C	 1.527192397	-1.7669139561	-0.7011480082	 0.039013
C	 1.4948014224	-1.8321787934	 0.806235311	-0.351621
C	 0.7673992846	-0.5407809982	 1.2188873181	 0.390469
O	 0.7370400573	-0.082885769	 2.3297286848	-0.30707
H	 1.2447546133	 1.8953845402	-0.2184065411	 0.137892
H	-0.416677944	 2.0500899116	-0.8224928001	 0.113621
H	-0.1022970725	 2.0250887405	 0.9273161351	 0.140214
H	-0.9914163887	-0.1883752811	 0.0566740189	 0.103284
H	 0.2212314038	-0.6478837578	-2.1553195137	 0.099793
H	 1.7092744932	-2.6551805457	-1.2995718999	 0.102771
H	 0.925061951	-2.700082801	 1.1623961422	 0.131068
H	 2.485037679	-1.8752798114	 1.267655503	 0.144983
77.4748	199.0589	216.208	247.5834	354.8838	468.144	477.1948	566.5797	648.1827	681.4035	744.6164	828.3517	852.9272	879.3894	936.6456	972.8195	1019.7821	1026.4855	1083.598	1100.009	1119.355	1158.1331	1190.7188	1252.8873	1279.2152	1283.5336	1316.7945	1355.9955	1400.5259	1431.4619	1442.991	1493.4298	1503.7379	1851.9665	3000.0612	3041.0744	3046.8734	3103.5884	3119.6124	3131.5905	3144.318	3158.2502
CC1C2OC2CC1=O	C[C@H]1[C@H]2O[C@H]2CC1=O	
InChI=1S/C6H8O2/c1-3-4(7)2-5-6(3)8-5/h3,5-6H,2H2,1H3	InChI=1S/C6H8O2/c1-3-4(7)2-5-6(3)8-5/h3,5-6H,2H2,1H3/t3-,5+,6-/m1/s1
