17
gdb 7305	4.19243	1.11916	0.92503	4.2308	66.01	-0.2502	-0.0213	0.2289	1204.5297	0.139688	-401.047006	-401.037583	-401.036639	-401.082437	32.523	
C	-0.1683019325	 1.5834405408	-0.1397518052	-0.430692
C	 0.0325736516	 0.0653818046	-0.0284592374	-0.101216
C	 0.7018084723	-0.3319217415	 1.3032152046	-0.268911
C	 2.1666989787	 0.0245657535	 1.3202340671	 0.156633
O	 2.7084681828	 0.7198000639	 2.1406567357	-0.244244
C	-1.2300451914	-0.7974753044	-0.2281177083	 0.410961
N	-2.2895599138	-0.1954410099	-0.8357294952	-0.528797
O	-1.2572429897	-1.9678264465	 0.1035926252	-0.36707
H	 0.7693348518	 2.1079718374	 0.0656363254	 0.142142
H	-0.487866723	 1.8846346673	-1.1429389379	 0.119135
H	-0.9054117735	 1.942245048	 0.5866802494	 0.131294
H	 0.7027783527	-0.2532070636	-0.8416156472	 0.114254
H	 0.2069689778	 0.1399512482	 2.1575463548	 0.117095
H	 0.6091579365	-1.420798668	 1.4002103986	 0.153279
H	 2.7472987299	-0.41986543	 0.4753016712	 0.070629
H	-2.3179020838	 0.7861871977	-1.0405154527	 0.261406
H	-3.1252228365	-0.7423042577	-0.9641129883	 0.264102
33.5506	55.8886	84.411	191.1377	210.3993	258.4141	285.366	347.8022	365.9387	454.9652	508.4439	556.7386	600.6218	717.3474	793.9197	823.8309	924.009	962.8706	1013.2745	1082.8156	1091.2674	1137.8812	1153.1556	1226.0671	1253.2855	1327.723	1350.0627	1361.1953	1418.0786	1428.0144	1465.9196	1501.5935	1511.3285	1616.6747	1786.0084	1834.0839	2837.5242	2996.6786	3032.9128	3039.0574	3100.0688	3103.539	3109.119	3612.0934	3750.935
CC(CC=O)C(N)=O	C[C@@H](CC=O)C(=O)N	
InChI=1S/C5H9NO2/c1-4(2-3-7)5(6)8/h3-4H,2H2,1H3,(H2,6,8)	InChI=1S/C5H9NO2/c1-4(2-3-7)5(6)8/h3-4H,2H2,1H3,(H2,6,8)/t4-/m0/s1
