23
gdb 58221	2.45109	0.95931	0.90685	3.4865	82.12	-0.2431	-0.0157	0.2273	1464.7669	0.201741	-425.442504	-425.431139	-425.430195	-425.479226	40.919	
C	-0.1239146292	 1.6381353106	 0.5982464935	-0.416078
C	-0.0267948477	 0.1223148126	 0.4160429422	 0.121986
O	 0.4505643059	-0.4903365452	 1.6143621209	-0.426353
C	-1.3521724941	-0.5260619842	-0.0511415099	 0.001907
C	-1.8765611671	 0.0883338325	-1.3594230744	-0.416769
C	-1.2425933283	-2.0811710933	-0.1289716449	-0.078346
C	-2.5948054023	-2.789433874	-0.02288958	-0.410515
C	-0.4750962982	-2.5257008141	-1.3569967236	 0.153951
O	-0.8661267165	-3.3352985235	-2.1609366602	-0.253206
H	 0.8099280256	 2.0143884909	 1.0240744247	 0.128121
H	-0.3025381973	 2.1558695791	-0.3474459826	 0.125872
H	-0.9426199322	 1.8972038603	 1.2823384776	 0.107651
H	 0.7569070233	-0.0896356028	-0.3219065401	 0.0933
H	-0.1459069896	-0.2384593794	 2.3286898103	 0.277303
H	-2.0896074921	-0.3180919427	 0.7396221332	 0.065868
H	-2.1733103992	 1.1315658657	-1.2262012618	 0.119749
H	-1.1171573454	 0.0570546261	-2.1493722357	 0.122988
H	-2.7511377146	-0.4556847102	-1.7262504402	 0.129922
H	-0.6119569462	-2.3701012946	 0.7241298418	 0.115581
H	-3.2603339581	-2.5207629497	-0.8481684074	 0.12723
H	-2.4655345735	-3.8736205744	-0.0597849261	 0.130496
H	-3.0911179361	-2.5306505929	 0.9174227821	 0.104946
H	 0.5275356229	-2.0555307868	-1.4795236092	 0.074396
51.8882	77.0148	83.4775	180.3257	183.715	205.9065	242.0076	250.0071	273.7167	302.1153	313.8683	343.9697	410.5965	453.3537	477.5318	553.8463	656.1817	775.0969	829.112	894.122	932.6366	945.9095	968.4549	995.9576	1041.9743	1066.0681	1096.6766	1127.9062	1134.7898	1159.8069	1185.6164	1257.0177	1272.568	1318.126	1342.0099	1376.8699	1390.1387	1402.9902	1409.7113	1414.523	1419.2273	1438.3096	1489.0866	1491.2112	1493.179	1496.0162	1499.9654	1512.9385	1820.8898	2864.4554	2980.5062	3016.8303	3023.6245	3037.1271	3041.6058	3045.9032	3101.9827	3103.924	3113.389	3119.0839	3125.5647	3128.6765	3793.0076
CC(O)C(C)C(C)C=O	C[C@@H](O)[C@@H](C)[C@@H](C)C=O	
InChI=1S/C7H14O2/c1-5(4-8)6(2)7(3)9/h4-7,9H,1-3H3	InChI=1S/C7H14O2/c1-5(4-8)6(2)7(3)9/h4-7,9H,1-3H3/t5-,6-,7+/m0/s1
