17
gdb 31550	3.34134	1.15557	0.87001	2.4806	74.28	-0.1696	0.0475	0.2171	1309.6016	0.137452	-451.352927	-451.343709	-451.342764	-451.386635	33.968	
C	-0.0905503002	 1.3596029455	 0.0047371778	-0.318557
N	 0.1999129582	-0.0635964831	-0.0297998921	-0.387638
C	 0.7518029358	-0.6530816195	 1.0706294486	 0.498367
N	 1.311408615	-0.0520712495	 2.0830509078	-0.406025
C	 1.755323802	-1.1029259565	 2.878249429	 0.266607
N	 2.4821539391	-0.8459734589	 4.0333223044	-0.59934
C	 1.4298773755	-2.2972721448	 2.3260497086	 0.167311
N	 1.6341936594	-3.6088780596	 2.7200093632	-0.606619
O	 0.7636031943	-1.992342201	 1.1005565162	-0.240771
H	 0.8084031935	 1.8966866273	 0.3129385911	 0.161086
H	-0.3717712062	 1.6867937932	-0.9987223748	 0.122795
H	-0.8953406515	 1.619482117	 0.7065654978	 0.120474
H	-0.4499087442	-0.650228773	-0.5297613108	 0.248733
H	 2.1828388882	 0.005091755	 4.4903310308	 0.247098
H	 2.4862590445	-1.6313143774	 4.6703988484	 0.247491
H	 2.2666707358	-4.1314151803	 2.121424509	 0.240799
H	 0.7798012807	-4.1448506043	 2.834865465	 0.238189
97.7586	128.5004	182.737	201.8119	233.1503	249.0276	308.3807	318.9835	372.98	403.4194	485.9088	552.0696	646.6813	671.4047	697.7405	736.3884	752.1582	777.7055	827.7761	989.7289	1036.4678	1104.0472	1139.1316	1155.6684	1184.059	1210.8975	1318.2553	1343.5923	1421.839	1453.2504	1484.6922	1509.963	1544.4101	1625.7687	1655.5228	1663.7443	1766.5832	3006.9221	3097.338	3142.2404	3478.4828	3537.8005	3544.6705	3627.7761	3647.209
CNC1=NC(N)=C(N)O1	CNc1nc(N)c(N)o1	
InChI=1S/C4H8N4O/c1-7-4-8-2(5)3(6)9-4/h5-6H2,1H3,(H,7,8)	InChI=1S/C4H8N4O/c1-7-4-8-2(5)3(6)9-4/h5-6H2,1H3,(H,7,8)
