13
gdb 131931	4.56545	1.11626	0.90199	5.202	64.97	-0.2751	-0.0833	0.1918	1196.6536	0.088676	-489.836474	-489.828826	-489.827882	-489.869529	26.665	
C	 0.0399357892	 1.4465004626	-0.0168234865	-0.491757
C	-0.0751073053	-0.031937545	 0.0074550046	 0.397825
N	-1.1221669396	-0.7702855657	-0.177951261	-0.316675
C	-0.6498939779	-2.0532282088	-0.0427601917	 0.318889
C	 0.6794401835	-2.0520691568	 0.2225104635	-0.054312
O	 1.064414179	-0.7541187993	 0.2579221228	-0.164093
N	-1.4860728103	-3.2237901749	-0.1722923288	 0.345825
O	-2.6693416147	-3.060792324	-0.4136539186	-0.335582
O	-0.9180906387	-4.3037865976	-0.0244661785	-0.378092
H	 0.7458166149	 1.7703549489	-0.7880361546	 0.158132
H	-0.9410952835	 1.8725404717	-0.2258462148	 0.171399
H	 0.4007227097	 1.8257099471	 0.944406167	 0.158125
H	 1.4186624536	-2.8129186382	 0.3943257467	 0.190314
70.8431	98.8034	162.0559	187.399	307.7861	353.4363	418.4084	550.6352	617.6851	693.0209	709.1353	778.9123	838.5977	838.7373	917.97	1007.1381	1042.9797	1067.4983	1144.247	1196.1503	1281.9937	1355.6414	1411.7135	1415.1989	1473.7923	1477.508	1587.2419	1635.0942	1645.0683	3049.8315	3107.3741	3164.3562	3318.0365
CC1=NC(=CO1)N(=O)=O	Cc1nc(co1)N(=O)=O	
InChI=1S/C4H4N2O3/c1-3-5-4(2-9-3)6(7)8/h2H,1H3	InChI=1S/C4H4N2O3/c1-3-5-4(2-9-3)6(7)8/h2H,1H3
