19
gdb 37137	3.12014	1.682	1.66556	2.0911	77.63	-0.2341	0.088	0.3221	924.781	0.163284	-381.997072	-381.990401	-381.989457	-382.027693	28.331	
C	-0.0185091539	 1.544318362	-0.0444808416	-0.204655
C	 1.4852268096	 1.9566061325	 0.0022676696	-0.274674
C	 2.1273782951	 0.839259557	 0.7897594887	 0.240812
N	 1.4186578549	 0.4317336446	 2.0050275916	-0.388873
C	 1.1960740761	-0.3589341649	 0.7923816452	 0.240843
C	-0.0468221295	-0.0145259826	 0.0065325228	-0.274685
C	 2.3741158633	-1.2617545794	 0.4711308313	-0.144699
N	 2.9587845611	-0.771640395	-0.8039899745	-0.324627
C	 3.2922954522	-0.0804372243	 0.4684238667	-0.144693
H	-0.5287215622	 1.9427890105	 0.8353656542	 0.119515
H	-0.5286234731	 1.9388937723	-0.9279215872	 0.092939
H	 1.9176104046	 1.9587951942	-1.003691331	 0.115585
H	 1.6214005243	 2.9527132137	 0.4342698447	 0.09834
H	 2.0377535559	-0.0480514647	 2.6529479061	 0.22748
H	-0.9776034882	-0.3911410146	 0.4415068108	 0.098339
H	 0.0556563748	-0.4368053032	-0.9985027148	 0.115591
H	 2.561477707	-2.2759872026	 0.8063712425	 0.091617
H	 3.7449979199	-1.3833810105	-1.0343032294	 0.224229
H	 4.322137678	-0.0107706749	 0.8011830442	 0.091615
185.6321	215.7267	257.4969	404.6792	446.7885	527.1651	590.5569	614.6749	655.5955	738.2397	754.5343	792.5138	838.1137	843.505	866.7451	894.7467	912.9971	946.1259	980.4811	993.4135	1042.0338	1044.8635	1082.9004	1091.746	1117.694	1132.2248	1188.1264	1189.5041	1206.7046	1246.456	1261.5084	1276.7932	1305.7921	1342.7817	1343.3717	1347.0184	1380.45	1413.0148	1480.2794	1481.5024	1497.5792	3048.5696	3048.6205	3065.8245	3087.0968	3092.4666	3116.8794	3165.1678	3178.2082	3437.941	3500.4923
C1CC23NC2(C1)C1NC31	C1C[C@@]23N[C@]2(C1)[C@H]1N[C@@H]31	
InChI=1S/C7H10N2/c1-2-6-4-5(8-4)7(6,3-1)9-6/h4-5,8-9H,1-3H2	InChI=1S/C7H10N2/c1-2-6-4-5(8-4)7(6,3-1)9-6/h4-5,8-9H,1-3H2/t4-,5+,6+,7-
