16
gdb 27304	3.21605	1.39935	0.9809	4.5617	76.38	-0.2067	-0.0055	0.2012	1150.4652	0.126528	-434.129273	-434.121252	-434.120307	-434.161655	30.713	
C	-0.001303995	 1.5011173521	-0.0213194976	-0.471923
C	-0.0027651189	 0.0031874056	-0.0220327196	 0.254083
C	-1.1280709144	-0.7231798668	-0.1279935479	-0.102174
N	-1.0794811556	-2.1126410767	-0.1243072083	-0.366168
C	 0.1321364366	-2.7170156208	-0.0107417716	 0.49948
O	 0.0488732667	-4.0591822487	-0.0191780823	-0.412614
N	 1.2589561247	-2.1141518675	 0.0953526198	-0.433767
C	 1.2863362617	-0.7059606485	 0.0985556257	 0.259937
N	 2.3715360618	-0.0302381613	 0.2006450595	-0.538843
H	 0.6154781305	 1.8827218665	-0.8411048082	 0.144757
H	-1.0136250554	 1.9049158888	-0.1156773016	 0.101605
H	 0.4531300044	 1.8820247814	 0.8986946281	 0.144782
H	-2.1169361755	-0.2924456559	-0.2205164052	 0.127068
H	-1.9098938855	-2.6752078576	-0.202185928	 0.273972
H	 0.958928027	-4.3762064467	 0.0661270314	 0.313674
H	 3.1575556967	-0.6788919042	 0.2741278558	 0.206129
97.4871	177.3895	192.9905	293.6024	304.0837	362.2424	396.0926	460.3379	473.7008	532.9336	537.733	579.2499	729.3299	749.1471	776.6806	785.6745	868.5624	902.7773	977.8561	1023.7786	1069.8413	1092.713	1194.6672	1210.1201	1245.2549	1321.3609	1382.74	1414.2753	1420.5171	1463.2302	1487.1802	1567.6038	1657.5397	1688.2338	1734.251	3036.9161	3098.5556	3114.5951	3214.2631	3462.2045	3664.183	3777.3299
CC1=CNC(O)=NC1=N	CC1=C(N=C(NC1)O)[NH]	
InChI=1S/C5H7N3O/c1-3-2-7-5(9)8-4(3)6/h2H,1H3,(H3,6,7,8,9)	InChI=1S/C5H8N3O/c1-3-2-7-5(9)8-4(3)6/h6H,2H2,1H3,(H2,7,8,9)
