19
gdb 66626	2.62468	1.93716	1.47316	1.3133	78.35	-0.2257	0.0721	0.2978	956.979	0.159482	-385.81909	-385.811599	-385.810655	-385.850388	30.948	
C	-0.0311385784	 1.5809534484	 0.0000287457	-0.534618
C	-0.0496574564	 0.0827469675	-0.009566482	 0.282797
C	 0.7161667878	-0.8502832156	-1.0386247644	-0.101257
C	 1.7997048753	-1.1349020066	 0.0307692039	-0.247796
C	 0.6657512324	-0.8586266954	 1.0470180327	-0.096549
C	-0.4725007781	-1.8560768122	 0.746454242	-0.121413
C	-0.429702342	-1.856424877	-0.8082327339	-0.169224
C	-1.2938875878	-0.8826032208	-0.0404049481	 0.319809
O	-2.650006103	-0.6722846507	 0.0130542652	-0.454607
H	 0.9959675271	 1.9625542352	 0.0367263672	 0.12088
H	-0.5049176677	 1.9944745769	-0.8984195483	 0.113169
H	-0.5664396615	 1.9785163982	 0.8697346963	 0.12627
H	 0.9589891521	-0.5504845111	-2.0586778379	 0.057553
H	 2.2826474357	-2.1168445412	 0.0375797879	 0.090158
H	 2.5619205711	-0.3494918298	 0.053026713	 0.094604
H	 0.8550343795	-0.5694581467	 2.0808624627	 0.061717
H	-0.795192316	-2.7266941261	 1.3018383087	 0.087422
H	-0.7074332638	-2.7338400682	-1.3780335706	 0.08424
H	-2.9501642563	-0.3951022447	-0.85995051	 0.286847
184.6622	207.9872	222.9604	288.3751	301.7558	349.3256	482.8985	565.3777	575.9446	612.3349	714.2798	756.8237	791.8697	841.4156	844.4709	870.5971	877.0121	899.9665	938.6795	941.5409	989.7494	1022.4368	1030.7327	1069.0644	1096.9889	1103.9176	1146.5495	1158.5327	1180.3862	1211.4656	1213.7236	1226.2558	1269.3491	1275.1237	1312.6699	1347.2346	1411.4581	1471.0929	1485.9679	1488.3081	1494.9127	3017.8621	3042.9559	3079.0386	3086.6614	3097.1345	3106.2668	3113.5226	3193.7116	3205.346	3787.7439
CC12C3CC1C1C3C21O	C[C@@]12[C@H]3C[C@@H]1[C@@H]1[C@H]3[C@]21O	
InChI=1S/C8H10O/c1-7-3-2-4(7)6-5(3)8(6,7)9/h3-6,9H,2H2,1H3	InChI=1S/C8H10O/c1-7-3-2-4(7)6-5(3)8(6,7)9/h3-6,9H,2H2,1H3/t3-,4+,5-,6+,7+,8+
