21
gdb 40729	3.47706	1.15364	1.08258	1.7504	81.32	-0.2543	0.0902	0.3446	1218.4006	0.184287	-387.0739	-387.065995	-387.065051	-387.106488	31.468	
C	-0.206269675	 0.9883597908	-0.4863605886	-0.279224
C	 1.233493246	 0.7042740272	-0.1267145879	-0.279224
C	 0.1624855592	-0.3094990285	 0.1861346086	 0.042973
C	-0.2477879565	-0.5685417316	 1.6239553279	-0.016782
C	-1.6884422425	-1.1560671303	 1.7330122621	-0.259346
C	-1.4906427961	-2.6508134616	 1.8721462798	 0.056141
O	-0.5883255689	-3.2075666649	 0.9026333013	-0.255491
C	-0.0923462838	-2.9267190015	 2.2214339039	 0.056141
C	 0.6677701765	-1.6209842352	 2.3215817148	-0.259346
H	-0.7325106702	 1.7349094112	 0.1006116623	 0.105209
H	-0.4907088052	 0.9688931381	-1.5326592997	 0.109464
H	 1.9332431138	 0.4906133553	-0.9271674727	 0.109464
H	 1.664136167	 1.2620164293	 0.6992832428	 0.105209
H	 0.1434053727	-1.1966400486	-0.4382385724	 0.102838
H	-0.194206101	 0.384104891	 2.1619569743	 0.064358
H	-2.2031434673	-0.7863681221	 2.628545864	 0.096761
H	-2.3027766164	-0.8877044576	 0.8680712852	 0.112331
H	-2.312618213	-3.300100881	 2.1642240959	 0.089717
H	 0.2132259116	-3.7984887814	 2.7951675153	 0.089717
H	 1.6575750642	-1.6691441068	 1.8573455895	 0.112331
H	 0.813995825	-1.3816953717	 3.3822107037	 0.096761
89.6939	114.0195	178.8475	291.8619	318.9176	337.7079	411.251	459.6671	668.9596	740.3934	762.3111	804.1699	812.276	838.5554	862.1273	897.306	905.8323	920.8918	929.6444	974.8785	984.0265	1025.3276	1044.7608	1055.7834	1062.0732	1076.2032	1112.187	1157.6879	1159.3215	1193.0922	1201.158	1223.9568	1226.1066	1254.8371	1279.1895	1305.4686	1315.7357	1328.2458	1352.7055	1423.022	1443.0944	1469.6185	1476.9029	1487.4975	1506.0747	3028.3316	3032.7775	3048.4528	3084.5523	3085.9261	3124.4135	3129.4226	3136.4191	3149.3305	3169.511	3202.1954	3217.9279
C1CC1C1CC2OC2C1	C1CC1[C@H]1C[C@H]2O[C@H]2C1	
InChI=1S/C8H12O/c1-2-5(1)6-3-7-8(4-6)9-7/h5-8H,1-4H2	InChI=1S/C8H12O/c1-2-5(1)6-3-7-8(4-6)9-7/h5-8H,1-4H2/t6-,7+,8-
