23
gdb 123037	2.93039	0.79598	0.69951	1.1461	84.24	-0.2404	0.0902	0.3306	1738.7372	0.203047	-425.390892	-425.380098	-425.379153	-425.428536	37.993	
C	 0.5362622768	 1.2920729697	-0.1582644818	-0.223822
O	 0.441596779	-0.1083682572	-0.2416422185	-0.226511
C	 0.3910023383	-0.7292313203	 1.0224345222	-0.061066
C	 0.3724059718	-2.2315874087	 0.8323824442	-0.065335
O	 1.6484818327	-2.6447572947	 0.3850606446	-0.244626
C	 1.7053056316	-3.9746216518	-0.0212644364	 0.126913
C	 1.1750077806	-4.3487907076	-1.38609387	-0.323638
C	 2.6694713308	-4.3024024612	-1.1231901773	-0.02624
C	 3.516087694	-3.2153692682	-1.7479567805	-0.399554
H	 1.4490962926	 1.6102568938	 0.3701154617	 0.105016
H	 0.5668403207	 1.680130311	-1.1793758763	 0.126292
H	-0.3298781091	 1.7324021679	 0.3624174097	 0.099957
H	 1.2658026409	-0.4486894286	 1.6318740167	 0.09589
H	-0.5140772412	-0.4205932329	 1.5740744357	 0.081855
H	 0.1181049581	-2.7177717885	 1.7888484914	 0.084259
H	-0.4020619764	-2.4996693684	 0.0994890382	 0.102653
H	 1.5791064817	-4.6950723336	 0.7892589785	 0.076469
H	 0.6851759854	-5.3075443807	-1.5183250413	 0.105999
H	 0.7624506175	-3.5392068469	-1.9798483148	 0.122246
H	 3.1608228271	-5.2676391598	-1.0309696029	 0.081663
H	 2.9911602756	-2.2578927415	-1.7249716302	 0.13839
H	 4.4591462062	-3.0896323013	-1.2048004201	 0.113515
H	 3.7573041852	-3.4568423704	-2.7887268526	 0.109673
25.6494	48.3686	84.0944	142.9993	150.1834	199.2659	233.0687	256.2769	288.9337	322.4482	346.4927	454.7843	553.7483	566.0597	756.3469	827.2302	865.3538	875.8504	900.6383	932.0542	1001.6185	1025.6162	1053.2549	1066.1507	1110.1631	1115.4599	1139.4051	1148.6742	1168.5741	1186.2532	1191.792	1196.5345	1227.5621	1251.4856	1262.8741	1301.5605	1364.8616	1391.9979	1415.9165	1420.4971	1441.3702	1478.3909	1483.4657	1485.7662	1495.3387	1497.9659	1502.7964	1508.466	1521.8137	2950.2531	2965.9505	2974.49	2991.0626	3008.9295	3026.7703	3033.7494	3077.0633	3090.5446	3112.6411	3123.1068	3128.3586	3142.659	3216.4963
COCCOC1CC1C	COCCO[C@H]1C[C@H]1C	
InChI=1S/C7H14O2/c1-6-5-7(6)9-4-3-8-2/h6-7H,3-5H2,1-2H3	InChI=1S/C7H14O2/c1-6-5-7(6)9-4-3-8-2/h6-7H,3-5H2,1-2H3/t6-,7+/m1/s1
