18
gdb 69053	3.19879	1.14452	1.04587	3.3056	74.13	-0.2296	0.0202	0.2499	1204.4319	0.146375	-439.068467	-439.059616	-439.058672	-439.102504	32.54	
C	 0.0062015916	 1.4930882176	 0.0977837293	-0.488475
C	 0.0676652756	 0.0023186337	 0.0645218452	 0.386353
C	-0.7651951533	-0.9621080496	 0.85355146	-0.33354
C	 0.7418191468	-1.0665544099	 0.9189670249	 0.266065
C	 1.2524656977	-1.6267806752	-0.4058950371	-0.127575
O	 0.5104977983	-0.6246067518	-1.1493106879	-0.318059
N	 1.4664967732	-0.985491214	 2.1302523243	-0.396865
C	 1.1990368958	-1.7350686366	 3.2460813279	 0.134831
O	 0.2986699892	-2.5327739482	 3.3604245096	-0.304685
H	 0.9553084564	 1.9343426419	-0.2227724902	 0.12573
H	-0.7798910504	 1.8586287472	-0.5722112156	 0.1404
H	-0.2242374568	 1.8432200946	 1.1080733253	 0.128115
H	-1.2136825645	-0.5654691033	 1.7577948182	 0.129642
H	-1.3414950543	-1.7336618132	 0.3513075451	 0.12055
H	 2.3321243004	-1.4953014989	-0.5506226884	 0.100569
H	 0.963628528	-2.6502872668	-0.671091171	 0.114394
H	 2.2862412566	-0.3970762021	 2.1607633983	 0.247812
H	 1.9174612497	-1.5065213455	 4.0598278721	 0.074738
43.7541	128.2924	164.6894	189.4595	237.8391	239.7283	363.4523	387.647	449.524	491.6319	540.98	581.9334	686.981	763.9982	840.118	891.9091	924.3562	947.9668	979.5044	989.357	1030.4395	1048.0477	1075.5042	1107.5249	1137.1589	1154.459	1183.3493	1228.2854	1298.4403	1345.066	1399.8009	1425.4632	1437.1778	1473.0076	1487.2326	1503.1595	1515.5597	1529.469	1819.408	2924.5135	3017.4146	3033.8975	3070.9965	3097.126	3116.7508	3126.2938	3222.6236	3599.8131
CC12CC1(CO2)NC=O	C[C@]12C[C@]1(CO2)NC=O	
InChI=1S/C6H9NO2/c1-5-2-6(5,3-9-5)7-4-8/h4H,2-3H2,1H3,(H,7,8)	InChI=1S/C6H9NO2/c1-5-2-6(5,3-9-5)7-4-8/h4H,2-3H2,1H3,(H,7,8)/t5-,6+/m0/s1
