21
gdb 100073	2.65215	1.00902	0.9441	4.1274	75.21	-0.2508	-0.0338	0.217	1384.4026	0.178937	-461.390535	-461.379988	-461.379043	-461.426213	38.838	
C	-2.6630477619	 0.9578367749	 1.3876503845	-0.474377
C	-2.0348088161	-0.4172826598	 1.4385459583	 0.397037
O	-2.2282886404	-1.1632383036	 2.3803521196	-0.319138
C	-1.1291520301	-0.7976177479	 0.2737760602	-0.355582
C	-0.9586491799	-2.3100531313	 0.0203488908	 0.325126
C	 0.1454334079	-2.555916848	-1.0085655957	-0.40808
O	-0.5530623811	-2.9847201853	 1.2135739353	-0.4814
C	-2.2876374025	-2.9433366651	-0.4552428953	-0.07651
O	-2.1753360747	-4.3478781957	-0.5064240361	-0.425823
H	-3.1530595105	 1.1839875328	 2.3351437028	 0.148993
H	-1.9091330485	 1.7189322796	 1.1590749826	 0.144385
H	-3.4011615261	 0.9913921478	 0.5774377795	 0.151239
H	-1.4734456051	-0.2934377112	-0.6367668866	 0.11565
H	-0.1451705744	-0.3631519194	 0.5035932664	 0.140687
H	 1.1125135916	-2.2407031464	-0.6077466207	 0.116555
H	 0.1922436345	-3.6208302839	-1.2456754101	 0.137319
H	-0.0520094297	-2.0050165622	-1.9335103439	 0.106523
H	-1.1231637405	-2.6397845854	 1.9212201229	 0.29482
H	-3.1017721541	-2.6348338378	 0.2211679701	 0.081952
H	-2.5406322245	-2.5957065552	-1.4638247579	 0.095565
H	-1.6924794237	-4.5831021371	 0.2989095433	 0.285058
45.6212	104.6151	129.5819	145.8251	203.2248	228.4099	250.5831	313.7978	325.7216	355.3432	386.6744	458.291	477.2879	511.9519	558.8337	665.8107	693.0325	769.9235	814.6693	848.0486	917.9943	953.5233	964.0865	981.1677	1023.0185	1089.7559	1136.8613	1159.8192	1185.4175	1191.0317	1250.2697	1281.6694	1350.8956	1364.886	1386.1774	1396.543	1432.6766	1445.0215	1457.36	1460.409	1474.7581	1482.7778	1498.0198	1508.7013	1781.2118	2968.3523	3015.2398	3036.7993	3044.1397	3056.1857	3067.6204	3097.8548	3116.9834	3136.0408	3155.4644	3649.4416	3738.6862
CC(=O)CC(C)(O)CO	CC(=O)C[C@@](C)(O)CO	
InChI=1S/C6H12O3/c1-5(8)3-6(2,9)4-7/h7,9H,3-4H2,1-2H3	InChI=1S/C6H12O3/c1-5(8)3-6(2,9)4-7/h7,9H,3-4H2,1-2H3/t6-/m1/s1
