19
gdb 57859	2.23893	1.29801	0.97428	3.3713	79.53	-0.2404	0.0172	0.2576	1283.1309	0.156844	-419.186112	-419.175188	-419.174244	-419.222564	37.962	
C	 0.1530641493	 1.4324815486	-0.0314653886	-0.34446
N	 0.1437840005	-0.0228701613	-0.0427286632	-0.082137
C	 0.2248983267	-0.6554011842	 1.2613787324	-0.341659
C	 0.0445106632	-0.6729640855	-1.2379192141	 0.390385
O	-0.0216406114	-0.0912630726	-2.3076648063	-0.381214
C	-0.0099540978	-2.240721117	-1.2321955821	-0.273377
N	-0.4654600219	-2.7773129372	-2.5123650484	-0.487931
C	 1.3087259625	-2.7800387205	-0.893469058	 0.373297
C	 2.4046610325	-3.1905527984	-0.6194654925	-0.478923
H	 1.0881137261	 1.807323038	 0.4028278851	 0.124829
H	 0.0597621092	 1.7861967722	-1.0563624862	 0.170672
H	-0.6813869584	 1.8165395419	 0.5685451282	 0.121428
H	 0.4129225066	-1.7231219254	 1.1792501806	 0.156733
H	 1.0574779407	-0.2217613063	 1.8283173516	 0.131375
H	-0.6950952342	-0.4931233192	 1.8395861408	 0.123326
H	-0.7278708949	-2.5644456849	-0.4686158634	 0.119424
H	-1.4168080332	-2.4507126998	-2.6653991071	 0.231465
H	 0.0775531781	-2.3178014426	-3.2407838197	 0.244011
H	 3.3689153463	-3.5695117959	-0.3857970794	 0.202757
51.8743	85.1087	93.6174	142.1546	152.2904	166.5252	228.6208	243.082	266.6459	347.6978	385.1396	420.9769	454.2488	582.0552	601.9145	622.4743	656.9444	708.28	819.6279	913.8768	948.764	979.6392	1082.9917	1129.1259	1131.0537	1167.1394	1178.706	1226.4176	1261.7343	1285.9758	1409.643	1426.4724	1435.7666	1476.1009	1486.275	1503.1161	1503.7815	1541.7222	1671.6502	1757.3157	2234.5697	3007.9033	3017.859	3033.0479	3059.0501	3065.0265	3173.7912	3177.2858	3479.4692	3503.0642	3548.9491
CN(C)C(=O)C(N)C#C	CN(C)C(=O)[C@@H](N)C#C	
InChI=1S/C6H10N2O/c1-4-5(7)6(9)8(2)3/h1,5H,7H2,2-3H3	InChI=1S/C6H10N2O/c1-4-5(7)6(9)8(2)3/h1,5H,7H2,2-3H3/t5-/m0/s1
