18
gdb 61173	3.45663	0.84269	0.7759	4.7952	78.7	-0.2702	0.0185	0.2887	1484.5125	0.144491	-401.926006	-401.915678	-401.914734	-401.961805	36.833	
C	-0.1031134656	 1.6000085706	 0.100920408	-0.418312
C	-0.0352302035	 0.0637422607	-0.0230854231	-0.18128
C	-1.3742255322	-0.5173819145	 0.039104757	 0.318084
C	-2.4781239553	-0.9890594654	 0.0890146569	-0.439102
C	 0.6922128478	-0.4177876918	-1.3145526231	 0.130972
O	 0.1063414943	 0.0808810519	-2.4943576952	-0.415124
C	 2.2085349898	-0.1089139911	-1.2550133385	-0.389377
C	 2.9296710367	-0.6508618051	-2.4034957704	 0.272956
N	 3.5086117272	-1.0838933888	-3.3043852788	-0.299138
H	 0.8941590826	 2.050000258	 0.1189154338	 0.118965
H	-0.6746023171	 2.0314744632	-0.7260629715	 0.132773
H	-0.6118005015	 1.8779852874	 1.0263426539	 0.143448
H	 0.5420942662	-0.3236149439	 0.8282638482	 0.109236
H	-3.4515727902	-1.4116278503	 0.1302338927	 0.200209
H	 0.5701191765	-1.5029507345	-1.3767660248	 0.126066
H	 0.2246391249	 1.0365069349	-2.5249648765	 0.288024
H	 2.3768717695	 0.9740438294	-1.2198113313	 0.147072
H	 2.6416765698	-0.5268742507	-0.3390810173	 0.154526
55.4499	62.053	104.6198	173.79	196.2572	238.7068	265.0199	305.9383	319.253	368.5395	395.2984	445.1429	508.6035	570.046	632.4073	648.6841	676.5262	810.3276	866.9099	921.9156	951.0076	1004.4433	1024.7191	1087.483	1108.0181	1138.0854	1194.948	1277.9887	1288.24	1338.4534	1347.5791	1377.0945	1409.6014	1428.5468	1462.8899	1492.8225	1508.5653	2239.9035	2367.1395	3008.2597	3039.149	3045.3241	3072.9037	3088.9233	3115.8896	3129.5605	3503.956	3807.2387
CC(C#C)C(O)CC#N	C[C@@H](C#C)[C@@H](O)CC#N	
InChI=1S/C7H9NO/c1-3-6(2)7(9)4-5-8/h1,6-7,9H,4H2,2H3	InChI=1S/C7H9NO/c1-3-6(2)7(9)4-5-8/h1,6-7,9H,4H2,2H3/t6-,7-/m0/s1
