18
gdb 125422	5.48702	0.96025	0.87826	2.5765	79.57	-0.2312	0.0163	0.2475	1358.4034	0.149357	-398.158129	-398.149584	-398.14864	-398.193329	30.738	
C	 0.1968320659	 1.4665264986	 0.0466014501	-0.497925
C	 0.0222562505	-0.0109967653	-0.054858509	 0.354264
N	 0.1109709702	-0.7449854841	-1.1513899706	-0.355358
C	-0.1012643856	-2.0207624007	-0.7040352121	 0.341779
N	-0.3175979302	-2.114736232	 0.6018016195	-0.293562
N	-0.2339514385	-0.8181437327	 0.9957910558	-0.231104
C	-0.0919747807	-3.1820717763	-1.6108935899	-0.090557
C	 0.4423796207	-4.5188576618	-1.1348696602	-0.259249
C	-1.0289234264	-4.349302336	-1.3678639338	-0.259128
H	 1.256383177	 1.7338162974	 0.125561761	 0.150964
H	-0.1996880783	 1.9444619885	-0.851196228	 0.160968
H	-0.3206953065	 1.8734035366	 0.9199903418	 0.126998
H	-0.3635394387	-0.5810987409	 1.9654835072	 0.273199
H	 0.1026366716	-2.9067555145	-2.6402344167	 0.098335
H	 1.0173867272	-5.109760413	-1.8392338583	 0.110941
H	 0.7881852639	-4.5619852808	-0.1085421953	 0.129247
H	-1.6718196202	-4.2784732806	-0.4981346886	 0.129223
H	-1.4777038517	-4.8221851023	-2.2344169029	 0.110965
22.7133	35.6583	151.6724	164.6445	264.4415	301.4977	426.9843	439.2938	529.814	635.8654	697.2665	721.9664	771.5383	796.526	828.6869	918.7727	920.9375	994.1566	1019.4045	1059.9005	1061.659	1078.1533	1083.9285	1084.7468	1135.2212	1185.8101	1206.5763	1220.3091	1257.4112	1322.5595	1405.8922	1424.987	1453.1154	1461.8379	1477.8622	1494.9332	1509.0573	1543.8797	1586.6436	3042.2028	3102.9982	3135.1595	3138.4134	3138.6874	3187.4383	3220.3559	3235.7835	3662.7578
CC1=NC(=NN1)C1CC1	Cc1nc(n[nH]1)C1CC1	
InChI=1S/C6H9N3/c1-4-7-6(9-8-4)5-2-3-5/h5H,2-3H2,1H3,(H,7,8,9)	InChI=1S/C6H9N3/c1-4-7-6(9-8-4)5-2-3-5/h5H,2-3H2,1H3,(H,7,8,9)
