18
gdb 26139	2.6315	1.36439	1.09557	2.098	75.93	-0.1961	0.0143	0.2104	1170.9181	0.148046	-435.28178	-435.27264	-435.271696	-435.315853	33.246	
C	 0.2306754473	 1.1325825412	-0.4676331977	-0.330387
N	-0.015081058	-0.0744860447	 0.3208278449	-0.180806
C	 0.4478868644	 0.0397294796	 1.7052534893	-0.334092
C	-1.2557766681	-0.6590245176	 0.1493175519	 0.279233
C	-1.6503561348	-1.8841575341	-0.2949389772	 0.222322
N	-0.8711793599	-2.9678337358	-0.6745274724	-0.597288
N	-3.0334405986	-1.9766980132	-0.2636457203	-0.311087
C	-3.4154474619	-0.8260498732	 0.1968852633	 0.078111
O	-2.4350177205	 0.0348621531	 0.48661618	-0.187196
H	 1.3017314525	 1.3615790957	-0.4569870728	 0.117149
H	-0.0782904927	 0.960043775	-1.5012972789	 0.125925
H	-0.3108648212	 2.0127278472	-0.0852505151	 0.11351
H	-0.0728994116	 0.8325520695	 2.2663953767	 0.111323
H	 0.2887341216	-0.9109143373	 2.218774393	 0.13428
H	 1.5197931225	 0.2652963701	 1.7127220702	 0.116489
H	 0.0601490672	-2.6973779011	-0.9605788593	 0.24784
H	-1.3262825508	-3.5451055827	-1.3686584336	 0.252672
H	-4.4295026075	-0.4934989716	 0.3615077783	 0.142002
56.8054	135.0449	137.9609	211.323	223.2777	257.4455	290.4158	324.2214	377.2654	464.6257	519.9166	613.3439	664.6433	686.1529	729.2389	774.7005	839.8468	939.032	956.2782	1003.0613	1056.4903	1084.5216	1117.5856	1173.5603	1202.9137	1222.6726	1229.4654	1320.8476	1357.7473	1420.8964	1438.606	1469.4879	1479.1213	1494.8144	1500.9132	1519.9318	1552.6006	1625.838	1728.3338	2974.6048	2980.0229	3063.2684	3064.5419	3118.8747	3124.2876	3259.0551	3548.2326	3651.0142
CN(C)C1=C(N)N=CO1	CN(C)c1c(N)nco1	
InChI=1S/C5H9N3O/c1-8(2)5-4(6)7-3-9-5/h3H,6H2,1-2H3	InChI=1S/C5H9N3O/c1-8(2)5-4(6)7-3-9-5/h3H,6H2,1-2H3
