27
gdb 123142	5.31277	0.47063	0.44784	0.8449	94.93	-0.2483	0.0876	0.3359	2608.1063	0.249296	-390.70321	-390.690991	-390.690047	-390.74206	42.974	
C	-0.0202440259	 1.5622065048	-0.0243421033	-0.378946
C	 0.0148342521	 0.0315087393	-0.0263964582	-0.164701
C	 0.7200850472	-0.5469447405	-1.2570275853	-0.178786
C	 0.7555153764	-2.0690830828	-1.2590097302	-0.04973
O	 1.4145877376	-2.5089520558	-2.4264075446	-0.251196
C	 1.5050974368	-3.9136365054	-2.528057086	-0.037119
C	 2.190249073	-4.2823065045	-3.8437803927	 0.022043
C	 2.4227656856	-5.7961808402	-3.9150815992	-0.392294
C	 1.3885391154	-3.7735968374	-5.0479514346	-0.379081
H	 0.9922095553	 1.9805963137	-0.0378024359	 0.115087
H	-0.5471260649	 1.9466055103	-0.9046594155	 0.115097
H	-0.5290032174	 1.9490335304	 0.8641086464	 0.110777
H	 0.5172567639	-0.323371039	 0.883323606	 0.095613
H	-1.0108911608	-0.3574838342	 0.0231326506	 0.095654
H	 0.2182460894	-0.2083639053	-2.1720233912	 0.102316
H	 1.7500129584	-0.1730054114	-1.3111936349	 0.102493
H	 1.2785338633	-2.441889221	-0.3603798758	 0.080396
H	-0.2701136465	-2.4772321535	-1.2218589632	 0.080935
H	 2.0749231311	-4.3208748809	-1.6746123844	 0.077776
H	 0.4975227103	-4.3669097906	-2.4873588312	 0.07699
H	 3.1664190756	-3.7788977296	-3.8425399201	 0.081257
H	 1.4717932137	-6.3422869443	-3.9007641372	 0.112229
H	 2.9436369671	-6.0679119514	-4.838479976	 0.113539
H	 3.0257419061	-6.1532061164	-3.0731560484	 0.110197
H	 1.9198919409	-3.9673128	-5.9854072895	 0.10543
H	 0.4150693661	-4.2761623037	-5.1072751255	 0.104756
H	 1.2088198203	-2.6993312006	-4.9661145101	 0.129269
38.2788	52.6383	75.981	105.8523	133.2709	159.5538	192.6591	218.6743	245.6387	251.5206	262.5256	331.4681	374.7697	418.2129	490.3691	516.0779	744.7291	815.5267	834.1294	905.0726	924.4884	931.5367	953.4001	962.7895	976.1873	1020.3912	1037.5741	1071.9658	1135.1876	1157.6674	1165.6126	1185.3843	1200.9278	1204.2771	1252.2305	1275.5865	1292.9546	1311.0554	1323.8199	1329.1112	1372.698	1384.5653	1397.9346	1401.4429	1413.4271	1419.1736	1453.3447	1487.6022	1488.8968	1490.2392	1495.8568	1500.3922	1503.6708	1507.5143	1512.7019	1515.265	1534.8728	2930.3926	2944.6589	2963.2739	2964.7476	3012.9128	3019.1429	3023.8803	3027.8365	3029.9008	3032.0497	3038.7467	3072.2102	3087.2066	3092.9176	3098.0153	3101.8044	3102.4316	3127.4831
CCCCOCC(C)C	CCCCOCC(C)C	
InChI=1S/C8H18O/c1-4-5-6-9-7-8(2)3/h8H,4-7H2,1-3H3	InChI=1S/C8H18O/c1-4-5-6-9-7-8(2)3/h8H,4-7H2,1-3H3
