17
gdb 17742	3.88697	2.53358	2.10902	1.9188	70.15	-0.2229	0.0764	0.2992	719.2396	0.143636	-326.642737	-326.636721	-326.635777	-326.672337	25.149	
C	 0.0077480354	 1.5002397057	 0.0262309976	-0.510709
C	 0.053639531	-0.0041583133	-0.0021848365	 0.331171
C	 0.8499824002	-0.8352085592	-1.0448319027	-0.281477
C	 0.7369747146	-1.9542113288	-0.0007167688	 0.008853
C	 0.6476695156	-0.9180922116	 1.1590330364	-0.128485
C	-0.7691774971	-1.4541479507	 1.4777355681	-0.055389
C	-1.24425998	-0.8146454632	 0.2287961429	-0.091318
N	-0.7506486469	-2.2324009011	 0.1997518997	-0.153672
H	 1.0144651015	 1.930991172	 0.0094705144	 0.1173
H	-0.5370417563	 1.8935826228	-0.8406658782	 0.120189
H	-0.4992166923	 1.863166364	 0.9275422256	 0.120754
H	 0.4159240371	-0.9976714721	-2.0359654715	 0.100701
H	 1.882088669	-0.4797285196	-1.1363751357	 0.098472
H	 1.3425505118	-2.8590188504	-0.00773447	 0.074125
H	 1.4469465697	-0.6113331113	 1.8291754305	 0.06927
H	-1.2796665721	-1.7906250714	 2.372071099	 0.092873
H	-2.2467867711	-0.619563662	-0.1338472705	 0.087342
226.7059	258.0272	271.2432	413.3025	547.6776	578.6841	748.2594	752.6547	785.4563	793.0804	835.3417	841.1964	877.4747	901.7508	916.1214	941.0087	959.3379	1000.7966	1010.4383	1039.1603	1080.8937	1087.8989	1128.1022	1160.555	1183.0437	1201.2935	1225.5998	1246.0457	1253.6576	1268.257	1306.8162	1353.2985	1414.2618	1480.3706	1491.2414	1492.3811	3021.2	3042.3487	3083.0379	3093.4773	3102.1309	3127.2713	3145.937	3173.8998	3188.36
CC12CC3C1C1C2N31	C[C@@]12C[C@H]3[C@@H]1[C@H]1[C@@H]2N31	
InChI=1S/C7H9N/c1-7-2-3-4(7)5-6(7)8(3)5/h3-6H,2H2,1H3	InChI=1S/C7H9N/c1-7-2-3-4(7)5-6(7)8(3)5/h3-6H,2H2,1H3/t3-,4+,5-,6-,7+,8?/m0/s1
