16
gdb 126382	2.72666	1.49789	0.97826	1.026	74.37	-0.2464	-0.0734	0.173	1162.1553	0.125719	-434.108793	-434.100776	-434.099832	-434.141971	29.328	
C	-0.0602448677	 1.5570597562	 0.10072097	-0.384797
C	 0.0207005592	 0.0401862082	-0.0409086089	-0.259743
C	 0.7244877158	-0.4412063571	-1.2730299163	 0.218165
N	 1.2132926207	 0.3854081169	-2.1477218915	-0.299417
C	 1.8422274698	-0.1370921706	-3.2483534815	 0.07197
N	 2.0090427989	-1.3961377035	-3.5213599482	-0.180085
N	 1.4991609168	-2.2422751127	-2.6088679946	-0.260012
C	 0.8323881371	-1.909149542	-1.4411946764	 0.397784
O	 0.4040140079	-2.7488615	-0.6700655088	-0.376525
H	 0.9362643813	 2.0053809675	 0.1311194453	 0.129724
H	-0.5917175316	 2.0055808973	-0.7426048065	 0.13003
H	-0.5866901043	 1.8216336841	 1.0216993723	 0.114431
H	 0.5214119868	-0.4203697341	 0.8219581103	 0.140275
H	-0.977617786	-0.4192513474	-0.0350893083	 0.140109
H	 2.2433659499	 0.5675259839	-3.9667834653	 0.138604
H	 1.6225054857	-3.2269695968	-2.8091575317	 0.279486
56.5877	123.0607	188.2951	205.5031	269.9845	329.8793	432.9347	529.3261	552.1312	581.1121	591.5746	735.0168	740.5067	746.1048	830.0754	895.9715	931.8193	995.9131	1056.8853	1092.0732	1142.4784	1160.0554	1232.3389	1266.1934	1279.0895	1387.7476	1398.0239	1417.5049	1434.2615	1444.5086	1493.5949	1498.921	1565.6441	1635.4724	1780.8299	3024.0027	3040.886	3051.326	3123.4169	3124.5458	3214.3252	3584.4535
CCC1=NC=NNC1=O	CCc1ncn[nH]c1=O	
InChI=1S/C5H7N3O/c1-2-4-5(9)8-7-3-6-4/h3H,2H2,1H3,(H,8,9)	InChI=1S/C5H7N3O/c1-2-4-5(9)8-7-3-6-4/h3H,2H2,1H3,(H,8,9)
