18
gdb 96838	3.39224	1.13643	0.88097	2.3974	76.21	-0.261	-0.0089	0.2521	1321.6751	0.146879	-439.149125	-439.140043	-439.139098	-439.183598	32.441	
C	-0.2408261177	 1.4884305318	 0.1274864134	-0.33976
N	-0.0263890309	 0.0565100656	-0.0031732232	-0.302234
C	 0.6761249539	-0.5668988498	 0.8237177559	 0.421263
C	 1.0020727507	-2.0422522216	 0.8060956196	-0.3313
C	 1.4874059295	-2.326061795	 2.2347088352	-0.13832
C	 2.6219759255	-3.336158087	 2.3953685889	-0.403383
C	 1.8635278454	-0.9386467543	 2.7478263824	 0.43215
O	 2.5121518916	-0.644914205	 3.704494779	-0.320821
O	 1.309394831	 0.0186483824	 1.9250986069	-0.225097
H	 0.1893312073	 1.9896943419	-0.7466650404	 0.134435
H	-1.3179701723	 1.6843310865	 0.106008985	 0.132205
H	 0.1865785433	 1.9294198378	 1.0339158294	 0.13377
H	 0.1391851716	-2.6283449574	 0.4896240981	 0.143236
H	 1.8068697571	-2.2212182444	 0.082782842	 0.138779
H	 0.6364732088	-2.6407919026	 2.8542725175	 0.125509
H	 3.4776378792	-3.0661426083	 1.7681610483	 0.127626
H	 2.9598912142	-3.3628419476	 3.4338630122	 0.147646
H	 2.2918020316	-4.3382421128	 2.1083228099	 0.124297
59.8566	83.2097	131.5941	199.3248	213.3701	241.5052	254.0729	348.0854	446.5809	534.149	585.6302	606.0579	640.4449	729.5276	784.4804	882.8521	916.1861	942.7092	1021.9197	1050.5699	1082.1706	1123.4116	1135.8452	1141.494	1155.0624	1204.7022	1258.9883	1285.7223	1310.9541	1353.7732	1414.1595	1439.4726	1476.8923	1493.0672	1496.2255	1496.7793	1498.6204	1816.904	1908.3221	3021.8064	3025.7396	3043.9507	3047.0963	3088.0618	3101.4782	3114.4164	3131.9471	3133.1694
CN=C1CC(C)C(=O)O1	CN=C1C[C@@H](C)C(=O)O1	
InChI=1S/C6H9NO2/c1-4-3-5(7-2)9-6(4)8/h4H,3H2,1-2H3	InChI=1S/C6H9NO2/c1-4-3-5(7-2)9-6(4)8/h4H,3H2,1-2H3/t4-/m1/s1
