25
gdb 105229	1.84975	1.3219	1.03708	1.2933	88.66	-0.2515	0.0775	0.329	1363.4548	0.22648	-389.482307	-389.471163	-389.470219	-389.518284	41.898	
C	 0.84042485	 0.3453917906	 1.2578540856	-0.376409
C	 0.0134568636	-0.3206586891	 0.1485693307	-0.27669
C	 0.7406911177	-0.5515961633	-1.1771396519	 0.356068
C	 2.0012403583	-1.4057395501	-1.1445040472	-0.388104
C	 0.7322521751	-1.9532905755	-1.7441651548	 0.056394
O	 0.012255449	-2.9430891811	-1.065802224	-0.424052
C	 0.7008165032	 0.55744947	-2.2379837409	-0.023196
C	-0.7231253203	 0.8123483227	-2.7571610113	-0.396658
C	 1.3595219599	 1.867336081	-1.7802160509	-0.397765
H	 1.7276444414	-0.2473208285	 1.5032673195	 0.110592
H	 1.183062738	 1.3458451566	 0.981493608	 0.115368
H	 0.2442697322	 0.4393949291	 2.1717184037	 0.1074
H	-0.34540434	-1.2887321176	 0.5093703932	 0.120872
H	-0.8850934225	 0.2783462573	-0.0394864	 0.094259
H	 2.829205505	-1.1534723111	-1.799996765	 0.10446
H	 2.2963690703	-1.8184047858	-0.1847884389	 0.107886
H	 0.6836564366	-2.0385606424	-2.8305732839	 0.080194
H	 0.5534251866	-3.7385351501	-1.040205268	 0.286984
H	 1.2891027753	 0.1847906516	-3.0887662251	 0.063787
H	-1.3645337219	 1.2458007035	-1.9824297434	 0.116883
H	-0.7072636387	 1.5159973028	-3.5961677908	 0.106956
H	-1.1938141619	-0.114149139	-3.1005559248	 0.117106
H	 2.3684730442	 1.6955930497	-1.3921426365	 0.112589
H	 1.43360841	 2.5717101179	-2.6156842099	 0.10658
H	 0.7735863389	 2.3554345909	-0.9946659233	 0.118496
41.3582	89.2022	159.409	200.5268	216.3327	231.9213	242.7188	267.5737	278.3252	289.0272	325.768	335.8185	438.1522	470.6112	496.1713	598.6832	661.611	773.1274	816.2024	857.8584	915.3799	926.2444	930.1261	965.8859	968.3608	1016.7955	1031.3036	1049.8114	1082.2845	1101.1285	1129.6637	1141.3749	1170.3965	1202.4375	1251.7464	1280.3428	1308.7948	1341.1953	1349.0064	1363.9172	1395.9118	1402.6408	1410.3243	1418.1633	1425.1772	1480.3619	1484.3611	1489.9867	1491.8513	1499.9698	1507.0266	1509.5461	1514.338	2993.0537	3028.5072	3032.601	3038.7652	3042.7841	3085.6906	3086.0238	3093.5583	3098.6824	3099.1841	3103.3858	3105.3766	3119.5794	3122.3339	3206.2746	3811.319
CCC1(CC1O)C(C)C	CC[C@]1(C[C@H]1O)C(C)C	
InChI=1S/C8H16O/c1-4-8(6(2)3)5-7(8)9/h6-7,9H,4-5H2,1-3H3	InChI=1S/C8H16O/c1-4-8(6(2)3)5-7(8)9/h6-7,9H,4-5H2,1-3H3/t7-,8+/m1/s1
