20
gdb 19183	3.17223	2.01666	1.64525	0.2884	79.32	-0.2211	0.0178	0.2389	902.4909	0.17804	-311.839964	-311.832532	-311.831588	-311.870946	30.218	
C	-0.244888447	 1.5367727452	 1.1483063553	-0.430782
C	-0.0959381647	 0.0868232604	 0.719192981	 0.062308
C	 0.9358460706	-0.3520161661	-0.3865314371	-0.096745
C	 2.2572881718	 0.0908228343	 0.2516751277	-0.087858
C	 2.1308346723	-0.2989919908	 1.5247881888	-0.087859
C	 0.742524601	-0.9478429132	 1.5595813735	-0.096752
C	 0.8306563495	-1.8045482959	 0.2321780617	 0.065819
C	-0.331917769	-2.7086989211	-0.1601253477	-0.4382
H	 0.7190066885	 1.9939945673	 1.3841301022	 0.118308
H	-0.7175228309	 2.1268740788	 0.3547486946	 0.109243
H	-0.8846059448	 1.6124195072	 2.0350837713	 0.109242
H	-1.0877357932	-0.316971398	 0.4970394035	 0.06715
H	 0.7715529057	-0.1566931862	-1.4473506521	 0.05037
H	 3.0778119266	 0.5880470814	-0.245892796	 0.094523
H	 2.8197185803	-0.20755565	 2.3525222841	 0.094523
H	 0.3794312417	-1.3652282226	 2.5000241876	 0.050372
H	 1.7650900415	-2.3675714583	 0.1526244076	 0.065226
H	-1.3095967661	-2.2232644518	-0.1083793409	 0.118693
H	-0.1979368326	-3.0725714735	-1.1852464482	 0.11621
H	-0.3645369912	-3.587150607	 0.494461703	 0.116209
187.0739	214.6305	244.2168	248.3568	291.2278	310.7703	504.5637	551.004	571.3274	685.3684	735.6129	738.778	802.2078	808.8775	871.2159	903.1944	911.2658	922.8498	978.2221	1025.5339	1047.3052	1068.5818	1069.9546	1094.9506	1108.3244	1117.8245	1173.3035	1183.1196	1230.7411	1235.8709	1253.6255	1259.214	1327.9767	1379.9536	1393.6304	1404.2535	1422.8964	1491.5255	1496.0794	1500.0266	1501.6557	1619.0151	3028.9102	3030.8024	3060.0077	3067.0819	3085.0408	3086.4332	3101.5989	3105.0133	3117.622	3121.81	3216.5133	3243.6558
CC1C2C=CC1C2C	C[C@H]1[C@H]2C=C[C@@H]1[C@H]2C	
InChI=1S/C8H12/c1-5-7-3-4-8(5)6(7)2/h3-8H,1-2H3	InChI=1S/C8H12/c1-5-7-3-4-8(5)6(7)2/h3-8H,1-2H3/t5-,6-,7-,8+
