23
gdb 39895	2.46494	1.72263	1.53277	0.0217	87.81	-0.2703	0.0803	0.3506	1035.4755	0.209924	-351.168275	-351.160747	-351.159803	-351.199765	31.803	
C	-0.0227897161	 1.4715680184	 0.0104072555	-0.364724
C	 1.2917916525	 0.7110915743	-0.0067143552	-0.364721
C	-0.0113135824	-0.0250410771	 0.0020262109	 0.474825
C	-0.5127534152	-0.9173469046	 1.1355843984	-0.089286
C	-2.0205923436	-1.0083976278	 0.799551091	-0.20696
C	-2.0359816705	-0.9997525134	-0.7666859134	-0.20696
C	-0.5350283981	-0.904818689	-1.1312539471	-0.089284
C	 0.1377890217	-2.257230731	-0.7949978191	-0.206958
C	 0.153179642	-2.2658885492	 0.7712417867	-0.206959
H	-0.2990331423	 1.9847580096	 0.9266163619	 0.107044
H	-0.3169263891	 1.9948336056	-0.8944627797	 0.107044
H	 1.8742470561	 0.7272401813	-0.9230108584	 0.107045
H	 1.8921613028	 0.7171910313	 0.8980685109	 0.107045
H	-0.3004095654	-0.5731163744	 2.1503492544	 0.050901
H	-2.4808682288	-1.906165412	 1.2230078625	 0.089643
H	-2.5602503993	-0.1452659518	 1.1996298912	 0.093119
H	-2.5045795319	-1.8928452503	-1.1909018965	 0.089644
H	-2.5833051676	-0.1323181381	-1.146531334	 0.093119
H	-0.3426258102	-0.5493672108	-2.1461276526	 0.050901
H	-0.4110676192	-3.1038914095	-1.2181738666	 0.089642
H	 1.1549892399	-2.2948379393	-1.1952202129	 0.093118
H	 1.1780442834	-2.3078145447	 1.1509569225	 0.093119
H	-0.3873512888	-3.1172328376	 1.1957358097	 0.089642
160.0144	161.5198	248.1913	250.1713	358.8057	362.9421	535.838	567.6713	571.7181	749.5426	783.6912	787.0688	805.1937	837.9999	871.5701	886.7119	894.5451	917.9581	949.7538	955.4511	976.8125	988.2126	999.2003	1016.7694	1029.0236	1052.0626	1080.496	1092.1657	1121.9824	1140.4709	1185.5241	1200.1252	1219.1622	1236.7514	1257.793	1263.1082	1288.9791	1292.1946	1304.5842	1313.2881	1339.8962	1345.6361	1414.578	1466.3943	1480.2749	1493.4979	1498.7532	1508.5672	1519.5074	3043.8187	3043.9522	3054.0031	3054.8588	3077.7349	3078.8466	3085.642	3088.42	3097.8543	3103.7856	3116.2821	3120.3253	3191.853	3206.3722
C1CC11C2CCC1CC2	C1CC21[C@H]1CC[C@@H]2CC1	
InChI=1S/C9H14/c1-2-8-4-3-7(1)9(8)5-6-9/h7-8H,1-6H2	InChI=1S/C9H14/c1-2-8-4-3-7(1)9(8)5-6-9/h7-8H,1-6H2/t7-,8+
