22
gdb 17783	5.55641	1.02391	1.007	0.1185	83.12	-0.2862	0.0933	0.3795	1293.9559	0.201597	-313.024183	-313.016099	-313.015154	-313.057132	31.15	
C	 0.073937683	 1.5702537355	-0.1825485946	-0.380242
C	-0.0204724996	 0.0518564143	-0.0109558451	-0.154811
C	-1.4524347571	-0.4831401316	-0.1552090848	-0.235002
C	-1.5263773253	-2.0003625675	-0.0431474929	 0.076953
C	-1.4159292041	-2.7506021653	 1.3293159335	-0.045168
C	-2.876324337	-2.3095496582	 1.6408328322	-0.220687
C	-2.8806478988	-2.7597527563	 0.1499805698	-0.064691
C	-2.0333962316	-3.9827516878	 0.60662649	-0.216751
H	 1.1042914896	 1.9230677698	-0.0727186127	 0.109695
H	-0.280202206	 1.8791711731	-1.1725476896	 0.112597
H	-0.5375824395	 2.0917041495	 0.5624124619	 0.112728
H	 0.6265755992	-0.4415936867	-0.7483031022	 0.093164
H	 0.3731677269	-0.2316713753	 0.9737287828	 0.096977
H	-2.0934148645	 0.0083711986	 0.5850611885	 0.093487
H	-1.8471169979	-0.1876899857	-1.1378883203	 0.09103
H	-0.8946606575	-2.4493614456	-0.8210905843	 0.055354
H	-0.5676313358	-2.7521885216	 2.0164270313	 0.064136
H	-3.4319057893	-2.9450187855	 2.3364387636	 0.086296
H	-3.0568731757	-1.2555934787	 1.8556755939	 0.090848
H	-3.7317904874	-2.7685903482	-0.5339350954	 0.063244
H	-1.416559583	-4.4672951409	-0.1558295689	 0.085261
H	-2.5392565383	-4.7157358162	 1.2409047633	 0.085581
69.8601	86.1815	134.8165	244.9273	302.0812	349.5848	368.1517	562.0005	591.608	731.5278	769.9645	792.5738	825.6513	879.9211	899.3181	903.9112	908.5458	912.5917	1007.1327	1014.2154	1029.0267	1044.2104	1057.1297	1076.242	1112.2738	1124.6106	1142.1171	1153.0121	1166.9534	1190.9376	1215.874	1243.7614	1247.0888	1262.7661	1277.7902	1310.2813	1331.8083	1386.2004	1410.9564	1431.9527	1480.2742	1492.2462	1499.634	1503.4906	1510.9774	1540.2422	3005.8053	3012.8599	3017.4781	3027.8941	3042.236	3045.4851	3057.722	3069.1518	3087.9385	3094.6522	3095.6114	3099.9388	3111.3527	3126.5234
CCCC1C2CC1C2	CCC[C@H]1[C@H]2C[C@@H]1C2	
InChI=1S/C8H14/c1-2-3-8-6-4-7(8)5-6/h6-8H,2-5H2,1H3	InChI=1S/C8H14/c1-2-3-8-6-4-7(8)5-6/h6-8H,2-5H2,1H3/t6-,7+,8-
