13
gdb 25387	3.07825	1.41485	0.96932	1.9595	74.57	-0.2529	-0.1084	0.1445	1108.8002	0.089657	-452.768721	-452.761438	-452.760494	-452.801001	26.423	
N	-0.0624152389	 1.2643298566	 0.3500322686	-0.514676
C	-0.0171169748	 0.0588642557	-0.0319035734	 0.353816
O	 1.1649288788	-0.5588667751	-0.4079247926	-0.246206
C	 1.1350843523	-1.854926745	-0.8064316829	 0.265332
C	 2.4378772505	-2.4319159969	-1.1884807106	 0.093053
O	 3.4834717207	-1.8319096287	-1.164587	-0.255478
C	-0.0159815658	-2.558791718	-0.8462905867	-0.105859
N	-1.2384701447	-2.0109324857	-0.4856447461	-0.235885
C	-1.2188557491	-0.7809444254	-0.1061134589	 0.009645
H	 0.8636242566	 1.6944944298	 0.3397257525	 0.241154
H	 2.3642570213	-3.4927607185	-1.5070865675	 0.09628
H	-0.0173043927	-3.5931771092	-1.1678171709	 0.140444
H	-2.1455866641	-0.2955383094	 0.1890928085	 0.158381
101.3486	118.4107	177.0489	251.0682	410.8763	418.2863	460.7607	532.6505	568.6572	677.9218	721.6629	731.2917	871.055	890.2361	938.7523	974.1637	991.9258	1012.9811	1085.0198	1126.4483	1228.0531	1291.5177	1365.8739	1392.5466	1430.9339	1591.1264	1669.567	1732.9695	1800.945	2916.3015	3177.5493	3210.2598	3486.6784
N=C1OC(C=O)=CN=C1	[NH]C1=C[N]C=C(O1)C=O	
InChI=1S/C5H4N2O2/c6-5-2-7-1-4(3-8)9-5/h1-3,6H	InChI=1S/C5H4N2O2/c6-5-2-7-1-4(3-8)9-5/h1-3,6H
