21
gdb 59416	2.49644	1.06467	0.96873	1.7079	80.3	-0.2498	-0.0224	0.2275	1355.5419	0.179191	-424.231804	-424.221266	-424.220322	-424.26741	38.102	
C	-0.157991002	 1.5025504163	-0.1212438588	-0.400172
C	-0.0498637447	-0.0022042441	 0.1364585885	 0.110221
O	 0.5402239941	-0.2709372714	 1.4079717673	-0.431671
C	-1.3957670794	-0.6842904228	-0.0057086505	-0.030667
C	-1.8520760819	-1.3011656537	-1.2849499128	-0.324671
C	-1.5022451789	-2.2066096976	-0.1032075024	 0.216378
C	-0.2673202989	-3.0859843292	-0.1394746059	-0.484662
C	-2.6791316686	-2.7799869796	 0.6080184077	 0.095589
O	-3.7386534509	-2.2166662124	 0.7581589226	-0.276338
H	 0.8192446989	 1.9769965818	 0.000853332	 0.124668
H	-0.5256804674	 1.7041235383	-1.132169198	 0.122379
H	-0.8564666429	 1.966331784	 0.5860690657	 0.11078
H	 0.655602297	-0.4317549751	-0.5829062934	 0.085975
H	-0.0402344718	 0.0978083443	 2.0833200932	 0.277847
H	-2.1903843734	-0.2421729083	 0.5934648699	 0.100475
H	-2.9017510954	-1.2214283742	-1.543807126	 0.134654
H	-1.162235466	-1.3236799793	-2.1230305299	 0.115243
H	 0.4754974006	-2.7122139384	-0.8473007023	 0.123744
H	 0.2134156945	-3.1379761818	 0.8419942627	 0.140328
H	-0.5280113005	-4.1035638757	-0.451326845	 0.117444
H	-2.5198758023	-3.8056904211	 1.0119251855	 0.072457
69.3746	94.9675	114.1451	140.3174	169.6227	244.2789	249.8887	282.462	300.59	337.5634	374.0634	399.0389	497.8874	506.1656	629.947	746.2775	780.9259	851.1824	910.7076	928.7044	957.4818	985.8541	1028.7773	1066.1104	1080.7943	1084.9477	1098.8745	1121.0573	1137.2709	1192.8424	1252.9708	1293.3545	1312.1456	1338.0274	1403.3036	1414.8372	1421.0866	1429.2175	1434.524	1475.9573	1490.7297	1494.5617	1495.0451	1498.1741	1803.711	2873.0299	3028.7439	3037.2581	3054.0704	3099.2378	3101.4791	3122.1463	3123.2745	3125.2354	3129.3531	3224.1692	3798.1681
CC(O)C1CC1(C)C=O	C[C@@H](O)[C@H]1C[C@]1(C)C=O	
InChI=1S/C7H12O2/c1-5(9)6-3-7(6,2)4-8/h4-6,9H,3H2,1-2H3	InChI=1S/C7H12O2/c1-5(9)6-3-7(6,2)4-8/h4-6,9H,3H2,1-2H3/t5-,6-,7-/m1/s1
