19
gdb 26661	2.20636	1.59435	0.94182	1.8767	81.37	-0.185	0.0328	0.2177	1260.9309	0.156361	-423.074525	-423.064061	-423.063117	-423.110173	36.386	
C	 0.1430298943	 1.4591444492	 0.0046189131	-0.494125
C	-0.04407258	-0.015908328	-0.0148593871	 0.270568
C	-1.1441493671	-0.8224447656	 0.0124617876	 0.055848
C	-2.5918082577	-0.448181942	 0.0743446859	-0.535168
C	-0.628128885	-2.1662669588	-0.031472459	 0.137727
O	-1.3487321527	-3.3267863932	-0.0249967309	-0.448164
C	 0.7280011508	-2.0931127793	-0.0817973321	 0.253923
C	 1.8002654896	-3.1159690846	-0.1411093278	-0.499881
O	 1.0905881837	-0.7670347046	-0.0716392019	-0.225558
H	 0.7349918672	 1.7775954423	 0.8707407214	 0.136416
H	 0.665869346	 1.8097457391	-0.8930064411	 0.1364
H	-0.8233278449	 1.9660802676	 0.0517206503	 0.128825
H	-3.1490726638	-0.8201918543	-0.7957574718	 0.126139
H	-3.0818301818	-0.8520894349	 0.9703088539	 0.126138
H	-2.7244441259	 0.636242096	 0.0989827834	 0.133077
H	-2.2837745655	-3.106713433	 0.0145512756	 0.296558
H	 2.411047366	-3.0193537687	-1.0470917277	 0.12913
H	 2.478271544	-3.0512722752	 0.7187247055	 0.12913
H	 1.3458250727	-4.109597392	-0.1417697271	 0.143019
76.5955	93.9712	117.864	139.9341	150.2724	172.524	238.5973	245.4437	281.2927	311.4148	368.2455	525.0315	574.4777	601.348	624.3011	684.7085	734.5949	844.308	941.4815	1004.5241	1044.2521	1055.0246	1062.1735	1066.5869	1144.7574	1190.0418	1273.7149	1294.9882	1321.8688	1409.1111	1414.841	1424.3827	1460.8015	1470.6706	1474.5734	1484.3514	1490.9333	1495.1373	1501.5015	1650.0003	1731.319	3008.1467	3018.3542	3025.9052	3049.3519	3063.1724	3073.1818	3111.9389	3125.1708	3125.7651	3841.5212
CC1=C(C)C(O)=C(C)O1	Cc1c(C)c(O)c(C)o1	
InChI=1S/C7H10O2/c1-4-5(2)9-6(3)7(4)8/h8H,1-3H3	InChI=1S/C7H10O2/c1-4-5(2)9-6(3)7(4)8/h8H,1-3H3
