22
gdb 58651	1.83169	1.49683	1.15939	1.4686	89.34	-0.2286	0.044	0.2726	1245.2513	0.190694	-367.151967	-367.141412	-367.140468	-367.186733	39.708	
C	 0.8998360708	-2.2178576619	 1.3442389725	-0.398073
C	 0.1419856593	-1.370346703	 0.3111505429	-0.033335
C	-0.2732414393	-0.0144260122	 0.9002719127	-0.401359
C	 0.9785645769	-1.2011386782	-0.9652388657	 0.104291
C	 0.9430086319	-2.2895080258	-2.0041236405	-0.286119
N	 0.3669377695	-0.9921469405	-2.2961364416	-0.117518
C	-1.0758874293	-0.8931733665	-2.4534046074	-0.319787
C	 2.2160390589	-0.4720607944	-0.7838120897	 0.324636
C	 3.2481257433	 0.1200863539	-0.6080276276	-0.435994
H	 1.150205493	-3.2050920319	 0.9433824899	 0.112985
H	 1.8331717781	-1.7286295624	 1.6394830547	 0.131422
H	 0.2922243255	-2.3599913367	 2.2436450328	 0.109555
H	-0.764652698	-1.9192198898	 0.0347405599	 0.0733
H	 0.6076829784	 0.5721992435	 1.1785881833	 0.132522
H	-0.8549203675	 0.5755710422	 0.1857570176	 0.115921
H	-0.8843791732	-0.1562274285	 1.7972927414	 0.109947
H	 1.8423260001	-2.5540064707	-2.553583809	 0.120908
H	 0.2653460488	-3.1206114151	-1.8025314581	 0.10408
H	-1.6622663457	-1.5932847042	-1.8392815259	 0.103685
H	-1.3996553105	 0.126490075	-2.2245611495	 0.13026
H	-1.3140494391	-1.0935959325	-3.5031331633	 0.127625
H	 4.1582002283	 0.6493658997	-0.4696428495	 0.191047
80.8714	140.9878	150.9737	170.9807	216.662	221.7309	235.3228	250.6899	325.9585	342.0875	367.2061	460.1838	481.9664	559.7254	573.9312	604.1804	645.2779	647.8707	804.438	868.4118	902.2286	931.3525	935.3702	969.8223	1043.5747	1067.1867	1119.4033	1130.3656	1132.1544	1163.2729	1196.766	1201.7444	1266.2351	1311.5345	1341.749	1388.3047	1398.4484	1420.3156	1448.6039	1485.8369	1487.3456	1492.9201	1501.3823	1501.888	1506.592	1512.9665	2231.739	2983.9118	3034.3409	3039.1029	3043.6175	3070.1527	3075.8561	3103.0705	3104.7926	3108.1236	3111.0647	3115.7516	3174.5246	3502.2171
CC(C)C1(CN1C)C#C	CC(C)[C@]1(CN1C)C#C	
InChI=1S/C8H13N/c1-5-8(7(2)3)6-9(8)4/h1,7H,6H2,2-4H3	InChI=1S/C8H13N/c1-5-8(7(2)3)6-9(8)4/h1,7H,6H2,2-4H3/t8-,9?/m1/s1
