14
gdb 123616	2.72461	1.60868	1.09162	2.8222	75.72	-0.2276	-0.0704	0.1573	1038.509	0.101387	-432.836803	-432.829533	-432.828589	-432.868927	27.039	
C	 0.1355089775	 1.4862208763	-0.083702671	-0.238588
C	 1.3646749081	 0.6422097306	-0.1611018321	-0.153537
N	 0.0272670354	 0.0249922827	-0.0145896228	-0.088473
C	-0.3240077259	-0.6414467773	-1.2736058962	-0.272556
C	 0.8328683391	-0.4477455047	-2.2813644326	 0.303774
C	 1.8430948951	 0.3075055697	-1.5273411255	 0.233272
N	 2.989551848	 0.6366135452	-2.0364814378	 0.119859
N	 3.9783353527	 0.8953718844	-2.5272869657	-0.220901
O	 0.8699403488	-0.8414435256	-3.421815603	-0.336967
H	-0.11685505	 2.0000034727	 0.839730414	 0.128392
H	-0.1773483242	 1.9916668943	-0.9957212135	 0.121048
H	 2.0478201154	 0.557966466	 0.6794042625	 0.117031
H	-0.4587552456	-1.7148879442	-1.0997314752	 0.145225
H	-1.2576058044	-0.25327532	-1.692087131	 0.14242
100.5371	134.525	147.0709	337.9207	402.9984	443.7787	511.3941	518.2989	586.0333	599.8543	665.7787	706.6773	792.8622	851.2184	971.9061	989.0624	1032.6141	1048.1492	1076.5289	1113.2215	1149.3045	1217.4956	1242.1613	1274.402	1281.3953	1323.0778	1430.2289	1466.5298	1498.6109	1803.08	2214.102	3047.0561	3094.692	3096.7646	3144.7157	3189.798
C1C2N1CC1=C2N=NO1	C1[C@H]2N1CC(=O)[C]2[N][N]	
InChI=1S/C5H5N3O/c1-3-5-4(2-8(1)3)9-7-6-5/h3H,1-2H2	InChI=1S/C5H5N3O/c6-7-5-3-1-8(3)2-4(5)9/h3H,1-2H2/t3-,8?/m1/s1
