17
gdb 20876	6.71308	1.0388	0.96958	0.5515	69.87	-0.2571	-0.0001	0.2569	1220.9757	0.144328	-360.05961	-360.051738	-360.050794	-360.093275	27.786	
C	-0.0834920789	 1.5755006956	-0.0374533763	-0.380864
C	-0.169148835	 0.0521475586	-0.150719103	-0.157118
C	 0.891441769	-0.5323129056	-1.1043069521	-0.297939
C	 0.8171148253	-2.0220766355	-1.2229929565	 0.308924
N	 1.5066760941	-2.8357221268	-0.415621963	-0.267914
N	 1.1432636129	-4.048203301	-0.8147371312	-0.072385
N	 0.2788999802	-4.1119098947	-1.8164784248	-0.193943
C	 0.05410633	-2.8269357459	-2.0923816264	-0.128262
H	 0.896114892	 1.8901031758	 0.3391782581	 0.117149
H	-0.232173353	 2.0556758945	-1.0112499036	 0.113807
H	-0.8439471554	 1.9662149676	 0.6455400839	 0.114356
H	-0.0430789926	-0.406193138	 0.8370394421	 0.111393
H	-1.1668655173	-0.2412153055	-0.4999573926	 0.099213
H	 0.771381365	-0.0834171977	-2.0976535423	 0.105201
H	 1.8896199598	-0.2556119655	-0.7484361404	 0.11832
H	 1.5195800408	-4.8792219858	-0.3883621977	 0.290993
H	-0.6216309471	-2.5409344202	-2.883043614	 0.119068
28.5612	86.428	119.6654	231.8999	309.5868	335.9767	382.9381	518.4678	697.8301	723.8108	744.0367	778.4503	872.1321	879.5443	901.1507	996.3927	1026.5341	1045.608	1085.2307	1110.7909	1165.2867	1202.8423	1236.0734	1268.2183	1308.087	1325.5746	1359.8547	1385.581	1411.5284	1413.6938	1473.7662	1486.4077	1493.4043	1497.5423	1509.2929	1565.6297	3027.3315	3028.5309	3037.4907	3059.5477	3083.0499	3099.437	3103.6442	3265.3079	3670.3456
CCCC1=NNN=C1	CCCc1n[nH]nc1	
InChI=1S/C5H9N3/c1-2-3-5-4-6-8-7-5/h4H,2-3H2,1H3,(H,6,7,8)	InChI=1S/C5H9N3/c1-2-3-5-4-6-8-7-5/h4H,2-3H2,1H3,(H,6,7,8)
