18
gdb 24729	3.5136	1.57746	1.13522	3.7043	77.11	-0.2128	0.0324	0.2452	1051.029	0.153202	-398.170005	-398.163027	-398.162083	-398.201451	27.671	
C	-0.0098099169	 1.4500624152	 0.0642249134	-0.174664
C	 1.4217512377	 2.0066149809	-0.0133766446	-0.172547
N	 2.1337479121	 1.3494619278	-1.1002534627	-0.022001
C	 3.3360413739	 1.7125365414	-1.6721175618	-0.140464
C	 3.6172214659	 0.7301083779	-2.5833554926	-0.101326
N	 2.6304298839	-0.229135173	-2.5847118523	-0.336583
C	 1.7594635608	 0.1686095322	-1.6818270431	 0.344078
C	 0.4656020798	-0.4927143172	-1.2960522482	-0.292771
N	-0.0772506145	-0.0058707813	-0.0221230243	-0.281964
H	-0.4747965395	 1.7832382759	 0.9971999457	 0.112664
H	-0.6048609803	 1.8605464951	-0.7609927948	 0.121076
H	 1.4109930697	 3.0887080253	-0.1844066465	 0.12049
H	 1.9497895829	 1.8270421641	 0.9331160162	 0.116267
H	 3.85410191	 2.6103819239	-1.3772470811	 0.119225
H	 4.4722119272	 0.6585214145	-3.2386099942	 0.104154
H	-0.286242225	-0.3152486124	-2.0780769877	 0.129174
H	 0.60647934	-1.5754405754	-1.2441257848	 0.134378
H	 0.4466126223	-0.415100055	 0.7463619233	 0.220814
100.2164	174.6414	267.6901	331.0218	376.4867	466.6111	525.6714	632.099	674.7641	697.3689	721.8657	735.4289	810.0774	849.7446	881.9048	931.2529	951.0221	983.0582	992.5708	1096.4008	1124.7197	1139.7639	1162.7209	1202.6817	1213.0208	1252.9514	1300.0604	1318.1411	1342.0473	1354.4221	1387.445	1410.8044	1463.2482	1480.5	1484.3686	1490.0937	1504.3969	1529.3089	1564.1931	3008.9437	3009.4065	3034.316	3065.7309	3088.4502	3095.3077	3244.5147	3273.3362	3503.1466
C1CN2C=CN=C2CN1	C1Cn2ccnc2CN1	
InChI=1S/C6H9N3/c1-3-9-4-2-8-6(9)5-7-1/h2,4,7H,1,3,5H2	InChI=1S/C6H9N3/c1-3-9-4-2-8-6(9)5-7-1/h2,4,7H,1,3,5H2
