21
gdb 6481	3.86521	1.35891	1.241	1.6015	76.19	-0.2056	0.0816	0.2872	1105.0425	0.186517	-366.227444	-366.218159	-366.217215	-366.260966	34.172	
C	 0.0358650427	 1.3756332623	-0.0684452415	-0.249216
O	-0.0581390479	-0.0166194835	 0.1349916792	-0.286369
C	-1.3633692332	-0.5678364567	 0.0857016787	 0.419857
C	-2.2728820548	-0.0165209164	 1.1756355955	-0.460855
C	-1.9456258697	-0.6588902662	-1.3609330012	-0.222063
N	-1.4169575186	-2.0295791347	-1.4647011575	-0.059509
C	-2.2251443159	-3.0365437445	-2.1081649519	-0.31926
C	-1.2144437909	-2.1070211164	-0.0067882895	-0.202895
H	 1.1005865995	 1.6097597115	-0.1457001185	 0.128051
H	-0.4579612089	 1.695967342	-0.9975679287	 0.104517
H	-0.3868202329	 1.9550647715	 0.764547477	 0.106009
H	-2.5078680861	 1.0403452447	 1.0139147399	 0.118201
H	-3.2191367213	-0.5633850361	 1.2002059129	 0.11712
H	-1.7910617254	-0.1142589319	 2.1541482827	 0.124441
H	-3.047268561	-0.6053886687	-1.3665345528	 0.076644
H	-1.5553119271	 0.0398591328	-2.1092547281	 0.100086
H	-2.3438674847	-2.7963347977	-3.1703647961	 0.118674
H	-1.7301688216	-4.0113995279	-2.0399603687	 0.119881
H	-3.2372828924	-3.1373503439	-1.6669818664	 0.082314
H	-0.244176785	-2.5065610064	 0.3046793169	 0.108853
H	-2.0200629148	-2.6376118337	 0.5263994782	 0.075519
78.2026	115.4001	182.8485	217.4894	218.5219	259.0396	298.3041	315.2537	346.8341	382.7772	412.4072	505.8496	614.2346	748.9502	863.7066	873.3644	945.7279	962.1851	977.7714	1004.7746	1107.3247	1118.6493	1135.3741	1155.2759	1170.0578	1182.0047	1192.3638	1225.6126	1238.0964	1265.5097	1288.3046	1303.7931	1358.8199	1405.405	1450.7672	1474.6157	1483.4354	1486.2312	1487.2152	1489.7234	1498.5388	1505.4803	1511.412	1517.0953	2903.5465	2957.5037	2971.0407	2987.7842	3033.5024	3040.0315	3050.9929	3053.7302	3070.6122	3094.3772	3105.0802	3111.162	3117.5587
COC1(C)CN(C)C1	COC1(C)CN(C)C1	
InChI=1S/C6H13NO/c1-6(8-3)4-7(2)5-6/h4-5H2,1-3H3	InChI=1S/C6H13NO/c1-6(8-3)4-7(2)5-6/h4-5H2,1-3H3
