15
gdb 49829	2.54262	1.46233	1.0554	2.3474	66.59	-0.2723	-0.0519	0.2204	1101.6398	0.110903	-457.777947	-457.769777	-457.768833	-457.811547	29.084	
O	-0.5536403669	 1.1955357753	 0.9544933883	-0.238062
C	 0.1604460656	 0.9391681592	 0.0210816365	 0.137589
C	 1.4966724705	 1.6124497544	-0.1976504942	-0.025628
O	 2.3385255583	 0.8682327074	-1.1328124303	-0.27476
C	 2.3389023187	 1.9082890425	-2.0507091913	 0.43831
O	 2.8838050962	 1.9526877081	-3.1040776941	-0.327196
C	 1.47091393	 2.77824658	-1.1939356385	 0.096477
C	 0.3497212103	 3.6845215558	-1.6369854476	-0.317485
C	 1.5685863074	 4.2649093125	-0.9860561337	-0.310055
H	-0.1229442615	 0.2181953154	-0.7763252178	 0.104892
H	 2.0094953515	 1.7981473845	 0.7485754714	 0.129195
H	 0.2203687289	 3.810687958	-2.7060626391	 0.149014
H	-0.5682506627	 3.6432249864	-1.0606552241	 0.147649
H	 1.4855023925	 4.6252043289	 0.0333225538	 0.141263
H	 2.2861426112	 4.7919281118	-1.6053076892	 0.148799
57.9014	96.3684	169.8261	198.4433	217.4992	278.6254	429.0557	439.7833	540.4302	620.1483	732.0017	776.6448	800.1602	857.5895	896.8481	960.9734	970.876	1004.4582	1042.6755	1064.8531	1088.3219	1094.5004	1109.961	1198.4747	1220.8824	1247.0984	1304.5806	1382.389	1404.767	1457.1765	1493.6367	1831.6905	1946.3422	2905.6149	3099.6454	3138.9476	3140.203	3223.9472	3237.4504
O=CC1OC(=O)C11CC1	O=C[C@H]1OC(=O)C21CC2	
InChI=1S/C6H6O3/c7-3-4-6(1-2-6)5(8)9-4/h3-4H,1-2H2	InChI=1S/C6H6O3/c7-3-4-6(1-2-6)5(8)9-4/h3-4H,1-2H2/t4-/m1/s1
