20
gdb 110772	2.5998	1.27636	1.13739	2.1675	78.13	-0.2246	-0.0227	0.2019	1191.6648	0.171071	-403.152936	-403.144372	-403.143428	-403.186591	32.582	
C	-0.0167890854	 1.0384538722	-1.3912489286	-0.382198
C	-0.1481952905	 0.3844126271	-0.0095674765	-0.223872
C	-1.4176940302	-0.4385783631	 0.0939356411	 0.016363
C	-1.4985977954	-1.8990955317	-0.1904918447	-0.052884
C	-0.2258498044	-2.7136240285	-0.2522127089	-0.352263
C	 0.4210196377	-2.539030455	 1.1323212595	 0.382846
O	 1.5071228346	-2.9306842586	 1.4654376344	-0.304933
C	-0.5804964296	-1.7767457229	 2.0156488775	-0.274039
N	-1.7215873755	-1.3745630756	 1.1937494644	-0.134373
H	 0.8799866109	 1.6620905661	-1.4474149455	 0.11972
H	 0.046752676	 0.2836249436	-2.181952569	 0.122072
H	-0.8811746274	 1.6743785687	-1.6101925892	 0.121495
H	 0.7460553484	-0.2139422141	 0.1904976179	 0.114478
H	-0.1700580209	 1.1637485861	 0.7635565901	 0.11043
H	-2.3026280081	 0.1394520147	-0.1731346169	 0.091345
H	-2.3818284992	-2.297171657	-0.6817564015	 0.094547
H	-0.4372360685	-3.7777577357	-0.4072272547	 0.1387
H	 0.4806503787	-2.4133981131	-1.0316412597	 0.139758
H	-0.9288245809	-2.4472734465	 2.8110586279	 0.136111
H	-0.0886528103	-0.9295572768	 2.5040092324	 0.136697
63.8473	81.4773	169.4652	210.2369	262.7371	296.8218	448.0713	454.6265	473.3679	514.9008	624.6806	694.8204	727.5329	766.5218	792.7733	809.8161	844.5037	880.9045	968.1212	1005.0155	1026.031	1054.7888	1091.3338	1099.0435	1141.5432	1146.938	1167.9782	1181.9067	1221.7963	1271.6997	1290.4185	1297.1863	1307.4803	1342.6998	1386.3138	1411.0392	1441.4977	1452.2572	1463.758	1490.3492	1498.1651	1508.444	1849.9121	3024.9145	3035.4584	3035.528	3051.5431	3071.7339	3085.2349	3092.8264	3098.6206	3107.6501	3111.4294	3143.7081
CCC1C2CC(=O)CN12	CC[C@H]1[C@H]2CC(=O)CN12	
InChI=1S/C7H11NO/c1-2-6-7-3-5(9)4-8(6)7/h6-7H,2-4H2,1H3	InChI=1S/C7H11NO/c1-2-6-7-3-5(9)4-8(6)7/h6-7H,2-4H2,1H3/t6-,7+,8?/m0/s1
