17
gdb 112324	2.82291	1.35084	1.01988	4.743	68.83	-0.2317	0.0231	0.2547	1149.599	0.137742	-455.149639	-455.141543	-455.140599	-455.182521	30.543	
O	-0.0639085335	 1.4249825698	-0.087349705	-0.428709
C	 0.0452927935	 0.0163425483	 0.0769574813	-0.083389
C	-1.3726913876	-0.541692522	 0.0269009993	 0.033108
N	-2.0277524944	-0.2434149632	-1.2383146229	-0.321217
C	-2.562180495	-1.308314396	-1.9150750706	 0.457154
O	-3.1969770645	-1.2708442647	-2.9454176143	-0.387068
C	-2.2040566252	-2.5329203436	-1.0957879074	-0.171355
N	-0.7294316128	-2.715506367	-1.0207957015	-0.329447
C	-1.449063262	-2.0657159871	 0.0897344357	-0.074564
H	 0.815178146	 1.78225293	-0.2403961086	 0.293928
H	 0.6336712885	-0.4463287181	-0.7244323214	 0.119481
H	 0.5053935971	-0.2408666063	 1.0444421672	 0.08577
H	-1.9426466	-0.1095349786	 0.8618302646	 0.092921
H	-2.0032008838	 0.6825105203	-1.6341530766	 0.260239
H	-2.8593223102	-3.3943560426	-1.1102342436	 0.113201
H	-0.540357225	-3.6837032929	-0.7687710052	 0.239048
H	-1.511099591	-2.5557505064	 1.0541841789	 0.100899
92.4229	133.6672	162.0581	233.1259	251.1202	341.5826	436.6719	484.3035	505.6464	531.5558	625.8386	718.2207	776.3343	835.4883	854.1642	882.8561	910.6171	929.0705	1004.3046	1051.277	1074.0145	1084.3199	1116.2474	1129.186	1167.4166	1229.0142	1249.0202	1258.0542	1264.7093	1326.5784	1357.5972	1383.3269	1412.1293	1433.7302	1453.2341	1517.9543	1834.3831	2976.5867	3002.6873	3058.6197	3182.7103	3205.1278	3489.678	3655.4186	3839.7779
OCC1NC(=O)C2NC12	OC[C@H]1NC(=O)[C@H]2N[C@@H]12	
InChI=1S/C5H8N2O2/c8-1-2-3-4(7-3)5(9)6-2/h2-4,7-8H,1H2,(H,6,9)	InChI=1S/C5H8N2O2/c8-1-2-3-4(7-3)5(9)6-2/h2-4,7-8H,1H2,(H,6,9)/t2-,3+,4+/m1/s1
