18
gdb 88060	2.22212	1.42622	1.07166	1.3246	72.97	-0.245	-0.0388	0.2062	1178.4912	0.145486	-439.043235	-439.034189	-439.033244	-439.077664	32.355	
C	-0.1106845372	 1.3271581426	-0.2823456388	-0.396414
C	-0.0158052714	-0.1482409265	 0.0171570876	-0.068276
N	 1.3337360052	-0.7550488473	-0.0425491695	-0.375005
C	 0.6496740405	-0.6729622584	 1.2304694403	 0.249548
C	 1.1699780724	 0.0095153177	 2.4908573848	-0.133003
O	 0.6453575738	-1.0692281059	 3.3073203688	-0.294218
C	 0.2122398534	-1.8195960971	 2.1618349448	-0.027382
C	-1.2717467377	-2.1124000013	 2.166214681	 0.124694
O	-1.81120181	-2.77975533	 1.319918666	-0.249613
H	 0.7525062283	 1.8613519957	 0.1241368822	 0.127339
H	-0.1349543515	 1.5014747767	-1.3628108537	 0.129301
H	-1.0216660043	 1.7548852898	 0.1497992605	 0.122115
H	-0.8378898682	-0.756384265	-0.3571281362	 0.112897
H	 1.2956957661	-1.7009657544	-0.4156663572	 0.240442
H	 2.262047849	 0.07956894	 2.5523482828	 0.118679
H	 0.7206900077	 0.9744073901	 2.7530323457	 0.113937
H	 0.7755125324	-2.7536926612	 2.0242998466	 0.108353
H	-1.8286518385	-1.6245213953	 2.9968931142	 0.096606
65.5061	86.5142	134.6596	177.3113	190.9509	204.056	331.586	417.4471	448.9227	455.3332	501.5578	590.0507	787.5131	828.0735	861.2201	934.791	978.8436	989.1812	1015.3156	1039.2048	1050.561	1078.614	1087.9188	1119.3669	1131.1912	1150.0755	1219.3672	1231.2018	1258.9206	1303.2584	1317.3825	1373.6424	1390.5418	1414.4212	1476.6719	1489.9103	1509.6154	1516.8361	1819.1136	2894.1509	3007.7491	3025.6664	3037.0287	3075.0337	3102.6661	3113.126	3132.8807	3495.9871
CC1NC11COC1C=O	C[C@H]1N[C@]21CO[C@H]2C=O	
InChI=1S/C6H9NO2/c1-4-6(7-4)3-9-5(6)2-8/h2,4-5,7H,3H2,1H3	InChI=1S/C6H9NO2/c1-4-6(7-4)3-9-5(6)2-8/h2,4-5,7H,3H2,1H3/t4-,5+,6+/m1/s1
