16
gdb 87660	2.66615	1.33139	1.12238	1.0131	67.17	-0.2568	-0.003	0.2538	1114.218	0.122362	-474.982175	-474.973514	-474.97257	-475.015536	32.195	
O	-0.4293623793	 1.4168037297	-0.0569470842	-0.431583
C	-0.1339237902	 0.0584688556	-0.1233037331	 0.062657
C	-0.1242462588	-0.787970703	 1.1474331722	-0.39775
C	-1.2239045838	-0.9211001897	 0.1505553161	 0.350383
O	-2.5496158423	-0.3872469743	 0.4158999132	-0.28921
C	-3.1214131096	-1.2942913647	-0.4733064394	 0.384442
N	-4.2867000982	-1.3785043889	-0.9175799649	-0.532405
C	-1.8109124723	-2.0503664837	-0.7033983498	-0.082013
O	-1.3477464744	-2.2652994381	-1.9991304281	-0.410453
H	-1.3838996762	 1.498640964	 0.0678858508	 0.297071
H	 0.5912699475	-0.1805781279	-0.8970015325	 0.117094
H	 0.5936151152	-1.5976704453	 1.2336254877	 0.129882
H	-0.3621433644	-0.2728574862	 2.072562683	 0.136274
H	-4.8933464559	-0.6463469799	-0.5438271165	 0.236145
H	-1.7978415816	-3.01891458	-0.1959385786	 0.133841
H	-1.5210397158	-1.4761912876	-2.5248414859	 0.295625
83.53	129.0992	178.7162	188.1351	247.1755	313.1817	315.9263	405.6291	433.1309	511.0468	557.4957	597.9358	673.7456	785.0577	813.2702	851.8691	880.3603	895.771	981.456	996.7507	1013.8093	1029.9839	1091.6459	1146.8134	1151.0206	1172.0265	1217.3097	1274.5415	1304.2553	1309.5498	1369.8005	1415.9474	1434.7848	1483.5738	1834.2762	3085.2786	3126.8796	3144.9096	3221.6194	3475.7778	3762.8437	3804.8171
OC1CC11OC(=N)C1O	O[C@H]1C[C@]21O[C]([NH])[C@H]2O	
InChI=1S/C5H7NO3/c6-4-3(8)5(9-4)1-2(5)7/h2-3,6-8H,1H2	InChI=1S/C5H7NO3/c6-4-3(8)5(9-4)1-2(5)7/h2-3,6-8H,1H2/t2-,3+,5+/m0/s1
