16
gdb 33427	2.75587	1.13845	0.85086	3.089	75.77	-0.2737	-0.0129	0.2608	1324.195	0.121414	-400.682886	-400.673726	-400.672782	-400.71779	32.803	
C	-0.215922351	-1.224191713	-0.0530618996	-0.382132
C	-0.0833394095	-0.0339775216	 0.0087909465	 0.303685
C	 0.047242204	 1.419399136	 0.0942489301	-0.188864
O	 1.3474385027	 1.7438282063	 0.5480695931	-0.240909
C	 1.4708570321	 3.0608081685	 1.0253007158	 0.136859
C	 2.8570951712	 3.6113639691	 1.0543325796	-0.29247
C	 1.8432233073	 4.1705381825	 0.077344194	-0.283328
C	-0.2556951773	 2.039999369	-1.2228290425	 0.296418
N	-0.4934661491	 2.5337934675	-2.2393346516	-0.327903
H	-0.3257456976	-2.2794652672	-0.1122004721	 0.214171
H	-0.7055450522	 1.8029132777	 0.8032683751	 0.145042
H	 0.7988888876	 3.284921102	 1.8537985737	 0.094911
H	 3.1541605939	 4.2053796826	 1.9107662891	 0.121625
H	 3.6349448444	 2.9756936615	 0.6473285184	 0.13579
H	 1.9652092639	 3.9082498446	-0.9661516217	 0.145128
H	 1.4275909996	 5.1561845146	 0.2540466822	 0.121976
38.4814	90.9599	129.6036	133.917	222.9709	262.9958	348.1844	377.9454	420.9363	513.7227	573.5575	615.4304	652.0871	691.5649	754.9354	820.8264	840.7652	887.8873	968.3678	980.8908	1041.4632	1057.9376	1070.5591	1082.9663	1125.0104	1192.2073	1195.1393	1240.9202	1321.7257	1327.82	1404.8904	1455.7685	1496.5266	2256.2605	2359.5394	2968.5027	3101.9139	3144.2926	3149.1696	3229.7026	3244.4614	3501.7585
C#CC(OC1CC1)C#N	C#C[C@@H](OC1CC1)C#N	
InChI=1S/C7H7NO/c1-2-6(5-8)9-7-3-4-7/h1,6-7H,3-4H2	InChI=1S/C7H7NO/c1-2-6(5-8)9-7-3-4-7/h1,6-7H,3-4H2/t6-/m1/s1
