17
gdb 24734	3.57678	1.6089	1.15274	5.2789	74.11	-0.1948	0.037	0.2318	1025.046	0.140395	-418.045893	-418.039051	-418.038107	-418.077234	26.897	
C	-0.0250256165	 1.5324656892	-0.0348573918	-0.231298
C	 1.4047335844	 2.067588306	 0.020848507	-0.083651
O	 2.0465747461	 1.6941750449	 1.2424402477	-0.274377
C	 1.9340793037	 0.3829831968	 1.5581022189	 0.366338
C	 2.6429069937	-0.3940121003	 2.4342005168	-0.215271
N	 2.1042060902	-1.6649750686	 2.4627432435	-0.269458
C	 1.1018068033	-1.6508664211	 1.6214076822	-0.007413
N	 0.9378273311	-0.4180514282	 1.0364016413	-0.082722
C	-0.0039647285	 0.0008247619	 0.0105326596	-0.16594
H	-0.5860873942	 1.9295424625	 0.8176667041	 0.129269
H	-0.5176410597	 1.8712574673	-0.9507723285	 0.116409
H	 1.9897057532	 1.6925429724	-0.8326329281	 0.109119
H	 1.4265217689	 3.158904992	 0.0016155011	 0.1245
H	 3.4845358887	-0.1074909111	 3.0432484169	 0.109215
H	 0.4563930192	-2.48225455	 1.37845165	 0.120605
H	-0.994115539	-0.4041268292	 0.2394326945	 0.129409
H	 0.3030816055	-0.4011231444	-0.9638012952	 0.125266
104.1662	166.7211	299.2605	341.5787	392.8465	462.2516	527.643	647.0906	677.3177	698.4875	708.2781	762.3923	801.0071	885.4139	899.5758	929.1187	947.8953	1013.9935	1078.2943	1127.4185	1139.0968	1216.7556	1222.9442	1230.4766	1253.8444	1297.287	1306.8198	1333.6241	1370.9183	1387.8395	1414.6089	1456.3486	1476.9269	1501.9047	1507.8224	1542.0366	1619.1094	2995.7375	3019.0367	3053.5169	3082.2388	3106.0937	3113.1952	3242.2591	3265.1842
C1COC2=CN=CN2C1	C1COc2cncn2C1	
InChI=1S/C6H8N2O/c1-2-8-5-7-4-6(8)9-3-1/h4-5H,1-3H2	InChI=1S/C6H8N2O/c1-2-8-5-7-4-6(8)9-3-1/h4-5H,1-3H2
