18
gdb 60733	4.01484	0.98472	0.84069	1.6006	78.39	-0.2557	-0.0257	0.2301	1362.5906	0.148592	-435.271024	-435.261915	-435.260971	-435.305523	32.535	
C	-0.2824014191	 1.5396506157	 0.1520587602	-0.353737
N	 0.0048127637	 0.1074590082	 0.0619225616	-0.1314
C	-0.005810532	-0.6587771619	 1.2294795591	 0.100212
N	-0.2614044066	-0.1423443066	 2.3619357296	-0.475466
C	 0.3115044158	-0.5245083555	-1.1359302431	 0.453919
O	 0.6354053069	-1.7001797012	-1.1907340165	-0.388998
C	 0.2300871965	 0.2985424171	-2.3873064331	-0.147957
C	 1.4418009972	 0.2588285951	-3.2697877591	-0.218983
N	 0.2290539417	-0.4532069571	-3.6472336203	-0.302416
H	 0.4747270196	 2.1180155785	-0.3814175787	 0.140897
H	-1.2715114717	 1.7760812646	-0.2527952554	 0.140414
H	-0.2656007628	 1.8038067461	 1.208293574	 0.181173
H	 0.224821782	-1.7027477844	 1.0211236962	 0.147182
H	-0.224240077	-0.8559110517	 3.0868358349	 0.234479
H	-0.3908259272	 1.1858746949	-2.3819605006	 0.107668
H	 1.6819890814	 1.132264717	-3.8690608207	 0.12728
H	 2.2909926024	-0.3148088907	-2.9090916948	 0.133799
H	 0.3398711492	-1.4367817282	-3.3963101833	 0.251933
63.2788	70.4113	160.2428	178.0024	208.0591	267.0297	310.1454	338.4394	352.1649	412.4293	544.8059	715.8874	755.7864	793.8598	833.965	852.7088	887.451	963.1718	995.4383	1019.9096	1085.0365	1101.9101	1123.4188	1143.0788	1154.9162	1180.1352	1187.1879	1287.052	1315.5399	1337.3185	1357.8451	1400.0321	1429.762	1460.0952	1496.8626	1502.6763	1515.0226	1712.0562	1754.4758	3045.8659	3112.7444	3116.1034	3148.5482	3167.2156	3185.4439	3206.5655	3462.4006	3511.8814
CN(C=N)C(=O)C1CN1	CN(C=N)C(=O)[C@H]1CN1	
InChI=1S/C5H9N3O/c1-8(3-6)5(9)4-2-7-4/h3-4,6-7H,2H2,1H3	InChI=1S/C5H9N3O/c1-8(3-6)5(9)4-2-7-4/h3-4,6-7H,2H2,1H3/t4-/m1/s1
