19
gdb 88212	3.43236	1.22799	1.06143	2.5791	71.44	-0.247	0.0746	0.3216	1162.0101	0.159879	-460.141045	-460.132949	-460.132004	-460.173434	31.823	
O	 0.0150276667	 1.3683025826	-0.0641136141	-0.42254
C	-0.0138911216	-0.0274022559	-0.0179100346	 0.013212
C	-0.4794931317	-0.7387882242	 1.2412715069	-0.392978
C	-1.3540320816	-0.6698849893	-0.0033601602	 0.418953
C	-2.6368889762	 0.1351657323	-0.0111645379	-0.255877
C	-3.791295044	-0.7996438293	 0.3649962304	-0.09342
O	-3.7698812413	-1.9668431098	-0.4512930897	-0.234608
C	-2.5434475782	-2.6325821672	-0.3470748552	 0.008869
O	-1.4569389406	-1.8413803647	-0.7761727496	-0.285402
H	 0.755782026	 1.6674819903	 0.4733055623	 0.290532
H	 0.7448257904	-0.5360994064	-0.6121451385	 0.101153
H	-0.0114424421	-1.686380093	 1.4833616385	 0.117958
H	-0.7591531658	-0.1222782023	 2.0894948948	 0.113853
H	-2.5742587582	 0.9822800201	 0.6755443284	 0.108581
H	-2.8039864533	 0.5286949827	-1.0196859627	 0.118519
H	-3.7152996133	-1.0874057072	 1.4270314955	 0.089554
H	-4.7641177169	-0.3281502748	 0.2059282071	 0.111674
H	-2.3748130327	-2.9545912386	 0.697628601	 0.075067
H	-2.5855933456	-3.4970589452	-1.0120195623	 0.116902
116.6805	165.4748	195.3167	277.6176	311.9938	341.5977	381.747	430.0598	461.5911	492.5873	581.8657	676.4602	696.0818	831.6932	864.8644	887.3982	947.8512	956.9727	981.121	1008.5114	1017.6358	1043.3039	1072.1526	1102.3599	1131.5348	1167.415	1192.2886	1210.788	1251.6769	1269.4594	1302.4709	1312.7606	1334.0563	1374.9798	1399.0027	1418.4503	1446.138	1470.2672	1493.1108	1494.9993	1511.8865	2929.0578	2969.414	3052.4247	3097.8789	3109.4597	3114.6439	3117.6047	3130.175	3225.4658	3808.2568
OC1CC11CCOCO1	O[C@H]1C[C@]21CCOCO2	
InChI=1S/C6H10O3/c7-5-3-6(5)1-2-8-4-9-6/h5,7H,1-4H2	InChI=1S/C6H10O3/c7-5-3-6(5)1-2-8-4-9-6/h5,7H,1-4H2/t5-,6-/m0/s1
