20
gdb 82180	2.74346	1.58347	1.27138	1.3264	77.54	-0.2308	0.0713	0.302	1062.6542	0.171898	-403.113196	-403.105126	-403.104182	-403.145137	32.934	
C	 0.0322062695	 1.5825869817	-0.0179472592	-0.389148
C	 0.0302482094	 0.0507594058	 0.0106694284	 0.001432
C	 0.685225444	-0.5980720873	-1.214340912	-0.038555
N	 2.1296951128	-0.3146347853	-1.3664593223	-0.341799
C	 1.6886976121	-1.5949072086	-0.7688647878	-0.128239
C	 1.714247095	-1.6237516776	 0.7542731679	 0.402247
O	 1.7605068948	-2.8800853858	 1.3612784358	-0.474861
C	 2.2285574142	-0.3919817053	 1.4503788239	-0.358272
C	 0.7347594767	-0.5815507733	 1.2222979108	-0.101012
H	 1.0543287959	 1.9635188696	-0.0892575506	 0.132393
H	-0.5295073892	 1.9612498243	-0.8789691931	 0.104782
H	-0.4257211293	 1.9937376604	 0.8872721704	 0.110242
H	-1.0111262639	-0.2975954831	 0.0296894974	 0.075036
H	 0.0919375549	-0.7330569513	-2.1142712233	 0.082419
H	 2.4011168225	-0.4663783363	-2.3349278843	 0.228933
H	 1.8705241706	-2.5275714061	-1.2923318491	 0.083594
H	 2.6857493902	-3.1370275833	 1.4386770036	 0.281725
H	 2.5569070145	-0.5257583528	 2.476248458	 0.102171
H	 2.7794185127	 0.3348988218	 0.8672511378	 0.137451
H	 0.1396214825	-0.7717233474	 2.1088622975	 0.089461
147.9357	194.7561	221.1865	267.6643	306.0396	326.6408	382.4154	434.8017	496.4552	539.0629	605.3448	663.0871	722.5147	782.3661	836.9586	865.4357	901.7976	907.2383	910.733	944.4954	965.0334	996.6082	1042.1937	1058.6197	1072.7785	1084.9664	1115.7319	1128.6386	1147.749	1172.8209	1228.4755	1243.5235	1265.8168	1319.4095	1331.5752	1347.0516	1357.013	1396.9256	1413.8908	1419.7299	1475.8237	1494.7568	1502.3294	3015.8747	3035.0596	3096.8249	3121.669	3134.5475	3146.0799	3167.8221	3171.5751	3235.7194	3495.5569	3795.5724
CC1C2NC2C2(O)CC12	C[C@H]1[C@H]2N[C@H]2[C@@]2(O)C[C@@H]12	
InChI=1S/C7H11NO/c1-3-4-2-7(4,9)6-5(3)8-6/h3-6,8-9H,2H2,1H3	InChI=1S/C7H11NO/c1-3-4-2-7(4,9)6-5(3)8-6/h3-6,8-9H,2H2,1H3/t3-,4+,5-,6-,7-/m1/s1
