21
gdb 107459	2.14703	1.5376	1.25167	1.1962	77.9	-0.2331	0.0669	0.3	1133.5594	0.180276	-424.188513	-424.178943	-424.177999	-424.222529	36.571	
C	-0.1292311161	 1.5405112574	 0.0247099542	-0.43981
C	-0.0013760988	 0.025770162	 0.0187445542	 0.377143
C	-1.2749704305	-0.6480850058	-0.4744612215	-0.435681
O	 1.1302190171	-0.438471683	-0.8061614229	-0.339522
C	 1.6532321477	-1.1778233629	 0.2927628248	 0.044356
C	 2.0709853834	-0.2643317807	 1.3998465374	-0.374347
C	 0.6075445197	-0.670947177	 1.2563156444	 0.209613
C	-0.1655907211	-1.3155299915	 2.3651963464	-0.176908
O	-0.7743810506	-0.3560450167	 3.2246991062	-0.415683
H	 0.7936241294	 2.0237074075	 0.3524696861	 0.116294
H	-0.3640073479	 1.9068577934	-0.9799470649	 0.123175
H	-0.9372080352	 1.8415352016	 0.6992827174	 0.127361
H	-1.5069406156	-0.3028152376	-1.4863363175	 0.122464
H	-1.1555970301	-1.7345016491	-0.5045062192	 0.119695
H	-2.1212657141	-0.4056525665	 0.1766922615	 0.126742
H	 2.0558171094	-2.1662220154	 0.1009899008	 0.104188
H	 2.5793781315	-0.7412278213	 2.233944436	 0.110946
H	 2.4191111055	 0.7359407423	 1.1622601568	 0.117345
H	-0.9936847179	-1.913899765	 1.9726368131	 0.113408
H	 0.4910902232	-1.999517958	 2.9266145262	 0.086482
H	-0.0753035191	 0.2258503463	 3.5420214404	 0.282738
67.7397	111.6427	178.2716	225.1675	233.2767	274.6551	294.4531	351.5764	358.3697	417.2716	424.6453	482.7517	498.3557	645.8506	702.0189	822.5436	857.5092	883.6072	919.8144	937.0248	960.0155	991.4503	1000.3578	1014.8113	1033.5133	1050.0661	1073.6954	1085.6998	1152.6347	1190.4141	1230.2402	1236.3426	1272.2917	1320.5785	1363.4095	1387.5829	1402.86	1412.0296	1430.6748	1471.0421	1478.2023	1485.4072	1495.6915	1501.3749	1509.1971	2975.2293	3036.6366	3042.9987	3075.5229	3106.6973	3113.8969	3114.5527	3118.4049	3128.5582	3173.3325	3203.6963	3806.2484
CC1(C)OC2CC12CO	CC1(C)O[C@H]2C[C@@]12CO	
InChI=1S/C7H12O2/c1-6(2)7(4-8)3-5(7)9-6/h5,8H,3-4H2,1-2H3	InChI=1S/C7H12O2/c1-6(2)7(4-8)3-5(7)9-6/h5,8H,3-4H2,1-2H3/t5-,7-/m0/s1
