16
gdb 129769	3.32647	1.65106	1.11258	2.8711	79.92	-0.1882	-0.0086	0.1796	1037.3906	0.127723	-396.948859	-396.941653	-396.940709	-396.980372	28.156	
N	 0.0170606258	 1.4558244334	 0.1492348451	-0.609952
C	-0.0282538999	 0.055589792	 0.0395122457	-0.015419
C	-1.1307096941	-0.7758073196	 0.0268372657	 0.381656
C	-2.6297717485	-0.869284497	 0.0426635739	-0.428962
C	-2.8367351541	-2.3807460931	-0.0022000522	-0.128564
C	-1.6525747322	-3.006877212	-0.0322143868	-0.007164
N	-0.6308766348	-2.0509866558	-0.0133280331	 0.043332
N	 0.7011541162	-2.1279696585	-0.0243703862	-0.303956
C	 1.0760693863	-0.8428573468	 0.0072087323	-0.039691
H	 0.8899858708	 1.8362249643	-0.193453385	 0.244292
H	-0.7466543009	 1.9122256587	-0.3336175837	 0.241711
H	-3.0755818465	-0.4250269918	 0.9429395918	 0.13803
H	-3.103959007	-0.3706259091	-0.814133652	 0.129307
H	-3.8049388946	-2.857649089	-0.0076976018	 0.112106
H	-1.4022302564	-4.0559286838	-0.0652373306	 0.141437
H	 2.1271045898	-0.5898739918	 0.0087051568	 0.101839
139.2441	160.9055	227.1274	259.1639	348.1464	462.9049	524.2079	610.505	655.2657	663.4501	683.278	717.4608	763.0567	804.0736	839.3696	877.431	911.9988	934.5061	950.9277	1057.4655	1075.748	1142.1613	1144.0546	1215.3332	1222.9523	1285.4034	1316.9034	1383.2408	1397.3529	1433.4827	1460.221	1484.9603	1635.2333	1654.4476	1669.4288	3011.1821	3032.5116	3234.1739	3248.7312	3273.681	3532.2586	3620.1044
NC1=C2CC=CN2N=C1	Nc1c2CC=Cn2nc1	
InChI=1S/C6H7N3/c7-5-4-8-9-3-1-2-6(5)9/h1,3-4H,2,7H2	InChI=1S/C6H7N3/c7-5-4-8-9-3-1-2-6(5)9/h1,3-4H,2,7H2
