15
gdb 18375	3.27057	2.62808	1.60779	2.2872	69.03	-0.2154	-0.0094	0.206	776.9253	0.122597	-358.836892	-358.830699	-358.829755	-358.867005	24.575	
C	-0.0565838193	 1.4468597747	 0.1382907636	-0.294535
C	 1.3153333492	 0.8059606818	 0.0244159793	-0.001701
N	 2.2456071995	 0.9248820927	 1.0885651236	-0.241378
C	 2.2745355633	 0.1596146683	 2.0966457853	 0.085076
N	 1.4510320269	-0.9026082855	 2.4644309603	-0.310362
C	 0.1953652777	-1.2786370882	 1.9915194261	 0.085076
N	-0.4405174404	-0.9332277342	 0.9527494186	-0.241377
C	 0.0691752403	-0.0560617293	-0.0385923063	-0.001701
H	-0.3363931627	 1.7786899591	 1.1324817594	 0.125226
H	-0.4387229378	 2.0585485547	-0.6724601604	 0.117349
H	 1.801229514	 0.960134183	-0.936649447	 0.101953
H	 3.0556371549	 0.323236532	 2.8410849132	 0.111941
H	 1.7036552677	-1.3319938049	 3.3425872379	 0.25054
H	-0.2819860176	-1.9855436029	 2.6723280383	 0.111941
H	-0.1794681857	-0.4100025713	-1.036797502	 0.101953
141.0816	263.8829	328.9517	394.3359	475.912	522.5893	548.0982	636.0748	745.8248	752.9973	822.8832	841.2159	903.838	940.7872	941.1739	977.3501	995.2913	1033.511	1038.7451	1101.3412	1129.4908	1169.5937	1236.0373	1244.6814	1371.1894	1387.0708	1433.317	1469.4998	1481.8669	1526.0797	1748.2812	1774.3973	3113.5178	3114.1517	3122.6476	3128.7241	3133.0194	3224.2903	3600.0415
C1C2N=CNC=NC12	C1[C@H]2N=CNC=N[C@@H]12	
InChI=1S/C5H7N3/c1-4-5(1)8-3-6-2-7-4/h2-5H,1H2,(H,6,7,8)	InChI=1S/C5H7N3/c1-4-5(1)8-3-6-2-7-4/h2-5H,1H2,(H,6,7,8)/t4-,5+
