22
gdb 90451	2.97787	1.28254	1.19024	1.221	81.73	-0.2128	0.0691	0.2819	1174.6459	0.194322	-404.334789	-404.325663	-404.324718	-404.36794	35.876	
C	 0.0617817562	 1.6032967368	-0.0919894446	-0.493891
C	 0.0518583845	 0.0873233794	-0.0808818822	 0.334413
C	-1.1256270922	-0.4955098049	 0.6811168301	-0.437897
C	 0.6107012843	-0.7291530392	-1.1981265067	-0.081904
C	 1.496321778	-0.1033875866	-2.266013483	-0.250423
C	 2.7597570159	 0.4112393698	-1.5370172413	 0.096136
O	 2.855133933	 1.8222860371	-1.7339534967	-0.415968
C	 2.5724234635	-0.0144502468	-0.0494088355	-0.196491
N	 1.2874395632	-0.7106851501	 0.1208209033	-0.145601
H	 0.8817105179	 2.0378081798	-0.6637681202	 0.1524
H	-0.879623545	 1.973150883	-0.5137323265	 0.114766
H	 0.1232284038	 1.9840096333	 0.9352832761	 0.112195
H	-2.0742520124	-0.1983531164	 0.2192838785	 0.108271
H	-1.0733118849	-1.5865728093	 0.7020475811	 0.121317
H	-1.1300958038	-0.1388391171	 1.7174968212	 0.112704
H	 0.1090315896	-1.6590309185	-1.45958243	 0.0774
H	 1.7562066613	-0.8539906861	-3.0171820776	 0.105686
H	 1.0235265246	 0.7308631475	-2.7921832768	 0.124439
H	 3.6615751132	-0.0614827689	-1.9495391327	 0.076498
H	 3.6340095706	 2.1361910542	-1.2634552189	 0.283155
H	 3.3607960388	-0.714312532	 0.2491367575	 0.101813
H	 2.6439091499	 0.8589150349	 0.6092436848	 0.100981
100.5383	157.677	199.0662	224.5768	244.6337	294.7185	312.6438	365.1271	404.1286	419.328	449.6658	492.36	657.2107	703.5975	724.2905	749.7418	822.7459	870.3315	918.4041	965.2489	982.0905	997.0257	1007.3576	1026.1668	1053.5256	1088.7876	1126.6085	1148.051	1155.4207	1196.593	1232.4239	1256.3496	1262.6261	1300.9205	1330.4511	1336.7183	1354.8586	1409.9299	1412.3597	1428.7221	1439.2459	1481.507	1485.069	1491.9666	1495.9252	1516.9584	1521.1168	2996.8443	3023.4883	3028.388	3031.8944	3061.1616	3069.12	3077.5724	3088.726	3099.8498	3117.9062	3122.059	3149.6881	3816.0261
CC1(C)C2CC(O)CN12	CC1(C)[C@H]2C[C@@H](O)CN12	
InChI=1S/C7H13NO/c1-7(2)6-3-5(9)4-8(6)7/h5-6,9H,3-4H2,1-2H3	InChI=1S/C7H13NO/c1-7(2)6-3-5(9)4-8(6)7/h5-6,9H,3-4H2,1-2H3/t5-,6-,8?/m1/s1
