14
gdb 12608	3.26436	2.28336	1.36672	1.0508	60.88	-0.2594	-0.0081	0.2512	845.6595	0.108443	-415.921111	-415.913818	-415.912873	-415.952898	25.914	
C	-0.0165760758	 1.4557312981	-0.0029183957	-0.337324
N	 0.0037570354	 0.0060670359	-0.0103451374	-0.145376
C	 0.0430493558	-0.7509836593	-1.1767960909	 0.485302
N	 0.065600269	-0.2589164869	-2.3370367839	-0.578483
O	 0.0522631623	-2.0744513966	-0.8407898336	-0.249221
C	 0.0180909733	-2.210116496	 0.5821499691	-0.218997
C	-0.0145793716	-0.7831588739	 1.1171749369	 0.393319
O	-0.0488282714	-0.4185039916	 2.2664881818	-0.3635
H	 0.8773903512	 1.8485601413	-0.4930134431	 0.153909
H	-0.8953912407	 1.8239164634	-0.5375417148	 0.153901
H	-0.0471659037	 1.772299766	 1.0403350853	 0.162593
H	 0.0929689162	-0.9944981508	-3.0399841352	 0.235227
H	-0.873809354	-2.7663053232	 0.886462591	 0.154325
H	 0.908052604	-2.7424254365	 0.9315214006	 0.154324
108.441	133.8387	187.2973	202.1794	273.3165	372.77	567.3213	581.9519	620.6524	692.5101	723.8049	755.3647	817.7279	965.2026	1023.9571	1024.4914	1090.7128	1129.8764	1162.6694	1200.3772	1211.0585	1316.7123	1362.536	1428.6309	1476.2194	1484.5774	1494.1394	1514.6009	1783.9888	1858.2546	3057.3661	3058.2642	3103.9012	3127.0152	3160.9975	3528.4279
CN1C(=N)OCC1=O	CN1[C]([NH])OCC1=O	
InChI=1S/C4H6N2O2/c1-6-3(7)2-8-4(6)5/h5H,2H2,1H3	InChI=1S/C4H6N2O2/c1-6-3(7)2-8-4(6)5/h5H,2H2,1H3
