16
gdb 20764	3.27894	1.99885	1.2628	3.7212	68.21	-0.2063	0.0223	0.2286	945.7465	0.12985	-379.934944	-379.926458	-379.925514	-379.968076	30.261	
C	-0.0273216888	 1.4901729124	-0.0265258592	-0.497446
C	 0.0079490115	-0.0036861916	 0.0246084264	 0.344468
N	-0.0115150774	-0.6902120308	-1.0936025931	-0.231617
O	 0.0304176431	-2.0447271031	-0.6911562548	-0.220611
C	 0.071545578	-2.0928093317	 0.6455128375	 0.398811
N	 0.1784082574	-3.3487732979	 1.2017809253	-0.594132
C	 0.0576152097	-0.8348204901	 1.1841700795	 0.003321
C	 0.0961550454	-0.4303425708	 2.6241846777	-0.516992
H	 0.8696233801	 1.9214935346	 0.4309507494	 0.133516
H	-0.0872942292	 1.8273610205	-1.0630118594	 0.148925
H	-0.8923153655	 1.8826066478	 0.5194734861	 0.131606
H	-0.2060947243	-4.0826930712	 0.6224913148	 0.264884
H	-0.1447640109	-3.4075106321	 2.1566334272	 0.259522
H	 1.1027559219	-0.1480067546	 2.957785372	 0.133659
H	-0.5590966305	 0.4259318012	 2.8162275199	 0.130543
H	-0.2408508604	-1.2415389225	 3.2794852207	 0.111541
51.4602	138.3997	163.3646	222.6905	230.9962	276.3385	304.1918	368.5364	491.0159	571.3895	615.4502	655.426	696.6563	733.9246	787.0002	912.8072	963.4512	1025.1591	1053.654	1066.3397	1075.3174	1151.9739	1271.3998	1360.7578	1410.4897	1426.1048	1471.9106	1476.9774	1482.206	1488.425	1509.0836	1555.0957	1633.8693	1696.5497	3017.1356	3036.7179	3067.0411	3089.0323	3090.2359	3137.9417	3559.0603	3662.0609
CC1=NOC(N)=C1C	Cc1noc(N)c1C	
InChI=1S/C5H8N2O/c1-3-4(2)7-8-5(3)6/h6H2,1-2H3	InChI=1S/C5H8N2O/c1-3-4(2)7-8-5(3)6/h6H2,1-2H3
