15
gdb 20950	7.40215	1.19367	1.04132	2.5817	64.75	-0.2272	0.0095	0.2367	1102.2705	0.11877	-399.792002	-399.784506	-399.783562	-399.824626	26.53	
C	-0.0317685896	 1.4756511476	 0.01058759	-0.39118
C	 0.0099591913	-0.0389888357	 0.0022519054	-0.057774
O	-1.3568946485	-0.5051857945	 0.0105607927	-0.273544
C	-1.5605195645	-1.8139374767	 0.0052025257	 0.545913
C	-2.7299911466	-2.5212872846	 0.0104771041	-0.404079
C	-2.2750960687	-3.8607566089	-0.0000703157	 0.058251
N	-0.9677556121	-3.9714483461	-0.0107786398	-0.166315
O	-0.5038348456	-2.6345936415	-0.0072858795	-0.221875
H	 0.9880130796	 1.8711007907	 0.0046437606	 0.128365
H	-0.5559399118	 1.8549453318	-0.8706675964	 0.135711
H	-0.5419595374	 1.8455648215	 0.9039510973	 0.135712
H	 0.5134774309	-0.4274440703	-0.8893165275	 0.129239
H	 0.5274413802	-0.4368083711	 0.8816101929	 0.129243
H	-3.7339802005	-2.1366884826	 0.0202363681	 0.120471
H	-2.8650995767	-4.7673485797	-0.0002981781	 0.131863
61.7456	77.1815	162.243	249.6974	301.6005	349.6533	472.0192	632.0564	712.237	717.7102	763.1052	815.4808	890.9614	906.2393	925.0609	930.0183	1020.402	1052.264	1071.6718	1129.7639	1179.9181	1227.7558	1296.5096	1321.9271	1380.8509	1394.5541	1420.4494	1484.5774	1498.2955	1516.9557	1545.2323	1656.5018	3043.051	3050.1721	3085.0162	3126.1122	3131.2354	3236.7283	3296.9112
CCOC1=CC=NO1	CCOc1ccno1	
InChI=1S/C5H7NO2/c1-2-7-5-3-4-6-8-5/h3-4H,2H2,1H3	InChI=1S/C5H7NO2/c1-2-7-5-3-4-6-8-5/h3-4H,2H2,1H3
