15
gdb 26740	3.39653	1.28059	0.93373	3.4877	73.28	-0.1939	-0.0275	0.1664	1169.9942	0.113071	-453.986851	-453.978451	-453.977506	-454.019618	31.175	
N	 0.0210412578	 1.4572568847	-0.1153215523	-0.613801
C	 0.0326857611	 0.0583224669	-0.0416367194	 0.167557
C	-1.0569362149	-0.7632757307	-0.0349434392	 0.25045
O	-2.3866705896	-0.4599855547	 0.0247391773	-0.440399
N	-0.61204151	-2.0971445966	-0.027910349	-0.092113
C	-1.4121825699	-3.2280944702	 0.0167879777	 0.171305
O	-0.9849393381	-4.3562574218	 0.0292986278	-0.311094
C	 0.776761253	-2.0896468921	-0.0343651884	-0.069909
C	 1.1961469719	-0.7940544009	-0.0477075812	-0.231145
H	 0.7917398854	 1.8801422069	 0.3860042764	 0.247632
H	-0.851318274	 1.8444315086	 0.2243510317	 0.246902
H	-2.7235654633	-0.2981832023	-0.8655517164	 0.308101
H	-2.4823630424	-2.9677241173	 0.0412333752	 0.105221
H	 1.3093414548	-3.0246928098	-0.0198458932	 0.153937
H	 2.2228718183	-0.4599496107	-0.0621369171	 0.107357
106.2408	198.6308	201.8746	217.7437	260.5039	295.9815	310.6608	336.5415	408.914	539.0466	599.4441	656.8848	685.6923	735.8495	748.021	791.2758	837.534	852.1045	1022.8286	1041.163	1064.625	1118.6025	1221.7	1259.4195	1286.3513	1354.6835	1407.3645	1437.6145	1476.5843	1543.3316	1648.6805	1705.4349	1808.6985	3016.5512	3244.8832	3296.8655	3528.6885	3619.8324	3745.7312
NC1=C(O)N(C=O)C=C1	Nc1c(O)n(C=O)cc1	
InChI=1S/C5H6N2O2/c6-4-1-2-7(3-8)5(4)9/h1-3,9H,6H2	InChI=1S/C5H6N2O2/c6-4-1-2-7(3-8)5(4)9/h1-3,9H,6H2
