15
gdb 64920	2.33719	1.45435	1.07596	3.3413	70.82	-0.2425	-0.0402	0.2023	1113.0237	0.107685	-457.70904	-457.699715	-457.698771	-457.742794	34.464	
O	-0.0961557791	 1.3893352076	 0.0220174954	-0.451776
C	-0.026396271	 0.016560512	 0.0227690452	 0.319586
C	-0.5072637952	-0.7174278339	 1.25086348	-0.40785
C	-1.3655305683	-0.7810372126	 0.0036562561	 0.132335
O	-2.4770714968	 0.055122188	-0.0675350714	-0.425638
C	-1.4676685576	-2.0219897888	-0.7191683796	 0.303916
C	-1.597467592	-3.0651163238	-1.3049895676	-0.473363
C	 1.1005326537	-0.524063936	-0.7792479638	 0.095617
O	 1.8219622111	 0.2170910895	-1.4078645834	-0.284084
H	 0.5309483635	 1.6697823593	-0.6646461246	 0.299722
H	 0.0172929297	-1.611332528	 1.5705677291	 0.133552
H	-0.8775707353	-0.0681419712	 2.0361491374	 0.148474
H	-3.2160153261	-0.4051636	 0.3475727023	 0.294481
H	-1.7038644688	-3.9779452178	-1.8377474637	 0.205418
H	 1.2316644622	-1.6213391843	-0.7817092513	 0.109611
96.137	112.8578	153.4965	228.5863	238.1063	268.2794	306.784	343.1755	406.3908	437.9848	454.1024	536.9866	556.1271	598.9274	649.8659	687.6864	713.4017	804.769	853.0435	910.9105	927.3886	1035.5158	1064.0672	1089.7772	1226.8549	1239.2911	1323.4991	1364.2031	1386.7002	1435.8722	1476.151	1791.2086	2225.4477	2974.5357	3134.1089	3237.5261	3499.2057	3686.6917	3792.4209
OC1(CC1(O)C#C)C=O	O[C@]1(C[C@]1(O)C#C)C=O	
InChI=1S/C6H6O3/c1-2-5(8)3-6(5,9)4-7/h1,4,8-9H,3H2	InChI=1S/C6H6O3/c1-2-5(8)3-6(5,9)4-7/h1,4,8-9H,3H2/t5-,6-/m1/s1
