24
gdb 101173	2.32013	1.16527	0.92502	1.88	86.42	-0.214	0.0727	0.2867	1414.5882	0.214181	-405.50619	-405.494835	-405.493891	-405.543154	40.452	
C	-0.3910386968	 1.4517725947	 0.7656006728	-0.234778
O	-0.6389228923	 0.1180988308	 0.3875636981	-0.251411
C	 0.2283201226	-0.391049715	-0.6218141597	 0.128262
C	 1.653174373	-0.6198134899	-0.1053987462	-0.413327
C	-0.3990564345	-1.6974910057	-1.0729416192	-0.014362
C	-1.5960347718	-1.7454766072	-1.9659431344	-0.005434
C	-2.2762700108	-0.502983873	-2.5010347982	-0.411392
N	-0.2952469619	-2.2342871888	-2.4328640286	-0.113968
C	 0.4347923942	-1.5357808982	-3.4787777451	-0.314718
H	 0.5615021237	 1.575357149	 1.3008304946	 0.106849
H	-0.3853297956	 2.1278134347	-0.1048093345	 0.099502
H	-1.2021277788	 1.7506882835	 1.4347213347	 0.126522
H	 0.2661310821	 0.3306563474	-1.4512169114	 0.058281
H	 1.6389312517	-1.305997939	 0.7474315853	 0.125615
H	 2.2740175561	-1.0607671634	-0.8914294405	 0.124378
H	 2.1282233753	 0.3134697494	 0.2094365636	 0.113573
H	-0.3155581637	-2.4678541151	-0.3049915674	 0.084713
H	-2.2992994081	-2.5592409561	-1.7861932292	 0.085004
H	-1.5944243118	 0.3345482347	-2.6575772222	 0.115292
H	-2.7716157046	-0.7138644785	-3.4553470808	 0.116714
H	-3.0419956676	-0.173476141	-1.7919461587	 0.13078
H	 0.333288973	-0.4412321245	-3.4962758955	 0.099999
H	 1.4999079145	-1.7733311975	-3.3869470132	 0.121859
H	 0.094861602	-1.9141715914	-4.4486463544	 0.122049
39.3979	75.9179	105.1331	148.7857	165.4285	193.168	204.648	236.1747	270.2959	272.3681	298.5352	406.4031	453.9403	473.6927	532.7572	575.5294	733.3414	785.7535	851.1504	874.5644	982.4533	1006.4718	1042.0575	1052.5425	1106.2024	1118.7257	1133.9568	1145.737	1158.754	1172.2272	1179.7653	1190.258	1204.8662	1232.9455	1320.3548	1348.3876	1371.7751	1398.9771	1401.1034	1417.4674	1444.386	1461.9494	1476.7142	1481.8335	1484.7398	1491.6827	1493.9487	1504.1752	1505.2881	1507.9406	1513.6418	2971.4001	2985.3518	2999.955	3023.2764	3039.931	3040.7405	3062.9685	3085.0599	3093.1055	3095.0334	3099.5747	3107.7562	3113.8603	3116.0461	3132.1931
COC(C)C1C(C)N1C	CO[C@@H](C)[C@H]1[C@@H](C)N1C	
InChI=1S/C7H15NO/c1-5-7(8(5)3)6(2)9-4/h5-7H,1-4H3	InChI=1S/C7H15NO/c1-5-7(8(5)3)6(2)9-4/h5-7H,1-4H3/t5-,6+,7-,8?/m1/s1
