16
gdb 68182	4.21678	1.12823	1.03307	4.0167	77.4	-0.2523	-0.0525	0.1997	1143.8706	0.12519	-400.733704	-400.726249	-400.725305	-400.765485	29.433	
O	-0.0891532221	 1.4176649218	 0.0122980354	-0.47611
C	-0.0139157832	 0.0341480797	 0.0138000958	 0.382254
C	 0.3361561563	-0.8363211111	 1.2829128969	-0.27779
C	-0.3661587994	-1.9319702277	 0.4159243695	-0.136859
C	-1.3337745097	-0.7959462142	-0.0595251146	-0.242456
C	 0.5998357225	-1.9862379737	-0.7879621242	 0.266668
C	 0.8267081172	-0.6891013707	-1.0506185288	-0.288331
C	 1.0905224118	-3.1472974949	-1.4203214248	 0.168623
N	 1.4780904795	-4.1199982466	-1.9183991678	-0.349193
H	 0.797593732	 1.7805235574	 0.1130361466	 0.286346
H	 1.3894760655	-0.9849784622	 1.5310557541	 0.103376
H	-0.2444858681	-0.5410055348	 2.1607427469	 0.111624
H	-0.7211988891	-2.8710261022	 0.8309923777	 0.093523
H	-2.0559998491	-0.4970851725	 0.7044634787	 0.113335
H	-1.8087590989	-0.9054778275	-1.0360175188	 0.11181
H	 1.4338114248	-0.2311075809	-1.8187424626	 0.133179
117.7525	148.3568	243.6558	334.9463	354.608	430.9982	463.0651	517.8967	557.7725	562.7074	635.4683	662.3173	782.5583	834.7194	841.0768	867.0832	917.1087	950.693	987.5426	1002.6858	1051.2781	1088.9437	1122.0115	1135.8555	1161.1262	1208.7706	1217.2899	1223.6305	1271.4227	1315.1647	1368.7736	1475.628	1515.4935	1646.1576	2331.8912	3058.0899	3069.0928	3130.1195	3139.0504	3163.3922	3238.4487	3807.6216
OC12CC(C1)C(=C2)C#N	O[C@@]12C[C@@H](C1)C(=C2)C#N	
InChI=1S/C7H7NO/c8-4-6-3-7(9)1-5(6)2-7/h3,5,9H,1-2H2	InChI=1S/C7H7NO/c8-4-6-3-7(9)1-5(6)2-7/h3,5,9H,1-2H2/t5-,7-
