19
gdb 69436	3.73154	1.15014	0.99655	4.56	79.51	-0.2586	0.0296	0.2883	1219.2389	0.160963	-382.084796	-382.076479	-382.075535	-382.117597	31.94	
C	-0.0016347651	 1.5018588884	-0.0511198396	-0.46568
C	-0.0271468353	-0.0020517135	 0.0528097171	 0.330405
C	-1.300852459	-0.7437600914	-0.3435661117	-0.28125
C	-1.1453579885	-2.1710216098	 0.2210344762	-0.258004
C	-0.2234227208	-2.0010939051	 1.465522948	-0.1604
C	 0.5419876964	-3.2074778827	 1.7797392093	 0.268624
N	 1.1471248768	-4.1639353817	 2.0147858762	-0.323555
C	 0.6384326969	-0.7784035747	 1.1391526794	-0.064745
N	 1.2506250881	-0.6925143356	-0.1890479977	-0.359781
H	 0.9595209865	 1.8933421347	 0.2896081126	 0.134478
H	-0.1442692735	 1.8210626918	-1.0897337333	 0.123639
H	-0.7995061922	 1.951379085	 0.5501930441	 0.115713
H	-2.160722677	-0.2381080491	 0.1123183815	 0.110151
H	-1.4693364793	-0.7444695437	-1.4261706741	 0.111312
H	-2.0974979938	-2.6340164419	 0.4861402833	 0.125297
H	-0.6675113609	-2.8338859063	-0.5048123802	 0.128615
H	-0.8320251151	-1.7579173936	 2.3458343435	 0.128099
H	 1.199691418	-0.3208009738	 1.9482150596	 0.104824
H	 1.1442969879	-1.5543717669	-0.7183597942	 0.232258
91.8466	141.3768	191.4712	206.7016	276.819	319.1729	376.4392	432.311	500.3918	550.0761	577.3232	657.8827	700.6795	804.7512	842.3711	865.0794	924.0289	965.6886	994.4906	1005.641	1016.6607	1049.6542	1075.7335	1090.0489	1106.9017	1160.6817	1188.5303	1246.1508	1269.7523	1285.9364	1306.2549	1313.874	1337.0369	1356.8662	1409.4791	1440.6965	1486.038	1489.3595	1499.7869	1506.459	2355.9625	3030.1357	3031.9243	3035.3057	3066.8324	3078.8064	3092.0749	3121.1208	3126.377	3156.7171	3499.0807
CC12CCC(C#N)C1N2	C[C@]12CC[C@@H](C#N)[C@H]1N2	
InChI=1S/C7H10N2/c1-7-3-2-5(4-8)6(7)9-7/h5-6,9H,2-3H2,1H3	InChI=1S/C7H10N2/c1-7-3-2-5(4-8)6(7)9-7/h5-6,9H,2-3H2,1H3/t5-,6+,7-/m0/s1
