15
gdb 105587	1.96858	1.61027	1.30231	3.2258	67.04	-0.2674	-0.0109	0.2565	1046.6401	0.110834	-457.739975	-457.731268	-457.730324	-457.773527	31.476	
O	 0.0180832815	 1.448336704	 0.107557406	-0.406508
C	 0.0289762114	 0.0637883544	-0.1170701446	-0.101424
C	-1.4042133068	-0.5264364758	-0.096460407	-0.1478
C	-1.5062545132	-2.0544352672	 0.1563248361	-0.120695
O	-1.9992828568	-1.8087913265	 1.5155494819	-0.236329
C	-1.9562270813	-0.4577150796	 1.3472841718	 0.458408
O	-2.1938573134	 0.4008632429	 2.1358026886	-0.334481
C	-2.2575063709	 0.0167927988	-1.131451231	 0.308935
C	-2.9684315195	 0.4455167021	-1.999687798	-0.436596
H	-0.4442735994	 1.6143041814	 0.9392660775	 0.303876
H	 0.4767137124	-0.0979266051	-1.1020085731	 0.127712
H	 0.6355352849	-0.4772460455	 0.6278092162	 0.098765
H	-2.25201744	-2.5782708523	-0.440670448	 0.144715
H	-0.5614426803	-2.6006958821	 0.1859622931	 0.1338
H	-3.5950210388	 0.8397248705	-2.7615442095	 0.207622
102.7891	119.8719	122.8366	154.6063	224.4976	295.8774	386.766	403.2148	442.8711	517.9068	572.9105	638.0848	655.7644	690.0735	767.6737	788.5919	902.7589	931.3313	958.0982	1034.5586	1096.147	1127.5906	1147.777	1160.3589	1208.572	1274.808	1348.1921	1388.6853	1438.4742	1506.5475	1507.9169	1921.7661	2242.1534	2970.1522	3081.9634	3087.3324	3156.4353	3500.4694	3773.9332
OCC1(COC1=O)C#C	OC[C@]1(COC1=O)C#C	
InChI=1S/C6H6O3/c1-2-6(3-7)4-9-5(6)8/h1,7H,3-4H2	InChI=1S/C6H6O3/c1-2-6(3-7)4-9-5(6)8/h1,7H,3-4H2/t6-/m0/s1
