23
gdb 6554	2.95614	1.52968	1.37714	1.2193	82.03	-0.2154	0.0749	0.2903	1076.1004	0.209867	-330.297738	-330.287947	-330.287003	-330.331673	37.189	
C	 2.238341908	 0.544756394	-0.9888862956	-0.316282
N	 3.04551884	 0.0586733055	 0.1178575488	-0.09977
C	 3.659944711	 1.0241988283	 1.0191622395	-0.273799
C	 2.6181788064	 0.0782135548	 1.5178752286	 0.034498
C	 1.2627182645	 0.4714980401	 2.1287300493	 0.22863
C	 0.6795538783	 1.8213533057	 1.6724956771	-0.423858
C	 0.2485762986	-0.6511771043	 1.8272042091	-0.398824
C	 1.4912031879	 0.5437390954	 3.6551952145	-0.394422
H	 2.879698287	 0.6083781874	-1.8750582463	 0.120743
H	 1.441231395	-0.1725842575	-1.2092213851	 0.120757
H	 1.7846674391	 1.5344225335	-0.8390550148	 0.103218
H	 4.7124934833	 0.8749799864	 1.2518268459	 0.107434
H	 3.3736004582	 2.0691662693	 0.9039347296	 0.102724
H	 3.000092626	-0.8064508958	 2.0313737944	 0.083172
H	-0.2136279016	 2.0478125002	 2.2655646651	 0.110179
H	 1.3852875688	 2.6438285368	 1.8219740949	 0.111946
H	 0.3751807317	 1.8160053337	 0.6241433969	 0.117093
H	 0.6242584634	-1.6228903526	 2.165106757	 0.1117
H	-0.7022236518	-0.4632948934	 2.3380045529	 0.107009
H	 0.0438910467	-0.7275521146	 0.754894193	 0.11561
H	 2.2020639734	 1.3365708649	 3.9104715089	 0.113946
H	 0.5506359761	 0.752423215	 4.1761326522	 0.107429
H	 1.8863716399	-0.4002678828	 4.0450747142	 0.110866
42.8834	167.0751	193.5805	235.1478	242.9191	260.754	283.444	302.336	344.0287	371.1116	374.5972	396.5108	489.9933	561.3654	687.9277	765.3757	839.4938	922.5933	932.0871	938.1781	959.0207	990.2671	1040.3855	1044.3961	1067.1698	1103.2104	1134.3083	1156.2175	1167.9584	1206.0537	1223.5669	1236.7497	1281.9981	1373.319	1396.3139	1397.6866	1405.4239	1439.8786	1449.9167	1478.8075	1485.1559	1486.5167	1489.8798	1497.7227	1506.0135	1516.6465	1517.687	1523.4646	2998.1945	3025.4094	3029.3842	3039.4527	3062.7133	3073.6247	3082.6563	3093.1351	3093.7268	3095.755	3100.248	3101.6107	3106.579	3130.7621	3160.546
CN1CC1C(C)(C)C	CN1C[C@H]1C(C)(C)C	
InChI=1S/C7H15N/c1-7(2,3)6-5-8(6)4/h6H,5H2,1-4H3	InChI=1S/C7H15N/c1-7(2,3)6-5-8(6)4/h6H,5H2,1-4H3/t6-,8?/m0/s1
