20
gdb 83307	3.04148	1.1481	1.05619	2.528	79.11	-0.2322	-0.0229	0.2092	1226.4464	0.171132	-403.13869	-403.129908	-403.128963	-403.172844	32.399	
C	 0.0132652228	 1.6309205191	 0.188355079	-0.428372
C	 0.0160068514	 0.1329152354	-0.0192812727	 0.005406
C	 0.459265991	-0.5588081594	-1.2620082361	-0.071217
C	 1.2571618673	 0.221483544	-2.3084987701	-0.077049
C	 2.5495809525	 0.6754422678	-1.5623349731	-0.269876
C	 2.5080333269	-0.0171839709	-0.1716348433	-0.155628
N	 1.2235903599	-0.7170565706	-0.0108739156	-0.108504
C	 1.6041106965	-0.6806609506	-3.475438762	 0.14712
O	 1.304927618	-0.4734436023	-4.6219829844	-0.251062
H	 0.7135054801	 2.1696177468	-0.4517967659	 0.123745
H	-0.9880772192	 2.0240494314	-0.0161470349	 0.129677
H	 0.2521112519	 1.8742340434	 1.2296916732	 0.128931
H	-0.7960275279	-0.3555535883	 0.51853407	 0.095225
H	-0.0890385771	-1.433101026	-1.6077280584	 0.095093
H	 0.697127586	 1.0700928348	-2.7109750052	 0.099717
H	 3.4485536785	 0.3845582659	-2.1164792836	 0.112778
H	 2.577261629	 1.7640217518	-1.4820611738	 0.121264
H	 3.2968151676	-0.77145176	-0.0917346929	 0.113205
H	 2.6614693334	 0.6940152497	 0.6465762175	 0.110339
H	 2.1897873614	-1.586730932	-3.1879083278	 0.079206
63.5041	70.0398	150.8933	167.1086	237.8238	282.7016	319.4817	426.6839	452.3124	537.5693	699.6888	716.3243	747.9743	798.7962	800.5472	901.3214	906.7158	951.6664	990.5971	1000.0708	1021.8436	1029.954	1099.0338	1116.9909	1137.9405	1155.0476	1170.6167	1215.8348	1243.5798	1259.8891	1282.3446	1305.7468	1320.3632	1342.6704	1379.3264	1415.8622	1428.483	1429.861	1488.5883	1491.294	1507.5184	1516.8678	1836.6874	2847.3815	3039.3591	3043.5798	3052.8566	3072.7373	3078.7014	3094.4612	3101.9432	3108.2579	3121.9112	3138.9183
CC1C2C(CCN12)C=O	C[C@H]1[C@H]2[C@@H](CCN12)C=O	
InChI=1S/C7H11NO/c1-5-7-6(4-9)2-3-8(5)7/h4-7H,2-3H2,1H3	InChI=1S/C7H11NO/c1-5-7-6(4-9)2-3-8(5)7/h4-7H,2-3H2,1H3/t5-,6-,7-,8?/m0/s1
