18
gdb 107374	3.37943	1.16575	0.97872	4.4217	72.27	-0.2374	0.0285	0.2659	1206.8158	0.148465	-439.110223	-439.101885	-439.100941	-439.143333	31.811	
O	-0.0562265062	 1.3469237854	 0.456578903	-0.419416
C	-0.0078182134	 0.0034813789	-0.004344309	-0.175219
C	-1.4145270475	-0.5226193673	-0.0465028889	 0.357765
C	-2.0182147888	-1.1251976261	 1.2079937863	-0.33213
C	-1.6965584236	-2.0069002532	 0.0237711381	-0.064353
N	-2.7519437606	-2.2604695428	-0.9119662442	-0.306942
C	-3.2776530395	-1.1247670269	-1.4911152515	 0.391197
O	-4.2682621672	-1.0807443418	-2.1833632227	-0.3683
C	-2.3792305246	 0.0522984688	-1.0731067715	-0.408961
H	 0.8248561625	 1.7245828433	 0.3770679364	 0.289406
H	 0.4362049551	-0.052277174	-1.0117476615	 0.090043
H	 0.6056690315	-0.6265272072	 0.6604862538	 0.082894
H	-1.371096875	-1.1853968986	 2.0767886579	 0.119001
H	-3.0645426356	-0.9409168567	 1.4297789966	 0.119913
H	-0.9027831516	-2.7447901002	 0.0718724856	 0.102965
H	-3.3100055109	-3.1003250724	-0.889200179	 0.250916
H	-3.0010822003	 0.867122477	-0.6951341558	 0.142742
H	-1.8515285043	 0.4336408939	-1.9542388636	 0.128481
82.1652	107.6496	163.4217	258.5273	295.2144	355.3205	383.9573	455.7478	473.2399	486.274	594.9872	635.5482	709.5455	746.8597	851.2367	876.9828	911.4794	938.5262	973.9562	1009.9499	1037.1808	1060.1237	1072.8546	1086.546	1128.3887	1173.8159	1221.4307	1227.5522	1256.8183	1261.859	1324.9127	1345.9458	1395.484	1419.5171	1463.221	1467.356	1487.5871	1517.8308	1833.0188	2958.3842	2987.9468	3056.8988	3109.0509	3126.8506	3164.1258	3217.6509	3628.0729	3827.5527
OCC12CC1NC(=O)C2	OC[C@]12C[C@H]1NC(=O)C2	
InChI=1S/C6H9NO2/c8-3-6-1-4(6)7-5(9)2-6/h4,8H,1-3H2,(H,7,9)	InChI=1S/C6H9NO2/c8-3-6-1-4(6)7-5(9)2-6/h4,8H,1-3H2,(H,7,9)/t4-,6-/m1/s1
