16
gdb 54122	2.75725	1.60603	1.18844	3.62	65.63	-0.2268	0.0211	0.2479	1025.9622	0.123604	-474.993669	-474.98555	-474.984606	-475.026241	31.407	
N	-0.0858630733	 1.3625814963	-0.0496150774	-0.540879
C	 0.1130870377	 0.0099344732	 0.0381680991	 0.337332
O	 1.2170677011	-0.495215476	 0.1212773052	-0.364124
C	-1.1709396355	-0.7826514338	 0.0518780809	 0.242955
O	-2.3506641929	-0.0278422504	-0.1243929508	-0.473426
C	-1.3290691037	-2.1406587918	-0.6210411192	-0.176703
C	-0.1264245026	-3.0379417046	-0.3271410676	-0.093965
O	-0.2854211947	-2.8302861168	 1.110427471	-0.268802
C	-1.4266866595	-2.0391214277	 0.8768259057	 0.04357
H	 0.7350352371	 1.9224436686	-0.218052455	 0.258657
H	-0.9737506437	 1.6951062948	-0.3883092439	 0.261698
H	-2.6236281825	 0.3029174964	 0.739481911	 0.29365
H	-2.0877885748	-2.2790503236	-1.3787414062	 0.114272
H	-0.3158854592	-4.0871572553	-0.5751527005	 0.1118
H	 0.8519414347	-2.7113795756	-0.6787992697	 0.146277
H	-2.2575267882	-2.0901823738	 1.5743823375	 0.107686
67.4416	182.0268	216.1001	303.0297	329.6752	342.668	388.2973	411.0669	458.0354	495.1454	598.172	612.0285	678.9255	731.4223	817.5061	834.1413	914.6775	940.9005	952.7642	995.3173	1023.6932	1067.957	1089.2347	1098.0714	1149.6776	1168.8133	1222.5523	1235.6107	1306.0516	1318.5313	1375.8748	1402.7598	1491.8193	1591.6822	1787.0731	3053.3044	3144.1322	3155.6772	3212.2268	3586.4451	3719.9784	3785.5676
NC(=O)C1(O)C2COC12	NC(=O)[C@@]1(O)[C@H]2CO[C@@H]12	
InChI=1S/C5H7NO3/c6-4(7)5(8)2-1-9-3(2)5/h2-3,8H,1H2,(H2,6,7)	InChI=1S/C5H7NO3/c6-4(7)5(8)2-1-9-3(2)5/h2-3,8H,1H2,(H2,6,7)/t2-,3+,5+/m0/s1
