19
gdb 34907	2.73447	1.61607	1.2859	0.9295	82.88	-0.2423	0.0589	0.3012	1040.387	0.160379	-348.696966	-348.689361	-348.688417	-348.728806	31.244	
C	 0.04924366	-1.2325665427	 0.043282642	-0.484475
C	 0.0211328451	-0.0303922632	 0.031841882	 0.348629
C	-0.0033905226	 1.4299572156	 0.032943791	-0.212234
C	-0.7272789126	 2.0480043706	 1.2505494085	-0.03867
C	-0.2106744639	 1.7896080676	 2.64010176	-0.299003
C	 0.2089560053	 3.0412332988	 1.906612531	-0.040762
C	 1.5098769881	 3.0636517827	 1.1251904565	-0.040758
C	 2.385940917	 1.834356398	 1.0803796475	-0.299002
C	 1.3954366419	 2.0845969651	-0.0245128052	-0.038674
H	 0.068840993	-2.2939282091	 0.0457112345	 0.190968
H	-0.5466463992	 1.759458952	-0.862011512	 0.105144
H	-1.7853271474	 2.251934763	 1.129922338	 0.089487
H	-0.9214921471	 1.907607414	 3.4514719817	 0.108774
H	 0.5023054474	 0.9908174053	 2.8048522155	 0.122561
H	-0.1575726189	 3.9940408807	 2.2713698292	 0.083597
H	 1.9797508814	 4.0308696346	 0.9875619617	 0.083596
H	 3.4327427946	 1.9826562881	 0.8360015473	 0.108773
H	 2.2169193919	 1.0203507113	 1.7749146729	 0.122564
H	 1.7804391561	 2.3134056175	-1.0119459021	 0.089486
100.4271	132.5154	261.4778	282.4125	385.3539	467.9872	505.1397	538.929	619.2941	619.585	667.8791	686.2882	717.011	783.9256	822.5979	828.018	834.6925	925.6715	968.4408	978.6908	1005.5224	1016.764	1035.4456	1053.2683	1058.5923	1076.3004	1106.3541	1108.4601	1113.9214	1117.3019	1200.0857	1219.6671	1266.5191	1313.4608	1318.7567	1358.054	1379.3388	1389.6734	1481.7042	1507.3268	2231.9735	3020.851	3133.381	3139.3461	3160.9432	3165.9001	3168.7228	3179.852	3215.1844	3223.0258	3506.1592
C#CC1C2CC2C2CC12	C#C[C@H]1[C@H]2C[C@H]2[C@H]2C[C@@H]12	
InChI=1S/C9H10/c1-2-5-6-3-8(6)9-4-7(5)9/h1,5-9H,3-4H2	InChI=1S/C9H10/c1-2-5-6-3-8(6)9-4-7(5)9/h1,5-9H,3-4H2/t5-,6+,7-,8+,9-
