18
gdb 28201	4.62772	1.20692	0.97925	1.094	81.1	-0.1741	0.0273	0.2015	1210.3077	0.150104	-401.972937	-401.965129	-401.964185	-402.005246	29.811	
C	 0.0946052326	 1.4393258012	-0.0812110128	-0.489255
C	-0.0631392666	-0.0363332505	 0.0018945814	 0.36298
C	-1.152368362	-0.8410580704	 0.2150932148	-0.441846
C	-0.6534901655	-2.1778794836	 0.1222026094	 0.274811
C	 0.667963692	-2.083141704	-0.1429978904	 0.266531
C	 1.3706645789	-3.3943561292	-0.058767022	-0.3464
C	 0.1099454284	-4.3242968646	-0.1089543878	-0.162232
N	-1.0478886321	-3.5079432733	 0.3781985786	-0.404383
O	 1.0704707467	-0.7837321294	-0.1946117571	-0.23258
H	 0.8441035289	 1.804070263	 0.630420954	 0.136262
H	 0.4116359158	 1.7596499849	-1.0810486967	 0.134933
H	-0.8568477875	 1.9260218414	 0.1450772709	 0.132784
H	-2.15870035	-0.498322496	 0.3991837923	 0.103393
H	 2.0665377277	-3.6200359199	-0.8731537001	 0.11208
H	 1.9210149926	-3.5163885425	 0.8855087232	 0.113817
H	-0.0523983833	-4.6393977324	-1.1486846936	 0.102476
H	 0.2276232455	-5.2203053854	 0.5053152351	 0.109641
H	-1.9138790925	-3.7834900293	-0.0704725892	 0.226986
120.2032	126.6045	181.1201	241.465	266.2897	320.1755	471.247	518.8682	624.0345	650.3719	668.7865	723.334	779.6521	786.2844	831.0714	870.2452	939.4107	960.7001	1013.0856	1017.4385	1060.4592	1077.3967	1112.4583	1164.1951	1180.5688	1229.9984	1272.9356	1287.7518	1329.2724	1356.6221	1395.3412	1416.0812	1471.2526	1480.5738	1493.9968	1505.9947	1516.9235	1583.3743	1676.5885	2994.4856	3006.6173	3025.5554	3062.0521	3074.4411	3092.4734	3126.5486	3252.1965	3531.4696
CC1=CC2=C(CCN2)O1	Cc1cc2c(CCN2)o1	
InChI=1S/C7H9NO/c1-5-4-6-7(9-5)2-3-8-6/h4,8H,2-3H2,1H3	InChI=1S/C7H9NO/c1-5-4-6-7(9-5)2-3-8-6/h4,8H,2-3H2,1H3
