13
gdb 132935	3.19232	1.4015	0.97392	2.9325	65.53	-0.2254	-0.0409	0.1845	1083.0054	0.090853	-494.087322	-494.080019	-494.079075	-494.119272	27.675	
F	-0.0139092342	 0.0127371642	-0.3375155199	-0.058649
C	-0.0320469244	 1.3161739785	-0.0741513359	 0.08886
C	-1.1855005949	 1.9926437052	 0.0644246287	-0.07166
N	-1.1942896444	 3.3362708365	 0.3357656344	-0.340152
C	-0.0489710719	 4.1053133532	 0.4889572707	 0.472457
N	-0.1651293392	 5.3499833481	 0.7402517676	-0.570598
N	 1.1180180128	 3.3606861196	 0.3367143832	-0.433591
C	 1.2568399446	 1.9905064369	 0.0600063247	 0.35591
O	 2.3478918939	 1.4756465623	-0.0462858434	-0.362496
H	-2.1486933935	 1.5081971342	-0.0317914351	 0.155699
H	-2.0598631454	 3.8402275835	 0.4388606717	 0.281214
H	 0.7369722181	 5.809216705	 0.831325845	 0.21793
H	 1.9967641285	 3.8497044729	 0.4337796182	 0.265077
100.9312	148.4381	299.3122	332.3422	373.1997	374.6583	454.5888	522.2123	537.1061	614.2553	620.4363	714.0216	743.0414	757.9114	769.892	820.692	912.663	965.6016	1101.6144	1181.9546	1210.4765	1302.049	1354.6822	1407.2099	1444.5879	1504.094	1721.2457	1752.5633	1805.6161	3222.6787	3533.1234	3615.2731	3661.4044
FC1=CNC(=N)NC1=O	FC1=CN[C]([NH])NC1=O	
InChI=1S/C4H4FN3O/c5-2-1-7-4(6)8-3(2)9/h1H,(H3,6,7,8,9)	InChI=1S/C4H4FN3O/c5-2-1-7-4(6)8-3(2)9/h1H,(H3,6,7,8,9)
