19
gdb 80373	2.31548	1.70793	1.20943	3.6088	79.73	-0.2461	0.0277	0.2738	1082.5664	0.15877	-382.038745	-382.029988	-382.029044	-382.07169	33.372	
C	-0.1853047941	 1.4696002052	-0.1874013487	-0.328567
N	 0.093492207	 0.0590054962	 0.0407930142	-0.070562
C	 1.3783963894	-0.5630334163	-0.1414738949	-0.038613
C	 2.5504844444	 0.3068602525	 0.3547665715	-0.308687
C	 1.9142055965	 0.3032360676	 1.7929777144	 0.135014
C	 2.7104977776	-0.5583889126	 2.7848736686	-0.436277
C	 1.6209595397	 1.6017688404	 2.3948320544	 0.248593
N	 1.400810478	 2.6249057373	 2.8878791912	-0.356783
C	 0.7036427176	-0.4966142621	 1.2112346697	-0.085892
H	 0.6291978769	 2.157936034	 0.0689680336	 0.12732
H	-0.4279094989	 1.6014239899	-1.2461374185	 0.125252
H	-1.0610964335	 1.7526269043	 0.4026700171	 0.138797
H	 1.4653160902	-1.3960559133	-0.8302833528	 0.102481
H	 3.5121118452	-0.209355076	 0.3451589751	 0.11893
H	 2.6671589772	 1.2799384531	-0.1273228105	 0.122292
H	 3.6633772988	-0.0849141536	 3.0364608044	 0.138395
H	 2.1462575057	-0.7067699426	 3.7102765483	 0.138118
H	 2.9119455353	-1.5389048429	 2.3434682781	 0.12715
H	 0.1745615472	-1.2516317809	 1.7846517846	 0.103037
117.3882	143.6593	188.9002	213.7687	247.7627	261.2315	285.5614	370.0669	454.0995	492.8351	548.6024	597.4429	647.0673	726.3293	829.0197	842.6682	880.0971	921.7212	946.718	961.3507	991.1769	1040.2247	1060.1251	1113.0233	1138.3402	1156.4165	1178.2983	1186.9022	1231.5702	1257.0147	1260.7645	1285.1286	1393.2436	1411.134	1457.5657	1478.0582	1489.5894	1495.7669	1501.5392	1502.172	2343.3654	3022.4507	3040.8772	3074.1562	3088.5969	3116.462	3117.9256	3121.66	3128.7024	3157.9166	3175.6454
CN1C2CC(C)(C#N)C12	CN1[C@H]2C[C@@](C)(C#N)[C@@H]12	
InChI=1S/C7H10N2/c1-7(4-8)3-5-6(7)9(5)2/h5-6H,3H2,1-2H3	InChI=1S/C7H10N2/c1-7(4-8)3-5-6(7)9(5)2/h5-6H,3H2,1-2H3/t5-,6-,7-,9?/m0/s1
