17
gdb 32546	3.06036	1.44388	1.00989	5.6153	83.22	-0.1842	-0.0027	0.1815	1149.8999	0.13914	-414.213387	-414.205169	-414.204224	-414.246266	31.015	
C	 0.134022857	 1.3856280418	 0.3094978514	-0.336561
N	-0.2956213333	 0.1151870158	-0.2796254741	-0.36534
C	 0.499843989	-0.5793895464	-1.183465371	 0.263347
C	 0.6879700534	-1.9189721591	-1.059429784	-0.111546
N	 1.362166821	-2.6340047418	-2.0396422419	-0.300993
C	 1.8847934211	-1.9722614885	-3.1003899513	 0.087049
N	 1.7855065788	-0.7024527271	-3.2856581663	-0.328138
C	 1.0787007448	 0.0961442256	-2.370294606	 0.304694
N	 0.9205506529	 1.356879216	-2.5585763244	-0.541038
H	 1.0003289317	 1.2746201083	 0.9805759328	 0.096284
H	 0.3906812904	 2.0746061481	-0.4929095834	 0.188524
H	-0.7005378994	 1.791613464	 0.8878529713	 0.112028
H	-0.6854194461	-0.5049749434	 0.4187566759	 0.222446
H	 0.3073592873	-2.4962631056	-0.2262496555	 0.110624
H	 1.47863354	-3.629248298	-1.9513054116	 0.265501
H	 2.4135970094	-2.5886109372	-3.8248068453	 0.1236
H	 1.3874673818	 1.6060347976	-3.4325987166	 0.209518
83.4427	113.0168	171.8994	258.9703	317.1931	361.6363	391.2533	452.1848	476.5729	538.8603	575.7476	601.4868	702.9685	727.977	795.243	813.8395	890.3429	932.9511	942.7526	1013.297	1056.175	1089.5808	1154.5265	1169.2353	1225.8231	1304.2393	1308.5192	1397.4681	1423.4487	1447.6393	1492.3945	1511.7678	1529.1168	1539.6827	1652.1465	1660.1381	1688.1661	2977.2615	3085.7585	3151.6683	3170.1709	3206.5995	3459.418	3553.5988	3659.1776
CNC1=CNC=NC1=N	CNC1=CNCN=C1[NH]	
InChI=1S/C5H8N4/c1-7-4-2-8-3-9-5(4)6/h2-3,7H,1H3,(H2,6,8,9)	InChI=1S/C5H9N4/c1-7-4-2-8-3-9-5(4)6/h2,6-8H,3H2,1H3
