21
gdb 118975	2.65599	1.03634	0.97271	2.9221	75.53	-0.2427	0.0706	0.3132	1367.005	0.18001	-461.332993	-461.322858	-461.321914	-461.368282	36.66	
C	-0.1212436208	 1.3689814612	-0.1263911974	-0.229665
O	 0.0605317927	-0.0291719644	-0.09851745	-0.256398
C	 0.6062342012	-0.5031796639	 1.1203201727	-0.12813
C	 0.6309547678	-2.021237049	 1.0127192643	 0.318202
O	-0.653388884	-2.5061971839	 0.7191309178	-0.484466
C	 1.8180273143	-2.5689357462	 0.1782707854	-0.120925
O	 2.518709379	-2.942481286	 1.3837416962	-0.29955
C	 1.3197134008	-2.7711175132	 2.1786244361	 0.122461
C	 1.5830309735	-2.1199144426	 3.5202993283	-0.421323
H	 0.8345648824	 1.9022119932	-0.0138443065	 0.112803
H	-0.556446639	 1.6228054341	-1.0957026619	 0.132571
H	-0.8007305489	 1.7053202932	 0.6714993254	 0.111219
H	 1.6173567804	-0.0999549408	 1.2796066121	 0.103411
H	-0.0269473685	-0.191748703	 1.9667366695	 0.094903
H	-1.0382284656	-1.8814734598	 0.0905179306	 0.286871
H	 1.5317807588	-3.440145634	-0.4246689408	 0.09961
H	 2.3895911628	-1.8617368289	-0.4317907975	 0.101938
H	 0.8101267838	-3.7359322975	 2.3195050223	 0.082677
H	 2.0775376362	-1.1507482198	 3.4116901022	 0.11895
H	 0.6458516554	-1.9829871619	 4.0697714359	 0.123953
H	 2.2342440278	-2.7635191467	 4.1198649653	 0.130887
71.259	102.6575	111.9515	136.0228	202.8659	227.5892	253.4288	274.7523	339.4358	388.8702	426.3287	461.1281	498.0697	530.849	701.9998	793.8838	870.4259	915.9046	934.8197	989.9002	1013.1696	1029.7329	1071.7949	1096.9381	1147.3124	1155.7086	1165.1386	1176.9323	1195.9756	1220.1022	1233.8484	1280.0472	1291.7718	1341.7326	1379.675	1401.18	1410.7537	1437.9695	1478.8778	1483.0274	1485.6379	1496.7588	1500.9049	1516.7382	1524.0572	2970.5262	2983.2627	2995.3205	3017.3997	3018.3622	3030.1452	3039.2956	3078.0127	3109.3277	3118.3796	3119.358	3768.0193
COCC1(O)COC1C	COC[C@@]1(O)CO[C@H]1C	
InChI=1S/C6H12O3/c1-5-6(7,3-8-2)4-9-5/h5,7H,3-4H2,1-2H3	InChI=1S/C6H12O3/c1-5-6(7,3-8-2)4-9-5/h5,7H,3-4H2,1-2H3/t5-,6+/m0/s1
