14
gdb 35393	4.35685	1.32908	1.21551	3.0594	64.63	-0.2592	-0.0009	0.2583	982.0223	0.10176	-436.616133	-436.609694	-436.60875	-436.647235	25.1	
N	-0.0879347362	-1.164767361	-0.056147786	-0.315549
C	-0.0618895396	-0.0106114731	-0.0173032721	 0.291084
C	-0.0033171433	 1.4565364343	 0.0100221777	-0.062986
O	-0.4919990788	 1.9612178239	 1.2724687025	-0.265905
C	 0.6179829894	 2.6698043929	 1.7746998679	 0.092353
C	 1.358461669	 3.4316893324	 0.638226264	 0.016204
O	 2.6431943513	 3.2239283458	 1.3058494909	-0.308554
C	 1.9551696586	 1.9396022578	 1.4571237605	 0.031908
C	 1.4213865821	 2.0115581936	-0.0078507307	-0.082801
H	-0.6245566349	 1.849325412	-0.8034029647	 0.140171
H	 0.4155563327	 3.1195394036	 2.7428148241	 0.119479
H	 1.159953772	 4.3972290102	 0.1754379725	 0.10927
H	 2.46734401	 1.1281154172	 1.9704202114	 0.119456
H	 2.0771571578	 1.8072481403	-0.8502533379	 0.115871
101.5429	160.1067	322.7758	415.9244	467.5518	490.8276	581.1179	685.9308	738.9826	787.1883	825.2591	881.3924	890.2575	905.0702	930.2294	980.2918	992.8818	1014.0037	1015.1679	1078.7315	1139.8757	1148.0641	1152.4962	1180.5495	1224.3587	1255.3394	1269.2443	1279.4028	1348.374	1367.233	2362.6002	3046.2114	3134.993	3144.6742	3168.8658	3179.8413
N#CC1OC2C3OC2C13	N#C[C@H]1O[C@@H]2[C@H]3O[C@@H]2[C@@H]13	
InChI=1S/C6H5NO2/c7-1-2-3-4-6(8-2)5(3)9-4/h2-6H	InChI=1S/C6H5NO2/c7-1-2-3-4-6(8-2)5(3)9-4/h2-6H/t2-,3-,4-,5+,6+/m1/s1
