17
gdb 40329	4.68076	1.35176	1.28571	1.8616	75.01	-0.2028	0.0638	0.2666	1008.0974	0.136079	-380.699721	-380.692834	-380.69189	-380.731272	27.487	
C	-0.2272140855	 1.1961397711	-0.3305683196	-0.235997
C	 1.1924751885	 1.1020829515	 0.1011390095	-0.229405
N	 0.3225740135	-0.0821091144	 0.1230603858	-0.195923
C	-0.0945485077	-0.5451807726	 1.3875181352	 0.39619
C	-1.4783750814	-1.003054109	 1.8528972252	-0.178658
C	-0.7992299998	-2.0475278981	 2.7715088079	-0.044247
C	 0.5474140231	-1.6070341437	 2.3222520525	-0.123502
N	-0.0740723452	-0.9720443101	 3.5384063285	-0.176797
C	-0.7288446595	 0.0663924165	 2.6286356757	-0.093152
H	-0.9119649398	 1.7239340174	 0.3299277209	 0.120455
H	-0.483604652	 1.2419952255	-1.3844877545	 0.123707
H	 1.9884542254	 1.0751114462	-0.6361958538	 0.122697
H	 1.4524141366	 1.5516604917	 1.0562378387	 0.123959
H	-2.4211820863	-0.9657061292	 1.3259550156	 0.098818
H	-1.139222878	-2.9656233396	 3.2366402581	 0.096509
H	 1.5187757036	-2.0861631271	 2.3492319137	 0.097237
H	-1.0058103752	 1.0670689439	 2.9373661507	 0.098108
73.1684	169.9016	182.1587	369.1844	438.6856	550.7147	666.4663	741.5108	772.0606	776.6635	807.9806	838.5228	859.3331	877.2378	878.569	903.3124	914.9385	936.571	973.0308	994.1068	1011.6244	1023.7812	1045.8886	1106.018	1111.9612	1123.0302	1127.6854	1163.1352	1176.9812	1199.1572	1223.604	1265.3359	1290.4141	1312.1396	1452.7141	1484.9559	1511.5762	3104.9708	3112.71	3171.3673	3181.3156	3188.6639	3190.6079	3208.1044	3219.9723
C1CN1C12C3C4C1N4C23	C1CN1[C@@]12[C@H]3[C@H]4[C@@H]1N4[C@@H]23	
InChI=1S/C7H8N2/c1-2-8(1)7-3-4-6(7)9(4)5(3)7/h3-6H,1-2H2	InChI=1S/C7H8N2/c1-2-8(1)7-3-4-6(7)9(4)5(3)7/h3-6H,1-2H2/t3-,4-,5+,6-,7+,9?/m0/s1
