18
gdb 75810	3.1591	1.3198	1.1051	1.7374	73.6	-0.2661	0.0136	0.2798	1133.8346	0.147152	-439.07239	-439.063805	-439.06286	-439.105993	31.905	
O	 0.2550445798	 1.1920477239	-0.3979106338	-0.426779
C	 0.1582136402	-0.1696130426	-0.0818662581	-0.061767
C	 0.1639900649	-0.5372837263	 1.3859186848	 0.370191
N	 0.9178818105	-0.2253680323	 2.3393905515	-0.555396
O	-1.0108837287	-1.2419375655	 1.3318266772	-0.282719
C	-1.2513749295	-0.8277825243	-0.0601359314	 0.418766
C	-2.4894326737	 0.018368845	-0.3848114805	-0.282752
C	-2.6282490329	-0.8045632631	-1.6997231605	-0.215415
C	-1.6823891443	-1.8798512316	-1.0877461624	-0.29969
H	 0.5764962385	 1.6472139455	 0.3888439151	 0.304727
H	 0.8723923507	-0.7537150396	-0.6766901945	 0.107477
H	 0.5737869658	-0.585115904	 3.2312197522	 0.232154
H	-3.2987051806	-0.1876089351	 0.320491215	 0.116257
H	-2.3278792473	 1.0945378777	-0.4619504746	 0.121055
H	-3.6314996663	-1.1311387293	-1.9764649171	 0.108429
H	-2.1760305467	-0.2932984411	-2.5523213811	 0.118757
H	-0.9037338044	-2.3159812101	-1.7188883024	 0.105799
H	-2.2403569561	-2.6851671273	-0.6022380496	 0.120906
68.1648	101.0713	140.9261	205.6276	226.9047	293.7434	363.9279	424.73	476.4505	543.9164	680.5941	706.5834	783.8348	794.8425	848.709	873.7691	898.1134	914.4748	922.5287	945.2437	1031.1822	1037.2796	1102.9482	1123.5236	1158.7928	1188.9609	1197.5358	1223.1161	1245.3242	1250.171	1274.1135	1303.2787	1320.8086	1361.8863	1392.7909	1465.9877	1480.351	1501.6743	1823.4923	3025.1768	3060.0794	3072.3499	3076.9625	3111.1059	3128.3947	3140.5746	3477.5294	3802.6881
OC1C(=N)OC11CCC1	O[C@H]1[C]([NH])OC21CCC2	
InChI=1S/C6H9NO2/c7-5-4(8)6(9-5)2-1-3-6/h4,7-8H,1-3H2	InChI=1S/C6H9NO2/c7-5-4(8)6(9-5)2-1-3-6/h4,7-8H,1-3H2/t4-/m0/s1
