19
gdb 84717	2.54184	1.7964	1.31283	0.3495	74.89	-0.2504	0.0021	0.2525	1004.0972	0.162077	-423.039566	-423.032093	-423.031149	-423.071684	29.773	
O	-0.0419813009	 1.4933429617	 0.4699717472	-0.424271
C	 0.0057544336	 0.1175980805	 0.0997642906	 0.083397
C	 0.7554483256	-0.7152361846	 1.1098080161	-0.119153
C	 0.0339755614	-1.7258687298	 1.5892400093	-0.085424
C	-1.3381737471	-1.8050944829	 0.9657646611	 0.071612
O	-2.3917640344	-1.6221457042	 1.9184831418	-0.25972
C	-2.7300817882	-0.242246445	 1.9254563745	-0.087931
C	-2.595332654	 0.2104565656	 0.466101953	-0.229051
C	-1.3837302453	-0.6025487155	-0.0270370916	-0.096752
H	-0.2494793701	 1.5342432532	 1.4103459466	 0.278867
H	 0.5106380752	 0.1265319263	-0.8724207428	 0.093756
H	 1.7671292811	-0.4562750704	 1.4054027615	 0.103209
H	 0.3547796047	-2.4337430158	 2.3456240457	 0.105315
H	-1.5171040842	-2.7765966093	 0.492380013	 0.083496
H	-3.7401476203	-0.1481360852	 2.3328702627	 0.109968
H	-2.0477528788	 0.32756257	 2.5801402823	 0.073954
H	-3.491640618	-0.0734283577	-0.0922661544	 0.104468
H	-2.4421564451	 1.2857041486	 0.3579579157	 0.115745
H	-1.5266919751	-0.9379329653	-1.0553638322	 0.078515
63.485	170.4284	233.748	312.672	358.7438	394.5861	480.7102	537.1808	586.4453	671.096	746.9532	760.6421	788.9972	848.8073	879.9779	907.0734	938.5464	956.2246	989.8141	1011.8198	1034.8563	1044.5294	1061.8637	1102.2073	1113.7686	1136.082	1203.5492	1223.8607	1248.7839	1255.1506	1284.1322	1301.3556	1329.9466	1342.4337	1348.3053	1372.4609	1388.3568	1431.3557	1484.7706	1514.9669	1684.2296	2948.9448	3045.437	3046.2394	3062.8229	3090.4044	3096.6986	3125.4272	3179.6632	3206.4692	3796.3559
OC1C=CC2OCCC12	O[C@H]1C=C[C@H]2OCC[C@@H]12	
InChI=1S/C7H10O2/c8-6-1-2-7-5(6)3-4-9-7/h1-2,5-8H,3-4H2	InChI=1S/C7H10O2/c8-6-1-2-7-5(6)3-4-9-7/h1-2,5-8H,3-4H2/t5-,6-,7+/m0/s1
