23
gdb 102658	1.98013	1.16984	0.84705	2.037	82.35	-0.249	0.0775	0.3265	1474.5755	0.203904	-425.403222	-425.392767	-425.391823	-425.439528	38.274	
C	-0.9757313011	 1.2654949728	 0.2932962301	-0.388706
C	-0.2508132404	-0.0735426239	 0.1481714477	-0.173028
C	 0.6017203747	-0.1757096378	-1.1171050251	 0.09904
C	 1.3016074859	-1.5348858825	-1.2440007634	-0.068133
O	 0.363770894	-2.5839359399	-1.3878263936	-0.423867
O	-0.2772768995	-0.0098390869	-2.2433587623	-0.277311
C	 0.3292820028	 0.4762705222	-3.4044692319	 0.133906
C	-0.5498047231	 1.2587210077	-4.3251751529	-0.286986
C	 0.5475721698	 1.9602783469	-3.5484002626	-0.286608
H	-0.2660630037	 2.1000512482	 0.337398134	 0.107282
H	-1.6442987272	 1.4372082453	-0.553878284	 0.127362
H	-1.5731496137	 1.2904170366	 1.2096127495	 0.111763
H	 0.4095716988	-0.2394057252	 1.0081764548	 0.095475
H	-0.9679823834	-0.9009182045	 0.1446450431	 0.113551
H	 1.3544789185	 0.6268308926	-1.1265111643	 0.069467
H	 2.0061009694	-1.511883193	-2.0918041943	 0.082073
H	 1.8879639786	-1.740842477	-0.341802132	 0.10446
H	-0.2854357226	-2.2625486968	-2.0266769875	 0.287908
H	 1.0687352606	-0.1879805675	-3.8501104779	 0.090764
H	-0.4342051812	 1.1218404725	-5.394288954	 0.116002
H	-1.568648152	 1.421310952	-3.992918487	 0.127158
H	 0.2379952449	 2.5845058704	-2.717822653	 0.123799
H	 1.42635695	 2.3089065378	-4.0796124835	 0.114626
46.7513	71.5554	99.1954	120.884	174.3414	221.7925	237.2469	278.439	339.1546	421.1873	433.9447	471.0488	485.4914	675.8159	747.1028	775.4261	818.902	835.5956	852.2815	902.2578	955.0024	984.0625	996.4266	1022.799	1052.3135	1063.8487	1073.6946	1090.4434	1127.4593	1140.7631	1169.2357	1194.2522	1199.1856	1227.9329	1240.8442	1287.6317	1312.6813	1357.8209	1366.7174	1400.7851	1404.9663	1415.8458	1435.4005	1453.7591	1483.1203	1495.4222	1498.9288	1509.9818	1511.3526	2965.7745	2998.8876	3033.3184	3037.0768	3067.3647	3080.3187	3100.7435	3106.2218	3123.7723	3136.8488	3142.7971	3221.4593	3235.7933	3771.9223
CCC(CO)OC1CC1	CC[C@@H](CO)OC1CC1	
InChI=1S/C7H14O2/c1-2-6(5-8)9-7-3-4-7/h6-8H,2-5H2,1H3	InChI=1S/C7H14O2/c1-2-6(5-8)9-7-3-4-7/h6-8H,2-5H2,1H3/t6-/m0/s1
