22
gdb 32639	3.6952	0.86816	0.80326	1.9844	91.03	-0.1959	0.0487	0.2447	1574.3355	0.19461	-367.260112	-367.250333	-367.249389	-367.295928	35.883	
C	-0.039703163	 1.509555156	 0.1392366169	-0.366721
C	-0.0813623702	-0.0134225873	-0.0191924023	-0.156097
N	 0.6395503591	-0.4908990466	-1.1859852128	 0.030379
C	 0.1124307925	-0.6473887562	-2.4437781726	-0.088366
C	 1.1258171719	-1.0196584247	-3.2954271825	-0.273046
C	 2.3295996729	-1.0923193313	-2.5316247486	 0.273219
C	 3.6994358628	-1.4558846424	-3.0297237113	-0.293647
C	 4.3153823571	-0.394282916	-3.9569569685	-0.359461
C	 1.9882151603	-0.7551703284	-1.2395876148	-0.204521
H	 0.991031292	 1.8615626501	 0.2388616926	 0.129532
H	-0.4837736805	 2.0021818643	-0.730511239	 0.129801
H	-0.5962942162	 1.8150891975	 1.0310373253	 0.116722
H	 0.3463399281	-0.4981526053	 0.8647214853	 0.117742
H	-1.117403504	-0.3577496013	-0.1003095823	 0.117173
H	-0.9405203694	-0.4888067637	-2.6189548504	 0.109347
H	 1.0175460227	-1.2397488181	-4.3473426128	 0.087239
H	 4.3644602522	-1.6165364272	-2.1728005242	 0.09237
H	 3.6592681703	-2.4135909734	-3.5652917063	 0.09898
H	 4.4162829785	 0.5643047957	-3.4380757695	 0.113606
H	 5.3072625296	-0.70119575	-4.305615197	 0.102915
H	 3.6854478775	-0.2274810496	-4.8365787532	 0.116119
H	 2.5952151756	-0.6911625422	-0.3490096023	 0.106718
40.8746	47.85	98.9204	167.2562	194.027	228.6925	298.4393	340.6418	400.5919	427.0197	587.0006	634.793	667.4066	685.1563	695.603	767.4828	787.4543	794.3267	807.3215	943.0115	949.7518	1005.1989	1025.0086	1065.9172	1086.8116	1090.9798	1100.4062	1123.0864	1190.6922	1252.7479	1278.947	1304.8247	1341.6938	1379.2098	1387.4337	1406.5578	1409.002	1419.5421	1437.9262	1482.3981	1484.3954	1489.1561	1496.3402	1506.5054	1506.9453	1537.993	1601.5928	3015.2312	3031.416	3040.8386	3045.5979	3052.2989	3084.2848	3100.6189	3107.045	3114.676	3124.4275	3233.2222	3242.5247	3256.8411
CCN1C=CC(CC)=C1	CCn1ccc(CC)c1	
InChI=1S/C8H13N/c1-3-8-5-6-9(4-2)7-8/h5-7H,3-4H2,1-2H3	InChI=1S/C8H13N/c1-3-8-5-6-9(4-2)7-8/h5-7H,3-4H2,1-2H3
