20
gdb 13889	3.8994	1.41002	1.33509	1.8974	70.74	-0.2494	0.0781	0.3275	1035.4721	0.177753	-386.154154	-386.145733	-386.144789	-386.187354	31.374	
C	-0.204927871	 1.534795222	 0.0402045486	-0.404319
C	 0.0404234576	 0.0269471247	-0.0489752993	 0.123589
O	 0.7947159381	-0.3086745127	-1.204677271	-0.438993
C	 0.7445171272	-0.5198935749	 1.2022934763	 0.138595
C	 0.8760536065	-2.0450151833	 1.256871036	-0.243343
C	 2.1743797101	-2.2314833294	 2.0536033411	-0.232628
C	 3.0163123838	-1.0433260928	 1.5708337818	-0.062802
O	 2.0927003496	-0.0180560894	 1.1881338678	-0.295571
H	 0.7389211093	 2.0644351388	 0.2042465824	 0.126912
H	-0.6518719755	 1.8967773428	-0.8892114046	 0.119477
H	-0.878930854	 1.776877453	 0.8692634524	 0.107236
H	-0.9195268525	-0.4934256061	-0.1568788048	 0.082042
H	 1.6934592595	-0.0132184329	-1.0065666163	 0.281997
H	 0.2336362073	-0.1439741529	 2.1027243845	 0.063375
H	 0.0098316514	-2.5223539519	 1.7212264607	 0.100496
H	 0.9833407496	-2.4302793719	 0.2379069813	 0.120824
H	 1.9790871543	-2.1496919128	 3.1281822185	 0.106889
H	 2.6641786785	-3.1915071734	 1.8736964551	 0.105932
H	 3.6837628376	-0.6475065359	 2.3443213021	 0.104274
H	 3.6301253825	-1.317314601	 0.7013481476	 0.096019
55.574	99.9963	171.1266	215.7558	250.3812	290.4447	343.7022	460.8418	501.0499	571.4668	644.0308	666.3435	818.5627	877.0929	887.4775	904.1678	933.461	946.8012	988.1734	1026.3348	1054.0952	1074.621	1088.0571	1139.9772	1166.0701	1194.3309	1211.1392	1258.2588	1290.7003	1302.1295	1333.4464	1341.8469	1353.7811	1390.8749	1398.8376	1402.7374	1432.4561	1489.006	1491.0577	1498.8604	1500.8805	1531.1316	2976.2356	3002.4515	3034.4407	3036.0521	3045.628	3058.7408	3062.239	3104.18	3105.5248	3116.2369	3122.9236	3762.6952
CC(O)C1CCCO1	C[C@@H](O)[C@H]1CCCO1	
InChI=1S/C6H12O2/c1-5(7)6-3-2-4-8-6/h5-7H,2-4H2,1H3	InChI=1S/C6H12O2/c1-5(7)6-3-2-4-8-6/h5-7H,2-4H2,1H3/t5-,6-/m1/s1
