19
gdb 107313	2.67642	1.59305	1.14971	3.3443	81.12	-0.2359	-0.0506	0.1853	1106.1507	0.159794	-385.918216	-385.909962	-385.909018	-385.950934	31.892	
C	 0.0645055554	 1.4843171326	 0.3723315122	-0.379845
C	-0.001915467	 0.0516984051	-0.1729357038	-0.277772
C	-1.4001624807	-0.5304376801	-0.1487075838	 0.233551
C	-1.9909553844	-1.0379429662	 1.1601625215	-0.307513
C	-1.7182271444	-1.9962888369	 0.0152208454	-0.158294
C	-2.905416575	-2.2627721735	-0.8489696604	-0.065615
C	-3.3347497536	-1.1525477782	-1.4661914556	-0.191532
C	-2.4353480328	-0.0114763902	-1.1388331005	 0.336742
O	-2.4853518918	 1.1093228549	-1.595794586	-0.340877
H	 1.0876615149	 1.8699729825	 0.3263064541	 0.106173
H	-0.5836533924	 2.142053447	-0.2101812431	 0.152698
H	-0.2626541721	 1.5210712578	 1.4170099662	 0.108877
H	 0.3710335675	 0.0343653078	-1.2041622283	 0.107526
H	 0.662791197	-0.6008609283	 0.4071642198	 0.091428
H	-1.3142481944	-1.0584396879	 2.0096409673	 0.122076
H	-3.0252533013	-0.8199288984	 1.4038330438	 0.125348
H	-0.9412329872	-2.7436632889	 0.1278385726	 0.101319
H	-3.37329736	-3.2394582332	-0.9072563749	 0.118603
H	-4.2004762777	-1.0463782959	-2.1061677066	 0.117109
88.1998	132.6788	204.3282	214.9254	283.2151	320.8425	354.2003	451.4683	471.7609	631.475	661.0085	735.6532	750.9738	778.4916	839.8756	849.5692	876.8931	897.9162	967.6602	980.1789	992.0568	1026.4327	1049.1839	1072.0692	1075.099	1111.0662	1128.3577	1138.5104	1233.4573	1265.5356	1338.63	1352.428	1365.7919	1389.2764	1408.176	1477.5353	1487.9659	1495.4859	1514.6888	1630.2685	1799.8365	3021.0204	3038.158	3057.8354	3101.9102	3122.4464	3138.2864	3177.3129	3193.7776	3214.9261	3232.806
CCC12CC1C=CC2=O	CC[C@]12C[C@H]1C=CC2=O	
InChI=1S/C8H10O/c1-2-8-5-6(8)3-4-7(8)9/h3-4,6H,2,5H2,1H3	InChI=1S/C8H10O/c1-2-8-5-6(8)3-4-7(8)9/h3-4,6H,2,5H2,1H3/t6-,8+/m1/s1
