18
gdb 14029	3.36942	1.53442	1.26696	2.9989	68.3	-0.2364	0.0668	0.3032	1005.8621	0.153342	-384.890251	-384.882119	-384.881175	-384.923106	29.684	
O	 0.2148547795	 0.5240985123	 0.9012217095	-0.416855
C	-0.1377135018	 0.1277160304	-0.4186880511	-0.099067
C	-1.4905700227	-0.5298824402	-0.3644442531	-0.05497
C	-1.8324583907	-1.6293298744	-1.3490827249	-0.373358
C	-1.5974197267	-1.9510166033	 0.0938602707	 0.310064
C	-0.5205631557	-2.8244874412	 0.7322891406	-0.138559
O	-1.4841123974	-3.3561114553	 1.6699696988	-0.277935
C	-2.5526481469	-2.5587486101	 1.114788357	-0.138899
H	 1.0381756695	 1.0198031149	 0.8564924874	 0.287298
H	-0.1669709816	 0.9936917696	-1.0985511438	 0.091645
H	 0.5986082669	-0.5829672497	-0.8293617193	 0.082078
H	-2.2996821652	 0.1340976944	-0.0696253438	 0.091906
H	-2.8479712192	-1.6786298639	-1.7292017371	 0.115331
H	-1.0740339216	-1.9253127411	-2.0687232077	 0.112471
H	-0.0937961053	-3.611421686	 0.0959535261	 0.094265
H	 0.2864600838	-2.2790317179	 1.2366863699	 0.114131
H	-2.9722047675	-1.8617403206	 1.8524052578	 0.103242
H	-3.3601527375	-3.1821221978	 0.7069128829	 0.097213
76.8698	121.3666	148.1516	183.0905	279.6201	322.6115	366.1463	414.6816	479.4118	591.7289	789.5017	857.1088	874.1732	886.6191	967.4801	975.2839	997.4291	1029.8674	1049.2745	1055.025	1073.5053	1094.7846	1133.5181	1153.9947	1163.1564	1170.619	1221.9938	1252.3769	1281.1971	1309.2614	1316.6479	1375.987	1430.0401	1468.4193	1506.8837	1509.0612	1518.1264	1534.4514	2961.0806	2991.8922	2994.5459	3006.6151	3038.5883	3053.709	3117.8001	3139.0656	3202.3198	3824.1242
OCC1CC11COC1	OC[C@H]1CC21COC2	
InChI=1S/C6H10O2/c7-2-5-1-6(5)3-8-4-6/h5,7H,1-4H2	InChI=1S/C6H10O2/c7-2-5-1-6(5)3-8-4-6/h5,7H,1-4H2/t5-/m1/s1
