18
gdb 61776	1.98113	1.32104	0.9099	5.8244	73.59	-0.2567	0.0109	0.2676	1300.4562	0.146605	-435.295242	-435.284974	-435.284029	-435.331781	35.856	
C	-0.0570306839	 1.7437335247	-0.2007203514	-0.409844
C	-0.0490068377	 0.2209666588	-0.0332321886	 0.026663
N	-1.3991346968	-0.315901856	 0.0103563661	-0.281323
C	-1.9437991634	-0.8525617589	 1.1418451977	 0.16533
O	-1.389627221	-0.913244787	 2.2166877104	-0.315679
C	 0.7807540658	-0.4745689043	-1.1580978303	-0.144965
N	 2.1945665371	-0.1167076544	-1.2311230032	-0.50107
C	 0.6687796258	-1.9392845818	-1.0393576375	 0.311451
N	 0.5802718743	-3.0864013273	-0.9390376925	-0.317021
H	 0.955805127	 2.1554661029	-0.1748494263	 0.118742
H	-0.5215428364	 2.0364296627	-1.1500471356	 0.115468
H	-0.6254828505	 2.2018419226	 0.6118418119	 0.145524
H	 0.3927863049	-0.0413200913	 0.9326478321	 0.136347
H	-1.9632822793	-0.2977504351	-0.8256248983	 0.249336
H	-2.9698256847	-1.2276256712	 0.9644927573	 0.08533
H	 0.3317617475	-0.202700954	-2.1245564481	 0.125608
H	 2.2983008339	 0.8674019916	-1.4505840726	 0.243047
H	 2.6520960474	-0.2871038019	-0.3404950411	 0.247059
25.1737	50.2959	132.9512	181.9354	200.2522	213.9965	235.7243	282.9975	315.3796	392.0519	416.0999	443.8624	506.5134	558.4607	599.9045	754.5204	824.518	849.9891	892.9576	964.1908	1028.9665	1080.4281	1101.1902	1127.3578	1142.5659	1190.9645	1211.0656	1290.2073	1351.5952	1367.3804	1398.6154	1411.9693	1429.3016	1487.4269	1497.0078	1526.5134	1655.1993	1806.9992	2365.4825	2953.6614	3009.4092	3031.9207	3083.6395	3106.8041	3128.9688	3505.7239	3598.8845	3621.27
CC(NC=O)C(N)C#N	C[C@@H](NC=O)[C@@H](N)C#N	
InChI=1S/C5H9N3O/c1-4(8-3-9)5(7)2-6/h3-5H,7H2,1H3,(H,8,9)	InChI=1S/C5H9N3O/c1-4(8-3-9)5(7)2-6/h3-5H,7H2,1H3,(H,8,9)/t4-,5+/m1/s1
