16
gdb 44900	4.33936	1.16087	1.1012	3.4275	75.49	-0.2457	0.0072	0.2529	1104.6705	0.125266	-400.720683	-400.713309	-400.712365	-400.752325	29.389	
O	 0.0037336231	 0.0343564018	-0.0604455695	-0.368067
C	 0.0256825647	 1.2342116079	 0.0334110258	 0.403318
N	-1.0524761223	 2.1132119783	 0.1680187786	-0.320292
C	-0.4234370198	 3.4404169093	 0.0119646363	-0.015057
C	 0.6388948343	 3.2106300812	-1.1010248118	-0.24614
C	 1.2044471037	 2.220845432	-0.0195792587	-0.155408
C	 0.7389832601	 3.2848346978	 1.055641641	-0.18224
C	 1.6124683575	 4.4237695169	 1.2388663041	 0.306733
C	 2.3369189985	 5.3678662513	 1.4128172343	-0.426385
H	-1.9352153904	 1.8920617662	-0.268851877	 0.252994
H	-1.1208859663	 4.2747964519	 0.0364660477	 0.09517
H	 0.2908240912	 2.7857890774	-2.0453113236	 0.109049
H	 1.2933757475	 4.0661330787	-1.2705079202	 0.130561
H	 2.2051856576	 1.7994731865	-0.0408922958	 0.101072
H	 0.4211478175	 2.8735822358	 2.0175297977	 0.116659
H	 2.9776507231	 6.2003026671	 1.5693573509	 0.198032
127.9998	145.1109	214.7472	378.6109	413.5563	444.0733	463.4337	518.8431	541.4748	627.9543	647.9596	654.7214	746.4429	798.6103	859.0285	869.7607	893.8694	942.6786	977.3977	1007.3677	1028.2606	1072.3614	1076.3588	1109.2163	1173.36	1198.9313	1212.9915	1225.7525	1250.2299	1304.7037	1342.4733	1375.9145	1499.7205	1869.8208	2233.9404	3074.7666	3075.9516	3146.0893	3148.6546	3171.1684	3502.3883	3618.8389
O=C1NC2CC1C2C#C	O=C1N[C@@H]2C[C@H]1[C@H]2C#C	
InChI=1S/C7H7NO/c1-2-4-5-3-6(4)8-7(5)9/h1,4-6H,3H2,(H,8,9)	InChI=1S/C7H7NO/c1-2-4-5-3-6(4)8-7(5)9/h1,4-6H,3H2,(H,8,9)/t4-,5+,6-/m1/s1
