18
gdb 86992	3.40608	0.91664	0.77458	3.9332	72.45	-0.265	0.0078	0.2728	1438.0761	0.146296	-439.065666	-439.056499	-439.055555	-439.100864	33.084	
O	 0.4978869022	-0.2077314325	-0.8159395154	-0.428064
C	-0.0872516525	-0.6199848282	 0.3883790429	 0.173178
C	-0.1388683187	 0.3473686468	 1.6056543996	-0.28381
C	-1.530883556	-0.227679808	 1.9486688497	 0.117306
C	-1.6301787027	-0.7779683015	 0.4954498265	-0.300605
O	-1.3716384762	-1.2315379298	 2.9487965428	-0.24173
C	-2.5624846417	-1.7219965863	 3.5000163615	-0.200001
C	-3.3061748048	-2.652485246	 2.6235238224	 0.261517
N	-3.8929648455	-3.3843674047	 1.9489995583	-0.308109
H	 0.0571296309	 0.5980980474	-1.106209098	 0.276827
H	 0.4163228089	-1.5512994561	 0.6586180467	 0.109357
H	 0.6272832167	 0.2611640507	 2.3783423809	 0.116956
H	-0.2135223193	 1.3903382533	 1.2810858622	 0.098273
H	-2.3060297385	 0.4810034369	 2.2664931807	 0.072952
H	-2.1435535432	-0.0565003426	-0.1504092495	 0.096081
H	-2.0686749936	-1.764458111	 0.3447306523	 0.138338
H	-2.2911678265	-2.2623860366	 4.4125542593	 0.161649
H	-3.2452306697	-0.9060386217	 3.784250697	 0.139886
32.9143	76.1315	96.8691	205.4298	264.9545	302.1432	336.037	371.2068	377.5313	432.0416	461.306	612.9603	678.0366	792.6585	811.8411	896.2841	907.4307	923.5322	979.4181	991.39	1037.0262	1073.0547	1083.6153	1121.8466	1164.3999	1191.8185	1202.6563	1258.6527	1270.2648	1288.0859	1301.648	1335.9367	1380.6896	1408.1404	1434.9638	1453.1018	1465.1049	1481.2273	2355.95	2991.9343	3016.5857	3049.123	3058.7098	3083.582	3089.1694	3126.9979	3140.2831	3801.9797
OC1CC(C1)OCC#N	O[C@H]1C[C@@H](C1)OCC#N	
InChI=1S/C6H9NO2/c7-1-2-9-6-3-5(8)4-6/h5-6,8H,2-4H2	InChI=1S/C6H9NO2/c7-1-2-9-6-3-5(8)4-6/h5-6,8H,2-4H2/t5-,6-
