14
gdb 25685	6.38661	0.75383	0.6771	5.5204	78.29	-0.2128	-0.0198	0.193	1581.9123	0.100409	-436.72172	-436.713114	-436.71217	-436.757834	29.847	
C	-0.0702967411	 1.4755692887	 0.0237123822	-0.50831
C	-0.0001870871	 0.0242728795	-0.0041527054	 0.161779
C	 0.0683708653	-1.1803720821	-0.0293400825	-0.033943
C	 0.1160592949	-2.5845319036	-0.0523022259	 0.170934
C	 1.1382062423	-3.4390000066	-0.2636270085	-0.14252
O	 0.7020986406	-4.7349138077	-0.189413277	-0.19886
C	-0.6628626738	-4.7314876835	 0.0818568528	 0.482314
O	-1.3313940852	-5.718175408	 0.2052214712	-0.397204
N	-1.006218114	-3.4039552181	 0.1628439587	-0.450655
H	 0.5873780583	 1.8907979906	 0.7953545044	 0.158935
H	 0.2272270897	 1.9068881534	-0.938495667	 0.15889
H	-1.0900138046	 1.8124735409	 0.2386856819	 0.158553
H	 2.1808994093	-3.2756871609	-0.4692587233	 0.159949
H	-1.9420622172	-3.0914122225	 0.3517922765	 0.280137
6.2779	86.8327	91.9821	195.3728	299.714	305.4357	418.3193	444.0064	471.0188	471.6402	577.3523	638.9005	737.3008	746.2663	768.0037	899.7156	940.4626	1048.6876	1049.2879	1052.8206	1104.8707	1189.0138	1289.3304	1328.8576	1404.8937	1413.3981	1471.3076	1475.36	1671.1058	1906.1943	2358.0795	3028.1215	3088.9585	3094.7049	3303.3311	3697.4354
CC#CC1=COC(=O)N1	CC#Cc1coc(=O)[nH]1	
InChI=1S/C6H5NO2/c1-2-3-5-4-9-6(8)7-5/h4H,1H3,(H,7,8)	InChI=1S/C6H5NO2/c1-2-3-5-4-9-6(8)7-5/h4H,1H3,(H,7,8)
