21
gdb 93664	2.25951	1.57507	1.2482	1.6394	73.54	-0.2437	0.0509	0.2946	1111.4254	0.181059	-461.370627	-461.360838	-461.359894	-461.404851	37.064	
C	 0.3067503423	 1.4510570862	 0.0364275288	-0.451072
C	-0.0015600215	-0.053378345	 0.0364083827	 0.350811
C	-1.5030807954	-0.3064666888	-0.0081409655	-0.441736
O	 0.5736992672	-0.69652901	-1.1104637771	-0.290013
C	 1.9505408527	-0.9433775406	-0.8591905569	-0.091002
C	 2.1180890464	-1.0996407203	 0.6624716547	 0.022996
O	 3.0656749113	-0.1392268124	 1.133303807	-0.432154
C	 0.6936505261	-0.7931166285	 1.2133661187	 0.087103
O	 0.7163746086	-0.106305318	 2.4419650817	-0.438846
H	 1.3825588357	 1.6453646085	 0.0734406007	 0.125716
H	-0.0929598787	 1.906758605	-0.8737357623	 0.120302
H	-0.1557300463	 1.9366531568	 0.9003584162	 0.122687
H	-1.9599930113	 0.2014324544	-0.8626717312	 0.118154
H	-1.7045266654	-1.3777435944	-0.0986043808	 0.116301
H	-1.9733471144	 0.0633660262	 0.9079905483	 0.125247
H	 2.2315668622	-1.8407636763	-1.4172297642	 0.107487
H	 2.5871730627	-0.1133823258	-1.1965141946	 0.108026
H	 2.4459082149	-2.1067969505	 0.9401788325	 0.080309
H	 3.3852242985	-0.439762697	 1.9900877496	 0.292584
H	 0.1613193299	-1.7327774398	 1.3917221012	 0.086076
H	 1.4017722348	 0.5685739604	 2.3504656805	 0.281025
67.0046	131.9036	148.2652	206.4918	233.3349	253.0774	286.505	298.0634	345.9245	419.5474	433.1366	495.1231	543.2741	571.8868	650.3754	696.1983	775.3366	843.2412	865.2476	933.333	960.7529	1005.4514	1014.4282	1030.8367	1073.2719	1109.4603	1132.8519	1180.6819	1195.2766	1234.4999	1251.9074	1274.3799	1278.1601	1311.8454	1350.6922	1369.4323	1394.5843	1411.1925	1431.5284	1438.0671	1480.0684	1485.5011	1499.8679	1507.3408	1518.1949	3006.1781	3038.784	3040.5402	3044.8813	3064.2228	3087.2925	3113.3773	3116.9546	3118.6846	3122.4221	3763.0106	3821.9545
CC1(C)OCC(O)C1O	CC1(C)OC[C@@H](O)[C@H]1O	
InChI=1S/C6H12O3/c1-6(2)5(8)4(7)3-9-6/h4-5,7-8H,3H2,1-2H3	InChI=1S/C6H12O3/c1-6(2)5(8)4(7)3-9-6/h4-5,7-8H,3H2,1-2H3/t4-,5-/m1/s1
