17
gdb 7745	3.2607	1.87523	1.24023	3.2598	71.9	-0.2126	0.0019	0.2146	971.578	0.143622	-363.927209	-363.919621	-363.918677	-363.958966	28.778	
C	 0.0298025279	 1.5090625889	 0.0415429265	-0.48937
C	-0.0652342659	 0.0133779292	-0.0113013743	 0.386978
C	-1.1943934424	-0.6927856089	 0.1042967415	-0.182613
C	-1.1631626774	-2.1987456663	 0.0840198806	-0.27024
C	 0.0077753696	-2.7085095232	-0.7712349234	-0.316356
C	 1.318169243	-1.9818103035	-0.5002260547	 0.394061
O	 2.4152375442	-2.491889633	-0.5976423439	-0.363755
N	 1.1652358284	-0.6471531201	-0.1866140514	-0.378562
H	 0.6815323552	 1.8348880904	 0.8623733167	 0.131365
H	 0.4516564722	 1.9139910469	-0.8863911218	 0.134268
H	-0.954990221	 1.9529653882	 0.1961878853	 0.137722
H	-2.135122889	-0.17404026	 0.2427043936	 0.086999
H	-1.0700007704	-2.5865350832	 1.1101879389	 0.115865
H	-2.1035823275	-2.6031247173	-0.3040823448	 0.109204
H	 0.1882779573	-3.7769742187	-0.6408954053	 0.128022
H	-0.217876773	-2.543922818	-1.833858127	 0.129054
H	 2.0263928287	-0.1285594314	-0.0932524067	 0.247357
120.1547	143.3035	184.7846	257.1749	302.9734	429.0734	482.385	515.8338	534.8895	586.142	605.7268	683.6602	770.8668	792.6622	898.5863	921.3731	1010.8828	1026.8288	1042.7708	1071.2743	1094.3112	1181.144	1183.1931	1235.0265	1300.9563	1336.5165	1357.8328	1377.4629	1416.6583	1460.4578	1464.1517	1477.4456	1485.8597	1496.9045	1744.9978	1804.4944	2988.9726	3021.2336	3026.0694	3066.7241	3069.7893	3119.0663	3135.8574	3201.2787	3614.9423
CC1=CCCC(=O)N1	CC1=CCCC(=O)N1	
InChI=1S/C6H9NO/c1-5-3-2-4-6(8)7-5/h3H,2,4H2,1H3,(H,7,8)	InChI=1S/C6H9NO/c1-5-3-2-4-6(8)7-5/h3H,2,4H2,1H3,(H,7,8)
