23
gdb 89843	2.90939	1.25272	1.02377	1.4778	86.07	-0.2205	0.0819	0.3025	1285.196	0.205373	-388.294346	-388.285082	-388.284138	-388.328362	36.272	
C	-0.1777108843	 1.5405163377	-0.061802232	-0.420334
C	 0.0914242938	 0.0378402579	-0.0302758233	 0.006259
C	 0.9204939679	-0.5113516144	-1.2045308007	-0.309049
C	 1.3566214974	-1.8501363103	-0.6527231124	 0.472391
C	 0.7882985032	-3.1597840112	-1.1358376798	-0.327707
C	 2.2584025821	-2.8185817605	-1.3409905207	-0.34182
O	 1.5391315318	-1.6920853456	 0.7392003692	-0.316788
C	 0.8839216859	-0.495518918	 1.193766264	 0.126012
C	 1.9386077172	 0.4465169247	 1.7703021664	-0.391841
H	 0.7507357932	 2.118388161	-0.1032094092	 0.119298
H	-0.7720411489	 1.8055288304	-0.9422719919	 0.114923
H	-0.7368242129	 1.8665952176	 0.8219020638	 0.115474
H	-0.8725493224	-0.4860761505	-0.0381817423	 0.080247
H	 0.3489783629	-0.5955102346	-2.132056818	 0.100744
H	 1.7882084794	 0.132444056	-1.3985736578	 0.099782
H	 0.5567847117	-3.901036326	-0.3791774024	 0.116978
H	 0.1315188939	-3.1641531548	-2.0001029661	 0.104634
H	 2.6046431824	-2.5859664401	-2.3428626417	 0.10944
H	 2.9793299898	-3.3400915564	-0.7212528575	 0.121087
H	 0.189995951	-0.7788483508	 1.9964795553	 0.072224
H	 2.6264176976	 0.8011902446	 0.9961222752	 0.114824
H	 1.4768963761	 1.3147736744	 2.2511648607	 0.109579
H	 2.5269996112	-0.0876507412	 2.5213432014	 0.123644
44.5877	109.4329	230.8149	240.3647	256.9648	270.5745	299.4495	347.9771	397.7923	448.2068	485.4889	524.255	637.0833	756.6239	769.9962	783.0833	848.8733	887.5751	910.4541	929.1655	944.6737	961.5506	990.7257	1030.4489	1041.9922	1053.2297	1071.2064	1084.9069	1119.6028	1148.7778	1178.7884	1188.688	1194.719	1250.7095	1281.9678	1336.1016	1349.6291	1375.2464	1382.4059	1388.9598	1411.2363	1414.9181	1450.1763	1483.218	1490.9943	1493.5732	1501.5629	1504.2304	1505.4485	3002.1557	3020.4445	3030.813	3032.1003	3038.0157	3095.4472	3097.7519	3106.1569	3109.8176	3116.6794	3124.6927	3129.5013	3210.9047	3225.322
CC1CC2(CC2)OC1C	C[C@H]1CC2(CC2)O[C@H]1C	
InChI=1S/C8H14O/c1-6-5-8(3-4-8)9-7(6)2/h6-7H,3-5H2,1-2H3	InChI=1S/C8H14O/c1-6-5-8(3-4-8)9-7(6)2/h6-7H,3-5H2,1-2H3/t6-,7-/m0/s1
