21
gdb 68781	2.38277	1.45478	1.29988	1.5717	79.06	-0.2391	0.0726	0.3117	1136.1065	0.178573	-424.211326	-424.201306	-424.200362	-424.245154	38.267	
C	-0.0903117888	 1.5458818767	 0.0758173272	-0.50354
C	 0.178470105	 0.0792577594	-0.0095029288	 0.346498
C	 0.6775479303	-0.73441569	-1.2129181633	-0.354599
C	 1.2823474175	-1.7791180108	-0.1952405339	 0.349765
C	 0.772571179	-3.2086849922	-0.2711507752	-0.461121
O	 2.6987709963	-1.716881949	-0.1338494766	-0.48404
C	 0.7321693281	-0.8954702046	 0.9517861079	 0.343468
C	 1.2668218633	-0.7897939566	 2.3411656651	-0.517101
O	-0.6850350223	-0.8133737322	 0.7292241965	-0.338262
H	 0.7652543375	 2.1175784915	-0.2980428581	 0.125289
H	-0.9652252038	 1.8163601267	-0.5265654403	 0.129227
H	-0.2875099311	 1.8434249407	 1.1092766486	 0.131226
H	-0.1026473439	-1.0842935356	-1.8948723825	 0.095614
H	 1.4778389029	-0.2408364105	-1.7698263405	 0.100627
H	 1.061147827	-3.6754902312	-1.2214508412	 0.103352
H	 1.1900052549	-3.8092398675	 0.5434389445	 0.119709
H	-0.3176678548	-3.2241393076	-0.2036282063	 0.139355
H	 3.0512811829	-2.2073031103	-0.8839920742	 0.277166
H	 2.3545388342	-0.6843436321	 2.3145099494	 0.143465
H	 0.8344033607	 0.07073181	 2.8588684538	 0.12623
H	 1.0260633352	-1.6884644649	 2.9204974678	 0.127674
119.7515	177.0266	185.7902	191.1881	210.3459	227.654	260.5315	270.8516	322.4643	357.5703	413.9672	474.2785	485.656	545.8347	584.6249	660.2975	714.0341	777.3481	844.5343	886.4614	915.6228	954.2207	961.2919	1023.7166	1072.8591	1098.0278	1133.054	1150.0112	1158.8602	1213.4345	1226.586	1248.5554	1282.0307	1380.6299	1395.3444	1404.4773	1411.1429	1452.8135	1476.3414	1477.7646	1485.8141	1489.4298	1493.7772	1498.2863	1531.8411	3023.8266	3032.5082	3037.3817	3054.7367	3090.1186	3094.355	3101.901	3118.1728	3119.4229	3128.4078	3130.2847	3807.3421
CC12CC(C)(O)C1(C)O2	C[C@@]12C[C@@](C)(O)[C@]1(C)O2	
InChI=1S/C7H12O2/c1-5(8)4-6(2)7(5,3)9-6/h8H,4H2,1-3H3	InChI=1S/C7H12O2/c1-5(8)4-6(2)7(5,3)9-6/h8H,4H2,1-3H3/t5-,6-,7+/m1/s1
