16
gdb 27838	2.06809	1.77875	0.95763	5.5006	81.49	-0.1766	-0.0029	0.1736	1168.7782	0.125769	-434.112283	-434.104041	-434.103097	-434.144599	32.648	
N	 0.0976854635	 1.3469059231	 0.1631020176	-0.565506
C	-0.0490796747	-0.0163713885	 0.0707065634	 0.455191
C	-1.2237452727	-0.6955767941	 0.082181774	-0.351218
C	-1.174456869	-2.1302023895	 0.0586502522	 0.378071
N	-2.3703069067	-2.8171299716	 0.1357038895	-0.584462
C	 0.033420649	-2.7703516792	 0.01171198	-0.289767
C	 1.26544826	-2.046507343	-0.0056709663	 0.37791
N	 2.4340488838	-2.5474271081	-0.0496685732	-0.562337
O	 1.1438735896	-0.6274296313	 0.0176817141	-0.271853
H	 0.9769080473	 1.6981603621	-0.1860986935	 0.264031
H	-0.703306732	 1.8964329759	-0.1048943431	 0.261949
H	-2.1639869256	-0.1639768239	 0.1456180208	 0.081681
H	-3.1852481692	-2.3366848234	-0.212681657	 0.250235
H	-2.3397283859	-3.7896877579	-0.1296554834	 0.255026
H	 0.1114765051	-3.8492505662	-0.0129508602	 0.093316
H	 3.1412715974	-1.8142940045	-0.0555629546	 0.207732
136.8561	176.484	196.5663	305.9677	335.1865	348.4039	376.8135	481.0744	505.4544	524.1288	538.02	556.464	633.5793	640.89	667.7939	699.4623	740.6052	786.2033	815.1295	861.2714	993.3175	1016.9799	1094.5131	1116.6599	1125.7298	1232.4933	1260.3457	1310.4727	1427.8741	1496.3755	1596.8101	1637.6463	1658.7833	1687.126	1752.233	3208.9353	3215.3748	3505.3205	3579.2077	3583.0049	3684.6694	3696.0027
NC1=CC(N)=CC(=N)O1	NC1=C[C@H](N)C=C([NH])O1	
InChI=1S/C5H7N3O/c6-3-1-4(7)9-5(8)2-3/h1-2,7H,6,8H2	InChI=1S/C5H8N3O/c6-3-1-4(7)9-5(8)2-3/h1-3,7H,6,8H2/t3-/m1/s1
