18
gdb 65593	2.89735	1.34532	1.21477	2.4062	76.56	-0.2419	0.0319	0.2739	1090.7922	0.147384	-401.890663	-401.882323	-401.881379	-401.923402	32.887	
O	-0.1046249004	 1.3680526587	 0.0634037739	-0.462243
C	 0.01237378	-0.0480230155	 0.0059338329	 0.236041
C	 0.6642913868	-0.6731737425	 1.2859706068	-0.272495
C	-0.0332531726	-2.0149940084	 1.4565434432	-0.032697
N	-1.343165337	-1.9027629462	 2.1322793876	-0.329122
C	-1.2907046107	-2.0041119557	 0.6584504822	-0.037707
C	-1.4197489871	-0.6579897792	-0.0380562685	-0.249533
C	 0.7795158903	-0.4483125876	-1.1824055747	 0.318251
C	 1.4357707715	-0.750958612	-2.1439672237	-0.516628
H	 0.7594281635	 1.7460503543	-0.1320152798	 0.282371
H	 1.7468925934	-0.7706685923	 1.1784223559	 0.101638
H	 0.4484146123	-0.0146613166	 2.1318518144	 0.120938
H	 0.5500797766	-2.9194153789	 1.5916769827	 0.087297
H	-1.5973887905	-2.8090444331	 2.5202367598	 0.228442
H	-1.6732460457	-2.9002404902	 0.1819900649	 0.087739
H	-2.0861753038	 0.0067820496	 0.5181005855	 0.12689
H	-1.7835395818	-0.7412769031	-1.0634627266	 0.110578
H	 2.0043788251	-1.0196618912	-2.9999300167	 0.200242
70.9079	160.1074	177.79	272.6629	332.6009	349.1332	364.7457	435.0746	510.609	554.6185	619.6391	641.9632	663.6436	692.1959	722.9372	784.4172	851.3523	893.5476	912.479	924.7203	959.8344	984.6742	1030.4925	1074.3166	1094.9968	1111.1713	1143.5567	1184.1142	1201.6609	1235.9618	1272.5687	1287.525	1325.4593	1358.6392	1382.089	1421.3283	1470.9016	1482.3897	2224.7695	3062.8214	3070.7828	3117.6176	3126.5814	3162.0677	3172.1868	3486.4922	3500.2686	3813.4816
OC1(CC2NC2C1)C#C	O[C@]1(C[C@H]2N[C@H]2C1)C#C	
InChI=1S/C7H9NO/c1-2-7(9)3-5-6(4-7)8-5/h1,5-6,8-9H,3-4H2	InChI=1S/C7H9NO/c1-2-7(9)3-5-6(4-7)8-5/h1,5-6,8-9H,3-4H2/t5-,6+,7+
