18
gdb 91284	3.00712	1.37948	1.12969	2.7736	71.38	-0.2471	0.0259	0.273	1096.1098	0.149857	-439.122543	-439.114854	-439.11391	-439.154959	30.232	
O	 0.6049322752	 0.7263103211	-0.9615740557	-0.432618
C	 0.1296276666	-0.2739264883	-0.106203755	 0.165024
C	 0.1804625344	-0.058545242	 1.4340056284	-0.292027
C	-1.2676516331	-0.6234055769	 1.5496214743	-0.013898
C	-2.3284696156	 0.2895894816	 2.1608195836	-0.352316
C	-2.7695560991	 1.2061675757	 1.0107265339	 0.396178
O	-3.505042673	 2.1635259279	 1.0731030758	-0.366864
N	-2.1731163907	 0.7305906163	-0.1391401061	-0.307422
C	-1.4119572786	-0.491906599	-0.0053177992	-0.064929
H	 0.1087806733	 1.5288232786	-0.7587924516	 0.279691
H	 0.6313929187	-1.1994484268	-0.4020627512	 0.094903
H	 0.9666753667	-0.5848961311	 1.9785424735	 0.109973
H	 0.231838541	 1.0033361614	 1.6954209602	 0.104604
H	-1.3026108046	-1.6489469149	 1.9156553295	 0.083029
H	-3.2107250537	-0.2577002098	 2.5101510424	 0.13171
H	-1.9664319911	 0.8896220994	 2.9997406414	 0.133467
H	-2.4595729654	 1.1025489687	-1.0318022962	 0.254516
H	-1.8424989509	-1.3152878919	-0.5838762481	 0.076981
86.8972	101.1447	223.3126	338.6297	363.7393	406.4618	448.0009	529.1827	567.5255	605.1331	623.0281	658.8423	733.4552	801.3641	848.5318	872.6033	901.0253	947.5378	961.6834	1036.6258	1059.5455	1082.6181	1106.9825	1146.3233	1173.8636	1195.5083	1232.7587	1243.8711	1259.8205	1280.7352	1293.3055	1319.7317	1336.4112	1369.4865	1419.6047	1439.1537	1465.0087	1480.6555	1833.0303	3048.3975	3055.1416	3056.5381	3077.7773	3104.3551	3109.0637	3124.2457	3630.5852	3780.2616
OC1CC2CC(=O)NC12	O[C@H]1C[C@H]2CC(=O)N[C@@H]12	
InChI=1S/C6H9NO2/c8-4-1-3-2-5(9)7-6(3)4/h3-4,6,8H,1-2H2,(H,7,9)	InChI=1S/C6H9NO2/c8-4-1-3-2-5(9)7-6(3)4/h3-4,6,8H,1-2H2,(H,7,9)/t3-,4-,6+/m0/s1
