21
gdb 94862	2.79102	1.68707	1.33842	1.473	81.93	-0.2441	0.0769	0.321	1041.9721	0.184904	-387.017157	-387.009704	-387.00876	-387.048682	30.923	
C	-0.152666259	 1.6216998398	-0.1976444267	-0.41214
C	-0.0405199352	 0.1096597882	 0.0177394941	-0.059993
C	 0.718736304	-0.6399557727	-1.161508614	-0.113014
O	 1.6187720399	-1.630017692	-0.608447816	-0.316361
C	 1.9144130481	-1.0988248983	 0.6369201262	 0.440772
C	 2.3631175989	-1.5670302636	 2.0415346783	-0.302047
C	 1.8984643821	-0.0530203585	 2.1622959872	-0.103695
C	 2.7224125004	 0.2212652799	 0.8853444461	-0.291241
C	 0.6744082762	-0.4716701008	 1.2627741619	-0.02355
H	 0.8190622999	 2.1126446053	-0.2963771259	 0.124708
H	-0.7208173307	 1.8377998032	-1.1097452346	 0.115218
H	-0.6803103826	 2.0926658329	 0.6375156575	 0.121141
H	-1.0636986849	-0.277852837	 0.0520296937	 0.083175
H	 0.0401702791	-1.1642884641	-1.8387899717	 0.109933
H	 1.2988336724	 0.087096034	-1.746498095	 0.09957
H	 1.736198233	-2.3119748463	 2.5370725607	 0.099384
H	 3.4282538257	-1.7508394074	 2.2024143183	 0.096334
H	 1.8908259765	 0.5310318832	 3.0806232369	 0.081028
H	 3.8067311456	 0.1136473165	 0.9687663695	 0.090493
H	 2.4591104762	 1.100701385	 0.301347339	 0.094334
H	 0.0235405945	-1.191024657	 1.7678305845	 0.065952
127.1545	204.8123	219.25	278.058	382.7972	418.851	475.6524	535.1445	572.5795	644.4084	709.0704	757.7656	801.9454	834.0419	881.9789	901.0559	927.3563	950.3894	963.0671	978.2147	992.1392	1020.9761	1046.0791	1083.8651	1098.2888	1120.1245	1130.2054	1156.802	1166.9302	1170.9427	1200.9454	1219.5653	1230.3719	1252.3031	1268.0291	1311.713	1361.0927	1385.2992	1403.7854	1422.6216	1492.421	1496.3451	1503.5329	1511.2703	1546.9454	3007.9738	3034.1362	3036.8272	3056.9759	3061.5745	3073.3885	3095.609	3097.9147	3116.6638	3129.4884	3132.5702	3164.1176
CC1COC23CC(C2)C13	C[C@H]1CO[C@@]23C[C@@H](C2)[C@@H]13	
InChI=1S/C8H12O/c1-5-4-9-8-2-6(3-8)7(5)8/h5-7H,2-4H2,1H3	InChI=1S/C8H12O/c1-5-4-9-8-2-6(3-8)7(5)8/h5-7H,2-4H2,1H3/t5-,6-,7+,8-/m0/s1
