12
gdb 49322	2.44316	1.88038	1.06257	4.3354	63.6	-0.2736	-0.1145	0.159	1006.469	0.07756	-472.707893	-472.700573	-472.699629	-472.740118	26.043	
O	-0.1930339292	-0.0224640494	-0.0004214789	-0.264634
C	-0.074111245	 1.1690802048	 0.0079041065	 0.171482
N	 1.1556596197	 1.8528617664	-0.0005997072	-0.233342
C	 2.4702526782	 1.2969771283	-0.0201548756	 0.423797
O	 2.7583209613	 0.1351239945	-0.0325455902	-0.293287
C	 3.3945846486	 2.4763457279	-0.020497774	-0.173651
C	 2.6855349839	 3.605852926	-0.0033825963	-0.194603
C	 1.231393097	 3.2706996617	 0.010197432	 0.435367
O	 0.2888381857	 4.0179847419	 0.0268352198	-0.326652
H	-0.907459673	 1.8902267641	 0.0231855176	 0.135225
H	 4.4667442999	 2.3413520623	-0.0335055167	 0.160773
H	 3.027636213	 4.6308363713	 0.001246513	 0.159525
88.9365	172.7357	199.8369	215.5212	281.611	361.4806	480.102	570.4936	641.4084	649.7992	701.8537	761.4615	785.5075	868.6977	986.4812	1035.1167	1048.2633	1065.7996	1119.5523	1194.3201	1328.0799	1350.1474	1430.8369	1647.4116	1811.0479	1835.6654	1894.061	3017.721	3239.9548	3261.049
O=CN1C(=O)C=CC1=O	O=CN1C(=O)C=CC1=O	
InChI=1S/C5H3NO3/c7-3-6-4(8)1-2-5(6)9/h1-3H	InChI=1S/C5H3NO3/c7-3-6-4(8)1-2-5(6)9/h1-3H
