20
gdb 110828	3.23877	1.12494	1.01832	1.8691	75.02	-0.2296	0.0642	0.2938	1239.4999	0.169253	-440.219855	-440.21038	-440.209436	-440.254136	35.728	
C	-0.3497959394	 1.5966462831	 0.0881366606	-0.472987
C	-0.0281399549	 0.1086634674	 0.0398813082	 0.404316
O	-1.2376911473	-0.6405854192	 0.1185986659	-0.470496
C	 0.9228732143	-0.4884696342	-1.0413842431	-0.232071
N	 1.7001999013	-1.2663723494	-0.0071148981	-0.140525
C	 2.3522092066	-0.2831226993	 0.8779578911	-0.034663
C	 3.056976334	 0.9721884446	 0.4121316599	-0.0896
O	 4.2107244831	 0.678420068	-0.3612112014	-0.417475
C	 0.9050482502	-0.5327001239	 1.0690042577	-0.093505
H	 0.5399850511	 2.2287698239	 0.0941164955	 0.127059
H	-0.9493854461	 1.8824239705	-0.7856267806	 0.110199
H	-0.9363620718	 1.8175389615	 0.9850150952	 0.130608
H	-1.8018370995	-0.3653888125	-0.6124824586	 0.276837
H	 0.3979930263	-1.1820664842	-1.7003384131	 0.109627
H	 1.5320760155	 0.1953986915	-1.6385189064	 0.111673
H	 2.9569205127	-0.8223710949	 1.6111256935	 0.092476
H	 2.4332904526	 1.5937391187	-0.2298818447	 0.108534
H	 3.3073727368	 1.5763520709	 1.2995101519	 0.092167
H	 4.7279449817	 0.0179153164	 0.1116757998	 0.286066
H	 0.5188147526	-1.0480295987	 1.9434146868	 0.101763
46.1513	141.0692	173.1201	202.4806	231.892	270.3427	284.906	308.3634	386.4676	391.4859	467.5953	543.1711	590.2796	645.5795	723.8177	779.9017	859.4001	879.1696	921.4291	953.7256	971.8084	993.0711	1047.9809	1058.8368	1083.0374	1102.5697	1114.9449	1161.9274	1201.4673	1208.1335	1243.5249	1260.755	1281.1222	1330.6727	1354.5418	1398.8226	1407.5858	1423.2821	1458.8619	1484.2474	1490.1946	1493.9228	1520.4098	2973.0256	3027.5668	3062.654	3078.4096	3096.2193	3124.4008	3126.9623	3139.9511	3159.6485	3801.9079	3810.5322
CC1(O)CN2C(CO)C12	C[C@@]1(O)CN2[C@@H](CO)[C@@H]12	
InChI=1S/C6H11NO2/c1-6(9)3-7-4(2-8)5(6)7/h4-5,8-9H,2-3H2,1H3	InChI=1S/C6H11NO2/c1-6(9)3-7-4(2-8)5(6)7/h4-5,8-9H,2-3H2,1H3/t4-,5-,6+,7?/m0/s1
