19
gdb 41765	2.57069	2.07526	1.56312	1.7746	77.84	-0.2347	0.0203	0.255	919.7451	0.16344	-385.888805	-385.882184	-385.88124	-385.919619	27.642	
C	 0.1938834758	 1.6424653634	 0.0210037895	-0.104196
O	 1.3744904676	 1.9004140557	-0.7368063472	-0.258678
C	 2.2607308028	 0.7782396741	-0.5322405396	 0.023528
C	 3.1150279047	 1.0498279829	 0.6834473262	-0.056457
C	 2.7910310475	 0.6387592186	 1.907090393	-0.051504
C	 1.597886603	-0.2216238881	 2.2212126806	-0.291686
C	 0.8452724171	-0.7285920613	 1.0004620048	-0.039489
C	 0.0248040112	 0.1252978859	 0.0529943419	-0.076479
C	 1.3480302149	-0.4419478637	-0.3936037868	-0.086757
H	 0.2772096291	 2.0764061572	 1.029137636	 0.093111
H	-0.6413516376	 2.1319353635	-0.4885428577	 0.106689
H	 2.8802775453	 0.7096027927	-1.4305584992	 0.079586
H	 3.9799016775	 1.6897363057	 0.5332346421	 0.089084
H	 3.4069210093	 0.9276881032	 2.7561139312	 0.08819
H	 1.9355802696	-1.0858943555	 2.8095915229	 0.11061
H	 0.9200429638	 0.3265394223	 2.8919071575	 0.114597
H	 0.4281715947	-1.7226909564	 1.1382014865	 0.085231
H	-0.9083921078	-0.2898475096	-0.3098018277	 0.087944
H	 1.4270163614	-1.2311706507	-1.131241554	 0.086674
125.5557	204.779	288.3407	428.6868	479.5666	505.8706	560.0511	688.115	707.0717	723.7738	760.0478	793.7406	844.3135	894.2765	913.5629	933.0068	958.8778	968.0265	986.568	1007.0619	1040.0146	1043.1575	1067.4375	1089.5354	1113.8432	1121.4378	1198.2528	1203.9901	1233.9647	1238.9836	1308.5982	1334.1895	1345.0445	1358.8572	1371.9702	1373.071	1413.6051	1437.2089	1473.5396	1517.1834	1726.4027	2985.5533	3000.4657	3021.7383	3069.934	3077.5537	3135.0938	3143.2552	3170.7504	3173.2382	3182.668
C1OC2C=CCC3C1C23	C1O[C@H]2C=CC[C@H]3[C@@H]1[C@@H]23	
InChI=1S/C8H10O/c1-2-5-6-4-9-7(3-1)8(5)6/h1,3,5-8H,2,4H2	InChI=1S/C8H10O/c1-2-5-6-4-9-7(3-1)8(5)6/h1,3,5-8H,2,4H2/t5-,6+,7-,8-/m0/s1
