18
gdb 126955	5.07022	0.80503	0.70565	2.3682	76.06	-0.1859	0.0543	0.2402	1579.5159	0.148378	-435.281865	-435.272543	-435.271599	-435.316475	33.874	
C	-0.0742121278	 1.5427732589	-0.0020652042	-0.394748
C	-0.0512293764	 0.0288354029	 0.1838494889	-0.111376
N	-1.336605981	-0.5495534196	-0.1842022599	-0.380928
C	-1.5173002834	-1.920939202	-0.0737290779	 0.436778
N	-2.7198892013	-2.4131460083	 0.2063936273	-0.345514
N	-2.5377969018	-3.7717850124	 0.1587707543	-0.254893
C	-1.2666122814	-4.1082769487	-0.1199422515	 0.46593
O	-0.9382698259	-5.4173365158	-0.1863001896	-0.432685
C	-0.5470547147	-2.9413841642	-0.2827832789	-0.456017
H	 0.8987912618	 1.9767730883	 0.2448462285	 0.117701
H	-0.3213598637	 1.8020728983	-1.0355826933	 0.129313
H	-0.8206651813	 2.0082323979	 0.6519309971	 0.116807
H	 0.7181386821	-0.4040936423	-0.4663342135	 0.109038
H	 0.237499911	-0.2179905421	 1.2199587466	 0.091179
H	-2.1268662389	-0.0523954944	 0.2075998876	 0.232809
H	-3.3062807029	-4.3911301004	 0.3436290671	 0.273429
H	-0.0045165444	-5.4881601961	-0.4061804023	 0.311438
H	 0.4980954499	-2.8458590101	-0.5239702062	 0.091739
63.349	72.8886	123.4162	223.7955	251.4783	259.1269	297.9791	318.5	375.4455	449.543	489.5663	612.6682	671.5225	677.7791	692.2013	745.3831	802.0285	820.3572	933.7645	994.6905	1052.6881	1078.5214	1127.755	1149.8803	1176.8879	1197.5007	1207.8358	1293.5964	1343.3136	1369.6968	1409.0628	1429.4963	1480.4413	1494.8445	1501.1484	1524.377	1546.8004	1608.9959	1629.1304	2953.5406	3034.589	3045.6306	3102.6424	3121.2334	3266.6571	3563.6838	3697.2581	3847.8583
CCNC1=NNC(O)=C1	CCNc1n[nH]c(O)c1	
InChI=1S/C5H9N3O/c1-2-6-4-3-5(9)8-7-4/h3H,2H2,1H3,(H3,6,7,8,9)	InChI=1S/C5H9N3O/c1-2-6-4-3-5(9)8-7-4/h3H,2H2,1H3,(H3,6,7,8,9)
