14
gdb 49214	4.88588	1.03784	0.86829	3.8822	70.38	-0.2524	-0.0655	0.1868	1223.0274	0.102003	-473.888949	-473.881271	-473.880327	-473.921803	27.548	
O	-0.1209941278	-0.052567266	-0.1000738879	-0.293913
C	-0.0643743455	 1.1577076273	-0.0215793439	 0.095919
C	 1.1743092238	 1.9165221976	-0.0014531351	 0.102075
C	 1.1830651199	 3.2590302201	 0.0806416564	-0.024663
N	 2.3706070184	 3.9454537808	 0.0662180416	-0.382835
C	 3.5768513593	 3.3767246381	-0.3662380598	 0.490448
O	 4.5525381778	 4.0453968294	-0.5674259687	-0.362734
O	 3.547445883	 2.0549716542	-0.5919870885	-0.240847
C	 2.4996832129	 1.2157659187	-0.0481139515	-0.172539
H	-0.986765193	 1.7778919005	 0.0458485586	 0.067161
H	 0.2788342559	 3.8546496106	 0.1516668531	 0.143911
H	 2.390661798	 4.9519044379	 0.1138137836	 0.279186
H	 2.8157729134	 0.8836473139	 0.949609411	 0.138042
H	 2.4562341639	 0.336904047	-0.6930920089	 0.160787
67.7999	133.5345	167.929	185.8156	344.5349	407.1766	433.8261	477.5726	588.1525	599.0526	649.9358	767.6031	790.0389	827.4871	909.0132	942.1352	1023.9367	1044.7425	1071.9411	1167.5358	1214.9827	1240.1181	1285.5079	1383.2782	1426.5224	1432.8189	1475.2076	1505.6707	1715.236	1771.4528	1865.3715	2872.4833	3021.0698	3123.3573	3192.5056	3648.715
O=CC1=CNC(=O)OC1	O=CC1=CNC(=O)OC1	
InChI=1S/C5H5NO3/c7-2-4-1-6-5(8)9-3-4/h1-2H,3H2,(H,6,8)	InChI=1S/C5H5NO3/c7-2-4-1-6-5(8)9-3-4/h1-2H,3H2,(H,6,8)
