19
gdb 91767	2.40303	1.88073	1.65812	1.1147	69.79	-0.2432	0.0833	0.3265	936.6188	0.161584	-460.169107	-460.161818	-460.160874	-460.200482	29.34	
C	-0.2760503444	 1.5483834001	-0.0591585792	-0.420089
C	 0.0028517096	 0.0553829911	 0.0038767614	 0.144098
O	 0.7081556117	-0.3822662481	-1.1742363951	-0.28664
C	 1.8092073873	-1.1537185465	-0.7300407757	 0.181417
C	 3.0578145901	-0.2780192364	-0.5761741264	-0.099274
O	 2.7980560876	 0.8191236852	 0.288349945	-0.257334
C	 2.0962305492	 0.4564772818	 1.4705466404	-0.086343
C	 0.9126247221	-0.4553242584	 1.1451823497	 0.012176
O	 1.4486158689	-1.6469889568	 0.5482123083	-0.264214
H	 0.6535344678	 2.1118326783	-0.1587840963	 0.146031
H	-0.9106106514	 1.7713203965	-0.9212502693	 0.127656
H	-0.8065182335	 1.8777770793	 0.8411072857	 0.111128
H	-0.945844519	-0.4969283856	 0.0497383071	 0.08354
H	 1.973279299	-1.9976452797	-1.4071770735	 0.091094
H	 3.8786236391	-0.9038962888	-0.1914381193	 0.094988
H	 3.3540023415	 0.1496946056	-1.5377744285	 0.117261
H	 2.7566408803	-0.0765865996	 2.1721360053	 0.102341
H	 1.7766917328	 1.392931444	 1.9373308101	 0.113477
H	 0.3621715414	-0.7349157119	 2.0463775602	 0.088686
139.6607	222.7629	248.2605	294.1147	353.1576	379.6612	438.9431	480.2983	534.6386	664.6956	763.7616	806.4985	844.5725	852.5052	872.1973	911.3223	925.4982	977.6846	1020.6215	1043.1831	1078.8329	1092.1374	1102.9926	1134.871	1162.8904	1168.524	1238.2109	1280.7448	1290.2992	1331.3877	1344.8182	1361.3724	1370.7637	1383.2945	1387.6327	1409.0105	1420.243	1479.8108	1484.8027	1495.4405	1510.4444	2984.699	2990.8948	3005.3806	3041.4335	3073.1894	3085.6907	3095.5919	3097.8457	3109.5075	3140.5012
CC1OC2COCC1O2	C[C@H]1O[C@H]2COC[C@@H]1O2	
InChI=1S/C6H10O3/c1-4-5-2-7-3-6(8-4)9-5/h4-6H,2-3H2,1H3	InChI=1S/C6H10O3/c1-4-5-2-7-3-6(8-4)9-5/h4-6H,2-3H2,1H3/t4-,5+,6-/m1/s1
