18
gdb 74228	2.22718	1.59834	1.00799	5.8864	78.61	-0.213	-0.0237	0.1893	1166.2972	0.148935	-439.107073	-439.09866	-439.097716	-439.14003	32.22	
N	 0.0107317278	 1.3657017782	-0.1864492204	-0.556075
C	-0.0263329202	 0.0128888801	 0.0395135771	 0.387044
C	-1.1997531422	-0.6636754514	 0.1400915362	-0.268622
C	-1.3627698884	-2.1018344317	 0.3011821664	 0.357428
O	-2.4292847407	-2.6603511285	 0.0969896611	-0.358103
C	-0.1792073763	-2.9450830254	 0.8134362986	-0.208214
O	 0.5979299781	-2.2729495397	 1.7881072266	-0.229169
C	 1.650725946	-1.4778305374	 1.3014138493	-0.054618
C	 1.322960695	-0.6702335668	 0.0306260382	-0.353364
H	 0.8633132858	 1.8639686449	 0.0058993397	 0.256814
H	-0.8347144913	 1.8946741405	-0.0402017611	 0.26189
H	-2.1350154313	-0.1202022442	 0.0309897818	 0.080199
H	-0.6147121422	-3.8229844992	 1.2958349105	 0.132995
H	 0.4342040572	-3.3036905278	-0.0286147197	 0.101846
H	 1.9075618521	-0.7991900095	 2.1218525201	 0.111266
H	 2.5407867152	-2.0926237615	 1.0862474644	 0.093229
H	 1.3649134758	-1.3310574251	-0.8410689516	 0.141446
H	 2.1222696497	 0.0645062543	-0.1163013471	 0.104007
81.7856	147.8407	184.9922	266.3764	319.8366	334.3331	350.1021	401.7834	470.6592	506.8713	536.9846	567.8886	627.8786	696.2944	781.2547	846.8548	859.2526	872.7736	974.6372	1013.485	1023.492	1072.1134	1112.2132	1151.966	1240.3264	1244.8219	1282.3801	1297.8859	1329.6764	1346.5061	1360.793	1401.5659	1433.6257	1471.3134	1492.3287	1508.3465	1643.5426	1672.9842	1740.3796	2965.1055	2980.3858	3047.2558	3061.2753	3087.1115	3108.7344	3158.2091	3591.6707	3707.1247
NC1=CC(=O)COCC1	NC1=CC(=O)COCC1	
InChI=1S/C6H9NO2/c7-5-1-2-9-4-6(8)3-5/h3H,1-2,4,7H2	InChI=1S/C6H9NO2/c7-5-1-2-9-4-6(8)3-5/h3H,1-2,4,7H2
