14
gdb 17608	3.90639	1.70359	1.22524	0.9854	60.41	-0.2399	-0.0432	0.1967	934.8667	0.107044	-415.886825	-415.878918	-415.877974	-415.919513	27.972	
N	-0.0614481564	 1.217218684	-0.0258350834	-0.512237
C	 0.0882889722	-0.1138878691	-0.1971070665	 0.321613
O	 1.1424176518	-0.7055004459	-0.3235737029	-0.358627
C	-1.2863515128	-0.8265727064	-0.1902795863	 0.295309
O	-2.3118842428	-0.2204705596	 0.0561748389	-0.360075
N	-1.2330010656	-2.1401540633	-0.5584096364	-0.054764
C	-0.4645596718	-3.2196499546	 0.0097227667	-0.205132
C	-1.9704263198	-3.2348615238	 0.0208832739	-0.231823
H	 0.7478020122	 1.8121395178	 0.0199988167	 0.268044
H	-0.9911133783	 1.5831058211	 0.1041862545	 0.281293
H	 0.0781778175	-3.8369851169	-0.6994668274	 0.137852
H	 0.0549300241	-3.0281047672	 0.9431533566	 0.144278
H	-2.4842636517	-3.0395327742	 0.9584475535	 0.139838
H	-2.5064255786	-3.8694289119	-0.6786833279	 0.13443
65.9668	113.7623	173.0805	186.5879	311.2571	325.2674	399.157	468.3384	515.0856	633.0987	670.8572	685.5434	798.5225	838.9695	917.3259	992.5825	1047.3997	1094.2836	1124.0104	1134.6345	1148.7581	1169.4847	1183.4886	1351.704	1454.7965	1496.4114	1527.6847	1583.7254	1768.151	1808.6923	3115.7959	3126.797	3202.2288	3219.1238	3594.7919	3739.6419
NC(=O)C(=O)N1CC1	NC(=O)C(=O)N1CC1	
InChI=1S/C4H6N2O2/c5-3(7)4(8)6-1-2-6/h1-2H2,(H2,5,7)	InChI=1S/C4H6N2O2/c5-3(7)4(8)6-1-2-6/h1-2H2,(H2,5,7)
